data_PCOD9583149
_publ_section_title
;
Structure prediction by ZEFSAII (Michael W. Deem and Ramdas Pophale) SiO2 
 PCOD9583149
Probable space group: P 65 2 2
;
_chemical_formula_sum "Si O2"
_cell_formula_units_Z 60
_cell_length_a 24.319536
_cell_length_b 24.319536
_cell_length_c 7.164796
_cell_angle_alpha 90.000000
_cell_angle_beta 90.000000
_cell_angle_gamma 120.000000
_cell_volume 3669.822258
_symmetry_space_group_name_H-M "P 65 2 2"
_symmetry_group_IT_number 179
_symmetry_cell_setting 'hexagonal'
loop_
_space_group_symop_operation_xyz
x,y,z
x-y,x,5/6+z
-y,x-y,2/3+z
-x,-y,1/2+z
-x+y,-x,1/3+z
y,-x+y,1/6+z
x-y,-y,-z
-x,-x+y,1/3-z
y,x,2/3-z
-y,-x,1/6-z
-x+y,y,1/2-z
x,x-y,5/6-z
loop_
_atom_site_type_symbol
_atom_site_label
_atom_site_fract_x
_atom_site_fract_y
_atom_site_fract_z
Si Si1 0.360183 0.292685 0.288137
Si Si2 0.414005 0.585996 0.083334
Si Si3 0.574945 0.931137 0.403749
Si Si4 0.582315 0.511856 0.870135
Si Si5 0.490692 0.204746 0.091336
Si Si6 0.799235 0.598469 0.750000
O O1 0.301247 0.301247 0.333334
O O2 0.423536 0.354789 0.371715
O O3 0.359867 0.232823 0.372465
O O4 0.373779 0.302524 0.067626
O O5 0.419638 0.544921 0.253880
O O6 0.445659 0.658604 0.147786
O O7 0.519529 0.921497 0.257454
O O8 0.546806 0.869517 0.531789
O O9 0.606106 0.000000 0.500000
O O10 0.524156 0.524156 0.833334
O O11 0.447502 0.214337 0.240880
O O12 0.501503 0.250752 0.916667
#
# Coordination Sequence:
#
# PCOD9583149 Si02
#       6
#    12   6  12  12  12   6
#     4   9  18  35  58  83 114 144 176 228 274 335
#     4  12  24  38  58  78 100 139 184 224 280 336
#     4  10  18  35  59  86 110 133 177 218 288 345
#     4   9  19  36  52  85 114 133 163 225 280 331
#     4  12  24  40  61  76 104 145 176 230 279 340
#     4  12  20  42  58  84 114 141 190 228 288 338
#
# _framework density 16.349565999999999
#
# number of rings (size 3 to 8) (size 9 to 14) (size 15 to 20)
#    1.200    0.400    4.000    2.400    0.000    3.200 
#    0.000    0.000    2.200    0.000    0.000    0.000 
#    0.000    0.000    0.000    0.000    0.000    6.000 
#
# Total GULP energy -334689.135859 kJ/mol
# GULP energy per Si atom -5578.152264 kJ/mol
# Density = 1.631235 g / cm^3
# Si number density = 16.349566 Si / 1000 Ang^3
#
#
#
# Elastic Constant Matrix: (Units=GPa)
#
#
# Indices 1 2 3 4 5 6 
#
# 1 76.8749 41.4027 25.8616 0.0000 0.0000 0.0000
# 2 41.4027 76.8749 25.8616 0.0000 0.0000 0.0000
# 3 25.8616 25.8616 84.3049 0.0000 0.0000 0.0000
# 4 0.0000 0.0000 0.0000 22.1548 0.0000 0.0000
# 5 0.0000 0.0000 0.0000 0.0000 22.1548 0.0000
# 6 0.0000 0.0000 0.0000 0.0000 0.0000 17.7361
#
#
#
# Elastic Compliance Matrix: (Units=1/GPa)
#
#
# Indices 1 2 3 4 5 6 
#
# 1 0.018978 -0.009213 -0.002995 0.000000 0.000000 0.000000
# 2 -0.009213 0.018978 -0.002995 0.000000 0.000000 0.000000
# 3 -0.002995 -0.002995 0.013699 0.000000 0.000000 0.000000
# 4 0.000000 0.000000 0.000000 0.045137 0.000000 0.000000
# 5 0.000000 0.000000 0.000000 0.000000 0.045137 0.000000
# 6 0.000000 0.000000 0.000000 0.000000 0.000000 0.056382
#
#
# Mechanical properties :
#
#
# Convention : Reuss Voigt Hill
#
# Bulk Modulus (GPa) = 47.06547 47.14517 47.10532
# Shear Modulus (GPa) = 21.20428 22.07109 21.63769
#
# Velocity S-wave (km/s) = 3.60520 3.67815 3.64186
# Velocity P-wave (km/s) = 6.79555 6.85104 6.82335
#
# Compressibility (1/GPa) = 0.02124700
#
# Stress axis : x y z
#
# Youngs Moduli (GPa) = 52.69308 52.69308 72.99553
#
# Poissons Ratio (x) = 0.48547 0.21865
# Poissons Ratio (y) = 0.48547 0.21865
# Poissons Ratio (z) = 0.15784 0.15784
#
# Static dielectric constant tensor:
#      x y z
#    x 1.555260 0.000000 0.000000 
#    y 0.000000 1.555260 0.000000 
#    z 0.000000 0.000000 1.625770 
# 
# From -- ./inp_files/3539.got.cif
#   From: 2010.05.17/outbox.cif.g08.bks.cpg/sg179_2_cif.got.tgz:3539.got - 2010.05.20 11:37:33.
