data_PCOD9583650
_publ_section_title
;
Structure prediction by ZEFSAII (Michael W. Deem and Ramdas Pophale) SiO2 
 PCOD9583650
Probable space group: P 62 2 2
;
_chemical_formula_sum "Si O2"
_cell_formula_units_Z 60
_cell_length_a 10.622956
_cell_length_b 10.622956
_cell_length_c 32.111221
_cell_angle_alpha 90.000000
_cell_angle_beta 90.000000
_cell_angle_gamma 120.000000
_cell_volume 3138.182647
_symmetry_space_group_name_H-M "P 62 2 2"
_symmetry_group_IT_number 180
_symmetry_cell_setting 'hexagonal'
loop_
_space_group_symop_operation_xyz
x,y,z
x-y,x,1/3+z
-y,x-y,2/3+z
-x,-y,z
-x+y,-x,1/3+z
y,-x+y,2/3+z
x-y,-y,-z
-x,-x+y,1/3-z
y,x,2/3-z
-y,-x,2/3-z
-x+y,y,-z
x,x-y,1/3-z
loop_
_atom_site_type_symbol
_atom_site_label
_atom_site_fract_x
_atom_site_fract_y
_atom_site_fract_z
Si Si1 0.000000 0.000000 0.905267
Si Si2 0.056830 0.738736 0.211803
Si Si3 0.223773 0.701861 0.989303
Si Si4 0.000000 0.500000 0.278577
Si Si5 0.643653 0.515009 0.085799
Si Si6 0.191308 0.212798 0.635676
O O1 0.126711 0.149862 0.883983
O O2 0.924368 0.064150 0.935330
O O3 0.994221 0.620716 0.249312
O O4 0.227544 0.788156 0.215199
O O5 0.000000 0.673488 0.166667
O O6 0.136280 0.573215 0.023213
O O7 0.391009 0.782017 0.000000
O O8 0.203682 0.624619 0.944372
O O9 0.150747 0.800572 0.990928
O O10 0.500000 0.500000 0.106531
O O11 0.718282 0.654085 0.054718
O O12 0.179659 0.089830 0.666667
#
# Coordination Sequence:
#
# PCOD9583650 Si02
#       6
#     6  12  12   6  12  12
#     4  10  22  36  60  80 116 161 213 254 296 360
#     4  11  23  39  59  85 118 163 210 256 297 362
#     4  11  18  31  58  92 122 148 188 251 325 372
#     4  12  21  34  62  90 126 152 200 252 320 372
#     4   9  17  31  57  87 111 143 195 245 296 361
#     4  10  18  31  54  89 117 150 194 247 307 377
#
# _framework density 19.119347000000001
#
# number of rings (size 3 to 8) (size 9 to 14) (size 15 to 20)
#    0.000    1.600    5.000    3.900    0.000    0.000 
#    0.000    0.000    4.400   10.800    0.000    0.000 
#    0.000    0.000    0.000    0.000    0.000    0.000 
#
# Total GULP energy -334077.718249 kJ/mol
# GULP energy per Si atom -5567.961971 kJ/mol
# Density = 1.907583 g / cm^3
# Si number density = 19.119347 Si / 1000 Ang^3
#
#
#
# Elastic Constant Matrix: (Units=GPa)
#
#
# Indices 1 2 3 4 5 6 
#
# 1 81.8007 26.6321 31.8721 0.0000 0.0000 0.0000
# 2 26.6321 81.8007 31.8721 0.0000 0.0000 0.0000
# 3 31.8721 31.8721 86.1552 0.0000 0.0000 0.0000
# 4 0.0000 0.0000 0.0000 19.1363 0.0000 0.0000
# 5 0.0000 0.0000 0.0000 0.0000 19.1363 0.0000
# 6 0.0000 0.0000 0.0000 0.0000 0.0000 27.5843
#
#
#
# Elastic Compliance Matrix: (Units=1/GPa)
#
#
# Indices 1 2 3 4 5 6 
#
# 1 0.014956 -0.003170 -0.004360 0.000000 0.000000 0.000000
# 2 -0.003170 0.014956 -0.004360 0.000000 0.000000 0.000000
# 3 -0.004360 -0.004360 0.014833 0.000000 0.000000 0.000000
# 4 0.000000 0.000000 0.000000 0.052257 0.000000 0.000000
# 5 0.000000 0.000000 0.000000 0.000000 0.052257 0.000000
# 6 0.000000 0.000000 0.000000 0.000000 0.000000 0.036252
#
#
# Mechanical properties :
#
#
# Convention : Reuss Voigt Hill
#
# Bulk Modulus (GPa) = 47.70086 47.83434 47.76760
# Shear Modulus (GPa) = 23.11837 23.79676 23.45756
#
# Velocity S-wave (km/s) = 3.48107 3.53178 3.50652
# Velocity P-wave (km/s) = 6.41563 6.45789 6.43680
#
# Compressibility (1/GPa) = 0.02096398
#
# Stress axis : x y z
#
# Youngs Moduli (GPa) = 66.86381 66.86381 67.41860
#
# Poissons Ratio (x) = 0.21199 0.29393
# Poissons Ratio (y) = 0.21199 0.29393
# Poissons Ratio (z) = 0.29152 0.29152
#
# Static dielectric constant tensor:
#      x y z
#    x 1.717980 0.000000 0.000000 
#    y 0.000000 1.717980 0.000000 
#    z 0.000000 0.000000 1.686160 
# 
# From -- ./inp_files/12239.got.cif
#   From: 2010.05.17/outbox.cif.g08.bks.cpg/sg180_7_cif.got.tgz:12239.got - 2010.05.20 11:43:55.
