data_PCOD9583033
_publ_section_title
;
Structure prediction by ZEFSAII (Michael W. Deem and Ramdas Pophale) SiO2 
 PCOD9583033
Probable space group: P 61 2 2
;
_chemical_formula_sum "Si O2"
_cell_formula_units_Z 54
_cell_length_a 11.274389
_cell_length_b 11.274389
_cell_length_c 21.875441
_cell_angle_alpha 90.000000
_cell_angle_beta 90.000000
_cell_angle_gamma 120.000000
_cell_volume 2408.094241
_symmetry_space_group_name_H-M "P 61 2 2"
_symmetry_group_IT_number 178
_symmetry_cell_setting 'hexagonal'
loop_
_space_group_symop_operation_xyz
x,y,z
x-y,x,1/6+z
-y,x-y,1/3+z
-x,-y,1/2+z
-x+y,-x,2/3+z
y,-x+y,5/6+z
x-y,-y,-z
-x,-x+y,2/3-z
y,x,1/3-z
-y,-x,5/6-z
-x+y,y,1/2-z
x,x-y,1/6-z
loop_
_atom_site_type_symbol
_atom_site_label
_atom_site_fract_x
_atom_site_fract_y
_atom_site_fract_z
Si Si1 0.254408 0.000000 0.000000
Si Si2 0.445392 0.757045 0.515963
Si Si3 0.843355 0.958342 0.269971
Si Si4 0.238140 0.761861 0.416667
Si Si5 0.447867 0.895734 0.750000
Si Si6 0.714067 0.701064 0.337754
O O1 0.403046 0.111573 0.026771
O O2 0.205714 0.088317 0.958031
O O3 0.390057 0.695029 0.583334
O O4 0.338525 0.776012 0.472967
O O5 0.464949 0.654810 0.471225
O O6 0.749348 0.855587 0.322903
O O7 0.741005 0.897596 0.213176
O O8 0.971085 0.942169 0.250000
O O9 0.089651 0.707189 0.445534
O O10 0.386549 0.976046 0.715235
#
# Coordination Sequence:
#
# PCOD9583033 Si02
#       6
#     6  12  12   6   6  12
#     4  12  24  46  80 116 148 198 246 322 394 452
#     4  11  28  50  75 110 154 202 265 309 381 469
#     4  12  24  46  77 113 148 188 246 317 389 445
#     4  11  30  50  74 112 149 220 254 312 387 460
#     4  11  28  48  72 112 151 200 248 322 377 448
#     4  12  27  46  76 108 154 193 251 310 380 461
#
# _framework density 22.424372999999999
#
# number of rings (size 3 to 8) (size 9 to 14) (size 15 to 20)
#    0.000    0.444    5.556    0.667    7.778    1.778 
#    0.000    0.000    0.000    0.000    0.000    0.000 
#    0.000    0.000    0.000    0.000    0.000    0.000 
#
# Total GULP energy -300840.442023 kJ/mol
# GULP energy per Si atom -5571.119297 kJ/mol
# Density = 2.237333 g / cm^3
# Si number density = 22.424373 Si / 1000 Ang^3
#
#
#
# Elastic Constant Matrix: (Units=GPa)
#
#
# Indices 1 2 3 4 5 6 
#
# 1 83.5611 35.9616 35.6643 0.0000 0.0000 0.0000
# 2 35.9616 83.5611 35.6643 0.0000 0.0000 0.0000
# 3 35.6643 35.6643 153.1570 0.0000 0.0000 0.0000
# 4 0.0000 0.0000 0.0000 76.6043 0.0000 0.0000
# 5 0.0000 0.0000 0.0000 0.0000 76.6043 0.0000
# 6 0.0000 0.0000 0.0000 0.0000 0.0000 23.7997
#
#
#
# Elastic Compliance Matrix: (Units=1/GPa)
#
#
# Indices 1 2 3 4 5 6 
#
# 1 0.015363 -0.005646 -0.002263 0.000000 0.000000 0.000000
# 2 -0.005646 0.015363 -0.002263 0.000000 0.000000 0.000000
# 3 -0.002263 -0.002263 0.007583 0.000000 0.000000 0.000000
# 4 0.000000 0.000000 0.000000 0.013054 0.000000 0.000000
# 5 0.000000 0.000000 0.000000 0.000000 0.013054 0.000000
# 6 0.000000 0.000000 0.000000 0.000000 0.000000 0.042017
#
#
# Mechanical properties :
#
#
# Convention : Reuss Voigt Hill
#
# Bulk Modulus (GPa) = 55.66030 59.42885 57.54457
# Shear Modulus (GPa) = 37.66045 49.60094 43.63069
#
# Velocity S-wave (km/s) = 4.10255 4.70821 4.41577
# Velocity P-wave (km/s) = 6.87869 7.49104 7.19139
#
# Compressibility (1/GPa) = 0.01796613
#
# Stress axis : x y z
#
# Youngs Moduli (GPa) = 65.09235 65.09235 131.87328
#
# Poissons Ratio (x) = 0.36750 0.29839
# Poissons Ratio (y) = 0.36750 0.29839
# Poissons Ratio (z) = 0.14728 0.14728
#
# Static dielectric constant tensor:
#      x y z
#    x 1.780350 0.000000 0.000000 
#    y 0.000000 1.780350 0.000000 
#    z 0.000000 0.000000 1.740660 
# 
# From -- ./inp_files/7458.got.cif
#   From: 2010.05.17/outbox.cif.g08.bks.cpg/sg178_4_cif.got.tgz:7458.got - 2010.05.20 11:30:59.
