data_PCOD9583812
_publ_section_title
;
Structure prediction by ZEFSAII (Michael W. Deem and Ramdas Pophale) SiO2 
 PCOD9583812
Probable space group: P 62 2 2
;
_chemical_formula_sum "Si O2"
_cell_formula_units_Z 60
_cell_length_a 20.260779
_cell_length_b 20.260779
_cell_length_c 8.967839
_cell_angle_alpha 90.000000
_cell_angle_beta 90.000000
_cell_angle_gamma 120.000000
_cell_volume 3188.091029
_symmetry_space_group_name_H-M "P 62 2 2"
_symmetry_group_IT_number 180
_symmetry_cell_setting 'hexagonal'
loop_
_space_group_symop_operation_xyz
x,y,z
x-y,x,1/3+z
-y,x-y,2/3+z
-x,-y,z
-x+y,-x,1/3+z
y,-x+y,2/3+z
x-y,-y,-z
-x,-x+y,1/3-z
y,x,2/3-z
-y,-x,2/3-z
-x+y,y,-z
x,x-y,1/3-z
loop_
_atom_site_type_symbol
_atom_site_label
_atom_site_fract_x
_atom_site_fract_y
_atom_site_fract_z
Si Si1 0.894294 0.276112 0.067641
Si Si2 0.302704 0.544833 0.662048
Si Si3 0.371737 0.314347 0.606233
Si Si4 0.142832 0.285665 0.500000
Si Si5 0.799201 0.330198 0.416352
Si Si6 0.745805 0.745805 0.333334
O O1 0.908950 0.264539 0.240941
O O2 0.830122 0.298808 0.054495
O O3 0.867411 0.202807 0.962603
O O4 0.971679 0.344192 0.995016
O O5 0.266079 0.532158 0.500000
O O6 0.391204 0.608819 0.661956
O O7 0.246084 0.559205 0.762818
O O8 0.461272 0.346612 0.573031
O O9 0.321652 0.276971 0.456908
O O10 0.180401 0.241531 0.422182
O O11 0.750236 0.249765 0.333334
#
# Coordination Sequence:
#
# PCOD9583812 Si02
#       6
#    12  12  12   6  12   6
#     4  10  21  40  64  87 121 162 206 265 318 375
#     4  12  24  40  59  84 118 163 209 261 320 375
#     4  10  23  39  61  90 118 161 211 261 320 371
#     4  10  20  38  62  94 128 165 202 250 311 366
#     4  12  24  39  59  86 117 160 210 262 309 380
#     4  10  22  38  64  93 130 163 202 254 314 370
#
# _framework density 18.820039999999999
#
# number of rings (size 3 to 8) (size 9 to 14) (size 15 to 20)
#    0.000    1.200    3.000    3.600    2.800    0.800 
#    0.000    2.000    0.000    0.000    0.000    0.000 
#    0.000   65.600    0.000    0.000    0.000    0.000 
#
# Total GULP energy -334448.773247 kJ/mol
# GULP energy per Si atom -5574.146221 kJ/mol
# Density = 1.877720 g / cm^3
# Si number density = 18.820040 Si / 1000 Ang^3
#
#
#
# Elastic Constant Matrix: (Units=GPa)
#
#
# Indices 1 2 3 4 5 6 
#
# 1 90.1059 74.8824 48.0843 0.0000 0.0000 0.0000
# 2 74.8824 90.1059 48.0843 0.0000 0.0000 0.0000
# 3 48.0843 48.0843 145.5091 0.0000 0.0000 0.0000
# 4 0.0000 0.0000 0.0000 27.4896 0.0000 0.0000
# 5 0.0000 0.0000 0.0000 0.0000 27.4896 0.0000
# 6 0.0000 0.0000 0.0000 0.0000 0.0000 7.6118
#
#
#
# Elastic Compliance Matrix: (Units=1/GPa)
#
#
# Indices 1 2 3 4 5 6 
#
# 1 0.036597 -0.029090 -0.002481 0.000000 0.000000 0.000000
# 2 -0.029090 0.036597 -0.002481 0.000000 0.000000 0.000000
# 3 -0.002481 -0.002481 0.008512 0.000000 0.000000 0.000000
# 4 0.000000 0.000000 0.000000 0.036377 0.000000 0.000000
# 5 0.000000 0.000000 0.000000 0.000000 0.036377 0.000000
# 6 0.000000 0.000000 0.000000 0.000000 0.000000 0.131375
#
#
# Mechanical properties :
#
#
# Convention : Reuss Voigt Hill
#
# Bulk Modulus (GPa) = 73.51293 74.20256 73.85774
# Shear Modulus (GPa) = 13.94798 22.82953 18.38875
#
# Velocity S-wave (km/s) = 2.72531 3.48666 3.12922
# Velocity P-wave (km/s) = 7.00349 7.46472 7.23778
#
# Compressibility (1/GPa) = 0.01360305
#
# Stress axis : x y z
#
# Youngs Moduli (GPa) = 27.32437 27.32437 117.48166
#
# Poissons Ratio (x) = 0.79488 0.29144
# Poissons Ratio (y) = 0.79488 0.29144
# Poissons Ratio (z) = 0.06778 0.06778
#
# Static dielectric constant tensor:
#      x y z
#    x 1.645210 0.000000 0.000000 
#    y 0.000000 1.645210 0.000000 
#    z 0.000000 0.000000 1.782450 
# 
# From -- ./inp_files/3155.got.cif
#   From: 2010.05.17/outbox.cif.g08.bks.cpg/sg180_2_cif.got.tgz:3155.got - 2010.05.20 11:43:55.
