data_PCOD9583121
_publ_section_title
;
Structure prediction by ZEFSAII (Michael W. Deem and Ramdas Pophale) SiO2 
 PCOD9583121
Probable space group: P 65 2 2
;
_chemical_formula_sum "Si O2"
_cell_formula_units_Z 66
_cell_length_a 19.472387
_cell_length_b 19.472387
_cell_length_c 14.157255
_cell_angle_alpha 90.000000
_cell_angle_beta 90.000000
_cell_angle_gamma 120.000000
_cell_volume 4648.877162
_symmetry_space_group_name_H-M "P 65 2 2"
_symmetry_group_IT_number 179
_symmetry_cell_setting 'hexagonal'
loop_
_space_group_symop_operation_xyz
x,y,z
x-y,x,5/6+z
-y,x-y,2/3+z
-x,-y,1/2+z
-x+y,-x,1/3+z
y,-x+y,1/6+z
x-y,-y,-z
-x,-x+y,1/3-z
y,x,2/3-z
-y,-x,1/6-z
-x+y,y,1/2-z
x,x-y,5/6-z
loop_
_atom_site_type_symbol
_atom_site_label
_atom_site_fract_x
_atom_site_fract_y
_atom_site_fract_z
Si Si1 0.279476 0.639738 0.916667
Si Si2 0.609605 0.416834 0.775028
Si Si3 0.603945 0.998964 0.200690
Si Si4 0.827599 0.515125 0.541427
Si Si5 0.170155 0.436343 0.335406
Si Si6 0.560111 0.034902 0.396357
O O1 0.342057 0.722741 0.966691
O O2 0.223270 0.661223 0.856207
O O3 0.635686 0.477302 0.863055
O O4 0.668989 0.472104 0.692327
O O5 0.522129 0.392271 0.741016
O O6 0.579107 0.910579 0.170499
O O7 0.688015 0.075705 0.176492
O O8 0.592689 0.004004 0.312762
O O9 0.540585 0.014418 0.143280
O O10 0.777261 0.556018 0.572948
O O11 0.203436 0.406873 0.250000
O O12 0.554296 0.000000 0.500000
#
# Coordination Sequence:
#
# PCOD9583121 Si02
#       6
#     6  12  12  12  12  12
#     4  12  20  28  42  64  92 124 160 210 256 278
#     4  10  19  29  44  61  90 119 158 206 248 283
#     4  10  20  32  47  67  87 117 162 197 240 310
#     4  11  20  31  45  67  90 119 160 207 248 295
#     4   9  19  33  48  66  84 119 155 205 253 280
#     4  10  18  30  45  62  89 125 152 194 250 289
#
# _framework density 14.196977
#
# number of rings (size 3 to 8) (size 9 to 14) (size 15 to 20)
#    0.000    1.818    4.545    2.727    0.000    1.455 
#    0.000    0.000    0.000    0.000    0.000    0.000 
#    0.000    0.000    0.000    0.000    0.000    0.000 
#
# Total GULP energy -367598.667563 kJ/mol
# GULP energy per Si atom -5569.676781 kJ/mol
# Density = 1.416466 g / cm^3
# Si number density = 14.196977 Si / 1000 Ang^3
#
#
#
# Elastic Constant Matrix: (Units=GPa)
#
#
# Indices 1 2 3 4 5 6 
#
# 1 74.3790 42.2351 35.6638 0.0000 0.0000 0.0000
# 2 42.2351 74.3790 35.6638 0.0000 0.0000 0.0000
# 3 35.6638 35.6638 80.6128 0.0000 0.0000 0.0000
# 4 0.0000 0.0000 0.0000 16.4465 0.0000 0.0000
# 5 0.0000 0.0000 0.0000 0.0000 16.4465 0.0000
# 6 0.0000 0.0000 0.0000 0.0000 0.0000 16.0720
#
#
#
# Elastic Compliance Matrix: (Units=1/GPa)
#
#
# Indices 1 2 3 4 5 6 
#
# 1 0.021433 -0.009677 -0.005201 0.000000 0.000000 0.000000
# 2 -0.009677 0.021433 -0.005201 0.000000 0.000000 0.000000
# 3 -0.005201 -0.005201 0.017007 0.000000 0.000000 0.000000
# 4 0.000000 0.000000 0.000000 0.060803 0.000000 0.000000
# 5 0.000000 0.000000 0.000000 0.000000 0.060803 0.000000
# 6 0.000000 0.000000 0.000000 0.000000 0.000000 0.062220
#
#
# Mechanical properties :
#
#
# Convention : Reuss Voigt Hill
#
# Bulk Modulus (GPa) = 50.72165 50.72184 50.72174
# Shear Modulus (GPa) = 17.21584 17.51356 17.36470
#
# Velocity S-wave (km/s) = 3.48608 3.51609 3.50112
# Velocity P-wave (km/s) = 7.21168 7.23109 7.22139
#
# Compressibility (1/GPa) = 0.01971545
#
# Stress axis : x y z
#
# Youngs Moduli (GPa) = 46.65624 46.65624 58.79886
#
# Poissons Ratio (x) = 0.45148 0.30583
# Poissons Ratio (y) = 0.45148 0.30583
# Poissons Ratio (z) = 0.24267 0.24267
#
# Static dielectric constant tensor:
#      x y z
#    x 1.477100 0.000000 0.000000 
#    y 0.000000 1.477100 0.000000 
#    z 0.000000 0.000000 1.519900 
# 
# From -- ./inp_files/6000.got.cif
#   From: 2010.05.17/outbox.cif.g08.bks.cpg/sg179_3_cif.got.tgz:6000.got - 2010.05.20 11:37:33.
