data_PCOD9583366
_publ_section_title
;
Structure prediction by ZEFSAII (Michael W. Deem and Ramdas Pophale) SiO2 
 PCOD9583366
Probable space group: P 65 2 2
;
_chemical_formula_sum "Si O2"
_cell_formula_units_Z 48
_cell_length_a 12.310079
_cell_length_b 12.310079
_cell_length_c 18.632337
_cell_angle_alpha 90.000000
_cell_angle_beta 90.000000
_cell_angle_gamma 120.000000
_cell_volume 2445.229589
_symmetry_space_group_name_H-M "P 65 2 2"
_symmetry_group_IT_number 179
_symmetry_cell_setting 'hexagonal'
loop_
_space_group_symop_operation_xyz
x,y,z
x-y,x,5/6+z
-y,x-y,2/3+z
-x,-y,1/2+z
-x+y,-x,1/3+z
y,-x+y,1/6+z
x-y,-y,-z
-x,-x+y,1/3-z
y,x,2/3-z
-y,-x,1/6-z
-x+y,y,1/2-z
x,x-y,5/6-z
loop_
_atom_site_type_symbol
_atom_site_label
_atom_site_fract_x
_atom_site_fract_y
_atom_site_fract_z
Si Si1 0.499740 0.857136 0.878743
Si Si2 0.661682 0.338319 0.583334
Si Si3 0.389690 0.271758 0.760257
Si Si4 0.363788 0.489509 0.511422
Si Si5 0.835602 0.164399 0.583334
O O1 0.551848 0.775924 0.916667
O O2 0.416765 0.763678 0.815710
O O3 0.407375 0.889641 0.924876
O O4 0.598294 0.987714 0.845488
O O5 0.590588 0.198203 0.614984
O O6 0.415724 0.197682 0.698360
O O7 0.386938 0.210852 0.837284
O O8 0.258963 0.270134 0.745786
O O9 0.437839 0.562162 0.583334
#
# Coordination Sequence:
#
# PCOD9583366 Si02
#       5
#    12   6  12  12   6
#     4  11  24  39  60  97 129 170 211 267 333 397
#     4  10  22  39  62  94 124 164 223 256 328 394
#     4  10  22  39  67  98 130 166 223 275 322 389
#     4  11  23  41  65  94 137 171 212 280 335 391
#     4  10  22  39  68 100 122 172 223 270 322 376
#
# _framework density 19.63006
#
# number of rings (size 3 to 8) (size 9 to 14) (size 15 to 20)
#    0.000    1.500    1.250    4.500    3.500   14.000 
#    0.000    0.000   11.000    0.000    0.000    0.000 
#    0.000    0.000    0.000    0.000    0.000    0.000 
#
# Total GULP energy -267416.612515 kJ/mol
# GULP energy per Si atom -5571.179427 kJ/mol
# Density = 1.958538 g / cm^3
# Si number density = 19.630060 Si / 1000 Ang^3
#
#
#
# Elastic Constant Matrix: (Units=GPa)
#
#
# Indices 1 2 3 4 5 6 
#
# 1 103.6474 59.3448 20.9707 0.0000 0.0000 0.0000
# 2 59.3448 103.6474 20.9707 0.0000 0.0000 0.0000
# 3 20.9707 20.9707 80.0871 0.0000 0.0000 0.0000
# 4 0.0000 0.0000 0.0000 49.4390 0.0000 0.0000
# 5 0.0000 0.0000 0.0000 0.0000 49.4390 0.0000
# 6 0.0000 0.0000 0.0000 0.0000 0.0000 22.1513
#
#
#
# Elastic Compliance Matrix: (Units=1/GPa)
#
#
# Indices 1 2 3 4 5 6 
#
# 1 0.014575 -0.007997 -0.001723 0.000000 0.000000 0.000000
# 2 -0.007997 0.014575 -0.001723 0.000000 0.000000 0.000000
# 3 -0.001723 -0.001723 0.013389 0.000000 0.000000 0.000000
# 4 0.000000 0.000000 0.000000 0.020227 0.000000 0.000000
# 5 0.000000 0.000000 0.000000 0.000000 0.020227 0.000000
# 6 0.000000 0.000000 0.000000 0.000000 0.000000 0.045144
#
#
# Mechanical properties :
#
#
# Convention : Reuss Voigt Hill
#
# Bulk Modulus (GPa) = 50.87701 54.43937 52.65819
# Shear Modulus (GPa) = 31.73142 36.61225 34.17184
#
# Velocity S-wave (km/s) = 4.02490 4.32338 4.17681
# Velocity P-wave (km/s) = 6.89738 7.26051 7.08128
#
# Compressibility (1/GPa) = 0.01965524
#
# Stress axis : x y z
#
# Youngs Moduli (GPa) = 68.60937 68.60937 74.69093
#
# Poissons Ratio (x) = 0.54865 0.12866
# Poissons Ratio (y) = 0.54865 0.12866
# Poissons Ratio (z) = 0.11818 0.11818
#
# Static dielectric constant tensor:
#      x y z
#    x 1.761790 0.000000 0.000000 
#    y 0.000000 1.761790 0.000000 
#    z 0.000000 0.000000 1.621380 
# 
# From -- ./inp_files/7342.got.cif
#   From: 2010.05.17/outbox.cif.g08.bks.cpg/sg179_4_cif.got.tgz:7342.got - 2010.05.20 11:37:33.
