data_PCOD9583865
_publ_section_title
;
Structure prediction by ZEFSAII (Michael W. Deem and Ramdas Pophale) SiO2 
 PCOD9583865
Probable space group: P 62 2 2
;
_chemical_formula_sum "Si O2"
_cell_formula_units_Z 66
_cell_length_a 20.947210
_cell_length_b 20.947210
_cell_length_c 8.244897
_cell_angle_alpha 90.000000
_cell_angle_beta 90.000000
_cell_angle_gamma 120.000000
_cell_volume 3133.056592
_symmetry_space_group_name_H-M "P 62 2 2"
_symmetry_group_IT_number 180
_symmetry_cell_setting 'hexagonal'
loop_
_space_group_symop_operation_xyz
x,y,z
x-y,x,1/3+z
-y,x-y,2/3+z
-x,-y,z
-x+y,-x,1/3+z
y,-x+y,2/3+z
x-y,-y,-z
-x,-x+y,1/3-z
y,x,2/3-z
-y,-x,2/3-z
-x+y,y,-z
x,x-y,1/3-z
loop_
_atom_site_type_symbol
_atom_site_label
_atom_site_fract_x
_atom_site_fract_y
_atom_site_fract_z
Si Si1 0.578161 0.145452 0.684034
Si Si2 0.690605 0.381210 0.000000
Si Si3 0.224865 0.307001 0.966393
Si Si4 0.803381 0.070934 0.738250
Si Si5 0.359373 0.423818 0.132718
Si Si6 0.893221 0.316720 0.811289
O O1 0.559024 0.118048 0.500000
O O2 0.576712 0.221692 0.680344
O O3 0.508354 0.088929 0.784337
O O4 0.652748 0.153517 0.760736
O O5 0.663869 0.336132 0.833334
O O6 0.197431 0.270686 0.789885
O O7 0.165264 0.330527 0.000000
O O8 0.229249 0.248144 0.091653
O O9 0.305208 0.380036 0.982106
O O10 0.881176 0.118825 0.833334
O O11 0.755221 0.108403 0.787781
O O12 0.309495 0.422689 0.283758
O O13 0.401454 0.379400 0.163733
#
# Coordination Sequence:
#
# PCOD9583865 Si02
#       6
#    12   6  12  12  12  12
#     4  11  23  39  57  80 111 151 198 247 307 363
#     4  10  26  44  58  78 107 150 208 250 300 361
#     4  10  21  37  60  89 126 158 196 251 299 356
#     4  10  21  38  59  91 122 160 203 241 303 360
#     4  10  21  36  59  88 117 146 198 242 304 364
#     4  10  21  37  58  87 116 153 189 249 301 361
#
# _framework density 21.06569
#
# number of rings (size 3 to 8) (size 9 to 14) (size 15 to 20)
#    0.000    1.818    0.000    3.273    3.818    7.273 
#    3.273    0.000    0.000    0.000    0.000    7.636 
#    0.000    0.000    0.000    0.000    0.000    0.000 
#
# Total GULP energy -367447.151716 kJ/mol
# GULP energy per Si atom -5567.381087 kJ/mol
# Density = 2.101774 g / cm^3
# Si number density = 21.065690 Si / 1000 Ang^3
#
#
#
# Elastic Constant Matrix: (Units=GPa)
#
#
# Indices 1 2 3 4 5 6 
#
# 1 -20.0895 102.8501 8.3352 0.0000 0.0000 0.0000
# 2 102.8501 -20.0895 8.3352 0.0000 0.0000 0.0000
# 3 8.3352 8.3352 61.0959 0.0000 0.0000 0.0000
# 4 0.0000 0.0000 0.0000 27.2564 0.0000 0.0000
# 5 0.0000 0.0000 0.0000 0.0000 27.2564 0.0000
# 6 0.0000 0.0000 0.0000 0.0000 0.0000 -61.4698
#
#
#
# Elastic Compliance Matrix: (Units=1/GPa)
#
#
# Indices 1 2 3 4 5 6 
#
# 1 0.002145 0.010279 -0.001695 0.000000 0.000000 0.000000
# 2 0.010279 0.002145 -0.001695 0.000000 0.000000 0.000000
# 3 -0.001695 -0.001695 0.016830 0.000000 0.000000 0.000000
# 4 0.000000 0.000000 0.000000 0.036689 0.000000 0.000000
# 5 0.000000 0.000000 0.000000 0.000000 0.036689 0.000000
# 6 0.000000 0.000000 0.000000 0.000000 0.000000 -0.016268
#
#
# Mechanical properties :
#
#
# Convention : Reuss Voigt Hill
#
# Bulk Modulus (GPa) = 28.65415 28.88422 28.76918
# Shear Modulus (GPa) = 65.71655 -7.96497 28.87579
#
# Velocity S-wave (km/s) = 5.59140 -1.94659 3.70638
# Velocity P-wave (km/s) = 7.43753 2.94771 5.65711
#
# Compressibility (1/GPa) = 0.03489896
#
# Stress axis : x y z
#
# Youngs Moduli (GPa) = 466.15678 466.15679 59.41692
#
# Poissons Ratio (x) = -4.79176 0.10071
# Poissons Ratio (y) = -4.79176 0.10071
# Poissons Ratio (z) = 0.79016 0.79016
#
# Static dielectric constant tensor:
#      x y z
#    x 1.773410 0.000000 0.000000 
#    y 0.000000 1.773410 0.000000 
#    z 0.000000 0.000000 1.923780 
# 
# From -- ./inp_files/3212.got.cif
#   From: 2010.05.17/outbox.cif.g08.bks.cpg/sg180_2_cif.got.tgz:3212.got - 2010.05.20 11:43:55.
