data_PCOD9583370
_publ_section_title
;
Structure prediction by ZEFSAII (Michael W. Deem and Ramdas Pophale) SiO2 
 PCOD9583370
Probable space group: P 65 2 2
;
_chemical_formula_sum "Si O2"
_cell_formula_units_Z 30
_cell_length_a 11.381442
_cell_length_b 11.381442
_cell_length_c 9.695285
_cell_angle_alpha 90.000000
_cell_angle_beta 90.000000
_cell_angle_gamma 120.000000
_cell_volume 1087.641552
_symmetry_space_group_name_H-M "P 65 2 2"
_symmetry_group_IT_number 179
_symmetry_cell_setting 'hexagonal'
loop_
_space_group_symop_operation_xyz
x,y,z
x-y,x,5/6+z
-y,x-y,2/3+z
-x,-y,1/2+z
-x+y,-x,1/3+z
y,-x+y,1/6+z
x-y,-y,-z
-x,-x+y,1/3-z
y,x,2/3-z
-y,-x,1/6-z
-x+y,y,1/2-z
x,x-y,5/6-z
loop_
_atom_site_type_symbol
_atom_site_label
_atom_site_fract_x
_atom_site_fract_y
_atom_site_fract_z
Si Si1 0.747365 0.661432 0.131569
Si Si2 0.460087 0.627651 0.225561
Si Si3 0.000000 0.332541 0.166667
O O1 0.865270 0.730539 0.250000
O O2 0.603750 0.635123 0.186972
O O3 0.777556 0.518134 0.385835
O O4 0.756371 0.717830 0.974489
O O5 0.366841 0.485511 0.300516
O O6 0.385860 0.614141 0.083334
#
# Coordination Sequence:
#
# PCOD9583370 Si02
#       3
#    12  12   6
#     4  11  21  40  65  88 136 187 230 306 373 442
#     4  10  22  41  60  98 136 184 241 298 375 442
#     4  10  22  40  62 100 138 176 248 298 370 454
#
# _framework density 27.582619000000001
#
# number of rings (size 3 to 8) (size 9 to 14) (size 15 to 20)
#    0.000    1.600    4.000    0.000    0.000    6.400 
#   21.600    0.000    0.000    0.000   31.200    0.000 
#    0.000    0.000    0.000    0.000    0.000    0.000 
#
# Total GULP energy -167497.822788 kJ/mol
# GULP energy per Si atom -5583.260760 kJ/mol
# Density = 2.751984 g / cm^3
# Si number density = 27.582619 Si / 1000 Ang^3
#
#
#
# Elastic Constant Matrix: (Units=GPa)
#
#
# Indices 1 2 3 4 5 6 
#
# 1 132.4197 39.0235 34.3799 0.0000 0.0000 0.0000
# 2 39.0235 132.4197 34.3799 0.0000 0.0000 0.0000
# 3 34.3799 34.3799 226.4102 0.0000 0.0000 0.0000
# 4 0.0000 0.0000 0.0000 40.3768 0.0000 0.0000
# 5 0.0000 0.0000 0.0000 0.0000 40.3768 0.0000
# 6 0.0000 0.0000 0.0000 0.0000 0.0000 46.6981
#
#
#
# Elastic Compliance Matrix: (Units=1/GPa)
#
#
# Indices 1 2 3 4 5 6 
#
# 1 0.008459 -0.002248 -0.000943 0.000000 0.000000 0.000000
# 2 -0.002248 0.008459 -0.000943 0.000000 0.000000 0.000000
# 3 -0.000943 -0.000943 0.004703 0.000000 0.000000 0.000000
# 4 0.000000 0.000000 0.000000 0.024767 0.000000 0.000000
# 5 0.000000 0.000000 0.000000 0.000000 0.024767 0.000000
# 6 0.000000 0.000000 0.000000 0.000000 0.000000 0.021414
#
#
# Mechanical properties :
#
#
# Convention : Reuss Voigt Hill
#
# Bulk Modulus (GPa) = 74.89058 78.53515 76.71286
# Shear Modulus (GPa) = 47.48864 51.05477 49.27171
#
# Velocity S-wave (km/s) = 4.15382 4.30696 4.23109
# Velocity P-wave (km/s) = 7.08632 7.29848 7.19318
#
# Compressibility (1/GPa) = 0.01335281
#
# Stress axis : x y z
#
# Youngs Moduli (GPa) = 118.21615 118.21615 212.62160
#
# Poissons Ratio (x) = 0.26575 0.20053
# Poissons Ratio (y) = 0.26575 0.20053
# Poissons Ratio (z) = 0.11149 0.11149
#
# Static dielectric constant tensor:
#      x y z
#    x 2.143940 0.000000 0.000000 
#    y 0.000000 2.143940 0.000000 
#    z 0.000000 0.000000 2.392830 
# 
# From -- ./inp_files/2058.got.cif
#   From: 2010.05.17/outbox.cif.g08.bks.cpg/sg179_2_cif.got.tgz:2058.got - 2010.05.20 11:37:33.
