data_PCOD9583707
_publ_section_title
;
Structure prediction by ZEFSAII (Michael W. Deem and Ramdas Pophale) SiO2 
 PCOD9583707
Probable space group: P 62 2 2
;
_chemical_formula_sum "Si O2"
_cell_formula_units_Z 84
_cell_length_a 14.967513
_cell_length_b 14.967513
_cell_length_c 25.213077
_cell_angle_alpha 90.000000
_cell_angle_beta 90.000000
_cell_angle_gamma 120.000000
_cell_volume 4891.654442
_symmetry_space_group_name_H-M "P 62 2 2"
_symmetry_group_IT_number 180
_symmetry_cell_setting 'hexagonal'
loop_
_space_group_symop_operation_xyz
x,y,z
x-y,x,1/3+z
-y,x-y,2/3+z
-x,-y,z
-x+y,-x,1/3+z
y,-x+y,2/3+z
x-y,-y,-z
-x,-x+y,1/3-z
y,x,2/3-z
-y,-x,2/3-z
-x+y,y,-z
x,x-y,1/3-z
loop_
_atom_site_type_symbol
_atom_site_label
_atom_site_fract_x
_atom_site_fract_y
_atom_site_fract_z
Si Si1 0.844328 0.163221 0.964776
Si Si2 0.218027 0.928602 0.073824
Si Si3 0.163559 0.042891 0.824090
Si Si4 0.914712 0.705482 0.947154
Si Si5 0.394134 0.893032 0.236677
Si Si6 0.264661 0.525212 0.437020
Si Si7 0.396192 0.500564 0.222512
O O1 0.778009 0.207601 0.936696
O O2 0.962021 0.240789 0.951874
O O3 0.790650 0.045915 0.943473
O O4 0.847571 0.148501 0.027617
O O5 0.166872 0.918567 0.130123
O O6 0.310087 0.905023 0.079621
O O7 0.095877 0.095877 0.833334
O O8 0.225013 0.085466 0.768866
O O9 0.081008 0.918993 0.833334
O O10 0.878526 0.586670 0.932242
O O11 0.856329 0.712657 0.000000
O O12 0.415696 0.797985 0.242031
O O13 0.378704 0.900033 0.173687
O O14 0.500000 0.000000 0.251489
O O15 0.245693 0.491385 0.500000
O O16 0.388356 0.591220 0.432315
O O17 0.500000 0.500000 0.235649
#
# Coordination Sequence:
#
# PCOD9583707 Si02
#       7
#    12  12  12  12  12  12  12
#     4  11  23  36  57  89 126 159 198 251 307 378
#     4  11  22  38  56  89 126 162 193 244 320 374
#     4  11  23  40  63  87 117 162 208 255 314 371
#     4  12  24  41  63  88 123 165 215 258 301 366
#     4  10  20  37  63  88 115 157 211 256 302 360
#     4  10  21  36  61  93 124 157 204 256 311 367
#     4  10  19  34  61  91 120 158 195 245 310 382
#
# _framework density 17.172104999999998
#
# number of rings (size 3 to 8) (size 9 to 14) (size 15 to 20)
#    0.000    1.286    5.714    0.857    2.000    0.571 
#    2.571    0.000    0.000    0.000    0.000    1.000 
#    0.000    0.000    0.000    0.000    0.000    0.000 
#
# Total GULP energy -467773.307161 kJ/mol
# GULP energy per Si atom -5568.729847 kJ/mol
# Density = 1.713302 g / cm^3
# Si number density = 17.172105 Si / 1000 Ang^3
#
#
#
# Elastic Constant Matrix: (Units=GPa)
#
#
# Indices 1 2 3 4 5 6 
#
# 1 101.1662 8.0429 31.3035 0.0000 0.0000 0.0000
# 2 8.0429 101.1662 31.3035 0.0000 0.0000 0.0000
# 3 31.3035 31.3035 79.4417 0.0000 0.0000 0.0000
# 4 0.0000 0.0000 0.0000 26.4358 0.0000 0.0000
# 5 0.0000 0.0000 0.0000 0.0000 26.4358 0.0000
# 6 0.0000 0.0000 0.0000 0.0000 0.0000 46.5617
#
#
#
# Elastic Compliance Matrix: (Units=1/GPa)
#
#
# Indices 1 2 3 4 5 6 
#
# 1 0.011284 0.000545 -0.004661 0.000000 0.000000 0.000000
# 2 0.000545 0.011284 -0.004661 0.000000 0.000000 0.000000
# 3 -0.004661 -0.004661 0.016261 0.000000 0.000000 0.000000
# 4 0.000000 0.000000 0.000000 0.037827 0.000000 0.000000
# 5 0.000000 0.000000 0.000000 0.000000 0.037827 0.000000
# 6 0.000000 0.000000 0.000000 0.000000 0.000000 0.021477
#
#
# Mechanical properties :
#
#
# Convention : Reuss Voigt Hill
#
# Bulk Modulus (GPa) = 47.00454 47.00821 47.00638
# Shear Modulus (GPa) = 31.13214 33.96161 32.54687
#
# Velocity S-wave (km/s) = 4.26249 4.45198 4.35827
# Velocity P-wave (km/s) = 7.18729 7.33901 7.26355
#
# Compressibility (1/GPa) = 0.02127454
#
# Stress axis : x y z
#
# Youngs Moduli (GPa) = 88.62390 88.62390 61.49615
#
# Poissons Ratio (x) = -0.04832 0.28664
# Poissons Ratio (y) = -0.04832 0.28664
# Poissons Ratio (z) = 0.41308 0.41308
#
# Static dielectric constant tensor:
#      x y z
#    x 1.563020 0.000000 0.000000 
#    y 0.000000 1.563020 0.000000 
#    z 0.000000 0.000000 1.853180 
# 
# From -- ./inp_files/10252.got.cif
#   From: 2010.05.17/outbox.cif.g08.bks.cpg/sg180_6_cif.got.tgz:10252.got - 2010.05.20 11:43:55.
