data_PCOD9583338
_publ_section_title
;
Structure prediction by ZEFSAII (Michael W. Deem and Ramdas Pophale) SiO2 
 PCOD9583338
Probable space group: P 65 2 2
;
_chemical_formula_sum "Si O2"
_cell_formula_units_Z 84
_cell_length_a 14.302957
_cell_length_b 14.302957
_cell_length_c 24.938875
_cell_angle_alpha 90.000000
_cell_angle_beta 90.000000
_cell_angle_gamma 120.000000
_cell_volume 4418.340239
_symmetry_space_group_name_H-M "P 65 2 2"
_symmetry_group_IT_number 179
_symmetry_cell_setting 'hexagonal'
loop_
_space_group_symop_operation_xyz
x,y,z
x-y,x,5/6+z
-y,x-y,2/3+z
-x,-y,1/2+z
-x+y,-x,1/3+z
y,-x+y,1/6+z
x-y,-y,-z
-x,-x+y,1/3-z
y,x,2/3-z
-y,-x,1/6-z
-x+y,y,1/2-z
x,x-y,5/6-z
loop_
_atom_site_type_symbol
_atom_site_label
_atom_site_fract_x
_atom_site_fract_y
_atom_site_fract_z
Si Si1 0.734210 0.612736 0.149140
Si Si2 0.923587 0.163223 0.848675
Si Si3 0.748708 0.535401 0.029951
Si Si4 0.521514 0.640781 0.348687
Si Si5 0.883220 0.953594 0.784381
Si Si6 0.445526 0.827217 0.908430
Si Si7 0.539948 0.062393 0.872712
O O1 0.788018 0.740879 0.153903
O O2 0.732364 0.575339 0.088088
O O3 0.798659 0.566496 0.182333
O O4 0.613538 0.558773 0.171759
O O5 0.848693 0.210934 0.830828
O O6 0.904196 0.119284 0.909503
O O7 0.900066 0.063769 0.810199
O O8 0.771073 0.437188 0.040907
O O9 0.646136 0.502670 0.992770
O O10 0.618468 0.618468 0.333334
O O11 0.437751 0.589252 0.299965
O O12 0.469147 0.578618 0.403370
O O13 0.877721 0.877721 0.833334
O O14 0.988726 0.977451 0.750000
O O15 0.488227 0.744114 0.916667
O O16 0.524142 0.943998 0.882730
#
# Coordination Sequence:
#
# PCOD9583338 Si02
#       7
#    12  12  12  12  12  12  12
#     4  11  21  37  62  90 123 155 196 255 316 369
#     4  11  20  37  58  89 121 157 208 244 312 373
#     4  11  22  40  62  88 126 161 198 267 305 372
#     4   9  21  38  61  89 122 158 200 251 312 378
#     4   9  20  36  56  83 122 161 197 249 297 366
#     4  10  21  42  62  86 124 164 202 258 313 363
#     4  11  22  40  61  92 121 160 212 249 316 378
#
# _framework density 19.011665000000001
#
# number of rings (size 3 to 8) (size 9 to 14) (size 15 to 20)
#    0.000    1.714    2.857    2.571    0.000    2.857 
#    2.571    4.286    0.000    0.000    0.000    0.000 
#    0.000    0.000    0.000    0.000    0.000    0.000 
#
# Total GULP energy -468954.914329 kJ/mol
# GULP energy per Si atom -5582.796599 kJ/mol
# Density = 1.896839 g / cm^3
# Si number density = 19.011665 Si / 1000 Ang^3
#
#
#
# Elastic Constant Matrix: (Units=GPa)
#
#
# Indices 1 2 3 4 5 6 
#
# 1 67.6492 19.7821 38.3020 0.0000 0.0000 0.0000
# 2 19.7821 67.6492 38.3020 0.0000 0.0000 0.0000
# 3 38.3020 38.3020 103.2269 0.0000 0.0000 0.0000
# 4 0.0000 0.0000 0.0000 21.6002 0.0000 0.0000
# 5 0.0000 0.0000 0.0000 0.0000 21.6002 0.0000
# 6 0.0000 0.0000 0.0000 0.0000 0.0000 23.9335
#
#
#
# Elastic Compliance Matrix: (Units=1/GPa)
#
#
# Indices 1 2 3 4 5 6 
#
# 1 0.018919 -0.001972 -0.006288 0.000000 0.000000 0.000000
# 2 -0.001972 0.018919 -0.006288 0.000000 0.000000 0.000000
# 3 -0.006288 -0.006288 0.014354 0.000000 0.000000 0.000000
# 4 0.000000 0.000000 0.000000 0.046296 0.000000 0.000000
# 5 0.000000 0.000000 0.000000 0.000000 0.046296 0.000000
# 6 0.000000 0.000000 0.000000 0.000000 0.000000 0.041782
#
#
# Mechanical properties :
#
#
# Convention : Reuss Voigt Hill
#
# Bulk Modulus (GPa) = 43.29898 47.92195 45.61046
# Shear Modulus (GPa) = 22.38527 22.90273 22.64400
#
# Velocity S-wave (km/s) = 3.43512 3.47460 3.45492
# Velocity P-wave (km/s) = 6.20949 6.43105 6.32124
#
# Compressibility (1/GPa) = 0.02309523
#
# Stress axis : x y z
#
# Youngs Moduli (GPa) = 52.85669 52.85669 69.66813
#
# Poissons Ratio (x) = 0.10424 0.43808
# Poissons Ratio (y) = 0.10424 0.43808
# Poissons Ratio (z) = 0.33237 0.33237
#
# Static dielectric constant tensor:
#      x y z
#    x 1.661600 0.000000 0.000000 
#    y 0.000000 1.661600 0.000000 
#    z 0.000000 0.000000 1.654000 
# 
# From -- ./inp_files/8367.got.cif
#   From: 2010.05.17/outbox.cif.g08.bks.cpg/sg179_5_cif.got.tgz:8367.got - 2010.05.20 11:37:33.
