data_PCOD9583105
_publ_section_title
;
Structure prediction by ZEFSAII (Michael W. Deem and Ramdas Pophale) SiO2 
 PCOD9583105
Probable space group: P 65 2 2
;
_chemical_formula_sum "Si O2"
_cell_formula_units_Z 84
_cell_length_a 14.784283
_cell_length_b 14.784283
_cell_length_c 24.841200
_cell_angle_alpha 90.000000
_cell_angle_beta 90.000000
_cell_angle_gamma 120.000000
_cell_volume 4702.228588
_symmetry_space_group_name_H-M "P 65 2 2"
_symmetry_group_IT_number 179
_symmetry_cell_setting 'hexagonal'
loop_
_space_group_symop_operation_xyz
x,y,z
x-y,x,5/6+z
-y,x-y,2/3+z
-x,-y,1/2+z
-x+y,-x,1/3+z
y,-x+y,1/6+z
x-y,-y,-z
-x,-x+y,1/3-z
y,x,2/3-z
-y,-x,1/6-z
-x+y,y,1/2-z
x,x-y,5/6-z
loop_
_atom_site_type_symbol
_atom_site_label
_atom_site_fract_x
_atom_site_fract_y
_atom_site_fract_z
Si Si1 0.524460 0.280878 0.173170
Si Si2 0.320112 0.125306 0.112318
Si Si3 0.176486 0.651638 0.545969
Si Si4 0.455843 0.337793 0.569907
Si Si5 0.282909 0.781291 0.145383
Si Si6 0.911445 0.386701 0.710920
Si Si7 0.709846 0.962596 0.302786
O O1 0.416316 0.229970 0.139671
O O2 0.595122 0.238394 0.144731
O O3 0.495176 0.227592 0.232016
O O4 0.599642 0.404317 0.177503
O O5 0.379946 0.074664 0.081186
O O6 0.261292 0.156185 0.069166
O O7 0.247997 0.043560 0.156628
O O8 0.252168 0.747833 0.583334
O O9 0.131814 0.679269 0.493733
O O10 0.090502 0.563236 0.584277
O O11 0.544065 0.455936 0.583334
O O12 0.350990 0.317551 0.598083
O O13 0.250131 0.749870 0.083334
O O14 0.200901 0.683153 0.181824
O O15 0.271359 0.878793 0.164474
O O16 0.000000 0.435685 0.666667
#
# Coordination Sequence:
#
# PCOD9583105 Si02
#       7
#    12  12  12  12  12  12  12
#     4   9  18  32  47  72 100 146 189 222 255 319
#     4   9  20  36  52  74 108 142 189 226 272 330
#     4  10  17  31  50  67 101 142 181 223 260 300
#     4   9  19  32  48  71 103 138 188 229 257 311
#     4  11  20  30  52  75 104 144 190 221 276 330
#     4  10  20  32  45  71 109 140 182 225 270 319
#     4  10  21  35  52  76 107 143 185 225 279 325
#
# _framework density 17.863869000000001
#
# number of rings (size 3 to 8) (size 9 to 14) (size 15 to 20)
#    0.000    2.286    1.429    3.000    2.000    0.000 
#    0.000    0.000    0.000    0.000    0.000    0.000 
#    0.000   24.000    0.000    0.000    0.000    0.000 
#
# Total GULP energy -468672.831071 kJ/mol
# GULP energy per Si atom -5579.438465 kJ/mol
# Density = 1.782321 g / cm^3
# Si number density = 17.863869 Si / 1000 Ang^3
#
#
#
# Elastic Constant Matrix: (Units=GPa)
#
#
# Indices 1 2 3 4 5 6 
#
# 1 39.2662 32.8502 35.5252 0.0000 0.0000 0.0000
# 2 32.8502 39.2662 35.5252 0.0000 0.0000 0.0000
# 3 35.5252 35.5252 134.5957 0.0000 0.0000 0.0000
# 4 0.0000 0.0000 0.0000 26.5856 0.0000 0.0000
# 5 0.0000 0.0000 0.0000 0.0000 26.5856 0.0000
# 6 0.0000 0.0000 0.0000 0.0000 0.0000 3.2080
#
#
#
# Elastic Compliance Matrix: (Units=1/GPa)
#
#
# Indices 1 2 3 4 5 6 
#
# 1 0.087300 -0.068561 -0.004946 0.000000 0.000000 0.000000
# 2 -0.068561 0.087300 -0.004946 0.000000 0.000000 0.000000
# 3 -0.004946 -0.004946 0.010041 0.000000 0.000000 0.000000
# 4 0.000000 0.000000 0.000000 0.037614 0.000000 0.000000
# 5 0.000000 0.000000 0.000000 0.000000 0.037614 0.000000
# 6 0.000000 0.000000 0.000000 0.000000 0.000000 0.311722
#
#
# Mechanical properties :
#
#
# Convention : Reuss Voigt Hill
#
# Bulk Modulus (GPa) = 36.05533 46.76991 41.41262
# Shear Modulus (GPa) = 6.77743 18.55767 12.66755
#
# Velocity S-wave (km/s) = 1.94991 3.22660 2.66581
# Velocity P-wave (km/s) = 5.02959 6.33399 5.71910
#
# Compressibility (1/GPa) = 0.02773515
#
# Stress axis : x y z
#
# Youngs Moduli (GPa) = 11.45472 11.45472 99.59557
#
# Poissons Ratio (x) = 0.78534 0.49261
# Poissons Ratio (y) = 0.78534 0.49261
# Poissons Ratio (z) = 0.05666 0.05666
#
# Static dielectric constant tensor:
#      x y z
#    x 1.605940 0.000000 0.000000 
#    y 0.000000 1.605940 0.000000 
#    z 0.000000 0.000000 1.647630 
# 
# From -- ./inp_files/8347.got.cif
#   From: 2010.05.17/outbox.cif.g08.bks.cpg/sg179_5_cif.got.tgz:8347.got - 2010.05.20 11:37:33.
