data_PCOD9583062
_publ_section_title
;
Structure prediction by ZEFSAII (Michael W. Deem and Ramdas Pophale) SiO2 
 PCOD9583062
Probable space group: P 61 2 2
;
_chemical_formula_sum "Si O2"
_cell_formula_units_Z 30
_cell_length_a 12.540191
_cell_length_b 12.540191
_cell_length_c 9.774616
_cell_angle_alpha 90.000000
_cell_angle_beta 90.000000
_cell_angle_gamma 120.000000
_cell_volume 1331.185687
_symmetry_space_group_name_H-M "P 61 2 2"
_symmetry_group_IT_number 178
_symmetry_cell_setting 'hexagonal'
loop_
_space_group_symop_operation_xyz
x,y,z
x-y,x,1/6+z
-y,x-y,1/3+z
-x,-y,1/2+z
-x+y,-x,2/3+z
y,-x+y,5/6+z
x-y,-y,-z
-x,-x+y,2/3-z
y,x,1/3-z
-y,-x,5/6-z
-x+y,y,1/2-z
x,x-y,1/6-z
loop_
_atom_site_type_symbol
_atom_site_label
_atom_site_fract_x
_atom_site_fract_y
_atom_site_fract_z
Si Si1 0.441441 0.558560 0.416667
Si Si2 0.000000 0.623297 0.833334
Si Si3 0.285379 0.464523 0.961863
Si Si4 0.128954 0.871047 0.416667
O O1 0.419788 0.457862 0.303527
O O2 0.480022 0.676516 0.322164
O O3 0.123599 0.731938 0.772371
O O4 0.413118 0.586883 0.916667
O O5 0.235719 0.355508 0.850786
O O6 0.000000 0.823098 0.333334
#
# Coordination Sequence:
#
# PCOD9583062 Si02
#       4
#     6   6  12   6
#     4  12  25  42  68 112 152 201 238 312 392 486
#     4  12  24  42  66 106 150 188 252 302 380 460
#     4  12  25  44  78 113 155 199 257 332 413 481
#     4  12  29  54  78 112 164 229 288 340 404 502
#
# _framework density 22.536299
#
# number of rings (size 3 to 8) (size 9 to 14) (size 15 to 20)
#    0.000    0.000    2.000    9.600    5.600    0.000 
#    3.600    0.000    0.000    0.000    0.000    0.000 
#    0.000    0.000    0.000    0.000    0.000    0.000 
#
# Total GULP energy -167002.710300 kJ/mol
# GULP energy per Si atom -5566.757010 kJ/mol
# Density = 2.248501 g / cm^3
# Si number density = 22.536299 Si / 1000 Ang^3
#
#
#
# Elastic Constant Matrix: (Units=GPa)
#
#
# Indices 1 2 3 4 5 6 
#
# 1 886.8857 -770.7850 26.4199 0.0000 0.0000 0.0000
# 2 -770.7850 886.8857 26.4199 0.0000 0.0000 0.0000
# 3 26.4199 26.4199 136.0650 0.0000 0.0000 0.0000
# 4 0.0000 0.0000 0.0000 61.1769 0.0000 0.0000
# 5 0.0000 0.0000 0.0000 0.0000 61.1769 0.0000
# 6 0.0000 0.0000 0.0000 0.0000 0.0000 828.8353
#
#
#
# Elastic Compliance Matrix: (Units=1/GPa)
#
#
# Indices 1 2 3 4 5 6 
#
# 1 0.005026 0.004422 -0.001835 0.000000 0.000000 0.000000
# 2 0.004422 0.005026 -0.001835 0.000000 0.000000 0.000000
# 3 -0.001835 -0.001835 0.008062 0.000000 0.000000 0.000000
# 4 0.000000 0.000000 0.000000 0.016346 0.000000 0.000000
# 5 0.000000 0.000000 0.000000 0.000000 0.016346 0.000000
# 6 0.000000 0.000000 0.000000 0.000000 0.000000 0.001207
#
#
# Mechanical properties :
#
#
# Convention : Reuss Voigt Hill
#
# Bulk Modulus (GPa) = 50.96854 52.66066 51.81460
# Shear Modulus (GPa) = 87.64984 365.42326 226.53655
#
# Velocity S-wave (km/s) = 6.24317 12.74758 10.03688
# Velocity P-wave (km/s) = 8.63915 15.49469 12.54433
#
# Compressibility (1/GPa) = 0.01961995
#
# Stress axis : x y z
#
# Youngs Moduli (GPa) = 198.97703 198.97703 124.04081
#
# Poissons Ratio (x) = -0.87997 0.22756
# Poissons Ratio (y) = -0.87997 0.22756
# Poissons Ratio (z) = 0.36503 0.36503
#
# Static dielectric constant tensor:
#      x y z
#    x 1.929410 0.000000 0.000000 
#    y 0.000000 1.929410 0.000000 
#    z 0.000000 0.000000 2.241300 
# 
# From -- ./inp_files/2165.got.cif
#   From: 2010.05.17/outbox.cif.g08.bks.cpg/sg178_2_cif.got.tgz:2165.got - 2010.05.20 11:30:59.
