data_PCOD9583102
_publ_section_title
;
Structure prediction by ZEFSAII (Michael W. Deem and Ramdas Pophale) SiO2 
 PCOD9583102
Probable space group: P 65 2 2
;
_chemical_formula_sum "Si O2"
_cell_formula_units_Z 66
_cell_length_a 20.410371
_cell_length_b 20.410371
_cell_length_c 10.503751
_cell_angle_alpha 90.000000
_cell_angle_beta 90.000000
_cell_angle_gamma 120.000000
_cell_volume 3789.455815
_symmetry_space_group_name_H-M "P 65 2 2"
_symmetry_group_IT_number 179
_symmetry_cell_setting 'hexagonal'
loop_
_space_group_symop_operation_xyz
x,y,z
x-y,x,5/6+z
-y,x-y,2/3+z
-x,-y,1/2+z
-x+y,-x,1/3+z
y,-x+y,1/6+z
x-y,-y,-z
-x,-x+y,1/3-z
y,x,2/3-z
-y,-x,1/6-z
-x+y,y,1/2-z
x,x-y,5/6-z
loop_
_atom_site_type_symbol
_atom_site_label
_atom_site_fract_x
_atom_site_fract_y
_atom_site_fract_z
Si Si1 0.982591 0.257507 0.817501
Si Si2 0.713923 0.439757 0.600085
Si Si3 0.824476 0.412238 0.416667
Si Si4 0.314051 0.421684 0.680407
Si Si5 0.133512 0.112955 0.039198
Si Si6 0.412979 0.167659 0.112680
O O1 0.894523 0.228236 0.837553
O O2 0.000000 0.253825 0.666667
O O3 0.029336 0.346502 0.849689
O O4 0.008208 0.204735 0.888836
O O5 0.630778 0.369223 0.583334
O O6 0.726065 0.452130 0.750000
O O7 0.770565 0.417541 0.525944
O O8 0.722958 0.515215 0.536809
O O9 0.875999 0.378827 0.467131
O O10 0.303146 0.426871 0.830987
O O11 0.236141 0.407029 0.616401
O O12 0.118333 0.057268 0.157366
O O13 0.151405 0.075703 0.916667
#
# Coordination Sequence:
#
# PCOD9583102 Si02
#       6
#    12  12   6  12  12  12
#     4  10  17  30  50  76 103 136 174 219 269 319
#     4  11  20  33  55  77 102 133 172 221 268 314
#     4  10  20  34  50  76 104 130 170 214 274 312
#     4   9  18  30  51  73 106 132 168 219 262 317
#     4  10  18  28  48  79 109 136 173 225 276 312
#     4   9  19  31  49  77 100 133 175 214 261 316
#
# _framework density 17.41675
#
# number of rings (size 3 to 8) (size 9 to 14) (size 15 to 20)
#    0.000    2.182    2.727    2.182    5.091    0.000 
#    1.636    0.000    0.000    8.727    0.000    0.000 
#    0.000    0.000    0.000    0.000    0.000    0.000 
#
# Total GULP energy -367903.053327 kJ/mol
# GULP energy per Si atom -5574.288687 kJ/mol
# Density = 1.737711 g / cm^3
# Si number density = 17.416750 Si / 1000 Ang^3
#
#
#
# Elastic Constant Matrix: (Units=GPa)
#
#
# Indices 1 2 3 4 5 6 
#
# 1 103.5612 56.1677 27.4784 0.0000 0.0000 0.0000
# 2 56.1677 103.5612 27.4784 0.0000 0.0000 0.0000
# 3 27.4784 27.4784 59.4953 0.0000 0.0000 0.0000
# 4 0.0000 0.0000 0.0000 12.3115 0.0000 0.0000
# 5 0.0000 0.0000 0.0000 0.0000 12.3115 0.0000
# 6 0.0000 0.0000 0.0000 0.0000 0.0000 23.6967
#
#
#
# Elastic Compliance Matrix: (Units=1/GPa)
#
#
# Indices 1 2 3 4 5 6 
#
# 1 0.014272 -0.006828 -0.003438 0.000000 0.000000 0.000000
# 2 -0.006828 0.014272 -0.003438 0.000000 0.000000 0.000000
# 3 -0.003438 -0.003438 0.019984 0.000000 0.000000 0.000000
# 4 0.000000 0.000000 0.000000 0.081225 0.000000 0.000000
# 5 0.000000 0.000000 0.000000 0.000000 0.081225 0.000000
# 6 0.000000 0.000000 0.000000 0.000000 0.000000 0.042200
#
#
# Mechanical properties :
#
#
# Convention : Reuss Voigt Hill
#
# Bulk Modulus (GPa) = 47.35023 54.31854 50.83438
# Shear Modulus (GPa) = 17.38381 20.03016 18.70698
#
# Velocity S-wave (km/s) = 3.16271 3.39492 3.28087
# Velocity P-wave (km/s) = 6.37045 6.82807 6.60323
#
# Compressibility (1/GPa) = 0.02111922
#
# Stress axis : x y z
#
# Youngs Moduli (GPa) = 70.06874 70.06874 50.04100
#
# Poissons Ratio (x) = 0.47845 0.17203
# Poissons Ratio (y) = 0.47845 0.17203
# Poissons Ratio (z) = 0.24088 0.24088
#
# Static dielectric constant tensor:
#      x y z
#    x 1.600040 0.000000 0.000000 
#    y 0.000000 1.600040 0.000000 
#    z 0.000000 0.000000 1.626970 
# 
# From -- ./inp_files/3351.got.cif
#   From: 2010.05.17/outbox.cif.g08.bks.cpg/sg179_2_cif.got.tgz:3351.got - 2010.05.20 11:37:33.
