data_PCOD9583215
_publ_section_title
;
Structure prediction by ZEFSAII (Michael W. Deem and Ramdas Pophale) SiO2 
 PCOD9583215
Probable space group: P 65 2 2
;
_chemical_formula_sum "Si O2"
_cell_formula_units_Z 36
_cell_length_a 17.047301
_cell_length_b 17.047301
_cell_length_c 7.512774
_cell_angle_alpha 90.000000
_cell_angle_beta 90.000000
_cell_angle_gamma 120.000000
_cell_volume 1890.785291
_symmetry_space_group_name_H-M "P 65 2 2"
_symmetry_group_IT_number 179
_symmetry_cell_setting 'hexagonal'
loop_
_space_group_symop_operation_xyz
x,y,z
x-y,x,5/6+z
-y,x-y,2/3+z
-x,-y,1/2+z
-x+y,-x,1/3+z
y,-x+y,1/6+z
x-y,-y,-z
-x,-x+y,1/3-z
y,x,2/3-z
-y,-x,1/6-z
-x+y,y,1/2-z
x,x-y,5/6-z
loop_
_atom_site_type_symbol
_atom_site_label
_atom_site_fract_x
_atom_site_fract_y
_atom_site_fract_z
Si Si1 0.628830 0.257659 0.750000
Si Si2 0.271178 0.858058 0.233637
Si Si3 0.772958 0.227043 0.083334
Si Si4 0.139260 0.569630 0.416667
Si Si5 0.414456 0.000000 0.000000
O O1 0.678500 0.321501 0.583334
O O2 0.671272 0.193305 0.756658
O O3 0.232242 0.842198 0.431214
O O4 0.196065 0.803936 0.083334
O O5 0.340149 0.955767 0.155418
O O6 0.673004 0.190904 0.173808
O O7 0.077324 0.506011 0.576657
#
# Coordination Sequence:
#
# PCOD9583215 Si02
#       5
#     6  12   6   6   6
#     4  10  20  30  52  76 108 142 190 256 316 370
#     4  11  23  39  56  84 114 154 209 264 327 382
#     4  12  25  38  57  88 116 158 214 272 329 370
#     4  12  25  38  63  88 124 166 218 280 331 390
#     4  12  24  44  60  86 122 170 218 276 340 400
#
# _framework density 19.039707
#
# number of rings (size 3 to 8) (size 9 to 14) (size 15 to 20)
#    0.000    0.667    3.333    6.000    7.000    2.667 
#    0.000    0.000    0.000    0.000    0.000    0.000 
#    0.000    0.000    0.000    0.000    6.333    0.000 
#
# Total GULP energy -201155.072332 kJ/mol
# GULP energy per Si atom -5587.640898 kJ/mol
# Density = 1.899637 g / cm^3
# Si number density = 19.039707 Si / 1000 Ang^3
#
#
#
# Elastic Constant Matrix: (Units=GPa)
#
#
# Indices 1 2 3 4 5 6 
#
# 1 54.5222 19.9247 30.9249 0.0000 0.0000 0.0000
# 2 19.9247 54.5222 30.9249 0.0000 0.0000 0.0000
# 3 30.9249 30.9249 145.0707 0.0000 0.0000 0.0000
# 4 0.0000 0.0000 0.0000 37.1592 0.0000 0.0000
# 5 0.0000 0.0000 0.0000 0.0000 37.1592 0.0000
# 6 0.0000 0.0000 0.0000 0.0000 0.0000 17.2988
#
#
#
# Elastic Compliance Matrix: (Units=1/GPa)
#
#
# Indices 1 2 3 4 5 6 
#
# 1 0.022614 -0.006290 -0.003480 0.000000 0.000000 0.000000
# 2 -0.006290 0.022614 -0.003480 0.000000 0.000000 0.000000
# 3 -0.003480 -0.003480 0.008377 0.000000 0.000000 0.000000
# 4 0.000000 0.000000 0.000000 0.026911 0.000000 0.000000
# 5 0.000000 0.000000 0.000000 0.000000 0.026911 0.000000
# 6 0.000000 0.000000 0.000000 0.000000 0.000000 0.057808
#
#
# Mechanical properties :
#
#
# Convention : Reuss Voigt Hill
#
# Bulk Modulus (GPa) = 36.89407 46.40711 41.65059
# Shear Modulus (GPa) = 24.90441 29.81283 27.35862
#
# Velocity S-wave (km/s) = 3.62059 3.96134 3.79479
# Velocity P-wave (km/s) = 6.07435 6.73422 6.41278
#
# Compressibility (1/GPa) = 0.02710463
#
# Stress axis : x y z
#
# Youngs Moduli (GPa) = 44.22137 44.22137 119.37860
#
# Poissons Ratio (x) = 0.27816 0.41539
# Poissons Ratio (y) = 0.27816 0.41539
# Poissons Ratio (z) = 0.15387 0.15387
#
# Static dielectric constant tensor:
#      x y z
#    x 1.690100 0.000000 0.000000 
#    y 0.000000 1.690100 0.000000 
#    z 0.000000 0.000000 1.854500 
# 
# From -- ./inp_files/2378.got.cif
#   From: 2010.05.17/outbox.cif.g08.bks.cpg/sg179_2_cif.got.tgz:2378.got - 2010.05.20 11:37:33.
