data_PCOD9583218
_publ_section_title
;
Structure prediction by ZEFSAII (Michael W. Deem and Ramdas Pophale) SiO2 
 PCOD9583218
Probable space group: P 65 2 2
;
_chemical_formula_sum "Si O2"
_cell_formula_units_Z 60
_cell_length_a 19.516932
_cell_length_b 19.516932
_cell_length_c 10.383876
_cell_angle_alpha 90.000000
_cell_angle_beta 90.000000
_cell_angle_gamma 120.000000
_cell_volume 3425.415219
_symmetry_space_group_name_H-M "P 65 2 2"
_symmetry_group_IT_number 179
_symmetry_cell_setting 'hexagonal'
loop_
_space_group_symop_operation_xyz
x,y,z
x-y,x,5/6+z
-y,x-y,2/3+z
-x,-y,1/2+z
-x+y,-x,1/3+z
y,-x+y,1/6+z
x-y,-y,-z
-x,-x+y,1/3-z
y,x,2/3-z
-y,-x,1/6-z
-x+y,y,1/2-z
x,x-y,5/6-z
loop_
_atom_site_type_symbol
_atom_site_label
_atom_site_fract_x
_atom_site_fract_y
_atom_site_fract_z
Si Si1 0.759937 0.677359 0.265891
Si Si2 0.407248 0.031721 0.741080
Si Si3 0.335634 0.871148 0.866563
Si Si4 0.566004 0.292685 0.267415
Si Si5 0.455557 0.894165 0.072024
O O1 0.740608 0.740608 0.333334
O O2 0.850697 0.701394 0.250000
O O3 0.712383 0.647943 0.130334
O O4 0.717055 0.601227 0.360927
O O5 0.451650 0.059604 0.605686
O O6 0.482143 0.067355 0.840879
O O7 0.358707 0.937619 0.758385
O O8 0.289462 0.782223 0.817410
O O9 0.418850 0.890380 0.932103
O O10 0.652204 0.304408 0.250000
O O11 0.542891 0.271446 0.416667
O O12 0.568969 0.373370 0.230429
#
# Coordination Sequence:
#
# PCOD9583218 Si02
#       5
#    12  12  12  12  12
#     4   9  17  32  53  80 108 135 170 213 263 319
#     4   9  20  32  55  72  94 133 173 219 259 316
#     4  10  21  37  50  72  99 135 178 221 269 325
#     4  12  25  35  48  68 101 132 168 223 280 316
#     4  10  20  32  49  69  90 126 173 213 267 317
#
# _framework density 17.516124999999999
#
# number of rings (size 3 to 8) (size 9 to 14) (size 15 to 20)
#    0.000    2.000    2.000    3.000    5.600    4.800 
#    0.000    0.000    0.000    0.000    0.000    0.000 
#    0.000    6.400    0.000    0.000    0.000    0.000 
#
# Total GULP energy -334723.522638 kJ/mol
# GULP energy per Si atom -5578.725377 kJ/mol
# Density = 1.747626 g / cm^3
# Si number density = 17.516125 Si / 1000 Ang^3
#
#
#
# Elastic Constant Matrix: (Units=GPa)
#
#
# Indices 1 2 3 4 5 6 
#
# 1 95.1983 46.1738 13.0153 0.0000 0.0000 0.0000
# 2 46.1738 95.1983 13.0153 0.0000 0.0000 0.0000
# 3 13.0153 13.0153 44.6310 0.0000 0.0000 0.0000
# 4 0.0000 0.0000 0.0000 14.5372 0.0000 0.0000
# 5 0.0000 0.0000 0.0000 0.0000 14.5372 0.0000
# 6 0.0000 0.0000 0.0000 0.0000 0.0000 24.5122
#
#
#
# Elastic Compliance Matrix: (Units=1/GPa)
#
#
# Indices 1 2 3 4 5 6 
#
# 1 0.013936 -0.006462 -0.002180 0.000000 0.000000 0.000000
# 2 -0.006462 0.013936 -0.002180 0.000000 0.000000 0.000000
# 3 -0.002180 -0.002180 0.023677 0.000000 0.000000 0.000000
# 4 0.000000 0.000000 0.000000 0.068789 0.000000 0.000000
# 5 0.000000 0.000000 0.000000 0.000000 0.068789 0.000000
# 6 0.000000 0.000000 0.000000 0.000000 0.000000 0.040796
#
#
# Mechanical properties :
#
#
# Convention : Reuss Voigt Hill
#
# Bulk Modulus (GPa) = 33.43612 42.15960 37.79786
# Shear Modulus (GPa) = 19.11781 21.57218 20.34500
#
# Velocity S-wave (km/s) = 3.30728 3.51317 3.41178
# Velocity P-wave (km/s) = 5.80640 6.37007 6.09476
#
# Compressibility (1/GPa) = 0.02990778
#
# Stress axis : x y z
#
# Youngs Moduli (GPa) = 71.75435 71.75435 42.23449
#
# Poissons Ratio (x) = 0.46364 0.09206
# Poissons Ratio (y) = 0.46364 0.09206
# Poissons Ratio (z) = 0.15641 0.15641
#
# Static dielectric constant tensor:
#      x y z
#    x 1.593110 0.000000 0.000000 
#    y 0.000000 1.593110 0.000000 
#    z 0.000000 0.000000 1.704400 
# 
# From -- ./inp_files/4691.got.cif
#   From: 2010.05.17/outbox.cif.g08.bks.cpg/sg179_3_cif.got.tgz:4691.got - 2010.05.20 11:37:33.
