data_PCOD9583239
_publ_section_title
;
Structure prediction by ZEFSAII (Michael W. Deem and Ramdas Pophale) SiO2 
 PCOD9583239
Probable space group: P 65 2 2
;
_chemical_formula_sum "Si O2"
_cell_formula_units_Z 54
_cell_length_a 13.837229
_cell_length_b 13.837229
_cell_length_c 15.797403
_cell_angle_alpha 90.000000
_cell_angle_beta 90.000000
_cell_angle_gamma 120.000000
_cell_volume 2619.476978
_symmetry_space_group_name_H-M "P 65 2 2"
_symmetry_group_IT_number 179
_symmetry_cell_setting 'hexagonal'
loop_
_space_group_symop_operation_xyz
x,y,z
x-y,x,5/6+z
-y,x-y,2/3+z
-x,-y,1/2+z
-x+y,-x,1/3+z
y,-x+y,1/6+z
x-y,-y,-z
-x,-x+y,1/3-z
y,x,2/3-z
-y,-x,1/6-z
-x+y,y,1/2-z
x,x-y,5/6-z
loop_
_atom_site_type_symbol
_atom_site_label
_atom_site_fract_x
_atom_site_fract_y
_atom_site_fract_z
Si Si1 0.755657 0.152466 0.839805
Si Si2 0.581330 0.475996 0.224905
Si Si3 0.071329 0.928672 0.083334
Si Si4 0.285572 0.993059 0.812971
Si Si5 0.324140 0.756751 0.950435
O O1 0.631012 0.090483 0.876875
O O2 0.758778 0.078055 0.764083
O O3 0.775479 0.266288 0.796103
O O4 0.870248 0.201307 0.890309
O O5 0.613134 0.595824 0.186722
O O6 0.665602 0.447160 0.172548
O O7 0.610949 0.473341 0.322817
O O8 0.024269 0.802089 0.050591
O O9 0.000000 0.924279 0.166667
O O10 0.388575 0.694288 0.916667
#
# Coordination Sequence:
#
# PCOD9583239 Si02
#       5
#    12  12   6  12  12
#     4  10  20  35  54  87 125 160 204 258 323 377
#     4   9  18  32  51  80 122 163 199 252 320 381
#     4  12  24  40  68 108 130 162 216 282 358 396
#     4  11  20  35  60  89 127 158 208 272 319 386
#     4   8  15  30  48  73 112 155 196 244 298 370
#
# _framework density 20.614802000000001
#
# number of rings (size 3 to 8) (size 9 to 14) (size 15 to 20)
#    0.000    2.222    2.222    4.667    0.000    0.000 
#   16.000    0.000    0.000    0.000    8.667    0.000 
#    0.000    0.000    0.000    0.000    0.000    0.000 
#
# Total GULP energy -300622.962986 kJ/mol
# GULP energy per Si atom -5567.091907 kJ/mol
# Density = 2.056788 g / cm^3
# Si number density = 20.614802 Si / 1000 Ang^3
#
#
#
# Elastic Constant Matrix: (Units=GPa)
#
#
# Indices 1 2 3 4 5 6 
#
# 1 68.8664 53.4086 11.7361 0.0000 0.0000 0.0000
# 2 53.4086 68.8664 11.7361 0.0000 0.0000 0.0000
# 3 11.7361 11.7361 33.5657 0.0000 0.0000 0.0000
# 4 0.0000 0.0000 0.0000 15.5639 0.0000 0.0000
# 5 0.0000 0.0000 0.0000 0.0000 15.5639 0.0000
# 6 0.0000 0.0000 0.0000 0.0000 0.0000 7.7289
#
#
#
# Elastic Compliance Matrix: (Units=1/GPa)
#
#
# Indices 1 2 3 4 5 6 
#
# 1 0.036729 -0.027963 -0.003065 0.000000 0.000000 0.000000
# 2 -0.027963 0.036729 -0.003065 0.000000 0.000000 0.000000
# 3 -0.003065 -0.003065 0.031936 0.000000 0.000000 0.000000
# 4 0.000000 0.000000 0.000000 0.064251 0.000000 0.000000
# 5 0.000000 0.000000 0.000000 0.000000 0.064251 0.000000
# 6 0.000000 0.000000 0.000000 0.000000 0.000000 0.129384
#
#
# Mechanical properties :
#
#
# Convention : Reuss Voigt Hill
#
# Bulk Modulus (GPa) = 26.87575 36.11776 31.49676
# Shear Modulus (GPa) = 11.26454 14.06587 12.66521
#
# Velocity S-wave (km/s) = 2.34012 2.61496 2.48135
# Velocity P-wave (km/s) = 4.51298 5.16485 4.84988
#
# Compressibility (1/GPa) = 0.03720826
#
# Stress axis : x y z
#
# Youngs Moduli (GPa) = 27.22611 27.22611 31.31285
#
# Poissons Ratio (x) = 0.76132 0.09598
# Poissons Ratio (y) = 0.76132 0.09598
# Poissons Ratio (z) = 0.08345 0.08345
#
# Static dielectric constant tensor:
#      x y z
#    x 1.808090 0.000000 0.000000 
#    y 0.000000 1.808090 0.000000 
#    z 0.000000 0.000000 1.751430 
# 
# From -- ./inp_files/6654.got.cif
#   From: 2010.05.17/outbox.cif.g08.bks.cpg/sg179_4_cif.got.tgz:6654.got - 2010.05.20 11:37:33.
