data_PCOD9583681
_publ_section_title
;
Structure prediction by ZEFSAII (Michael W. Deem and Ramdas Pophale) SiO2 
 PCOD9583681
Probable space group: P 62 2 2
;
_chemical_formula_sum "Si O2"
_cell_formula_units_Z 60
_cell_length_a 17.905845
_cell_length_b 17.905845
_cell_length_c 15.555277
_cell_angle_alpha 90.000000
_cell_angle_beta 90.000000
_cell_angle_gamma 120.000000
_cell_volume 4319.147369
_symmetry_space_group_name_H-M "P 62 2 2"
_symmetry_group_IT_number 180
_symmetry_cell_setting 'hexagonal'
loop_
_space_group_symop_operation_xyz
x,y,z
x-y,x,1/3+z
-y,x-y,2/3+z
-x,-y,z
-x+y,-x,1/3+z
y,-x+y,2/3+z
x-y,-y,-z
-x,-x+y,1/3-z
y,x,2/3-z
-y,-x,2/3-z
-x+y,y,-z
x,x-y,1/3-z
loop_
_atom_site_type_symbol
_atom_site_label
_atom_site_fract_x
_atom_site_fract_y
_atom_site_fract_z
Si Si1 0.001670 0.591348 0.303803
Si Si2 0.187848 0.684622 0.566932
Si Si3 0.000595 0.409686 0.832778
Si Si4 0.857153 0.518803 0.165666
Si Si5 0.319034 0.814352 0.900030
O O1 0.088950 0.655506 0.252941
O O2 0.000000 0.500000 0.305404
O O3 0.998179 0.615843 0.401631
O O4 0.919755 0.571670 0.245342
O O5 0.255365 0.764321 0.510297
O O6 0.194165 0.598450 0.551845
O O7 0.207822 0.707031 0.667472
O O8 0.089681 0.657822 0.545406
O O9 0.913222 0.345500 0.783901
O O10 0.000000 0.500000 0.833917
O O11 0.847785 0.423893 0.166667
O O12 0.247303 0.752697 0.833334
#
# Coordination Sequence:
#
# PCOD9583681 Si02
#       5
#    12  12  12  12  12
#     4   8  15  27  42  56  76 105 131 158 199 242
#     4  10  19  28  41  60  79 101 134 173 204 233
#     4   9  17  29  41  55  76 103 132 164 201 239
#     4   9  16  27  41  59  80 103 133 167 200 239
#     4  10  19  30  42  56  77 106 136 167 203 240
#
# _framework density 13.891629999999999
#
# number of rings (size 3 to 8) (size 9 to 14) (size 15 to 20)
#    0.000    2.800    0.000    3.600    0.000    4.800 
#    0.000    0.000    0.000    0.000    0.000    0.000 
#    0.000    0.000    0.000    3.600    0.000   40.800 
#
# Total GULP energy -334183.986890 kJ/mol
# GULP energy per Si atom -5569.733115 kJ/mol
# Density = 1.386001 g / cm^3
# Si number density = 13.891630 Si / 1000 Ang^3
#
#
#
# Elastic Constant Matrix: (Units=GPa)
#
#
# Indices 1 2 3 4 5 6 
#
# 1 57.8217 22.9532 16.0215 0.0000 0.0000 0.0000
# 2 22.9532 57.8217 16.0215 0.0000 0.0000 0.0000
# 3 16.0215 16.0215 43.6210 0.0000 0.0000 0.0000
# 4 0.0000 0.0000 0.0000 14.8433 0.0000 0.0000
# 5 0.0000 0.0000 0.0000 0.0000 14.8433 0.0000
# 6 0.0000 0.0000 0.0000 0.0000 0.0000 17.4343
#
#
#
# Elastic Compliance Matrix: (Units=1/GPa)
#
#
# Indices 1 2 3 4 5 6 
#
# 1 0.021585 -0.007094 -0.005323 0.000000 0.000000 0.000000
# 2 -0.007094 0.021585 -0.005323 0.000000 0.000000 0.000000
# 3 -0.005323 -0.005323 0.026835 0.000000 0.000000 0.000000
# 4 0.000000 0.000000 0.000000 0.067371 0.000000 0.000000
# 5 0.000000 0.000000 0.000000 0.000000 0.067371 0.000000
# 6 0.000000 0.000000 0.000000 0.000000 0.000000 0.057358
#
#
# Mechanical properties :
#
#
# Convention : Reuss Voigt Hill
#
# Bulk Modulus (GPa) = 28.96255 29.91742 29.43999
# Shear Modulus (GPa) = 16.17642 16.37537 16.27590
#
# Velocity S-wave (km/s) = 3.41614 3.43708 3.42663
# Velocity P-wave (km/s) = 6.03773 6.11019 6.07407
#
# Compressibility (1/GPa) = 0.03452734
#
# Stress axis : x y z
#
# Youngs Moduli (GPa) = 46.32772 46.32772 37.26531
#
# Poissons Ratio (x) = 0.32864 0.19835
# Poissons Ratio (y) = 0.32864 0.19835
# Poissons Ratio (z) = 0.24658 0.24658
#
# Static dielectric constant tensor:
#      x y z
#    x 1.440100 0.000000 0.000000 
#    y 0.000000 1.440100 0.000000 
#    z 0.000000 0.000000 1.475150 
# 
# From -- ./inp_files/6263.got.cif
#   From: 2010.05.17/outbox.cif.g08.bks.cpg/sg180_4_cif.got.tgz:6263.got - 2010.05.20 11:43:55.
