data_PCOD9583413
_publ_section_title
;
Structure prediction by ZEFSAII (Michael W. Deem and Ramdas Pophale) SiO2 
 PCOD9583413
Probable space group: P 65 2 2
;
_chemical_formula_sum "Si O2"
_cell_formula_units_Z 78
_cell_length_a 19.817601
_cell_length_b 19.817601
_cell_length_c 15.239734
_cell_angle_alpha 90.000000
_cell_angle_beta 90.000000
_cell_angle_gamma 120.000000
_cell_volume 5183.345749
_symmetry_space_group_name_H-M "P 65 2 2"
_symmetry_group_IT_number 179
_symmetry_cell_setting 'hexagonal'
loop_
_space_group_symop_operation_xyz
x,y,z
x-y,x,5/6+z
-y,x-y,2/3+z
-x,-y,1/2+z
-x+y,-x,1/3+z
y,-x+y,1/6+z
x-y,-y,-z
-x,-x+y,1/3-z
y,x,2/3-z
-y,-x,1/6-z
-x+y,y,1/2-z
x,x-y,5/6-z
loop_
_atom_site_type_symbol
_atom_site_label
_atom_site_fract_x
_atom_site_fract_y
_atom_site_fract_z
Si Si1 0.392012 0.577728 0.391002
Si Si2 0.574561 0.555991 0.673543
Si Si3 0.642489 0.284977 0.250000
Si Si4 0.168001 0.752947 0.674775
Si Si5 0.603230 0.534749 0.389772
Si Si6 0.880930 0.440465 0.416667
Si Si7 0.332030 0.000000 0.500000
Si Si8 0.686285 0.528759 0.547428
O O1 0.343399 0.620655 0.367769
O O2 0.333165 0.488470 0.361528
O O3 0.470487 0.605988 0.337876
O O4 0.415340 0.586317 0.494604
O O5 0.509431 0.479628 0.724793
O O6 0.530581 0.586735 0.609349
O O7 0.625968 0.618411 0.746189
O O8 0.627551 0.530403 0.619615
O O9 0.561266 0.226185 0.201461
O O10 0.213282 0.786719 0.583334
O O11 0.227159 0.805315 0.749784
O O12 0.083709 0.745426 0.673092
O O13 0.600659 0.600659 0.333334
O O14 0.670572 0.561556 0.459949
#
# Coordination Sequence:
#
# PCOD9583413 Si02
#       8
#    12  12   6  12  12   6   6  12
#     4  11  23  32  46  64  92 127 165 213 265 309
#     4  12  17  31  50  68  91 123 166 214 248 294
#     4  10  23  34  42  64  90 130 152 220 266 300
#     4  11  21  34  52  74  96 122 163 208 255 309
#     4  12  18  32  50  69  90 125 168 211 255 309
#     4  12  19  34  46  66  88 124 174 212 254 296
#     4  12  20  34  52  74  96 122 166 212 254 306
#     4  11  21  32  50  72  94 126 169 211 259 306
#
# _framework density 15.048196000000001
#
# number of rings (size 3 to 8) (size 9 to 14) (size 15 to 20)
#    0.000    0.615   10.000    0.000    2.154    2.462 
#    1.385    0.000    0.000    0.000    0.000    0.000 
#    0.000    0.000    0.000    0.000    2.923    0.000 
#
# Total GULP energy -434724.359800 kJ/mol
# GULP energy per Si atom -5573.389228 kJ/mol
# Density = 1.501395 g / cm^3
# Si number density = 15.048196 Si / 1000 Ang^3
#
#
#
# Elastic Constant Matrix: (Units=GPa)
#
#
# Indices 1 2 3 4 5 6 
#
# 1 57.1565 30.1426 29.8758 0.0000 0.0000 0.0000
# 2 30.1426 57.1565 29.8758 0.0000 0.0000 0.0000
# 3 29.8758 29.8758 94.7843 0.0000 0.0000 0.0000
# 4 0.0000 0.0000 0.0000 21.9427 0.0000 0.0000
# 5 0.0000 0.0000 0.0000 0.0000 21.9427 0.0000
# 6 0.0000 0.0000 0.0000 0.0000 0.0000 13.5069
#
#
#
# Elastic Compliance Matrix: (Units=1/GPa)
#
#
# Indices 1 2 3 4 5 6 
#
# 1 0.025812 -0.011206 -0.004604 0.000000 0.000000 0.000000
# 2 -0.011206 0.025812 -0.004604 0.000000 0.000000 0.000000
# 3 -0.004604 -0.004604 0.013452 0.000000 0.000000 0.000000
# 4 0.000000 0.000000 0.000000 0.045573 0.000000 0.000000
# 5 0.000000 0.000000 0.000000 0.000000 0.045573 0.000000
# 6 0.000000 0.000000 0.000000 0.000000 0.000000 0.074036
#
#
# Mechanical properties :
#
#
# Convention : Reuss Voigt Hill
#
# Bulk Modulus (GPa) = 41.23836 43.20950 42.22393
# Shear Modulus (GPa) = 17.91031 19.42535 18.66783
#
# Velocity S-wave (km/s) = 3.45367 3.59677 3.52595
# Velocity P-wave (km/s) = 6.58539 6.78421 6.68554
#
# Compressibility (1/GPa) = 0.02424927
#
# Stress axis : x y z
#
# Youngs Moduli (GPa) = 38.74177 38.74177 74.33594
#
# Poissons Ratio (x) = 0.43414 0.34222
# Poissons Ratio (y) = 0.43414 0.34222
# Poissons Ratio (z) = 0.17836 0.17836
#
# Static dielectric constant tensor:
#      x y z
#    x 1.523440 0.000000 0.000000 
#    y 0.000000 1.523440 0.000000 
#    z 0.000000 0.000000 1.547380 
# 
# From -- ./inp_files/6184.got.cif
#   From: 2010.05.17/outbox.cif.g08.bks.cpg/sg179_4_cif.got.tgz:6184.got - 2010.05.20 11:37:33.
