data_PCOD9583402
_publ_section_title
;
Structure prediction by ZEFSAII (Michael W. Deem and Ramdas Pophale) SiO2 
 PCOD9583402
Probable space group: P 65 2 2
;
_chemical_formula_sum "Si O2"
_cell_formula_units_Z 42
_cell_length_a 21.989603
_cell_length_b 21.989603
_cell_length_c 5.240559
_cell_angle_alpha 90.000000
_cell_angle_beta 90.000000
_cell_angle_gamma 120.000000
_cell_volume 2194.537588
_symmetry_space_group_name_H-M "P 65 2 2"
_symmetry_group_IT_number 179
_symmetry_cell_setting 'hexagonal'
loop_
_space_group_symop_operation_xyz
x,y,z
x-y,x,5/6+z
-y,x-y,2/3+z
-x,-y,1/2+z
-x+y,-x,1/3+z
y,-x+y,1/6+z
x-y,-y,-z
-x,-x+y,1/3-z
y,x,2/3-z
-y,-x,1/6-z
-x+y,y,1/2-z
x,x-y,5/6-z
loop_
_atom_site_type_symbol
_atom_site_label
_atom_site_fract_x
_atom_site_fract_y
_atom_site_fract_z
Si Si1 0.768978 0.151609 0.330674
Si Si2 0.365007 0.847515 0.597462
Si Si3 0.330234 0.000000 0.000000
Si Si4 0.000000 0.587061 0.666667
Si Si5 0.626915 0.373086 0.083334
O O1 0.803582 0.196419 0.583334
O O2 0.700990 0.156494 0.240672
O O3 0.739933 0.070634 0.415010
O O4 0.820232 0.179769 0.083334
O O5 0.411323 0.822645 0.750000
O O6 0.345982 0.797317 0.357210
O O7 0.414975 0.929238 0.534944
O O8 0.379157 0.014562 0.750747
O O9 0.691575 0.383149 0.250000
#
# Coordination Sequence:
#
# PCOD9583402 Si02
#       5
#    12  12   6   6   6
#     4  11  25  42  67  93 126 167 208 258 322 382
#     4  11  28  39  64  86 120 155 210 263 325 396
#     4  10  22  45  64  96 126 156 210 259 312 382
#     4  10  24  43  64  90 118 158 200 267 328 382
#     4  12  30  46  58  84 120 162 200 262 336 398
#
# _framework density 19.138428000000001
#
# number of rings (size 3 to 8) (size 9 to 14) (size 15 to 20)
#    0.000    1.143    0.000    4.286   20.000    1.143 
#    0.000    0.000    0.000    0.000    0.000    0.000 
#    0.000    0.000    0.000    2.571    0.000   11.714 
#
# Total GULP energy -234586.119917 kJ/mol
# GULP energy per Si atom -5585.383808 kJ/mol
# Density = 1.909487 g / cm^3
# Si number density = 19.138428 Si / 1000 Ang^3
#
#
#
# Elastic Constant Matrix: (Units=GPa)
#
#
# Indices 1 2 3 4 5 6 
#
# 1 113.9105 46.6485 44.9862 0.0000 0.0000 0.0000
# 2 46.6485 113.9105 44.9862 0.0000 0.0000 0.0000
# 3 44.9862 44.9862 118.8610 0.0000 0.0000 0.0000
# 4 0.0000 0.0000 0.0000 33.8416 0.0000 0.0000
# 5 0.0000 0.0000 0.0000 0.0000 33.8416 0.0000
# 6 0.0000 0.0000 0.0000 0.0000 0.0000 33.6310
#
#
#
# Elastic Compliance Matrix: (Units=1/GPa)
#
#
# Indices 1 2 3 4 5 6 
#
# 1 0.011386 -0.003481 -0.002992 0.000000 0.000000 0.000000
# 2 -0.003481 0.011386 -0.002992 0.000000 0.000000 0.000000
# 3 -0.002992 -0.002992 0.010678 0.000000 0.000000 0.000000
# 4 0.000000 0.000000 0.000000 0.029549 0.000000 0.000000
# 5 0.000000 0.000000 0.000000 0.000000 0.029549 0.000000
# 6 0.000000 0.000000 0.000000 0.000000 0.000000 0.029734
#
#
# Mechanical properties :
#
#
# Convention : Reuss Voigt Hill
#
# Bulk Modulus (GPa) = 68.86943 68.88044 68.87494
# Shear Modulus (GPa) = 34.23420 34.26690 34.25055
#
# Velocity S-wave (km/s) = 4.23397 4.23599 4.23498
# Velocity P-wave (km/s) = 7.74371 7.74556 7.74463
#
# Compressibility (1/GPa) = 0.01452023
#
# Stress axis : x y z
#
# Youngs Moduli (GPa) = 87.82731 87.82731 93.65208
#
# Poissons Ratio (x) = 0.30575 0.28019
# Poissons Ratio (y) = 0.30575 0.28019
# Poissons Ratio (z) = 0.26276 0.26276
#
# Static dielectric constant tensor:
#      x y z
#    x 1.683120 0.000000 0.000000 
#    y 0.000000 1.683120 0.000000 
#    z 0.000000 0.000000 1.883530 
# 
# From -- ./inp_files/845.got.cif
#   From: 2010.05.17/outbox.cif.g08.bks.cpg/sg179_1_cif.got.tgz:845.got - 2010.05.20 11:37:33.
