data_PCOD9583088
_publ_section_title
;
Structure prediction by ZEFSAII (Michael W. Deem and Ramdas Pophale) SiO2 
 PCOD9583088
Probable space group: P 61 2 2
;
_chemical_formula_sum "Si O2"
_cell_formula_units_Z 60
_cell_length_a 15.000000
_cell_length_b 15.000000
_cell_length_c 15.000000
_cell_angle_alpha 90.000000
_cell_angle_beta 90.000000
_cell_angle_gamma 120.000000
_cell_volume 2922.835738
_symmetry_space_group_name_H-M "P 61 2 2"
_symmetry_group_IT_number 178
_symmetry_cell_setting 'hexagonal'
loop_
_space_group_symop_operation_xyz
x,y,z
x-y,x,1/6+z
-y,x-y,1/3+z
-x,-y,1/2+z
-x+y,-x,2/3+z
y,-x+y,5/6+z
x-y,-y,-z
-x,-x+y,2/3-z
y,x,1/3-z
-y,-x,5/6-z
-x+y,y,1/2-z
x,x-y,1/6-z
loop_
_atom_site_type_symbol
_atom_site_label
_atom_site_fract_x
_atom_site_fract_y
_atom_site_fract_z
Si Si1 0.417436 0.726179 0.340727
Si Si2 0.073530 0.147059 0.250000
Si Si3 0.622975 0.622975 0.166667
Si Si4 0.508267 0.544682 0.813327
Si Si5 0.370357 0.141015 0.367568
Si Si6 0.010462 0.291526 0.145154
O O1 0.344622 0.655379 0.416667
O O2 0.357155 0.714309 0.250000
O O3 0.469949 0.844191 0.370968
O O4 0.509193 0.704984 0.321197
O O5 0.083210 0.083210 0.166667
O O6 0.185573 0.221959 0.291587
O O7 0.564414 0.548522 0.249505
O O8 0.731224 0.643299 0.129406
O O9 0.632229 0.604488 0.805672
O O10 0.486641 0.513360 0.916667
O O11 0.336614 0.226115 0.375496
O O12 0.314377 0.069863 0.282128
#
# Coordination Sequence:
#
# PCOD9583088 Si02
#       6
#    12   6   6  12  12  12
#     4  10  22  41  63  96 133 174 219 277 333 415
#     4  12  26  50  78 104 144 190 250 316 376 430
#     4  12  24  40  70 100 132 194 220 286 362 434
#     4  10  22  41  66  98 139 175 228 282 345 430
#     4  11  25  43  68  97 142 180 235 294 357 436
#     4  11  24  46  68 104 137 186 238 303 361 432
#
# _framework density 20.528009999999998
#
# number of rings (size 3 to 8) (size 9 to 14) (size 15 to 20)
#    0.000    1.200    4.000    1.200    4.200    0.800 
#    3.600    0.000    0.000    0.000    0.000    0.000 
#    0.000    0.000    0.000    0.000    0.000    0.000 
#
# Total GULP energy -334899.882857 kJ/mol
# GULP energy per Si atom -5581.664714 kJ/mol
# Density = 2.048129 g / cm^3
# Si number density = 20.528010 Si / 1000 Ang^3
#
#
#
# Elastic Constant Matrix: (Units=GPa)
#
#
# Indices 1 2 3 4 5 6 
#
# 1 30.5767 43.4171 4.2130 0.0000 0.0000 0.0000
# 2 43.4171 30.5767 4.2130 0.0000 0.0000 0.0000
# 3 4.2130 4.2130 25.6545 0.0000 0.0000 0.0000
# 4 0.0000 0.0000 0.0000 -60.1017 0.0000 0.0000
# 5 0.0000 0.0000 0.0000 0.0000 -60.1017 0.0000
# 6 0.0000 0.0000 0.0000 0.0000 0.0000 -6.4202
#
#
#
# Elastic Compliance Matrix: (Units=1/GPa)
#
#
# Indices 1 2 3 4 5 6 
#
# 1 -0.032054 0.045826 -0.002262 0.000000 0.000000 0.000000
# 2 0.045826 -0.032054 -0.002262 0.000000 0.000000 0.000000
# 3 -0.002262 -0.002262 0.039722 0.000000 0.000000 0.000000
# 4 0.000000 0.000000 0.000000 -0.016638 0.000000 0.000000
# 5 0.000000 0.000000 0.000000 0.000000 -0.016638 0.000000
# 6 0.000000 0.000000 0.000000 0.000000 0.000000 -0.155759
#
#
# Mechanical properties :
#
#
# Convention : Reuss Voigt Hill
#
# Bulk Modulus (GPa) = 17.17621 21.16599 19.17110
# Shear Modulus (GPa) = -18.07541 -22.99373 -20.53457
#
# Velocity S-wave (km/s) = -2.97058 -3.35044 -3.16621
# Velocity P-wave (km/s) = 1.83860 2.15270 2.00182
#
# Compressibility (1/GPa) = 0.05822006
#
# Stress axis : x y z
#
# Youngs Moduli (GPa) = -31.19773 -31.19773 25.17473
#
# Poissons Ratio (x) = 1.42966 0.05694
# Poissons Ratio (y) = 1.42966 0.05694
# Poissons Ratio (z) = -0.07056 -0.07056
#
# Static dielectric constant tensor:
#      x y z
#    x 1.741370 0.000000 0.000000 
#    y 0.000000 1.741370 0.000000 
#    z 0.000000 0.000000 1.736270 
# 
# From -- ./inp_files/5718.got.cif
#   From: 2010.05.17/outbox.ucp.g08.bks.cvg/sg178_3_cif.got.tgz:5718.got - 2010.06.11 15:19:19.
