data_PCOD9583905
_publ_section_title
;
Structure prediction by ZEFSAII (Michael W. Deem and Ramdas Pophale) SiO2 
 PCOD9583905
Probable space group: P 62 2 2
;
_chemical_formula_sum "Si O2"
_cell_formula_units_Z 36
_cell_length_a 8.914430
_cell_length_b 8.914430
_cell_length_c 23.466344
_cell_angle_alpha 90.000000
_cell_angle_beta 90.000000
_cell_angle_gamma 120.000000
_cell_volume 1614.965402
_symmetry_space_group_name_H-M "P 62 2 2"
_symmetry_group_IT_number 180
_symmetry_cell_setting 'hexagonal'
loop_
_space_group_symop_operation_xyz
x,y,z
x-y,x,1/3+z
-y,x-y,2/3+z
-x,-y,z
-x+y,-x,1/3+z
y,-x+y,2/3+z
x-y,-y,-z
-x,-x+y,1/3-z
y,x,2/3-z
-y,-x,2/3-z
-x+y,y,-z
x,x-y,1/3-z
loop_
_atom_site_type_symbol
_atom_site_label
_atom_site_fract_x
_atom_site_fract_y
_atom_site_fract_z
Si Si1 0.326752 0.813057 0.896681
Si Si2 0.523935 0.834414 0.607234
Si Si3 0.986821 0.830607 0.436188
O O1 0.264487 0.735514 0.833334
O O2 0.346043 0.667184 0.928374
O O3 0.164497 0.819788 0.924020
O O4 0.500000 0.000000 0.895036
O O5 0.583692 0.791846 0.666667
O O6 0.668241 0.840373 0.563572
O O7 0.500000 0.000000 0.607657
O O8 0.912894 0.825788 0.500000
O O9 0.000000 0.000000 0.408357
#
# Coordination Sequence:
#
# PCOD9583905 Si02
#       3
#    12  12  12
#     4  11  22  40  66  97 132 174 221 276 332 399
#     4  12  26  44  66  96 134 178 224 279 340 404
#     4  10  21  41  66  96 130 169 217 271 326 393
#
# _framework density 22.291499999999999
#
# number of rings (size 3 to 8) (size 9 to 14) (size 15 to 20)
#    0.000    1.000    0.000    9.000    0.000    4.667 
#    0.000    6.667    0.000    0.000    0.000    0.000 
#    0.000    0.000    0.000    0.000    0.000    0.000 
#
# Total GULP energy -201152.679703 kJ/mol
# GULP energy per Si atom -5587.574436 kJ/mol
# Density = 2.224076 g / cm^3
# Si number density = 22.291500 Si / 1000 Ang^3
#
#
#
# Elastic Constant Matrix: (Units=GPa)
#
#
# Indices 1 2 3 4 5 6 
#
# 1 223.6561 99.1751 22.1985 0.0000 0.0000 0.0000
# 2 99.1751 223.6561 22.1985 0.0000 0.0000 0.0000
# 3 22.1985 22.1985 51.3411 0.0000 0.0000 0.0000
# 4 0.0000 0.0000 0.0000 2.3813 0.0000 0.0000
# 5 0.0000 0.0000 0.0000 0.0000 2.3813 0.0000
# 6 0.0000 0.0000 0.0000 0.0000 0.0000 62.2405
#
#
#
# Elastic Compliance Matrix: (Units=1/GPa)
#
#
# Indices 1 2 3 4 5 6 
#
# 1 0.005663 -0.002370 -0.001424 0.000000 0.000000 0.000000
# 2 -0.002370 0.005663 -0.001424 0.000000 0.000000 0.000000
# 3 -0.001424 -0.001424 0.020709 0.000000 0.000000 0.000000
# 4 0.000000 0.000000 0.000000 0.419939 0.000000 0.000000
# 5 0.000000 0.000000 0.000000 0.000000 0.419939 0.000000
# 6 0.000000 0.000000 0.000000 0.000000 0.000000 0.016067
#
#
# Mechanical properties :
#
#
# Convention : Reuss Voigt Hill
#
# Bulk Modulus (GPa) = 46.29658 87.31084 66.80371
# Shear Modulus (GPa) = 5.52110 37.07268 21.29689
#
# Velocity S-wave (km/s) = 1.57548 4.08252 3.09428
# Velocity P-wave (km/s) = 4.91155 7.84063 6.54212
#
# Compressibility (1/GPa) = 0.02159987
#
# Stress axis : x y z
#
# Youngs Moduli (GPa) = 176.57261 176.57261 48.28823
#
# Poissons Ratio (x) = 0.41847 0.06876
# Poissons Ratio (y) = 0.41847 0.06876
# Poissons Ratio (z) = 0.25144 0.25144
#
# Static dielectric constant tensor:
#      x y z
#    x 1.892110 0.000000 0.000000 
#    y 0.000000 1.892110 0.000000 
#    z 0.000000 0.000000 2.143490 
# 
# From -- ./inp_files/10796.got.cif
#   From: 2010.05.17/outbox.cif.g08.bks.cpg/sg180_6_cif.got.tgz:10796.got - 2010.05.20 11:43:55.
