data_PCOD9583663
_publ_section_title
;
Structure prediction by ZEFSAII (Michael W. Deem and Ramdas Pophale) SiO2 
 PCOD9583663
Probable space group: P 62 2 2
;
_chemical_formula_sum "Si O2"
_cell_formula_units_Z 60
_cell_length_a 18.412011
_cell_length_b 18.412011
_cell_length_c 11.053415
_cell_angle_alpha 90.000000
_cell_angle_beta 90.000000
_cell_angle_gamma 120.000000
_cell_volume 3245.111018
_symmetry_space_group_name_H-M "P 62 2 2"
_symmetry_group_IT_number 180
_symmetry_cell_setting 'hexagonal'
loop_
_space_group_symop_operation_xyz
x,y,z
x-y,x,1/3+z
-y,x-y,2/3+z
-x,-y,z
-x+y,-x,1/3+z
y,-x+y,2/3+z
x-y,-y,-z
-x,-x+y,1/3-z
y,x,2/3-z
-y,-x,2/3-z
-x+y,y,-z
x,x-y,1/3-z
loop_
_atom_site_type_symbol
_atom_site_label
_atom_site_fract_x
_atom_site_fract_y
_atom_site_fract_z
Si Si1 0.817751 0.639894 0.364205
Si Si2 0.763678 0.381839 0.166667
Si Si3 0.469974 0.674994 0.389562
Si Si4 0.118967 0.606729 0.368554
Si Si5 0.587633 0.947832 0.258426
Si Si6 0.000000 0.685937 0.666667
O O1 0.836929 0.673858 0.500000
O O2 0.740908 0.544117 0.359895
O O3 0.897857 0.627499 0.339965
O O4 0.774317 0.689028 0.303113
O O5 0.708508 0.301169 0.086947
O O6 0.821691 0.363607 0.253653
O O7 0.416496 0.583505 0.333334
O O8 0.505213 0.666098 0.517107
O O9 0.104250 0.514255 0.404780
O O10 0.032816 0.604752 0.343837
O O11 0.626162 0.974119 0.120660
#
# Coordination Sequence:
#
# PCOD9583663 Si02
#       6
#    12   6  12  12  12   6
#     4  10  20  35  53  81 103 133 180 245 298 351
#     4  12  26  37  52  76 112 160 200 244 288 332
#     4  12  22  36  56  75 108 144 203 253 291 331
#     4  11  23  37  53  76 109 154 198 244 297 344
#     4  10  21  35  54  81 106 143 192 243 298 355
#     4  10  18  35  58  78 106 132 183 250 310 350
#
# _framework density 18.489350999999999
#
# number of rings (size 3 to 8) (size 9 to 14) (size 15 to 20)
#    0.000    1.200    4.000    4.200    1.400    2.400 
#    0.000    0.000    0.000    0.000    0.000    0.000 
#    0.000    0.000    0.000    3.600   14.400    3.000 
#
# Total GULP energy -334110.040703 kJ/mol
# GULP energy per Si atom -5568.500678 kJ/mol
# Density = 1.844727 g / cm^3
# Si number density = 18.489351 Si / 1000 Ang^3
#
#
#
# Elastic Constant Matrix: (Units=GPa)
#
#
# Indices 1 2 3 4 5 6 
#
# 1 88.8439 34.3574 11.8842 0.0000 0.0000 0.0000
# 2 34.3574 88.8439 11.8842 0.0000 0.0000 0.0000
# 3 11.8842 11.8842 43.7928 0.0000 0.0000 0.0000
# 4 0.0000 0.0000 0.0000 -21.4318 0.0000 0.0000
# 5 0.0000 0.0000 0.0000 0.0000 -21.4318 0.0000
# 6 0.0000 0.0000 0.0000 0.0000 0.0000 27.2433
#
#
#
# Elastic Compliance Matrix: (Units=1/GPa)
#
#
# Indices 1 2 3 4 5 6 
#
# 1 0.013459 -0.004894 -0.002324 0.000000 0.000000 0.000000
# 2 -0.004894 0.013459 -0.002324 0.000000 0.000000 0.000000
# 3 -0.002324 -0.002324 0.024096 0.000000 0.000000 0.000000
# 4 0.000000 0.000000 0.000000 -0.046660 0.000000 0.000000
# 5 0.000000 0.000000 0.000000 0.000000 -0.046660 0.000000
# 6 0.000000 0.000000 0.000000 0.000000 0.000000 0.036706
#
#
# Mechanical properties :
#
#
# Convention : Reuss Voigt Hill
#
# Bulk Modulus (GPa) = 31.31921 37.52582 34.42252
# Shear Modulus (GPa) = 207.20881 7.76626 107.48753
#
# Velocity S-wave (km/s) = 10.59776 2.05171 7.63289
# Velocity P-wave (km/s) = 12.91224 5.09437 9.81526
#
# Compressibility (1/GPa) = 0.03192928
#
# Stress axis : x y z
#
# Youngs Moduli (GPa) = 74.29866 74.29866 41.50005
#
# Poissons Ratio (x) = 0.36362 0.09646
# Poissons Ratio (y) = 0.36362 0.09646
# Poissons Ratio (z) = 0.17270 0.17270
#
# Static dielectric constant tensor:
#      x y z
#    x 1.729290 0.000000 0.000000 
#    y 0.000000 1.729290 0.000000 
#    z 0.000000 0.000000 1.671820 
# 
# From -- ./inp_files/4867.got.cif
#   From: 2010.05.17/outbox.cif.g08.bks.cpg/sg180_3_cif.got.tgz:4867.got - 2010.05.20 11:43:55.
