data_PCOD9583406
_publ_section_title
;
Structure prediction by ZEFSAII (Michael W. Deem and Ramdas Pophale) SiO2 
 PCOD9583406
Probable space group: P 65 2 2
;
_chemical_formula_sum "Si O2"
_cell_formula_units_Z 48
_cell_length_a 14.140914
_cell_length_b 14.140914
_cell_length_c 11.424141
_cell_angle_alpha 90.000000
_cell_angle_beta 90.000000
_cell_angle_gamma 120.000000
_cell_volume 1978.377428
_symmetry_space_group_name_H-M "P 65 2 2"
_symmetry_group_IT_number 179
_symmetry_cell_setting 'hexagonal'
loop_
_space_group_symop_operation_xyz
x,y,z
x-y,x,5/6+z
-y,x-y,2/3+z
-x,-y,1/2+z
-x+y,-x,1/3+z
y,-x+y,1/6+z
x-y,-y,-z
-x,-x+y,1/3-z
y,x,2/3-z
-y,-x,1/6-z
-x+y,y,1/2-z
x,x-y,5/6-z
loop_
_atom_site_type_symbol
_atom_site_label
_atom_site_fract_x
_atom_site_fract_y
_atom_site_fract_z
Si Si1 0.625498 0.412287 0.345093
Si Si2 0.389642 0.093096 0.187526
Si Si3 0.075200 0.679443 0.769543
Si Si4 0.023636 0.862180 0.328403
O O1 0.721386 0.442772 0.250000
O O2 0.609757 0.304879 0.416667
O O3 0.647271 0.504764 0.439766
O O4 0.520679 0.391268 0.271749
O O5 0.383562 0.201185 0.223432
O O6 0.273186 0.030349 0.126096
O O7 0.376868 0.007659 0.288304
O O8 0.000000 0.680192 0.666667
O O9 0.976683 0.847164 0.460192
O O10 0.929371 0.858742 0.250000
#
# Coordination Sequence:
#
# PCOD9583406 Si02
#       4
#    12  12  12  12
#     4  12  28  53  87 118 174 230 292 370 447 528
#     4  12  26  52  83 119 167 219 289 350 445 523
#     4  12  28  52  80 121 165 218 289 356 435 530
#     4  10  22  46  74 113 161 207 267 330 415 499
#
# _framework density 24.262304
#
# number of rings (size 3 to 8) (size 9 to 14) (size 15 to 20)
#    0.000    0.500    5.000    2.250    0.000    7.000 
#   13.500    2.500    0.000    0.000    0.000    0.000 
#    0.000    0.000    0.000    0.000    0.000    0.000 
#
# Total GULP energy -268114.613094 kJ/mol
# GULP energy per Si atom -5585.721106 kJ/mol
# Density = 2.420708 g / cm^3
# Si number density = 24.262304 Si / 1000 Ang^3
#
#
#
# Elastic Constant Matrix: (Units=GPa)
#
#
# Indices 1 2 3 4 5 6 
#
# 1 -71.0667 290.4648 82.3628 0.0000 0.0000 0.0000
# 2 290.4648 -71.0667 82.3628 0.0000 0.0000 0.0000
# 3 82.3628 82.3628 133.3932 0.0000 0.0000 0.0000
# 4 0.0000 0.0000 0.0000 48.0304 0.0000 0.0000
# 5 0.0000 0.0000 0.0000 0.0000 48.0304 0.0000
# 6 0.0000 0.0000 0.0000 0.0000 0.0000 -180.7657
#
#
#
# Elastic Compliance Matrix: (Units=1/GPa)
#
#
# Indices 1 2 3 4 5 6 
#
# 1 0.002865 0.005631 -0.005246 0.000000 0.000000 0.000000
# 2 0.005631 0.002865 -0.005246 0.000000 0.000000 0.000000
# 3 -0.005246 -0.005246 0.013975 0.000000 0.000000 0.000000
# 4 0.000000 0.000000 0.000000 0.020820 0.000000 0.000000
# 5 0.000000 0.000000 0.000000 0.000000 0.020820 0.000000
# 6 0.000000 0.000000 0.000000 0.000000 0.000000 -0.005532
#
#
# Mechanical properties :
#
#
# Convention : Reuss Voigt Hill
#
# Bulk Modulus (GPa) = 100.16350 100.18231 100.17291
# Shear Modulus (GPa) = 72.60582 -47.86968 12.36807
#
# Velocity S-wave (km/s) = 5.47634 -4.44667 2.26025
# Velocity P-wave (km/s) = 9.02000 3.87519 6.94181
#
# Compressibility (1/GPa) = 0.00998368
#
# Stress axis : x y z
#
# Youngs Moduli (GPa) = 348.98315 348.98315 71.55462
#
# Poissons Ratio (x) = -1.96529 0.37540
# Poissons Ratio (y) = -1.96529 0.37540
# Poissons Ratio (z) = 1.83090 1.83090
#
# Static dielectric constant tensor:
#      x y z
#    x 2.047240 0.000000 0.000000 
#    y 0.000000 2.047240 0.000000 
#    z 0.000000 0.000000 4.396500 
# 
# From -- ./inp_files/4275.got.cif
#   From: 2010.05.17/outbox.cif.g08.bks.cpg/sg179_3_cif.got.tgz:4275.got - 2010.05.20 11:37:33.
