data_PCOD9583315
_publ_section_title
;
Structure prediction by ZEFSAII (Michael W. Deem and Ramdas Pophale) SiO2 
 PCOD9583315
Probable space group: P 65 2 2
;
_chemical_formula_sum "Si O2"
_cell_formula_units_Z 84
_cell_length_a 19.989001
_cell_length_b 19.989001
_cell_length_c 11.942831
_cell_angle_alpha 90.000000
_cell_angle_beta 90.000000
_cell_angle_gamma 120.000000
_cell_volume 4132.568851
_symmetry_space_group_name_H-M "P 65 2 2"
_symmetry_group_IT_number 179
_symmetry_cell_setting 'hexagonal'
loop_
_space_group_symop_operation_xyz
x,y,z
x-y,x,5/6+z
-y,x-y,2/3+z
-x,-y,1/2+z
-x+y,-x,1/3+z
y,-x+y,1/6+z
x-y,-y,-z
-x,-x+y,1/3-z
y,x,2/3-z
-y,-x,1/6-z
-x+y,y,1/2-z
x,x-y,5/6-z
loop_
_atom_site_type_symbol
_atom_site_label
_atom_site_fract_x
_atom_site_fract_y
_atom_site_fract_z
Si Si1 0.601154 0.195346 0.552514
Si Si2 0.359021 0.425372 0.760711
Si Si3 0.252173 0.688066 0.332376
Si Si4 0.724303 0.653935 0.052762
Si Si5 0.344889 0.433763 0.329198
Si Si6 0.696467 0.912907 0.844082
Si Si7 0.151570 0.384794 0.553241
O O1 0.626286 0.136546 0.601600
O O2 0.579517 0.243622 0.634478
O O3 0.663091 0.250350 0.462246
O O4 0.523398 0.143833 0.481046
O O5 0.428065 0.428065 0.833334
O O6 0.341332 0.375689 0.647931
O O7 0.288210 0.385479 0.848675
O O8 0.233511 0.616756 0.416667
O O9 0.192923 0.721046 0.331478
O O10 0.790228 0.640628 0.105228
O O11 0.694979 0.594937 0.949494
O O12 0.744038 0.737289 0.002877
O O13 0.410231 0.410231 0.333334
O O14 0.280095 0.381196 0.240155
O O15 0.724818 0.862409 0.916667
O O16 0.673488 0.883553 0.717857
#
# Coordination Sequence:
#
# PCOD9583315 Si02
#       7
#    12  12  12  12  12  12  12
#     4  11  23  40  58  80 117 153 216 270 324 383
#     4  11  24  41  60  86 119 165 208 260 321 373
#     4  11  23  38  61  83 114 163 218 272 324 373
#     4  11  22  38  62  88 120 159 201 248 314 378
#     4  10  21  38  60  86 112 156 200 258 322 375
#     4  11  20  36  65  90 123 152 197 250 311 382
#     4  11  22  41  63  88 121 167 205 256 313 376
#
# _framework density 20.326340999999999
#
# number of rings (size 3 to 8) (size 9 to 14) (size 15 to 20)
#    0.000    1.143    4.286    2.143    0.000    4.000 
#    0.000    0.000    0.000    0.000    0.000    0.000 
#    0.000    0.000    9.714    0.000    0.000    0.000 
#
# Total GULP energy -468950.603948 kJ/mol
# GULP energy per Si atom -5582.745285 kJ/mol
# Density = 2.028008 g / cm^3
# Si number density = 20.326341 Si / 1000 Ang^3
#
#
#
# Elastic Constant Matrix: (Units=GPa)
#
#
# Indices 1 2 3 4 5 6 
#
# 1 57.9492 14.2524 2.3724 0.0000 0.0000 0.0000
# 2 14.2524 57.9492 2.3724 0.0000 0.0000 0.0000
# 3 2.3724 2.3724 66.5834 0.0000 0.0000 0.0000
# 4 0.0000 0.0000 0.0000 29.3257 0.0000 0.0000
# 5 0.0000 0.0000 0.0000 0.0000 29.3257 0.0000
# 6 0.0000 0.0000 0.0000 0.0000 0.0000 21.8484
#
#
#
# Elastic Compliance Matrix: (Units=1/GPa)
#
#
# Indices 1 2 3 4 5 6 
#
# 1 0.018384 -0.004501 -0.000495 0.000000 0.000000 0.000000
# 2 -0.004501 0.018384 -0.000495 0.000000 0.000000 0.000000
# 3 -0.000495 -0.000495 0.015054 0.000000 0.000000 0.000000
# 4 0.000000 0.000000 0.000000 0.034100 0.000000 0.000000
# 5 0.000000 0.000000 0.000000 0.000000 0.034100 0.000000
# 6 0.000000 0.000000 0.000000 0.000000 0.000000 0.045770
#
#
# Mechanical properties :
#
#
# Convention : Reuss Voigt Hill
#
# Bulk Modulus (GPa) = 24.48541 24.49736 24.49138
# Shear Modulus (GPa) = 26.26248 26.99892 26.63070
#
# Velocity S-wave (km/s) = 3.59840 3.64850 3.62354
# Velocity P-wave (km/s) = 5.41636 5.46140 5.43893
#
# Compressibility (1/GPa) = 0.04084065
#
# Stress axis : x y z
#
# Youngs Moduli (GPa) = 54.39573 54.39573 66.42746
#
# Poissons Ratio (x) = 0.24485 0.03286
# Poissons Ratio (y) = 0.24485 0.03286
# Poissons Ratio (z) = 0.02691 0.02691
#
# Static dielectric constant tensor:
#      x y z
#    x 1.804170 0.000000 0.000000 
#    y 0.000000 1.804170 0.000000 
#    z 0.000000 0.000000 1.811220 
# 
# From -- ./inp_files/4926.got.cif
#   From: 2010.05.17/outbox.cif.g08.bks.cpg/sg179_3_cif.got.tgz:4926.got - 2010.05.20 11:37:33.
