data_PCOD9583927
_publ_section_title
;
Structure prediction by ZEFSAII (Michael W. Deem and Ramdas Pophale) SiO2 
 PCOD9583927
Probable space group: P 62 2 2
;
_chemical_formula_sum "Si O2"
_cell_formula_units_Z 42
_cell_length_a 7.979116
_cell_length_b 7.979116
_cell_length_c 34.543139
_cell_angle_alpha 90.000000
_cell_angle_beta 90.000000
_cell_angle_gamma 120.000000
_cell_volume 1904.592148
_symmetry_space_group_name_H-M "P 62 2 2"
_symmetry_group_IT_number 180
_symmetry_cell_setting 'hexagonal'
loop_
_space_group_symop_operation_xyz
x,y,z
x-y,x,1/3+z
-y,x-y,2/3+z
-x,-y,z
-x+y,-x,1/3+z
y,-x+y,2/3+z
x-y,-y,-z
-x,-x+y,1/3-z
y,x,2/3-z
-y,-x,2/3-z
-x+y,y,-z
x,x-y,1/3-z
loop_
_atom_site_type_symbol
_atom_site_label
_atom_site_fract_x
_atom_site_fract_y
_atom_site_fract_z
Si Si1 0.000000 0.500000 0.666667
Si Si2 0.000000 0.000000 0.833334
Si Si3 0.772278 0.084953 0.931603
Si Si4 0.813948 0.739241 0.905971
Si Si5 0.621438 0.234942 0.791445
O O1 0.894168 0.571171 0.637056
O O2 0.920145 0.825586 0.864171
O O3 0.715903 0.183739 0.897549
O O4 0.005002 0.202076 0.934387
O O5 0.720310 0.867366 0.919524
O O6 0.703476 0.511746 0.899452
O O7 0.670080 0.329921 0.833334
O O8 0.500000 0.000000 0.794423
#
# Coordination Sequence:
#
# PCOD9583927 Si02
#       5
#     3   3  12  12  12
#     4  12  24  42  68  84 132 188 228 288 340 406
#     4   8  16  32  62  90 132 176 204 276 334 436
#     4   9  22  40  62  93 129 174 231 282 340 402
#     4   9  20  38  63  93 135 176 229 273 353 411
#     4  10  22  37  68 102 139 178 218 285 347 423
#
# _framework density 22.051966
#
# number of rings (size 3 to 8) (size 9 to 14) (size 15 to 20)
#    0.000    2.857    0.000    0.000   20.000    2.286 
#    0.000   13.571    0.000    0.000    0.000    0.000 
#    0.000    0.000    0.000    0.000    0.000    0.000 
#
# Total GULP energy -234191.421052 kJ/mol
# GULP energy per Si atom -5575.986216 kJ/mol
# Density = 2.200177 g / cm^3
# Si number density = 22.051966 Si / 1000 Ang^3
#
#
#
# Elastic Constant Matrix: (Units=GPa)
#
#
# Indices 1 2 3 4 5 6 
#
# 1 105.6131 62.6857 37.6161 0.0000 0.0000 0.0000
# 2 62.6857 105.6131 37.6161 0.0000 0.0000 0.0000
# 3 37.6161 37.6161 101.5315 0.0000 0.0000 0.0000
# 4 0.0000 0.0000 0.0000 11.6629 0.0000 0.0000
# 5 0.0000 0.0000 0.0000 0.0000 11.6629 0.0000
# 6 0.0000 0.0000 0.0000 0.0000 0.0000 21.4637
#
#
#
# Elastic Compliance Matrix: (Units=1/GPa)
#
#
# Indices 1 2 3 4 5 6 
#
# 1 0.015208 -0.008087 -0.002638 0.000000 0.000000 0.000000
# 2 -0.008087 0.015208 -0.002638 0.000000 0.000000 0.000000
# 3 -0.002638 -0.002638 0.011804 0.000000 0.000000 0.000000
# 4 0.000000 0.000000 0.000000 0.085742 0.000000 0.000000
# 5 0.000000 0.000000 0.000000 0.000000 0.085742 0.000000
# 6 0.000000 0.000000 0.000000 0.000000 0.000000 0.046590
#
#
# Mechanical properties :
#
#
# Convention : Reuss Voigt Hill
#
# Bulk Modulus (GPa) = 64.54437 65.39926 64.97182
# Shear Modulus (GPa) = 17.11241 20.61389 18.86315
#
# Velocity S-wave (km/s) = 2.78871 3.06075 2.92789
# Velocity P-wave (km/s) = 6.30095 6.49709 6.39977
#
# Compressibility (1/GPa) = 0.01549322
#
# Stress axis : x y z
#
# Youngs Moduli (GPa) = 65.75413 65.75413 84.71648
#
# Poissons Ratio (x) = 0.53175 0.22351
# Poissons Ratio (y) = 0.53175 0.22351
# Poissons Ratio (z) = 0.17348 0.17348
#
# Static dielectric constant tensor:
#      x y z
#    x 1.902170 0.000000 0.000000 
#    y 0.000000 1.902170 0.000000 
#    z 0.000000 0.000000 1.809990 
# 
# From -- ./inp_files/12055.got.cif
#   From: 2010.05.17/outbox.cif.g08.bks.cpg/sg180_7_cif.got.tgz:12055.got - 2010.05.20 11:43:55.
