data_PCOD9583757
_publ_section_title
;
Structure prediction by ZEFSAII (Michael W. Deem and Ramdas Pophale) SiO2 
 PCOD9583757
Probable space group: P 62 2 2
;
_chemical_formula_sum "Si O2"
_cell_formula_units_Z 72
_cell_length_a 14.034258
_cell_length_b 14.034258
_cell_length_c 19.770074
_cell_angle_alpha 90.000000
_cell_angle_beta 90.000000
_cell_angle_gamma 120.000000
_cell_volume 3372.235057
_symmetry_space_group_name_H-M "P 62 2 2"
_symmetry_group_IT_number 180
_symmetry_cell_setting 'hexagonal'
loop_
_space_group_symop_operation_xyz
x,y,z
x-y,x,1/3+z
-y,x-y,2/3+z
-x,-y,z
-x+y,-x,1/3+z
y,-x+y,2/3+z
x-y,-y,-z
-x,-x+y,1/3-z
y,x,2/3-z
-y,-x,2/3-z
-x+y,y,-z
x,x-y,1/3-z
loop_
_atom_site_type_symbol
_atom_site_label
_atom_site_fract_x
_atom_site_fract_y
_atom_site_fract_z
Si Si1 0.275722 0.137861 0.666667
Si Si2 0.062712 0.627663 0.476628
Si Si3 0.052292 0.350453 0.599127
Si Si4 0.721146 0.533669 0.893875
Si Si5 0.412397 0.824794 0.000000
Si Si6 0.815689 0.494215 0.260378
Si Si7 0.756202 0.679267 0.625810
O O1 0.357112 0.144469 0.605439
O O2 0.207328 0.196979 0.647389
O O3 0.040538 0.680790 0.543011
O O4 0.995768 0.644156 0.417570
O O5 0.000000 0.500000 0.490868
O O6 0.188186 0.683166 0.452037
O O7 0.103647 0.477107 0.623472
O O8 0.154107 0.333543 0.582766
O O9 0.000000 0.281284 0.666667
O O10 0.609149 0.445801 0.930330
O O11 0.692477 0.541059 0.815774
O O12 0.313032 0.752276 0.051687
O O13 0.876943 0.593973 0.312170
#
# Coordination Sequence:
#
# PCOD9583757 Si02
#       7
#     6  12  12  12   6  12  12
#     4  10  23  42  59  83 118 157 209 265 314 372
#     4  11  22  35  58  90 125 165 205 250 312 372
#     4  11  21  38  60  87 121 162 208 260 315 372
#     4  10  22  37  58  85 124 162 206 252 305 381
#     4  10  20  34  58  87 126 161 206 253 307 372
#     4  10  21  37  58  89 122 167 205 250 310 376
#     4  10  24  39  61  86 121 161 208 266 312 377
#
# _framework density 21.350823999999999
#
# number of rings (size 3 to 8) (size 9 to 14) (size 15 to 20)
#    0.000    1.667    0.000    5.250    9.333    0.667 
#    0.000    2.083    0.000    0.000    0.000    4.667 
#    0.000    0.000    0.000    0.000    0.000    0.000 
#
# Total GULP energy -401922.959301 kJ/mol
# GULP energy per Si atom -5582.263324 kJ/mol
# Density = 2.130223 g / cm^3
# Si number density = 21.350824 Si / 1000 Ang^3
#
#
#
# Elastic Constant Matrix: (Units=GPa)
#
#
# Indices 1 2 3 4 5 6 
#
# 1 58.1428 26.1652 3.1566 0.0000 0.0000 0.0000
# 2 26.1652 58.1428 3.1566 0.0000 0.0000 0.0000
# 3 3.1566 3.1566 67.2149 0.0000 0.0000 0.0000
# 4 0.0000 0.0000 0.0000 17.5648 0.0000 0.0000
# 5 0.0000 0.0000 0.0000 0.0000 17.5648 0.0000
# 6 0.0000 0.0000 0.0000 0.0000 0.0000 15.9888
#
#
#
# Elastic Compliance Matrix: (Units=1/GPa)
#
#
# Indices 1 2 3 4 5 6 
#
# 1 0.021588 -0.009684 -0.000559 0.000000 0.000000 0.000000
# 2 -0.009684 0.021588 -0.000559 0.000000 0.000000 0.000000
# 3 -0.000559 -0.000559 0.014930 0.000000 0.000000 0.000000
# 4 0.000000 0.000000 0.000000 0.056932 0.000000 0.000000
# 5 0.000000 0.000000 0.000000 0.000000 0.056932 0.000000
# 6 0.000000 0.000000 0.000000 0.000000 0.000000 0.062544
#
#
# Mechanical properties :
#
#
# Convention : Reuss Voigt Hill
#
# Bulk Modulus (GPa) = 27.39697 27.60637 27.50167
# Shear Modulus (GPa) = 18.63692 20.29182 19.46437
#
# Velocity S-wave (km/s) = 2.95768 3.08620 3.02262
# Velocity P-wave (km/s) = 4.95212 5.06532 5.00904
#
# Compressibility (1/GPa) = 0.03650039
#
# Stress axis : x y z
#
# Youngs Moduli (GPa) = 46.32304 46.32304 66.97854
#
# Poissons Ratio (x) = 0.44861 0.03744
# Poissons Ratio (y) = 0.44861 0.03744
# Poissons Ratio (z) = 0.02589 0.02589
#
# Static dielectric constant tensor:
#      x y z
#    x 1.825820 0.000000 0.000000 
#    y 0.000000 1.825820 0.000000 
#    z 0.000000 0.000000 2.109250 
# 
# From -- ./inp_files/9211.got.cif
#   From: 2010.05.17/outbox.cif.g08.bks.cpg/sg180_5_cif.got.tgz:9211.got - 2010.05.20 11:43:55.
