data_PCOD9583097
_publ_section_title
;
Structure prediction by ZEFSAII (Michael W. Deem and Ramdas Pophale) SiO2 
 PCOD9583097
Probable space group: P 65 2 2
;
_chemical_formula_sum "Si O2"
_cell_formula_units_Z 78
_cell_length_a 16.072345
_cell_length_b 16.072345
_cell_length_c 18.610412
_cell_angle_alpha 90.000000
_cell_angle_beta 90.000000
_cell_angle_gamma 120.000000
_cell_volume 4163.370990
_symmetry_space_group_name_H-M "P 65 2 2"
_symmetry_group_IT_number 179
_symmetry_cell_setting 'hexagonal'
loop_
_space_group_symop_operation_xyz
x,y,z
x-y,x,5/6+z
-y,x-y,2/3+z
-x,-y,1/2+z
-x+y,-x,1/3+z
y,-x+y,1/6+z
x-y,-y,-z
-x,-x+y,1/3-z
y,x,2/3-z
-y,-x,1/6-z
-x+y,y,1/2-z
x,x-y,5/6-z
loop_
_atom_site_type_symbol
_atom_site_label
_atom_site_fract_x
_atom_site_fract_y
_atom_site_fract_z
Si Si1 0.497177 0.158119 0.618796
Si Si2 0.038235 0.727452 0.313732
Si Si3 0.469069 0.838776 0.679557
Si Si4 0.414125 0.833908 0.526036
Si Si5 0.704250 0.217877 0.656476
Si Si6 0.346542 0.238535 0.103866
Si Si7 0.000000 0.634210 0.166667
O O1 0.522024 0.266332 0.638303
O O2 0.499005 0.146557 0.532410
O O3 0.590482 0.152995 0.645308
O O4 0.400117 0.089530 0.662506
O O5 0.079256 0.656777 0.331987
O O6 0.130420 0.831254 0.299473
O O7 0.987118 0.685325 0.237076
O O8 0.975653 0.721059 0.382514
O O9 0.430630 0.861260 0.750000
O O10 0.404529 0.833531 0.611397
O O11 0.404630 0.731286 0.507983
O O12 0.526742 0.910904 0.511300
O O13 0.763864 0.236137 0.583334
O O14 0.741348 0.177336 0.718644
#
# Coordination Sequence:
#
# PCOD9583097 Si02
#       7
#    12  12  12  12  12  12   6
#     4  10  20  30  50  72  99 144 195 237 278 334
#     4  10  22  34  52  71 106 138 189 231 289 353
#     4  10  20  33  46  73 107 143 190 238 288 320
#     4  10  19  31  46  70 101 141 194 234 280 330
#     4  10  17  28  48  71  95 135 191 234 265 333
#     4  11  21  35  50  77 102 146 186 235 291 358
#     4  10  18  34  48  72 102 142 182 236 282 330
#
# _framework density 18.734817
#
# number of rings (size 3 to 8) (size 9 to 14) (size 15 to 20)
#    0.000    1.846    4.615    3.692    0.000    5.538 
#    0.000    0.000    0.000    0.000    0.000    0.000 
#    0.000    0.000    0.000   74.769    6.154    0.000 
#
# Total GULP energy -434810.697307 kJ/mol
# GULP energy per Si atom -5574.496119 kJ/mol
# Density = 1.869218 g / cm^3
# Si number density = 18.734817 Si / 1000 Ang^3
#
#
#
# Elastic Constant Matrix: (Units=GPa)
#
#
# Indices 1 2 3 4 5 6 
#
# 1 40.5238 26.8644 37.1386 0.0000 0.0000 0.0000
# 2 26.8644 40.5238 37.1386 0.0000 0.0000 0.0000
# 3 37.1386 37.1386 175.6891 0.0000 0.0000 0.0000
# 4 0.0000 0.0000 0.0000 28.5228 0.0000 0.0000
# 5 0.0000 0.0000 0.0000 0.0000 28.5228 0.0000
# 6 0.0000 0.0000 0.0000 0.0000 0.0000 6.8297
#
#
#
# Elastic Compliance Matrix: (Units=1/GPa)
#
#
# Indices 1 2 3 4 5 6 
#
# 1 0.046278 -0.026931 -0.004090 0.000000 0.000000 0.000000
# 2 -0.026931 0.046278 -0.004090 0.000000 0.000000 0.000000
# 3 -0.004090 -0.004090 0.007421 0.000000 0.000000 0.000000
# 4 0.000000 0.000000 0.000000 0.035060 0.000000 0.000000
# 5 0.000000 0.000000 0.000000 0.000000 0.035060 0.000000
# 6 0.000000 0.000000 0.000000 0.000000 0.000000 0.146419
#
#
# Mechanical properties :
#
#
# Convention : Reuss Voigt Hill
#
# Bulk Modulus (GPa) = 33.60630 51.00223 42.30426
# Shear Modulus (GPa) = 12.60539 23.14807 17.87673
#
# Velocity S-wave (km/s) = 2.59672 3.51887 3.09236
# Velocity P-wave (km/s) = 5.19301 6.61757 5.94810
#
# Compressibility (1/GPa) = 0.02975632
#
# Stress axis : x y z
#
# Youngs Moduli (GPa) = 21.60839 21.60839 134.75389
#
# Poissons Ratio (x) = 0.58194 0.55111
# Poissons Ratio (y) = 0.58194 0.55111
# Poissons Ratio (z) = 0.08837 0.08837
#
# Static dielectric constant tensor:
#      x y z
#    x 1.687610 0.000000 0.000000 
#    y 0.000000 1.687610 0.000000 
#    z 0.000000 0.000000 1.728800 
# 
# From -- ./inp_files/7002.got.cif
#   From: 2010.05.17/outbox.cif.g08.bks.cpg/sg179_4_cif.got.tgz:7002.got - 2010.05.20 11:37:33.
