data_PCOD9583960
_publ_section_title
;
Structure prediction by ZEFSAII (Michael W. Deem and Ramdas Pophale) SiO2 
 PCOD9583960
Probable space group: P 62 2 2
;
_chemical_formula_sum "Si O2"
_cell_formula_units_Z 66
_cell_length_a 18.816562
_cell_length_b 18.816562
_cell_length_c 8.870634
_cell_angle_alpha 90.000000
_cell_angle_beta 90.000000
_cell_angle_gamma 120.000000
_cell_volume 2719.980835
_symmetry_space_group_name_H-M "P 62 2 2"
_symmetry_group_IT_number 180
_symmetry_cell_setting 'hexagonal'
loop_
_space_group_symop_operation_xyz
x,y,z
x-y,x,1/3+z
-y,x-y,2/3+z
-x,-y,z
-x+y,-x,1/3+z
y,-x+y,2/3+z
x-y,-y,-z
-x,-x+y,1/3-z
y,x,2/3-z
-y,-x,2/3-z
-x+y,y,-z
x,x-y,1/3-z
loop_
_atom_site_type_symbol
_atom_site_label
_atom_site_fract_x
_atom_site_fract_y
_atom_site_fract_z
Si Si1 0.398445 0.089877 0.655958
Si Si2 0.844628 0.275554 0.652704
Si Si3 0.669948 0.463134 0.755560
Si Si4 0.944085 0.407706 0.897743
Si Si5 0.252560 0.126280 0.666667
Si Si6 0.152400 0.906296 0.997864
O O1 0.462367 0.155856 0.539965
O O2 0.311537 0.086813 0.651696
O O3 0.388675 0.000363 0.658487
O O4 0.432881 0.124041 0.821037
O O5 0.753734 0.261440 0.665336
O O6 0.907340 0.339549 0.770496
O O7 0.846524 0.190890 0.666181
O O8 0.625126 0.374875 0.833334
O O9 0.601882 0.467389 0.652879
O O10 0.000000 0.500000 0.844054
O O11 0.212829 0.110140 0.497214
O O12 0.108378 0.891623 0.833334
O O13 0.225912 0.000000 0.000000
#
# Coordination Sequence:
#
# PCOD9583960 Si02
#       6
#    12  12  12  12   6  12
#     4  11  21  42  64  95 137 177 238 303 367 443
#     4  11  24  43  68  97 144 187 240 309 378 440
#     4  12  23  43  67  99 139 188 238 302 376 452
#     4  12  25  40  68 101 132 179 249 310 370 436
#     4  10  22  42  68 102 145 194 234 306 375 436
#     4  11  23  43  70 112 152 193 240 299 374 453
#
# _framework density 24.264878
#
# number of rings (size 3 to 8) (size 9 to 14) (size 15 to 20)
#    0.000    0.727    5.455    4.909    0.000    2.182 
#    6.545    0.000    8.000    0.000    0.000    3.182 
#    0.000    0.000    0.000    0.000    0.000    0.000 
#
# Total GULP energy -369088.460826 kJ/mol
# GULP energy per Si atom -5592.249406 kJ/mol
# Density = 2.420965 g / cm^3
# Si number density = 24.264878 Si / 1000 Ang^3
#
#
#
# Elastic Constant Matrix: (Units=GPa)
#
#
# Indices 1 2 3 4 5 6 
#
# 1 76.4847 21.2881 16.6373 0.0000 0.0000 0.0000
# 2 21.2881 76.4847 16.6373 0.0000 0.0000 0.0000
# 3 16.6373 16.6373 182.6617 0.0000 0.0000 0.0000
# 4 0.0000 0.0000 0.0000 27.3282 0.0000 0.0000
# 5 0.0000 0.0000 0.0000 0.0000 27.3282 0.0000
# 6 0.0000 0.0000 0.0000 0.0000 0.0000 27.5983
#
#
#
# Elastic Compliance Matrix: (Units=1/GPa)
#
#
# Indices 1 2 3 4 5 6 
#
# 1 0.014336 -0.003781 -0.000961 0.000000 0.000000 0.000000
# 2 -0.003781 0.014336 -0.000961 0.000000 0.000000 0.000000
# 3 -0.000961 -0.000961 0.005650 0.000000 0.000000 0.000000
# 4 0.000000 0.000000 0.000000 0.036592 0.000000 0.000000
# 5 0.000000 0.000000 0.000000 0.000000 0.036592 0.000000
# 6 0.000000 0.000000 0.000000 0.000000 0.000000 0.036234
#
#
# Mechanical properties :
#
#
# Convention : Reuss Voigt Hill
#
# Bulk Modulus (GPa) = 43.64113 49.41742 46.52928
# Shear Modulus (GPa) = 30.71515 35.18881 32.95198
#
# Velocity S-wave (km/s) = 3.56171 3.81227 3.68912
# Velocity P-wave (km/s) = 5.91090 6.30777 6.11255
#
# Compressibility (1/GPa) = 0.02291416
#
# Stress axis : x y z
#
# Youngs Moduli (GPa) = 69.75439 69.75439 176.99959
#
# Poissons Ratio (x) = 0.26374 0.17016
# Poissons Ratio (y) = 0.26374 0.17016
# Poissons Ratio (z) = 0.06706 0.06706
#
# Static dielectric constant tensor:
#      x y z
#    x 1.941320 0.000000 0.000000 
#    y 0.000000 1.941320 0.000000 
#    z 0.000000 0.000000 2.009250 
# 
# From -- ./inp_files/3216.got.cif
#   From: 2010.05.17/outbox.cif.g08.bks.cpg/sg180_2_cif.got.tgz:3216.got - 2010.05.20 11:43:55.
