data_PCOD9583142
_publ_section_title
;
Structure prediction by ZEFSAII (Michael W. Deem and Ramdas Pophale) SiO2 
 PCOD9583142
Probable space group: P 65 2 2
;
_chemical_formula_sum "Si O2"
_cell_formula_units_Z 60
_cell_length_a 15.159897
_cell_length_b 15.159897
_cell_length_c 16.411804
_cell_angle_alpha 90.000000
_cell_angle_beta 90.000000
_cell_angle_gamma 120.000000
_cell_volume 3266.475872
_symmetry_space_group_name_H-M "P 65 2 2"
_symmetry_group_IT_number 179
_symmetry_cell_setting 'hexagonal'
loop_
_space_group_symop_operation_xyz
x,y,z
x-y,x,5/6+z
-y,x-y,2/3+z
-x,-y,1/2+z
-x+y,-x,1/3+z
y,-x+y,1/6+z
x-y,-y,-z
-x,-x+y,1/3-z
y,x,2/3-z
-y,-x,1/6-z
-x+y,y,1/2-z
x,x-y,5/6-z
loop_
_atom_site_type_symbol
_atom_site_label
_atom_site_fract_x
_atom_site_fract_y
_atom_site_fract_z
Si Si1 0.115226 0.230451 0.250000
Si Si2 0.408382 0.433327 0.926327
Si Si3 0.456212 0.912424 0.250000
Si Si4 0.426355 0.209342 0.727283
Si Si5 0.868829 0.743896 0.926094
Si Si6 0.200421 0.268954 0.686696
O O1 0.148310 0.292901 0.333068
O O2 0.170225 0.163676 0.239984
O O3 0.450483 0.450483 0.833334
O O4 0.330889 0.476458 0.939196
O O5 0.333158 0.311110 0.938309
O O6 0.487926 0.466685 0.001871
O O7 0.502430 0.839478 0.233139
O O8 0.351664 0.158039 0.650839
O O9 0.351379 0.166951 0.804854
O O10 0.984505 0.792558 0.957283
O O11 0.108384 0.216768 0.750000
#
# Coordination Sequence:
#
# PCOD9583142 Si02
#       6
#     6  12   6  12  12  12
#     4  10  20  36  46  75 126 175 196 230 274 368
#     4  10  20  38  63  90 120 154 197 251 317 374
#     4  10  24  40  62  93 124 157 206 262 314 370
#     4  10  20  40  62  86 116 156 199 259 309 365
#     4  10  20  35  52  79 120 165 202 234 294 354
#     4  10  18  33  58  89 112 147 194 253 300 351
#
# _framework density 18.36842
#
# number of rings (size 3 to 8) (size 9 to 14) (size 15 to 20)
#    0.000    2.000    4.000    0.000    0.000    0.000 
#   10.800    2.000    0.000    1.200    0.000    0.000 
#    0.000    0.000    0.000    0.000    0.000    0.000 
#
# Total GULP energy -334324.490151 kJ/mol
# GULP energy per Si atom -5572.074836 kJ/mol
# Density = 1.832661 g / cm^3
# Si number density = 18.368420 Si / 1000 Ang^3
#
#
#
# Elastic Constant Matrix: (Units=GPa)
#
#
# Indices 1 2 3 4 5 6 
#
# 1 73.2220 40.1804 46.8675 0.0000 0.0000 0.0000
# 2 40.1804 73.2220 46.8675 0.0000 0.0000 0.0000
# 3 46.8675 46.8675 134.7373 0.0000 0.0000 0.0000
# 4 0.0000 0.0000 0.0000 25.8815 0.0000 0.0000
# 5 0.0000 0.0000 0.0000 0.0000 25.8815 0.0000
# 6 0.0000 0.0000 0.0000 0.0000 0.0000 16.5208
#
#
#
# Elastic Compliance Matrix: (Units=1/GPa)
#
#
# Indices 1 2 3 4 5 6 
#
# 1 0.021321 -0.008944 -0.004305 0.000000 0.000000 0.000000
# 2 -0.008944 0.021321 -0.004305 0.000000 0.000000 0.000000
# 3 -0.004305 -0.004305 0.010417 0.000000 0.000000 0.000000
# 4 0.000000 0.000000 0.000000 0.038638 0.000000 0.000000
# 5 0.000000 0.000000 0.000000 0.000000 0.038638 0.000000
# 6 0.000000 0.000000 0.000000 0.000000 0.000000 0.060530
#
#
# Mechanical properties :
#
#
# Convention : Reuss Voigt Hill
#
# Bulk Modulus (GPa) = 55.71145 61.00136 58.35641
# Shear Modulus (GPa) = 21.55586 23.47449 22.51518
#
# Velocity S-wave (km/s) = 3.42940 3.57876 3.50488
# Velocity P-wave (km/s) = 6.78799 7.09639 6.94390
#
# Compressibility (1/GPa) = 0.01794963
#
# Stress axis : x y z
#
# Youngs Moduli (GPa) = 46.90259 46.90259 95.99798
#
# Poissons Ratio (x) = 0.41950 0.41329
# Poissons Ratio (y) = 0.41950 0.41329
# Poissons Ratio (z) = 0.20192 0.20192
#
# Static dielectric constant tensor:
#      x y z
#    x 1.632230 0.000000 0.000000 
#    y 0.000000 1.632230 0.000000 
#    z 0.000000 0.000000 1.689010 
# 
# From -- ./inp_files/5833.got.cif
#   From: 2010.05.17/outbox.cif.g08.bks.cpg/sg179_3_cif.got.tgz:5833.got - 2010.05.20 11:37:33.
