data_PCOD9583713
_publ_section_title
;
Structure prediction by ZEFSAII (Michael W. Deem and Ramdas Pophale) SiO2 
 PCOD9583713
Probable space group: P 62 2 2
;
_chemical_formula_sum "Si O2"
_cell_formula_units_Z 36
_cell_length_a 8.093866
_cell_length_b 8.093866
_cell_length_c 26.783551
_cell_angle_alpha 90.000000
_cell_angle_beta 90.000000
_cell_angle_gamma 120.000000
_cell_volume 1519.535349
_symmetry_space_group_name_H-M "P 62 2 2"
_symmetry_group_IT_number 180
_symmetry_cell_setting 'hexagonal'
loop_
_space_group_symop_operation_xyz
x,y,z
x-y,x,1/3+z
-y,x-y,2/3+z
-x,-y,z
-x+y,-x,1/3+z
y,-x+y,2/3+z
x-y,-y,-z
-x,-x+y,1/3-z
y,x,2/3-z
-y,-x,2/3-z
-x+y,y,-z
x,x-y,1/3-z
loop_
_atom_site_type_symbol
_atom_site_label
_atom_site_fract_x
_atom_site_fract_y
_atom_site_fract_z
Si Si1 0.788362 0.041989 0.441866
Si Si2 0.600190 0.230332 0.222144
Si Si3 0.942391 0.731892 0.609338
O O1 0.698833 0.177789 0.436449
O O2 0.993378 0.159145 0.413236
O O3 0.801612 0.000000 0.500000
O O4 0.687834 0.832092 0.418838
O O5 0.571653 0.285827 0.166667
O O6 0.485930 0.284316 0.261761
O O7 0.500000 0.000000 0.222655
O O8 0.000000 0.775167 0.666667
#
# Coordination Sequence:
#
# PCOD9583713 Si02
#       3
#    12  12  12
#     4  10  19  35  66 102 130 183 251 306 363 452
#     4  10  21  39  69  98 140 182 246 315 366 446
#     4  10  19  36  68  99 136 196 238 290 388 466
#
# _framework density 23.691455000000001
#
# number of rings (size 3 to 8) (size 9 to 14) (size 15 to 20)
#    0.000    2.000    0.000    8.000    0.000    0.667 
#    0.000    0.000   80.667    4.000    0.000    0.000 
#    0.000    0.000    0.000    0.000    0.000    0.000 
#
# Total GULP energy -201089.233594 kJ/mol
# GULP energy per Si atom -5585.812044 kJ/mol
# Density = 2.363753 g / cm^3
# Si number density = 23.691455 Si / 1000 Ang^3
#
#
#
# Elastic Constant Matrix: (Units=GPa)
#
#
# Indices 1 2 3 4 5 6 
#
# 1 148.9783 71.3894 67.0568 0.0000 0.0000 0.0000
# 2 71.3894 148.9783 67.0568 0.0000 0.0000 0.0000
# 3 67.0568 67.0568 214.6047 0.0000 0.0000 0.0000
# 4 0.0000 0.0000 0.0000 -28.2862 0.0000 0.0000
# 5 0.0000 0.0000 0.0000 0.0000 -28.2862 0.0000
# 6 0.0000 0.0000 0.0000 0.0000 0.0000 38.7945
#
#
#
# Elastic Compliance Matrix: (Units=1/GPa)
#
#
# Indices 1 2 3 4 5 6 
#
# 1 0.009246 -0.003642 -0.001751 0.000000 0.000000 0.000000
# 2 -0.003642 0.009246 -0.001751 0.000000 0.000000 0.000000
# 3 -0.001751 -0.001751 0.005754 0.000000 0.000000 0.000000
# 4 0.000000 0.000000 0.000000 -0.035353 0.000000 0.000000
# 5 0.000000 0.000000 0.000000 0.000000 -0.035353 0.000000
# 6 0.000000 0.000000 0.000000 0.000000 0.000000 0.025777
#
#
# Mechanical properties :
#
#
# Convention : Reuss Voigt Hill
#
# Bulk Modulus (GPa) = 100.42936 102.61862 101.52399
# Shear Modulus (GPa) = -1625.66373 16.91498 -804.37437
#
# Velocity S-wave (km/s) = -26.22348 2.67492 -18.44608
# Velocity P-wave (km/s) = 29.57046 7.27660 20.26652
#
# Compressibility (1/GPa) = 0.00995725
#
# Stress axis : x y z
#
# Youngs Moduli (GPa) = 108.15557 108.15557 173.79456
#
# Poissons Ratio (x) = 0.39396 0.30430
# Poissons Ratio (y) = 0.39396 0.30430
# Poissons Ratio (z) = 0.18937 0.18937
#
# Static dielectric constant tensor:
#      x y z
#    x 1.977210 0.000000 0.000000 
#    y 0.000000 1.977210 0.000000 
#    z 0.000000 0.000000 2.028120 
# 
# From -- ./inp_files/10786.got.cif
#   From: 2010.05.17/outbox.cif.g08.bks.cpg/sg180_6_cif.got.tgz:10786.got - 2010.05.20 11:43:55.
