data_PCOD9583540
_publ_section_title
;
Structure prediction by ZEFSAII (Michael W. Deem and Ramdas Pophale) SiO2 
 PCOD9583540
Probable space group: P 65 2 2
;
_chemical_formula_sum "Si O2"
_cell_formula_units_Z 36
_cell_length_a 11.255395
_cell_length_b 11.255395
_cell_length_c 12.801739
_cell_angle_alpha 90.000000
_cell_angle_beta 90.000000
_cell_angle_gamma 120.000000
_cell_volume 1404.497861
_symmetry_space_group_name_H-M "P 65 2 2"
_symmetry_group_IT_number 179
_symmetry_cell_setting 'hexagonal'
loop_
_space_group_symop_operation_xyz
x,y,z
x-y,x,5/6+z
-y,x-y,2/3+z
-x,-y,1/2+z
-x+y,-x,1/3+z
y,-x+y,1/6+z
x-y,-y,-z
-x,-x+y,1/3-z
y,x,2/3-z
-y,-x,1/6-z
-x+y,y,1/2-z
x,x-y,5/6-z
loop_
_atom_site_type_symbol
_atom_site_label
_atom_site_fract_x
_atom_site_fract_y
_atom_site_fract_z
Si Si1 0.194117 0.214963 0.564651
Si Si2 0.243221 0.748772 0.963104
Si Si3 0.903483 0.532048 0.767043
O O1 0.176085 0.089319 0.635461
O O2 0.190406 0.332755 0.631189
O O3 0.347252 0.305735 0.517195
O O4 0.192069 0.596035 0.916667
O O5 0.373101 0.862631 0.895262
O O6 0.270824 0.729177 0.083334
O O7 0.752875 0.505750 0.750000
O O8 0.000000 0.592697 0.666667
#
# Coordination Sequence:
#
# PCOD9583540 Si02
#       3
#    12  12  12
#     4  12  29  52  86 122 171 226 280 346 418 507
#     4  11  28  50  82 124 164 212 277 350 421 491
#     4  11  23  47  81 117 162 217 272 335 416 505
#
# _framework density 25.631936
#
# number of rings (size 3 to 8) (size 9 to 14) (size 15 to 20)
#    0.000    0.667    3.333    2.000   14.000    0.000 
#    0.000    8.333    0.000    0.000    0.000    0.000 
#    0.000    0.000    0.000    0.000    0.000    0.000 
#
# Total GULP energy -201130.998055 kJ/mol
# GULP energy per Si atom -5586.972168 kJ/mol
# Density = 2.557360 g / cm^3
# Si number density = 25.631936 Si / 1000 Ang^3
#
#
#
# Elastic Constant Matrix: (Units=GPa)
#
#
# Indices 1 2 3 4 5 6 
#
# 1 72.1268 83.9778 61.8228 0.0000 0.0000 0.0000
# 2 83.9778 72.1268 61.8228 0.0000 0.0000 0.0000
# 3 61.8228 61.8228 113.8242 0.0000 0.0000 0.0000
# 4 0.0000 0.0000 0.0000 42.3445 0.0000 0.0000
# 5 0.0000 0.0000 0.0000 0.0000 42.3445 0.0000
# 6 0.0000 0.0000 0.0000 0.0000 0.0000 -5.9255
#
#
#
# Elastic Compliance Matrix: (Units=1/GPa)
#
#
# Indices 1 2 3 4 5 6 
#
# 1 -0.036569 0.047812 -0.006106 0.000000 0.000000 0.000000
# 2 0.047812 -0.036569 -0.006106 0.000000 0.000000 0.000000
# 3 -0.006106 -0.006106 0.015419 0.000000 0.000000 0.000000
# 4 0.000000 0.000000 0.000000 0.023616 0.000000 0.000000
# 5 0.000000 0.000000 0.000000 0.000000 0.023616 0.000000
# 6 0.000000 0.000000 0.000000 0.000000 0.000000 -0.168763
#
#
# Mechanical properties :
#
#
# Convention : Reuss Voigt Hill
#
# Bulk Modulus (GPa) = 74.19193 74.81385 74.50289
# Shear Modulus (GPa) = -20.32872 19.11635 -0.60618
#
# Velocity S-wave (km/s) = -2.81926 2.73390 -0.48684
# Velocity P-wave (km/s) = 4.29072 6.26233 5.36782
#
# Compressibility (1/GPa) = 0.01347855
#
# Stress axis : x y z
#
# Youngs Moduli (GPa) = -27.34524 -27.34524 64.85628
#
# Poissons Ratio (x) = 1.30743 0.39603
# Poissons Ratio (y) = 1.30743 0.39603
# Poissons Ratio (z) = -0.16698 -0.16698
#
# Static dielectric constant tensor:
#      x y z
#    x 2.202830 0.000000 0.000000 
#    y 0.000000 2.202830 0.000000 
#    z 0.000000 0.000000 2.036410 
# 
# From -- ./inp_files/5273.got.cif
#   From: 2010.05.17/outbox.cif.g08.bks.cpg/sg179_3_cif.got.tgz:5273.got - 2010.05.20 11:37:33.
