data_PCOD9583271
_publ_section_title
;
Structure prediction by ZEFSAII (Michael W. Deem and Ramdas Pophale) SiO2 
 PCOD9583271
Probable space group: P 65 2 2
;
_chemical_formula_sum "Si O2"
_cell_formula_units_Z 36
_cell_length_a 21.409724
_cell_length_b 21.409724
_cell_length_c 5.025016
_cell_angle_alpha 90.000000
_cell_angle_beta 90.000000
_cell_angle_gamma 120.000000
_cell_volume 1994.758012
_symmetry_space_group_name_H-M "P 65 2 2"
_symmetry_group_IT_number 179
_symmetry_cell_setting 'hexagonal'
loop_
_space_group_symop_operation_xyz
x,y,z
x-y,x,5/6+z
-y,x-y,2/3+z
-x,-y,1/2+z
-x+y,-x,1/3+z
y,-x+y,1/6+z
x-y,-y,-z
-x,-x+y,1/3-z
y,x,2/3-z
-y,-x,1/6-z
-x+y,y,1/2-z
x,x-y,5/6-z
loop_
_atom_site_type_symbol
_atom_site_label
_atom_site_fract_x
_atom_site_fract_y
_atom_site_fract_z
Si Si1 0.121399 0.603396 0.163582
Si Si2 0.247947 0.752054 0.083334
Si Si3 0.311246 0.356843 0.067454
Si Si4 0.803643 0.607285 0.750000
O O1 0.116075 0.558038 0.416667
O O2 0.204194 0.666797 0.125635
O O3 0.078142 0.644503 0.244296
O O4 0.096651 0.548326 0.916667
O O5 0.236473 0.791556 0.335313
O O6 0.350576 0.350576 0.333334
O O7 0.237161 0.350288 0.170058
O O8 0.301676 0.301676 0.833334
#
# Coordination Sequence:
#
# PCOD9583271 Si02
#       4
#    12   6  12   6
#     4  11  22  37  54  74 105 136 178 239 283 323
#     4  10  20  38  54  66  98 142 178 217 286 339
#     4  11  22  37  58  81 105 141 179 214 276 341
#     4  10  20  38  58  74 104 138 170 217 258 323
#
# _framework density 18.047301999999998
#
# number of rings (size 3 to 8) (size 9 to 14) (size 15 to 20)
#    0.000    1.333    0.000   10.000    0.000    2.667 
#    3.000    3.333    0.000    0.000    0.000    0.000 
#    0.000    0.000    0.000    3.000    0.000   13.667 
#
# Total GULP energy -200913.980237 kJ/mol
# GULP energy per Si atom -5580.943895 kJ/mol
# Density = 1.800623 g / cm^3
# Si number density = 18.047302 Si / 1000 Ang^3
#
#
#
# Elastic Constant Matrix: (Units=GPa)
#
#
# Indices 1 2 3 4 5 6 
#
# 1 77.3302 27.7535 36.2872 0.0000 0.0000 0.0000
# 2 27.7535 77.3302 36.2872 0.0000 0.0000 0.0000
# 3 36.2872 36.2872 165.0527 0.0000 0.0000 0.0000
# 4 0.0000 0.0000 0.0000 33.0829 0.0000 0.0000
# 5 0.0000 0.0000 0.0000 0.0000 33.0829 0.0000
# 6 0.0000 0.0000 0.0000 0.0000 0.0000 24.7883
#
#
#
# Elastic Compliance Matrix: (Units=1/GPa)
#
#
# Indices 1 2 3 4 5 6 
#
# 1 0.015695 -0.004475 -0.002467 0.000000 0.000000 0.000000
# 2 -0.004475 0.015695 -0.002467 0.000000 0.000000 0.000000
# 3 -0.002467 -0.002467 0.007143 0.000000 0.000000 0.000000
# 4 0.000000 0.000000 0.000000 0.030227 0.000000 0.000000
# 5 0.000000 0.000000 0.000000 0.000000 0.030227 0.000000
# 6 0.000000 0.000000 0.000000 0.000000 0.000000 0.040342
#
#
# Mechanical properties :
#
#
# Convention : Reuss Voigt Hill
#
# Bulk Modulus (GPa) = 50.71993 57.81877 54.26935
# Shear Modulus (GPa) = 30.35463 32.81650 31.58557
#
# Velocity S-wave (km/s) = 4.10561 4.26885 4.18802
# Velocity P-wave (km/s) = 7.11615 7.51028 7.31587
#
# Compressibility (1/GPa) = 0.01971611
#
# Stress axis : x y z
#
# Youngs Moduli (GPa) = 63.71332 63.71332 139.99150
#
# Poissons Ratio (x) = 0.28515 0.34532
# Poissons Ratio (y) = 0.28515 0.34532
# Poissons Ratio (z) = 0.15716 0.15716
#
# Static dielectric constant tensor:
#      x y z
#    x 1.618930 0.000000 0.000000 
#    y 0.000000 1.618930 0.000000 
#    z 0.000000 0.000000 1.621270 
# 
# From -- ./inp_files/636.got.cif
#   From: 2010.05.17/outbox.cif.g08.bks.cpg/sg179_1_cif.got.tgz:636.got - 2010.05.20 11:37:33.
