data_PCOD9583293
_publ_section_title
;
Structure prediction by ZEFSAII (Michael W. Deem and Ramdas Pophale) SiO2 
 PCOD9583293
Probable space group: P 65 2 2
;
_chemical_formula_sum "Si O2"
_cell_formula_units_Z 60
_cell_length_a 16.273676
_cell_length_b 16.273676
_cell_length_c 10.883075
_cell_angle_alpha 90.000000
_cell_angle_beta 90.000000
_cell_angle_gamma 120.000000
_cell_volume 2496.051744
_symmetry_space_group_name_H-M "P 65 2 2"
_symmetry_group_IT_number 179
_symmetry_cell_setting 'hexagonal'
loop_
_space_group_symop_operation_xyz
x,y,z
x-y,x,5/6+z
-y,x-y,2/3+z
-x,-y,1/2+z
-x+y,-x,1/3+z
y,-x+y,1/6+z
x-y,-y,-z
-x,-x+y,1/3-z
y,x,2/3-z
-y,-x,1/6-z
-x+y,y,1/2-z
x,x-y,5/6-z
loop_
_atom_site_type_symbol
_atom_site_label
_atom_site_fract_x
_atom_site_fract_y
_atom_site_fract_z
Si Si1 0.789729 0.650206 0.368645
Si Si2 0.601983 0.398018 0.583334
Si Si3 0.843787 0.156214 0.083334
Si Si4 0.827694 0.538816 0.572817
Si Si5 0.142637 0.181010 0.023527
Si Si6 0.109330 0.590236 0.159304
O O1 0.851144 0.702288 0.250000
O O2 0.836938 0.607205 0.460816
O O3 0.775561 0.725992 0.448136
O O4 0.700286 0.556189 0.315271
O O5 0.716369 0.458797 0.588291
O O6 0.577721 0.430260 0.456707
O O7 0.869422 0.257524 0.144944
O O8 0.858202 0.099117 0.192146
O O9 0.872239 0.471711 0.561347
O O10 0.148074 0.094530 0.093523
O O11 0.000000 0.545985 0.166667
#
# Coordination Sequence:
#
# PCOD9583293 Si02
#       6
#    12   6   6  12  12  12
#     4  10  26  45  68 104 151 199 242 308 387 444
#     4  10  20  42  62  95 144 185 252 306 362 430
#     4  10  20  44  74 113 150 191 244 308 384 436
#     4  10  21  42  68 101 144 205 245 307 366 443
#     4  11  26  49  85 110 146 191 245 318 392 479
#     4  11  24  39  67 104 141 186 254 307 364 449
#
# _framework density 24.037963999999999
#
# number of rings (size 3 to 8) (size 9 to 14) (size 15 to 20)
#    0.000    1.600    2.000    0.600    4.200    5.600 
#    0.000    0.000   19.800    0.000    0.000    0.000 
#    0.000    0.000    0.000    0.000    0.000    0.000 
#
# Total GULP energy -334113.413850 kJ/mol
# GULP energy per Si atom -5568.556897 kJ/mol
# Density = 2.398325 g / cm^3
# Si number density = 24.037964 Si / 1000 Ang^3
#
#
#
# Elastic Constant Matrix: (Units=GPa)
#
#
# Indices 1 2 3 4 5 6 
#
# 1 83.1141 24.9854 51.3814 0.0000 0.0000 0.0000
# 2 24.9854 83.1141 51.3814 0.0000 0.0000 0.0000
# 3 51.3814 51.3814 107.9286 0.0000 0.0000 0.0000
# 4 0.0000 0.0000 0.0000 49.1245 0.0000 0.0000
# 5 0.0000 0.0000 0.0000 0.0000 49.1245 0.0000
# 6 0.0000 0.0000 0.0000 0.0000 0.0000 29.0644
#
#
#
# Elastic Compliance Matrix: (Units=1/GPa)
#
#
# Indices 1 2 3 4 5 6 
#
# 1 0.017051 -0.000152 -0.008045 0.000000 0.000000 0.000000
# 2 -0.000152 0.017051 -0.008045 0.000000 0.000000 0.000000
# 3 -0.008045 -0.008045 0.016925 0.000000 0.000000 0.000000
# 4 0.000000 0.000000 0.000000 0.020356 0.000000 0.000000
# 5 0.000000 0.000000 0.000000 0.000000 0.020356 0.000000
# 6 0.000000 0.000000 0.000000 0.000000 0.000000 0.034406
#
#
# Mechanical properties :
#
#
# Convention : Reuss Voigt Hill
#
# Bulk Modulus (GPa) = 53.92949 58.85036 56.38992
# Shear Modulus (GPa) = 30.33780 35.22323 32.78051
#
# Velocity S-wave (km/s) = 3.55643 3.83210 3.69683
# Velocity P-wave (km/s) = 6.27280 6.64194 6.46001
#
# Compressibility (1/GPa) = 0.01854273
#
# Stress axis : x y z
#
# Youngs Moduli (GPa) = 58.64832 58.64832 59.08379
#
# Poissons Ratio (x) = 0.00894 0.47532
# Poissons Ratio (y) = 0.00894 0.47532
# Poissons Ratio (z) = 0.47181 0.47181
#
# Static dielectric constant tensor:
#      x y z
#    x 1.910400 0.000000 0.000000 
#    y 0.000000 1.910400 0.000000 
#    z 0.000000 0.000000 1.943880 
# 
# From -- ./inp_files/4702.got.cif
#   From: 2010.05.17/outbox.cif.g08.bks.cpg/sg179_3_cif.got.tgz:4702.got - 2010.05.20 11:37:33.
