data_PCOD9583213
_publ_section_title
;
Structure prediction by ZEFSAII (Michael W. Deem and Ramdas Pophale) SiO2 
 PCOD9583213
Probable space group: P 65 2 2
;
_chemical_formula_sum "Si O2"
_cell_formula_units_Z 96
_cell_length_a 14.045291
_cell_length_b 14.045291
_cell_length_c 26.687555
_cell_angle_alpha 90.000000
_cell_angle_beta 90.000000
_cell_angle_gamma 120.000000
_cell_volume 4559.328690
_symmetry_space_group_name_H-M "P 65 2 2"
_symmetry_group_IT_number 179
_symmetry_cell_setting 'hexagonal'
loop_
_space_group_symop_operation_xyz
x,y,z
x-y,x,5/6+z
-y,x-y,2/3+z
-x,-y,1/2+z
-x+y,-x,1/3+z
y,-x+y,1/6+z
x-y,-y,-z
-x,-x+y,1/3-z
y,x,2/3-z
-y,-x,1/6-z
-x+y,y,1/2-z
x,x-y,5/6-z
loop_
_atom_site_type_symbol
_atom_site_label
_atom_site_fract_x
_atom_site_fract_y
_atom_site_fract_z
Si Si1 0.217610 0.335789 0.360677
Si Si2 0.679159 0.657050 0.671784
Si Si3 0.218380 0.103818 0.859960
Si Si4 0.556500 0.680826 0.354672
Si Si5 0.606812 0.481896 0.934235
Si Si6 0.607204 0.023836 0.270982
Si Si7 0.269015 0.108277 0.205856
Si Si8 0.218612 0.650222 0.971617
O O1 0.280706 0.280706 0.333334
O O2 0.300804 0.443158 0.393099
O O3 0.126232 0.253915 0.401588
O O4 0.145930 0.366938 0.324470
O O5 0.574030 0.584724 0.706796
O O6 0.639129 0.646603 0.615008
O O7 0.721761 0.782631 0.684497
O O8 0.165952 0.165952 0.833334
O O9 0.177186 0.088593 0.916667
O O10 0.347440 0.193309 0.861822
O O11 0.184284 0.996946 0.826502
O O12 0.611512 0.611512 0.333334
O O13 0.492347 0.616834 0.404516
O O14 0.473427 0.697049 0.318808
O O15 0.635420 0.426447 0.980865
O O16 0.539793 0.079586 0.250000
O O17 0.530649 0.909540 0.299209
O O18 0.721169 0.102080 0.297620
O O19 0.244826 0.622413 0.916667
#
# Coordination Sequence:
#
# PCOD9583213 Si02
#       8
#    12  12  12  12  12  12  12  12
#     4  10  24  46  72 102 146 188 249 314 378 452
#     4  10  22  42  70 102 136 185 233 304 362 438
#     4  11  25  41  63  99 141 189 231 292 350 436
#     4  11  25  45  69 103 147 193 237 301 375 436
#     4  11  22  44  70 100 140 193 245 304 373 443
#     4  10  19  39  66  92 133 175 231 291 349 428
#     4  10  23  40  67  99 136 187 235 291 365 442
#     4  11  21  42  72  99 143 188 247 304 366 439
#
# _framework density 21.055731000000002
#
# number of rings (size 3 to 8) (size 9 to 14) (size 15 to 20)
#    0.000    1.500    3.750    1.500    3.500    2.500 
#    2.250   11.250    0.000    0.000    0.000    0.000 
#    0.000    0.000    0.000    0.000    0.000    0.000 
#
# Total GULP energy -534714.665160 kJ/mol
# GULP energy per Si atom -5569.944429 kJ/mol
# Density = 2.100781 g / cm^3
# Si number density = 21.055731 Si / 1000 Ang^3
#
#
#
# Elastic Constant Matrix: (Units=GPa)
#
#
# Indices 1 2 3 4 5 6 
#
# 1 79.7302 32.3406 49.0687 0.0000 0.0000 0.0000
# 2 32.3406 79.7302 49.0687 0.0000 0.0000 0.0000
# 3 49.0687 49.0687 109.3639 0.0000 0.0000 0.0000
# 4 0.0000 0.0000 0.0000 36.6746 0.0000 0.0000
# 5 0.0000 0.0000 0.0000 0.0000 36.6746 0.0000
# 6 0.0000 0.0000 0.0000 0.0000 0.0000 23.6948
#
#
#
# Elastic Compliance Matrix: (Units=1/GPa)
#
#
# Indices 1 2 3 4 5 6 
#
# 1 0.017900 -0.003202 -0.006594 0.000000 0.000000 0.000000
# 2 -0.003202 0.017900 -0.006594 0.000000 0.000000 0.000000
# 3 -0.006594 -0.006594 0.015061 0.000000 0.000000 0.000000
# 4 0.000000 0.000000 0.000000 0.027267 0.000000 0.000000
# 5 0.000000 0.000000 0.000000 0.000000 0.027267 0.000000
# 6 0.000000 0.000000 0.000000 0.000000 0.000000 0.042203
#
#
# Mechanical properties :
#
#
# Convention : Reuss Voigt Hill
#
# Bulk Modulus (GPa) = 55.31385 58.86448 57.08917
# Shear Modulus (GPa) = 26.82330 28.63189 27.72760
#
# Velocity S-wave (km/s) = 3.57307 3.69157 3.63280
# Velocity P-wave (km/s) = 6.58405 6.79613 6.69093
#
# Compressibility (1/GPa) = 0.01807865
#
# Stress axis : x y z
#
# Youngs Moduli (GPa) = 55.86738 55.86738 66.39585
#
# Poissons Ratio (x) = 0.17890 0.43784
# Poissons Ratio (y) = 0.17890 0.43784
# Poissons Ratio (z) = 0.36841 0.36841
#
# Static dielectric constant tensor:
#      x y z
#    x 1.832530 0.000000 0.000000 
#    y 0.000000 1.832530 0.000000 
#    z 0.000000 0.000000 1.836130 
# 
# From -- ./inp_files/9042.got.cif
#   From: 2010.05.17/outbox.cif.g08.bks.cpg/sg179_5_cif.got.tgz:9042.got - 2010.05.20 11:37:33.
