data_PCOD9583605
_publ_section_title
;
Structure prediction by ZEFSAII (Michael W. Deem and Ramdas Pophale) SiO2 
 PCOD9583605
Probable space group: P 62 2 2
;
_chemical_formula_sum "Si O2"
_cell_formula_units_Z 60
_cell_length_a 12.542237
_cell_length_b 12.542237
_cell_length_c 27.197391
_cell_angle_alpha 90.000000
_cell_angle_beta 90.000000
_cell_angle_gamma 120.000000
_cell_volume 3705.167813
_symmetry_space_group_name_H-M "P 62 2 2"
_symmetry_group_IT_number 180
_symmetry_cell_setting 'hexagonal'
loop_
_space_group_symop_operation_xyz
x,y,z
x-y,x,1/3+z
-y,x-y,2/3+z
-x,-y,z
-x+y,-x,1/3+z
y,-x+y,2/3+z
x-y,-y,-z
-x,-x+y,1/3-z
y,x,2/3-z
-y,-x,2/3-z
-x+y,y,-z
x,x-y,1/3-z
loop_
_atom_site_type_symbol
_atom_site_label
_atom_site_fract_x
_atom_site_fract_y
_atom_site_fract_z
Si Si1 0.251922 0.731696 0.526891
Si Si2 0.693054 0.300214 0.945750
Si Si3 0.245986 0.821786 0.239490
Si Si4 0.615305 0.639521 0.919182
Si Si5 0.598294 0.646782 0.033420
O O1 0.377902 0.755803 0.500000
O O2 0.228986 0.633677 0.569474
O O3 0.158160 0.697320 0.481850
O O4 0.278310 0.856719 0.553215
O O5 0.742528 0.446105 0.935628
O O6 0.814053 0.287542 0.945390
O O7 0.635423 0.270845 0.000000
O O8 0.099874 0.735402 0.235993
O O9 0.289043 0.947396 0.268433
O O10 0.500000 0.500000 0.915935
O O11 0.628746 0.677854 0.976279
O O12 0.500000 0.500000 0.035027
#
# Coordination Sequence:
#
# PCOD9583605 Si02
#       5
#    12  12  12  12  12
#     4  10  18  23  36  54  77 105 149 190 220 261
#     4  10  15  26  37  50  71 105 149 186 218 264
#     4  10  18  23  32  54  79 105 141 182 229 275
#     4  11  15  23  36  50  74 110 140 180 221 270
#     4   9  17  25  35  49  75 108 140 180 224 271
#
# _framework density 16.193598000000001
#
# number of rings (size 3 to 8) (size 9 to 14) (size 15 to 20)
#    0.000    2.000    6.000    3.600    0.000    0.000 
#    0.000    0.000    0.000    0.000    0.000    0.000 
#    0.000   42.400    0.000    0.000    0.000  270.000 
#
# Total GULP energy -334299.814797 kJ/mol
# GULP energy per Si atom -5571.663580 kJ/mol
# Density = 1.615674 g / cm^3
# Si number density = 16.193598 Si / 1000 Ang^3
#
#
#
# Elastic Constant Matrix: (Units=GPa)
#
#
# Indices 1 2 3 4 5 6 
#
# 1 26.7315 6.8629 19.8008 0.0000 0.0000 0.0000
# 2 6.8629 26.7315 19.8008 0.0000 0.0000 0.0000
# 3 19.8008 19.8008 121.1026 0.0000 0.0000 0.0000
# 4 0.0000 0.0000 0.0000 8.2704 0.0000 0.0000
# 5 0.0000 0.0000 0.0000 0.0000 8.2704 0.0000
# 6 0.0000 0.0000 0.0000 0.0000 0.0000 9.9343
#
#
#
# Elastic Compliance Matrix: (Units=1/GPa)
#
#
# Indices 1 2 3 4 5 6 
#
# 1 0.043602 -0.006728 -0.006029 0.000000 0.000000 0.000000
# 2 -0.006728 0.043602 -0.006029 0.000000 0.000000 0.000000
# 3 -0.006029 -0.006029 0.010229 0.000000 0.000000 0.000000
# 4 0.000000 0.000000 0.000000 0.120914 0.000000 0.000000
# 5 0.000000 0.000000 0.000000 0.000000 0.120914 0.000000
# 6 0.000000 0.000000 0.000000 0.000000 0.000000 0.100661
#
#
# Mechanical properties :
#
#
# Convention : Reuss Voigt Hill
#
# Bulk Modulus (GPa) = 16.70540 29.72160 23.21350
# Shear Modulus (GPa) = 10.05128 13.83508 11.94318
#
# Velocity S-wave (km/s) = 2.49408 2.92611 2.71869
# Velocity P-wave (km/s) = 4.31652 5.45984 4.92150
#
# Compressibility (1/GPa) = 0.05986087
#
# Stress axis : x y z
#
# Youngs Moduli (GPa) = 22.93455 22.93455 97.76122
#
# Poissons Ratio (x) = 0.15431 0.58941
# Poissons Ratio (y) = 0.15431 0.58941
# Poissons Ratio (z) = 0.13827 0.13827
#
# Static dielectric constant tensor:
#      x y z
#    x 1.546010 0.000000 0.000000 
#    y 0.000000 1.546010 0.000000 
#    z 0.000000 0.000000 1.582510 
# 
# From -- ./inp_files/11228.got.cif
#   From: 2010.05.17/outbox.cif.g08.bks.cpg/sg180_6_cif.got.tgz:11228.got - 2010.05.20 11:43:55.
