data_PCOD9583649
_publ_section_title
;
Structure prediction by ZEFSAII (Michael W. Deem and Ramdas Pophale) SiO2 
 PCOD9583649
Probable space group: P 62 2 2
;
_chemical_formula_sum "Si O2"
_cell_formula_units_Z 39
_cell_length_a 13.874502
_cell_length_b 13.874502
_cell_length_c 15.102543
_cell_angle_alpha 90.000000
_cell_angle_beta 90.000000
_cell_angle_gamma 120.000000
_cell_volume 2517.766903
_symmetry_space_group_name_H-M "P 62 2 2"
_symmetry_group_IT_number 180
_symmetry_cell_setting 'hexagonal'
loop_
_space_group_symop_operation_xyz
x,y,z
x-y,x,1/3+z
-y,x-y,2/3+z
-x,-y,z
-x+y,-x,1/3+z
y,-x+y,2/3+z
x-y,-y,-z
-x,-x+y,1/3-z
y,x,2/3-z
-y,-x,2/3-z
-x+y,y,-z
x,x-y,1/3-z
loop_
_atom_site_type_symbol
_atom_site_label
_atom_site_fract_x
_atom_site_fract_y
_atom_site_fract_z
Si Si1 0.883798 0.545890 0.621362
Si Si2 0.500000 0.500000 0.833334
Si Si3 0.884752 0.543850 0.008244
Si Si4 0.115664 0.451641 0.409076
O O1 0.858184 0.429092 0.666667
O O2 0.895232 0.544482 0.514978
O O3 0.780707 0.567349 0.627653
O O4 0.000000 0.635314 0.666667
O O5 0.471587 0.393955 0.772404
O O6 0.781586 0.563171 0.000000
O O7 0.858101 0.429994 0.959127
O O8 0.997258 0.637553 0.962467
#
# Coordination Sequence:
#
# PCOD9583649 Si02
#       4
#    12   3  12  12
#     4  10  18  31  51  69  95 127 153 193 239 273
#     4   8  20  32  44  72  94 122 164 192 224 282
#     4  10  19  32  48  67  98 127 153 193 237 279
#     4   9  20  31  45  75  95 117 164 194 223 287
#
# _framework density 15.489917999999999
#
# number of rings (size 3 to 8) (size 9 to 14) (size 15 to 20)
#    0.000    2.769    0.000    4.615    0.000   12.308 
#    0.000    0.000    0.000    0.923    0.000    4.308 
#    0.000    0.000    0.000    0.000    0.000    0.000 
#
# Total GULP energy -217124.626592 kJ/mol
# GULP energy per Si atom -5567.298118 kJ/mol
# Density = 1.545466 g / cm^3
# Si number density = 15.489918 Si / 1000 Ang^3
#
#
#
# Elastic Constant Matrix: (Units=GPa)
#
#
# Indices 1 2 3 4 5 6 
#
# 1 131.7982 92.2792 59.2851 0.0000 0.0000 0.0000
# 2 92.2792 131.7982 59.2851 0.0000 0.0000 0.0000
# 3 59.2851 59.2851 98.5104 0.0000 0.0000 0.0000
# 4 0.0000 0.0000 0.0000 6.7432 0.0000 0.0000
# 5 0.0000 0.0000 0.0000 0.0000 6.7432 0.0000
# 6 0.0000 0.0000 0.0000 0.0000 0.0000 19.7595
#
#
#
# Elastic Compliance Matrix: (Units=1/GPa)
#
#
# Indices 1 2 3 4 5 6 
#
# 1 0.015926 -0.009378 -0.003941 0.000000 0.000000 0.000000
# 2 -0.009378 0.015926 -0.003941 0.000000 0.000000 0.000000
# 3 -0.003941 -0.003941 0.014894 0.000000 0.000000 0.000000
# 4 0.000000 0.000000 0.000000 0.148297 0.000000 0.000000
# 5 0.000000 0.000000 0.000000 0.000000 0.148297 0.000000
# 6 0.000000 0.000000 0.000000 0.000000 0.000000 0.050608
#
#
# Mechanical properties :
#
#
# Convention : Reuss Voigt Hill
#
# Bulk Modulus (GPa) = 81.78235 87.08948 84.43592
# Shear Modulus (GPa) = 11.55955 16.73304 14.14630
#
# Velocity S-wave (km/s) = 2.73475 3.29029 3.02530
# Velocity P-wave (km/s) = 7.92991 8.41309 8.17507
#
# Compressibility (1/GPa) = 0.01222758
#
# Stress axis : x y z
#
# Youngs Moduli (GPa) = 62.79008 62.79008 67.13980
#
# Poissons Ratio (x) = 0.58886 0.26457
# Poissons Ratio (y) = 0.58886 0.26457
# Poissons Ratio (z) = 0.24743 0.24743
#
# Static dielectric constant tensor:
#      x y z
#    x 1.511400 0.000000 0.000000 
#    y 0.000000 1.511400 0.000000 
#    z 0.000000 0.000000 1.542830 
# 
# From -- ./inp_files/5713.got.cif
#   From: 2010.05.17/outbox.cif.g08.bks.cpg/sg180_3_cif.got.tgz:5713.got - 2010.05.20 11:43:55.
