data_PCOD9583084
_publ_section_title
;
Structure prediction by ZEFSAII (Michael W. Deem and Ramdas Pophale) SiO2 
 PCOD9583084
Probable space group: P 61 2 2
;
_chemical_formula_sum "Si O2"
_cell_formula_units_Z 36
_cell_length_a 6.966057
_cell_length_b 6.966057
_cell_length_c 31.620148
_cell_angle_alpha 90.000000
_cell_angle_beta 90.000000
_cell_angle_gamma 120.000000
_cell_volume 1328.827409
_symmetry_space_group_name_H-M "P 61 2 2"
_symmetry_group_IT_number 178
_symmetry_cell_setting 'hexagonal'
loop_
_space_group_symop_operation_xyz
x,y,z
x-y,x,1/6+z
-y,x-y,1/3+z
-x,-y,1/2+z
-x+y,-x,2/3+z
y,-x+y,5/6+z
x-y,-y,-z
-x,-x+y,2/3-z
y,x,1/3-z
-y,-x,5/6-z
-x+y,y,1/2-z
x,x-y,1/6-z
loop_
_atom_site_type_symbol
_atom_site_label
_atom_site_fract_x
_atom_site_fract_y
_atom_site_fract_z
Si Si1 0.189819 0.810182 0.416667
Si Si2 0.363590 0.168318 0.887661
Si Si3 0.000000 0.627338 0.333334
Si Si4 0.875426 0.599318 0.645199
O O1 0.436113 0.884884 0.398780
O O2 0.033207 0.765295 0.376199
O O3 0.277310 0.157964 0.934997
O O4 0.477961 0.420492 0.870569
O O5 0.250156 0.015245 0.848120
O O6 0.194955 0.564519 0.335806
#
# Coordination Sequence:
#
# PCOD9583084 Si02
#       4
#     6  12   6  12
#     4   8  16  30  48  80 112 144 188 240 284 332
#     4   8  17  32  52  80 113 149 192 234 289 348
#     4   8  16  30  54  80 112 148 192 238 286 354
#     4   9  17  33  55  82 113 151 194 242 290 352
#
# _framework density 27.091557000000002
#
# number of rings (size 3 to 8) (size 9 to 14) (size 15 to 20)
#    0.000    4.667    0.000    0.000    0.000    5.333 
#    0.000   26.667    0.000   20.000    0.000    0.000 
#    0.000    0.000    0.000    0.000    0.000    0.000 
#
# Total GULP energy -200876.584437 kJ/mol
# GULP energy per Si atom -5579.905123 kJ/mol
# Density = 2.702990 g / cm^3
# Si number density = 27.091557 Si / 1000 Ang^3
#
#
#
# Elastic Constant Matrix: (Units=GPa)
#
#
# Indices 1 2 3 4 5 6 
#
# 1 67.4505 28.7454 98.3544 0.0000 0.0000 0.0000
# 2 28.7454 67.4505 98.3544 0.0000 0.0000 0.0000
# 3 98.3544 98.3544 362.2862 0.0000 0.0000 0.0000
# 4 0.0000 0.0000 0.0000 68.4357 0.0000 0.0000
# 5 0.0000 0.0000 0.0000 0.0000 68.4357 0.0000
# 6 0.0000 0.0000 0.0000 0.0000 0.0000 19.3526
#
#
#
# Elastic Compliance Matrix: (Units=1/GPa)
#
#
# Indices 1 2 3 4 5 6 
#
# 1 0.024602 -0.001234 -0.006344 0.000000 0.000000 0.000000
# 2 -0.001234 0.024602 -0.006344 0.000000 0.000000 0.000000
# 3 -0.006344 -0.006344 0.006205 0.000000 0.000000 0.000000
# 4 0.000000 0.000000 0.000000 0.014612 0.000000 0.000000
# 5 0.000000 0.000000 0.000000 0.000000 0.014612 0.000000
# 6 0.000000 0.000000 0.000000 0.000000 0.000000 0.051673
#
#
# Mechanical properties :
#
#
# Convention : Reuss Voigt Hill
#
# Bulk Modulus (GPa) = 36.27760 105.34392 70.81076
# Shear Modulus (GPa) = 28.84508 49.36033 39.10271
#
# Velocity S-wave (km/s) = 3.26655 4.27310 3.80327
# Velocity P-wave (km/s) = 5.25804 7.95705 6.74395
#
# Compressibility (1/GPa) = 0.02756522
#
# Stress axis : x y z
#
# Youngs Moduli (GPa) = 40.64646 40.64646 161.16358
#
# Poissons Ratio (x) = 0.05016 1.02244
# Poissons Ratio (y) = 0.05016 1.02244
# Poissons Ratio (z) = 0.25787 0.25787
#
# Static dielectric constant tensor:
#      x y z
#    x 2.215320 0.000000 0.000000 
#    y 0.000000 2.215320 0.000000 
#    z 0.000000 0.000000 3.499000 
# 
# From -- ./inp_files/8591.got.cif
#   From: 2010.05.17/outbox.cif.g08.bks.cpg/sg178_5_cif.got.tgz:8591.got - 2010.05.20 11:30:59.
