data_PCOD9583632
_publ_section_title
;
Structure prediction by ZEFSAII (Michael W. Deem and Ramdas Pophale) SiO2 
 PCOD9583632
Probable space group: P 62 2 2
;
_chemical_formula_sum "Si O2"
_cell_formula_units_Z 54
_cell_length_a 10.747880
_cell_length_b 10.747880
_cell_length_c 27.691324
_cell_angle_alpha 90.000000
_cell_angle_beta 90.000000
_cell_angle_gamma 120.000000
_cell_volume 2770.256423
_symmetry_space_group_name_H-M "P 62 2 2"
_symmetry_group_IT_number 180
_symmetry_cell_setting 'hexagonal'
loop_
_space_group_symop_operation_xyz
x,y,z
x-y,x,1/3+z
-y,x-y,2/3+z
-x,-y,z
-x+y,-x,1/3+z
y,-x+y,2/3+z
x-y,-y,-z
-x,-x+y,1/3-z
y,x,2/3-z
-y,-x,2/3-z
-x+y,y,-z
x,x-y,1/3-z
loop_
_atom_site_type_symbol
_atom_site_label
_atom_site_fract_x
_atom_site_fract_y
_atom_site_fract_z
Si Si1 0.775508 0.775508 0.333334
Si Si2 0.815829 0.265549 0.940504
Si Si3 0.177327 0.354653 0.500000
Si Si4 0.838226 0.555335 0.949894
Si Si5 0.000000 0.000000 0.263393
Si Si6 0.270241 0.128820 0.803826
O O1 0.632479 0.760618 0.309049
O O2 0.854579 0.900442 0.373690
O O3 0.785750 0.224133 0.884038
O O4 0.773042 0.384861 0.952264
O O5 0.989001 0.356482 0.946223
O O6 0.260685 0.262476 0.497985
O O7 0.793065 0.598204 0.899777
O O8 0.802161 0.604321 0.000000
O O9 0.901430 0.034789 0.230407
O O10 0.235025 0.235025 0.833334
#
# Coordination Sequence:
#
# PCOD9583632 Si02
#       6
#     6  12   6  12   6  12
#     4  11  18  30  55  92 118 154 203 256 299 370
#     4  10  21  35  61  84 123 162 207 248 324 370
#     4  10  17  32  54  88 121 156 194 258 312 374
#     4  10  21  38  58  83 122 170 199 249 322 386
#     4  11  17  26  54  95 125 134 192 269 319 334
#     4  11  17  30  56  94 123 149 194 261 324 366
#
# _framework density 19.492778000000001
#
# number of rings (size 3 to 8) (size 9 to 14) (size 15 to 20)
#    0.000    1.556    6.667    1.333    0.000    0.000 
#    0.000    0.556   34.222    0.000    0.000    0.000 
#    0.000    0.000    0.000    0.000    0.000    0.000 
#
# Total GULP energy -300775.779521 kJ/mol
# GULP energy per Si atom -5569.921843 kJ/mol
# Density = 1.944841 g / cm^3
# Si number density = 19.492778 Si / 1000 Ang^3
#
#
#
# Elastic Constant Matrix: (Units=GPa)
#
#
# Indices 1 2 3 4 5 6 
#
# 1 61.3620 22.7785 44.6726 0.0000 0.0000 0.0000
# 2 22.7785 61.3620 44.6726 0.0000 0.0000 0.0000
# 3 44.6726 44.6726 123.5254 0.0000 0.0000 0.0000
# 4 0.0000 0.0000 0.0000 19.3196 0.0000 0.0000
# 5 0.0000 0.0000 0.0000 0.0000 19.3196 0.0000
# 6 0.0000 0.0000 0.0000 0.0000 0.0000 19.2918
#
#
#
# Elastic Compliance Matrix: (Units=1/GPa)
#
#
# Indices 1 2 3 4 5 6 
#
# 1 0.022606 -0.003312 -0.006978 0.000000 0.000000 0.000000
# 2 -0.003312 0.022606 -0.006978 0.000000 0.000000 0.000000
# 3 -0.006978 -0.006978 0.013142 0.000000 0.000000 0.000000
# 4 0.000000 0.000000 0.000000 0.051761 0.000000 0.000000
# 5 0.000000 0.000000 0.000000 0.000000 0.051761 0.000000
# 6 0.000000 0.000000 0.000000 0.000000 0.000000 0.051836
#
#
# Mechanical properties :
#
#
# Convention : Reuss Voigt Hill
#
# Bulk Modulus (GPa) = 41.98146 52.27744 47.12945
# Shear Modulus (GPa) = 19.51708 20.52793 20.02250
#
# Velocity S-wave (km/s) = 3.16768 3.24868 3.20843
# Velocity P-wave (km/s) = 5.91292 6.39914 6.16083
#
# Compressibility (1/GPa) = 0.02382004
#
# Stress axis : x y z
#
# Youngs Moduli (GPa) = 44.23608 44.23608 76.08950
#
# Poissons Ratio (x) = 0.14650 0.53093
# Poissons Ratio (y) = 0.14650 0.53093
# Poissons Ratio (z) = 0.30867 0.30867
#
# Static dielectric constant tensor:
#      x y z
#    x 1.793020 0.000000 0.000000 
#    y 0.000000 1.793020 0.000000 
#    z 0.000000 0.000000 1.716700 
# 
# From -- ./inp_files/11143.got.cif
#   From: 2010.05.17/outbox.cif.g08.bks.cpg/sg180_6_cif.got.tgz:11143.got - 2010.05.20 11:43:55.
