data_PCOD9583227
_publ_section_title
;
Structure prediction by ZEFSAII (Michael W. Deem and Ramdas Pophale) SiO2 
 PCOD9583227
Probable space group: P 65 2 2
;
_chemical_formula_sum "Si O2"
_cell_formula_units_Z 54
_cell_length_a 17.698983
_cell_length_b 17.698983
_cell_length_c 10.417703
_cell_angle_alpha 90.000000
_cell_angle_beta 90.000000
_cell_angle_gamma 120.000000
_cell_volume 2826.176155
_symmetry_space_group_name_H-M "P 65 2 2"
_symmetry_group_IT_number 179
_symmetry_cell_setting 'hexagonal'
loop_
_space_group_symop_operation_xyz
x,y,z
x-y,x,5/6+z
-y,x-y,2/3+z
-x,-y,1/2+z
-x+y,-x,1/3+z
y,-x+y,1/6+z
x-y,-y,-z
-x,-x+y,1/3-z
y,x,2/3-z
-y,-x,1/6-z
-x+y,y,1/2-z
x,x-y,5/6-z
loop_
_atom_site_type_symbol
_atom_site_label
_atom_site_fract_x
_atom_site_fract_y
_atom_site_fract_z
Si Si1 0.361934 0.638067 0.583334
Si Si2 0.165386 0.750504 0.447227
Si Si3 0.198763 0.599382 0.416667
Si Si4 0.913819 0.086182 0.583334
Si Si5 0.829235 0.281729 0.470288
Si Si6 0.276766 0.989938 0.153877
O O1 0.267924 0.610224 0.525904
O O2 0.345835 0.554442 0.665669
O O3 0.202662 0.797339 0.583334
O O4 0.149044 0.651316 0.452844
O O5 0.237657 0.797470 0.335445
O O6 0.080081 0.751573 0.396774
O O7 0.828500 0.061724 0.671102
O O8 0.000000 0.114504 0.666667
O O9 0.789528 0.210473 0.583334
O O10 0.931307 0.318721 0.473993
O O11 0.285741 0.000000 0.000000
#
# Coordination Sequence:
#
# PCOD9583227 Si02
#       6
#     6  12   6   6  12  12
#     4  10  20  33  62  87 122 165 220 269 302 392
#     4  11  24  39  63  96 130 172 213 280 341 395
#     4  10  20  38  60  88 132 170 212 266 338 398
#     4  10  20  39  64  89 116 161 210 261 312 406
#     4  11  20  37  61  90 114 167 220 250 321 399
#     4  11  21  41  66  88 126 169 215 268 336 410
#
# _framework density 19.107088000000001
#
# number of rings (size 3 to 8) (size 9 to 14) (size 15 to 20)
#    0.000    1.333    5.556    1.333    0.000    1.778 
#    2.000    0.000    0.000    0.000    0.000    0.000 
#    0.000    0.000    0.000    0.000    0.000    0.000 
#
# Total GULP energy -300631.842481 kJ/mol
# GULP energy per Si atom -5567.256342 kJ/mol
# Density = 1.906360 g / cm^3
# Si number density = 19.107088 Si / 1000 Ang^3
#
#
#
# Elastic Constant Matrix: (Units=GPa)
#
#
# Indices 1 2 3 4 5 6 
#
# 1 89.1307 47.4201 26.9396 0.0000 0.0000 0.0000
# 2 47.4201 89.1307 26.9396 0.0000 0.0000 0.0000
# 3 26.9396 26.9396 107.6226 0.0000 0.0000 0.0000
# 4 0.0000 0.0000 0.0000 24.2958 0.0000 0.0000
# 5 0.0000 0.0000 0.0000 0.0000 24.2958 0.0000
# 6 0.0000 0.0000 0.0000 0.0000 0.0000 20.8553
#
#
#
# Elastic Compliance Matrix: (Units=1/GPa)
#
#
# Indices 1 2 3 4 5 6 
#
# 1 0.016050 -0.007924 -0.002034 0.000000 0.000000 0.000000
# 2 -0.007924 0.016050 -0.002034 0.000000 0.000000 0.000000
# 3 -0.002034 -0.002034 0.010310 0.000000 0.000000 0.000000
# 4 0.000000 0.000000 0.000000 0.041159 0.000000 0.000000
# 5 0.000000 0.000000 0.000000 0.000000 0.041159 0.000000
# 6 0.000000 0.000000 0.000000 0.000000 0.000000 0.047949
#
#
# Mechanical properties :
#
#
# Convention : Reuss Voigt Hill
#
# Bulk Modulus (GPa) = 54.27225 54.27585 54.27405
# Shear Modulus (GPa) = 24.65414 26.19502 25.42458
#
# Velocity S-wave (km/s) = 3.59599 3.70666 3.65175
# Velocity P-wave (km/s) = 6.76073 6.84010 6.80053
#
# Compressibility (1/GPa) = 0.01842562
#
# Stress axis : x y z
#
# Youngs Moduli (GPa) = 62.30415 62.30415 96.99294
#
# Poissons Ratio (x) = 0.49373 0.19729
# Poissons Ratio (y) = 0.49373 0.19729
# Poissons Ratio (z) = 0.12673 0.12673
#
# Static dielectric constant tensor:
#      x y z
#    x 1.727130 0.000000 0.000000 
#    y 0.000000 1.727130 0.000000 
#    z 0.000000 0.000000 1.702460 
# 
# From -- ./inp_files/4594.got.cif
#   From: 2010.05.17/outbox.cif.g08.bks.cpg/sg179_3_cif.got.tgz:4594.got - 2010.05.20 11:37:33.
