data_PCOD9583043
_publ_section_title
;
Structure prediction by ZEFSAII (Michael W. Deem and Ramdas Pophale) SiO2 
 PCOD9583043
Probable space group: P 61 2 2
;
_chemical_formula_sum "Si O2"
_cell_formula_units_Z 54
_cell_length_a 14.058887
_cell_length_b 14.058887
_cell_length_c 15.850651
_cell_angle_alpha 90.000000
_cell_angle_beta 90.000000
_cell_angle_gamma 120.000000
_cell_volume 2713.186303
_symmetry_space_group_name_H-M "P 61 2 2"
_symmetry_group_IT_number 178
_symmetry_cell_setting 'hexagonal'
loop_
_space_group_symop_operation_xyz
x,y,z
x-y,x,1/6+z
-y,x-y,1/3+z
-x,-y,1/2+z
-x+y,-x,2/3+z
y,-x+y,5/6+z
x-y,-y,-z
-x,-x+y,2/3-z
y,x,1/3-z
-y,-x,5/6-z
-x+y,y,1/2-z
x,x-y,1/6-z
loop_
_atom_site_type_symbol
_atom_site_label
_atom_site_fract_x
_atom_site_fract_y
_atom_site_fract_z
Si Si1 0.928958 0.071043 0.916667
Si Si2 0.600919 0.282161 0.494388
Si Si3 0.128787 0.710750 0.618114
Si Si4 0.477552 0.943316 0.077191
Si Si5 0.037606 0.319669 0.985857
O O1 0.000000 0.074193 0.833334
O O2 0.980801 0.200536 0.940210
O O3 0.684872 0.315129 0.416667
O O4 0.664592 0.332296 0.583334
O O5 0.506992 0.303629 0.454090
O O6 0.531360 0.160679 0.529081
O O7 0.092295 0.614274 0.685276
O O8 0.203888 0.832108 0.654714
O O9 0.022238 0.702455 0.575424
O O10 0.601975 0.011268 0.110644
O O11 0.451272 0.000000 0.000000
#
# Coordination Sequence:
#
# PCOD9583043 Si02
#       5
#     6  12  12  12  12
#     4  12  24  44  78 112 134 178 244 314 378 418
#     4  12  22  39  66 101 140 186 236 287 348 427
#     4  12  25  43  70 104 144 187 240 295 367 431
#     4  12  25  43  68 102 145 193 237 299 361 435
#     4  12  23  43  74 104 137 185 245 305 356 427
#
# _framework density 19.902799000000002
#
# number of rings (size 3 to 8) (size 9 to 14) (size 15 to 20)
#    0.000    0.000    8.889    2.667    0.000    1.778 
#    4.000    1.111    0.000    0.000    0.000    0.000 
#    0.000    0.000    0.000    0.000    0.000    0.000 
#
# Total GULP energy -300803.781393 kJ/mol
# GULP energy per Si atom -5570.440396 kJ/mol
# Density = 1.985750 g / cm^3
# Si number density = 19.902799 Si / 1000 Ang^3
#
#
#
# Elastic Constant Matrix: (Units=GPa)
#
#
# Indices 1 2 3 4 5 6 
#
# 1 106.3440 49.1607 68.8782 0.0000 0.0000 0.0000
# 2 49.1607 106.3440 68.8782 0.0000 0.0000 0.0000
# 3 68.8782 68.8782 175.4143 0.0000 0.0000 0.0000
# 4 0.0000 0.0000 0.0000 37.3285 0.0000 0.0000
# 5 0.0000 0.0000 0.0000 0.0000 37.3285 0.0000
# 6 0.0000 0.0000 0.0000 0.0000 0.0000 28.5917
#
#
#
# Elastic Compliance Matrix: (Units=1/GPa)
#
#
# Indices 1 2 3 4 5 6 
#
# 1 0.013674 -0.003813 -0.003872 0.000000 0.000000 0.000000
# 2 -0.003813 0.013674 -0.003872 0.000000 0.000000 0.000000
# 3 -0.003872 -0.003872 0.008741 0.000000 0.000000 0.000000
# 4 0.000000 0.000000 0.000000 0.026789 0.000000 0.000000
# 5 0.000000 0.000000 0.000000 0.000000 0.026789 0.000000
# 6 0.000000 0.000000 0.000000 0.000000 0.000000 0.034975
#
#
# Mechanical properties :
#
#
# Convention : Reuss Voigt Hill
#
# Bulk Modulus (GPa) = 77.06999 84.65960 80.86479
# Shear Modulus (GPa) = 32.87682 34.06209 33.46946
#
# Velocity S-wave (km/s) = 4.06873 4.14142 4.10524
# Velocity P-wave (km/s) = 7.80256 8.09304 7.94913
#
# Compressibility (1/GPa) = 0.01297522
#
# Stress axis : x y z
#
# Youngs Moduli (GPa) = 73.13082 73.13082 114.39752
#
# Poissons Ratio (x) = 0.27888 0.44293
# Poissons Ratio (y) = 0.27888 0.44293
# Poissons Ratio (z) = 0.28315 0.28315
#
# Static dielectric constant tensor:
#      x y z
#    x 1.812290 0.000000 0.000000 
#    y 0.000000 1.812290 0.000000 
#    z 0.000000 0.000000 1.935710 
# 
# From -- ./inp_files/5544.got.cif
#   From: 2010.05.17/outbox.cif.g08.bks.cpg/sg178_3_cif.got.tgz:5544.got - 2010.05.20 11:30:59.
