data_PCOD9583328
_publ_section_title
;
Structure prediction by ZEFSAII (Michael W. Deem and Ramdas Pophale) SiO2 
 PCOD9583328
Probable space group: P 65 2 2
;
_chemical_formula_sum "Si O2"
_cell_formula_units_Z 42
_cell_length_a 20.058486
_cell_length_b 20.058486
_cell_length_c 5.680191
_cell_angle_alpha 90.000000
_cell_angle_beta 90.000000
_cell_angle_gamma 120.000000
_cell_volume 1979.200858
_symmetry_space_group_name_H-M "P 65 2 2"
_symmetry_group_IT_number 179
_symmetry_cell_setting 'hexagonal'
loop_
_space_group_symop_operation_xyz
x,y,z
x-y,x,5/6+z
-y,x-y,2/3+z
-x,-y,1/2+z
-x+y,-x,1/3+z
y,-x+y,1/6+z
x-y,-y,-z
-x,-x+y,1/3-z
y,x,2/3-z
-y,-x,1/6-z
-x+y,y,1/2-z
x,x-y,5/6-z
loop_
_atom_site_type_symbol
_atom_site_label
_atom_site_fract_x
_atom_site_fract_y
_atom_site_fract_z
Si Si1 0.000000 0.350699 0.166667
Si Si2 0.734274 0.265727 0.083334
Si Si3 0.459734 0.112302 0.126923
Si Si4 0.229383 0.309127 0.699685
Si Si5 0.812512 0.406256 0.416667
O O1 0.036015 0.415132 0.373636
O O2 0.938500 0.267151 0.273268
O O3 0.696737 0.183250 0.200564
O O4 0.753685 0.326869 0.289338
O O5 0.392228 0.111561 0.980149
O O6 0.530637 0.133239 0.948255
O O7 0.253259 0.253259 0.833334
O O8 0.141635 0.283269 0.750000
#
# Coordination Sequence:
#
# PCOD9583328 Si02
#       5
#     6   6  12  12   6
#     4  10  22  42  72  96 128 174 228 280 340 400
#     4  12  26  43  68  90 132 178 230 282 342 406
#     4  11  23  41  67  94 130 169 229 286 337 402
#     4  10  21  39  67  99 131 172 222 275 331 397
#     4  12  26  41  66  98 130 178 228 282 344 406
#
# _framework density 21.220683999999999
#
# number of rings (size 3 to 8) (size 9 to 14) (size 15 to 20)
#    0.000    1.143    0.000    6.857    0.000    9.143 
#    0.000    0.000  141.429    0.000    3.714    0.000 
#    0.000    0.000    0.000    0.000    0.000    0.000 
#
# Total GULP energy -234378.299520 kJ/mol
# GULP energy per Si atom -5580.435703 kJ/mol
# Density = 2.117238 g / cm^3
# Si number density = 21.220684 Si / 1000 Ang^3
#
#
#
# Elastic Constant Matrix: (Units=GPa)
#
#
# Indices 1 2 3 4 5 6 
#
# 1 47.0192 55.3807 10.6296 0.0000 0.0000 0.0000
# 2 55.3807 47.0192 10.6296 0.0000 0.0000 0.0000
# 3 10.6296 10.6296 73.5921 0.0000 0.0000 0.0000
# 4 0.0000 0.0000 0.0000 10.3729 0.0000 0.0000
# 5 0.0000 0.0000 0.0000 0.0000 10.3729 0.0000
# 6 0.0000 0.0000 0.0000 0.0000 0.0000 -4.1807
#
#
#
# Elastic Compliance Matrix: (Units=1/GPa)
#
#
# Indices 1 2 3 4 5 6 
#
# 1 -0.054764 0.064832 -0.001454 0.000000 0.000000 0.000000
# 2 0.064832 -0.054764 -0.001454 0.000000 0.000000 0.000000
# 3 -0.001454 -0.001454 0.014008 0.000000 0.000000 0.000000
# 4 0.000000 0.000000 0.000000 0.096405 0.000000 0.000000
# 5 0.000000 0.000000 0.000000 0.000000 0.096405 0.000000
# 6 0.000000 0.000000 0.000000 0.000000 0.000000 -0.239192
#
#
# Mechanical properties :
#
#
# Convention : Reuss Voigt Hill
#
# Bulk Modulus (GPa) = 35.30204 35.65667 35.47935
# Shear Modulus (GPa) = -19.50795 9.37904 -5.06445
#
# Velocity S-wave (km/s) = -3.03527 2.10460 -1.54653
# Velocity P-wave (km/s) = 2.09475 4.76918 3.68328
#
# Compressibility (1/GPa) = 0.02832698
#
# Stress axis : x y z
#
# Youngs Moduli (GPa) = -18.26010 -18.26010 71.38529
#
# Poissons Ratio (x) = 1.18383 0.10380
# Poissons Ratio (y) = 1.18383 0.10380
# Poissons Ratio (z) = -0.02655 -0.02655
#
# Static dielectric constant tensor:
#      x y z
#    x 1.781750 0.000000 0.000000 
#    y 0.000000 1.781750 0.000000 
#    z 0.000000 0.000000 1.649120 
# 
# From -- ./inp_files/797.got.cif
#   From: 2010.05.17/outbox.cif.g08.bks.cpg/sg179_1_cif.got.tgz:797.got - 2010.05.20 11:37:33.
