data_PCOD9583951
_publ_section_title
;
Structure prediction by ZEFSAII (Michael W. Deem and Ramdas Pophale) SiO2 
 PCOD9583951
Probable space group: P 62 2 2
;
_chemical_formula_sum "Si O2"
_cell_formula_units_Z 60
_cell_length_a 14.804440
_cell_length_b 14.804440
_cell_length_c 14.870144
_cell_angle_alpha 90.000000
_cell_angle_beta 90.000000
_cell_angle_gamma 120.000000
_cell_volume 2822.472858
_symmetry_space_group_name_H-M "P 62 2 2"
_symmetry_group_IT_number 180
_symmetry_cell_setting 'hexagonal'
loop_
_space_group_symop_operation_xyz
x,y,z
x-y,x,1/3+z
-y,x-y,2/3+z
-x,-y,z
-x+y,-x,1/3+z
y,-x+y,2/3+z
x-y,-y,-z
-x,-x+y,1/3-z
y,x,2/3-z
-y,-x,2/3-z
-x+y,y,-z
x,x-y,1/3-z
loop_
_atom_site_type_symbol
_atom_site_label
_atom_site_fract_x
_atom_site_fract_y
_atom_site_fract_z
Si Si1 0.819441 0.611537 0.714186
Si Si2 0.214732 0.892348 0.249055
Si Si3 0.721844 0.278157 0.833334
Si Si4 0.398560 0.797119 0.000000
Si Si5 0.932038 0.378000 0.943686
Si Si6 0.176703 0.099193 0.059932
O O1 0.842714 0.653375 0.816340
O O2 0.850405 0.523034 0.688257
O O3 0.696504 0.563849 0.693296
O O4 0.873473 0.709588 0.645718
O O5 0.186231 0.813770 0.333334
O O6 0.335065 0.978034 0.244122
O O7 0.167700 0.965611 0.276396
O O8 0.724175 0.346142 0.751366
O O9 0.841549 0.334747 0.867391
O O10 0.000000 0.500000 0.963846
O O11 0.167747 0.083874 0.166667
O O12 0.098761 0.000000 0.000000
#
# Coordination Sequence:
#
# PCOD9583951 Si02
#       6
#    12  12   6   6  12  12
#     4  10  23  42  70 101 143 194 236 302 370 437
#     4  11  25  45  68 100 147 187 242 305 367 437
#     4  10  22  44  70 104 145 191 246 300 368 444
#     4  10  22  40  69 104 140 180 240 290 361 430
#     4  10  23  44  71 102 146 191 244 299 360 443
#     4  11  23  44  74 103 141 188 244 306 374 433
#
# _framework density 21.257956
#
# number of rings (size 3 to 8) (size 9 to 14) (size 15 to 20)
#    0.000    1.600    2.000    1.200   12.600    3.600 
#   16.200    8.000    0.000    0.000    0.000    0.000 
#    0.000    0.000    0.000    0.000    0.000    0.000 
#
# Total GULP energy -334089.779831 kJ/mol
# GULP energy per Si atom -5568.162997 kJ/mol
# Density = 2.120957 g / cm^3
# Si number density = 21.257956 Si / 1000 Ang^3
#
#
#
# Elastic Constant Matrix: (Units=GPa)
#
#
# Indices 1 2 3 4 5 6 
#
# 1 102.1402 65.2866 56.7927 0.0000 0.0000 0.0000
# 2 65.2866 102.1402 56.7927 0.0000 0.0000 0.0000
# 3 56.7927 56.7927 137.9824 0.0000 0.0000 0.0000
# 4 0.0000 0.0000 0.0000 32.0071 0.0000 0.0000
# 5 0.0000 0.0000 0.0000 0.0000 32.0071 0.0000
# 6 0.0000 0.0000 0.0000 0.0000 0.0000 18.4268
#
#
#
# Elastic Compliance Matrix: (Units=1/GPa)
#
#
# Indices 1 2 3 4 5 6 
#
# 1 0.017711 -0.009424 -0.003411 0.000000 0.000000 0.000000
# 2 -0.009424 0.017711 -0.003411 0.000000 0.000000 0.000000
# 3 -0.003411 -0.003411 0.010055 0.000000 0.000000 0.000000
# 4 0.000000 0.000000 0.000000 0.031243 0.000000 0.000000
# 5 0.000000 0.000000 0.000000 0.000000 0.031243 0.000000
# 6 0.000000 0.000000 0.000000 0.000000 0.000000 0.054269
#
#
# Mechanical properties :
#
#
# Convention : Reuss Voigt Hill
#
# Bulk Modulus (GPa) = 77.00984 77.77853 77.39419
# Shear Modulus (GPa) = 25.11928 27.38090 26.25009
#
# Velocity S-wave (km/s) = 3.44123 3.59281 3.51784
# Velocity P-wave (km/s) = 7.21765 7.34019 7.27918
#
# Compressibility (1/GPa) = 0.01298535
#
# Stress axis : x y z
#
# Youngs Moduli (GPa) = 56.46353 56.46353 99.45323
#
# Poissons Ratio (x) = 0.53211 0.33921
# Poissons Ratio (y) = 0.53211 0.33921
# Poissons Ratio (z) = 0.19258 0.19258
#
# Static dielectric constant tensor:
#      x y z
#    x 1.521870 0.000000 0.000000 
#    y 0.000000 1.521870 0.000000 
#    z 0.000000 0.000000 1.789100 
# 
# From -- ./inp_files/6153.got.cif
#   From: 2010.05.17/outbox.cif.g08.bks.cpg/sg180_4_cif.got.tgz:6153.got - 2010.05.20 11:43:55.
