data_PCOD9583301
_publ_section_title
;
Structure prediction by ZEFSAII (Michael W. Deem and Ramdas Pophale) SiO2 
 PCOD9583301
Probable space group: P 65 2 2
;
_chemical_formula_sum "Si O2"
_cell_formula_units_Z 96
_cell_length_a 14.393600
_cell_length_b 14.393600
_cell_length_c 28.400882
_cell_angle_alpha 90.000000
_cell_angle_beta 90.000000
_cell_angle_gamma 120.000000
_cell_volume 5095.670270
_symmetry_space_group_name_H-M "P 65 2 2"
_symmetry_group_IT_number 179
_symmetry_cell_setting 'hexagonal'
loop_
_space_group_symop_operation_xyz
x,y,z
x-y,x,5/6+z
-y,x-y,2/3+z
-x,-y,1/2+z
-x+y,-x,1/3+z
y,-x+y,1/6+z
x-y,-y,-z
-x,-x+y,1/3-z
y,x,2/3-z
-y,-x,1/6-z
-x+y,y,1/2-z
x,x-y,5/6-z
loop_
_atom_site_type_symbol
_atom_site_label
_atom_site_fract_x
_atom_site_fract_y
_atom_site_fract_z
Si Si1 0.763646 0.536920 0.865394
Si Si2 0.054625 0.803790 0.432733
Si Si3 0.412327 0.996341 0.214080
Si Si4 0.773425 0.273424 0.860292
Si Si5 0.314271 0.429584 0.224162
Si Si6 0.931636 0.731627 0.522621
Si Si7 0.759500 0.333887 0.468416
Si Si8 0.546599 0.441285 0.808618
O O1 0.758445 0.487388 0.916369
O O2 0.833619 0.518507 0.826242
O O3 0.649188 0.501832 0.843532
O O4 0.834044 0.663833 0.875158
O O5 0.005646 0.684634 0.410254
O O6 0.976015 0.794629 0.473903
O O7 0.097229 0.886889 0.389996
O O8 0.501222 0.002443 0.250000
O O9 0.364380 0.881869 0.188977
O O10 0.467228 0.104020 0.183331
O O11 0.773286 0.163778 0.847111
O O12 0.675373 0.276242 0.836070
O O13 0.213402 0.426804 0.250000
O O14 0.286542 0.308861 0.213995
O O15 0.414569 0.497170 0.258470
O O16 0.755438 0.377719 0.416667
O O17 0.676916 0.207388 0.470101
O O18 0.453300 0.453300 0.833334
#
# Coordination Sequence:
#
# PCOD9583301 Si02
#       8
#    12  12  12  12  12  12  12  12
#     4   8  17  32  52  79 103 149 195 236 287 342
#     4   9  17  29  53  75 111 147 195 246 294 349
#     4   9  19  35  53  80 112 149 194 257 297 343
#     4  10  21  35  58  81 111 153 201 254 293 346
#     4   9  17  32  53  81 118 155 184 231 297 372
#     4   9  16  31  50  81 107 153 195 241 303 351
#     4  11  23  38  54  84 117 158 199 246 298 358
#     4  11  21  35  51  78 120 157 190 223 287 367
#
# _framework density 18.839524000000001
#
# number of rings (size 3 to 8) (size 9 to 14) (size 15 to 20)
#    0.000    2.750    0.000    4.125    3.500    0.000 
#    6.750    0.000    0.000    0.000    0.000    7.000 
#    0.000    0.000    0.000    0.000    0.000    0.000 
#
# Total GULP energy -535312.452000 kJ/mol
# GULP energy per Si atom -5576.171375 kJ/mol
# Density = 1.879664 g / cm^3
# Si number density = 18.839524 Si / 1000 Ang^3
#
#
#
# Elastic Constant Matrix: (Units=GPa)
#
#
# Indices 1 2 3 4 5 6 
#
# 1 58.5872 23.2024 47.9502 0.0000 0.0000 0.0000
# 2 23.2024 58.5872 47.9502 0.0000 0.0000 0.0000
# 3 47.9502 47.9502 105.5013 0.0000 0.0000 0.0000
# 4 0.0000 0.0000 0.0000 16.8491 0.0000 0.0000
# 5 0.0000 0.0000 0.0000 0.0000 16.8491 0.0000
# 6 0.0000 0.0000 0.0000 0.0000 0.0000 17.6924
#
#
#
# Elastic Compliance Matrix: (Units=1/GPa)
#
#
# Indices 1 2 3 4 5 6 
#
# 1 0.027218 -0.001042 -0.011897 0.000000 0.000000 0.000000
# 2 -0.001042 0.027218 -0.011897 0.000000 0.000000 0.000000
# 3 -0.011897 -0.011897 0.020293 0.000000 0.000000 0.000000
# 4 0.000000 0.000000 0.000000 0.059350 0.000000 0.000000
# 5 0.000000 0.000000 0.000000 0.000000 0.059350 0.000000
# 6 0.000000 0.000000 0.000000 0.000000 0.000000 0.056521
#
#
# Mechanical properties :
#
#
# Convention : Reuss Voigt Hill
#
# Bulk Modulus (GPa) = 39.90901 51.20904 45.55903
# Shear Modulus (GPa) = 16.23500 17.18297 16.70899
#
# Velocity S-wave (km/s) = 2.93875 3.02333 2.98134
# Velocity P-wave (km/s) = 5.72229 6.27918 6.00719
#
# Compressibility (1/GPa) = 0.02505700
#
# Stress axis : x y z
#
# Youngs Moduli (GPa) = 36.73995 36.73995 49.27851
#
# Poissons Ratio (x) = 0.03830 0.58626
# Poissons Ratio (y) = 0.03830 0.58626
# Poissons Ratio (z) = 0.43709 0.43709
#
# Static dielectric constant tensor:
#      x y z
#    x 1.674390 0.000000 0.000000 
#    y 0.000000 1.674390 0.000000 
#    z 0.000000 0.000000 1.700770 
# 
# From -- ./inp_files/9667.got.cif
#   From: 2010.05.17/outbox.cif.g08.bks.cpg/sg179_5_cif.got.tgz:9667.got - 2010.05.20 11:37:33.
