data_PCOD9583749
_publ_section_title
;
Structure prediction by ZEFSAII (Michael W. Deem and Ramdas Pophale) SiO2 
 PCOD9583749
Probable space group: P 62 2 2
;
_chemical_formula_sum "Si O2"
_cell_formula_units_Z 90
_cell_length_a 29.233807
_cell_length_b 29.233807
_cell_length_c 7.447871
_cell_angle_alpha 90.000000
_cell_angle_beta 90.000000
_cell_angle_gamma 120.000000
_cell_volume 5512.308669
_symmetry_space_group_name_H-M "P 62 2 2"
_symmetry_group_IT_number 180
_symmetry_cell_setting 'hexagonal'
loop_
_space_group_symop_operation_xyz
x,y,z
x-y,x,1/3+z
-y,x-y,2/3+z
-x,-y,z
-x+y,-x,1/3+z
y,-x+y,2/3+z
x-y,-y,-z
-x,-x+y,1/3-z
y,x,2/3-z
-y,-x,2/3-z
-x+y,y,-z
x,x-y,1/3-z
loop_
_atom_site_type_symbol
_atom_site_label
_atom_site_fract_x
_atom_site_fract_y
_atom_site_fract_z
Si Si1 0.942463 0.640146 0.227232
Si Si2 0.408755 0.466735 0.814715
Si Si3 0.913164 0.407894 0.738083
Si Si4 0.256426 0.852918 0.296306
Si Si5 0.432926 0.628223 0.109886
Si Si6 0.685592 0.371183 0.500000
Si Si7 0.317111 0.937169 0.981837
Si Si8 0.519277 0.353682 0.717887
O O1 0.943895 0.588534 0.157979
O O2 0.929146 0.629728 0.438856
O O3 0.000000 0.688204 0.166667
O O4 0.893261 0.634296 0.116775
O O5 0.455105 0.455105 0.833334
O O6 0.410906 0.482974 0.611428
O O7 0.401569 0.506052 0.942612
O O8 0.932897 0.466449 0.666667
O O9 0.849615 0.378574 0.751564
O O10 0.932814 0.370155 0.653994
O O11 0.200508 0.799493 0.333334
O O12 0.301565 0.835502 0.322079
O O13 0.274360 0.891236 0.115788
O O14 0.410438 0.663209 0.185594
O O15 0.465453 0.651685 0.923345
O O16 0.380429 0.573234 0.057956
O O17 0.667984 0.332017 0.333334
O O18 0.336707 0.000000 0.000000
#
# Coordination Sequence:
#
# PCOD9583749 Si02
#       8
#    12  12  12  12  12   6  12  12
#     4   9  17  36  58  76 107 142 176 212 260 320
#     4   8  16  31  52  71  95 131 161 194 248 315
#     4  10  20  34  49  74 103 128 163 217 263 323
#     4  11  23  36  59  88 109 141 180 227 275 323
#     4  10  21  39  54  75 101 127 167 213 275 334
#     4  12  26  42  66  82  92 126 177 220 276 354
#     4  11  22  37  57  79 107 148 185 216 273 344
#     4   9  19  36  56  74 108 134 162 210 269 327
#
# _framework density 16.327096999999998
#
# number of rings (size 3 to 8) (size 9 to 14) (size 15 to 20)
#    0.000    2.133    1.333    2.800    1.867    3.467 
#    2.400    4.667    0.000    0.000    0.000    0.000 
#    0.000    0.000    0.000    0.000    0.000    0.000 
#
# Total GULP energy -501197.748515 kJ/mol
# GULP energy per Si atom -5568.863872 kJ/mol
# Density = 1.628994 g / cm^3
# Si number density = 16.327097 Si / 1000 Ang^3
#
#
#
# Elastic Constant Matrix: (Units=GPa)
#
#
# Indices 1 2 3 4 5 6 
#
# 1 51.9105 61.7171 17.6851 0.0000 0.0000 0.0000
# 2 61.7171 51.9105 17.6851 0.0000 0.0000 0.0000
# 3 17.6851 17.6851 60.0107 0.0000 0.0000 0.0000
# 4 0.0000 0.0000 0.0000 12.4658 0.0000 0.0000
# 5 0.0000 0.0000 0.0000 0.0000 12.4658 0.0000
# 6 0.0000 0.0000 0.0000 0.0000 0.0000 -4.9033
#
#
#
# Elastic Compliance Matrix: (Units=1/GPa)
#
#
# Indices 1 2 3 4 5 6 
#
# 1 -0.046141 0.055831 -0.002856 0.000000 0.000000 0.000000
# 2 0.055831 -0.046141 -0.002856 0.000000 0.000000 0.000000
# 3 -0.002856 -0.002856 0.018347 0.000000 0.000000 0.000000
# 4 0.000000 0.000000 0.000000 0.080219 0.000000 0.000000
# 5 0.000000 0.000000 0.000000 0.000000 0.080219 0.000000
# 6 0.000000 0.000000 0.000000 0.000000 0.000000 -0.203944
#
#
# Mechanical properties :
#
#
# Convention : Reuss Voigt Hill
#
# Bulk Modulus (GPa) = 38.01733 39.77849 38.89791
# Shear Modulus (GPa) = -23.93341 8.45529 -7.73906
#
# Velocity S-wave (km/s) = -3.83282 2.27814 -2.17952
# Velocity P-wave (km/s) = 1.93597 5.59788 4.18833
#
# Compressibility (1/GPa) = 0.02630380
#
# Stress axis : x y z
#
# Youngs Moduli (GPa) = -21.67256 -21.67256 54.50567
#
# Poissons Ratio (x) = 1.21000 0.15564
# Poissons Ratio (y) = 1.21000 0.15564
# Poissons Ratio (z) = -0.06189 -0.06189
#
# Static dielectric constant tensor:
#      x y z
#    x 1.568970 0.000000 0.000000 
#    y 0.000000 1.568970 0.000000 
#    z 0.000000 0.000000 1.643430 
# 
# From -- ./inp_files/3502.got.cif
#   From: 2010.05.17/outbox.cif.g08.bks.cpg/sg180_2_cif.got.tgz:3502.got - 2010.05.20 11:43:55.
