data_PCOD9583491
_publ_section_title
;
Structure prediction by ZEFSAII (Michael W. Deem and Ramdas Pophale) SiO2 
 PCOD9583491
Probable space group: P 65 2 2
;
_chemical_formula_sum "Si O2"
_cell_formula_units_Z 84
_cell_length_a 18.070695
_cell_length_b 18.070695
_cell_length_c 14.478858
_cell_angle_alpha 90.000000
_cell_angle_beta 90.000000
_cell_angle_gamma 120.000000
_cell_volume 4094.629889
_symmetry_space_group_name_H-M "P 65 2 2"
_symmetry_group_IT_number 179
_symmetry_cell_setting 'hexagonal'
loop_
_space_group_symop_operation_xyz
x,y,z
x-y,x,5/6+z
-y,x-y,2/3+z
-x,-y,1/2+z
-x+y,-x,1/3+z
y,-x+y,1/6+z
x-y,-y,-z
-x,-x+y,1/3-z
y,x,2/3-z
-y,-x,1/6-z
-x+y,y,1/2-z
x,x-y,5/6-z
loop_
_atom_site_type_symbol
_atom_site_label
_atom_site_fract_x
_atom_site_fract_y
_atom_site_fract_z
Si Si1 0.012589 0.249910 0.901424
Si Si2 0.227138 0.098417 0.516556
Si Si3 0.644877 0.946367 0.094128
Si Si4 0.145406 0.550157 0.019419
Si Si5 0.521529 0.689718 0.349255
Si Si6 0.083293 0.287737 0.618879
Si Si7 0.265618 0.606117 0.516607
O O1 0.110511 0.277737 0.880230
O O2 0.965130 0.154613 0.944058
O O3 0.955328 0.241427 0.814414
O O4 0.004496 0.309648 0.978570
O O5 0.265999 0.133000 0.416667
O O6 0.303332 0.103904 0.577634
O O7 0.158274 0.000000 0.500000
O O8 0.546070 0.891456 0.114842
O O9 0.661965 0.000000 0.000000
O O10 0.123691 0.602349 0.093232
O O11 0.115853 0.557927 0.916667
O O12 0.247726 0.591552 0.012474
O O13 0.509873 0.754937 0.416667
O O14 0.621925 0.732086 0.332405
O O15 0.470799 0.675225 0.252444
O O16 0.000000 0.210086 0.666667
O O17 0.309503 0.690498 0.583334
O O18 0.229933 0.614967 0.416667
#
# Coordination Sequence:
#
# PCOD9583491 Si02
#       7
#    12  12  12  12  12  12  12
#     4  12  23  46  70 100 136 178 234 280 354 427
#     4  11  20  41  71 100 135 179 225 281 351 428
#     4  11  24  44  67  97 135 177 223 277 353 423
#     4  11  23  40  70  95 131 179 231 281 339 415
#     4  12  23  44  70  97 135 188 230 285 353 414
#     4  12  28  45  70  98 135 182 233 287 348 419
#     4  11  19  39  63  99 133 169 226 281 339 399
#
# _framework density 20.514675
#
# number of rings (size 3 to 8) (size 9 to 14) (size 15 to 20)
#    0.000    0.571    8.571    2.143    2.000    0.571 
#    5.143    4.286    0.000    0.000    0.000    0.000 
#    0.000    0.000    0.000    0.000    0.000    0.000 
#
# Total GULP energy -468717.185229 kJ/mol
# GULP energy per Si atom -5579.966491 kJ/mol
# Density = 2.046798 g / cm^3
# Si number density = 20.514675 Si / 1000 Ang^3
#
#
#
# Elastic Constant Matrix: (Units=GPa)
#
#
# Indices 1 2 3 4 5 6 
#
# 1 65.1457 47.1760 28.9014 0.0000 0.0000 0.0000
# 2 47.1760 65.1457 28.9014 0.0000 0.0000 0.0000
# 3 28.9014 28.9014 125.2803 0.0000 0.0000 0.0000
# 4 0.0000 0.0000 0.0000 29.4154 0.0000 0.0000
# 5 0.0000 0.0000 0.0000 0.0000 29.4154 0.0000
# 6 0.0000 0.0000 0.0000 0.0000 0.0000 8.9848
#
#
#
# Elastic Compliance Matrix: (Units=1/GPa)
#
#
# Indices 1 2 3 4 5 6 
#
# 1 0.032876 -0.022773 -0.002331 0.000000 0.000000 0.000000
# 2 -0.022773 0.032876 -0.002331 0.000000 0.000000 0.000000
# 3 -0.002331 -0.002331 0.009057 0.000000 0.000000 0.000000
# 4 0.000000 0.000000 0.000000 0.033996 0.000000 0.000000
# 5 0.000000 0.000000 0.000000 0.000000 0.033996 0.000000
# 6 0.000000 0.000000 0.000000 0.000000 0.000000 0.111299
#
#
# Mechanical properties :
#
#
# Convention : Reuss Voigt Hill
#
# Bulk Modulus (GPa) = 50.15077 51.72548 50.93813
# Shear Modulus (GPa) = 15.84208 23.60264 19.72236
#
# Velocity S-wave (km/s) = 2.78192 3.39562 3.10397
# Velocity P-wave (km/s) = 5.90069 6.37513 6.14249
#
# Compressibility (1/GPa) = 0.01993987
#
# Stress axis : x y z
#
# Youngs Moduli (GPa) = 30.41750 30.41750 110.40707
#
# Poissons Ratio (x) = 0.69271 0.25731
# Poissons Ratio (y) = 0.69271 0.25731
# Poissons Ratio (z) = 0.07089 0.07089
#
# Static dielectric constant tensor:
#      x y z
#    x 1.723010 0.000000 0.000000 
#    y 0.000000 1.723010 0.000000 
#    z 0.000000 0.000000 1.851350 
# 
# From -- ./inp_files/6130.got.cif
#   From: 2010.05.17/outbox.cif.g08.bks.cpg/sg179_4_cif.got.tgz:6130.got - 2010.05.20 11:37:33.
