data_PCOD9583654
_publ_section_title
;
Structure prediction by ZEFSAII (Michael W. Deem and Ramdas Pophale) SiO2 
 PCOD9583654
Probable space group: P 62 2 2
;
_chemical_formula_sum "Si O2"
_cell_formula_units_Z 90
_cell_length_a 27.194086
_cell_length_b 27.194086
_cell_length_c 7.459522
_cell_angle_alpha 90.000000
_cell_angle_beta 90.000000
_cell_angle_gamma 120.000000
_cell_volume 4777.388548
_symmetry_space_group_name_H-M "P 62 2 2"
_symmetry_group_IT_number 180
_symmetry_cell_setting 'hexagonal'
loop_
_space_group_symop_operation_xyz
x,y,z
x-y,x,1/3+z
-y,x-y,2/3+z
-x,-y,z
-x+y,-x,1/3+z
y,-x+y,2/3+z
x-y,-y,-z
-x,-x+y,1/3-z
y,x,2/3-z
-y,-x,2/3-z
-x+y,y,-z
x,x-y,1/3-z
loop_
_atom_site_type_symbol
_atom_site_label
_atom_site_fract_x
_atom_site_fract_y
_atom_site_fract_z
Si Si1 0.942329 0.695841 0.757142
Si Si2 0.460050 0.121570 0.386084
Si Si3 0.538042 0.169253 0.870715
Si Si4 0.830599 0.652700 0.220354
Si Si5 0.721293 0.657396 0.863590
Si Si6 0.238299 0.477271 0.783585
Si Si7 0.934602 0.576724 0.664150
Si Si8 0.427283 0.854565 0.500000
O O1 0.884122 0.692770 0.703303
O O2 0.936061 0.633754 0.730352
O O3 0.000000 0.741278 0.666667
O O4 0.945079 0.698541 0.971250
O O5 0.411304 0.100816 0.538058
O O6 0.488683 0.189975 0.376807
O O7 0.431591 0.090139 0.203258
O O8 0.509766 0.108650 0.424689
O O9 0.519094 0.214703 0.927784
O O10 0.563102 0.177276 0.668872
O O11 0.585375 0.170750 0.000000
O O12 0.479993 0.108556 0.894706
O O13 0.894057 0.666870 0.267338
O O14 0.785076 0.588096 0.274340
O O15 0.826275 0.652550 0.000000
O O16 0.672274 0.672274 0.833334
O O17 0.238700 0.477399 0.000000
O O18 0.000000 0.591813 0.666667
#
# Coordination Sequence:
#
# PCOD9583654 Si02
#       8
#    12  12  12  12  12  12  12   6
#     4  10  18  32  52  78 113 149 186 243 287 333
#     4  11  23  40  63  86 108 159 190 234 305 363
#     4  12  24  43  64  88 121 150 190 248 306 363
#     4   8  16  30  53  78 101 147 187 222 289 340
#     4  10  19  35  54  81 111 144 195 240 285 355
#     4  10  19  39  68  83 110 146 193 243 289 367
#     4  11  23  40  58  86 122 152 189 242 290 356
#     4  12  24  42  61  88 114 150 194 236 308 372
#
# _framework density 18.838743999999998
#
# number of rings (size 3 to 8) (size 9 to 14) (size 15 to 20)
#    0.000    1.600    4.000    3.200    0.000    0.800 
#    0.000    4.333    2.933    0.000    0.000    0.000 
#    0.000    0.000    0.000    0.000    0.000   18.000 
#
# Total GULP energy -501502.541287 kJ/mol
# GULP energy per Si atom -5572.250459 kJ/mol
# Density = 1.879587 g / cm^3
# Si number density = 18.838744 Si / 1000 Ang^3
#
#
#
# Elastic Constant Matrix: (Units=GPa)
#
#
# Indices 1 2 3 4 5 6 
#
# 1 86.5454 67.1068 10.6791 0.0000 0.0000 0.0000
# 2 67.1068 86.5454 10.6791 0.0000 0.0000 0.0000
# 3 10.6791 10.6791 61.3844 0.0000 0.0000 0.0000
# 4 0.0000 0.0000 0.0000 15.3465 0.0000 0.0000
# 5 0.0000 0.0000 0.0000 0.0000 15.3465 0.0000
# 6 0.0000 0.0000 0.0000 0.0000 0.0000 9.7193
#
#
#
# Elastic Compliance Matrix: (Units=1/GPa)
#
#
# Indices 1 2 3 4 5 6 
#
# 1 0.029057 -0.022387 -0.001160 0.000000 0.000000 0.000000
# 2 -0.022387 0.029057 -0.001160 0.000000 0.000000 0.000000
# 3 -0.001160 -0.001160 0.016694 0.000000 0.000000 0.000000
# 4 0.000000 0.000000 0.000000 0.065162 0.000000 0.000000
# 5 0.000000 0.000000 0.000000 0.000000 0.065162 0.000000
# 6 0.000000 0.000000 0.000000 0.000000 0.000000 0.102888
#
#
# Mechanical properties :
#
#
# Convention : Reuss Voigt Hill
#
# Bulk Modulus (GPa) = 39.38202 45.71166 42.54684
# Shear Modulus (GPa) = 13.66496 17.81646 15.74071
#
# Velocity S-wave (km/s) = 2.69618 3.07862 2.89372
# Velocity P-wave (km/s) = 5.53559 6.07903 5.81366
#
# Compressibility (1/GPa) = 0.02539230
#
# Stress axis : x y z
#
# Youngs Moduli (GPa) = 34.41537 34.41537 59.90002
#
# Poissons Ratio (x) = 0.77047 0.06950
# Poissons Ratio (y) = 0.77047 0.06950
# Poissons Ratio (z) = 0.03993 0.03993
#
# Static dielectric constant tensor:
#      x y z
#    x 1.693830 0.000000 0.000000 
#    y 0.000000 1.693830 0.000000 
#    z 0.000000 0.000000 1.848670 
# 
# From -- ./inp_files/3511.got.cif
#   From: 2010.05.17/outbox.cif.g08.bks.cpg/sg180_2_cif.got.tgz:3511.got - 2010.05.20 11:43:55.
