data_PCOD9583363
_publ_section_title
;
Structure prediction by ZEFSAII (Michael W. Deem and Ramdas Pophale) SiO2 
 PCOD9583363
Probable space group: P 65 2 2
;
_chemical_formula_sum "Si O2"
_cell_formula_units_Z 54
_cell_length_a 25.119797
_cell_length_b 25.119797
_cell_length_c 4.957645
_cell_angle_alpha 90.000000
_cell_angle_beta 90.000000
_cell_angle_gamma 120.000000
_cell_volume 2709.182788
_symmetry_space_group_name_H-M "P 65 2 2"
_symmetry_group_IT_number 179
_symmetry_cell_setting 'hexagonal'
loop_
_space_group_symop_operation_xyz
x,y,z
x-y,x,5/6+z
-y,x-y,2/3+z
-x,-y,1/2+z
-x+y,-x,1/3+z
y,-x+y,1/6+z
x-y,-y,-z
-x,-x+y,1/3-z
y,x,2/3-z
-y,-x,1/6-z
-x+y,y,1/2-z
x,x-y,5/6-z
loop_
_atom_site_type_symbol
_atom_site_label
_atom_site_fract_x
_atom_site_fract_y
_atom_site_fract_z
Si Si1 0.111371 0.298162 0.499028
Si Si2 0.633727 0.487904 0.045511
Si Si3 0.774291 0.326586 0.893483
Si Si4 0.692489 0.626954 0.209823
Si Si5 0.257632 0.257632 0.333334
O O1 0.156537 0.313074 0.250000
O O2 0.106051 0.357057 0.589554
O O3 0.043005 0.249342 0.384755
O O4 0.139350 0.278699 0.750000
O O5 0.562083 0.437918 0.083334
O O6 0.670742 0.465821 0.249794
O O7 0.658084 0.558013 0.112015
O O8 0.645377 0.482094 0.732363
O O9 0.750124 0.375062 0.916667
O O10 0.730707 0.269294 0.083334
O O11 0.644175 0.644175 0.333334
O O12 0.726634 0.679859 0.986133
#
# Coordination Sequence:
#
# PCOD9583363 Si02
#       5
#    12  12  12  12   6
#     4  11  22  38  62  92 123 166 209 252 306 362
#     4  10  23  41  56  82 115 143 195 255 311 380
#     4  10  22  39  59  84 110 144 183 242 316 387
#     4  10  23  40  61  85 119 160 206 257 310 365
#     4  10  22  42  58  92 130 158 208 262 300 358
#
# _framework density 19.932212
#
# number of rings (size 3 to 8) (size 9 to 14) (size 15 to 20)
#    0.000    1.778    2.222    0.667    6.222    5.333 
#    2.000    0.000    0.000    0.000    0.000    0.000 
#    0.000    0.000    0.000    0.000   12.667   26.889 
#
# Total GULP energy -300891.186847 kJ/mol
# GULP energy per Si atom -5572.059016 kJ/mol
# Density = 1.988685 g / cm^3
# Si number density = 19.932212 Si / 1000 Ang^3
#
#
#
# Elastic Constant Matrix: (Units=GPa)
#
#
# Indices 1 2 3 4 5 6 
#
# 1 71.3353 57.3508 29.9859 0.0000 0.0000 0.0000
# 2 57.3508 71.3353 29.9859 0.0000 0.0000 0.0000
# 3 29.9859 29.9859 118.3174 0.0000 0.0000 0.0000
# 4 0.0000 0.0000 0.0000 27.6143 0.0000 0.0000
# 5 0.0000 0.0000 0.0000 0.0000 27.6143 0.0000
# 6 0.0000 0.0000 0.0000 0.0000 0.0000 6.9923
#
#
#
# Elastic Compliance Matrix: (Units=1/GPa)
#
#
# Indices 1 2 3 4 5 6 
#
# 1 0.040160 -0.031348 -0.002233 0.000000 0.000000 0.000000
# 2 -0.031348 0.040160 -0.002233 0.000000 0.000000 0.000000
# 3 -0.002233 -0.002233 0.009584 0.000000 0.000000 0.000000
# 4 0.000000 0.000000 0.000000 0.036213 0.000000 0.000000
# 5 0.000000 0.000000 0.000000 0.000000 0.036213 0.000000
# 6 0.000000 0.000000 0.000000 0.000000 0.000000 0.143015
#
#
# Mechanical properties :
#
#
# Convention : Reuss Voigt Hill
#
# Bulk Modulus (GPa) = 54.72184 55.07036 54.89610
# Shear Modulus (GPa) = 13.05262 22.02186 17.53724
#
# Velocity S-wave (km/s) = 2.56178 3.32752 2.96943
# Velocity P-wave (km/s) = 6.02195 6.51552 6.27359
#
# Compressibility (1/GPa) = 0.01827424
#
# Stress axis : x y z
#
# Youngs Moduli (GPa) = 24.90064 24.90064 104.34300
#
# Poissons Ratio (x) = 0.78059 0.23302
# Poissons Ratio (y) = 0.78059 0.23302
# Poissons Ratio (z) = 0.05561 0.05561
#
# Static dielectric constant tensor:
#      x y z
#    x 1.727820 0.000000 0.000000 
#    y 0.000000 1.727820 0.000000 
#    z 0.000000 0.000000 1.799180 
# 
# From -- ./inp_files/1183.got.cif
#   From: 2010.05.17/outbox.cif.g08.bks.cpg/sg179_1_cif.got.tgz:1183.got - 2010.05.20 11:37:33.
