data_PCOD9583630
_publ_section_title
;
Structure prediction by ZEFSAII (Michael W. Deem and Ramdas Pophale) SiO2 
 PCOD9583630
Probable space group: P 62 2 2
;
_chemical_formula_sum "Si O2"
_cell_formula_units_Z 84
_cell_length_a 15.863597
_cell_length_b 15.863597
_cell_length_c 22.940477
_cell_angle_alpha 90.000000
_cell_angle_beta 90.000000
_cell_angle_gamma 120.000000
_cell_volume 4999.613276
_symmetry_space_group_name_H-M "P 62 2 2"
_symmetry_group_IT_number 180
_symmetry_cell_setting 'hexagonal'
loop_
_space_group_symop_operation_xyz
x,y,z
x-y,x,1/3+z
-y,x-y,2/3+z
-x,-y,z
-x+y,-x,1/3+z
y,-x+y,2/3+z
x-y,-y,-z
-x,-x+y,1/3-z
y,x,2/3-z
-y,-x,2/3-z
-x+y,y,-z
x,x-y,1/3-z
loop_
_atom_site_type_symbol
_atom_site_label
_atom_site_fract_x
_atom_site_fract_y
_atom_site_fract_z
Si Si1 0.555342 0.711344 0.614635
Si Si2 0.341190 0.409723 0.487495
Si Si3 0.727748 0.048134 0.725755
Si Si4 0.580209 0.485086 0.677985
Si Si5 0.250550 0.707048 0.625610
Si Si6 0.346711 0.240805 0.305103
Si Si7 0.630706 0.478786 0.169964
O O1 0.544719 0.772360 0.666667
O O2 0.668049 0.737212 0.611953
O O3 0.487069 0.598748 0.632704
O O4 0.512801 0.707203 0.550174
O O5 0.272777 0.345884 0.539863
O O6 0.289615 0.385484 0.425027
O O7 0.387594 0.522471 0.506181
O O8 0.429879 0.386738 0.485821
O O9 0.656293 0.075584 0.690435
O O10 0.834019 0.123271 0.701194
O O11 0.500000 0.500000 0.712341
O O12 0.646599 0.452508 0.711633
O O13 0.260360 0.630180 0.666667
O O14 0.170822 0.728431 0.655702
O O15 0.213538 0.667654 0.561681
O O16 0.283398 0.283398 0.333334
#
# Coordination Sequence:
#
# PCOD9583630 Si02
#       7
#    12  12  12  12  12  12  12
#     4  10  19  36  56  71  93 136 193 235 262 300
#     4  10  17  31  50  77 113 150 170 199 258 344
#     4   9  19  33  52  73 101 140 183 216 259 320
#     4   9  18  34  50  67  94 135 179 223 258 303
#     4  11  20  30  47  79 114 142 169 210 273 337
#     4  11  20  30  48  78 118 147 169 207 268 336
#     4  10  19  30  50  78 113 140 172 214 270 329
#
# _framework density 16.801299
#
# number of rings (size 3 to 8) (size 9 to 14) (size 15 to 20)
#    0.000    2.000    4.286    0.857    0.000    0.286 
#    0.000    2.857    0.000   10.714    0.000    0.000 
#    0.000    2.571    0.000    0.000    0.000    0.000 
#
# Total GULP energy -467761.979672 kJ/mol
# GULP energy per Si atom -5568.594996 kJ/mol
# Density = 1.676306 g / cm^3
# Si number density = 16.801299 Si / 1000 Ang^3
#
#
#
# Elastic Constant Matrix: (Units=GPa)
#
#
# Indices 1 2 3 4 5 6 
#
# 1 67.9399 27.3911 35.3950 0.0000 0.0000 0.0000
# 2 27.3911 67.9399 35.3950 0.0000 0.0000 0.0000
# 3 35.3950 35.3950 93.1855 0.0000 0.0000 0.0000
# 4 0.0000 0.0000 0.0000 17.2359 0.0000 0.0000
# 5 0.0000 0.0000 0.0000 0.0000 17.2359 0.0000
# 6 0.0000 0.0000 0.0000 0.0000 0.0000 20.2744
#
#
#
# Elastic Compliance Matrix: (Units=1/GPa)
#
#
# Indices 1 2 3 4 5 6 
#
# 1 0.019636 -0.005025 -0.005550 0.000000 0.000000 0.000000
# 2 -0.005025 0.019636 -0.005550 0.000000 0.000000 0.000000
# 3 -0.005550 -0.005550 0.014947 0.000000 0.000000 0.000000
# 4 0.000000 0.000000 0.000000 0.058018 0.000000 0.000000
# 5 0.000000 0.000000 0.000000 0.000000 0.058018 0.000000
# 6 0.000000 0.000000 0.000000 0.000000 0.000000 0.049323
#
#
# Mechanical properties :
#
#
# Convention : Reuss Voigt Hill
#
# Bulk Modulus (GPa) = 45.51644 47.26971 46.39307
# Shear Modulus (GPa) = 19.29364 19.67484 19.48424
#
# Velocity S-wave (km/s) = 3.39240 3.42575 3.40911
# Velocity P-wave (km/s) = 6.51877 6.62143 6.57030
#
# Compressibility (1/GPa) = 0.02197009
#
# Stress axis : x y z
#
# Youngs Moduli (GPa) = 50.92626 50.92626 66.90221
#
# Poissons Ratio (x) = 0.25593 0.37129
# Poissons Ratio (y) = 0.25593 0.37129
# Poissons Ratio (z) = 0.28262 0.28262
#
# Static dielectric constant tensor:
#      x y z
#    x 1.595170 0.000000 0.000000 
#    y 0.000000 1.595170 0.000000 
#    z 0.000000 0.000000 1.566260 
# 
# From -- ./inp_files/10265.got.cif
#   From: 2010.05.17/outbox.cif.g08.bks.cpg/sg180_6_cif.got.tgz:10265.got - 2010.05.20 11:43:55.
