data_PCOD9583299
_publ_section_title
;
Structure prediction by ZEFSAII (Michael W. Deem and Ramdas Pophale) SiO2 
 PCOD9583299
Probable space group: P 65 2 2
;
_chemical_formula_sum "Si O2"
_cell_formula_units_Z 42
_cell_length_a 22.760693
_cell_length_b 22.760693
_cell_length_c 5.223708
_cell_angle_alpha 90.000000
_cell_angle_beta 90.000000
_cell_angle_gamma 120.000000
_cell_volume 2343.583793
_symmetry_space_group_name_H-M "P 65 2 2"
_symmetry_group_IT_number 179
_symmetry_cell_setting 'hexagonal'
loop_
_space_group_symop_operation_xyz
x,y,z
x-y,x,5/6+z
-y,x-y,2/3+z
-x,-y,1/2+z
-x+y,-x,1/3+z
y,-x+y,1/6+z
x-y,-y,-z
-x,-x+y,1/3-z
y,x,2/3-z
-y,-x,1/6-z
-x+y,y,1/2-z
x,x-y,5/6-z
loop_
_atom_site_type_symbol
_atom_site_label
_atom_site_fract_x
_atom_site_fract_y
_atom_site_fract_z
Si Si1 0.467103 0.856544 0.994108
Si Si2 0.600909 0.000000 0.000000
Si Si3 0.735206 0.035741 0.748041
Si Si4 0.231626 0.463252 0.250000
Si Si5 0.811059 0.188942 0.583334
O O1 0.427749 0.855498 0.250000
O O2 0.418798 0.837596 0.750000
O O3 0.495438 0.804564 0.009681
O O4 0.529813 0.932950 0.951375
O O5 0.657376 0.019863 0.778182
O O6 0.781709 0.115111 0.707170
O O7 0.741614 0.000000 0.500000
O O8 0.742922 0.000000 0.000000
O O9 0.189694 0.421164 0.502319
#
# Coordination Sequence:
#
# PCOD9583299 Si02
#       5
#    12   6  12   6   6
#     4  12  26  41  62  86 113 152 198 260 319 372
#     4  10  22  40  60  88 118 140 200 258 318 374
#     4  10  21  34  59  90 119 152 197 244 298 375
#     4  12  24  44  62  82 116 154 208 239 323 398
#     4  12  20  40  66  86 120 164 192 251 309 388
#
# _framework density 17.921271000000001
#
# number of rings (size 3 to 8) (size 9 to 14) (size 15 to 20)
#    0.857    0.000    2.857    6.000    4.000    0.000 
#    2.571    0.000    0.000    0.000    0.000    0.000 
#    0.000    0.000    0.000    2.571    0.000    2.429 
#
# Total GULP energy -234195.499947 kJ/mol
# GULP energy per Si atom -5576.083332 kJ/mol
# Density = 1.788048 g / cm^3
# Si number density = 17.921271 Si / 1000 Ang^3
#
#
#
# Elastic Constant Matrix: (Units=GPa)
#
#
# Indices 1 2 3 4 5 6 
#
# 1 90.4580 48.3284 33.7869 0.0000 0.0000 0.0000
# 2 48.3284 90.4580 33.7869 0.0000 0.0000 0.0000
# 3 33.7869 33.7869 136.0329 0.0000 0.0000 0.0000
# 4 0.0000 0.0000 0.0000 29.9704 0.0000 0.0000
# 5 0.0000 0.0000 0.0000 0.0000 29.9704 0.0000
# 6 0.0000 0.0000 0.0000 0.0000 0.0000 21.0648
#
#
#
# Elastic Compliance Matrix: (Units=1/GPa)
#
#
# Indices 1 2 3 4 5 6 
#
# 1 0.015966 -0.007770 -0.002036 0.000000 0.000000 0.000000
# 2 -0.007770 0.015966 -0.002036 0.000000 0.000000 0.000000
# 3 -0.002036 -0.002036 0.008362 0.000000 0.000000 0.000000
# 4 0.000000 0.000000 0.000000 0.033366 0.000000 0.000000
# 5 0.000000 0.000000 0.000000 0.000000 0.033366 0.000000
# 6 0.000000 0.000000 0.000000 0.000000 0.000000 0.047472
#
#
# Mechanical properties :
#
#
# Convention : Reuss Voigt Hill
#
# Bulk Modulus (GPa) = 60.19632 60.97257 60.58444
# Shear Modulus (GPa) = 27.21525 29.60425 28.40975
#
# Velocity S-wave (km/s) = 3.90115 4.06877 3.98584
# Velocity P-wave (km/s) = 7.34535 7.49463 7.42037
#
# Compressibility (1/GPa) = 0.01661231
#
# Stress axis : x y z
#
# Youngs Moduli (GPa) = 62.63157 62.63157 119.58236
#
# Poissons Ratio (x) = 0.48664 0.24345
# Poissons Ratio (y) = 0.48664 0.24345
# Poissons Ratio (z) = 0.12751 0.12751
#
# Static dielectric constant tensor:
#      x y z
#    x 1.600030 0.000000 0.000000 
#    y 0.000000 1.600030 0.000000 
#    z 0.000000 0.000000 1.658830 
# 
# From -- ./inp_files/787.got.cif
#   From: 2010.05.17/outbox.cif.g08.bks.cpg/sg179_1_cif.got.tgz:787.got - 2010.05.20 11:37:33.
