data_PCOD9583788
_publ_section_title
;
Structure prediction by ZEFSAII (Michael W. Deem and Ramdas Pophale) SiO2 
 PCOD9583788
Probable space group: P 62 2 2
;
_chemical_formula_sum "Si O2"
_cell_formula_units_Z 72
_cell_length_a 17.396761
_cell_length_b 17.396761
_cell_length_c 18.744150
_cell_angle_alpha 90.000000
_cell_angle_beta 90.000000
_cell_angle_gamma 120.000000
_cell_volume 4912.846296
_symmetry_space_group_name_H-M "P 62 2 2"
_symmetry_group_IT_number 180
_symmetry_cell_setting 'hexagonal'
loop_
_space_group_symop_operation_xyz
x,y,z
x-y,x,1/3+z
-y,x-y,2/3+z
-x,-y,z
-x+y,-x,1/3+z
y,-x+y,2/3+z
x-y,-y,-z
-x,-x+y,1/3-z
y,x,2/3-z
-y,-x,2/3-z
-x+y,y,-z
x,x-y,1/3-z
loop_
_atom_site_type_symbol
_atom_site_label
_atom_site_fract_x
_atom_site_fract_y
_atom_site_fract_z
Si Si1 0.540813 0.201293 0.853125
Si Si2 0.582051 0.601513 0.412786
Si Si3 0.683069 0.155599 0.309852
Si Si4 0.683136 0.142507 0.825604
Si Si5 0.171031 0.618728 0.091791
Si Si6 0.565633 0.959485 0.318203
O O1 0.461295 0.120445 0.896029
O O2 0.511781 0.185423 0.769933
O O3 0.625856 0.186812 0.854992
O O4 0.558265 0.293874 0.887282
O O5 0.500000 0.500000 0.415941
O O6 0.618245 0.618245 0.333334
O O7 0.654102 0.601502 0.464844
O O8 0.783009 0.216992 0.333334
O O9 0.623686 0.177045 0.365876
O O10 0.655895 0.052569 0.313988
O O11 0.784575 0.215426 0.833334
O O12 0.655175 0.109250 0.745094
O O13 0.137238 0.568619 0.166667
O O14 0.097022 0.637070 0.057157
O O15 0.500000 0.000000 0.307907
#
# Coordination Sequence:
#
# PCOD9583788 Si02
#       6
#    12  12  12  12  12  12
#     4  11  20  34  48  71 101 128 172 214 249 294
#     4   9  19  33  46  65  92 128 161 202 249 296
#     4  11  21  36  53  68  98 137 169 210 260 294
#     4  11  20  31  51  70  95 132 166 207 250 298
#     4  11  22  32  50  73  94 125 173 215 245 292
#     4  10  20  37  51  65 100 134 166 205 263 301
#
# _framework density 14.655455
#
# number of rings (size 3 to 8) (size 9 to 14) (size 15 to 20)
#    0.000    1.500    6.667    1.000    2.333    3.000 
#    3.000    0.000    0.000    0.000    0.000    0.000 
#    0.000    0.000    0.000    4.500    0.000    0.000 
#
# Total GULP energy -400978.607961 kJ/mol
# GULP energy per Si atom -5569.147333 kJ/mol
# Density = 1.462210 g / cm^3
# Si number density = 14.655455 Si / 1000 Ang^3
#
#
#
# Elastic Constant Matrix: (Units=GPa)
#
#
# Indices 1 2 3 4 5 6 
#
# 1 67.1820 23.5943 26.6905 0.0000 0.0000 0.0000
# 2 23.5943 67.1820 26.6905 0.0000 0.0000 0.0000
# 3 26.6905 26.6905 105.9742 0.0000 0.0000 0.0000
# 4 0.0000 0.0000 0.0000 21.1725 0.0000 0.0000
# 5 0.0000 0.0000 0.0000 0.0000 21.1725 0.0000
# 6 0.0000 0.0000 0.0000 0.0000 0.0000 21.7939
#
#
#
# Elastic Compliance Matrix: (Units=1/GPa)
#
#
# Indices 1 2 3 4 5 6 
#
# 1 0.017937 -0.005005 -0.003257 0.000000 0.000000 0.000000
# 2 -0.005005 0.017937 -0.003257 0.000000 0.000000 0.000000
# 3 -0.003257 -0.003257 0.011077 0.000000 0.000000 0.000000
# 4 0.000000 0.000000 0.000000 0.047231 0.000000 0.000000
# 5 0.000000 0.000000 0.000000 0.000000 0.047231 0.000000
# 6 0.000000 0.000000 0.000000 0.000000 0.000000 0.045884
#
#
# Mechanical properties :
#
#
# Convention : Reuss Voigt Hill
#
# Bulk Modulus (GPa) = 41.82010 43.80986 42.81498
# Shear Modulus (GPa) = 22.90364 23.71865 23.31115
#
# Velocity S-wave (km/s) = 3.95752 4.02732 3.99257
# Velocity P-wave (km/s) = 7.03421 7.18219 7.10859
#
# Compressibility (1/GPa) = 0.02391195
#
# Stress axis : x y z
#
# Youngs Moduli (GPa) = 55.75143 55.75143 90.27892
#
# Poissons Ratio (x) = 0.27906 0.29402
# Poissons Ratio (y) = 0.27906 0.29402
# Poissons Ratio (z) = 0.18157 0.18157
#
# Static dielectric constant tensor:
#      x y z
#    x 1.513830 0.000000 0.000000 
#    y 0.000000 1.513830 0.000000 
#    z 0.000000 0.000000 1.532530 
# 
# From -- ./inp_files/7926.got.cif
#   From: 2010.05.17/outbox.cif.g08.bks.cpg/sg180_4_cif.got.tgz:7926.got - 2010.05.20 11:43:55.
