data_PCOD9583667
_publ_section_title
;
Structure prediction by ZEFSAII (Michael W. Deem and Ramdas Pophale) SiO2 
 PCOD9583667
Probable space group: P 62 2 2
;
_chemical_formula_sum "Si O2"
_cell_formula_units_Z 30
_cell_length_a 13.894454
_cell_length_b 13.894454
_cell_length_c 7.492176
_cell_angle_alpha 90.000000
_cell_angle_beta 90.000000
_cell_angle_gamma 120.000000
_cell_volume 1252.626437
_symmetry_space_group_name_H-M "P 62 2 2"
_symmetry_group_IT_number 180
_symmetry_cell_setting 'hexagonal'
loop_
_space_group_symop_operation_xyz
x,y,z
x-y,x,1/3+z
-y,x-y,2/3+z
-x,-y,z
-x+y,-x,1/3+z
y,-x+y,2/3+z
x-y,-y,-z
-x,-x+y,1/3-z
y,x,2/3-z
-y,-x,2/3-z
-x+y,y,-z
x,x-y,1/3-z
loop_
_atom_site_type_symbol
_atom_site_label
_atom_site_fract_x
_atom_site_fract_y
_atom_site_fract_z
Si Si1 0.713905 0.427810 0.000000
Si Si2 0.917847 0.168814 0.019475
Si Si3 0.390450 0.061432 0.825071
O O1 0.647015 0.352986 0.833334
O O2 0.843014 0.502865 0.939700
O O3 0.897333 0.102668 0.833334
O O4 0.968015 0.298137 0.968600
O O5 0.798576 0.124525 0.106059
O O6 0.000000 0.166232 0.166667
O O7 0.399847 0.000000 0.000000
#
# Coordination Sequence:
#
# PCOD9583667 Si02
#       3
#     6  12  12
#     4  12  28  52  75 110 157 196 268 342 392 466
#     4  10  18  35  68 106 147 196 247 298 376 458
#     4  10  22  44  74 104 144 202 243 305 389 467
#
# _framework density 23.949676
#
# number of rings (size 3 to 8) (size 9 to 14) (size 15 to 20)
#    0.000    1.600    4.000    0.000    0.000    4.800 
#    0.000   13.000    0.000  102.000    0.000    0.000 
#    0.000    0.000    0.000    0.000    0.000    0.000 
#
# Total GULP energy -167872.587580 kJ/mol
# GULP energy per Si atom -5595.752919 kJ/mol
# Density = 2.389517 g / cm^3
# Si number density = 23.949676 Si / 1000 Ang^3
#
#
#
# Elastic Constant Matrix: (Units=GPa)
#
#
# Indices 1 2 3 4 5 6 
#
# 1 98.4414 36.0948 41.1709 0.0000 0.0000 0.0000
# 2 36.0948 98.4414 41.1709 0.0000 0.0000 0.0000
# 3 41.1709 41.1709 174.6193 0.0000 0.0000 0.0000
# 4 0.0000 0.0000 0.0000 0.9474 0.0000 0.0000
# 5 0.0000 0.0000 0.0000 0.0000 0.9474 0.0000
# 6 0.0000 0.0000 0.0000 0.0000 0.0000 31.1733
#
#
#
# Elastic Compliance Matrix: (Units=1/GPa)
#
#
# Indices 1 2 3 4 5 6 
#
# 1 0.012363 -0.003676 -0.002048 0.000000 0.000000 0.000000
# 2 -0.003676 0.012363 -0.002048 0.000000 0.000000 0.000000
# 3 -0.002048 -0.002048 0.006693 0.000000 0.000000 0.000000
# 4 0.000000 0.000000 0.000000 1.055489 0.000000 0.000000
# 5 0.000000 0.000000 0.000000 0.000000 1.055489 0.000000
# 6 0.000000 0.000000 0.000000 0.000000 0.000000 0.032079
#
#
# Mechanical properties :
#
#
# Convention : Reuss Voigt Hill
#
# Bulk Modulus (GPa) = 62.99934 67.59728 65.29831
# Shear Modulus (GPa) = 2.27758 23.48465 12.88111
#
# Velocity S-wave (km/s) = 0.97624 3.13482 2.32166
# Velocity P-wave (km/s) = 5.25668 6.43341 5.87459
#
# Compressibility (1/GPa) = 0.01587318
#
# Stress axis : x y z
#
# Youngs Moduli (GPa) = 80.88709 80.88709 149.42097
#
# Poissons Ratio (x) = 0.29738 0.30602
# Poissons Ratio (y) = 0.29738 0.30602
# Poissons Ratio (z) = 0.16566 0.16566
#
# Static dielectric constant tensor:
#      x y z
#    x 1.914920 0.000000 0.000000 
#    y 0.000000 1.914920 0.000000 
#    z 0.000000 0.000000 1.934570 
# 
# From -- ./inp_files/2099.got.cif
#   From: 2010.05.17/outbox.cif.g08.bks.cpg/sg180_2_cif.got.tgz:2099.got - 2010.05.20 11:43:55.
