data_PCOD9583866
_publ_section_title
;
Structure prediction by ZEFSAII (Michael W. Deem and Ramdas Pophale) SiO2 
 PCOD9583866
Probable space group: P 62 2 2
;
_chemical_formula_sum "Si O2"
_cell_formula_units_Z 60
_cell_length_a 14.874144
_cell_length_b 14.874144
_cell_length_c 14.176496
_cell_angle_alpha 90.000000
_cell_angle_beta 90.000000
_cell_angle_gamma 120.000000
_cell_volume 2716.210944
_symmetry_space_group_name_H-M "P 62 2 2"
_symmetry_group_IT_number 180
_symmetry_cell_setting 'hexagonal'
loop_
_space_group_symop_operation_xyz
x,y,z
x-y,x,1/3+z
-y,x-y,2/3+z
-x,-y,z
-x+y,-x,1/3+z
y,-x+y,2/3+z
x-y,-y,-z
-x,-x+y,1/3-z
y,x,2/3-z
-y,-x,2/3-z
-x+y,y,-z
x,x-y,1/3-z
loop_
_atom_site_type_symbol
_atom_site_label
_atom_site_fract_x
_atom_site_fract_y
_atom_site_fract_z
Si Si1 0.847348 0.497717 0.544111
Si Si2 0.555142 0.449763 0.642240
Si Si3 0.858171 0.628827 0.906392
Si Si4 0.737598 0.460264 0.224735
Si Si5 0.954645 0.728518 0.566450
O O1 0.744215 0.488429 0.500000
O O2 0.919024 0.515647 0.453396
O O3 0.814352 0.380473 0.576437
O O4 0.901074 0.606492 0.598476
O O5 0.500000 0.500000 0.701992
O O6 0.468367 0.333704 0.617133
O O7 0.657290 0.457878 0.686091
O O8 0.763340 0.565786 0.833509
O O9 0.952437 0.706726 0.840428
O O10 0.839395 0.678790 0.000000
O O11 0.728712 0.364356 0.166667
O O12 0.869908 0.739815 0.500000
O O13 0.000000 0.790162 0.666667
#
# Coordination Sequence:
#
# PCOD9583866 Si02
#       5
#    12  12  12  12  12
#     4   9  21  38  60  90 134 196 240 292 355 443
#     4  11  21  39  57  96 152 189 249 305 360 440
#     4  11  23  43  69 103 144 194 251 310 386 463
#     4  10  21  36  59  98 149 205 243 298 367 452
#     4  11  26  50  76 106 143 195 256 322 388 459
#
# _framework density 22.089596
#
# number of rings (size 3 to 8) (size 9 to 14) (size 15 to 20)
#    0.000    1.600    4.000    0.000    5.600    0.400 
#    3.600    7.000    0.000    1.800    0.000    0.000 
#    0.000    0.000    0.000    0.000    0.000    0.000 
#
# Total GULP energy -334157.021936 kJ/mol
# GULP energy per Si atom -5569.283699 kJ/mol
# Density = 2.203932 g / cm^3
# Si number density = 22.089596 Si / 1000 Ang^3
#
#
#
# Elastic Constant Matrix: (Units=GPa)
#
#
# Indices 1 2 3 4 5 6 
#
# 1 86.0999 27.3058 49.0248 0.0000 0.0000 0.0000
# 2 27.3058 86.0999 49.0248 0.0000 0.0000 0.0000
# 3 49.0248 49.0248 137.1685 0.0000 0.0000 0.0000
# 4 0.0000 0.0000 0.0000 19.0946 0.0000 0.0000
# 5 0.0000 0.0000 0.0000 0.0000 19.0946 0.0000
# 6 0.0000 0.0000 0.0000 0.0000 0.0000 29.3971
#
#
#
# Elastic Compliance Matrix: (Units=1/GPa)
#
#
# Indices 1 2 3 4 5 6 
#
# 1 0.014885 -0.002124 -0.004561 0.000000 0.000000 0.000000
# 2 -0.002124 0.014885 -0.004561 0.000000 0.000000 0.000000
# 3 -0.004561 -0.004561 0.010551 0.000000 0.000000 0.000000
# 4 0.000000 0.000000 0.000000 0.052371 0.000000 0.000000
# 5 0.000000 0.000000 0.000000 0.000000 0.052371 0.000000
# 6 0.000000 0.000000 0.000000 0.000000 0.000000 0.034017
#
#
# Mechanical properties :
#
#
# Convention : Reuss Voigt Hill
#
# Bulk Modulus (GPa) = 56.08762 62.23103 59.15932
# Shear Modulus (GPa) = 24.09484 25.78476 24.93980
#
# Velocity S-wave (km/s) = 3.30628 3.42026 3.36375
# Velocity P-wave (km/s) = 6.32624 6.62048 6.47503
#
# Compressibility (1/GPa) = 0.01782925
#
# Stress axis : x y z
#
# Youngs Moduli (GPa) = 67.18226 67.18226 94.78198
#
# Poissons Ratio (x) = 0.14267 0.43230
# Poissons Ratio (y) = 0.14267 0.43230
# Poissons Ratio (z) = 0.30642 0.30642
#
# Static dielectric constant tensor:
#      x y z
#    x 1.965400 0.000000 0.000000 
#    y 0.000000 1.965400 0.000000 
#    z 0.000000 0.000000 1.875920 
# 
# From -- ./inp_files/6108.got.cif
#   From: 2010.05.17/outbox.cif.g08.bks.cpg/sg180_4_cif.got.tgz:6108.got - 2010.05.20 11:43:55.
