data_PCOD9583972
_publ_section_title
;
Structure prediction by ZEFSAII (Michael W. Deem and Ramdas Pophale) SiO2 
 PCOD9583972
Probable space group: P 62 2 2
;
_chemical_formula_sum "Si O2"
_cell_formula_units_Z 24
_cell_length_a 11.861179
_cell_length_b 11.861179
_cell_length_c 7.110473
_cell_angle_alpha 90.000000
_cell_angle_beta 90.000000
_cell_angle_gamma 120.000000
_cell_volume 866.332971
_symmetry_space_group_name_H-M "P 62 2 2"
_symmetry_group_IT_number 180
_symmetry_cell_setting 'hexagonal'
loop_
_space_group_symop_operation_xyz
x,y,z
x-y,x,1/3+z
-y,x-y,2/3+z
-x,-y,z
-x+y,-x,1/3+z
y,-x+y,2/3+z
x-y,-y,-z
-x,-x+y,1/3-z
y,x,2/3-z
-y,-x,2/3-z
-x+y,y,-z
x,x-y,1/3-z
loop_
_atom_site_type_symbol
_atom_site_label
_atom_site_fract_x
_atom_site_fract_y
_atom_site_fract_z
Si Si1 0.290821 0.047234 0.801472
Si Si2 0.501462 0.797974 0.361934
O O1 0.239832 0.119916 0.666667
O O2 0.369738 0.068608 0.296122
O O3 0.435004 0.159239 0.862036
O O4 0.216567 0.000000 0.000000
O O5 0.413077 0.826153 0.500000
O O6 0.441857 0.720929 0.166667
#
# Coordination Sequence:
#
# PCOD9583972 Si02
#       2
#    12  12
#     4  10  22  43  74 110 161 219 270 331 406 481
#     4  10  23  46  77 117 166 219 274 334 408 491
#
# _framework density 27.702974000000001
#
# number of rings (size 3 to 8) (size 9 to 14) (size 15 to 20)
#    0.000    2.000    0.000    1.500    0.000    6.000 
#    0.000   17.500    0.000  127.500    0.000    0.000 
#    0.000    0.000    0.000    0.000    0.000    0.000 
#
# Total GULP energy -134796.999740 kJ/mol
# GULP energy per Si atom -5616.541656 kJ/mol
# Density = 2.763992 g / cm^3
# Si number density = 27.702974 Si / 1000 Ang^3
#
#
#
# Elastic Constant Matrix: (Units=GPa)
#
#
# Indices 1 2 3 4 5 6 
#
# 1 160.0216 73.9065 96.2599 0.0000 0.0000 0.0000
# 2 73.9065 160.0216 96.2599 0.0000 0.0000 0.0000
# 3 96.2599 96.2599 274.2745 0.0000 0.0000 0.0000
# 4 0.0000 0.0000 0.0000 62.3763 0.0000 0.0000
# 5 0.0000 0.0000 0.0000 0.0000 62.3763 0.0000
# 6 0.0000 0.0000 0.0000 0.0000 0.0000 43.0575
#
#
#
# Elastic Compliance Matrix: (Units=1/GPa)
#
#
# Indices 1 2 3 4 5 6 
#
# 1 0.008812 -0.002801 -0.002110 0.000000 0.000000 0.000000
# 2 -0.002801 0.008812 -0.002110 0.000000 0.000000 0.000000
# 3 -0.002110 -0.002110 0.005127 0.000000 0.000000 0.000000
# 4 0.000000 0.000000 0.000000 0.016032 0.000000 0.000000
# 5 0.000000 0.000000 0.000000 0.000000 0.016032 0.000000
# 6 0.000000 0.000000 0.000000 0.000000 0.000000 0.023225
#
#
# Mechanical properties :
#
#
# Convention : Reuss Voigt Hill
#
# Bulk Modulus (GPa) = 114.80691 125.24115 120.02403
# Shear Modulus (GPa) = 52.64171 55.42145 54.03158
#
# Velocity S-wave (km/s) = 4.36388 4.47761 4.42111
# Velocity P-wave (km/s) = 8.18067 8.48756 8.33553
#
# Compressibility (1/GPa) = 0.00871028
#
# Stress axis : x y z
#
# Youngs Moduli (GPa) = 113.48550 113.48550 195.05380
#
# Poissons Ratio (x) = 0.31784 0.41149
# Poissons Ratio (y) = 0.31784 0.41149
# Poissons Ratio (z) = 0.23941 0.23941
#
# Static dielectric constant tensor:
#      x y z
#    x 2.172990 0.000000 0.000000 
#    y 0.000000 2.172990 0.000000 
#    z 0.000000 0.000000 2.222150 
# 
# From -- ./inp_files/145.got.cif
#   From: 2010.05.17/outbox.cif.g08.bks.cpg/sg180_1_cif.got.tgz:145.got - 2010.05.20 11:43:55.
