data_PCOD9583786
_publ_section_title
;
Structure prediction by ZEFSAII (Michael W. Deem and Ramdas Pophale) SiO2 
 PCOD9583786
Probable space group: P 62 2 2
;
_chemical_formula_sum "Si O2"
_cell_formula_units_Z 33
_cell_length_a 7.987807
_cell_length_b 7.987807
_cell_length_c 28.350049
_cell_angle_alpha 90.000000
_cell_angle_beta 90.000000
_cell_angle_gamma 120.000000
_cell_volume 1566.533085
_symmetry_space_group_name_H-M "P 62 2 2"
_symmetry_group_IT_number 180
_symmetry_cell_setting 'hexagonal'
loop_
_space_group_symop_operation_xyz
x,y,z
x-y,x,1/3+z
-y,x-y,2/3+z
-x,-y,z
-x+y,-x,1/3+z
y,-x+y,2/3+z
x-y,-y,-z
-x,-x+y,1/3-z
y,x,2/3-z
-y,-x,2/3-z
-x+y,y,-z
x,x-y,1/3-z
loop_
_atom_site_type_symbol
_atom_site_label
_atom_site_fract_x
_atom_site_fract_y
_atom_site_fract_z
Si Si1 0.740311 0.740311 0.833334
Si Si2 0.500000 0.000000 0.000000
Si Si3 0.318732 0.637464 0.500000
Si Si4 0.000000 0.000000 0.420429
Si Si5 0.577526 0.850436 0.265360
O O1 0.745722 0.543935 0.842287
O O2 0.875884 0.822456 0.788326
O O3 0.673557 0.150138 0.966837
O O4 0.257921 0.501779 0.546424
O O5 0.033167 0.191043 0.395574
O O6 0.500000 0.000000 0.274628
#
# Coordination Sequence:
#
# PCOD9583786 Si02
#       5
#     6   3   6   6  12
#     4  10  20  36  70 112 148 186 242 318 384 444
#     4  12  32  50  72 106 156 210 248 328 400 466
#     4  11  22  43  72 112 146 193 256 319 372 460
#     4  11  22  39  70 108 142 194 248 312 386 456
#     4  12  27  49  75 109 153 202 261 322 389 471
#
# _framework density 21.065626999999999
#
# number of rings (size 3 to 8) (size 9 to 14) (size 15 to 20)
#    0.000    0.727    3.636    4.364    2.545    3.636 
#    6.545    0.000    0.000    0.000    0.000    0.000 
#    0.000    0.000    0.000    0.000    0.000    0.000 
#
# Total GULP energy -183890.844285 kJ/mol
# GULP energy per Si atom -5572.449827 kJ/mol
# Density = 2.101768 g / cm^3
# Si number density = 21.065627 Si / 1000 Ang^3
#
#
#
# Elastic Constant Matrix: (Units=GPa)
#
#
# Indices 1 2 3 4 5 6 
#
# 1 200.3047 25.6497 57.2916 0.0000 0.0000 0.0000
# 2 25.6497 200.3047 57.2916 0.0000 0.0000 0.0000
# 3 57.2916 57.2916 98.6685 0.0000 0.0000 0.0000
# 4 0.0000 0.0000 0.0000 352.3221 0.0000 0.0000
# 5 0.0000 0.0000 0.0000 0.0000 352.3221 0.0000
# 6 0.0000 0.0000 0.0000 0.0000 0.0000 87.3275
#
#
#
# Elastic Compliance Matrix: (Units=1/GPa)
#
#
# Indices 1 2 3 4 5 6 
#
# 1 0.005999 0.000274 -0.003642 0.000000 0.000000 0.000000
# 2 0.000274 0.005999 -0.003642 0.000000 0.000000 0.000000
# 3 -0.003642 -0.003642 0.014365 0.000000 0.000000 0.000000
# 4 0.000000 0.000000 0.000000 0.002838 0.000000 0.000000
# 5 0.000000 0.000000 0.000000 0.000000 0.002838 0.000000
# 6 0.000000 0.000000 0.000000 0.000000 0.000000 0.011451
#
#
# Mechanical properties :
#
#
# Convention : Reuss Voigt Hill
#
# Bulk Modulus (GPa) = 81.02989 86.63819 83.83404
# Shear Modulus (GPa) = 81.13457 182.33068 131.73263
#
# Velocity S-wave (km/s) = 6.21279 9.31351 7.91645
# Velocity P-wave (km/s) = 9.48757 12.52487 11.11050
#
# Compressibility (1/GPa) = 0.01234113
#
# Stress axis : x y z
#
# Youngs Moduli (GPa) = 166.69129 166.69129 69.61556
#
# Poissons Ratio (x) = -0.04560 0.25355
# Poissons Ratio (y) = -0.04560 0.25355
# Poissons Ratio (z) = 0.60712 0.60712
#
# Static dielectric constant tensor:
#      x y z
#    x 1.599730 0.000000 0.000000 
#    y 0.000000 1.599730 0.000000 
#    z 0.000000 0.000000 1.780750 
# 
# From -- ./inp_files/10918.got.cif
#   From: 2010.05.17/outbox.cif.g08.bks.cpg/sg180_6_cif.got.tgz:10918.got - 2010.05.20 11:43:55.
