data_PCOD9583341
_publ_section_title
;
Structure prediction by ZEFSAII (Michael W. Deem and Ramdas Pophale) SiO2 
 PCOD9583341
Probable space group: P 65 2 2
;
_chemical_formula_sum "Si O2"
_cell_formula_units_Z 48
_cell_length_a 16.395926
_cell_length_b 16.395926
_cell_length_c 8.821646
_cell_angle_alpha 90.000000
_cell_angle_beta 90.000000
_cell_angle_gamma 120.000000
_cell_volume 2053.771661
_symmetry_space_group_name_H-M "P 65 2 2"
_symmetry_group_IT_number 179
_symmetry_cell_setting 'hexagonal'
loop_
_space_group_symop_operation_xyz
x,y,z
x-y,x,5/6+z
-y,x-y,2/3+z
-x,-y,1/2+z
-x+y,-x,1/3+z
y,-x+y,1/6+z
x-y,-y,-z
-x,-x+y,1/3-z
y,x,2/3-z
-y,-x,1/6-z
-x+y,y,1/2-z
x,x-y,5/6-z
loop_
_atom_site_type_symbol
_atom_site_label
_atom_site_fract_x
_atom_site_fract_y
_atom_site_fract_z
Si Si1 0.825008 0.969784 0.766768
Si Si2 0.651061 0.170132 0.638925
Si Si3 0.346313 0.347416 0.147865
Si Si4 0.356232 0.533810 0.204129
O O1 0.842643 0.914194 0.634310
O O2 0.734719 0.982193 0.751130
O O3 0.810370 0.905185 0.916667
O O4 0.753826 0.246175 0.583334
O O5 0.608254 0.216508 0.750000
O O6 0.576472 0.141270 0.501498
O O7 0.655040 0.087677 0.732289
O O8 0.340231 0.340231 0.333334
O O9 0.358503 0.448887 0.121072
O O10 0.249688 0.499375 0.250000
O O11 0.384408 0.615592 0.083334
#
# Coordination Sequence:
#
# PCOD9583341 Si02
#       4
#    12  12  12  12
#     4  10  21  42  71 100 137 190 250 301 373 454
#     4  12  26  48  73 109 153 197 255 315 378 459
#     4  12  25  44  73 105 147 195 250 315 385 450
#     4  12  27  46  75 107 150 204 254 309 382 457
#
# _framework density 23.371635000000001
#
# number of rings (size 3 to 8) (size 9 to 14) (size 15 to 20)
#    0.000    0.500    5.000    4.500    0.000    0.000 
#    0.000    6.250    0.000    0.000    0.000    0.000 
#    0.000    0.000    0.000    0.000    0.000    0.000 
#
# Total GULP energy -268520.249897 kJ/mol
# GULP energy per Si atom -5594.171873 kJ/mol
# Density = 2.331844 g / cm^3
# Si number density = 23.371635 Si / 1000 Ang^3
#
#
#
# Elastic Constant Matrix: (Units=GPa)
#
#
# Indices 1 2 3 4 5 6 
#
# 1 146.8259 139.4242 59.0655 0.0000 0.0000 0.0000
# 2 139.4242 146.8259 59.0655 0.0000 0.0000 0.0000
# 3 59.0655 59.0655 78.2311 0.0000 0.0000 0.0000
# 4 0.0000 0.0000 0.0000 33.4069 0.0000 0.0000
# 5 0.0000 0.0000 0.0000 0.0000 33.4069 0.0000
# 6 0.0000 0.0000 0.0000 0.0000 0.0000 3.7009
#
#
#
# Elastic Compliance Matrix: (Units=1/GPa)
#
#
# Indices 1 2 3 4 5 6 
#
# 1 0.070089 -0.065014 -0.003831 0.000000 0.000000 0.000000
# 2 -0.065014 0.070089 -0.003831 0.000000 0.000000 0.000000
# 3 -0.003831 -0.003831 0.018568 0.000000 0.000000 0.000000
# 4 0.000000 0.000000 0.000000 0.029934 0.000000 0.000000
# 5 0.000000 0.000000 0.000000 0.000000 0.029934 0.000000
# 6 0.000000 0.000000 0.000000 0.000000 0.000000 0.270207
#
#
# Mechanical properties :
#
#
# Convention : Reuss Voigt Hill
#
# Bulk Modulus (GPa) = 74.67270 98.55483 86.61377
# Shear Modulus (GPa) = 7.82914 21.72478 14.77696
#
# Velocity S-wave (km/s) = 1.83224 3.05214 2.51721
# Velocity P-wave (km/s) = 6.04116 7.39465 6.75191
#
# Compressibility (1/GPa) = 0.01339178
#
# Stress axis : x y z
#
# Youngs Moduli (GPa) = 14.26756 14.26756 53.85571
#
# Poissons Ratio (x) = 0.92760 0.20634
# Poissons Ratio (y) = 0.92760 0.20634
# Poissons Ratio (z) = 0.05466 0.05466
#
# Static dielectric constant tensor:
#      x y z
#    x 1.835410 0.000000 0.000000 
#    y 0.000000 1.835410 0.000000 
#    z 0.000000 0.000000 2.004580 
# 
# From -- ./inp_files/2580.got.cif
#   From: 2010.05.17/outbox.cif.g08.bks.cpg/sg179_2_cif.got.tgz:2580.got - 2010.05.20 11:37:33.
