data_PCOD9583755
_publ_section_title
;
Structure prediction by ZEFSAII (Michael W. Deem and Ramdas Pophale) SiO2 
 PCOD9583755
Probable space group: P 62 2 2
;
_chemical_formula_sum "Si O2"
_cell_formula_units_Z 51
_cell_length_a 11.653672
_cell_length_b 11.653672
_cell_length_c 21.616692
_cell_angle_alpha 90.000000
_cell_angle_beta 90.000000
_cell_angle_gamma 120.000000
_cell_volume 2542.409175
_symmetry_space_group_name_H-M "P 62 2 2"
_symmetry_group_IT_number 180
_symmetry_cell_setting 'hexagonal'
loop_
_space_group_symop_operation_xyz
x,y,z
x-y,x,1/3+z
-y,x-y,2/3+z
-x,-y,z
-x+y,-x,1/3+z
y,-x+y,2/3+z
x-y,-y,-z
-x,-x+y,1/3-z
y,x,2/3-z
-y,-x,2/3-z
-x+y,y,-z
x,x-y,1/3-z
loop_
_atom_site_type_symbol
_atom_site_label
_atom_site_fract_x
_atom_site_fract_y
_atom_site_fract_z
Si Si1 0.779822 0.435433 0.561828
Si Si2 0.277773 0.291401 0.499351
Si Si3 0.762665 0.166915 0.579553
Si Si4 0.000000 0.500000 0.166667
Si Si5 0.932306 0.345873 0.962490
O O1 0.690554 0.381107 0.500000
O O2 0.912422 0.566468 0.537204
O O3 0.793259 0.317551 0.590958
O O4 0.705141 0.488973 0.604592
O O5 0.124201 0.248401 0.500000
O O6 0.306253 0.189376 0.463844
O O7 0.329493 0.322155 0.569949
O O8 0.741653 0.088804 0.643542
O O9 0.626195 0.089479 0.542526
O O10 0.000000 0.500000 0.979050
#
# Coordination Sequence:
#
# PCOD9583755 Si02
#       5
#    12  12  12   3  12
#     4   9  18  34  60  88 122 167 209 270 327 384
#     4   9  21  39  64  92 124 178 218 275 336 391
#     4  12  21  40  56  88 135 162 222 268 329 408
#     4  12  28  36  54  96 120 176 204 282 332 368
#     4  10  20  34  57  95 124 171 217 262 344 393
#
# _framework density 20.059712000000001
#
# number of rings (size 3 to 8) (size 9 to 14) (size 15 to 20)
#    0.000    2.353    2.353    4.235    0.000    3.765 
#    0.000    6.471    0.000    0.000    0.000    6.588 
#    0.000    0.000    0.000    0.000    0.000    0.000 
#
# Total GULP energy -284519.981046 kJ/mol
# GULP energy per Si atom -5578.823158 kJ/mol
# Density = 2.001406 g / cm^3
# Si number density = 20.059712 Si / 1000 Ang^3
#
#
#
# Elastic Constant Matrix: (Units=GPa)
#
#
# Indices 1 2 3 4 5 6 
#
# 1 82.9058 31.6785 47.6398 0.0000 0.0000 0.0000
# 2 31.6785 82.9058 47.6398 0.0000 0.0000 0.0000
# 3 47.6398 47.6398 131.7458 0.0000 0.0000 0.0000
# 4 0.0000 0.0000 0.0000 0.9852 0.0000 0.0000
# 5 0.0000 0.0000 0.0000 0.0000 0.9852 0.0000
# 6 0.0000 0.0000 0.0000 0.0000 0.0000 25.6136
#
#
#
# Elastic Compliance Matrix: (Units=1/GPa)
#
#
# Indices 1 2 3 4 5 6 
#
# 1 0.016000 -0.003521 -0.004513 0.000000 0.000000 0.000000
# 2 -0.003521 0.016000 -0.004513 0.000000 0.000000 0.000000
# 3 -0.004513 -0.004513 0.010854 0.000000 0.000000 0.000000
# 4 0.000000 0.000000 0.000000 1.015073 0.000000 0.000000
# 5 0.000000 0.000000 0.000000 0.000000 1.015073 0.000000
# 6 0.000000 0.000000 0.000000 0.000000 0.000000 0.039042
#
#
# Mechanical properties :
#
#
# Convention : Reuss Voigt Hill
#
# Bulk Modulus (GPa) = 56.29845 61.27484 58.78665
# Shear Modulus (GPa) = 2.33312 16.89006 9.61159
#
# Velocity S-wave (km/s) = 1.07963 2.90485 2.19132
# Velocity P-wave (km/s) = 5.44798 6.47020 5.98097
#
# Compressibility (1/GPa) = 0.01776248
#
# Stress axis : x y z
#
# Youngs Moduli (GPa) = 62.49911 62.49911 92.13216
#
# Poissons Ratio (x) = 0.22004 0.41576
# Poissons Ratio (y) = 0.22004 0.41576
# Poissons Ratio (z) = 0.28204 0.28204
#
# Static dielectric constant tensor:
#      x y z
#    x 1.713570 0.000000 0.000000 
#    y 0.000000 1.713570 0.000000 
#    z 0.000000 0.000000 1.757000 
# 
# From -- ./inp_files/8833.got.cif
#   From: 2010.05.17/outbox.cif.g08.bks.cpg/sg180_5_cif.got.tgz:8833.got - 2010.05.20 11:43:55.
