data_PCOD9583785
_publ_section_title
;
Structure prediction by ZEFSAII (Michael W. Deem and Ramdas Pophale) SiO2 
 PCOD9583785
Probable space group: P 62 2 2
;
_chemical_formula_sum "Si O2"
_cell_formula_units_Z 30
_cell_length_a 7.337056
_cell_length_b 7.337056
_cell_length_c 25.225072
_cell_angle_alpha 90.000000
_cell_angle_beta 90.000000
_cell_angle_gamma 120.000000
_cell_volume 1175.998354
_symmetry_space_group_name_H-M "P 62 2 2"
_symmetry_group_IT_number 180
_symmetry_cell_setting 'hexagonal'
loop_
_space_group_symop_operation_xyz
x,y,z
x-y,x,1/3+z
-y,x-y,2/3+z
-x,-y,z
-x+y,-x,1/3+z
y,-x+y,2/3+z
x-y,-y,-z
-x,-x+y,1/3-z
y,x,2/3-z
-y,-x,2/3-z
-x+y,y,-z
x,x-y,1/3-z
loop_
_atom_site_type_symbol
_atom_site_label
_atom_site_fract_x
_atom_site_fract_y
_atom_site_fract_z
Si Si1 0.712002 0.521203 0.741925
Si Si2 0.500000 0.000000 0.697506
Si Si3 0.669949 0.839032 0.104183
O O1 0.500000 0.500000 0.767165
O O2 0.660903 0.501700 0.679395
O O3 0.765621 0.343888 0.761533
O O4 0.074093 0.812392 0.582863
O O5 0.341072 0.025421 0.737348
O O6 0.704110 0.852055 0.166667
#
# Coordination Sequence:
#
# PCOD9583785 Si02
#       3
#    12   6  12
#     4   9  22  39  68 103 142 197 263 303 395 477
#     4  10  20  36  67 100 145 196 250 314 382 480
#     4  11  21  41  68 106 145 197 252 328 392 461
#
# _framework density 25.510238000000001
#
# number of rings (size 3 to 8) (size 9 to 14) (size 15 to 20)
#    1.200    0.800    0.000    4.800    0.000    4.000 
#    0.000    2.000    8.800    7.200    0.000    0.000 
#    0.000    0.000    0.000    0.000    0.000    0.000 
#
# Total GULP energy -167260.101875 kJ/mol
# GULP energy per Si atom -5575.336729 kJ/mol
# Density = 2.545218 g / cm^3
# Si number density = 25.510238 Si / 1000 Ang^3
#
#
#
# Elastic Constant Matrix: (Units=GPa)
#
#
# Indices 1 2 3 4 5 6 
#
# 1 114.4841 94.1357 53.1645 0.0000 0.0000 0.0000
# 2 94.1357 114.4841 53.1645 0.0000 0.0000 0.0000
# 3 53.1645 53.1645 206.7542 0.0000 0.0000 0.0000
# 4 0.0000 0.0000 0.0000 117.7473 0.0000 0.0000
# 5 0.0000 0.0000 0.0000 0.0000 117.7473 0.0000
# 6 0.0000 0.0000 0.0000 0.0000 0.0000 10.1742
#
#
#
# Elastic Compliance Matrix: (Units=1/GPa)
#
#
# Indices 1 2 3 4 5 6 
#
# 1 0.027330 -0.021814 -0.001418 0.000000 0.000000 0.000000
# 2 -0.021814 0.027330 -0.001418 0.000000 0.000000 0.000000
# 3 -0.001418 -0.001418 0.005566 0.000000 0.000000 0.000000
# 4 0.000000 0.000000 0.000000 0.008493 0.000000 0.000000
# 5 0.000000 0.000000 0.000000 0.000000 0.008493 0.000000
# 6 0.000000 0.000000 0.000000 0.000000 0.000000 0.098288
#
#
# Mechanical properties :
#
#
# Convention : Reuss Voigt Hill
#
# Bulk Modulus (GPa) = 91.53314 92.96131 92.24723
# Shear Modulus (GPa) = 21.88727 64.81759 43.35243
#
# Velocity S-wave (km/s) = 2.93231 5.04615 4.12687
# Velocity P-wave (km/s) = 6.88647 8.39472 7.67772
#
# Compressibility (1/GPa) = 0.01092500
#
# Stress axis : x y z
#
# Youngs Moduli (GPa) = 36.58957 36.58957 179.65748
#
# Poissons Ratio (x) = 0.79816 0.25484
# Poissons Ratio (y) = 0.79816 0.25484
# Poissons Ratio (z) = 0.05190 0.05190
#
# Static dielectric constant tensor:
#      x y z
#    x 2.132250 0.000000 0.000000 
#    y 0.000000 2.132250 0.000000 
#    z 0.000000 0.000000 1.946170 
# 
# From -- ./inp_files/8271.got.cif
#   From: 2010.05.17/outbox.cif.g08.bks.cpg/sg180_5_cif.got.tgz:8271.got - 2010.05.20 11:43:55.
