data_PCOD9583545
_publ_section_title
;
Structure prediction by ZEFSAII (Michael W. Deem and Ramdas Pophale) SiO2 
 PCOD9583545
Probable space group: P 65 2 2
;
_chemical_formula_sum "Si O2"
_cell_formula_units_Z 48
_cell_length_a 9.337076
_cell_length_b 9.337076
_cell_length_c 23.436922
_cell_angle_alpha 90.000000
_cell_angle_beta 90.000000
_cell_angle_gamma 120.000000
_cell_volume 1769.509889
_symmetry_space_group_name_H-M "P 65 2 2"
_symmetry_group_IT_number 179
_symmetry_cell_setting 'hexagonal'
loop_
_space_group_symop_operation_xyz
x,y,z
x-y,x,5/6+z
-y,x-y,2/3+z
-x,-y,1/2+z
-x+y,-x,1/3+z
y,-x+y,1/6+z
x-y,-y,-z
-x,-x+y,1/3-z
y,x,2/3-z
-y,-x,1/6-z
-x+y,y,1/2-z
x,x-y,5/6-z
loop_
_atom_site_type_symbol
_atom_site_label
_atom_site_fract_x
_atom_site_fract_y
_atom_site_fract_z
Si Si1 0.493254 0.775538 0.697042
Si Si2 0.023567 0.363504 0.230687
Si Si3 0.445540 0.315349 0.033624
Si Si4 0.672306 0.977375 0.413678
O O1 0.383613 0.767226 0.750000
O O2 0.640946 0.753513 0.723042
O O3 0.360817 0.622199 0.660661
O O4 0.588571 0.951457 0.663949
O O5 0.204392 0.408784 0.250000
O O6 0.991929 0.517070 0.231436
O O7 0.000000 0.296176 0.166667
O O8 0.538535 0.461466 0.083334
O O9 0.328071 0.155820 0.072369
O O10 0.333099 0.165816 0.962198
#
# Coordination Sequence:
#
# PCOD9583545 Si02
#       4
#    12  12  12  12
#     4  11  27  45  74 108 148 196 261 306 385 459
#     4  11  25  44  75 109 154 198 252 315 382 455
#     4  11  26  43  76 107 150 198 252 321 374 461
#     4  11  24  46  74 109 151 202 254 307 389 455
#
# _framework density 27.126154
#
# number of rings (size 3 to 8) (size 9 to 14) (size 15 to 20)
#    0.000    1.000    0.000    6.750   17.500    1.000 
#    0.000    0.000    0.000    1.500    0.000    0.000 
#    0.000    0.000    0.000    0.000    0.000    0.000 
#
# Total GULP energy -267624.658222 kJ/mol
# GULP energy per Si atom -5575.513713 kJ/mol
# Density = 2.706441 g / cm^3
# Si number density = 27.126154 Si / 1000 Ang^3
#
#
#
# Elastic Constant Matrix: (Units=GPa)
#
#
# Indices 1 2 3 4 5 6 
#
# 1 206.8652 48.9910 16.6957 0.0000 0.0000 0.0000
# 2 48.9910 206.8652 16.6957 0.0000 0.0000 0.0000
# 3 16.6957 16.6957 94.1978 0.0000 0.0000 0.0000
# 4 0.0000 0.0000 0.0000 30.3971 0.0000 0.0000
# 5 0.0000 0.0000 0.0000 0.0000 30.3971 0.0000
# 6 0.0000 0.0000 0.0000 0.0000 0.0000 78.9371
#
#
#
# Elastic Compliance Matrix: (Units=1/GPa)
#
#
# Indices 1 2 3 4 5 6 
#
# 1 0.005168 -0.001167 -0.000709 0.000000 0.000000 0.000000
# 2 -0.001167 0.005168 -0.000709 0.000000 0.000000 0.000000
# 3 -0.000709 -0.000709 0.010867 0.000000 0.000000 0.000000
# 4 0.000000 0.000000 0.000000 0.032898 0.000000 0.000000
# 5 0.000000 0.000000 0.000000 0.000000 0.032898 0.000000
# 6 0.000000 0.000000 0.000000 0.000000 0.000000 0.012668
#
#
# Mechanical properties :
#
#
# Convention : Reuss Voigt Hill
#
# Bulk Modulus (GPa) = 62.37229 74.74367 68.55798
# Shear Modulus (GPa) = 45.38006 56.31599 50.84802
#
# Velocity S-wave (km/s) = 4.09458 4.56134 4.33425
# Velocity P-wave (km/s) = 6.73776 7.44010 7.09762
#
# Compressibility (1/GPa) = 0.01603276
#
# Stress axis : x y z
#
# Youngs Moduli (GPa) = 193.51438 193.51438 92.01889
#
# Poissons Ratio (x) = 0.22575 0.06525
# Poissons Ratio (y) = 0.22575 0.06525
# Poissons Ratio (z) = 0.13723 0.13723
#
# Static dielectric constant tensor:
#      x y z
#    x 1.854250 0.000000 0.000000 
#    y 0.000000 1.854250 0.000000 
#    z 0.000000 0.000000 5.075350 
# 
# From -- ./inp_files/7264.got.cif
#   From: 2010.05.17/outbox.cif.g08.bks.cpg/sg179_4_cif.got.tgz:7264.got - 2010.05.20 11:37:33.
