data_PCOD9583852
_publ_section_title
;
Structure prediction by ZEFSAII (Michael W. Deem and Ramdas Pophale) SiO2 
 PCOD9583852
Probable space group: P 62 2 2
;
_chemical_formula_sum "Si O2"
_cell_formula_units_Z 42
_cell_length_a 14.215820
_cell_length_b 14.215820
_cell_length_c 13.649915
_cell_angle_alpha 90.000000
_cell_angle_beta 90.000000
_cell_angle_gamma 120.000000
_cell_volume 2388.935424
_symmetry_space_group_name_H-M "P 62 2 2"
_symmetry_group_IT_number 180
_symmetry_cell_setting 'hexagonal'
loop_
_space_group_symop_operation_xyz
x,y,z
x-y,x,1/3+z
-y,x-y,2/3+z
-x,-y,z
-x+y,-x,1/3+z
y,-x+y,2/3+z
x-y,-y,-z
-x,-x+y,1/3-z
y,x,2/3-z
-y,-x,2/3-z
-x+y,y,-z
x,x-y,1/3-z
loop_
_atom_site_type_symbol
_atom_site_label
_atom_site_fract_x
_atom_site_fract_y
_atom_site_fract_z
Si Si1 0.000000 0.500000 0.437810
Si Si2 0.856877 0.255116 0.937418
Si Si3 0.460284 0.113039 0.947348
Si Si4 0.149320 0.047287 0.277058
O O1 0.078593 0.463496 0.387993
O O2 0.077413 0.603901 0.506434
O O3 0.789496 0.210505 0.833334
O O4 0.936718 0.205409 0.940224
O O5 0.773934 0.200804 0.027234
O O6 0.574667 0.149334 0.000000
O O7 0.375544 0.000000 0.000000
O O8 0.144646 0.144646 0.333334
O O9 0.118666 0.059333 0.166667
O O10 0.061328 0.938673 0.333334
#
# Coordination Sequence:
#
# PCOD9583852 Si02
#       4
#     6  12  12  12
#     4  10  21  34  52  88 105 138 192 234 281 346
#     4  11  19  31  56  80 105 143 177 234 284 321
#     4   9  16  29  51  78 108 124 179 237 272 317
#     4  10  21  35  55  84 114 145 183 228 286 349
#
# _framework density 17.581053000000001
#
# number of rings (size 3 to 8) (size 9 to 14) (size 15 to 20)
#    0.000    2.286    5.714    2.571    4.000    0.000 
#    0.000    1.429    0.000    0.000    0.000    0.000 
#    0.000    0.000    0.000    0.000    0.000    0.000 
#
# Total GULP energy -233819.544061 kJ/mol
# GULP energy per Si atom -5567.132001 kJ/mol
# Density = 1.754104 g / cm^3
# Si number density = 17.581053 Si / 1000 Ang^3
#
#
#
# Elastic Constant Matrix: (Units=GPa)
#
#
# Indices 1 2 3 4 5 6 
#
# 1 105.1034 78.3744 30.3537 0.0000 0.0000 0.0000
# 2 78.3744 105.1034 30.3537 0.0000 0.0000 0.0000
# 3 30.3537 30.3537 63.3376 0.0000 0.0000 0.0000
# 4 0.0000 0.0000 0.0000 -879.6202 0.0003 0.0000
# 5 0.0000 0.0000 0.0000 0.0003 -879.6206 0.0000
# 6 0.0000 0.0000 0.0000 0.0000 0.0000 13.3645
#
#
#
# Elastic Compliance Matrix: (Units=1/GPa)
#
#
# Indices 1 2 3 4 5 6 
#
# 1 0.021945 -0.015468 -0.003104 0.000000 0.000000 0.000000
# 2 -0.015468 0.021945 -0.003104 0.000000 0.000000 0.000000
# 3 -0.003104 -0.003104 0.018764 0.000000 0.000000 0.000000
# 4 0.000000 0.000000 0.000000 -0.001137 0.000000 0.000000
# 5 0.000000 0.000000 0.000000 0.000000 -0.001137 0.000000
# 6 0.000000 0.000000 0.000000 0.000000 0.000000 0.074825
#
#
# Mechanical properties :
#
#
# Convention : Reuss Voigt Hill
#
# Bulk Modulus (GPa) = 51.80906 61.30088 56.55497
# Shear Modulus (GPa) = 27.02837 -340.21108 -156.59136
#
# Velocity S-wave (km/s) = 3.92517 -13.92588 -9.44784
# Velocity P-wave (km/s) = 7.07639 14.95427 9.31544
#
# Compressibility (1/GPa) = 0.01930164
#
# Stress axis : x y z
#
# Youngs Moduli (GPa) = 45.56857 45.56857 53.29449
#
# Poissons Ratio (x) = 0.70484 0.16544
# Poissons Ratio (y) = 0.70484 0.16544
# Poissons Ratio (z) = 0.14145 0.14145
#
# Static dielectric constant tensor:
#      x y z
#    x 1.776510 0.000000 0.000000 
#    y 0.000000 1.776510 0.000000 
#    z 0.000000 0.000000 1.578970 
# 
# From -- ./inp_files/5750.got.cif
#   From: 2010.05.17/outbox.cif.g08.bks.cpg/sg180_3_cif.got.tgz:5750.got - 2010.05.20 11:43:55.
