data_PCOD9583639
_publ_section_title
;
Structure prediction by ZEFSAII (Michael W. Deem and Ramdas Pophale) SiO2 
 PCOD9583639
Probable space group: P 62 2 2
;
_chemical_formula_sum "Si O2"
_cell_formula_units_Z 78
_cell_length_a 23.331958
_cell_length_b 23.331958
_cell_length_c 8.595009
_cell_angle_alpha 90.000000
_cell_angle_beta 90.000000
_cell_angle_gamma 120.000000
_cell_volume 4052.092394
_symmetry_space_group_name_H-M "P 62 2 2"
_symmetry_group_IT_number 180
_symmetry_cell_setting 'hexagonal'
loop_
_space_group_symop_operation_xyz
x,y,z
x-y,x,1/3+z
-y,x-y,2/3+z
-x,-y,z
-x+y,-x,1/3+z
y,-x+y,2/3+z
x-y,-y,-z
-x,-x+y,1/3-z
y,x,2/3-z
-y,-x,2/3-z
-x+y,y,-z
x,x-y,1/3-z
loop_
_atom_site_type_symbol
_atom_site_label
_atom_site_fract_x
_atom_site_fract_y
_atom_site_fract_z
Si Si1 0.327163 0.515012 0.673976
Si Si2 0.500000 0.000000 0.232003
Si Si3 0.672851 0.672851 0.833334
Si Si4 0.904465 0.212657 0.403683
Si Si5 0.262056 0.457887 0.161522
Si Si6 0.283098 0.000000 0.000000
Si Si7 0.390234 0.531470 0.008779
Si Si8 0.352622 0.939844 0.803469
O O1 0.251639 0.493882 0.707502
O O2 0.390711 0.586054 0.632067
O O3 0.327592 0.464326 0.550893
O O4 0.354250 0.507479 0.843313
O O5 0.548967 0.067210 0.322117
O O6 0.452357 0.022766 0.151209
O O7 0.681440 0.737046 0.738719
O O8 0.651218 0.618191 0.700222
O O9 0.860375 0.139626 0.333334
O O10 0.850969 0.229634 0.482939
O O11 0.958101 0.227707 0.538593
O O12 0.340124 0.489117 0.144314
O O13 0.237502 0.475003 0.000000
O O14 0.351289 0.047005 0.091146
#
# Coordination Sequence:
#
# PCOD9583639 Si02
#       8
#    12   6   6  12  12   6  12  12
#     4   9  17  27  45  73  97 136 181 229 275 338
#     4  10  18  26  46  72 102 134 162 224 292 346
#     4  10  18  31  52  76 108 142 187 218 256 326
#     4  10  20  36  56  80 110 149 183 227 277 332
#     4   9  16  30  49  72  97 132 178 228 283 331
#     4  10  22  35  52  80 110 144 179 218 274 336
#     4   9  16  26  44  75  97 126 178 233 285 332
#     4  10  18  30  45  73 107 137 176 224 277 339
#
# _framework density 19.249313999999998
#
# number of rings (size 3 to 8) (size 9 to 14) (size 15 to 20)
#    0.000    2.462    0.000    5.538    0.000    6.154 
#    0.000    6.923    0.000    0.000   76.000    0.000 
#    0.000    0.000    0.000    3.462    0.000    0.000 
#
# Total GULP energy -434450.762785 kJ/mol
# GULP energy per Si atom -5569.881574 kJ/mol
# Density = 1.920550 g / cm^3
# Si number density = 19.249314 Si / 1000 Ang^3
#
#
#
# Elastic Constant Matrix: (Units=GPa)
#
#
# Indices 1 2 3 4 5 6 
#
# 1 74.3574 25.7968 25.9517 0.0000 0.0000 0.0000
# 2 25.7968 74.3574 25.9517 0.0000 0.0000 0.0000
# 3 25.9517 25.9517 70.1216 0.0000 0.0000 0.0000
# 4 0.0000 0.0000 0.0000 2.0311 0.0000 0.0000
# 5 0.0000 0.0000 0.0000 0.0000 2.0311 0.0000
# 6 0.0000 0.0000 0.0000 0.0000 0.0000 24.2803
#
#
#
# Elastic Compliance Matrix: (Units=1/GPa)
#
#
# Indices 1 2 3 4 5 6 
#
# 1 0.016473 -0.004119 -0.004572 0.000000 0.000000 0.000000
# 2 -0.004119 0.016473 -0.004572 0.000000 0.000000 0.000000
# 3 -0.004572 -0.004572 0.017645 0.000000 0.000000 0.000000
# 4 0.000000 0.000000 0.000000 0.492338 0.000000 0.000000
# 5 0.000000 0.000000 0.000000 0.000000 0.492338 0.000000
# 6 0.000000 0.000000 0.000000 0.000000 0.000000 0.041186
#
#
# Mechanical properties :
#
#
# Convention : Reuss Voigt Hill
#
# Bulk Modulus (GPa) = 41.55475 41.58185 41.56830
# Shear Modulus (GPa) = 4.50044 15.07759 9.78902
#
# Velocity S-wave (km/s) = 1.53070 2.80175 2.25753
# Velocity P-wave (km/s) = 4.97580 5.66701 5.33262
#
# Compressibility (1/GPa) = 0.02406464
#
# Stress axis : x y z
#
# Youngs Moduli (GPa) = 60.70377 60.70377 56.67251
#
# Poissons Ratio (x) = 0.25006 0.25912
# Poissons Ratio (y) = 0.25006 0.25912
# Poissons Ratio (z) = 0.27755 0.27755
#
# Static dielectric constant tensor:
#      x y z
#    x 1.766590 0.000000 0.000000 
#    y 0.000000 1.766590 0.000000 
#    z 0.000000 0.000000 1.770930 
# 
# From -- ./inp_files/3465.got.cif
#   From: 2010.05.17/outbox.cif.g08.bks.cpg/sg180_2_cif.got.tgz:3465.got - 2010.05.20 11:43:55.
