data_PCOD9583600
_publ_section_title
;
Structure prediction by ZEFSAII (Michael W. Deem and Ramdas Pophale) SiO2 
 PCOD9583600
Probable space group: P 65 2 2
;
_chemical_formula_sum "Si O2"
_cell_formula_units_Z 96
_cell_length_a 15.000000
_cell_length_b 15.000000
_cell_length_c 27.000000
_cell_angle_alpha 90.000000
_cell_angle_beta 90.000000
_cell_angle_gamma 120.000000
_cell_volume 5261.104328
_symmetry_space_group_name_H-M "P 65 2 2"
_symmetry_group_IT_number 179
_symmetry_cell_setting 'hexagonal'
loop_
_space_group_symop_operation_xyz
x,y,z
x-y,x,5/6+z
-y,x-y,2/3+z
-x,-y,1/2+z
-x+y,-x,1/3+z
y,-x+y,1/6+z
x-y,-y,-z
-x,-x+y,1/3-z
y,x,2/3-z
-y,-x,1/6-z
-x+y,y,1/2-z
x,x-y,5/6-z
loop_
_atom_site_type_symbol
_atom_site_label
_atom_site_fract_x
_atom_site_fract_y
_atom_site_fract_z
Si Si1 0.713044 0.564635 0.068710
Si Si2 0.434606 0.296500 0.457575
Si Si3 0.643394 0.165222 0.344540
Si Si4 0.772535 0.996989 0.814050
Si Si5 0.348831 0.389618 0.385331
Si Si6 0.817981 0.967860 0.080858
Si Si7 0.663448 0.433106 0.931953
Si Si8 0.424301 0.921564 0.174121
O O1 0.787508 0.518900 0.054176
O O2 0.760175 0.681748 0.052049
O O3 0.604309 0.507595 0.038177
O O4 0.677636 0.546673 0.125394
O O5 0.426001 0.213001 0.416667
O O6 0.549448 0.361130 0.479756
O O7 0.339114 0.247643 0.496575
O O8 0.418402 0.382244 0.428658
O O9 0.713347 0.232924 0.298614
O O10 0.582389 0.041680 0.334783
O O11 0.823818 0.944053 0.782594
O O12 0.840031 0.055719 0.862032
O O13 0.402728 0.402728 0.333334
O O14 0.249608 0.275747 0.388573
O O15 0.320443 0.478017 0.393609
O O16 0.923418 0.076583 0.083334
O O17 0.648307 0.324154 0.916667
O O18 0.559442 0.411067 0.960201
#
# Coordination Sequence:
#
# PCOD9583600 Si02
#       8
#    12  12  12  12  12  12  12  12
#     4  10  23  36  61  89 116 167 205 259 314 381
#     4  11  22  35  60  90 125 167 203 254 319 391
#     4  11  22  39  61  88 128 165 211 260 327 368
#     4  11  22  39  59  92 125 159 214 255 323 391
#     4  11  22  39  59  88 129 164 209 254 326 398
#     4  11  22  38  60  91 129 164 199 262 323 386
#     4  11  26  39  60  96 123 165 220 262 317 389
#     4  10  21  43  58  86 130 158 211 267 311 384
#
# _framework density 18.247119999999999
#
# number of rings (size 3 to 8) (size 9 to 14) (size 15 to 20)
#    0.000    1.250    2.500    5.625   12.250    0.000 
#    0.000    0.000    0.000    0.750    0.000    0.000 
#    0.000    0.000    0.000    0.000    0.000    0.000 
#
# Total GULP energy -535470.324053 kJ/mol
# GULP energy per Si atom -5577.815876 kJ/mol
# Density = 1.820559 g / cm^3
# Si number density = 18.247120 Si / 1000 Ang^3
#
#
#
# Elastic Constant Matrix: (Units=GPa)
#
#
# Indices 1 2 3 4 5 6 
#
# 1 110.8884 42.4468 37.5889 0.0000 0.0000 0.0000
# 2 42.4468 110.8884 37.5889 0.0000 0.0000 0.0000
# 3 37.5889 37.5889 61.5491 0.0000 0.0000 0.0000
# 4 0.0000 0.0000 0.0000 24.7629 0.0000 0.0000
# 5 0.0000 0.0000 0.0000 0.0000 24.7629 0.0000
# 6 0.0000 0.0000 0.0000 0.0000 0.0000 34.2208
#
#
#
# Elastic Compliance Matrix: (Units=1/GPa)
#
#
# Indices 1 2 3 4 5 6 
#
# 1 0.011960 -0.002651 -0.005685 0.000000 0.000000 0.000000
# 2 -0.002651 0.011960 -0.005685 0.000000 0.000000 0.000000
# 3 -0.005685 -0.005685 0.023191 0.000000 0.000000 0.000000
# 4 0.000000 0.000000 0.000000 0.040383 0.000000 0.000000
# 5 0.000000 0.000000 0.000000 0.000000 0.040383 0.000000
# 6 0.000000 0.000000 0.000000 0.000000 0.000000 0.029222
#
#
# Mechanical properties :
#
#
# Convention : Reuss Voigt Hill
#
# Bulk Modulus (GPa) = 52.44216 57.61945 55.03080
# Shear Modulus (GPa) = 26.10995 27.79606 26.95300
#
# Velocity S-wave (km/s) = 3.78684 3.90720 3.84749
# Velocity P-wave (km/s) = 6.92261 7.21115 7.06836
#
# Compressibility (1/GPa) = 0.01906863
#
# Stress axis : x y z
#
# Youngs Moduli (GPa) = 83.61204 83.61204 43.11989
#
# Poissons Ratio (x) = 0.22166 0.24514
# Poissons Ratio (y) = 0.22166 0.24514
# Poissons Ratio (z) = 0.47534 0.47534
#
# Static dielectric constant tensor:
#      x y z
#    x 1.631810 0.000000 0.000000 
#    y 0.000000 1.631810 0.000000 
#    z 0.000000 0.000000 1.715640 
# 
# From -- ./inp_files/9047.got.cif
#   From: 2010.05.17/outbox.ucp.g08.bks.cvg/sg179_5_cif.got.tgz:9047.got - 2010.06.11 15:19:48.
