data_PCOD9583789
_publ_section_title
;
Structure prediction by ZEFSAII (Michael W. Deem and Ramdas Pophale) SiO2 
 PCOD9583789
Probable space group: P 62 2 2
;
_chemical_formula_sum "Si O2"
_cell_formula_units_Z 66
_cell_length_a 17.327620
_cell_length_b 17.327620
_cell_length_c 15.513611
_cell_angle_alpha 90.000000
_cell_angle_beta 90.000000
_cell_angle_gamma 120.000000
_cell_volume 4033.864997
_symmetry_space_group_name_H-M "P 62 2 2"
_symmetry_group_IT_number 180
_symmetry_cell_setting 'hexagonal'
loop_
_space_group_symop_operation_xyz
x,y,z
x-y,x,1/3+z
-y,x-y,2/3+z
-x,-y,z
-x+y,-x,1/3+z
y,-x+y,2/3+z
x-y,-y,-z
-x,-x+y,1/3-z
y,x,2/3-z
-y,-x,2/3-z
-x+y,y,-z
x,x-y,1/3-z
loop_
_atom_site_type_symbol
_atom_site_label
_atom_site_fract_x
_atom_site_fract_y
_atom_site_fract_z
Si Si1 0.475850 0.154662 0.695053
Si Si2 0.557236 0.350140 0.922816
Si Si3 0.468849 0.628683 0.443587
Si Si4 0.383270 0.383270 0.333334
Si Si5 0.127155 0.692963 0.815716
Si Si6 0.570844 0.605681 0.005454
O O1 0.447001 0.223501 0.666667
O O2 0.577763 0.195932 0.661065
O O3 0.484372 0.148276 0.797186
O O4 0.405833 0.060498 0.653222
O O5 0.606133 0.393868 0.833334
O O6 0.544973 0.252257 0.929530
O O7 0.465598 0.352423 0.935073
O O8 0.533188 0.606010 0.388610
O O9 0.375790 0.537566 0.457050
O O10 0.311900 0.373461 0.405893
O O11 0.210792 0.789209 0.833334
O O12 0.074086 0.654998 0.904807
O O13 0.500000 0.500000 0.017864
#
# Coordination Sequence:
#
# PCOD9583789 Si02
#       6
#    12  12  12   6  12  12
#     4  11  22  37  54  74 107 141 179 237 277 315
#     4  11  22  35  56  77 103 142 189 232 277 324
#     4  12  22  37  51  79 105 139 193 230 272 325
#     4  12  25  36  56  76 104 152 187 228 283 330
#     4  12  22  35  55  77 108 144 184 236 271 319
#     4  10  20  37  52  70 108 139 179 228 280 321
#
# _framework density 16.36148
#
# number of rings (size 3 to 8) (size 9 to 14) (size 15 to 20)
#    0.000    0.727    7.273    3.273    0.000    3.273 
#    0.000    0.000    0.000    0.000    0.000    0.000 
#    0.000    0.000    0.000   19.636    0.000    0.000 
#
# Total GULP energy -368240.895019 kJ/mol
# GULP energy per Si atom -5579.407500 kJ/mol
# Density = 1.632424 g / cm^3
# Si number density = 16.361480 Si / 1000 Ang^3
#
#
#
# Elastic Constant Matrix: (Units=GPa)
#
#
# Indices 1 2 3 4 5 6 
#
# 1 101.4279 52.0994 27.3885 0.0000 0.0000 0.0000
# 2 52.0994 101.4279 27.3885 0.0000 0.0000 0.0000
# 3 27.3885 27.3885 76.5530 0.0000 0.0000 0.0000
# 4 0.0000 0.0000 0.0000 23.0628 0.0000 0.0000
# 5 0.0000 0.0000 0.0000 0.0000 23.0628 0.0000
# 6 0.0000 0.0000 0.0000 0.0000 0.0000 24.6643
#
#
#
# Elastic Compliance Matrix: (Units=1/GPa)
#
#
# Indices 1 2 3 4 5 6 
#
# 1 0.013869 -0.006403 -0.002671 0.000000 0.000000 0.000000
# 2 -0.006403 0.013869 -0.002671 0.000000 0.000000 0.000000
# 3 -0.002671 -0.002671 0.014974 0.000000 0.000000 0.000000
# 4 0.000000 0.000000 0.000000 0.043360 0.000000 0.000000
# 5 0.000000 0.000000 0.000000 0.000000 0.043360 0.000000
# 6 0.000000 0.000000 0.000000 0.000000 0.000000 0.040544
#
#
# Mechanical properties :
#
#
# Convention : Reuss Voigt Hill
#
# Bulk Modulus (GPa) = 52.02331 54.79575 53.40953
# Shear Modulus (GPa) = 25.01552 25.66012 25.33782
#
# Velocity S-wave (km/s) = 3.91439 3.96450 3.93953
# Velocity P-wave (km/s) = 7.23154 7.38375 7.30804
#
# Compressibility (1/GPa) = 0.01922215
#
# Stress axis : x y z
#
# Youngs Moduli (GPa) = 72.10104 72.10104 66.78110
#
# Poissons Ratio (x) = 0.46165 0.17839
# Poissons Ratio (y) = 0.46165 0.17839
# Poissons Ratio (z) = 0.19261 0.19261
#
# Static dielectric constant tensor:
#      x y z
#    x 1.583790 0.000000 0.000000 
#    y 0.000000 1.583790 0.000000 
#    z 0.000000 0.000000 1.608170 
# 
# From -- ./inp_files/6344.got.cif
#   From: 2010.05.17/outbox.cif.g08.bks.cpg/sg180_4_cif.got.tgz:6344.got - 2010.05.20 11:43:55.
