data_PCOD9583249
_publ_section_title
;
Structure prediction by ZEFSAII (Michael W. Deem and Ramdas Pophale) SiO2 
 PCOD9583249
Probable space group: P 65 2 2
;
_chemical_formula_sum "Si O2"
_cell_formula_units_Z 42
_cell_length_a 24.297586
_cell_length_b 24.297586
_cell_length_c 5.099592
_cell_angle_alpha 90.000000
_cell_angle_beta 90.000000
_cell_angle_gamma 120.000000
_cell_volume 2607.307889
_symmetry_space_group_name_H-M "P 65 2 2"
_symmetry_group_IT_number 179
_symmetry_cell_setting 'hexagonal'
loop_
_space_group_symop_operation_xyz
x,y,z
x-y,x,5/6+z
-y,x-y,2/3+z
-x,-y,1/2+z
-x+y,-x,1/3+z
y,-x+y,1/6+z
x-y,-y,-z
-x,-x+y,1/3-z
y,x,2/3-z
-y,-x,1/6-z
-x+y,y,1/2-z
x,x-y,5/6-z
loop_
_atom_site_type_symbol
_atom_site_label
_atom_site_fract_x
_atom_site_fract_y
_atom_site_fract_z
Si Si1 0.225935 0.649272 0.656444
Si Si2 0.477756 0.522244 0.583334
Si Si3 0.599111 0.954334 0.252325
Si Si4 0.253240 0.433803 0.488084
O O1 0.297882 0.702119 0.583334
O O2 0.198642 0.599321 0.416667
O O3 0.193096 0.691523 0.707641
O O4 0.224417 0.612209 0.916667
O O5 0.494939 0.494939 0.333334
O O6 0.402646 0.477848 0.611679
O O7 0.607442 0.893491 0.225512
O O8 0.631227 0.000000 0.500000
O O9 0.624770 0.000000 0.000000
O O10 0.222347 0.444694 0.750000
O O11 0.203119 0.406238 0.250000
#
# Coordination Sequence:
#
# PCOD9583249 Si02
#       4
#    12   6  12  12
#     4  11  21  33  47  64  87 119 155 193 237 295
#     4   8  16  30  46  70  92 112 152 196 238 288
#     4  10  20  36  54  73  95 124 159 200 249 299
#     4  11  23  37  51  75 100 124 157 200 256 306
#
# _framework density 16.108568000000002
#
# number of rings (size 3 to 8) (size 9 to 14) (size 15 to 20)
#    0.000    1.714    0.000    6.857    2.000    0.000 
#   10.286    0.000    0.000    0.000    0.000    0.000 
#    0.000    0.000    0.000    0.000    0.000    0.000 
#
# Total GULP energy -234338.005756 kJ/mol
# GULP energy per Si atom -5579.476328 kJ/mol
# Density = 1.607190 g / cm^3
# Si number density = 16.108568 Si / 1000 Ang^3
#
#
#
# Elastic Constant Matrix: (Units=GPa)
#
#
# Indices 1 2 3 4 5 6 
#
# 1 53.4902 45.1637 34.6980 0.0000 0.0000 0.0000
# 2 45.1637 53.4902 34.6980 0.0000 0.0000 0.0000
# 3 34.6980 34.6980 141.3918 0.0000 0.0000 0.0000
# 4 0.0000 0.0000 0.0000 10.1157 0.0000 0.0000
# 5 0.0000 0.0000 0.0000 0.0000 10.1157 0.0000
# 6 0.0000 0.0000 0.0000 0.0000 0.0000 4.1632
#
#
#
# Elastic Compliance Matrix: (Units=1/GPa)
#
#
# Indices 1 2 3 4 5 6 
#
# 1 0.066175 -0.053924 -0.003007 0.000000 0.000000 0.000000
# 2 -0.053924 0.066175 -0.003007 0.000000 0.000000 0.000000
# 3 -0.003007 -0.003007 0.008548 0.000000 0.000000 0.000000
# 4 0.000000 0.000000 0.000000 0.098857 0.000000 0.000000
# 5 0.000000 0.000000 0.000000 0.000000 0.098857 0.000000
# 6 0.000000 0.000000 0.000000 0.000000 0.000000 0.240197
#
#
# Mechanical properties :
#
#
# Convention : Reuss Voigt Hill
#
# Bulk Modulus (GPa) = 47.56302 53.05461 50.30882
# Shear Modulus (GPa) = 7.08526 13.79975 10.44250
#
# Velocity S-wave (km/s) = 2.09952 2.93007 2.54885
# Velocity P-wave (km/s) = 5.95550 6.66740 6.32148
#
# Compressibility (1/GPa) = 0.02102474
#
# Stress axis : x y z
#
# Youngs Moduli (GPa) = 15.11144 15.11144 116.98427
#
# Poissons Ratio (x) = 0.81487 0.35171
# Poissons Ratio (y) = 0.81487 0.35171
# Poissons Ratio (z) = 0.04543 0.04543
#
# Static dielectric constant tensor:
#      x y z
#    x 1.556700 0.000000 0.000000 
#    y 0.000000 1.556700 0.000000 
#    z 0.000000 0.000000 1.576250 
# 
# From -- ./inp_files/725.got.cif
#   From: 2010.05.17/outbox.cif.g08.bks.cpg/sg179_1_cif.got.tgz:725.got - 2010.05.20 11:37:33.
