data_PCOD9583671
_publ_section_title
;
Structure prediction by ZEFSAII (Michael W. Deem and Ramdas Pophale) SiO2 
 PCOD9583671
Probable space group: P 62 2 2
;
_chemical_formula_sum "Si O2"
_cell_formula_units_Z 69
_cell_length_a 12.460512
_cell_length_b 12.460512
_cell_length_c 28.193964
_cell_angle_alpha 90.000000
_cell_angle_beta 90.000000
_cell_angle_gamma 120.000000
_cell_volume 3791.041583
_symmetry_space_group_name_H-M "P 62 2 2"
_symmetry_group_IT_number 180
_symmetry_cell_setting 'hexagonal'
loop_
_space_group_symop_operation_xyz
x,y,z
x-y,x,1/3+z
-y,x-y,2/3+z
-x,-y,z
-x+y,-x,1/3+z
y,-x+y,2/3+z
x-y,-y,-z
-x,-x+y,1/3-z
y,x,2/3-z
-y,-x,2/3-z
-x+y,y,-z
x,x-y,1/3-z
loop_
_atom_site_type_symbol
_atom_site_label
_atom_site_fract_x
_atom_site_fract_y
_atom_site_fract_z
Si Si1 0.206507 0.524398 0.711734
Si Si2 0.743242 0.730054 0.486788
Si Si3 0.689554 0.914103 0.544293
Si Si4 0.589063 0.440574 0.889277
Si Si5 0.500000 0.000000 0.117691
Si Si6 0.000000 0.000000 0.000000
Si Si7 0.750632 0.871436 0.392203
O O1 0.223412 0.611706 0.666667
O O2 0.329119 0.557298 0.742034
O O3 0.148972 0.376958 0.699565
O O4 0.115287 0.537754 0.748925
O O5 0.852481 0.704962 0.500000
O O6 0.742942 0.829912 0.523704
O O7 0.612766 0.603232 0.482112
O O8 0.766723 0.794673 0.435107
O O9 0.552945 0.825505 0.563109
O O10 0.695128 0.000000 0.500000
O O11 0.759779 0.018435 0.582970
O O12 0.500000 0.500000 0.896492
O O13 0.588758 0.411243 0.833334
O O14 0.048510 0.925008 0.030553
#
# Coordination Sequence:
#
# PCOD9583671 Si02
#       7
#    12  12  12  12   6   3  12
#     4  11  24  41  63  89 129 175 215 261 320 397
#     4  10  21  37  62  91 128 154 197 268 329 373
#     4  10  18  36  62  91 120 151 201 257 321 381
#     4  11  18  36  67  95 119 159 218 269 314 382
#     4  10  23  38  60  90 124 172 210 250 316 406
#     4  12  24  36  60  84 116 160 220 250 292 372
#     4  10  22  38  60  89 115 165 208 256 314 378
#
# _framework density 18.200803000000001
#
# number of rings (size 3 to 8) (size 9 to 14) (size 15 to 20)
#    0.000    1.565    3.478    3.391    4.870    4.522 
#    1.565    0.000    0.000    0.000    0.000    0.000 
#    0.000    0.000    0.000    0.000    0.000    0.000 
#
# Total GULP energy -384245.983845 kJ/mol
# GULP energy per Si atom -5568.782375 kJ/mol
# Density = 1.815938 g / cm^3
# Si number density = 18.200803 Si / 1000 Ang^3
#
#
#
# Elastic Constant Matrix: (Units=GPa)
#
#
# Indices 1 2 3 4 5 6 
#
# 1 109.1048 53.4931 44.7564 0.0000 0.0000 0.0000
# 2 53.4931 109.1048 44.7564 0.0000 0.0000 0.0000
# 3 44.7564 44.7564 52.7792 0.0000 0.0000 0.0000
# 4 0.0000 0.0000 0.0000 16.2158 0.0000 0.0000
# 5 0.0000 0.0000 0.0000 0.0000 16.2158 0.0000
# 6 0.0000 0.0000 0.0000 0.0000 0.0000 27.8059
#
#
#
# Elastic Compliance Matrix: (Units=1/GPa)
#
#
# Indices 1 2 3 4 5 6 
#
# 1 0.014758 -0.003223 -0.009782 0.000000 0.000000 0.000000
# 2 -0.003223 0.014758 -0.009782 0.000000 0.000000 0.000000
# 3 -0.009782 -0.009782 0.035537 0.000000 0.000000 0.000000
# 4 0.000000 0.000000 0.000000 0.061668 0.000000 0.000000
# 5 0.000000 0.000000 0.000000 0.000000 0.061668 0.000000
# 6 0.000000 0.000000 0.000000 0.000000 0.000000 0.035964
#
#
# Mechanical properties :
#
#
# Convention : Reuss Voigt Hill
#
# Bulk Modulus (GPa) = 51.33487 61.88892 56.61189
# Shear Modulus (GPa) = 18.08840 20.57970 19.33405
#
# Velocity S-wave (km/s) = 3.15592 3.36624 3.26277
# Velocity P-wave (km/s) = 6.44560 7.01327 6.73542
#
# Compressibility (1/GPa) = 0.01947994
#
# Stress axis : x y z
#
# Youngs Moduli (GPa) = 67.75766 67.75766 28.14006
#
# Poissons Ratio (x) = 0.21841 0.27526
# Poissons Ratio (y) = 0.21841 0.27526
# Poissons Ratio (z) = 0.66279 0.66279
#
# Static dielectric constant tensor:
#      x y z
#    x 1.710270 0.000000 0.000000 
#    y 0.000000 1.710270 0.000000 
#    z 0.000000 0.000000 1.469170 
# 
# From -- ./inp_files/12326.got.cif
#   From: 2010.05.17/outbox.cif.g08.bks.cpg/sg180_7_cif.got.tgz:12326.got - 2010.05.20 11:43:55.
