data_PCOD9583498
_publ_section_title
;
Structure prediction by ZEFSAII (Michael W. Deem and Ramdas Pophale) SiO2 
 PCOD9583498
Probable space group: P 65 2 2
;
_chemical_formula_sum "Si O2"
_cell_formula_units_Z 84
_cell_length_a 19.878196
_cell_length_b 19.878196
_cell_length_c 12.798365
_cell_angle_alpha 90.000000
_cell_angle_beta 90.000000
_cell_angle_gamma 120.000000
_cell_volume 4379.646522
_symmetry_space_group_name_H-M "P 65 2 2"
_symmetry_group_IT_number 179
_symmetry_cell_setting 'hexagonal'
loop_
_space_group_symop_operation_xyz
x,y,z
x-y,x,5/6+z
-y,x-y,2/3+z
-x,-y,1/2+z
-x+y,-x,1/3+z
y,-x+y,1/6+z
x-y,-y,-z
-x,-x+y,1/3-z
y,x,2/3-z
-y,-x,1/6-z
-x+y,y,1/2-z
x,x-y,5/6-z
loop_
_atom_site_type_symbol
_atom_site_label
_atom_site_fract_x
_atom_site_fract_y
_atom_site_fract_z
Si Si1 0.513835 0.976252 0.116830
Si Si2 0.631448 0.257193 0.997218
Si Si3 0.297275 0.832254 0.381200
Si Si4 0.231935 0.912497 0.540656
Si Si5 0.605058 0.943396 0.405096
Si Si6 0.289749 0.824346 0.930754
Si Si7 0.659862 0.605653 0.592936
O O1 0.516099 0.899443 0.146550
O O2 0.425870 0.958064 0.112567
O O3 0.579219 0.039797 0.191245
O O4 0.545356 0.000000 0.000000
O O5 0.681334 0.318667 0.083334
O O6 0.552384 0.191924 0.049362
O O7 0.607941 0.303971 0.916667
O O8 0.684899 0.226171 0.947736
O O9 0.254757 0.868138 0.451537
O O10 0.250247 0.786931 0.278510
O O11 0.144300 0.855700 0.583334
O O12 0.283637 0.922538 0.642705
O O13 0.258535 0.000000 0.500000
O O14 0.576357 0.861365 0.459557
O O15 0.654178 0.000000 0.500000
O O16 0.650331 0.976333 0.297080
O O17 0.312594 0.883680 0.833456
#
# Coordination Sequence:
#
# PCOD9583498 Si02
#       7
#    12  12  12  12  12  12  12
#     4  11  20  36  59  87 116 157 218 275 335 387
#     4  12  26  42  54  79 123 179 240 291 337 378
#     4  12  22  39  63  85 125 171 223 281 334 385
#     4  12  24  44  71 105 133 158 206 267 342 415
#     4   9  21  37  53  81 119 161 216 263 312 386
#     4  11  24  41  57  83 119 167 219 276 330 384
#     4  11  21  38  65  89 115 159 204 268 329 391
#
# _framework density 19.17963
#
# number of rings (size 3 to 8) (size 9 to 14) (size 15 to 20)
#    0.000    0.857    7.143    0.857    0.000    2.286 
#    7.714    0.000    0.000    0.000    0.000    0.000 
#    4.286    0.000    0.000    0.000    0.000    0.000 
#
# Total GULP energy -468846.501800 kJ/mol
# GULP energy per Si atom -5581.505974 kJ/mol
# Density = 1.913598 g / cm^3
# Si number density = 19.179630 Si / 1000 Ang^3
#
#
#
# Elastic Constant Matrix: (Units=GPa)
#
#
# Indices 1 2 3 4 5 6 
#
# 1 65.7315 19.6329 24.3469 0.0000 0.0000 0.0000
# 2 19.6329 65.7315 24.3469 0.0000 0.0000 0.0000
# 3 24.3469 24.3469 100.4483 0.0000 0.0000 0.0000
# 4 0.0000 0.0000 0.0000 29.3666 0.0000 0.0000
# 5 0.0000 0.0000 0.0000 0.0000 29.3666 0.0000
# 6 0.0000 0.0000 0.0000 0.0000 0.0000 23.0493
#
#
#
# Elastic Compliance Matrix: (Units=1/GPa)
#
#
# Indices 1 2 3 4 5 6 
#
# 1 0.017643 -0.004049 -0.003295 0.000000 0.000000 0.000000
# 2 -0.004049 0.017643 -0.003295 0.000000 0.000000 0.000000
# 3 -0.003295 -0.003295 0.011553 0.000000 0.000000 0.000000
# 4 0.000000 0.000000 0.000000 0.034052 0.000000 0.000000
# 5 0.000000 0.000000 0.000000 0.000000 0.034052 0.000000
# 6 0.000000 0.000000 0.000000 0.000000 0.000000 0.043385
#
#
# Mechanical properties :
#
#
# Convention : Reuss Voigt Hill
#
# Bulk Modulus (GPa) = 39.12229 40.95160 40.03694
# Shear Modulus (GPa) = 26.57766 27.26213 26.91990
#
# Velocity S-wave (km/s) = 3.72657 3.77425 3.75049
# Velocity P-wave (km/s) = 6.24168 6.35541 6.29880
#
# Compressibility (1/GPa) = 0.02556088
#
# Stress axis : x y z
#
# Youngs Moduli (GPa) = 56.67868 56.67868 86.56031
#
# Poissons Ratio (x) = 0.22951 0.28521
# Poissons Ratio (y) = 0.22951 0.28521
# Poissons Ratio (z) = 0.18675 0.18675
#
# Static dielectric constant tensor:
#      x y z
#    x 1.781860 0.000000 0.000000 
#    y 0.000000 1.781860 0.000000 
#    z 0.000000 0.000000 1.712230 
# 
# From -- ./inp_files/4944.got.cif
#   From: 2010.05.17/outbox.cif.g08.bks.cpg/sg179_3_cif.got.tgz:4944.got - 2010.05.20 11:37:33.
