data_PCOD9583907
_publ_section_title
;
Structure prediction by ZEFSAII (Michael W. Deem and Ramdas Pophale) SiO2 
 PCOD9583907
Probable space group: P 62 2 2
;
_chemical_formula_sum "Si O2"
_cell_formula_units_Z 36
_cell_length_a 8.209319
_cell_length_b 8.209319
_cell_length_c 27.367103
_cell_angle_alpha 90.000000
_cell_angle_beta 90.000000
_cell_angle_gamma 120.000000
_cell_volume 1597.253036
_symmetry_space_group_name_H-M "P 62 2 2"
_symmetry_group_IT_number 180
_symmetry_cell_setting 'hexagonal'
loop_
_space_group_symop_operation_xyz
x,y,z
x-y,x,1/3+z
-y,x-y,2/3+z
-x,-y,z
-x+y,-x,1/3+z
y,-x+y,2/3+z
x-y,-y,-z
-x,-x+y,1/3-z
y,x,2/3-z
-y,-x,2/3-z
-x+y,y,-z
x,x-y,1/3-z
loop_
_atom_site_type_symbol
_atom_site_label
_atom_site_fract_x
_atom_site_fract_y
_atom_site_fract_z
Si Si1 0.666959 0.970592 0.128118
Si Si2 0.971170 0.291525 0.066028
Si Si3 0.349490 0.281531 0.045045
O O1 0.839388 0.162905 0.109013
O O2 0.500000 0.000000 0.147997
O O3 0.722060 0.861030 0.166667
O O4 0.596096 0.758524 0.253000
O O5 0.000000 0.500000 0.071334
O O6 0.157194 0.271798 0.063271
O O7 0.886990 0.223778 0.011547
O O8 0.500000 0.500000 0.047069
#
# Coordination Sequence:
#
# PCOD9583907 Si02
#       3
#    12  12  12
#     4  12  26  43  62  91 131 175 221 271 327 386
#     4  10  22  41  69 101 131 168 215 267 324 390
#     4  10  21  41  68 101 134 165 211 267 323 390
#
# _framework density 22.538698
#
# number of rings (size 3 to 8) (size 9 to 14) (size 15 to 20)
#    0.000    1.333    0.000    5.000    0.000   10.667 
#    0.000    1.667    0.000    0.000    0.000    0.000 
#    0.000    0.000    0.000    0.000    0.000    0.000 
#
# Total GULP energy -201511.222173 kJ/mol
# GULP energy per Si atom -5597.533949 kJ/mol
# Density = 2.248740 g / cm^3
# Si number density = 22.538698 Si / 1000 Ang^3
#
#
#
# Elastic Constant Matrix: (Units=GPa)
#
#
# Indices 1 2 3 4 5 6 
#
# 1 92.0651 24.0970 46.4566 0.0000 0.0000 0.0000
# 2 24.0970 92.0651 46.4566 0.0000 0.0000 0.0000
# 3 46.4566 46.4566 90.0954 0.0000 0.0000 0.0000
# 4 0.0000 0.0000 0.0000 -51.4276 0.0000 0.0000
# 5 0.0000 0.0000 0.0000 0.0000 -51.4276 0.0000
# 6 0.0000 0.0000 0.0000 0.0000 0.0000 33.9841
#
#
#
# Elastic Compliance Matrix: (Units=1/GPa)
#
#
# Indices 1 2 3 4 5 6 
#
# 1 0.014682 -0.000031 -0.007555 0.000000 0.000000 0.000000
# 2 -0.000031 0.014682 -0.007555 0.000000 0.000000 0.000000
# 3 -0.007555 -0.007555 0.018890 0.000000 0.000000 0.000000
# 4 0.000000 0.000000 0.000000 -0.019445 0.000000 0.000000
# 5 0.000000 0.000000 0.000000 0.000000 -0.019445 0.000000
# 6 0.000000 0.000000 0.000000 0.000000 0.000000 0.029426
#
#
# Mechanical properties :
#
#
# Convention : Reuss Voigt Hill
#
# Bulk Modulus (GPa) = 55.63589 56.47178 56.05383
# Shear Modulus (GPa) = 66.61097 -3.29321 31.65888
#
# Velocity S-wave (km/s) = 5.44226 -1.21009 3.75193
# Velocity P-wave (km/s) = 8.01431 4.81222 6.61009
#
# Compressibility (1/GPa) = 0.01797401
#
# Stress axis : x y z
#
# Youngs Moduli (GPa) = 68.11006 68.11007 52.93672
#
# Poissons Ratio (x) = 0.00209 0.39993
# Poissons Ratio (y) = 0.00209 0.39993
# Poissons Ratio (z) = 0.51456 0.51456
#
# Static dielectric constant tensor:
#      x y z
#    x 1.899560 0.000000 0.000000 
#    y 0.000000 1.899560 0.000000 
#    z 0.000000 0.000000 1.833810 
# 
# From -- ./inp_files/10823.got.cif
#   From: 2010.05.17/outbox.cif.g08.bks.cpg/sg180_6_cif.got.tgz:10823.got - 2010.05.20 11:43:55.
