data_PCOD9583187
_publ_section_title
;
Structure prediction by ZEFSAII (Michael W. Deem and Ramdas Pophale) SiO2 
 PCOD9583187
Probable space group: P 65 2 2
;
_chemical_formula_sum "Si O2"
_cell_formula_units_Z 60
_cell_length_a 12.312669
_cell_length_b 12.312669
_cell_length_c 25.335581
_cell_angle_alpha 90.000000
_cell_angle_beta 90.000000
_cell_angle_gamma 120.000000
_cell_volume 3326.334413
_symmetry_space_group_name_H-M "P 65 2 2"
_symmetry_group_IT_number 179
_symmetry_cell_setting 'hexagonal'
loop_
_space_group_symop_operation_xyz
x,y,z
x-y,x,5/6+z
-y,x-y,2/3+z
-x,-y,1/2+z
-x+y,-x,1/3+z
y,-x+y,1/6+z
x-y,-y,-z
-x,-x+y,1/3-z
y,x,2/3-z
-y,-x,1/6-z
-x+y,y,1/2-z
x,x-y,5/6-z
loop_
_atom_site_type_symbol
_atom_site_label
_atom_site_fract_x
_atom_site_fract_y
_atom_site_fract_z
Si Si1 0.325459 0.510048 0.842854
Si Si2 0.524935 0.980222 0.410147
Si Si3 0.691781 0.790698 0.195329
Si Si4 0.856740 0.384546 0.359227
Si Si5 0.120274 0.222549 0.632277
O O1 0.390046 0.520982 0.786394
O O2 0.429572 0.535148 0.887798
O O3 0.260377 0.593659 0.848011
O O4 0.212924 0.365285 0.851947
O O5 0.654211 0.003864 0.385012
O O6 0.438730 0.947599 0.358464
O O7 0.574717 0.813019 0.195463
O O8 0.790193 0.883710 0.237449
O O9 0.762689 0.796960 0.142442
O O10 0.906355 0.453178 0.416667
O O11 0.000000 0.133467 0.666667
#
# Coordination Sequence:
#
# PCOD9583187 Si02
#       5
#    12  12  12  12  12
#     4  10  19  34  60  87 116 154 199 259 305 365
#     4  10  19  34  57  84 120 150 203 247 311 363
#     4  11  21  34  55  91 126 151 193 258 315 360
#     4  12  21  33  53  88 133 156 188 253 318 377
#     4  11  19  33  61  92 117 147 197 257 316 348
#
# _framework density 18.037873999999999
#
# number of rings (size 3 to 8) (size 9 to 14) (size 15 to 20)
#    0.000    1.200   10.000    1.200    0.000    0.000 
#    0.000    6.000    0.000    0.000   26.000    0.000 
#    0.000    0.000    0.000    0.000    0.000    0.000 
#
# Total GULP energy -334074.147694 kJ/mol
# GULP energy per Si atom -5567.902462 kJ/mol
# Density = 1.799682 g / cm^3
# Si number density = 18.037874 Si / 1000 Ang^3
#
#
#
# Elastic Constant Matrix: (Units=GPa)
#
#
# Indices 1 2 3 4 5 6 
#
# 1 57.6272 21.7605 24.2625 0.0000 0.0000 0.0000
# 2 21.7605 57.6272 24.2625 0.0000 0.0000 0.0000
# 3 24.2625 24.2625 94.1892 0.0000 0.0000 0.0000
# 4 0.0000 0.0000 0.0000 17.2746 0.0000 0.0000
# 5 0.0000 0.0000 0.0000 0.0000 17.2746 0.0000
# 6 0.0000 0.0000 0.0000 0.0000 0.0000 17.9334
#
#
#
# Elastic Compliance Matrix: (Units=1/GPa)
#
#
# Indices 1 2 3 4 5 6 
#
# 1 0.021416 -0.006465 -0.003851 0.000000 0.000000 0.000000
# 2 -0.006465 0.021416 -0.003851 0.000000 0.000000 0.000000
# 3 -0.003851 -0.003851 0.012601 0.000000 0.000000 0.000000
# 4 0.000000 0.000000 0.000000 0.057888 0.000000 0.000000
# 5 0.000000 0.000000 0.000000 0.000000 0.057888 0.000000
# 6 0.000000 0.000000 0.000000 0.000000 0.000000 0.055762
#
#
# Mechanical properties :
#
#
# Convention : Reuss Voigt Hill
#
# Bulk Modulus (GPa) = 36.90410 38.89050 37.89730
# Shear Modulus (GPa) = 18.91514 19.77374 19.34444
#
# Velocity S-wave (km/s) = 3.24178 3.31454 3.27836
# Velocity P-wave (km/s) = 5.87501 6.02125 5.94858
#
# Compressibility (1/GPa) = 0.02709726
#
# Stress axis : x y z
#
# Youngs Moduli (GPa) = 46.69477 46.69477 79.35898
#
# Poissons Ratio (x) = 0.30190 0.30562
# Poissons Ratio (y) = 0.30190 0.30562
# Poissons Ratio (z) = 0.17983 0.17983
#
# Static dielectric constant tensor:
#      x y z
#    x 1.624360 0.000000 0.000000 
#    y 0.000000 1.624360 0.000000 
#    z 0.000000 0.000000 1.710790 
# 
# From -- ./inp_files/8854.got.cif
#   From: 2010.05.17/outbox.cif.g08.bks.cpg/sg179_5_cif.got.tgz:8854.got - 2010.05.20 11:37:33.
