data_PCOD9583015
_publ_section_title
;
Structure prediction by ZEFSAII (Michael W. Deem and Ramdas Pophale) SiO2 
 PCOD9583015
Probable space group: P 61 2 2
;
_chemical_formula_sum "Si O2"
_cell_formula_units_Z 72
_cell_length_a 11.458069
_cell_length_b 11.458069
_cell_length_c 26.945102
_cell_angle_alpha 90.000000
_cell_angle_beta 90.000000
_cell_angle_gamma 120.000000
_cell_volume 3063.608953
_symmetry_space_group_name_H-M "P 61 2 2"
_symmetry_group_IT_number 178
_symmetry_cell_setting 'hexagonal'
loop_
_space_group_symop_operation_xyz
x,y,z
x-y,x,1/6+z
-y,x-y,1/3+z
-x,-y,1/2+z
-x+y,-x,2/3+z
y,-x+y,5/6+z
x-y,-y,-z
-x,-x+y,2/3-z
y,x,1/3-z
-y,-x,5/6-z
-x+y,y,1/2-z
x,x-y,1/6-z
loop_
_atom_site_type_symbol
_atom_site_label
_atom_site_fract_x
_atom_site_fract_y
_atom_site_fract_z
Si Si1 0.000000 0.110085 0.333334
Si Si2 0.054535 0.945466 0.416667
Si Si3 0.399021 0.847947 0.499381
Si Si4 0.141468 0.514260 0.947203
Si Si5 0.596048 0.676842 0.907870
Si Si6 0.358739 0.241533 0.519950
Si Si7 0.839401 0.606225 0.660391
O O1 0.879587 0.135266 0.352103
O O2 0.943884 0.001490 0.288352
O O3 0.109579 0.880125 0.374279
O O4 0.387051 0.817398 0.557993
O O5 0.257470 0.761364 0.473524
O O6 0.521160 0.836803 0.476897
O O7 0.432296 0.000000 0.500000
O O8 0.245147 0.460418 0.959048
O O9 0.140629 0.634670 0.976973
O O10 0.999873 0.377085 0.954981
O O11 0.468554 0.531447 0.916667
O O12 0.652775 0.751718 0.960224
O O13 0.708760 0.655781 0.883042
#
# Coordination Sequence:
#
# PCOD9583015 Si02
#       7
#     6   6  12  12  12  12  12
#     4  12  32  50  78 116 166 226 270 334 418 492
#     4  12  30  52  78 114 170 212 282 332 402 496
#     4  11  25  47  76 106 158 202 266 323 405 478
#     4  11  24  46  81 108 154 202 257 338 407 476
#     4  11  24  51  78 120 160 207 276 338 420 486
#     4  11  25  50  82 118 149 216 269 343 402 482
#     4  12  26  50  75 115 161 215 264 337 407 499
#
# _framework density 23.501691999999998
#
# number of rings (size 3 to 8) (size 9 to 14) (size 15 to 20)
#    0.000    0.667    2.500    4.500   10.500    0.000 
#    7.500    0.000    0.000    0.000    0.000    0.000 
#    0.000    0.000    0.000    0.000    0.000    0.000 
#
# Total GULP energy -401416.444480 kJ/mol
# GULP energy per Si atom -5575.228396 kJ/mol
# Density = 2.344820 g / cm^3
# Si number density = 23.501692 Si / 1000 Ang^3
#
#
#
# Elastic Constant Matrix: (Units=GPa)
#
#
# Indices 1 2 3 4 5 6 
#
# 1 244.3521 -81.3631 51.9527 0.0000 0.0000 0.0000
# 2 -81.3631 244.3521 51.9527 0.0000 0.0000 0.0000
# 3 51.9527 51.9527 86.4142 0.0000 0.0000 0.0000
# 4 0.0000 0.0000 0.0000 -139.0678 0.0000 0.0000
# 5 0.0000 0.0000 0.0000 0.0000 -139.0678 0.0000
# 6 0.0000 0.0000 0.0000 0.0000 0.0000 162.8575
#
#
#
# Elastic Compliance Matrix: (Units=1/GPa)
#
#
# Indices 1 2 3 4 5 6 
#
# 1 0.006509 0.003439 -0.005981 0.000000 0.000000 0.000000
# 2 0.003439 0.006509 -0.005981 0.000000 0.000000 0.000000
# 3 -0.005981 -0.005981 0.018764 0.000000 0.000000 0.000000
# 4 0.000000 0.000000 0.000000 -0.007191 0.000000 0.000000
# 5 0.000000 0.000000 0.000000 0.000000 -0.007191 0.000000
# 6 0.000000 0.000000 0.000000 0.000000 0.000000 0.006140
#
#
# Mechanical properties :
#
#
# Convention : Reuss Voigt Hill
#
# Bulk Modulus (GPa) = 67.85896 68.91143 68.38520
# Shear Modulus (GPa) = 109.89312 13.78280 61.83796
#
# Velocity S-wave (km/s) = 6.84552 2.42432 5.13510
# Velocity P-wave (km/s) = 9.56129 6.10098 8.01999
#
# Compressibility (1/GPa) = 0.01473645
#
# Stress axis : x y z
#
# Youngs Moduli (GPa) = 153.62885 153.62886 53.29437
#
# Poissons Ratio (x) = -0.52833 0.31875
# Poissons Ratio (y) = -0.52833 0.31875
# Poissons Ratio (z) = 0.91884 0.91884
#
# Static dielectric constant tensor:
#      x y z
#    x 1.945840 0.000000 0.000000 
#    y 0.000000 1.945840 0.000000 
#    z 0.000000 0.000000 1.929120 
# 
# From -- ./inp_files/9629.got.cif
#   From: 2010.05.17/outbox.cif.g08.bks.cpg/sg178_5_cif.got.tgz:9629.got - 2010.05.20 11:30:59.
