data_PCOD9583995
_publ_section_title
;
Structure prediction by ZEFSAII (Michael W. Deem and Ramdas Pophale) SiO2 
 PCOD9583995
Probable space group: P 62 2 2
;
_chemical_formula_sum "Si O2"
_cell_formula_units_Z 75
_cell_length_a 16.813730
_cell_length_b 16.813730
_cell_length_c 15.062523
_cell_angle_alpha 90.000000
_cell_angle_beta 90.000000
_cell_angle_gamma 120.000000
_cell_volume 3687.707724
_symmetry_space_group_name_H-M "P 62 2 2"
_symmetry_group_IT_number 180
_symmetry_cell_setting 'hexagonal'
loop_
_space_group_symop_operation_xyz
x,y,z
x-y,x,1/3+z
-y,x-y,2/3+z
-x,-y,z
-x+y,-x,1/3+z
y,-x+y,2/3+z
x-y,-y,-z
-x,-x+y,1/3-z
y,x,2/3-z
-y,-x,2/3-z
-x+y,y,-z
x,x-y,1/3-z
loop_
_atom_site_type_symbol
_atom_site_label
_atom_site_fract_x
_atom_site_fract_y
_atom_site_fract_z
Si Si1 0.000000 0.500000 0.666667
Si Si2 0.665411 0.626241 0.208028
Si Si3 0.238748 0.076048 0.076682
Si Si4 0.410648 0.674103 0.068327
Si Si5 0.396877 0.916022 0.300423
Si Si6 0.640529 0.107764 0.489762
Si Si7 0.213182 0.398316 0.691288
O O1 0.960201 0.416247 0.597150
O O2 0.689674 0.730305 0.228567
O O3 0.643933 0.597487 0.106622
O O4 0.751468 0.622140 0.244838
O O5 0.200194 0.100097 0.166667
O O6 0.304630 0.174255 0.030338
O O7 0.174275 0.000000 0.000000
O O8 0.392105 0.696053 0.166667
O O9 0.406573 0.576100 0.067180
O O10 0.336841 0.673681 0.000000
O O11 0.512913 0.752091 0.038177
O O12 0.332157 0.879526 0.387047
O O13 0.500000 0.000000 0.321655
O O14 0.576661 0.153322 0.500000
O O15 0.707228 0.134241 0.571474
O O16 0.579414 0.000000 0.500000
#
# Coordination Sequence:
#
# PCOD9583995 Si02
#       7
#     3  12  12  12  12  12  12
#     4  12  20  40  60  88 138 164 236 254 340 376
#     4  11  25  37  62  92 123 171 215 281 317 388
#     4  10  23  42  66  98 131 171 214 272 341 399
#     4  12  28  39  59  85 120 169 218 275 326 377
#     4  12  25  39  58  81 120 170 221 259 329 378
#     4  11  22  40  59  85 121 170 217 259 323 390
#     4  11  23  40  63  88 124 167 217 269 324 379
#
# _framework density 20.337838000000001
#
# number of rings (size 3 to 8) (size 9 to 14) (size 15 to 20)
#    0.000    0.800    6.400    1.440   14.560    0.000 
#    0.000    0.000    0.000    0.000    0.000    0.000 
#    0.000   25.600    0.000    0.000    0.000    0.000 
#
# Total GULP energy -418141.948077 kJ/mol
# GULP energy per Si atom -5575.225974 kJ/mol
# Density = 2.029155 g / cm^3
# Si number density = 20.337838 Si / 1000 Ang^3
#
#
#
# Elastic Constant Matrix: (Units=GPa)
#
#
# Indices 1 2 3 4 5 6 
#
# 1 71.9352 -0.3011 32.0880 0.0000 0.0000 0.0000
# 2 -0.3011 71.9352 32.0880 0.0000 0.0000 0.0000
# 3 32.0880 32.0880 172.1436 0.0000 0.0000 0.0000
# 4 0.0000 0.0000 0.0000 17.9853 0.0000 0.0000
# 5 0.0000 0.0000 0.0000 0.0000 17.9853 0.0000
# 6 0.0000 0.0000 0.0000 0.0000 0.0000 36.1181
#
#
#
# Elastic Compliance Matrix: (Units=1/GPa)
#
#
# Indices 1 2 3 4 5 6 
#
# 1 0.015301 0.001457 -0.003124 0.000000 0.000000 0.000000
# 2 0.001457 0.015301 -0.003124 0.000000 0.000000 0.000000
# 3 -0.003124 -0.003124 0.006974 0.000000 0.000000 0.000000
# 4 0.000000 0.000000 0.000000 0.055601 0.000000 0.000000
# 5 0.000000 0.000000 0.000000 0.000000 0.055601 0.000000
# 6 0.000000 0.000000 0.000000 0.000000 0.000000 0.027687
#
#
# Mechanical properties :
#
#
# Convention : Reuss Voigt Hill
#
# Bulk Modulus (GPa) = 35.72033 49.30708 42.51370
# Shear Modulus (GPa) = 25.59165 31.22703 28.40934
#
# Velocity S-wave (km/s) = 3.55114 3.92269 3.74153
# Velocity P-wave (km/s) = 5.86649 6.69427 6.29401
#
# Compressibility (1/GPa) = 0.02799526
#
# Stress axis : x y z
#
# Youngs Moduli (GPa) = 65.35547 65.35547 143.39646
#
# Poissons Ratio (x) = -0.09525 0.44794
# Poissons Ratio (y) = -0.09525 0.44794
# Poissons Ratio (z) = 0.20416 0.20416
#
# Static dielectric constant tensor:
#      x y z
#    x 1.765310 0.000000 0.000000 
#    y 0.000000 1.765310 0.000000 
#    z 0.000000 0.000000 1.817620 
# 
# From -- ./inp_files/6443.got.cif
#   From: 2010.05.17/outbox.cif.g08.bks.cpg/sg180_4_cif.got.tgz:6443.got - 2010.05.20 11:43:55.
