data_PCOD9583808
_publ_section_title
;
Structure prediction by ZEFSAII (Michael W. Deem and Ramdas Pophale) SiO2 
 PCOD9583808
Probable space group: P 62 2 2
;
_chemical_formula_sum "Si O2"
_cell_formula_units_Z 75
_cell_length_a 11.434283
_cell_length_b 11.434283
_cell_length_c 31.861576
_cell_angle_alpha 90.000000
_cell_angle_beta 90.000000
_cell_angle_gamma 120.000000
_cell_volume 3607.578245
_symmetry_space_group_name_H-M "P 62 2 2"
_symmetry_group_IT_number 180
_symmetry_cell_setting 'hexagonal'
loop_
_space_group_symop_operation_xyz
x,y,z
x-y,x,1/3+z
-y,x-y,2/3+z
-x,-y,z
-x+y,-x,1/3+z
y,-x+y,2/3+z
x-y,-y,-z
-x,-x+y,1/3-z
y,x,2/3-z
-y,-x,2/3-z
-x+y,y,-z
x,x-y,1/3-z
loop_
_atom_site_type_symbol
_atom_site_label
_atom_site_fract_x
_atom_site_fract_y
_atom_site_fract_z
Si Si1 0.547927 0.773964 0.166667
Si Si2 0.562750 0.259591 0.585584
Si Si3 0.500000 0.500000 0.693228
Si Si4 0.000000 0.000000 0.166667
Si Si5 0.726133 0.667197 0.031433
Si Si6 0.045401 0.833116 0.889603
Si Si7 0.619834 0.777431 0.826593
Si Si8 0.610299 0.464575 0.221359
O O1 0.641459 0.791379 0.127445
O O2 0.463047 0.620391 0.179620
O O3 0.534070 0.127901 0.611663
O O4 0.467093 0.308805 0.607575
O O5 0.506406 0.215263 0.538527
O O6 0.723493 0.357547 0.582459
O O7 0.625844 0.596115 0.663598
O O8 0.888970 0.909747 0.203022
O O9 0.775967 0.794255 0.062088
O O10 0.845082 0.690164 0.000000
O O11 0.903153 0.737526 0.865900
O O12 0.674984 0.674984 0.833334
O O13 0.581808 0.829378 0.868957
O O14 0.500000 0.500000 0.239631
#
# Coordination Sequence:
#
# PCOD9583808 Si02
#       8
#     6  12   6   3  12  12  12  12
#     4  11  22  37  55  90 123 166 198 242 323 390
#     4  10  21  36  56  85 118 156 199 262 307 362
#     4  10  20  38  59  86 114 150 210 260 307 354
#     4  10  20  40  58  96 128 160 198 246 318 386
#     4   9  21  38  61  90 109 156 212 255 302 355
#     4  10  21  36  62  87 126 161 199 255 308 377
#     4  11  20  34  57  88 123 159 198 253 320 376
#     4  12  23  36  56  89 127 163 205 250 321 397
#
# _framework density 20.789569
#
# number of rings (size 3 to 8) (size 9 to 14) (size 15 to 20)
#    0.000    1.600    4.000    0.960    2.240    0.640 
#    0.000    0.400    0.000    4.320    0.000    0.000 
#    0.000    0.000    0.000    0.000    0.000    0.000 
#
# Total GULP energy -417840.797666 kJ/mol
# GULP energy per Si atom -5571.210636 kJ/mol
# Density = 2.074225 g / cm^3
# Si number density = 20.789569 Si / 1000 Ang^3
#
#
#
# Elastic Constant Matrix: (Units=GPa)
#
#
# Indices 1 2 3 4 5 6 
#
# 1 73.3780 24.2013 20.8587 0.0000 0.0000 0.0000
# 2 24.2013 73.3780 20.8587 0.0000 0.0000 0.0000
# 3 20.8587 20.8587 84.2493 0.0000 0.0000 0.0000
# 4 0.0000 0.0000 0.0000 20.8819 0.0000 0.0000
# 5 0.0000 0.0000 0.0000 0.0000 20.8819 0.0000
# 6 0.0000 0.0000 0.0000 0.0000 0.0000 24.5883
#
#
#
# Elastic Compliance Matrix: (Units=1/GPa)
#
#
# Indices 1 2 3 4 5 6 
#
# 1 0.015898 -0.004437 -0.002838 0.000000 0.000000 0.000000
# 2 -0.004437 0.015898 -0.002838 0.000000 0.000000 0.000000
# 3 -0.002838 -0.002838 0.013275 0.000000 0.000000 0.000000
# 4 0.000000 0.000000 0.000000 0.047888 0.000000 0.000000
# 5 0.000000 0.000000 0.000000 0.000000 0.047888 0.000000
# 6 0.000000 0.000000 0.000000 0.000000 0.000000 0.040670
#
#
# Mechanical properties :
#
#
# Convention : Reuss Voigt Hill
#
# Bulk Modulus (GPa) = 40.24688 40.31585 40.28136
# Shear Modulus (GPa) = 23.80690 24.27622 24.04156
#
# Velocity S-wave (km/s) = 3.38766 3.42089 3.40431
# Velocity P-wave (km/s) = 5.89091 5.91927 5.90511
#
# Compressibility (1/GPa) = 0.02484665
#
# Stress axis : x y z
#
# Youngs Moduli (GPa) = 62.90089 62.90089 75.33178
#
# Poissons Ratio (x) = 0.27908 0.21376
# Poissons Ratio (y) = 0.27908 0.21376
# Poissons Ratio (z) = 0.17849 0.17849
#
# Static dielectric constant tensor:
#      x y z
#    x 1.841610 0.000000 0.000000 
#    y 0.000000 1.841610 0.000000 
#    z 0.000000 0.000000 1.749160 
# 
# From -- ./inp_files/12398.got.cif
#   From: 2010.05.17/outbox.cif.g08.bks.cpg/sg180_7_cif.got.tgz:12398.got - 2010.05.20 11:43:55.
