data_PCOD9583085
_publ_section_title
;
Structure prediction by ZEFSAII (Michael W. Deem and Ramdas Pophale) SiO2 
 PCOD9583085
Probable space group: P 61 2 2
;
_chemical_formula_sum "Si O2"
_cell_formula_units_Z 30
_cell_length_a 7.836263
_cell_length_b 7.836263
_cell_length_c 22.212817
_cell_angle_alpha 90.000000
_cell_angle_beta 90.000000
_cell_angle_gamma 120.000000
_cell_volume 1181.278439
_symmetry_space_group_name_H-M "P 61 2 2"
_symmetry_group_IT_number 178
_symmetry_cell_setting 'hexagonal'
loop_
_space_group_symop_operation_xyz
x,y,z
x-y,x,1/6+z
-y,x-y,1/3+z
-x,-y,1/2+z
-x+y,-x,2/3+z
y,-x+y,5/6+z
x-y,-y,-z
-x,-x+y,2/3-z
y,x,1/3-z
-y,-x,5/6-z
-x+y,y,1/2-z
x,x-y,1/6-z
loop_
_atom_site_type_symbol
_atom_site_label
_atom_site_fract_x
_atom_site_fract_y
_atom_site_fract_z
Si Si1 0.287580 0.782839 0.346127
Si Si2 0.236621 0.862906 0.724441
Si Si3 0.344442 0.000000 0.000000
O O1 0.229779 0.770222 0.416667
O O2 0.518900 0.847780 0.347888
O O3 0.172091 0.566211 0.317174
O O4 0.250078 0.936956 0.310887
O O5 0.435483 0.870966 0.750000
O O6 0.084013 0.805201 0.778455
#
# Coordination Sequence:
#
# PCOD9583085 Si02
#       3
#    12  12   6
#     4   9  19  37  64  97 135 180 231 290 358 433
#     4   9  19  36  64  96 132 180 230 288 356 423
#     4   8  18  38  64 100 136 176 230 288 356 426
#
# _framework density 25.396211000000001
#
# number of rings (size 3 to 8) (size 9 to 14) (size 15 to 20)
#    0.000    4.000    0.000    0.000    0.000    6.400 
#    0.000   24.000    0.000  115.200    0.000   11.200 
#    0.000    0.000    0.000    0.000    0.000    0.000 
#
# Total GULP energy -167714.427083 kJ/mol
# GULP energy per Si atom -5590.480903 kJ/mol
# Density = 2.533841 g / cm^3
# Si number density = 25.396211 Si / 1000 Ang^3
#
#
#
# Elastic Constant Matrix: (Units=GPa)
#
#
# Indices 1 2 3 4 5 6 
#
# 1 92.6987 28.0746 73.1283 0.0000 0.0000 0.0000
# 2 28.0746 92.6987 73.1283 0.0000 0.0000 0.0000
# 3 73.1283 73.1283 105.2359 0.0000 0.0000 0.0000
# 4 0.0000 0.0000 0.0000 50.3219 0.0000 0.0000
# 5 0.0000 0.0000 0.0000 0.0000 50.3219 0.0000
# 6 0.0000 0.0000 0.0000 0.0000 0.0000 32.3120
#
#
#
# Elastic Compliance Matrix: (Units=1/GPa)
#
#
# Indices 1 2 3 4 5 6 
#
# 1 0.033861 0.018386 -0.036306 0.000000 0.000000 0.000000
# 2 0.018386 0.033861 -0.036306 0.000000 0.000000 0.000000
# 3 -0.036306 -0.036306 0.059961 0.000000 0.000000 0.000000
# 4 0.000000 0.000000 0.000000 0.019872 0.000000 0.000000
# 5 0.000000 0.000000 0.000000 0.000000 0.019872 0.000000
# 6 0.000000 0.000000 0.000000 0.000000 0.000000 0.030948
#
#
# Mechanical properties :
#
#
# Convention : Reuss Voigt Hill
#
# Bulk Modulus (GPa) = 52.00347 71.03284 61.51816
# Shear Modulus (GPa) = 15.96235 34.34462 25.15349
#
# Velocity S-wave (km/s) = 2.50978 3.68142 3.15054
# Velocity P-wave (km/s) = 5.37773 6.78978 6.12458
#
# Compressibility (1/GPa) = 0.01922948
#
# Stress axis : x y z
#
# Youngs Moduli (GPa) = 29.53287 29.53287 16.67750
#
# Poissons Ratio (x) = -0.54301 0.60550
# Poissons Ratio (y) = -0.54301 0.60550
# Poissons Ratio (z) = 1.07223 1.07223
#
# Static dielectric constant tensor:
#      x y z
#    x 2.051050 0.000000 0.000000 
#    y 0.000000 2.051050 0.000000 
#    z 0.000000 0.000000 2.031020 
# 
# From -- ./inp_files/8438.got.cif
#   From: 2010.05.17/outbox.cif.g08.bks.cpg/sg178_5_cif.got.tgz:8438.got - 2010.05.20 11:30:59.
