data_PCOD9583850
_publ_section_title
;
Structure prediction by ZEFSAII (Michael W. Deem and Ramdas Pophale) SiO2 
 PCOD9583850
Probable space group: P 62 2 2
;
_chemical_formula_sum "Si O2"
_cell_formula_units_Z 84
_cell_length_a 16.118653
_cell_length_b 16.118653
_cell_length_c 23.373509
_cell_angle_alpha 90.000000
_cell_angle_beta 90.000000
_cell_angle_gamma 120.000000
_cell_volume 5259.107405
_symmetry_space_group_name_H-M "P 62 2 2"
_symmetry_group_IT_number 180
_symmetry_cell_setting 'hexagonal'
loop_
_space_group_symop_operation_xyz
x,y,z
x-y,x,1/3+z
-y,x-y,2/3+z
-x,-y,z
-x+y,-x,1/3+z
y,-x+y,2/3+z
x-y,-y,-z
-x,-x+y,1/3-z
y,x,2/3-z
-y,-x,2/3-z
-x+y,y,-z
x,x-y,1/3-z
loop_
_atom_site_type_symbol
_atom_site_label
_atom_site_fract_x
_atom_site_fract_y
_atom_site_fract_z
Si Si1 0.110037 0.725581 0.795712
Si Si2 0.110117 0.557593 0.472154
Si Si3 0.563778 0.453050 0.915486
Si Si4 0.613286 0.890596 0.880458
Si Si5 0.115790 0.700798 0.163247
Si Si6 0.158096 0.480975 0.661740
Si Si7 0.385618 0.603596 0.643421
O O1 0.180068 0.819933 0.833334
O O2 0.122897 0.642731 0.825709
O O3 0.127664 0.712401 0.728618
O O4 0.998910 0.696490 0.798067
O O5 0.121442 0.642042 0.513050
O O6 0.186007 0.597433 0.421225
O O7 0.000000 0.500000 0.450339
O O8 0.500000 0.500000 0.901337
O O9 0.667328 0.523741 0.888637
O O10 0.502126 0.352495 0.882948
O O11 0.565542 0.437853 0.981917
O O12 0.635059 0.810777 0.854766
O O13 0.582442 0.874063 0.947254
O O14 0.000000 0.656620 0.166667
O O15 0.126117 0.563059 0.666667
O O16 0.272907 0.540943 0.655741
O O17 0.416254 0.708127 0.666667
#
# Coordination Sequence:
#
# PCOD9583850 Si02
#       7
#    12  12  12  12  12  12  12
#     4  11  22  37  51  73 108 139 175 222 260 304
#     4  10  21  34  51  71 102 141 173 213 257 305
#     4   9  17  31  50  70 102 136 166 209 253 301
#     4  11  21  35  56  75 100 143 180 211 263 319
#     4   9  18  33  52  76 100 129 172 218 256 302
#     4  11  21  33  52  77 104 140 178 209 250 309
#     4  11  20  30  46  74 104 139 172 207 244 299
#
# _framework density 15.972291
#
# number of rings (size 3 to 8) (size 9 to 14) (size 15 to 20)
#    0.000    1.714    4.286    2.571    0.000    0.571 
#    2.571    0.000    0.000    0.429    0.000    0.000 
#    0.000    2.286    0.000    0.000    0.000    0.000 
#
# Total GULP energy -467672.932245 kJ/mol
# GULP energy per Si atom -5567.534908 kJ/mol
# Density = 1.593594 g / cm^3
# Si number density = 15.972291 Si / 1000 Ang^3
#
#
#
# Elastic Constant Matrix: (Units=GPa)
#
#
# Indices 1 2 3 4 5 6 
#
# 1 80.2102 40.1717 40.2594 0.0000 0.0000 0.0000
# 2 40.1717 80.2102 40.2594 0.0000 0.0000 0.0000
# 3 40.2594 40.2594 104.8166 0.0000 0.0000 0.0000
# 4 0.0000 0.0000 0.0000 18.1849 0.0000 0.0000
# 5 0.0000 0.0000 0.0000 0.0000 18.1849 0.0000
# 6 0.0000 0.0000 0.0000 0.0000 0.0000 20.0192
#
#
#
# Elastic Compliance Matrix: (Units=1/GPa)
#
#
# Indices 1 2 3 4 5 6 
#
# 1 0.018077 -0.006899 -0.004294 0.000000 0.000000 0.000000
# 2 -0.006899 0.018077 -0.004294 0.000000 0.000000 0.000000
# 3 -0.004294 -0.004294 0.012839 0.000000 0.000000 0.000000
# 4 0.000000 0.000000 0.000000 0.054991 0.000000 0.000000
# 5 0.000000 0.000000 0.000000 0.000000 0.054991 0.000000
# 6 0.000000 0.000000 0.000000 0.000000 0.000000 0.049952
#
#
# Mechanical properties :
#
#
# Convention : Reuss Voigt Hill
#
# Bulk Modulus (GPa) = 55.48893 56.29088 55.88991
# Shear Modulus (GPa) = 20.33298 20.91425 20.62362
#
# Velocity S-wave (km/s) = 3.57181 3.62250 3.59724
# Velocity P-wave (km/s) = 7.19907 7.26746 7.23335
#
# Compressibility (1/GPa) = 0.01802161
#
# Stress axis : x y z
#
# Youngs Moduli (GPa) = 55.31774 55.31774 77.88864
#
# Poissons Ratio (x) = 0.38161 0.33443
# Poissons Ratio (y) = 0.38161 0.33443
# Poissons Ratio (z) = 0.23752 0.23752
#
# Static dielectric constant tensor:
#      x y z
#    x 1.559150 0.000000 0.000000 
#    y 0.000000 1.559150 0.000000 
#    z 0.000000 0.000000 1.578500 
# 
# From -- ./inp_files/10247.got.cif
#   From: 2010.05.17/outbox.cif.g08.bks.cpg/sg180_6_cif.got.tgz:10247.got - 2010.05.20 11:43:55.
