data_PCOD9583771
_publ_section_title
;
Structure prediction by ZEFSAII (Michael W. Deem and Ramdas Pophale) SiO2 
 PCOD9583771
Probable space group: P 62 2 2
;
_chemical_formula_sum "Si O2"
_cell_formula_units_Z 72
_cell_length_a 15.117904
_cell_length_b 15.117904
_cell_length_c 17.824690
_cell_angle_alpha 90.000000
_cell_angle_beta 90.000000
_cell_angle_gamma 120.000000
_cell_volume 3528.058548
_symmetry_space_group_name_H-M "P 62 2 2"
_symmetry_group_IT_number 180
_symmetry_cell_setting 'hexagonal'
loop_
_space_group_symop_operation_xyz
x,y,z
x-y,x,1/3+z
-y,x-y,2/3+z
-x,-y,z
-x+y,-x,1/3+z
y,-x+y,2/3+z
x-y,-y,-z
-x,-x+y,1/3-z
y,x,2/3-z
-y,-x,2/3-z
-x+y,y,-z
x,x-y,1/3-z
loop_
_atom_site_type_symbol
_atom_site_label
_atom_site_fract_x
_atom_site_fract_y
_atom_site_fract_z
Si Si1 0.218159 0.477288 0.132176
Si Si2 0.275812 0.309087 0.419643
Si Si3 0.349081 0.583345 0.710014
Si Si4 0.754725 0.638409 0.641133
Si Si5 0.615464 0.576315 0.114531
Si Si6 0.257590 0.152986 0.867880
O O1 0.183568 0.533717 0.072642
O O2 0.247308 0.538033 0.211071
O O3 0.320977 0.480914 0.106634
O O4 0.140440 0.358895 0.149932
O O5 0.306464 0.306464 0.333334
O O6 0.191582 0.343454 0.412615
O O7 0.376476 0.377856 0.469061
O O8 0.233891 0.196600 0.455546
O O9 0.324937 0.662469 0.666667
O O10 0.310850 0.481572 0.661798
O O11 0.676567 0.665314 0.602850
O O12 0.800051 0.704894 0.715982
O O13 0.500000 0.500000 0.094534
O O14 0.169971 0.169971 0.833334
#
# Coordination Sequence:
#
# PCOD9583771 Si02
#       6
#    12  12  12  12  12  12
#     4   9  21  38  52  84 119 152 198 245 293 367
#     4   9  20  40  60  84 118 156 202 252 305 371
#     4  10  20  36  58  80 118 163 199 242 299 354
#     4  10  21  37  59  88 119 160 201 255 307 369
#     4  11  22  35  56  87 117 156 202 246 304 353
#     4   9  19  38  63  87 117 157 197 250 316 370
#
# _framework density 20.407826
#
# number of rings (size 3 to 8) (size 9 to 14) (size 15 to 20)
#    0.000    2.333    0.000    2.500    2.333    3.000 
#    0.000    8.333    0.000    8.000    0.000   38.500 
#    0.000    0.000    0.000    0.000    0.000    0.000 
#
# Total GULP energy -401673.745692 kJ/mol
# GULP energy per Si atom -5578.802024 kJ/mol
# Density = 2.036138 g / cm^3
# Si number density = 20.407826 Si / 1000 Ang^3
#
#
#
# Elastic Constant Matrix: (Units=GPa)
#
#
# Indices 1 2 3 4 5 6 
#
# 1 76.0337 26.0828 27.6828 0.0000 0.0000 0.0000
# 2 26.0828 76.0337 27.6828 0.0000 0.0000 0.0000
# 3 27.6828 27.6828 65.0264 0.0000 0.0000 0.0000
# 4 0.0000 0.0000 0.0000 25.6543 0.0000 0.0000
# 5 0.0000 0.0000 0.0000 0.0000 25.6543 0.0000
# 6 0.0000 0.0000 0.0000 0.0000 0.0000 24.9754
#
#
#
# Elastic Compliance Matrix: (Units=1/GPa)
#
#
# Indices 1 2 3 4 5 6 
#
# 1 0.016375 -0.003644 -0.005420 0.000000 0.000000 0.000000
# 2 -0.003644 0.016375 -0.005420 0.000000 0.000000 0.000000
# 3 -0.005420 -0.005420 0.019993 0.000000 0.000000 0.000000
# 4 0.000000 0.000000 0.000000 0.038980 0.000000 0.000000
# 5 0.000000 0.000000 0.000000 0.000000 0.038980 0.000000
# 6 0.000000 0.000000 0.000000 0.000000 0.000000 0.040039
#
#
# Mechanical properties :
#
#
# Convention : Reuss Voigt Hill
#
# Bulk Modulus (GPa) = 42.05923 42.22117 42.14020
# Shear Modulus (GPa) = 24.08055 24.29983 24.19019
#
# Velocity S-wave (km/s) = 3.43879 3.45441 3.44661
# Velocity P-wave (km/s) = 6.03499 6.05345 6.04423
#
# Compressibility (1/GPa) = 0.02377600
#
# Stress axis : x y z
#
# Youngs Moduli (GPa) = 61.06685 61.06685 50.01732
#
# Poissons Ratio (x) = 0.22254 0.27109
# Poissons Ratio (y) = 0.22254 0.27109
# Poissons Ratio (z) = 0.33098 0.33098
#
# Static dielectric constant tensor:
#      x y z
#    x 1.713370 0.000000 0.000000 
#    y 0.000000 1.713370 0.000000 
#    z 0.000000 0.000000 1.770130 
# 
# From -- ./inp_files/7796.got.cif
#   From: 2010.05.17/outbox.cif.g08.bks.cpg/sg180_4_cif.got.tgz:7796.got - 2010.05.20 11:43:55.
