data_PCOD9583179
_publ_section_title
;
Structure prediction by ZEFSAII (Michael W. Deem and Ramdas Pophale) SiO2 
 PCOD9583179
Probable space group: P 65 2 2
;
_chemical_formula_sum "Si O2"
_cell_formula_units_Z 96
_cell_length_a 14.950690
_cell_length_b 14.950690
_cell_length_c 26.638062
_cell_angle_alpha 90.000000
_cell_angle_beta 90.000000
_cell_angle_gamma 120.000000
_cell_volume 5156.508408
_symmetry_space_group_name_H-M "P 65 2 2"
_symmetry_group_IT_number 179
_symmetry_cell_setting 'hexagonal'
loop_
_space_group_symop_operation_xyz
x,y,z
x-y,x,5/6+z
-y,x-y,2/3+z
-x,-y,1/2+z
-x+y,-x,1/3+z
y,-x+y,1/6+z
x-y,-y,-z
-x,-x+y,1/3-z
y,x,2/3-z
-y,-x,1/6-z
-x+y,y,1/2-z
x,x-y,5/6-z
loop_
_atom_site_type_symbol
_atom_site_label
_atom_site_fract_x
_atom_site_fract_y
_atom_site_fract_z
Si Si1 0.129298 0.894510 0.971104
Si Si2 0.817012 0.531916 0.174412
Si Si3 0.498893 0.799570 0.773855
Si Si4 0.471812 0.243750 0.165486
Si Si5 0.464333 0.022447 0.695349
Si Si6 0.541479 0.633725 0.441624
Si Si7 0.728245 0.772097 0.202567
Si Si8 0.678247 0.288705 0.030508
O O1 0.140638 0.915218 0.911759
O O2 0.216741 0.864216 0.986765
O O3 0.018362 0.804605 0.990283
O O4 0.160117 0.000000 0.000000
O O5 0.886398 0.515230 0.215980
O O6 0.707636 0.503506 0.200432
O O7 0.780015 0.445099 0.132427
O O8 0.395974 0.791947 0.750000
O O9 0.542043 0.770417 0.725674
O O10 0.467130 0.718020 0.817787
O O11 0.554675 0.913544 0.798390
O O12 0.445897 0.328770 0.145987
O O13 0.384515 0.134354 0.145429
O O14 0.589762 0.281414 0.148415
O O15 0.518379 0.036757 0.750000
O O16 0.538334 0.032386 0.647480
O O17 0.664745 0.705527 0.439671
O O18 0.720854 0.279147 0.083334
#
# Coordination Sequence:
#
# PCOD9583179 Si02
#       8
#    12  12  12  12  12  12  12  12
#     4  11  22  40  55  89 124 163 190 250 298 364
#     4  10  20  31  53  76 114 155 199 233 290 361
#     4   9  21  36  50  75 115 147 187 245 293 335
#     4  11  22  35  55  82 113 158 197 246 293 354
#     4  11  21  34  56  81 116 153 199 247 297 354
#     4  10  19  33  49  77 109 157 192 235 289 353
#     4  11  23  35  60  82 124 158 203 239 298 359
#     4  11  20  34  53  81 112 154 199 240 288 354
#
# _framework density 18.617249000000001
#
# number of rings (size 3 to 8) (size 9 to 14) (size 15 to 20)
#    0.000    1.500    2.500    4.500    8.750    0.000 
#    0.000    0.000    0.000    0.000    0.000    1.750 
#    0.000    0.000    0.000    0.000    0.000    0.000 
#
# Total GULP energy -534950.072343 kJ/mol
# GULP energy per Si atom -5572.396587 kJ/mol
# Density = 1.857487 g / cm^3
# Si number density = 18.617249 Si / 1000 Ang^3
#
#
#
# Elastic Constant Matrix: (Units=GPa)
#
#
# Indices 1 2 3 4 5 6 
#
# 1 47.6420 13.8304 15.2478 0.0000 0.0000 0.0000
# 2 13.8304 47.6420 15.2478 0.0000 0.0000 0.0000
# 3 15.2478 15.2478 86.3497 0.0000 0.0000 0.0000
# 4 0.0000 0.0000 0.0000 23.5490 0.0000 0.0000
# 5 0.0000 0.0000 0.0000 0.0000 23.5490 0.0000
# 6 0.0000 0.0000 0.0000 0.0000 0.0000 16.9058
#
#
#
# Elastic Compliance Matrix: (Units=1/GPa)
#
#
# Indices 1 2 3 4 5 6 
#
# 1 0.023702 -0.005873 -0.003148 0.000000 0.000000 0.000000
# 2 -0.005873 0.023702 -0.003148 0.000000 0.000000 0.000000
# 3 -0.003148 -0.003148 0.012693 0.000000 0.000000 0.000000
# 4 0.000000 0.000000 0.000000 0.042465 0.000000 0.000000
# 5 0.000000 0.000000 0.000000 0.000000 0.042465 0.000000
# 6 0.000000 0.000000 0.000000 0.000000 0.000000 0.059151
#
#
# Mechanical properties :
#
#
# Convention : Reuss Voigt Hill
#
# Bulk Modulus (GPa) = 27.96580 30.03175 28.99877
# Shear Modulus (GPa) = 20.79545 21.95460 21.37503
#
# Velocity S-wave (km/s) = 3.34578 3.43776 3.39208
# Velocity P-wave (km/s) = 5.47537 5.65011 5.56343
#
# Compressibility (1/GPa) = 0.03575797
#
# Stress axis : x y z
#
# Youngs Moduli (GPa) = 42.18973 42.18973 78.78543
#
# Poissons Ratio (x) = 0.24779 0.24804
# Poissons Ratio (y) = 0.24779 0.24804
# Poissons Ratio (z) = 0.13283 0.13283
#
# Static dielectric constant tensor:
#      x y z
#    x 1.674330 0.000000 0.000000 
#    y 0.000000 1.674330 0.000000 
#    z 0.000000 0.000000 1.708780 
# 
# From -- ./inp_files/9061.got.cif
#   From: 2010.05.17/outbox.cif.g08.bks.cpg/sg179_5_cif.got.tgz:9061.got - 2010.05.20 11:37:33.
