data_PCOD9583155
_publ_section_title
;
Structure prediction by ZEFSAII (Michael W. Deem and Ramdas Pophale) SiO2 
 PCOD9583155
Probable space group: P 65 2 2
;
_chemical_formula_sum "Si O2"
_cell_formula_units_Z 30
_cell_length_a 16.411533
_cell_length_b 16.411533
_cell_length_c 5.590099
_cell_angle_alpha 90.000000
_cell_angle_beta 90.000000
_cell_angle_gamma 120.000000
_cell_volume 1303.912449
_symmetry_space_group_name_H-M "P 65 2 2"
_symmetry_group_IT_number 179
_symmetry_cell_setting 'hexagonal'
loop_
_space_group_symop_operation_xyz
x,y,z
x-y,x,5/6+z
-y,x-y,2/3+z
-x,-y,1/2+z
-x+y,-x,1/3+z
y,-x+y,1/6+z
x-y,-y,-z
-x,-x+y,1/3-z
y,x,2/3-z
-y,-x,1/6-z
-x+y,y,1/2-z
x,x-y,5/6-z
loop_
_atom_site_type_symbol
_atom_site_label
_atom_site_fract_x
_atom_site_fract_y
_atom_site_fract_z
Si Si1 0.107665 0.892336 0.083334
Si Si2 0.103861 0.649022 0.419969
Si Si3 0.281134 0.390610 0.579766
O O1 0.183131 0.891684 0.269924
O O2 0.000000 0.848236 0.166667
O O3 0.097544 0.548772 0.416667
O O4 0.147367 0.696344 0.673930
O O5 0.999581 0.635343 0.417856
O O6 0.145654 0.704167 0.171604
#
# Coordination Sequence:
#
# PCOD9583155 Si02
#       3
#     6  12  12
#     4  12  26  50  62  94 154 226 292 334 374 410
#     4  10  18  37  68  99 128 151 208 315 412 472
#     4  10  20  37  61  95 133 170 234 313 370 441
#
# _framework density 23.007680000000001
#
# number of rings (size 3 to 8) (size 9 to 14) (size 15 to 20)
#    0.000    1.600    4.000    6.000    0.000    1.600 
#    7.200    0.000    0.000    0.000    0.000    0.000 
#   60.000    0.000    0.000    0.000    0.000    0.000 
#
# Total GULP energy -167353.952593 kJ/mol
# GULP energy per Si atom -5578.465086 kJ/mol
# Density = 2.295531 g / cm^3
# Si number density = 23.007680 Si / 1000 Ang^3
#
#
#
# Elastic Constant Matrix: (Units=GPa)
#
#
# Indices 1 2 3 4 5 6 
#
# 1 146.9142 64.7363 52.4997 0.0000 0.0000 0.0000
# 2 64.7363 146.9142 52.4997 0.0000 0.0000 0.0000
# 3 52.4997 52.4997 222.8914 0.0000 0.0000 0.0000
# 4 0.0000 0.0000 0.0000 32.4216 0.0000 0.0000
# 5 0.0000 0.0000 0.0000 0.0000 32.4216 0.0000
# 6 0.0000 0.0000 0.0000 0.0000 0.0000 41.0890
#
#
#
# Elastic Compliance Matrix: (Units=1/GPa)
#
#
# Indices 1 2 3 4 5 6 
#
# 1 0.008759 -0.003409 -0.001260 0.000000 0.000000 0.000000
# 2 -0.003409 0.008759 -0.001260 0.000000 0.000000 0.000000
# 3 -0.001260 -0.001260 0.005080 0.000000 0.000000 0.000000
# 4 0.000000 0.000000 0.000000 0.030844 0.000000 0.000000
# 5 0.000000 0.000000 0.000000 0.000000 0.030844 0.000000
# 6 0.000000 0.000000 0.000000 0.000000 0.000000 0.024337
#
#
# Mechanical properties :
#
#
# Convention : Reuss Voigt Hill
#
# Bulk Modulus (GPa) = 93.11447 95.13233 94.12340
# Shear Modulus (GPa) = 40.30225 44.31870 42.31047
#
# Velocity S-wave (km/s) = 4.18986 4.39368 4.29298
# Velocity P-wave (km/s) = 7.99784 8.19616 8.09761
#
# Compressibility (1/GPa) = 0.01073947
#
# Stress axis : x y z
#
# Youngs Moduli (GPa) = 114.16417 114.16417 196.84646
#
# Poissons Ratio (x) = 0.38923 0.24805
# Poissons Ratio (y) = 0.38923 0.24805
# Poissons Ratio (z) = 0.14386 0.14386
#
# Static dielectric constant tensor:
#      x y z
#    x 1.892880 0.000000 0.000000 
#    y 0.000000 1.892880 0.000000 
#    z 0.000000 0.000000 2.188810 
# 
# From -- ./inp_files/362.got.cif
#   From: 2010.05.17/outbox.cif.g08.bks.cpg/sg179_1_cif.got.tgz:362.got - 2010.05.20 11:37:33.
