data_PCOD9583894
_publ_section_title
;
Structure prediction by ZEFSAII (Michael W. Deem and Ramdas Pophale) SiO2 
 PCOD9583894
Probable space group: P 62 2 2
;
_chemical_formula_sum "Si O2"
_cell_formula_units_Z 60
_cell_length_a 15.117377
_cell_length_b 15.117377
_cell_length_c 15.178235
_cell_angle_alpha 90.000000
_cell_angle_beta 90.000000
_cell_angle_gamma 120.000000
_cell_volume 3004.033640
_symmetry_space_group_name_H-M "P 62 2 2"
_symmetry_group_IT_number 180
_symmetry_cell_setting 'hexagonal'
loop_
_space_group_symop_operation_xyz
x,y,z
x-y,x,1/3+z
-y,x-y,2/3+z
-x,-y,z
-x+y,-x,1/3+z
y,-x+y,2/3+z
x-y,-y,-z
-x,-x+y,1/3-z
y,x,2/3-z
-y,-x,2/3-z
-x+y,y,-z
x,x-y,1/3-z
loop_
_atom_site_type_symbol
_atom_site_label
_atom_site_fract_x
_atom_site_fract_y
_atom_site_fract_z
Si Si1 0.900436 0.787789 0.833272
Si Si2 0.827489 0.172512 0.333334
Si Si3 0.769302 0.625988 0.685723
Si Si4 0.721570 0.860785 0.166667
Si Si5 0.054947 0.447505 0.989922
Si Si6 0.360926 0.600679 0.735721
O O1 0.886682 0.886682 0.833334
O O2 0.837671 0.727602 0.920051
O O3 0.846589 0.713139 0.751192
O O4 0.016930 0.814037 0.835708
O O5 0.718411 0.133853 0.286945
O O6 0.817725 0.653387 0.588017
O O7 0.661577 0.625108 0.687067
O O8 0.734553 0.511249 0.716163
O O9 0.000000 0.500000 0.937815
O O10 0.128220 0.535027 0.059070
O O11 0.361394 0.638607 0.833334
O O12 0.362913 0.681457 0.666667
#
# Coordination Sequence:
#
# PCOD9583894 Si02
#       6
#    12   6  12   6  12  12
#     4  12  23  40  65  94 131 175 227 278 329 399
#     4  12  20  38  63  96 126 168 219 286 344 380
#     4  11  25  41  67  93 137 175 219 278 339 406
#     4  12  25  44  62  96 132 182 217 270 342 414
#     4  10  21  40  63  97 126 170 219 280 336 389
#     4  11  25  41  69 102 132 172 223 280 337 401
#
# _framework density 19.973144999999999
#
# number of rings (size 3 to 8) (size 9 to 14) (size 15 to 20)
#    0.000    0.800    5.000    2.100    1.400    2.800 
#    0.000    3.000    0.000    1.200    0.000    0.000 
#    0.000    0.000    0.000    0.000    0.000    0.000 
#
# Total GULP energy -334279.472844 kJ/mol
# GULP energy per Si atom -5571.324547 kJ/mol
# Density = 1.992769 g / cm^3
# Si number density = 19.973145 Si / 1000 Ang^3
#
#
#
# Elastic Constant Matrix: (Units=GPa)
#
#
# Indices 1 2 3 4 5 6 
#
# 1 99.0489 34.6074 36.6716 0.0000 0.0000 0.0000
# 2 34.6074 99.0489 36.6716 0.0000 0.0000 0.0000
# 3 36.6716 36.6716 148.9660 0.0000 0.0000 0.0000
# 4 0.0000 0.0000 0.0000 25.7386 0.0000 0.0000
# 5 0.0000 0.0000 0.0000 0.0000 25.7386 0.0000
# 6 0.0000 0.0000 0.0000 0.0000 0.0000 32.2207
#
#
#
# Elastic Compliance Matrix: (Units=1/GPa)
#
#
# Indices 1 2 3 4 5 6 
#
# 1 0.012084 -0.003434 -0.002130 0.000000 0.000000 0.000000
# 2 -0.003434 0.012084 -0.002130 0.000000 0.000000 0.000000
# 3 -0.002130 -0.002130 0.007761 0.000000 0.000000 0.000000
# 4 0.000000 0.000000 0.000000 0.038852 0.000000 0.000000
# 5 0.000000 0.000000 0.000000 0.000000 0.038852 0.000000
# 6 0.000000 0.000000 0.000000 0.000000 0.000000 0.031036
#
#
# Mechanical properties :
#
#
# Convention : Reuss Voigt Hill
#
# Bulk Modulus (GPa) = 60.44409 62.55168 61.49789
# Shear Modulus (GPa) = 30.94624 32.68043 31.81334
#
# Velocity S-wave (km/s) = 3.94050 4.04941 3.99533
# Velocity P-wave (km/s) = 7.14365 7.29722 7.22085
#
# Compressibility (1/GPa) = 0.01654422
#
# Stress axis : x y z
#
# Youngs Moduli (GPa) = 82.75265 82.75265 128.84258
#
# Poissons Ratio (x) = 0.28415 0.27437
# Poissons Ratio (y) = 0.28415 0.27437
# Poissons Ratio (z) = 0.17622 0.17622
#
# Static dielectric constant tensor:
#      x y z
#    x 1.750580 0.000000 0.000000 
#    y 0.000000 1.750580 0.000000 
#    z 0.000000 0.000000 1.678650 
# 
# From -- ./inp_files/6178.got.cif
#   From: 2010.05.17/outbox.cif.g08.bks.cpg/sg180_4_cif.got.tgz:6178.got - 2010.05.20 11:43:55.
