data_PCOD9583781
_publ_section_title
;
Structure prediction by ZEFSAII (Michael W. Deem and Ramdas Pophale) SiO2 
 PCOD9583781
Probable space group: P 62 2 2
;
_chemical_formula_sum "Si O2"
_cell_formula_units_Z 51
_cell_length_a 19.614685
_cell_length_b 19.614685
_cell_length_c 7.130641
_cell_angle_alpha 90.000000
_cell_angle_beta 90.000000
_cell_angle_gamma 120.000000
_cell_volume 2375.865656
_symmetry_space_group_name_H-M "P 62 2 2"
_symmetry_group_IT_number 180
_symmetry_cell_setting 'hexagonal'
loop_
_space_group_symop_operation_xyz
x,y,z
x-y,x,1/3+z
-y,x-y,2/3+z
-x,-y,z
-x+y,-x,1/3+z
y,-x+y,2/3+z
x-y,-y,-z
-x,-x+y,1/3-z
y,x,2/3-z
-y,-x,2/3-z
-x+y,y,-z
x,x-y,1/3-z
loop_
_atom_site_type_symbol
_atom_site_label
_atom_site_fract_x
_atom_site_fract_y
_atom_site_fract_z
Si Si1 0.827783 0.827783 0.833334
Si Si2 0.500000 0.500000 0.333334
Si Si3 0.734331 0.000000 0.000000
Si Si4 0.095560 0.191119 0.500000
Si Si5 0.249233 0.902620 0.348142
Si Si6 0.499305 0.389841 0.670073
Si Si7 0.593741 0.296871 0.666667
O O1 0.892013 0.854323 0.670786
O O2 0.739551 0.805002 0.772281
O O3 0.489898 0.431959 0.483016
O O4 0.754760 0.938656 0.097045
O O5 0.720848 0.049682 0.154413
O O6 0.189193 0.810808 0.333334
O O7 0.328321 0.912538 0.433573
O O8 0.549162 0.450839 0.833334
O O9 0.541915 0.338751 0.620443
O O10 0.651067 0.302133 0.500000
#
# Coordination Sequence:
#
# PCOD9583781 Si02
#       7
#     6   3   6   6  12  12   6
#     4  10  22  36  63  91 132 170 224 272 342 400
#     4  12  26  44  64  98 140 186 222 288 366 416
#     4  10  21  38  62  94 130 167 224 264 340 395
#     4  10  20  36  60  95 126 176 216 282 328 398
#     4  11  21  41  63  94 126 169 219 274 330 412
#     4  11  25  44  67  97 136 179 227 286 349 411
#     4  10  21  42  70  95 130 178 234 283 336 418
#
# _framework density 21.465862000000001
#
# number of rings (size 3 to 8) (size 9 to 14) (size 15 to 20)
#    0.000    1.412    3.529    1.765    3.294    0.000 
#    0.000    0.000    5.176    3.529    0.000    0.000 
#    0.000    0.000    0.000    0.000    0.000    0.000 
#
# Total GULP energy -284247.966150 kJ/mol
# GULP energy per Si atom -5573.489532 kJ/mol
# Density = 2.141700 g / cm^3
# Si number density = 21.465862 Si / 1000 Ang^3
#
#
#
# Elastic Constant Matrix: (Units=GPa)
#
#
# Indices 1 2 3 4 5 6 
#
# 1 121.0341 68.2235 50.6524 0.0000 0.0000 0.0000
# 2 68.2235 121.0341 50.6524 0.0000 0.0000 0.0000
# 3 50.6524 50.6524 97.5196 0.0000 0.0000 0.0000
# 4 0.0000 0.0000 0.0000 36.5634 0.0000 0.0000
# 5 0.0000 0.0000 0.0000 0.0000 36.5634 0.0000
# 6 0.0000 0.0000 0.0000 0.0000 0.0000 26.4053
#
#
#
# Elastic Compliance Matrix: (Units=1/GPa)
#
#
# Indices 1 2 3 4 5 6 
#
# 1 0.013127 -0.005809 -0.003801 0.000000 0.000000 0.000000
# 2 -0.005809 0.013127 -0.003801 0.000000 0.000000 0.000000
# 3 -0.003801 -0.003801 0.014203 0.000000 0.000000 0.000000
# 4 0.000000 0.000000 0.000000 0.027350 0.000000 0.000000
# 5 0.000000 0.000000 0.000000 0.000000 0.027350 0.000000
# 6 0.000000 0.000000 0.000000 0.000000 0.000000 0.037871
#
#
# Mechanical properties :
#
#
# Convention : Reuss Voigt Hill
#
# Bulk Modulus (GPa) = 73.34033 75.40495 74.37264
# Shear Modulus (GPa) = 30.41449 31.24372 30.82910
#
# Velocity S-wave (km/s) = 3.76823 3.81925 3.79382
# Velocity P-wave (km/s) = 7.29198 7.39277 7.34254
#
# Compressibility (1/GPa) = 0.01363506
#
# Stress axis : x y z
#
# Youngs Moduli (GPa) = 76.17840 76.17840 70.40667
#
# Poissons Ratio (x) = 0.44248 0.26764
# Poissons Ratio (y) = 0.44248 0.26764
# Poissons Ratio (z) = 0.28958 0.28958
#
# Static dielectric constant tensor:
#      x y z
#    x 1.780560 0.000000 0.000000 
#    y 0.000000 1.780560 0.000000 
#    z 0.000000 0.000000 1.848510 
# 
# From -- ./inp_files/2851.got.cif
#   From: 2010.05.17/outbox.cif.g08.bks.cpg/sg180_2_cif.got.tgz:2851.got - 2010.05.20 11:43:55.
