data_PCOD9583964
_publ_section_title
;
Structure prediction by ZEFSAII (Michael W. Deem and Ramdas Pophale) SiO2 
 PCOD9583964
Probable space group: P 62 2 2
;
_chemical_formula_sum "Si O2"
_cell_formula_units_Z 33
_cell_length_a 11.331713
_cell_length_b 11.331713
_cell_length_c 13.689871
_cell_angle_alpha 90.000000
_cell_angle_beta 90.000000
_cell_angle_gamma 120.000000
_cell_volume 1522.373167
_symmetry_space_group_name_H-M "P 62 2 2"
_symmetry_group_IT_number 180
_symmetry_cell_setting 'hexagonal'
loop_
_space_group_symop_operation_xyz
x,y,z
x-y,x,1/3+z
-y,x-y,2/3+z
-x,-y,z
-x+y,-x,1/3+z
y,-x+y,2/3+z
x-y,-y,-z
-x,-x+y,1/3-z
y,x,2/3-z
-y,-x,2/3-z
-x+y,y,-z
x,x-y,1/3-z
loop_
_atom_site_type_symbol
_atom_site_label
_atom_site_fract_x
_atom_site_fract_y
_atom_site_fract_z
Si Si1 0.787327 0.659947 0.396244
Si Si2 0.000000 0.500000 0.166667
Si Si3 0.370105 0.314161 0.662691
Si Si4 0.500000 0.000000 0.845817
O O1 0.762427 0.762427 0.333334
O O2 0.858869 0.717738 0.500000
O O3 0.635623 0.538383 0.425486
O O4 0.894231 0.631680 0.339855
O O5 0.915956 0.539057 0.091887
O O6 0.305328 0.152664 0.666667
O O7 0.455464 0.374584 0.562728
#
# Coordination Sequence:
#
# PCOD9583964 Si02
#       4
#    12   3  12   6
#     4  10  22  42  71  99 139 183 238 295 354 438
#     4  10  24  44  62  94 142 180 226 298 350 422
#     4  10  23  44  66 100 140 181 240 296 360 429
#     4   9  21  45  65 102 138 186 239 289 363 439
#
# _framework density 21.676680999999999
#
# number of rings (size 3 to 8) (size 9 to 14) (size 15 to 20)
#    0.000    2.182    0.000    0.545   10.182    0.727 
#   16.364    5.455    0.000    0.000    0.000    0.000 
#    0.000    0.000    0.000    0.000    0.000    0.000 
#
# Total GULP energy -183826.492132 kJ/mol
# GULP energy per Si atom -5570.499762 kJ/mol
# Density = 2.162734 g / cm^3
# Si number density = 21.676681 Si / 1000 Ang^3
#
#
#
# Elastic Constant Matrix: (Units=GPa)
#
#
# Indices 1 2 3 4 5 6 
#
# 1 113.5859 55.3061 50.1868 0.0000 0.0000 0.0000
# 2 55.3061 113.5859 50.1868 0.0000 0.0000 0.0000
# 3 50.1868 50.1868 105.8477 0.0000 0.0000 0.0000
# 4 0.0000 0.0000 0.0000 24.4458 0.0000 0.0000
# 5 0.0000 0.0000 0.0000 0.0000 24.4458 0.0000
# 6 0.0000 0.0000 0.0000 0.0000 0.0000 29.1399
#
#
#
# Elastic Compliance Matrix: (Units=1/GPa)
#
#
# Indices 1 2 3 4 5 6 
#
# 1 0.012701 -0.004457 -0.003909 0.000000 0.000000 0.000000
# 2 -0.004457 0.012701 -0.003909 0.000000 0.000000 0.000000
# 3 -0.003909 -0.003909 0.013154 0.000000 0.000000 0.000000
# 4 0.000000 0.000000 0.000000 0.040907 0.000000 0.000000
# 5 0.000000 0.000000 0.000000 0.000000 0.040907 0.000000
# 6 0.000000 0.000000 0.000000 0.000000 0.000000 0.034317
#
#
# Mechanical properties :
#
#
# Convention : Reuss Voigt Hill
#
# Bulk Modulus (GPa) = 71.39339 71.59767 71.49553
# Shear Modulus (GPa) = 27.18770 27.42892 27.30831
#
# Velocity S-wave (km/s) = 3.54536 3.56106 3.55322
# Velocity P-wave (km/s) = 7.05454 7.07175 7.06315
#
# Compressibility (1/GPa) = 0.01400690
#
# Stress axis : x y z
#
# Youngs Moduli (GPa) = 78.73210 78.73210 76.02131
#
# Poissons Ratio (x) = 0.35093 0.29715
# Poissons Ratio (y) = 0.35093 0.29715
# Poissons Ratio (z) = 0.30775 0.30775
#
# Static dielectric constant tensor:
#      x y z
#    x 1.811170 0.000000 0.000000 
#    y 0.000000 1.811170 0.000000 
#    z 0.000000 0.000000 1.821100 
# 
# From -- ./inp_files/5513.got.cif
#   From: 2010.05.17/outbox.cif.g08.bks.cpg/sg180_3_cif.got.tgz:5513.got - 2010.05.20 11:43:55.
