data_PCOD9583066
_publ_section_title
;
Structure prediction by ZEFSAII (Michael W. Deem and Ramdas Pophale) SiO2 
 PCOD9583066
Probable space group: P 61 2 2
;
_chemical_formula_sum "Si O2"
_cell_formula_units_Z 30
_cell_length_a 11.152024
_cell_length_b 11.152024
_cell_length_c 11.593640
_cell_angle_alpha 90.000000
_cell_angle_beta 90.000000
_cell_angle_gamma 120.000000
_cell_volume 1248.699199
_symmetry_space_group_name_H-M "P 61 2 2"
_symmetry_group_IT_number 178
_symmetry_cell_setting 'hexagonal'
loop_
_space_group_symop_operation_xyz
x,y,z
x-y,x,1/6+z
-y,x-y,1/3+z
-x,-y,1/2+z
-x+y,-x,2/3+z
y,-x+y,5/6+z
x-y,-y,-z
-x,-x+y,2/3-z
y,x,1/3-z
-y,-x,5/6-z
-x+y,y,1/2-z
x,x-y,1/6-z
loop_
_atom_site_type_symbol
_atom_site_label
_atom_site_fract_x
_atom_site_fract_y
_atom_site_fract_z
Si Si1 0.556671 0.196009 0.382213
Si Si2 0.127173 0.876381 0.634741
Si Si3 0.646181 0.000000 0.500000
O O1 0.642405 0.357596 0.416667
O O2 0.588501 0.177001 0.250000
O O3 0.394840 0.134092 0.401320
O O4 0.619480 0.122063 0.460199
O O5 0.019801 0.843002 0.532779
O O6 0.048025 0.753872 0.728881
#
# Coordination Sequence:
#
# PCOD9583066 Si02
#       3
#    12  12   6
#     4  12  25  46  79 115 156 207 278 345 411 489
#     4  12  27  49  81 115 161 215 269 336 417 496
#     4  12  24  50  76 112 154 214 270 340 414 486
#
# _framework density 24.025003000000002
#
# number of rings (size 3 to 8) (size 9 to 14) (size 15 to 20)
#    0.000    0.000    8.000    1.200    5.600    0.000 
#    0.000   10.000    0.000    0.000    0.000    0.000 
#    0.000    0.000    0.000    0.000    0.000    0.000 
#
# Total GULP energy -168476.466058 kJ/mol
# GULP energy per Si atom -5615.882202 kJ/mol
# Density = 2.397032 g / cm^3
# Si number density = 24.025003 Si / 1000 Ang^3
#
#
#
# Elastic Constant Matrix: (Units=GPa)
#
#
# Indices 1 2 3 4 5 6 
#
# 1 151.6674 98.3367 71.4227 0.0000 0.0000 0.0000
# 2 98.3367 151.6674 71.4227 0.0000 0.0000 0.0000
# 3 71.4227 71.4227 95.1626 0.0000 0.0000 0.0000
# 4 0.0000 0.0000 0.0000 42.7394 0.0000 0.0000
# 5 0.0000 0.0000 0.0000 0.0000 42.7394 0.0000
# 6 0.0000 0.0000 0.0000 0.0000 0.0000 26.6653
#
#
#
# Elastic Compliance Matrix: (Units=1/GPa)
#
#
# Indices 1 2 3 4 5 6 
#
# 1 0.012877 -0.005874 -0.005256 0.000000 0.000000 0.000000
# 2 -0.005874 0.012877 -0.005256 0.000000 0.000000 0.000000
# 3 -0.005256 -0.005256 0.018398 0.000000 0.000000 0.000000
# 4 0.000000 0.000000 0.000000 0.023398 0.000000 0.000000
# 5 0.000000 0.000000 0.000000 0.000000 0.023398 0.000000
# 6 0.000000 0.000000 0.000000 0.000000 0.000000 0.037502
#
#
# Mechanical properties :
#
#
# Convention : Reuss Voigt Hill
#
# Bulk Modulus (GPa) = 87.87355 97.87351 92.87353
# Shear Modulus (GPa) = 30.30034 32.91651 31.60842
#
# Velocity S-wave (km/s) = 3.55519 3.70549 3.63112
# Velocity P-wave (km/s) = 7.31490 7.68988 7.50473
#
# Compressibility (1/GPa) = 0.01137999
#
# Stress axis : x y z
#
# Youngs Moduli (GPa) = 77.65766 77.65766 54.35360
#
# Poissons Ratio (x) = 0.45616 0.28569
# Poissons Ratio (y) = 0.45616 0.28569
# Poissons Ratio (z) = 0.40817 0.40817
#
# Static dielectric constant tensor:
#      x y z
#    x 1.908460 0.000000 0.000000 
#    y 0.000000 1.908460 0.000000 
#    z 0.000000 0.000000 1.906410 
# 
# From -- ./inp_files/4995.got.cif
#   From: 2010.05.17/outbox.cif.g08.bks.cpg/sg178_3_cif.got.tgz:4995.got - 2010.05.20 11:30:59.
