data_PCOD9583869
_publ_section_title
;
Structure prediction by ZEFSAII (Michael W. Deem and Ramdas Pophale) SiO2 
 PCOD9583869
Probable space group: P 62 2 2
;
_chemical_formula_sum "Si O2"
_cell_formula_units_Z 36
_cell_length_a 11.902961
_cell_length_b 11.902961
_cell_length_c 13.573287
_cell_angle_alpha 90.000000
_cell_angle_beta 90.000000
_cell_angle_gamma 120.000000
_cell_volume 1665.427322
_symmetry_space_group_name_H-M "P 62 2 2"
_symmetry_group_IT_number 180
_symmetry_cell_setting 'hexagonal'
loop_
_space_group_symop_operation_xyz
x,y,z
x-y,x,1/3+z
-y,x-y,2/3+z
-x,-y,z
-x+y,-x,1/3+z
y,-x+y,2/3+z
x-y,-y,-z
-x,-x+y,1/3-z
y,x,2/3-z
-y,-x,2/3-z
-x+y,y,-z
x,x-y,1/3-z
loop_
_atom_site_type_symbol
_atom_site_label
_atom_site_fract_x
_atom_site_fract_y
_atom_site_fract_z
Si Si1 0.953466 0.685849 0.821200
Si Si2 0.860623 0.198562 0.974884
Si Si3 0.409732 0.789847 0.754320
O O1 0.849326 0.695355 0.752659
O O2 0.890787 0.537714 0.854232
O O3 0.008852 0.772070 0.918944
O O4 0.082628 0.741324 0.752991
O O5 0.847722 0.325700 0.961117
O O6 0.317291 0.682710 0.833334
O O7 0.446193 0.723097 0.666667
#
# Coordination Sequence:
#
# PCOD9583869 Si02
#       3
#    12  12  12
#     4  10  21  38  58  94 130 179 231 283 345 418
#     4  10  21  36  64  90 129 181 234 288 337 431
#     4  12  22  35  56  92 137 179 222 276 354 434
#
# _framework density 21.616074999999999
#
# number of rings (size 3 to 8) (size 9 to 14) (size 15 to 20)
#    0.000    1.333    6.667    1.000    0.000    0.000 
#    0.000    1.667    0.000    0.000    0.000   46.667 
#    0.000    0.000    0.000    0.000    0.000    0.000 
#
# Total GULP energy -200912.624977 kJ/mol
# GULP energy per Si atom -5580.906249 kJ/mol
# Density = 2.156688 g / cm^3
# Si number density = 21.616075 Si / 1000 Ang^3
#
#
#
# Elastic Constant Matrix: (Units=GPa)
#
#
# Indices 1 2 3 4 5 6 
#
# 1 87.2047 30.9356 62.2714 0.0000 0.0000 0.0000
# 2 30.9356 87.2047 62.2714 0.0000 0.0000 0.0000
# 3 62.2714 62.2714 131.7727 0.0000 0.0000 0.0000
# 4 0.0000 0.0000 0.0000 35.7156 0.0000 0.0000
# 5 0.0000 0.0000 0.0000 0.0000 35.7156 0.0000
# 6 0.0000 0.0000 0.0000 0.0000 0.0000 28.1345
#
#
#
# Elastic Compliance Matrix: (Units=1/GPa)
#
#
# Indices 1 2 3 4 5 6 
#
# 1 0.017320 -0.000452 -0.007971 0.000000 0.000000 0.000000
# 2 -0.000452 0.017320 -0.007971 0.000000 0.000000 0.000000
# 3 -0.007971 -0.007971 0.015122 0.000000 0.000000 0.000000
# 4 0.000000 0.000000 0.000000 0.027999 0.000000 0.000000
# 5 0.000000 0.000000 0.000000 0.000000 0.027999 0.000000
# 6 0.000000 0.000000 0.000000 0.000000 0.000000 0.035543
#
#
# Mechanical properties :
#
#
# Convention : Reuss Voigt Hill
#
# Bulk Modulus (GPa) = 58.91562 68.57099 63.74331
# Shear Modulus (GPa) = 27.81653 29.96007 28.88830
#
# Velocity S-wave (km/s) = 3.59115 3.72695 3.65968
# Velocity P-wave (km/s) = 6.67157 7.09305 6.88553
#
# Compressibility (1/GPa) = 0.01697343
#
# Stress axis : x y z
#
# Youngs Moduli (GPa) = 57.73800 57.73800 66.12668
#
# Poissons Ratio (x) = 0.02610 0.52710
# Poissons Ratio (y) = 0.02610 0.52710
# Poissons Ratio (z) = 0.46023 0.46023
#
# Static dielectric constant tensor:
#      x y z
#    x 1.791380 0.000000 0.000000 
#    y 0.000000 1.791380 0.000000 
#    z 0.000000 0.000000 1.820120 
# 
# From -- ./inp_files/5444.got.cif
#   From: 2010.05.17/outbox.cif.g08.bks.cpg/sg180_3_cif.got.tgz:5444.got - 2010.05.20 11:43:55.
