data_PCOD9583502
_publ_section_title
;
Structure prediction by ZEFSAII (Michael W. Deem and Ramdas Pophale) SiO2 
 PCOD9583502
Probable space group: P 65 2 2
;
_chemical_formula_sum "Si O2"
_cell_formula_units_Z 48
_cell_length_a 27.135963
_cell_length_b 27.135963
_cell_length_c 4.895712
_cell_angle_alpha 90.000000
_cell_angle_beta 90.000000
_cell_angle_gamma 120.000000
_cell_volume 3122.029268
_symmetry_space_group_name_H-M "P 65 2 2"
_symmetry_group_IT_number 179
_symmetry_cell_setting 'hexagonal'
loop_
_space_group_symop_operation_xyz
x,y,z
x-y,x,5/6+z
-y,x-y,2/3+z
-x,-y,1/2+z
-x+y,-x,1/3+z
y,-x+y,1/6+z
x-y,-y,-z
-x,-x+y,1/3-z
y,x,2/3-z
-y,-x,1/6-z
-x+y,y,1/2-z
x,x-y,5/6-z
loop_
_atom_site_type_symbol
_atom_site_label
_atom_site_fract_x
_atom_site_fract_y
_atom_site_fract_z
Si Si1 0.492427 0.192857 0.966481
Si Si2 0.417606 0.514801 0.822526
Si Si3 0.153259 0.739745 0.632090
Si Si4 0.649262 0.037379 0.262929
O O1 0.519667 0.259834 0.916667
O O2 0.524862 0.158943 0.901342
O O3 0.435876 0.162041 0.774629
O O4 0.470557 0.181232 0.277342
O O5 0.464226 0.535775 0.583334
O O6 0.448223 0.551778 0.083334
O O7 0.386550 0.449217 0.918512
O O8 0.193008 0.806993 0.583334
O O9 0.088861 0.707307 0.527825
O O10 0.655709 0.000000 0.500000
O O11 0.615975 0.000000 0.000000
#
# Coordination Sequence:
#
# PCOD9583502 Si02
#       4
#    12  12  12  12
#     4   9  17  31  49  63  74  96 134 177 208 237
#     4  11  21  33  46  63  86 114 142 165 206 274
#     4   9  17  31  49  65  80 103 138 171 201 239
#     4  11  21  33  46  65  91 115 140 173 211 250
#
# _framework density 15.374616
#
# number of rings (size 3 to 8) (size 9 to 14) (size 15 to 20)
#    0.000    2.000    0.000    7.500    0.000    2.000 
#    0.000    2.500    0.000    1.500    0.000    0.000 
#    0.000    0.000    0.000    0.000    0.000    0.000 
#
# Total GULP energy -267437.661166 kJ/mol
# GULP energy per Si atom -5571.617941 kJ/mol
# Density = 1.533962 g / cm^3
# Si number density = 15.374616 Si / 1000 Ang^3
#
#
#
# Elastic Constant Matrix: (Units=GPa)
#
#
# Indices 1 2 3 4 5 6 
#
# 1 51.3172 39.8410 19.3855 0.0000 0.0000 0.0000
# 2 39.8410 51.3172 19.3855 0.0000 0.0000 0.0000
# 3 19.3855 19.3855 80.4969 0.0000 0.0000 0.0000
# 4 0.0000 0.0000 0.0000 21.1704 0.0000 0.0000
# 5 0.0000 0.0000 0.0000 0.0000 21.1704 0.0000
# 6 0.0000 0.0000 0.0000 0.0000 0.0000 5.7381
#
#
#
# Elastic Compliance Matrix: (Units=1/GPa)
#
#
# Indices 1 2 3 4 5 6 
#
# 1 0.049680 -0.037458 -0.002943 0.000000 0.000000 0.000000
# 2 -0.037458 0.049680 -0.002943 0.000000 0.000000 0.000000
# 3 -0.002943 -0.002943 0.013840 0.000000 0.000000 0.000000
# 4 0.000000 0.000000 0.000000 0.047236 0.000000 0.000000
# 5 0.000000 0.000000 0.000000 0.000000 0.047236 0.000000
# 6 0.000000 0.000000 0.000000 0.000000 0.000000 0.174275
#
#
# Mechanical properties :
#
#
# Convention : Reuss Voigt Hill
#
# Bulk Modulus (GPa) = 37.72041 37.81727 37.76884
# Shear Modulus (GPa) = 10.47183 16.58371 13.52777
#
# Velocity S-wave (km/s) = 2.61264 3.28783 2.96949
# Velocity P-wave (km/s) = 5.80419 6.25010 6.03127
#
# Compressibility (1/GPa) = 0.02651085
#
# Stress axis : x y z
#
# Youngs Moduli (GPa) = 20.12900 20.12900 72.25195
#
# Poissons Ratio (x) = 0.75399 0.21266
# Poissons Ratio (y) = 0.75399 0.21266
# Poissons Ratio (z) = 0.05925 0.05925
#
# Static dielectric constant tensor:
#      x y z
#    x 1.548510 0.000000 0.000000 
#    y 0.000000 1.548510 0.000000 
#    z 0.000000 0.000000 1.545380 
# 
# From -- ./inp_files/1314.got.cif
#   From: 2010.05.17/outbox.cif.g08.bks.cpg/sg179_1_cif.got.tgz:1314.got - 2010.05.20 11:37:33.
