data_PCOD9583782
_publ_section_title
;
Structure prediction by ZEFSAII (Michael W. Deem and Ramdas Pophale) SiO2 
 PCOD9583782
Probable space group: P 62 2 2
;
_chemical_formula_sum "Si O2"
_cell_formula_units_Z 42
_cell_length_a 13.808561
_cell_length_b 13.808561
_cell_length_c 12.978227
_cell_angle_alpha 90.000000
_cell_angle_beta 90.000000
_cell_angle_gamma 120.000000
_cell_volume 2143.102009
_symmetry_space_group_name_H-M "P 62 2 2"
_symmetry_group_IT_number 180
_symmetry_cell_setting 'hexagonal'
loop_
_space_group_symop_operation_xyz
x,y,z
x-y,x,1/3+z
-y,x-y,2/3+z
-x,-y,z
-x+y,-x,1/3+z
y,-x+y,2/3+z
x-y,-y,-z
-x,-x+y,1/3-z
y,x,2/3-z
-y,-x,2/3-z
-x+y,y,-z
x,x-y,1/3-z
loop_
_atom_site_type_symbol
_atom_site_label
_atom_site_fract_x
_atom_site_fract_y
_atom_site_fract_z
Si Si1 0.500000 0.000000 0.721429
Si Si2 0.160831 0.171138 0.592908
Si Si3 0.735511 0.576700 0.109513
Si Si4 0.635137 0.724551 0.924594
O O1 0.610101 0.047714 0.651736
O O2 0.507869 0.904921 0.783982
O O3 0.130095 0.065048 0.666667
O O4 0.288295 0.215089 0.553880
O O5 0.181169 0.273719 0.667230
O O6 0.075738 0.151476 0.500000
O O7 0.795575 0.554414 0.202673
O O8 0.777953 0.555905 0.000000
O O9 0.700892 0.700892 0.833334
#
# Coordination Sequence:
#
# PCOD9583782 Si02
#       4
#     6  12  12  12
#     4  10  21  36  68  91 126 164 211 278 325 362
#     4  10  21  39  60  90 126 162 206 252 312 381
#     4  10  20  36  61  94 119 156 216 259 316 385
#     4  11  19  38  65  92 119 166 209 266 317 383
#
# _framework density 19.597760000000001
#
# number of rings (size 3 to 8) (size 9 to 14) (size 15 to 20)
#    0.000    1.714    8.571    0.429    0.000    1.143 
#    0.000   11.429   25.143    6.857    0.000    0.000 
#    0.000    0.000    0.000    0.000    0.000    0.000 
#
# Total GULP energy -234395.929680 kJ/mol
# GULP energy per Si atom -5580.855469 kJ/mol
# Density = 1.955315 g / cm^3
# Si number density = 19.597760 Si / 1000 Ang^3
#
#
#
# Elastic Constant Matrix: (Units=GPa)
#
#
# Indices 1 2 3 4 5 6 
#
# 1 82.4393 28.6691 42.4528 0.0000 0.0000 0.0000
# 2 28.6691 82.4393 42.4528 0.0000 0.0000 0.0000
# 3 42.4528 42.4528 85.3966 0.0000 0.0000 0.0000
# 4 0.0000 0.0000 0.0000 15.2934 0.0000 0.0000
# 5 0.0000 0.0000 0.0000 0.0000 15.2934 0.0000
# 6 0.0000 0.0000 0.0000 0.0000 0.0000 26.8851
#
#
#
# Elastic Compliance Matrix: (Units=1/GPa)
#
#
# Indices 1 2 3 4 5 6 
#
# 1 0.016556 -0.002042 -0.007215 0.000000 0.000000 0.000000
# 2 -0.002042 0.016556 -0.007215 0.000000 0.000000 0.000000
# 3 -0.007215 -0.007215 0.018884 0.000000 0.000000 0.000000
# 4 0.000000 0.000000 0.000000 0.065387 0.000000 0.000000
# 5 0.000000 0.000000 0.000000 0.000000 0.065387 0.000000
# 6 0.000000 0.000000 0.000000 0.000000 0.000000 0.037195
#
#
# Mechanical properties :
#
#
# Convention : Reuss Voigt Hill
#
# Bulk Modulus (GPa) = 52.49156 53.04718 52.76937
# Shear Modulus (GPa) = 19.28562 20.60776 19.94669
#
# Velocity S-wave (km/s) = 3.14040 3.24626 3.19377
# Velocity P-wave (km/s) = 6.32393 6.41698 6.37063
#
# Compressibility (1/GPa) = 0.01905068
#
# Stress axis : x y z
#
# Youngs Moduli (GPa) = 60.40193 60.40193 52.95547
#
# Poissons Ratio (x) = 0.12333 0.38208
# Poissons Ratio (y) = 0.12333 0.38208
# Poissons Ratio (z) = 0.43581 0.43581
#
# Static dielectric constant tensor:
#      x y z
#    x 1.752850 0.000000 0.000000 
#    y 0.000000 1.752850 0.000000 
#    z 0.000000 0.000000 1.708870 
# 
# From -- ./inp_files/4239.got.cif
#   From: 2010.05.17/outbox.cif.g08.bks.cpg/sg180_3_cif.got.tgz:4239.got - 2010.05.20 11:43:55.
