data_PCOD9583360
_publ_section_title
;
Structure prediction by ZEFSAII (Michael W. Deem and Ramdas Pophale) SiO2 
 PCOD9583360
Probable space group: P 65 2 2
;
_chemical_formula_sum "Si O2"
_cell_formula_units_Z 42
_cell_length_a 9.422142
_cell_length_b 9.422142
_cell_length_c 25.556906
_cell_angle_alpha 90.000000
_cell_angle_beta 90.000000
_cell_angle_gamma 120.000000
_cell_volume 1964.889797
_symmetry_space_group_name_H-M "P 65 2 2"
_symmetry_group_IT_number 179
_symmetry_cell_setting 'hexagonal'
loop_
_space_group_symop_operation_xyz
x,y,z
x-y,x,5/6+z
-y,x-y,2/3+z
-x,-y,1/2+z
-x+y,-x,1/3+z
y,-x+y,1/6+z
x-y,-y,-z
-x,-x+y,1/3-z
y,x,2/3-z
-y,-x,1/6-z
-x+y,y,1/2-z
x,x-y,5/6-z
loop_
_atom_site_type_symbol
_atom_site_label
_atom_site_fract_x
_atom_site_fract_y
_atom_site_fract_z
Si Si1 0.195443 0.490091 0.568109
Si Si2 0.383952 0.383952 0.833334
Si Si3 0.386138 0.380128 0.179060
Si Si4 0.275786 0.484062 0.390785
O O1 0.319066 0.680935 0.583334
O O2 0.310157 0.446781 0.534068
O O3 0.110751 0.376846 0.619199
O O4 0.056045 0.489408 0.531100
O O5 0.545772 0.418681 0.865092
O O6 0.368697 0.276291 0.230291
O O7 0.233510 0.385656 0.155266
O O8 0.236931 0.618466 0.416667
#
# Coordination Sequence:
#
# PCOD9583360 Si02
#       4
#    12   6  12  12
#     4  11  21  38  63  96 131 172 222 282 330 399
#     4  10  22  38  62  94 132 172 216 274 336 398
#     4  11  22  37  64  98 129 169 223 281 336 393
#     4  11  21  38  61 100 124 171 219 278 333 401
#
# _framework density 21.375243000000001
#
# number of rings (size 3 to 8) (size 9 to 14) (size 15 to 20)
#    0.000    1.143    5.714    0.857    0.000    0.000 
#    0.000    0.000    0.000    5.143    0.000    0.000 
#    0.000    0.000    0.000    0.000    0.000    0.000 
#
# Total GULP energy -234190.650324 kJ/mol
# GULP energy per Si atom -5575.967865 kJ/mol
# Density = 2.132659 g / cm^3
# Si number density = 21.375243 Si / 1000 Ang^3
#
#
#
# Elastic Constant Matrix: (Units=GPa)
#
#
# Indices 1 2 3 4 5 6 
#
# 1 13.7385 7.5466 -6.1459 0.0000 0.0000 0.0000
# 2 7.5466 13.7385 -6.1459 0.0000 0.0000 0.0000
# 3 -6.1459 -6.1459 59.3074 0.0000 0.0000 0.0000
# 4 0.0000 0.0000 0.0000 36.8888 0.0000 0.0000
# 5 0.0000 0.0000 0.0000 0.0000 36.8888 0.0000
# 6 0.0000 0.0000 0.0000 0.0000 0.0000 3.0960
#
#
#
# Elastic Compliance Matrix: (Units=1/GPa)
#
#
# Indices 1 2 3 4 5 6 
#
# 1 0.105736 -0.055764 0.005178 0.000000 0.000000 0.000000
# 2 -0.055764 0.105736 0.005178 0.000000 0.000000 0.000000
# 3 0.005178 0.005178 0.017935 0.000000 0.000000 0.000000
# 4 0.000000 0.000000 0.000000 0.027108 0.000000 0.000000
# 5 0.000000 0.000000 0.000000 0.000000 0.027108 0.000000
# 6 0.000000 0.000000 0.000000 0.000000 0.000000 0.323000
#
#
# Mechanical properties :
#
#
# Convention : Reuss Voigt Hill
#
# Bulk Modulus (GPa) = 7.21544 8.58822 7.90183
# Shear Modulus (GPa) = 6.72372 21.47670 14.10021
#
# Velocity S-wave (km/s) = 1.77550 3.17321 2.57115
# Velocity P-wave (km/s) = 2.75429 4.17759 3.53825
#
# Compressibility (1/GPa) = 0.13859168
#
# Stress axis : x y z
#
# Youngs Moduli (GPa) = 9.45752 9.45752 55.75823
#
# Poissons Ratio (x) = 0.52739 -0.28874
# Poissons Ratio (y) = 0.52739 -0.28874
# Poissons Ratio (z) = -0.04898 -0.04898
#
# Static dielectric constant tensor:
#      x y z
#    x 1.814310 0.000000 0.000000 
#    y 0.000000 1.814310 0.000000 
#    z 0.000000 0.000000 1.823800 
# 
# From -- ./inp_files/7982.got.cif
#   From: 2010.05.17/outbox.cif.g08.bks.cpg/sg179_4_cif.got.tgz:7982.got - 2010.05.20 11:37:33.
