data_PCOD9583966
_publ_section_title
;
Structure prediction by ZEFSAII (Michael W. Deem and Ramdas Pophale) SiO2 
 PCOD9583966
Probable space group: P 62 2 2
;
_chemical_formula_sum "Si O2"
_cell_formula_units_Z 84
_cell_length_a 16.912462
_cell_length_b 16.912462
_cell_length_c 13.839307
_cell_angle_alpha 90.000000
_cell_angle_beta 90.000000
_cell_angle_gamma 120.000000
_cell_volume 3428.140736
_symmetry_space_group_name_H-M "P 62 2 2"
_symmetry_group_IT_number 180
_symmetry_cell_setting 'hexagonal'
loop_
_space_group_symop_operation_xyz
x,y,z
x-y,x,1/3+z
-y,x-y,2/3+z
-x,-y,z
-x+y,-x,1/3+z
y,-x+y,2/3+z
x-y,-y,-z
-x,-x+y,1/3-z
y,x,2/3-z
-y,-x,2/3-z
-x+y,y,-z
x,x-y,1/3-z
loop_
_atom_site_type_symbol
_atom_site_label
_atom_site_fract_x
_atom_site_fract_y
_atom_site_fract_z
Si Si1 0.386606 0.223226 0.319138
Si Si2 0.089241 0.912129 0.985917
Si Si3 0.352143 0.905786 0.370070
Si Si4 0.884409 0.507085 0.352730
Si Si5 0.410981 0.510032 0.427900
Si Si6 0.379770 0.206908 0.534740
Si Si7 0.080948 0.911637 0.482487
O O1 0.285071 0.139145 0.299946
O O2 0.455616 0.184917 0.313297
O O3 0.418999 0.313122 0.255936
O O4 0.391986 0.250864 0.430441
O O5 0.005113 0.894310 0.917558
O O6 0.161439 0.014527 0.921395
O O7 0.017607 0.862288 0.089702
O O8 0.424062 0.870999 0.380776
O O9 0.284562 0.857560 0.280306
O O10 0.280388 0.869331 0.458449
O O11 0.410994 0.013310 0.342440
O O12 0.873659 0.466309 0.461134
O O13 0.500000 0.500000 0.427061
O O14 0.426213 0.573788 0.333334
O O15 0.272004 0.151139 0.550105
#
# Coordination Sequence:
#
# PCOD9583966 Si02
#       7
#    12  12  12  12  12  12  12
#     4  11  26  43  72 108 143 188 244 302 370 444
#     4  11  26  44  67 101 143 191 239 297 354 434
#     4  10  22  42  73 100 148 188 240 298 361 440
#     4  11  23  44  72 107 140 187 239 306 370 437
#     4  11  24  43  73 103 140 180 241 301 370 434
#     4  10  24  42  70 105 144 192 242 291 364 442
#     4  11  25  42  70  99 140 190 241 294 356 421
#
# _framework density 24.503077000000001
#
# number of rings (size 3 to 8) (size 9 to 14) (size 15 to 20)
#    0.000    1.286    1.429    3.000   12.000    5.714 
#    2.571    1.429    3.143    0.000    0.000    0.000 
#    0.000    0.000    0.000    0.000    0.000    0.000 
#
# Total GULP energy -468630.227950 kJ/mol
# GULP energy per Si atom -5578.931285 kJ/mol
# Density = 2.444731 g / cm^3
# Si number density = 24.503077 Si / 1000 Ang^3
#
#
#
# Elastic Constant Matrix: (Units=GPa)
#
#
# Indices 1 2 3 4 5 6 
#
# 1 134.4379 69.4749 3.0661 0.0000 0.0000 0.0000
# 2 69.4749 134.4379 3.0661 0.0000 0.0000 0.0000
# 3 3.0661 3.0661 105.7118 0.0000 0.0000 0.0000
# 4 0.0000 0.0000 0.0000 37.9141 0.0000 0.0000
# 5 0.0000 0.0000 0.0000 0.0000 37.9141 0.0000
# 6 0.0000 0.0000 0.0000 0.0000 0.0000 32.4815
#
#
#
# Elastic Compliance Matrix: (Units=1/GPa)
#
#
# Indices 1 2 3 4 5 6 
#
# 1 0.010151 -0.005243 -0.000142 0.000000 0.000000 0.000000
# 2 -0.005243 0.010151 -0.000142 0.000000 0.000000 0.000000
# 3 -0.000142 -0.000142 0.009468 0.000000 0.000000 0.000000
# 4 0.000000 0.000000 0.000000 0.026375 0.000000 0.000000
# 5 0.000000 0.000000 0.000000 0.000000 0.026375 0.000000
# 6 0.000000 0.000000 0.000000 0.000000 0.000000 0.030787
#
#
# Mechanical properties :
#
#
# Convention : Reuss Voigt Hill
#
# Bulk Modulus (GPa) = 53.43261 58.42243 55.92752
# Shear Modulus (GPa) = 38.28483 41.59399 39.93941
#
# Velocity S-wave (km/s) = 3.95707 4.12454 4.04168
# Velocity P-wave (km/s) = 6.53695 6.82474 6.68240
#
# Compressibility (1/GPa) = 0.01871516
#
# Stress axis : x y z
#
# Youngs Moduli (GPa) = 98.51391 98.51391 105.61959
#
# Poissons Ratio (x) = 0.51646 0.01504
# Poissons Ratio (y) = 0.51646 0.01504
# Poissons Ratio (z) = 0.01402 0.01402
#
# Static dielectric constant tensor:
#      x y z
#    x 1.914550 0.000000 0.000000 
#    y 0.000000 1.914550 0.000000 
#    z 0.000000 0.000000 2.184360 
# 
# From -- ./inp_files/6476.got.cif
#   From: 2010.05.17/outbox.cif.g08.bks.cpg/sg180_4_cif.got.tgz:6476.got - 2010.05.20 11:43:55.
