data_PCOD9583938
_publ_section_title
;
Structure prediction by ZEFSAII (Michael W. Deem and Ramdas Pophale) SiO2 
 PCOD9583938
Probable space group: P 62 2 2
;
_chemical_formula_sum "Si O2"
_cell_formula_units_Z 60
_cell_length_a 16.552572
_cell_length_b 16.552572
_cell_length_c 12.260509
_cell_angle_alpha 90.000000
_cell_angle_beta 90.000000
_cell_angle_gamma 120.000000
_cell_volume 2909.176719
_symmetry_space_group_name_H-M "P 62 2 2"
_symmetry_group_IT_number 180
_symmetry_cell_setting 'hexagonal'
loop_
_space_group_symop_operation_xyz
x,y,z
x-y,x,1/3+z
-y,x-y,2/3+z
-x,-y,z
-x+y,-x,1/3+z
y,-x+y,2/3+z
x-y,-y,-z
-x,-x+y,1/3-z
y,x,2/3-z
-y,-x,2/3-z
-x+y,y,-z
x,x-y,1/3-z
loop_
_atom_site_type_symbol
_atom_site_label
_atom_site_fract_x
_atom_site_fract_y
_atom_site_fract_z
Si Si1 0.568321 0.106264 0.674885
Si Si2 0.119937 0.717377 0.389773
Si Si3 0.649522 0.891990 0.969684
Si Si4 0.187623 0.653005 0.769733
Si Si5 0.065624 0.713236 0.060466
O O1 0.502656 0.151655 0.665729
O O2 0.589156 0.116535 0.803618
O O3 0.663007 0.129390 0.612145
O O4 0.500000 0.000000 0.641499
O O5 0.183104 0.816897 0.333334
O O6 0.124156 0.721463 0.519817
O O7 0.011094 0.676975 0.366447
O O8 0.690951 0.822620 0.957899
O O9 0.569267 0.849537 0.060180
O O10 0.718973 0.000000 0.000000
O O11 0.284996 0.715005 0.833334
O O12 0.195322 0.597661 0.666667
O O13 0.000000 0.683235 0.166667
#
# Coordination Sequence:
#
# PCOD9583938 Si02
#       5
#    12  12  12  12  12
#     4  10  22  39  62  94 130 175 223 269 328 401
#     4  11  23  41  65  98 135 176 224 273 343 411
#     4  12  25  42  69  98 130 175 233 288 341 412
#     4  12  25  43  64  96 135 177 227 280 331 401
#     4  11  23  44  66  98 135 176 223 284 344 409
#
# _framework density 20.624392
#
# number of rings (size 3 to 8) (size 9 to 14) (size 15 to 20)
#    0.000    0.800    6.000    2.400    0.000    4.400 
#    0.000    0.000    0.000    0.600    0.000    0.000 
#    0.000    0.000    0.000    0.000    0.000    0.000 
#
# Total GULP energy -334627.878756 kJ/mol
# GULP energy per Si atom -5577.131313 kJ/mol
# Density = 2.057745 g / cm^3
# Si number density = 20.624392 Si / 1000 Ang^3
#
#
#
# Elastic Constant Matrix: (Units=GPa)
#
#
# Indices 1 2 3 4 5 6 
#
# 1 91.5120 46.1522 21.2832 0.0000 0.0000 0.0000
# 2 46.1522 91.5120 21.2832 0.0000 0.0000 0.0000
# 3 21.2832 21.2832 88.3023 0.0000 0.0000 0.0000
# 4 0.0000 0.0000 0.0000 35.1122 0.0000 0.0000
# 5 0.0000 0.0000 0.0000 0.0000 35.1122 0.0000
# 6 0.0000 0.0000 0.0000 0.0000 0.0000 22.6799
#
#
#
# Elastic Compliance Matrix: (Units=1/GPa)
#
#
# Indices 1 2 3 4 5 6 
#
# 1 0.014947 -0.007098 -0.001892 0.000000 0.000000 0.000000
# 2 -0.007098 0.014947 -0.001892 0.000000 0.000000 0.000000
# 3 -0.001892 -0.001892 0.012237 0.000000 0.000000 0.000000
# 4 0.000000 0.000000 0.000000 0.028480 0.000000 0.000000
# 5 0.000000 0.000000 0.000000 0.000000 0.028480 0.000000
# 6 0.000000 0.000000 0.000000 0.000000 0.000000 0.044092
#
#
# Mechanical properties :
#
#
# Convention : Reuss Voigt Hill
#
# Bulk Modulus (GPa) = 49.09798 49.86261 49.48030
# Shear Modulus (GPa) = 29.11426 30.75472 29.93449
#
# Velocity S-wave (km/s) = 3.76126 3.86577 3.81387
# Velocity P-wave (km/s) = 6.53607 6.64489 6.59071
#
# Compressibility (1/GPa) = 0.02036744
#
# Stress axis : x y z
#
# Youngs Moduli (GPa) = 66.90092 66.90092 81.72148
#
# Poissons Ratio (x) = 0.47489 0.15460
# Poissons Ratio (y) = 0.47489 0.15460
# Poissons Ratio (z) = 0.12656 0.12656
#
# Static dielectric constant tensor:
#      x y z
#    x 1.773640 0.000000 0.000000 
#    y 0.000000 1.773640 0.000000 
#    z 0.000000 0.000000 1.772570 
# 
# From -- ./inp_files/4842.got.cif
#   From: 2010.05.17/outbox.cif.g08.bks.cpg/sg180_3_cif.got.tgz:4842.got - 2010.05.20 11:43:55.
