data_PCOD9583518
_publ_section_title
;
Structure prediction by ZEFSAII (Michael W. Deem and Ramdas Pophale) SiO2 
 PCOD9583518
Probable space group: P 65 2 2
;
_chemical_formula_sum "Si O2"
_cell_formula_units_Z 54
_cell_length_a 12.160213
_cell_length_b 12.160213
_cell_length_c 20.744993
_cell_angle_alpha 90.000000
_cell_angle_beta 90.000000
_cell_angle_gamma 120.000000
_cell_volume 2656.600736
_symmetry_space_group_name_H-M "P 65 2 2"
_symmetry_group_IT_number 179
_symmetry_cell_setting 'hexagonal'
loop_
_space_group_symop_operation_xyz
x,y,z
x-y,x,5/6+z
-y,x-y,2/3+z
-x,-y,1/2+z
-x+y,-x,1/3+z
y,-x+y,1/6+z
x-y,-y,-z
-x,-x+y,1/3-z
y,x,2/3-z
-y,-x,1/6-z
-x+y,y,1/2-z
x,x-y,5/6-z
loop_
_atom_site_type_symbol
_atom_site_label
_atom_site_fract_x
_atom_site_fract_y
_atom_site_fract_z
Si Si1 0.412869 0.546991 0.853742
Si Si2 0.666823 0.858037 0.991135
Si Si3 0.008548 0.369892 0.918828
Si Si4 0.460220 0.180701 0.149419
Si Si5 0.646547 0.323274 0.916667
O O1 0.431217 0.431217 0.833334
O O2 0.539180 0.674605 0.831899
O O3 0.385131 0.543434 0.929245
O O4 0.313048 0.554532 0.807814
O O5 0.667303 0.833652 0.916667
O O6 0.655525 0.741063 0.031880
O O7 0.784807 0.000000 0.000000
O O8 0.003784 0.501892 0.916667
O O9 0.147970 0.405966 0.943908
O O10 0.952015 0.309481 0.848574
O O11 0.547811 0.262387 0.209744
#
# Coordination Sequence:
#
# PCOD9583518 Si02
#       5
#    12  12  12  12   6
#     4  11  25  39  65  93 131 173 219 280 347 425
#     4  11  22  39  63  95 130 168 223 278 344 415
#     4  12  24  41  69  98 139 180 230 293 365 434
#     4  12  26  42  65 100 139 178 228 286 359 435
#     4  12  22  42  64 100 136 170 222 282 352 434
#
# _framework density 20.326727000000002
#
# number of rings (size 3 to 8) (size 9 to 14) (size 15 to 20)
#    0.000    0.444    3.333    6.000    9.333    0.000 
#    0.000    0.000    0.000    8.000    0.000    0.000 
#    0.000    0.000    0.000    0.000    0.000    0.000 
#
# Total GULP energy -301012.556950 kJ/mol
# GULP energy per Si atom -5574.306610 kJ/mol
# Density = 2.028046 g / cm^3
# Si number density = 20.326727 Si / 1000 Ang^3
#
#
#
# Elastic Constant Matrix: (Units=GPa)
#
#
# Indices 1 2 3 4 5 6 
#
# 1 60.9241 28.2235 8.8705 0.0000 0.0000 0.0000
# 2 28.2235 60.9241 8.8705 0.0000 0.0000 0.0000
# 3 8.8705 8.8705 102.5089 0.0000 0.0000 0.0000
# 4 0.0000 0.0000 0.0000 28.5864 0.0000 0.0000
# 5 0.0000 0.0000 0.0000 0.0000 28.5864 0.0000
# 6 0.0000 0.0000 0.0000 0.0000 0.0000 16.3503
#
#
#
# Elastic Compliance Matrix: (Units=1/GPa)
#
#
# Indices 1 2 3 4 5 6 
#
# 1 0.020997 -0.009583 -0.000988 0.000000 0.000000 0.000000
# 2 -0.009583 0.020997 -0.000988 0.000000 0.000000 0.000000
# 3 -0.000988 -0.000988 0.009926 0.000000 0.000000 0.000000
# 4 0.000000 0.000000 0.000000 0.034982 0.000000 0.000000
# 5 0.000000 0.000000 0.000000 0.000000 0.034982 0.000000
# 6 0.000000 0.000000 0.000000 0.000000 0.000000 0.061161
#
#
# Mechanical properties :
#
#
# Convention : Reuss Voigt Hill
#
# Bulk Modulus (GPa) = 34.71830 35.14289 34.93060
# Shear Modulus (GPa) = 23.17355 26.59745 24.88550
#
# Velocity S-wave (km/s) = 3.38013 3.62124 3.50276
# Velocity P-wave (km/s) = 5.68779 5.90009 5.79491
#
# Compressibility (1/GPa) = 0.02880325
#
# Stress axis : x y z
#
# Youngs Moduli (GPa) = 47.62542 47.62542 100.74359
#
# Poissons Ratio (x) = 0.45641 0.09950
# Poissons Ratio (y) = 0.45641 0.09950
# Poissons Ratio (z) = 0.04704 0.04704
#
# Static dielectric constant tensor:
#      x y z
#    x 1.758570 0.000000 0.000000 
#    y 0.000000 1.758570 0.000000 
#    z 0.000000 0.000000 1.530350 
# 
# From -- ./inp_files/7440.got.cif
#   From: 2010.05.17/outbox.cif.g08.bks.cpg/sg179_4_cif.got.tgz:7440.got - 2010.05.20 11:37:33.
