data_PCOD9583007
_publ_section_title
;
Structure prediction by ZEFSAII (Michael W. Deem and Ramdas Pophale) SiO2 
 PCOD9583007
Probable space group: P 61 2 2
;
_chemical_formula_sum "Si O2"
_cell_formula_units_Z 48
_cell_length_a 9.711752
_cell_length_b 9.711752
_cell_length_c 22.948666
_cell_angle_alpha 90.000000
_cell_angle_beta 90.000000
_cell_angle_gamma 120.000000
_cell_volume 1874.490502
_symmetry_space_group_name_H-M "P 61 2 2"
_symmetry_group_IT_number 178
_symmetry_cell_setting 'hexagonal'
loop_
_space_group_symop_operation_xyz
x,y,z
x-y,x,1/6+z
-y,x-y,1/3+z
-x,-y,1/2+z
-x+y,-x,2/3+z
y,-x+y,5/6+z
x-y,-y,-z
-x,-x+y,2/3-z
y,x,1/3-z
-y,-x,5/6-z
-x+y,y,1/2-z
x,x-y,1/6-z
loop_
_atom_site_type_symbol
_atom_site_label
_atom_site_fract_x
_atom_site_fract_y
_atom_site_fract_z
Si Si1 0.176669 0.657314 0.146828
Si Si2 0.000000 0.815011 0.833334
Si Si3 0.162274 0.650801 0.519878
Si Si4 0.311820 0.311820 0.666667
Si Si5 0.916148 0.958074 0.083334
Si Si6 0.769488 0.538975 0.750000
O O1 0.169355 0.584678 0.083334
O O2 0.343862 0.819544 0.146725
O O3 0.191146 0.563291 0.203352
O O4 0.007757 0.646152 0.154898
O O5 0.902486 0.662687 0.793485
O O6 0.922205 0.888921 0.877205
O O7 0.161737 0.580869 0.583334
O O8 0.300680 0.829281 0.504598
O O9 0.204169 0.206508 0.613703
#
# Coordination Sequence:
#
# PCOD9583007 Si02
#       6
#    12   6  12   6   6   6
#     4  11  28  47  75 111 157 209 268 344 412 492
#     4   9  22  41  72 112 160 202 260 336 400 506
#     4  11  28  50  75 113 160 206 268 336 407 495
#     4  11  26  43  80 106 152 204 262 322 406 492
#     4   9  22  42  70 117 152 200 260 323 412 496
#     4  11  24  44  76 109 160 212 272 331 424 482
#
# _framework density 25.606960000000001
#
# number of rings (size 3 to 8) (size 9 to 14) (size 15 to 20)
#    0.000    1.500    1.250    0.000   15.750    3.000 
#    0.000    0.000    0.000    1.500    0.000    0.000 
#    0.000    0.000    0.000    0.000    0.000    0.000 
#
# Total GULP energy -267689.903706 kJ/mol
# GULP energy per Si atom -5576.872994 kJ/mol
# Density = 2.554868 g / cm^3
# Si number density = 25.606960 Si / 1000 Ang^3
#
#
#
# Elastic Constant Matrix: (Units=GPa)
#
#
# Indices 1 2 3 4 5 6 
#
# 1 106.7720 24.9081 22.2288 0.0000 0.0000 0.0000
# 2 24.9081 106.7720 22.2288 0.0000 0.0000 0.0000
# 3 22.2288 22.2288 131.8381 0.0000 0.0000 0.0000
# 4 0.0000 0.0000 0.0000 24.3869 0.0000 0.0000
# 5 0.0000 0.0000 0.0000 0.0000 24.3869 0.0000
# 6 0.0000 0.0000 0.0000 0.0000 0.0000 40.9319
#
#
#
# Elastic Compliance Matrix: (Units=1/GPa)
#
#
# Indices 1 2 3 4 5 6 
#
# 1 0.010134 -0.002081 -0.001358 0.000000 0.000000 0.000000
# 2 -0.002081 0.010134 -0.001358 0.000000 0.000000 0.000000
# 3 -0.001358 -0.001358 0.008043 0.000000 0.000000 0.000000
# 4 0.000000 0.000000 0.000000 0.041006 0.000000 0.000000
# 5 0.000000 0.000000 0.000000 0.000000 0.041006 0.000000
# 6 0.000000 0.000000 0.000000 0.000000 0.000000 0.024431
#
#
# Mechanical properties :
#
#
# Convention : Reuss Voigt Hill
#
# Bulk Modulus (GPa) = 53.42699 53.79042 53.60870
# Shear Modulus (GPa) = 33.20369 36.34223 34.77296
#
# Velocity S-wave (km/s) = 3.60483 3.77136 3.68903
# Velocity P-wave (km/s) = 6.18352 6.32582 6.25507
#
# Compressibility (1/GPa) = 0.01871713
#
# Stress axis : x y z
#
# Youngs Moduli (GPa) = 98.67798 98.67798 124.33322
#
# Poissons Ratio (x) = 0.20539 0.16881
# Poissons Ratio (y) = 0.20539 0.16881
# Poissons Ratio (z) = 0.13398 0.13398
#
# Static dielectric constant tensor:
#      x y z
#    x 2.099630 0.000000 0.000000 
#    y 0.000000 2.099630 0.000000 
#    z 0.000000 0.000000 2.195290 
# 
# From -- ./inp_files/8083.got.cif
#   From: 2010.05.17/outbox.cif.g08.bks.cpg/sg178_5_cif.got.tgz:8083.got - 2010.05.20 11:30:59.
