data_PCOD9583400
_publ_section_title
;
Structure prediction by ZEFSAII (Michael W. Deem and Ramdas Pophale) SiO2 
 PCOD9583400
Probable space group: P 65 2 2
;
_chemical_formula_sum "Si O2"
_cell_formula_units_Z 36
_cell_length_a 7.018717
_cell_length_b 7.018717
_cell_length_c 30.826019
_cell_angle_alpha 90.000000
_cell_angle_beta 90.000000
_cell_angle_gamma 120.000000
_cell_volume 1315.114411
_symmetry_space_group_name_H-M "P 65 2 2"
_symmetry_group_IT_number 179
_symmetry_cell_setting 'hexagonal'
loop_
_space_group_symop_operation_xyz
x,y,z
x-y,x,5/6+z
-y,x-y,2/3+z
-x,-y,1/2+z
-x+y,-x,1/3+z
y,-x+y,1/6+z
x-y,-y,-z
-x,-x+y,1/3-z
y,x,2/3-z
-y,-x,1/6-z
-x+y,y,1/2-z
x,x-y,5/6-z
loop_
_atom_site_type_symbol
_atom_site_label
_atom_site_fract_x
_atom_site_fract_y
_atom_site_fract_z
Si Si1 0.125648 0.418974 0.577254
Si Si2 0.499964 0.316862 0.302956
Si Si3 0.331865 0.371356 0.650433
O O1 0.348329 0.651672 0.583334
O O2 0.935693 0.471300 0.593859
O O3 0.079086 0.334605 0.528351
O O4 0.164806 0.262045 0.610306
O O5 0.305903 0.305903 0.333334
O O6 0.717736 0.468177 0.331197
O O7 0.515849 0.097897 0.299501
#
# Coordination Sequence:
#
# PCOD9583400 Si02
#       3
#    12  12  12
#     4  11  23  45  78 114 154 214 268 337 428 489
#     4  10  22  44  77 105 154 205 260 332 411 491
#     4  11  22  45  76 109 155 208 269 331 421 492
#
# _framework density 27.374043
#
# number of rings (size 3 to 8) (size 9 to 14) (size 15 to 20)
#    0.000    1.333    6.667    1.000    0.000    2.667 
#    0.000    5.000    7.333    0.000    0.000    0.000 
#    0.000    0.000    0.000    0.000    0.000    0.000 
#
# Total GULP energy -201075.230604 kJ/mol
# GULP energy per Si atom -5585.423072 kJ/mol
# Density = 2.731174 g / cm^3
# Si number density = 27.374043 Si / 1000 Ang^3
#
#
#
# Elastic Constant Matrix: (Units=GPa)
#
#
# Indices 1 2 3 4 5 6 
#
# 1 135.9035 28.7895 44.9287 0.0000 0.0000 0.0000
# 2 28.7895 135.9035 44.9287 0.0000 0.0000 0.0000
# 3 44.9287 44.9287 234.0750 0.0000 0.0000 0.0000
# 4 0.0000 0.0000 0.0000 37.3566 0.0000 0.0000
# 5 0.0000 0.0000 0.0000 0.0000 37.3566 0.0000
# 6 0.0000 0.0000 0.0000 0.0000 0.0000 53.5570
#
#
#
# Elastic Compliance Matrix: (Units=1/GPa)
#
#
# Indices 1 2 3 4 5 6 
#
# 1 0.008059 -0.001277 -0.001302 0.000000 0.000000 0.000000
# 2 -0.001277 0.008059 -0.001302 0.000000 0.000000 0.000000
# 3 -0.001302 -0.001302 0.004772 0.000000 0.000000 0.000000
# 4 0.000000 0.000000 0.000000 0.026769 0.000000 0.000000
# 5 0.000000 0.000000 0.000000 0.000000 0.026769 0.000000
# 6 0.000000 0.000000 0.000000 0.000000 0.000000 0.018672
#
#
# Mechanical properties :
#
#
# Convention : Reuss Voigt Hill
#
# Bulk Modulus (GPa) = 76.16685 82.57512 79.37099
# Shear Modulus (GPa) = 47.51191 51.46972 49.49082
#
# Velocity S-wave (km/s) = 4.17064 4.34088 4.25661
# Velocity P-wave (km/s) = 7.14683 7.44011 7.29494
#
# Compressibility (1/GPa) = 0.01312907
#
# Stress axis : x y z
#
# Youngs Moduli (GPa) = 124.08484 124.08484 209.56166
#
# Poissons Ratio (x) = 0.15844 0.27280
# Poissons Ratio (y) = 0.15844 0.27280
# Poissons Ratio (z) = 0.16153 0.16153
#
# Static dielectric constant tensor:
#      x y z
#    x 2.193630 0.000000 0.000000 
#    y 0.000000 2.193630 0.000000 
#    z 0.000000 0.000000 2.371610 
# 
# From -- ./inp_files/8584.got.cif
#   From: 2010.05.17/outbox.cif.g08.bks.cpg/sg179_5_cif.got.tgz:8584.got - 2010.05.20 11:37:33.
