data_PCOD9583304
_publ_section_title
;
Structure prediction by ZEFSAII (Michael W. Deem and Ramdas Pophale) SiO2 
 PCOD9583304
Probable space group: P 65 2 2
;
_chemical_formula_sum "Si O2"
_cell_formula_units_Z 72
_cell_length_a 15.552054
_cell_length_b 15.552054
_cell_length_c 18.429270
_cell_angle_alpha 90.000000
_cell_angle_beta 90.000000
_cell_angle_gamma 120.000000
_cell_volume 3860.239724
_symmetry_space_group_name_H-M "P 65 2 2"
_symmetry_group_IT_number 179
_symmetry_cell_setting 'hexagonal'
loop_
_space_group_symop_operation_xyz
x,y,z
x-y,x,5/6+z
-y,x-y,2/3+z
-x,-y,1/2+z
-x+y,-x,1/3+z
y,-x+y,1/6+z
x-y,-y,-z
-x,-x+y,1/3-z
y,x,2/3-z
-y,-x,1/6-z
-x+y,y,1/2-z
x,x-y,5/6-z
loop_
_atom_site_type_symbol
_atom_site_label
_atom_site_fract_x
_atom_site_fract_y
_atom_site_fract_z
Si Si1 0.426395 0.878460 0.833329
Si Si2 0.114637 0.410452 0.075966
Si Si3 0.112997 0.336514 0.821227
Si Si4 0.402880 0.109153 0.420012
Si Si5 0.880480 0.418589 0.497394
Si Si6 0.875458 0.230642 0.802680
O O1 0.422707 0.845413 0.750000
O O2 0.492596 0.845165 0.878593
O O3 0.323000 0.854684 0.869617
O O4 0.485255 0.999173 0.832085
O O5 0.108582 0.419082 0.161419
O O6 0.999899 0.337697 0.054002
O O7 0.155375 0.521028 0.046260
O O8 0.174618 0.362673 0.040677
O O9 0.155328 0.310655 0.750000
O O10 0.142639 0.452249 0.815679
O O11 0.161944 0.327278 0.896962
O O12 0.992487 0.273574 0.817511
O O13 0.352606 0.176303 0.416667
O O14 0.846473 0.423237 0.416667
#
# Coordination Sequence:
#
# PCOD9583304 Si02
#       6
#    12  12  12  12  12  12
#     4   9  19  35  58  85 118 156 198 245 305 372
#     4  10  21  36  60  88 119 162 202 257 312 378
#     4  11  24  40  64  93 126 167 220 268 319 388
#     4  10  21  36  59  87 122 155 204 254 312 376
#     4   9  17  36  58  81 116 153 194 244 304 371
#     4  11  23  40  66  91 124 172 215 260 327 386
#
# _framework density 18.651692000000001
#
# number of rings (size 3 to 8) (size 9 to 14) (size 15 to 20)
#    0.000    2.000    1.667    1.500    7.000    0.000 
#    3.000    0.833    0.000    3.000    0.000    0.000 
#    0.000    0.000    0.000    0.000    0.000    0.000 
#
# Total GULP energy -401056.714525 kJ/mol
# GULP energy per Si atom -5570.232146 kJ/mol
# Density = 1.860924 g / cm^3
# Si number density = 18.651692 Si / 1000 Ang^3
#
#
#
# Elastic Constant Matrix: (Units=GPa)
#
#
# Indices 1 2 3 4 5 6 
#
# 1 77.8371 32.4678 26.9482 0.0000 0.0000 0.0000
# 2 32.4678 77.8371 26.9482 0.0000 0.0000 0.0000
# 3 26.9482 26.9482 81.5149 0.0000 0.0000 0.0000
# 4 0.0000 0.0000 0.0000 7.4799 0.0000 0.0000
# 5 0.0000 0.0000 0.0000 0.0000 7.4799 0.0000
# 6 0.0000 0.0000 0.0000 0.0000 0.0000 22.6847
#
#
#
# Elastic Compliance Matrix: (Units=1/GPa)
#
#
# Indices 1 2 3 4 5 6 
#
# 1 0.016427 -0.005615 -0.003574 0.000000 0.000000 0.000000
# 2 -0.005615 0.016427 -0.003574 0.000000 0.000000 0.000000
# 3 -0.003574 -0.003574 0.014631 0.000000 0.000000 0.000000
# 4 0.000000 0.000000 0.000000 0.133692 0.000000 0.000000
# 5 0.000000 0.000000 0.000000 0.000000 0.133692 0.000000
# 6 0.000000 0.000000 0.000000 0.000000 0.000000 0.044083
#
#
# Mechanical properties :
#
#
# Convention : Reuss Voigt Hill
#
# Bulk Modulus (GPa) = 45.54182 45.54638 45.54410
# Shear Modulus (GPa) = 12.76169 17.58389 15.17279
#
# Velocity S-wave (km/s) = 2.61858 3.07375 2.85525
# Velocity P-wave (km/s) = 5.79764 6.08849 5.94484
#
# Compressibility (1/GPa) = 0.02195784
#
# Stress axis : x y z
#
# Youngs Moduli (GPa) = 60.87609 60.87609 68.34770
#
# Poissons Ratio (x) = 0.34179 0.24431
# Poissons Ratio (y) = 0.34179 0.24431
# Poissons Ratio (z) = 0.21760 0.21760
#
# Static dielectric constant tensor:
#      x y z
#    x 1.749770 0.000000 0.000000 
#    y 0.000000 1.749770 0.000000 
#    z 0.000000 0.000000 1.624330 
# 
# From -- ./inp_files/6840.got.cif
#   From: 2010.05.17/outbox.cif.g08.bks.cpg/sg179_4_cif.got.tgz:6840.got - 2010.05.20 11:37:33.
