data_PCOD9583913
_publ_section_title
;
Structure prediction by ZEFSAII (Michael W. Deem and Ramdas Pophale) SiO2 
 PCOD9583913
Probable space group: P 62 2 2
;
_chemical_formula_sum "Si O2"
_cell_formula_units_Z 72
_cell_length_a 14.802272
_cell_length_b 14.802272
_cell_length_c 17.425502
_cell_angle_alpha 90.000000
_cell_angle_beta 90.000000
_cell_angle_gamma 120.000000
_cell_volume 3306.531700
_symmetry_space_group_name_H-M "P 62 2 2"
_symmetry_group_IT_number 180
_symmetry_cell_setting 'hexagonal'
loop_
_space_group_symop_operation_xyz
x,y,z
x-y,x,1/3+z
-y,x-y,2/3+z
-x,-y,z
-x+y,-x,1/3+z
y,-x+y,2/3+z
x-y,-y,-z
-x,-x+y,1/3-z
y,x,2/3-z
-y,-x,2/3-z
-x+y,y,-z
x,x-y,1/3-z
loop_
_atom_site_type_symbol
_atom_site_label
_atom_site_fract_x
_atom_site_fract_y
_atom_site_fract_z
Si Si1 0.543998 0.115650 0.715873
Si Si2 0.821974 0.925508 0.877989
Si Si3 0.144785 0.250451 0.625147
Si Si4 0.745654 0.228212 0.008887
Si Si5 0.328295 0.108438 0.744671
Si Si6 0.794859 0.396275 0.797650
O O1 0.645010 0.192429 0.665798
O O2 0.448785 0.137587 0.732112
O O3 0.587677 0.125635 0.802089
O O4 0.500000 0.000000 0.685023
O O5 0.905154 0.905154 0.833334
O O6 0.718002 0.869630 0.823114
O O7 0.854650 0.044063 0.903639
O O8 0.810905 0.875803 0.961703
O O9 0.170177 0.362775 0.653939
O O10 0.251845 0.267884 0.590148
O O11 0.661627 0.192328 0.941219
O O12 0.696028 0.198728 0.092953
O O13 0.306749 0.153375 0.666667
O O14 0.680770 0.319231 0.833334
#
# Coordination Sequence:
#
# PCOD9583913 Si02
#       6
#    12  12  12  12  12  12
#     4  11  23  39  66  94 129 165 218 271 342 398
#     4  11  25  46  67  97 134 178 229 280 338 408
#     4  11  24  44  68  94 134 177 226 281 343 398
#     4  10  21  43  64  96 130 172 221 275 336 417
#     4  12  25  41  67  96 130 176 219 277 333 404
#     4   9  21  38  65  91 128 171 216 269 334 413
#
# _framework density 21.775081
#
# number of rings (size 3 to 8) (size 9 to 14) (size 15 to 20)
#    0.000    1.333    3.333    1.500    7.000    2.667 
#    0.000    0.833    0.000    0.000    0.000    0.000 
#    0.000    0.000    0.000    0.000    0.000    0.000 
#
# Total GULP energy -401104.093086 kJ/mol
# GULP energy per Si atom -5570.890182 kJ/mol
# Density = 2.172552 g / cm^3
# Si number density = 21.775081 Si / 1000 Ang^3
#
#
#
# Elastic Constant Matrix: (Units=GPa)
#
#
# Indices 1 2 3 4 5 6 
#
# 1 63.0116 9.9632 3.0775 0.0000 0.0000 0.0000
# 2 9.9632 63.0116 3.0775 0.0000 0.0000 0.0000
# 3 3.0775 3.0775 91.5037 0.0000 0.0000 0.0000
# 4 0.0000 0.0000 0.0000 12.2395 0.0000 0.0000
# 5 0.0000 0.0000 0.0000 0.0000 12.2395 0.0000
# 6 0.0000 0.0000 0.0000 0.0000 0.0000 26.5242
#
#
#
# Elastic Compliance Matrix: (Units=1/GPa)
#
#
# Indices 1 2 3 4 5 6 
#
# 1 0.016297 -0.002554 -0.000462 0.000000 0.000000 0.000000
# 2 -0.002554 0.016297 -0.000462 0.000000 0.000000 0.000000
# 3 -0.000462 -0.000462 0.010960 0.000000 0.000000 0.000000
# 4 0.000000 0.000000 0.000000 0.081703 0.000000 0.000000
# 5 0.000000 0.000000 0.000000 0.000000 0.081703 0.000000
# 6 0.000000 0.000000 0.000000 0.000000 0.000000 0.037701
#
#
# Mechanical properties :
#
#
# Convention : Reuss Voigt Hill
#
# Bulk Modulus (GPa) = 27.32574 27.75148 27.53861
# Shear Modulus (GPa) = 18.95263 23.62788 21.29026
#
# Velocity S-wave (km/s) = 2.95342 3.29764 3.13027
# Velocity P-wave (km/s) = 4.92002 5.22221 5.07337
#
# Compressibility (1/GPa) = 0.03659553
#
# Stress axis : x y z
#
# Youngs Moduli (GPa) = 61.36280 61.36280 91.24415
#
# Poissons Ratio (x) = 0.15673 0.04217
# Poissons Ratio (y) = 0.15673 0.04217
# Poissons Ratio (z) = 0.02836 0.02836
#
# Static dielectric constant tensor:
#      x y z
#    x 1.909210 0.000000 0.000000 
#    y 0.000000 1.909210 0.000000 
#    z 0.000000 0.000000 1.784480 
# 
# From -- ./inp_files/7790.got.cif
#   From: 2010.05.17/outbox.cif.g08.bks.cpg/sg180_4_cif.got.tgz:7790.got - 2010.05.20 11:43:55.
