data_PCOD9583626
_publ_section_title
;
Structure prediction by ZEFSAII (Michael W. Deem and Ramdas Pophale) SiO2 
 PCOD9583626
Probable space group: P 62 2 2
;
_chemical_formula_sum "Si O2"
_cell_formula_units_Z 96
_cell_length_a 17.272504
_cell_length_b 17.272504
_cell_length_c 21.069815
_cell_angle_alpha 90.000000
_cell_angle_beta 90.000000
_cell_angle_gamma 120.000000
_cell_volume 5443.797451
_symmetry_space_group_name_H-M "P 62 2 2"
_symmetry_group_IT_number 180
_symmetry_cell_setting 'hexagonal'
loop_
_space_group_symop_operation_xyz
x,y,z
x-y,x,1/3+z
-y,x-y,2/3+z
-x,-y,z
-x+y,-x,1/3+z
y,-x+y,2/3+z
x-y,-y,-z
-x,-x+y,1/3-z
y,x,2/3-z
-y,-x,2/3-z
-x+y,y,-z
x,x-y,1/3-z
loop_
_atom_site_type_symbol
_atom_site_label
_atom_site_fract_x
_atom_site_fract_y
_atom_site_fract_z
Si Si1 0.957320 0.562814 0.861786
Si Si2 0.955991 0.393654 0.326790
Si Si3 0.768337 0.097944 0.797685
Si Si4 0.173987 0.783367 0.540676
Si Si5 0.186712 0.140049 0.490890
Si Si6 0.112163 0.997295 0.393052
Si Si7 0.899153 0.361447 0.189519
Si Si8 0.684664 0.773800 0.985973
O O1 0.887153 0.566559 0.812516
O O2 0.000000 0.500000 0.848196
O O3 0.041119 0.662507 0.865370
O O4 0.918857 0.546274 0.934458
O O5 0.893190 0.352586 0.265726
O O6 0.000000 0.500000 0.319633
O O7 0.030829 0.364567 0.318538
O O8 0.808948 0.191053 0.833334
O O9 0.799901 0.110226 0.725607
O O10 0.803711 0.039036 0.832749
O O11 0.125297 0.835924 0.514033
O O12 0.270730 0.826580 0.509187
O O13 0.190278 0.819370 0.613021
O O14 0.148416 0.076313 0.551545
O O15 0.128801 0.087444 0.429044
O O16 0.047405 0.952596 0.333334
O O17 0.214097 0.026727 0.373152
O O18 0.888709 0.444355 0.166667
O O19 0.000000 0.388090 0.166667
#
# Coordination Sequence:
#
# PCOD9583626 Si02
#       8
#    12  12  12  12  12  12  12  12
#     4   9  21  38  56  78 107 140 188 238 279 327
#     4  10  17  30  49  76 113 151 178 213 269 336
#     4  10  20  37  58  77 100 134 178 226 277 333
#     4  10  19  32  50  79 108 145 187 229 270 329
#     4   9  19  31  49  74 106 142 183 223 260 323
#     4  10  17  29  49  73 107 142 180 217 267 313
#     4  11  18  28  48  83 122 153 178 212 266 338
#     4  10  18  30  53  77 102 139 180 222 270 326
#
# _framework density 17.634747999999998
#
# number of rings (size 3 to 8) (size 9 to 14) (size 15 to 20)
#    0.000    2.125    3.750    0.750    1.750    0.500 
#    0.000    7.500    2.750    1.500    0.000    0.000 
#    0.000    0.000    0.000    0.000    0.000    0.000 
#
# Total GULP energy -534830.600854 kJ/mol
# GULP energy per Si atom -5571.152092 kJ/mol
# Density = 1.759461 g / cm^3
# Si number density = 17.634748 Si / 1000 Ang^3
#
#
#
# Elastic Constant Matrix: (Units=GPa)
#
#
# Indices 1 2 3 4 5 6 
#
# 1 71.9961 49.2829 42.4085 0.0000 0.0000 0.0000
# 2 49.2829 71.9961 42.4085 0.0000 0.0000 0.0000
# 3 42.4085 42.4085 82.7473 0.0000 0.0000 0.0000
# 4 0.0000 0.0000 0.0000 25.9351 0.0000 0.0000
# 5 0.0000 0.0000 0.0000 0.0000 25.9351 0.0000
# 6 0.0000 0.0000 0.0000 0.0000 0.0000 11.3566
#
#
#
# Elastic Compliance Matrix: (Units=1/GPa)
#
#
# Indices 1 2 3 4 5 6 
#
# 1 0.028440 -0.015588 -0.006587 0.000000 0.000000 0.000000
# 2 -0.015588 0.028440 -0.006587 0.000000 0.000000 0.000000
# 3 -0.006587 -0.006587 0.018836 0.000000 0.000000 0.000000
# 4 0.000000 0.000000 0.000000 0.038558 0.000000 0.000000
# 5 0.000000 0.000000 0.000000 0.000000 0.038558 0.000000
# 6 0.000000 0.000000 0.000000 0.000000 0.000000 0.088054
#
#
# Mechanical properties :
#
#
# Convention : Reuss Voigt Hill
#
# Bulk Modulus (GPa) = 54.96475 54.99327 54.97901
# Shear Modulus (GPa) = 16.42188 18.82132 17.62160
#
# Velocity S-wave (km/s) = 3.05490 3.27048 3.16453
# Velocity P-wave (km/s) = 6.60904 6.74638 6.67806
#
# Compressibility (1/GPa) = 0.01819348
#
# Stress axis : x y z
#
# Youngs Moduli (GPa) = 35.16234 35.16234 53.08868
#
# Poissons Ratio (x) = 0.54810 0.34968
# Poissons Ratio (y) = 0.54810 0.34968
# Poissons Ratio (z) = 0.23160 0.23160
#
# Static dielectric constant tensor:
#      x y z
#    x 1.596580 0.000000 0.000000 
#    y 0.000000 1.596580 0.000000 
#    z 0.000000 0.000000 1.655840 
# 
# From -- ./inp_files/9294.got.cif
#   From: 2010.05.17/outbox.cif.g08.bks.cpg/sg180_5_cif.got.tgz:9294.got - 2010.05.20 11:43:55.
