data_PCOD9583442
_publ_section_title
;
Structure prediction by ZEFSAII (Michael W. Deem and Ramdas Pophale) SiO2 
 PCOD9583442
Probable space group: P 65 2 2
;
_chemical_formula_sum "Si O2"
_cell_formula_units_Z 36
_cell_length_a 13.251851
_cell_length_b 13.251851
_cell_length_c 12.567100
_cell_angle_alpha 90.000000
_cell_angle_beta 90.000000
_cell_angle_gamma 120.000000
_cell_volume 1911.255688
_symmetry_space_group_name_H-M "P 65 2 2"
_symmetry_group_IT_number 179
_symmetry_cell_setting 'hexagonal'
loop_
_space_group_symop_operation_xyz
x,y,z
x-y,x,5/6+z
-y,x-y,2/3+z
-x,-y,1/2+z
-x+y,-x,1/3+z
y,-x+y,1/6+z
x-y,-y,-z
-x,-x+y,1/3-z
y,x,2/3-z
-y,-x,1/6-z
-x+y,y,1/2-z
x,x-y,5/6-z
loop_
_atom_site_type_symbol
_atom_site_label
_atom_site_fract_x
_atom_site_fract_y
_atom_site_fract_z
Si Si1 0.374606 0.292219 0.742656
Si Si2 0.095099 0.904902 0.583334
Si Si3 0.957049 0.303456 0.355298
Si Si4 0.522020 0.000000 0.000000
O O1 0.281576 0.281576 0.833334
O O2 0.364464 0.170691 0.711854
O O3 0.358846 0.349483 0.635840
O O4 0.494451 0.393740 0.794492
O O5 0.000000 0.889057 0.666667
O O6 0.044935 0.781197 0.526260
O O7 0.957152 0.389279 0.265085
#
# Coordination Sequence:
#
# PCOD9583442 Si02
#       4
#    12   6  12   6
#     4  10  24  39  70  95 133 177 212 284 336 391
#     4  12  24  40  70 104 134 178 218 282 352 418
#     4  12  20  45  68  97 137 169 229 275 335 410
#     4  10  24  40  72  90 130 184 218 268 336 390
#
# _framework density 18.835785000000001
#
# number of rings (size 3 to 8) (size 9 to 14) (size 15 to 20)
#    1.000    0.000    5.000    2.000    0.000    1.333 
#    0.000    0.000   51.333    0.000    0.000    0.000 
#    0.000    0.000    0.000    0.000    0.000    0.000 
#
# Total GULP energy -200563.238502 kJ/mol
# GULP energy per Si atom -5571.201070 kJ/mol
# Density = 1.879291 g / cm^3
# Si number density = 18.835785 Si / 1000 Ang^3
#
#
#
# Elastic Constant Matrix: (Units=GPa)
#
#
# Indices 1 2 3 4 5 6 
#
# 1 -482.7113 647.9401 52.9869 0.0000 0.0000 0.0000
# 2 647.9401 -482.7113 52.9869 0.0000 0.0000 0.0000
# 3 52.9869 52.9869 152.9519 0.0000 0.0000 0.0000
# 4 0.0000 0.0000 0.0000 54.5974 0.0000 0.0000
# 5 0.0000 0.0000 0.0000 0.0000 54.5974 0.0000
# 6 0.0000 0.0000 0.0000 0.0000 0.0000 -565.3257
#
#
#
# Elastic Compliance Matrix: (Units=1/GPa)
#
#
# Indices 1 2 3 4 5 6 
#
# 1 0.003448 0.004333 -0.002696 0.000000 0.000000 0.000000
# 2 0.004333 0.003448 -0.002696 0.000000 0.000000 0.000000
# 3 -0.002696 -0.002696 0.008406 0.000000 0.000000 0.000000
# 4 0.000000 0.000000 0.000000 0.018316 0.000000 0.000000
# 5 0.000000 0.000000 0.000000 0.000000 0.018316 0.000000
# 6 0.000000 0.000000 0.000000 0.000000 0.000000 -0.001769
#
#
# Mechanical properties :
#
#
# Convention : Reuss Voigt Hill
#
# Bulk Modulus (GPa) = 75.84097 77.26193 76.55145
# Shear Modulus (GPa) = 88.21884 -195.65183 -53.71649
#
# Velocity S-wave (km/s) = 6.85109 -10.20284 -5.34605
# Velocity P-wave (km/s) = 10.14569 9.88380 1.61949
#
# Compressibility (1/GPa) = 0.01318549
#
# Stress axis : x y z
#
# Youngs Moduli (GPa) = 289.99550 289.99550 118.96738
#
# Poissons Ratio (x) = -1.25649 0.32069
# Poissons Ratio (y) = -1.25649 0.32069
# Poissons Ratio (z) = 0.78171 0.78171
#
# Static dielectric constant tensor:
#      x y z
#    x 1.651590 0.000000 0.000000 
#    y 0.000000 1.651590 0.000000 
#    z 0.000000 0.000000 1.655350 
# 
# From -- ./inp_files/3999.got.cif
#   From: 2010.05.17/outbox.cif.g08.bks.cpg/sg179_2_cif.got.tgz:3999.got - 2010.05.20 11:37:33.
