data_PCOD9583911
_publ_section_title
;
Structure prediction by ZEFSAII (Michael W. Deem and Ramdas Pophale) SiO2 
 PCOD9583911
Probable space group: P 62 2 2
;
_chemical_formula_sum "Si O2"
_cell_formula_units_Z 48
_cell_length_a 17.256965
_cell_length_b 17.256965
_cell_length_c 9.074460
_cell_angle_alpha 90.000000
_cell_angle_beta 90.000000
_cell_angle_gamma 120.000000
_cell_volume 2340.347024
_symmetry_space_group_name_H-M "P 62 2 2"
_symmetry_group_IT_number 180
_symmetry_cell_setting 'hexagonal'
loop_
_space_group_symop_operation_xyz
x,y,z
x-y,x,1/3+z
-y,x-y,2/3+z
-x,-y,z
-x+y,-x,1/3+z
y,-x+y,2/3+z
x-y,-y,-z
-x,-x+y,1/3-z
y,x,2/3-z
-y,-x,2/3-z
-x+y,y,-z
x,x-y,1/3-z
loop_
_atom_site_type_symbol
_atom_site_label
_atom_site_fract_x
_atom_site_fract_y
_atom_site_fract_z
Si Si1 0.336025 0.245106 0.251871
Si Si2 0.534512 0.928547 0.322915
Si Si3 0.779066 0.400251 0.826313
Si Si4 0.194729 0.431464 0.159254
O O1 0.265676 0.265676 0.333334
O O2 0.300636 0.150318 0.166667
O O3 0.397366 0.331189 0.143410
O O4 0.391883 0.230312 0.380519
O O5 0.439285 0.844434 0.283771
O O6 0.571817 0.897155 0.461566
O O7 0.500000 0.000000 0.334512
O O8 0.698491 0.301510 0.833334
O O9 0.824420 0.412210 0.666667
O O10 0.742948 0.467499 0.845413
O O11 0.195427 0.390854 0.000000
#
# Coordination Sequence:
#
# PCOD9583911 Si02
#       4
#    12  12  12  12
#     4  10  21  42  65  91 127 175 225 269 340 413
#     4  11  23  38  60  89 123 170 233 288 336 401
#     4  12  20  36  58  78 112 163 224 274 328 379
#     4  11  24  40  61  90 126 169 226 287 337 395
#
# _framework density 20.509779000000002
#
# number of rings (size 3 to 8) (size 9 to 14) (size 15 to 20)
#    0.000    1.000    5.000    3.000    0.000    0.000 
#    0.000   16.250    0.000    0.000    0.000    0.000 
#    0.000    5.000    0.000    0.000    4.500    0.000 
#
# Total GULP energy -267608.832260 kJ/mol
# GULP energy per Si atom -5575.184005 kJ/mol
# Density = 2.046310 g / cm^3
# Si number density = 20.509779 Si / 1000 Ang^3
#
#
#
# Elastic Constant Matrix: (Units=GPa)
#
#
# Indices 1 2 3 4 5 6 
#
# 1 121.6987 64.0170 35.2076 0.0000 0.0000 0.0000
# 2 64.0170 121.6987 35.2076 0.0000 0.0000 0.0000
# 3 35.2076 35.2076 116.0221 0.0000 0.0000 0.0000
# 4 0.0000 0.0000 0.0000 -1.4233 0.0000 0.0000
# 5 0.0000 0.0000 0.0000 0.0000 -1.4233 0.0000
# 6 0.0000 0.0000 0.0000 0.0000 0.0000 28.8409
#
#
#
# Elastic Compliance Matrix: (Units=1/GPa)
#
#
# Indices 1 2 3 4 5 6 
#
# 1 0.011711 -0.005626 -0.001846 0.000000 0.000000 0.000000
# 2 -0.005626 0.011711 -0.001846 0.000000 0.000000 0.000000
# 3 -0.001846 -0.001846 0.009740 0.000000 0.000000 0.000000
# 4 0.000000 0.000000 0.000000 -0.702578 -0.000001 0.000000
# 5 0.000000 0.000000 0.000000 -0.000001 -0.702577 0.000000
# 6 0.000000 0.000000 0.000000 0.000000 0.000000 0.034673
#
#
# Mechanical properties :
#
#
# Convention : Reuss Voigt Hill
#
# Bulk Modulus (GPa) = 68.85497 69.80931 69.33214
# Shear Modulus (GPa) = -3.80563 20.19800 8.19619
#
# Velocity S-wave (km/s) = -1.36365 3.14155 2.00123
# Velocity P-wave (km/s) = 5.58259 6.87533 6.26240
#
# Compressibility (1/GPa) = 0.01452328
#
# Stress axis : x y z
#
# Youngs Moduli (GPa) = 85.39284 85.39284 102.67300
#
# Poissons Ratio (x) = 0.48041 0.18958
# Poissons Ratio (y) = 0.48041 0.18958
# Poissons Ratio (z) = 0.15767 0.15767
#
# Static dielectric constant tensor:
#      x y z
#    x 1.901060 0.000000 0.000000 
#    y 0.000000 1.901060 0.000000 
#    z 0.000000 0.000000 1.963060 
# 
# From -- ./inp_files/2623.got.cif
#   From: 2010.05.17/outbox.cif.g08.bks.cpg/sg180_2_cif.got.tgz:2623.got - 2010.05.20 11:43:55.
