data_PCOD9583008
_publ_section_title
;
Structure prediction by ZEFSAII (Michael W. Deem and Ramdas Pophale) SiO2 
 PCOD9583008
Probable space group: P 61 2 2
;
_chemical_formula_sum "Si O2"
_cell_formula_units_Z 36
_cell_length_a 7.643943
_cell_length_b 7.643943
_cell_length_c 34.125716
_cell_angle_alpha 90.000000
_cell_angle_beta 90.000000
_cell_angle_gamma 120.000000
_cell_volume 1726.820850
_symmetry_space_group_name_H-M "P 61 2 2"
_symmetry_group_IT_number 178
_symmetry_cell_setting 'hexagonal'
loop_
_space_group_symop_operation_xyz
x,y,z
x-y,x,1/6+z
-y,x-y,1/3+z
-x,-y,1/2+z
-x+y,-x,2/3+z
y,-x+y,5/6+z
x-y,-y,-z
-x,-x+y,2/3-z
y,x,1/3-z
-y,-x,5/6-z
-x+y,y,1/2-z
x,x-y,1/6-z
loop_
_atom_site_type_symbol
_atom_site_label
_atom_site_fract_x
_atom_site_fract_y
_atom_site_fract_z
Si Si1 0.503023 0.737824 0.161412
Si Si2 0.130340 0.026300 0.374171
Si Si3 0.071184 0.569327 0.040097
O O1 0.575607 0.575607 0.166667
O O2 0.265792 0.623964 0.153576
O O3 0.651735 0.891677 0.128306
O O4 0.544584 0.889521 0.197444
O O5 0.281243 0.263547 0.370673
O O6 0.000000 0.964244 0.333334
O O7 0.020135 0.979866 0.416667
O O8 0.147744 0.573872 0.083334
#
# Coordination Sequence:
#
# PCOD9583008 Si02
#       3
#    12  12  12
#     4  11  24  45  67 102 136 178 232 283 349 415
#     4  11  24  46  71 103 142 184 233 290 348 415
#     4  12  24  43  69  99 138 183 231 289 352 417
#
# _framework density 20.847560999999999
#
# number of rings (size 3 to 8) (size 9 to 14) (size 15 to 20)
#    0.000    0.667    3.333    6.000    0.000    0.000 
#    0.000    1.667    0.000    0.000    0.000    0.000 
#    0.000    0.000    0.000    0.000    0.000    0.000 
#
# Total GULP energy -200838.280548 kJ/mol
# GULP energy per Si atom -5578.841126 kJ/mol
# Density = 2.080011 g / cm^3
# Si number density = 20.847561 Si / 1000 Ang^3
#
#
#
# Elastic Constant Matrix: (Units=GPa)
#
#
# Indices 1 2 3 4 5 6 
#
# 1 94.3998 29.4863 12.8830 0.0000 0.0000 0.0000
# 2 29.4863 94.3998 12.8830 0.0000 0.0000 0.0000
# 3 12.8830 12.8830 74.0160 0.0000 0.0000 0.0000
# 4 0.0000 0.0000 0.0000 28.2427 0.0000 0.0000
# 5 0.0000 0.0000 0.0000 0.0000 28.2427 0.0000
# 6 0.0000 0.0000 0.0000 0.0000 0.0000 32.4568
#
#
#
# Elastic Compliance Matrix: (Units=1/GPa)
#
#
# Indices 1 2 3 4 5 6 
#
# 1 0.011890 -0.003515 -0.001458 0.000000 0.000000 0.000000
# 2 -0.003515 0.011890 -0.001458 0.000000 0.000000 0.000000
# 3 -0.001458 -0.001458 0.014018 0.000000 0.000000 0.000000
# 4 0.000000 0.000000 0.000000 0.035407 0.000000 0.000000
# 5 0.000000 0.000000 0.000000 0.000000 0.035407 0.000000
# 6 0.000000 0.000000 0.000000 0.000000 0.000000 0.030810
#
#
# Mechanical properties :
#
#
# Convention : Reuss Voigt Hill
#
# Bulk Modulus (GPa) = 40.10061 41.48005 40.79033
# Shear Modulus (GPa) = 31.13389 31.62598 31.37993
#
# Velocity S-wave (km/s) = 3.86865 3.89911 3.88391
# Velocity P-wave (km/s) = 6.26356 6.34120 6.30250
#
# Compressibility (1/GPa) = 0.02493727
#
# Stress axis : x y z
#
# Youngs Moduli (GPa) = 84.10352 84.10352 71.33660
#
# Poissons Ratio (x) = 0.29562 0.10399
# Poissons Ratio (y) = 0.29562 0.10399
# Poissons Ratio (z) = 0.12260 0.12260
#
# Static dielectric constant tensor:
#      x y z
#    x 1.750610 0.000000 0.000000 
#    y 0.000000 1.750610 0.000000 
#    z 0.000000 0.000000 1.790220 
# 
# From -- ./inp_files/9130.got.cif
#   From: 2010.05.17/outbox.cif.g08.bks.cpg/sg178_5_cif.got.tgz:9130.got - 2010.05.20 11:30:59.
