data_PCOD9583704
_publ_section_title
;
Structure prediction by ZEFSAII (Michael W. Deem and Ramdas Pophale) SiO2 
 PCOD9583704
Probable space group: P 62 2 2
;
_chemical_formula_sum "Si O2"
_cell_formula_units_Z 60
_cell_length_a 18.603346
_cell_length_b 18.603346
_cell_length_c 10.792613
_cell_angle_alpha 90.000000
_cell_angle_beta 90.000000
_cell_angle_gamma 120.000000
_cell_volume 3234.739882
_symmetry_space_group_name_H-M "P 62 2 2"
_symmetry_group_IT_number 180
_symmetry_cell_setting 'hexagonal'
loop_
_space_group_symop_operation_xyz
x,y,z
x-y,x,1/3+z
-y,x-y,2/3+z
-x,-y,z
-x+y,-x,1/3+z
y,-x+y,2/3+z
x-y,-y,-z
-x,-x+y,1/3-z
y,x,2/3-z
-y,-x,2/3-z
-x+y,y,-z
x,x-y,1/3-z
loop_
_atom_site_type_symbol
_atom_site_label
_atom_site_fract_x
_atom_site_fract_y
_atom_site_fract_z
Si Si1 0.474967 0.705839 0.038396
Si Si2 0.439948 0.401390 0.097508
Si Si3 0.782861 0.618679 0.204427
Si Si4 0.600877 0.399124 0.833334
Si Si5 0.583658 0.687514 0.720237
Si Si6 0.000000 0.679517 0.666667
O O1 0.449660 0.724830 0.166667
O O2 0.507374 0.641534 0.063376
O O3 0.549062 0.787323 0.974577
O O4 0.404723 0.662160 0.938509
O O5 0.500000 0.500000 0.116254
O O6 0.386593 0.357577 0.220501
O O7 0.378257 0.388147 0.982777
O O8 0.870872 0.637550 0.143718
O O9 0.761643 0.683683 0.272305
O O10 0.723666 0.582314 0.083520
O O11 0.508240 0.361536 0.778278
#
# Coordination Sequence:
#
# PCOD9583704 Si02
#       6
#    12  12  12   6  12   6
#     4  11  21  36  56  82 109 139 191 248 303 352
#     4  11  20  33  55  85 104 145 189 242 300 365
#     4   9  19  34  53  73 109 137 178 239 289 349
#     4  10  20  35  58  72 110 138 178 240 300 364
#     4   9  19  34  54  78 107 140 183 232 304 352
#     4  10  19  34  54  74 106 142 194 237 290 352
#
# _framework density 18.548632000000001
#
# number of rings (size 3 to 8) (size 9 to 14) (size 15 to 20)
#    0.000    2.000    4.000    0.300    0.000    4.000 
#    0.000    1.000   35.200    0.000    0.000    0.000 
#    0.000    0.000    0.000    0.000    0.000  168.000 
#
# Total GULP energy -334523.122646 kJ/mol
# GULP energy per Si atom -5575.385377 kJ/mol
# Density = 1.850641 g / cm^3
# Si number density = 18.548632 Si / 1000 Ang^3
#
#
#
# Elastic Constant Matrix: (Units=GPa)
#
#
# Indices 1 2 3 4 5 6 
#
# 1 67.7791 34.8941 32.7103 0.0000 0.0000 0.0000
# 2 34.8941 67.7791 32.7103 0.0000 0.0000 0.0000
# 3 32.7103 32.7103 131.8219 0.0000 0.0000 0.0000
# 4 0.0000 0.0000 0.0000 25.0070 0.0000 0.0000
# 5 0.0000 0.0000 0.0000 0.0000 25.0070 0.0000
# 6 0.0000 0.0000 0.0000 0.0000 0.0000 16.4425
#
#
#
# Elastic Compliance Matrix: (Units=1/GPa)
#
#
# Indices 1 2 3 4 5 6 
#
# 1 0.020989 -0.009420 -0.002871 0.000000 0.000000 0.000000
# 2 -0.009420 0.020989 -0.002871 0.000000 0.000000 0.000000
# 3 -0.002871 -0.002871 0.009011 0.000000 0.000000 0.000000
# 4 0.000000 0.000000 0.000000 0.039989 0.000000 0.000000
# 5 0.000000 0.000000 0.000000 0.000000 0.039989 0.000000
# 6 0.000000 0.000000 0.000000 0.000000 0.000000 0.060818
#
#
# Mechanical properties :
#
#
# Convention : Reuss Voigt Hill
#
# Bulk Modulus (GPa) = 48.38990 52.00105 50.19547
# Shear Modulus (GPa) = 21.83447 24.42898 23.13173
#
# Velocity S-wave (km/s) = 3.43468 3.63302 3.53524
# Velocity P-wave (km/s) = 6.47102 6.75975 6.61696
#
# Compressibility (1/GPa) = 0.02066547
#
# Stress axis : x y z
#
# Youngs Moduli (GPa) = 47.64425 47.64425 110.97983
#
# Poissons Ratio (x) = 0.44882 0.31859
# Poissons Ratio (y) = 0.44882 0.31859
# Poissons Ratio (z) = 0.13677 0.13677
#
# Static dielectric constant tensor:
#      x y z
#    x 1.684640 0.000000 0.000000 
#    y 0.000000 1.684640 0.000000 
#    z 0.000000 0.000000 1.736680 
# 
# From -- ./inp_files/4861.got.cif
#   From: 2010.05.17/outbox.cif.g08.bks.cpg/sg180_3_cif.got.tgz:4861.got - 2010.05.20 11:43:55.
