data_PCOD9583026
_publ_section_title
;
Structure prediction by ZEFSAII (Michael W. Deem and Ramdas Pophale) SiO2 
 PCOD9583026
Probable space group: P 61 2 2
;
_chemical_formula_sum "Si O2"
_cell_formula_units_Z 30
_cell_length_a 7.413874
_cell_length_b 7.413874
_cell_length_c 23.789543
_cell_angle_alpha 90.000000
_cell_angle_beta 90.000000
_cell_angle_gamma 120.000000
_cell_volume 1132.418961
_symmetry_space_group_name_H-M "P 61 2 2"
_symmetry_group_IT_number 178
_symmetry_cell_setting 'hexagonal'
loop_
_space_group_symop_operation_xyz
x,y,z
x-y,x,1/6+z
-y,x-y,1/3+z
-x,-y,1/2+z
-x+y,-x,2/3+z
y,-x+y,5/6+z
x-y,-y,-z
-x,-x+y,2/3-z
y,x,1/3-z
-y,-x,5/6-z
-x+y,y,1/2-z
x,x-y,1/6-z
loop_
_atom_site_type_symbol
_atom_site_label
_atom_site_fract_x
_atom_site_fract_y
_atom_site_fract_z
Si Si1 0.719478 0.547513 0.313696
Si Si2 0.143138 0.445670 0.138855
Si Si3 0.000601 0.000000 0.000000
O O1 0.801188 0.602376 0.250000
O O2 0.770284 0.369455 0.332048
O O3 0.472338 0.445425 0.319204
O O4 0.823210 0.763186 0.347086
O O5 0.137053 0.568527 0.083334
O O6 0.084733 0.208758 0.128870
#
# Coordination Sequence:
#
# PCOD9583026 Si02
#       3
#    12  12   6
#     4  11  26  46  76 117 154 207 269 329 400 484
#     4  11  26  51  76 114 164 208 267 337 407 487
#     4  12  26  48  78 112 156 208 260 324 398 472
#
# _framework density 26.491959000000001
#
# number of rings (size 3 to 8) (size 9 to 14) (size 15 to 20)
#    0.000    0.800    4.000    1.200    5.600    0.000 
#    0.000    6.000    0.000    0.000    0.000    0.000 
#    0.000    0.000    0.000    0.000    0.000    0.000 
#
# Total GULP energy -167481.428044 kJ/mol
# GULP energy per Si atom -5582.714268 kJ/mol
# Density = 2.643166 g / cm^3
# Si number density = 26.491959 Si / 1000 Ang^3
#
#
#
# Elastic Constant Matrix: (Units=GPa)
#
#
# Indices 1 2 3 4 5 6 
#
# 1 215.3946 92.5814 36.8898 0.0000 0.0000 0.0000
# 2 92.5814 215.3946 36.8898 0.0000 0.0000 0.0000
# 3 36.8898 36.8898 96.0233 0.0000 0.0000 0.0000
# 4 0.0000 0.0000 0.0000 31.3427 0.0000 0.0000
# 5 0.0000 0.0000 0.0000 0.0000 31.3427 0.0000
# 6 0.0000 0.0000 0.0000 0.0000 0.0000 61.4066
#
#
#
# Elastic Compliance Matrix: (Units=1/GPa)
#
#
# Indices 1 2 3 4 5 6 
#
# 1 0.005859 -0.002283 -0.001374 0.000000 0.000000 0.000000
# 2 -0.002283 0.005859 -0.001374 0.000000 0.000000 0.000000
# 3 -0.001374 -0.001374 0.011470 0.000000 0.000000 0.000000
# 4 0.000000 0.000000 0.000000 0.031905 0.000000 0.000000
# 5 0.000000 0.000000 0.000000 0.000000 0.031905 0.000000
# 6 0.000000 0.000000 0.000000 0.000000 0.000000 0.016285
#
#
# Mechanical properties :
#
#
# Convention : Reuss Voigt Hill
#
# Bulk Modulus (GPa) = 76.18143 95.50385 85.84264
# Shear Modulus (GPa) = 42.47325 48.84850 45.66087
#
# Velocity S-wave (km/s) = 4.00840 4.29872 4.15610
# Velocity P-wave (km/s) = 7.08816 7.79532 7.45014
#
# Compressibility (1/GPa) = 0.01312656
#
# Stress axis : x y z
#
# Youngs Moduli (GPa) = 170.66909 170.66909 87.18587
#
# Poissons Ratio (x) = 0.38966 0.11978
# Poissons Ratio (y) = 0.38966 0.11978
# Poissons Ratio (z) = 0.23448 0.23448
#
# Static dielectric constant tensor:
#      x y z
#    x 2.077920 0.000000 0.000000 
#    y 0.000000 2.077920 0.000000 
#    z 0.000000 0.000000 2.104490 
# 
# From -- ./inp_files/8432.got.cif
#   From: 2010.05.17/outbox.cif.g08.bks.cpg/sg178_5_cif.got.tgz:8432.got - 2010.05.20 11:30:59.
