data_PCOD9583001
_publ_section_title
;
Structure prediction by ZEFSAII (Michael W. Deem and Ramdas Pophale) SiO2 
 PCOD9583001
Probable space group: P 61 2 2
;
_chemical_formula_sum "Si O2"
_cell_formula_units_Z 66
_cell_length_a 10.997155
_cell_length_b 10.997155
_cell_length_c 27.496998
_cell_angle_alpha 90.000000
_cell_angle_beta 90.000000
_cell_angle_gamma 120.000000
_cell_volume 2879.894685
_symmetry_space_group_name_H-M "P 61 2 2"
_symmetry_group_IT_number 178
_symmetry_cell_setting 'hexagonal'
loop_
_space_group_symop_operation_xyz
x,y,z
x-y,x,1/6+z
-y,x-y,1/3+z
-x,-y,1/2+z
-x+y,-x,2/3+z
y,-x+y,5/6+z
x-y,-y,-z
-x,-x+y,2/3-z
y,x,1/3-z
-y,-x,5/6-z
-x+y,y,1/2-z
x,x-y,1/6-z
loop_
_atom_site_type_symbol
_atom_site_label
_atom_site_fract_x
_atom_site_fract_y
_atom_site_fract_z
Si Si1 0.434938 0.671678 0.184764
Si Si2 0.754810 0.978110 0.290538
Si Si3 0.670972 0.329029 0.916667
Si Si4 0.546355 0.453646 0.416667
Si Si5 0.704317 0.704317 0.166667
Si Si6 0.909276 0.818551 0.250000
Si Si7 0.778129 0.221872 0.416667
Si Si8 0.104969 0.347985 0.433747
O O1 0.432353 0.668840 0.127559
O O2 0.445677 0.811080 0.205180
O O3 0.571349 0.666089 0.200740
O O4 0.291816 0.544294 0.204044
O O5 0.613406 0.970276 0.268321
O O6 0.826448 0.902058 0.261704
O O7 0.720548 0.915724 0.345319
O O8 0.865203 0.139857 0.278842
O O9 0.760753 0.492176 0.934993
O O10 0.835741 0.737876 0.200518
O O11 0.945059 0.309319 0.423799
#
# Coordination Sequence:
#
# PCOD9583001 Si02
#       8
#    12  12   6   6   6   6   6  12
#     4  11  24  46  74 106 150 195 256 315 388 462
#     4  12  26  48  76 111 155 208 263 325 398 475
#     4  12  24  46  77 117 146 206 262 320 391 472
#     4  11  23  50  71 107 152 200 248 318 388 455
#     4  12  24  44  70 108 148 196 254 328 386 464
#     4  12  26  44  71 107 149 195 256 318 385 460
#     4  11  27  48  75 107 157 201 252 318 392 471
#     4  12  27  48  78 112 158 205 263 322 396 477
#
# _framework density 22.917501999999999
#
# number of rings (size 3 to 8) (size 9 to 14) (size 15 to 20)
#    0.000    0.364    3.636    4.909    0.000    3.636 
#    0.000    0.000    0.000    0.000    0.000    0.000 
#    0.000    0.000    0.000    0.000    0.000    0.000 
#
# Total GULP energy -367833.052233 kJ/mol
# GULP energy per Si atom -5573.228064 kJ/mol
# Density = 2.286534 g / cm^3
# Si number density = 22.917502 Si / 1000 Ang^3
#
#
#
# Elastic Constant Matrix: (Units=GPa)
#
#
# Indices 1 2 3 4 5 6 
#
# 1 90.2609 63.5029 11.6020 0.0000 0.0000 0.0000
# 2 63.5029 90.2609 11.6020 0.0000 0.0000 0.0000
# 3 11.6020 11.6020 91.0780 0.0000 0.0000 0.0000
# 4 0.0000 0.0000 0.0000 34.6133 0.0000 0.0000
# 5 0.0000 0.0000 0.0000 0.0000 34.6133 0.0000
# 6 0.0000 0.0000 0.0000 0.0000 0.0000 13.3790
#
#
#
# Elastic Compliance Matrix: (Units=1/GPa)
#
#
# Indices 1 2 3 4 5 6 
#
# 1 0.022001 -0.015371 -0.000845 0.000000 0.000000 0.000000
# 2 -0.015371 0.022001 -0.000845 0.000000 0.000000 0.000000
# 3 -0.000845 -0.000845 0.011195 0.000000 0.000000 0.000000
# 4 0.000000 0.000000 0.000000 0.028891 0.000000 0.000000
# 5 0.000000 0.000000 0.000000 0.000000 0.028891 0.000000
# 6 0.000000 0.000000 0.000000 0.000000 0.000000 0.074744
#
#
# Mechanical properties :
#
#
# Convention : Reuss Voigt Hill
#
# Bulk Modulus (GPa) = 47.44291 49.44594 48.44443
# Shear Modulus (GPa) = 21.84657 28.84732 25.34695
#
# Velocity S-wave (km/s) = 3.09086 3.55173 3.32928
# Velocity P-wave (km/s) = 5.78657 6.20018 5.99694
#
# Compressibility (1/GPa) = 0.02107797
#
# Stress axis : x y z
#
# Youngs Moduli (GPa) = 45.45147 45.45147 89.32722
#
# Poissons Ratio (x) = 0.69861 0.07545
# Poissons Ratio (y) = 0.69861 0.07545
# Poissons Ratio (z) = 0.03839 0.03839
#
# Static dielectric constant tensor:
#      x y z
#    x 1.901590 0.000000 0.000000 
#    y 0.000000 1.901590 0.000000 
#    z 0.000000 0.000000 1.838060 
# 
# From -- ./inp_files/9590.got.cif
#   From: 2010.05.17/outbox.cif.g08.bks.cpg/sg178_5_cif.got.tgz:9590.got - 2010.05.20 11:30:59.
