data_PCOD9583962
_publ_section_title
;
Structure prediction by ZEFSAII (Michael W. Deem and Ramdas Pophale) SiO2 
 PCOD9583962
Probable space group: P 62 2 2
;
_chemical_formula_sum "Si O2"
_cell_formula_units_Z 84
_cell_length_a 17.495394
_cell_length_b 17.495394
_cell_length_c 15.102454
_cell_angle_alpha 90.000000
_cell_angle_beta 90.000000
_cell_angle_gamma 120.000000
_cell_volume 4003.368872
_symmetry_space_group_name_H-M "P 62 2 2"
_symmetry_group_IT_number 180
_symmetry_cell_setting 'hexagonal'
loop_
_space_group_symop_operation_xyz
x,y,z
x-y,x,1/3+z
-y,x-y,2/3+z
-x,-y,z
-x+y,-x,1/3+z
y,-x+y,2/3+z
x-y,-y,-z
-x,-x+y,1/3-z
y,x,2/3-z
-y,-x,2/3-z
-x+y,y,-z
x,x-y,1/3-z
loop_
_atom_site_type_symbol
_atom_site_label
_atom_site_fract_x
_atom_site_fract_y
_atom_site_fract_z
Si Si1 0.760238 0.203394 0.961169
Si Si2 0.858349 0.141652 0.833334
Si Si3 0.373959 0.859864 0.819289
Si Si4 0.505478 0.641929 0.769608
Si Si5 0.293534 0.060902 0.572393
Si Si6 0.500000 0.500000 0.631534
Si Si7 0.473048 0.287690 0.497425
Si Si8 0.716114 0.762623 0.562733
O O1 0.822914 0.169389 0.920168
O O2 0.667735 0.138837 0.913146
O O3 0.792691 0.297367 0.913682
O O4 0.754149 0.210104 0.065577
O O5 0.964899 0.203123 0.844632
O O6 0.416618 0.950403 0.765691
O O7 0.447236 0.833548 0.836149
O O8 0.430071 0.569930 0.833334
O O9 0.608875 0.695469 0.795455
O O10 0.501326 0.578999 0.688760
O O11 0.496922 0.730407 0.769691
O O12 0.277225 0.142727 0.573799
O O13 0.284179 0.019266 0.668707
O O14 0.226852 0.000000 0.500000
O O15 0.382912 0.286727 0.522744
#
# Coordination Sequence:
#
# PCOD9583962 Si02
#       8
#    12   6  12  12  12   6  12  12
#     4  10  25  44  64  97 127 187 227 281 336 393
#     4  10  24  44  69  94 136 170 236 283 340 422
#     4  10  24  42  66  90 136 184 223 286 330 414
#     4  11  24  36  65 103 130 179 221 284 346 404
#     4  10  22  42  68  97 143 168 217 279 350 418
#     4  12  23  40  61  98 136 170 228 276 346 400
#     4  11  24  44  66  99 137 179 237 282 340 411
#     4  10  24  42  67 104 126 180 221 279 348 409
#
# _framework density 20.982329
#
# number of rings (size 3 to 8) (size 9 to 14) (size 15 to 20)
#    0.000    1.714    0.000    3.214   14.000    2.286 
#    5.143    1.071    0.000    1.714    0.000    0.000 
#    0.000    0.000    0.000    0.000    0.000    0.000 
#
# Total GULP energy -467774.054636 kJ/mol
# GULP energy per Si atom -5568.738746 kJ/mol
# Density = 2.093457 g / cm^3
# Si number density = 20.982329 Si / 1000 Ang^3
#
#
#
# Elastic Constant Matrix: (Units=GPa)
#
#
# Indices 1 2 3 4 5 6 
#
# 1 71.6396 68.6486 40.1929 0.0000 0.0000 0.0000
# 2 68.6486 71.6396 40.1929 0.0000 0.0000 0.0000
# 3 40.1929 40.1929 113.6558 0.0000 0.0000 0.0000
# 4 0.0000 0.0000 0.0000 15.6513 0.0000 0.0000
# 5 0.0000 0.0000 0.0000 0.0000 15.6513 0.0000
# 6 0.0000 0.0000 0.0000 0.0000 0.0000 1.4955
#
#
#
# Elastic Compliance Matrix: (Units=1/GPa)
#
#
# Indices 1 2 3 4 5 6 
#
# 1 0.171636 -0.162696 -0.003161 0.000000 0.000000 0.000000
# 2 -0.162696 0.171636 -0.003161 0.000000 0.000000 0.000000
# 3 -0.003161 -0.003161 0.011034 0.000000 0.000000 0.000000
# 4 0.000000 0.000000 0.000000 0.063892 0.000000 0.000000
# 5 0.000000 0.000000 0.000000 0.000000 0.063892 0.000000
# 6 0.000000 0.000000 0.000000 0.000000 0.000000 0.668665
#
#
# Mechanical properties :
#
#
# Convention : Reuss Voigt Hill
#
# Bulk Modulus (GPa) = 61.46952 61.66710 61.56831
# Shear Modulus (GPa) = 3.34623 13.75301 8.54962
#
# Velocity S-wave (km/s) = 1.26422 2.56297 2.02077
# Velocity P-wave (km/s) = 5.61164 6.18160 5.90350
#
# Compressibility (1/GPa) = 0.01626822
#
# Stress axis : x y z
#
# Youngs Moduli (GPa) = 5.82628 5.82628 90.62504
#
# Poissons Ratio (x) = 0.94791 0.28650
# Poissons Ratio (y) = 0.94791 0.28650
# Poissons Ratio (z) = 0.01842 0.01842
#
# Static dielectric constant tensor:
#      x y z
#    x 1.782180 0.000000 0.000000 
#    y 0.000000 1.782180 0.000000 
#    z 0.000000 0.000000 1.786660 
# 
# From -- ./inp_files/6505.got.cif
#   From: 2010.05.17/outbox.cif.g08.bks.cpg/sg180_4_cif.got.tgz:6505.got - 2010.05.20 11:43:55.
