data_PCOD9583494
_publ_section_title
;
Structure prediction by ZEFSAII (Michael W. Deem and Ramdas Pophale) SiO2 
 PCOD9583494
Probable space group: P 65 2 2
;
_chemical_formula_sum "Si O2"
_cell_formula_units_Z 60
_cell_length_a 19.555150
_cell_length_b 19.555150
_cell_length_c 10.785148
_cell_angle_alpha 90.000000
_cell_angle_beta 90.000000
_cell_angle_gamma 120.000000
_cell_volume 3571.733474
_symmetry_space_group_name_H-M "P 65 2 2"
_symmetry_group_IT_number 179
_symmetry_cell_setting 'hexagonal'
loop_
_space_group_symop_operation_xyz
x,y,z
x-y,x,5/6+z
-y,x-y,2/3+z
-x,-y,1/2+z
-x+y,-x,1/3+z
y,-x+y,1/6+z
x-y,-y,-z
-x,-x+y,1/3-z
y,x,2/3-z
-y,-x,1/6-z
-x+y,y,1/2-z
x,x-y,5/6-z
loop_
_atom_site_type_symbol
_atom_site_label
_atom_site_fract_x
_atom_site_fract_y
_atom_site_fract_z
Si Si1 0.277232 0.903093 0.181225
Si Si2 0.040109 0.245059 0.445364
Si Si3 0.926189 0.852377 0.750000
Si Si4 0.569388 0.540906 0.473484
Si Si5 0.851971 0.254745 0.767287
Si Si6 0.131076 0.000000 0.000000
O O1 0.237781 0.817615 0.248833
O O2 0.240537 0.955711 0.228762
O O3 0.371453 0.960446 0.184226
O O4 0.257277 0.888589 0.035107
O O5 0.052628 0.202437 0.331152
O O6 0.106732 0.335493 0.462854
O O7 0.044119 0.201422 0.569203
O O8 0.906592 0.906592 0.833334
O O9 0.532900 0.532900 0.333334
O O10 0.517337 0.482664 0.583334
O O11 0.651859 0.539199 0.459343
O O12 0.116070 0.058035 0.916667
#
# Coordination Sequence:
#
# PCOD9583494 Si02
#       6
#    12  12   6  12  12   6
#     4   9  16  31  57  81  98 129 182 220 250 306
#     4  11  20  35  51  68  92 122 166 228 267 299
#     4  12  26  40  40  56  90 128 170 222 276 316
#     4   9  18  32  52  83 113 140 171 218 268 317
#     4   9  16  31  56  81  98 127 177 216 252 307
#     4  12  22  34  46  58  80 124 172 218 258 306
#
# _framework density 16.798566000000001
#
# number of rings (size 3 to 8) (size 9 to 14) (size 15 to 20)
#    0.000    2.000    2.000    4.800    0.000    0.000 
#   10.800    8.000    0.000    0.000   10.400    0.000 
#    0.000    0.000    0.000    0.000    0.000    0.000 
#
# Total GULP energy -334220.666367 kJ/mol
# GULP energy per Si atom -5570.344439 kJ/mol
# Density = 1.676033 g / cm^3
# Si number density = 16.798566 Si / 1000 Ang^3
#
#
#
# Elastic Constant Matrix: (Units=GPa)
#
#
# Indices 1 2 3 4 5 6 
#
# 1 66.2237 42.7288 46.6459 0.0000 0.0000 0.0000
# 2 42.7288 66.2237 46.6459 0.0000 0.0000 0.0000
# 3 46.6459 46.6459 92.5701 0.0000 0.0000 0.0000
# 4 0.0000 0.0000 0.0000 13.2586 0.0000 0.0000
# 5 0.0000 0.0000 0.0000 0.0000 13.2586 0.0000
# 6 0.0000 0.0000 0.0000 0.0000 0.0000 11.7474
#
#
#
# Elastic Compliance Matrix: (Units=1/GPa)
#
#
# Indices 1 2 3 4 5 6 
#
# 1 0.029353 -0.013209 -0.008135 0.000000 0.000000 0.000000
# 2 -0.013209 0.029353 -0.008135 0.000000 0.000000 0.000000
# 3 -0.008135 -0.008135 0.019001 0.000000 0.000000 0.000000
# 4 0.000000 0.000000 0.000000 0.075423 0.000000 0.000000
# 5 0.000000 0.000000 0.000000 0.000000 0.075423 0.000000
# 6 0.000000 0.000000 0.000000 0.000000 0.000000 0.085125
#
#
# Mechanical properties :
#
#
# Convention : Reuss Voigt Hill
#
# Bulk Modulus (GPa) = 53.33562 55.22876 54.28219
# Shear Modulus (GPa) = 13.19659 13.58605 13.39132
#
# Velocity S-wave (km/s) = 2.80586 2.84696 2.82648
# Velocity P-wave (km/s) = 6.50509 6.61478 6.56016
#
# Compressibility (1/GPa) = 0.01874920
#
# Stress axis : x y z
#
# Youngs Moduli (GPa) = 34.06785 34.06785 52.62897
#
# Poissons Ratio (x) = 0.45001 0.42813
# Poissons Ratio (y) = 0.45001 0.42813
# Poissons Ratio (z) = 0.27714 0.27714
#
# Static dielectric constant tensor:
#      x y z
#    x 1.609930 0.000000 0.000000 
#    y 0.000000 1.609930 0.000000 
#    z 0.000000 0.000000 1.557600 
# 
# From -- ./inp_files/3237.got.cif
#   From: 2010.05.17/outbox.cif.g08.bks.cpg/sg179_2_cif.got.tgz:3237.got - 2010.05.20 11:37:33.
