data_PCOD9583145
_publ_section_title
;
Structure prediction by ZEFSAII (Michael W. Deem and Ramdas Pophale) SiO2 
 PCOD9583145
Probable space group: P 65 2 2
;
_chemical_formula_sum "Si O2"
_cell_formula_units_Z 54
_cell_length_a 12.115142
_cell_length_b 12.115142
_cell_length_c 21.153980
_cell_angle_alpha 90.000000
_cell_angle_beta 90.000000
_cell_angle_gamma 120.000000
_cell_volume 2688.931500
_symmetry_space_group_name_H-M "P 65 2 2"
_symmetry_group_IT_number 179
_symmetry_cell_setting 'hexagonal'
loop_
_space_group_symop_operation_xyz
x,y,z
x-y,x,5/6+z
-y,x-y,2/3+z
-x,-y,1/2+z
-x+y,-x,1/3+z
y,-x+y,1/6+z
x-y,-y,-z
-x,-x+y,1/3-z
y,x,2/3-z
-y,-x,1/6-z
-x+y,y,1/2-z
x,x-y,5/6-z
loop_
_atom_site_type_symbol
_atom_site_label
_atom_site_fract_x
_atom_site_fract_y
_atom_site_fract_z
Si Si1 0.406843 0.671700 0.152048
Si Si2 0.903720 0.311075 0.050947
Si Si3 0.493221 0.000000 0.500000
Si Si4 0.440694 0.220603 0.848062
Si Si5 0.677399 0.581331 0.060077
O O1 0.390365 0.609636 0.083334
O O2 0.342463 0.548616 0.196389
O O3 0.342474 0.760179 0.145464
O O4 0.535485 0.773415 0.186551
O O5 0.827350 0.172651 0.083334
O O6 0.991903 0.413342 0.104230
O O7 0.984198 0.330075 0.987568
O O8 0.635537 0.117009 0.497615
O O9 0.377321 0.188661 0.916667
O O10 0.368509 0.119989 0.792929
O O11 0.540883 0.459118 0.083334
#
# Coordination Sequence:
#
# PCOD9583145 Si02
#       5
#    12  12   6  12  12
#     4  10  18  34  53  79 118 163 203 245 305 365
#     4  12  22  34  54  85 123 170 211 249 316 383
#     4  12  20  36  56  82 122 168 208 262 312 382
#     4  10  20  36  56  81 115 164 207 253 311 374
#     4  10  20  36  52  78 119 167 206 246 309 376
#
# _framework density 20.082328
#
# number of rings (size 3 to 8) (size 9 to 14) (size 15 to 20)
#    0.000    1.333    4.444    5.333    0.000    0.000 
#    0.000    0.000    0.000    0.000    0.000    0.000 
#    0.000    7.111    0.000    0.000    0.000    0.000 
#
# Total GULP energy -300648.025780 kJ/mol
# GULP energy per Si atom -5567.556033 kJ/mol
# Density = 2.003662 g / cm^3
# Si number density = 20.082328 Si / 1000 Ang^3
#
#
#
# Elastic Constant Matrix: (Units=GPa)
#
#
# Indices 1 2 3 4 5 6 
#
# 1 36.9568 9.0088 56.1060 0.0000 0.0000 0.0000
# 2 9.0088 36.9568 56.1060 0.0000 0.0000 0.0000
# 3 56.1060 56.1060 192.9119 0.0000 0.0000 0.0000
# 4 0.0000 0.0000 0.0000 28.8767 0.0000 0.0000
# 5 0.0000 0.0000 0.0000 0.0000 28.8767 0.0000
# 6 0.0000 0.0000 0.0000 0.0000 0.0000 13.9740
#
#
#
# Elastic Compliance Matrix: (Units=1/GPa)
#
#
# Indices 1 2 3 4 5 6 
#
# 1 0.055399 0.019619 -0.021818 0.000000 0.000000 0.000000
# 2 0.019619 0.055399 -0.021818 0.000000 0.000000 0.000000
# 3 -0.021818 -0.021818 0.017875 0.000000 0.000000 0.000000
# 4 0.000000 0.000000 0.000000 0.034630 0.000000 0.000000
# 5 0.000000 0.000000 0.000000 0.000000 0.034630 0.000000
# 6 0.000000 0.000000 0.000000 0.000000 0.000000 0.071562
#
#
# Mechanical properties :
#
#
# Convention : Reuss Voigt Hill
#
# Bulk Modulus (GPa) = 12.40101 56.58521 34.49311
# Shear Modulus (GPa) = 14.51759 24.05244 19.28501
#
# Velocity S-wave (km/s) = 2.69160 3.46452 3.10223
# Velocity P-wave (km/s) = 3.98097 6.65144 5.48132
#
# Compressibility (1/GPa) = 0.08063862
#
# Stress axis : x y z
#
# Youngs Moduli (GPa) = 18.05073 18.05073 55.94492
#
# Poissons Ratio (x) = -0.35413 1.22061
# Poissons Ratio (y) = -0.35413 1.22061
# Poissons Ratio (z) = 0.39383 0.39383
#
# Static dielectric constant tensor:
#      x y z
#    x 1.894350 0.000000 0.000000 
#    y 0.000000 1.894350 0.000000 
#    z 0.000000 0.000000 1.847130 
# 
# From -- ./inp_files/7438.got.cif
#   From: 2010.05.17/outbox.cif.g08.bks.cpg/sg179_4_cif.got.tgz:7438.got - 2010.05.20 11:37:33.
