data_PCOD9583226
_publ_section_title
;
Structure prediction by ZEFSAII (Michael W. Deem and Ramdas Pophale) SiO2 
 PCOD9583226
Probable space group: P 65 2 2
;
_chemical_formula_sum "Si O2"
_cell_formula_units_Z 84
_cell_length_a 18.297594
_cell_length_b 18.297594
_cell_length_c 14.972321
_cell_angle_alpha 90.000000
_cell_angle_beta 90.000000
_cell_angle_gamma 120.000000
_cell_volume 4341.179417
_symmetry_space_group_name_H-M "P 65 2 2"
_symmetry_group_IT_number 179
_symmetry_cell_setting 'hexagonal'
loop_
_space_group_symop_operation_xyz
x,y,z
x-y,x,5/6+z
-y,x-y,2/3+z
-x,-y,1/2+z
-x+y,-x,1/3+z
y,-x+y,1/6+z
x-y,-y,-z
-x,-x+y,1/3-z
y,x,2/3-z
-y,-x,1/6-z
-x+y,y,1/2-z
x,x-y,5/6-z
loop_
_atom_site_type_symbol
_atom_site_label
_atom_site_fract_x
_atom_site_fract_y
_atom_site_fract_z
Si Si1 0.460696 0.117173 0.062970
Si Si2 0.532659 0.928298 0.367990
Si Si3 0.618968 0.250748 0.349176
Si Si4 0.564424 0.779680 0.010189
Si Si5 0.050087 0.323180 0.928073
Si Si6 0.206066 0.886247 0.839008
Si Si7 0.378884 0.939549 0.414065
O O1 0.538185 0.186408 0.120042
O O2 0.375455 0.119117 0.076153
O O3 0.436064 0.026549 0.104099
O O4 0.482849 0.123593 0.959483
O O5 0.590159 0.910621 0.299083
O O6 0.442718 0.923278 0.353459
O O7 0.641885 0.283769 0.250000
O O8 0.654468 0.327234 0.416667
O O9 0.517346 0.207561 0.346945
O O10 0.615699 0.771145 0.090120
O O11 0.542763 0.850266 0.044878
O O12 0.614106 0.807053 0.916667
O O13 0.110635 0.290432 0.967887
O O14 0.981146 0.249023 0.864874
O O15 0.023177 0.357051 0.016395
O O16 0.423883 0.000000 0.500000
#
# Coordination Sequence:
#
# PCOD9583226 Si02
#       7
#    12  12  12  12  12  12  12
#     4  10  20  36  54  77 110 147 202 244 298 351
#     4  10  20  35  56  81 105 152 199 244 298 343
#     4  11  22  36  51  76 110 162 205 252 301 348
#     4  10  20  33  53  78 112 151 203 253 295 354
#     4  10  23  37  59  84 117 156 198 255 305 375
#     4  10  21  39  56  85 112 156 193 251 311 368
#     4  11  20  34  55  83 114 156 206 255 297 358
#
# _framework density 19.349581000000001
#
# number of rings (size 3 to 8) (size 9 to 14) (size 15 to 20)
#    0.000    1.714    2.857    3.000    2.000    0.571 
#    5.143    0.000    0.000    0.000    0.000    0.000 
#    0.000    0.000  262.286    0.000    0.000    0.000 
#
# Total GULP energy -467774.323614 kJ/mol
# GULP energy per Si atom -5568.741948 kJ/mol
# Density = 1.930554 g / cm^3
# Si number density = 19.349581 Si / 1000 Ang^3
#
#
#
# Elastic Constant Matrix: (Units=GPa)
#
#
# Indices 1 2 3 4 5 6 
#
# 1 46.7102 23.6571 18.1541 0.0000 0.0000 0.0000
# 2 23.6571 46.7102 18.1541 0.0000 0.0000 0.0000
# 3 18.1541 18.1541 86.5727 0.0000 0.0000 0.0000
# 4 0.0000 0.0000 0.0000 25.1370 0.0000 0.0000
# 5 0.0000 0.0000 0.0000 0.0000 25.1370 0.0000
# 6 0.0000 0.0000 0.0000 0.0000 0.0000 11.5266
#
#
#
# Elastic Compliance Matrix: (Units=1/GPa)
#
#
# Indices 1 2 3 4 5 6 
#
# 1 0.029657 -0.013721 -0.003342 0.000000 0.000000 0.000000
# 2 -0.013721 0.029657 -0.003342 0.000000 0.000000 0.000000
# 3 -0.003342 -0.003342 0.012952 0.000000 0.000000 0.000000
# 4 0.000000 0.000000 0.000000 0.039782 0.000000 0.000000
# 5 0.000000 0.000000 0.000000 0.000000 0.039782 0.000000
# 6 0.000000 0.000000 0.000000 0.000000 0.000000 0.086756
#
#
# Mechanical properties :
#
#
# Convention : Reuss Voigt Hill
#
# Bulk Modulus (GPa) = 31.78972 33.32486 32.55729
# Shear Modulus (GPa) = 17.24848 20.36198 18.80523
#
# Velocity S-wave (km/s) = 2.98889 3.24747 3.12086
# Velocity P-wave (km/s) = 5.32693 5.59655 5.46340
#
# Compressibility (1/GPa) = 0.03145671
#
# Stress axis : x y z
#
# Youngs Moduli (GPa) = 33.71919 33.71919 77.20551
#
# Poissons Ratio (x) = 0.46267 0.25799
# Poissons Ratio (y) = 0.46267 0.25799
# Poissons Ratio (z) = 0.11268 0.11268
#
# Static dielectric constant tensor:
#      x y z
#    x 1.774750 0.000000 0.000000 
#    y 0.000000 1.774750 0.000000 
#    z 0.000000 0.000000 1.767810 
# 
# From -- ./inp_files/6136.got.cif
#   From: 2010.05.17/outbox.cif.g08.bks.cpg/sg179_4_cif.got.tgz:6136.got - 2010.05.20 11:37:33.
