data_PCOD9583128
_publ_section_title
;
Structure prediction by ZEFSAII (Michael W. Deem and Ramdas Pophale) SiO2 
 PCOD9583128
Probable space group: P 65 2 2
;
_chemical_formula_sum "Si O2"
_cell_formula_units_Z 66
_cell_length_a 29.657487
_cell_length_b 29.657487
_cell_length_c 5.589909
_cell_angle_alpha 90.000000
_cell_angle_beta 90.000000
_cell_angle_gamma 120.000000
_cell_volume 4257.984410
_symmetry_space_group_name_H-M "P 65 2 2"
_symmetry_group_IT_number 179
_symmetry_cell_setting 'hexagonal'
loop_
_space_group_symop_operation_xyz
x,y,z
x-y,x,5/6+z
-y,x-y,2/3+z
-x,-y,1/2+z
-x+y,-x,1/3+z
y,-x+y,1/6+z
x-y,-y,-z
-x,-x+y,1/3-z
y,x,2/3-z
-y,-x,1/6-z
-x+y,y,1/2-z
x,x-y,5/6-z
loop_
_atom_site_type_symbol
_atom_site_label
_atom_site_fract_x
_atom_site_fract_y
_atom_site_fract_z
Si Si1 0.667548 0.948733 0.109194
Si Si2 0.762469 0.571510 0.497879
Si Si3 0.629010 0.629010 0.333334
Si Si4 0.062399 0.556887 0.667372
Si Si5 0.856269 0.689888 0.496422
Si Si6 0.340459 0.434293 0.125673
O O1 0.677684 0.903011 0.178731
O O2 0.646571 0.969634 0.320269
O O3 0.621130 0.925640 0.918051
O O4 0.716479 0.000000 0.000000
O O5 0.776915 0.553830 0.250000
O O6 0.800879 0.634843 0.496146
O O7 0.701729 0.554459 0.504503
O O8 0.777528 0.555055 0.750000
O O9 0.623079 0.577233 0.451139
O O10 0.074241 0.537121 0.416667
O O11 0.094412 0.619581 0.648694
O O12 0.000000 0.534840 0.666667
O O13 0.073773 0.536887 0.916667
O O14 0.857773 0.715546 0.750000
O O15 0.859106 0.718211 0.250000
#
# Coordination Sequence:
#
# PCOD9583128 Si02
#       6
#    12  12   6  12  12  12
#     4  10  20  30  45  70  93 125 164 211 248 296
#     4  10  19  31  49  69  94 120 155 198 249 294
#     4  10  20  28  48  68  92 118 166 210 246 288
#     4  10  23  37  50  67  94 128 170 211 244 291
#     4  10  18  31  45  63  91 122 155 197 252 295
#     4  11  21  33  50  70  93 128 168 207 249 296
#
# _framework density 15.500292999999999
#
# number of rings (size 3 to 8) (size 9 to 14) (size 15 to 20)
#    0.000    1.818    3.636    3.818    8.909    0.000 
#    0.000    0.000    0.000    0.000    0.000    0.000 
#    0.000    0.000    0.000    3.273    0.000    2.364 
#
# Total GULP energy -367686.374725 kJ/mol
# GULP energy per Si atom -5571.005678 kJ/mol
# Density = 1.546501 g / cm^3
# Si number density = 15.500293 Si / 1000 Ang^3
#
#
#
# Elastic Constant Matrix: (Units=GPa)
#
#
# Indices 1 2 3 4 5 6 
#
# 1 52.9222 36.3825 30.5131 0.0000 0.0000 0.0000
# 2 36.3825 52.9222 30.5131 0.0000 0.0000 0.0000
# 3 30.5131 30.5131 121.1096 0.0000 0.0000 0.0000
# 4 0.0000 0.0000 0.0000 19.7813 0.0000 0.0000
# 5 0.0000 0.0000 0.0000 0.0000 19.7813 0.0000
# 6 0.0000 0.0000 0.0000 0.0000 0.0000 8.2698
#
#
#
# Elastic Compliance Matrix: (Units=1/GPa)
#
#
# Indices 1 2 3 4 5 6 
#
# 1 0.036994 -0.023467 -0.003408 0.000000 0.000000 0.000000
# 2 -0.023467 0.036994 -0.003408 0.000000 0.000000 0.000000
# 3 -0.003408 -0.003408 0.009974 0.000000 0.000000 0.000000
# 4 0.000000 0.000000 0.000000 0.050553 0.000000 0.000000
# 5 0.000000 0.000000 0.000000 0.000000 0.050553 0.000000
# 6 0.000000 0.000000 0.000000 0.000000 0.000000 0.120922
#
#
# Mechanical properties :
#
#
# Convention : Reuss Voigt Hill
#
# Bulk Modulus (GPa) = 42.74356 46.86348 44.80352
# Shear Modulus (GPa) = 13.35638 18.20284 15.77961
#
# Velocity S-wave (km/s) = 2.93863 3.43060 3.19410
# Velocity P-wave (km/s) = 6.25699 6.78171 6.52463
#
# Compressibility (1/GPa) = 0.02339534
#
# Stress axis : x y z
#
# Youngs Moduli (GPa) = 27.03170 27.03170 100.25848
#
# Poissons Ratio (x) = 0.63436 0.34167
# Poissons Ratio (y) = 0.63436 0.34167
# Poissons Ratio (z) = 0.09212 0.09212
#
# Static dielectric constant tensor:
#      x y z
#    x 1.515250 0.000000 0.000000 
#    y 0.000000 1.515250 0.000000 
#    z 0.000000 0.000000 1.652350 
# 
# From -- ./inp_files/1550.got.cif
#   From: 2010.05.17/outbox.cif.g08.bks.cpg/sg179_1_cif.got.tgz:1550.got - 2010.05.20 11:37:33.
