data_PCOD9583352
_publ_section_title
;
Structure prediction by ZEFSAII (Michael W. Deem and Ramdas Pophale) SiO2 
 PCOD9583352
Probable space group: P 65 2 2
;
_chemical_formula_sum "Si O2"
_cell_formula_units_Z 54
_cell_length_a 25.738887
_cell_length_b 25.738887
_cell_length_c 5.077474
_cell_angle_alpha 90.000000
_cell_angle_beta 90.000000
_cell_angle_gamma 120.000000
_cell_volume 2913.116589
_symmetry_space_group_name_H-M "P 65 2 2"
_symmetry_group_IT_number 179
_symmetry_cell_setting 'hexagonal'
loop_
_space_group_symop_operation_xyz
x,y,z
x-y,x,5/6+z
-y,x-y,2/3+z
-x,-y,1/2+z
-x+y,-x,1/3+z
y,-x+y,1/6+z
x-y,-y,-z
-x,-x+y,1/3-z
y,x,2/3-z
-y,-x,1/6-z
-x+y,y,1/2-z
x,x-y,5/6-z
loop_
_atom_site_type_symbol
_atom_site_label
_atom_site_fract_x
_atom_site_fract_y
_atom_site_fract_z
Si Si1 0.100220 0.270455 0.502199
Si Si2 0.699038 0.522690 0.242967
Si Si3 0.785245 0.338097 0.070631
Si Si4 0.711727 0.647195 0.215072
Si Si5 0.244471 0.244471 0.333334
O O1 0.141205 0.282410 0.250000
O O2 0.097268 0.328839 0.589455
O O3 0.033388 0.227750 0.388228
O O4 0.125362 0.250723 0.750000
O O5 0.767795 0.535590 0.250000
O O6 0.678004 0.502430 0.540834
O O7 0.692615 0.579278 0.161210
O O8 0.660936 0.469130 0.034004
O O9 0.717239 0.282762 0.083334
O O10 0.785067 0.392534 0.916667
O O11 0.661940 0.661940 0.333334
O O12 0.739947 0.693515 0.973967
#
# Coordination Sequence:
#
# PCOD9583352 Si02
#       5
#    12  12  12  12   6
#     4  11  21  34  54  78 114 158 202 253 292 344
#     4  10  22  36  59  87 116 146 191 240 290 347
#     4  10  22  39  60  89 114 143 178 234 307 373
#     4  10  22  36  56  84 117 157 202 244 290 344
#     4  10  22  36  52  86 114 160 210 242 302 352
#
# _framework density 18.536847999999999
#
# number of rings (size 3 to 8) (size 9 to 14) (size 15 to 20)
#    0.000    1.778    2.222    1.333    6.222    3.556 
#    0.000    0.000    0.000    2.667    0.000    0.000 
#    0.000    0.000    0.000    0.000   12.667   26.889 
#
# Total GULP energy -300710.867691 kJ/mol
# GULP energy per Si atom -5568.719772 kJ/mol
# Density = 1.849466 g / cm^3
# Si number density = 18.536848 Si / 1000 Ang^3
#
#
#
# Elastic Constant Matrix: (Units=GPa)
#
#
# Indices 1 2 3 4 5 6 
#
# 1 70.2489 47.8395 35.2711 0.0000 0.0000 0.0000
# 2 47.8395 70.2489 35.2711 0.0000 0.0000 0.0000
# 3 35.2711 35.2711 110.6539 0.0000 0.0000 0.0000
# 4 0.0000 0.0000 0.0000 22.6054 0.0000 0.0000
# 5 0.0000 0.0000 0.0000 0.0000 22.6054 0.0000
# 6 0.0000 0.0000 0.0000 0.0000 0.0000 11.2047
#
#
#
# Elastic Compliance Matrix: (Units=1/GPa)
#
#
# Indices 1 2 3 4 5 6 
#
# 1 0.027542 -0.017082 -0.003334 0.000000 0.000000 0.000000
# 2 -0.017082 0.027542 -0.003334 0.000000 0.000000 0.000000
# 3 -0.003334 -0.003334 0.011163 0.000000 0.000000 0.000000
# 4 0.000000 0.000000 0.000000 0.044237 0.000000 0.000000
# 5 0.000000 0.000000 0.000000 0.000000 0.044237 0.000000
# 6 0.000000 0.000000 0.000000 0.000000 0.000000 0.089248
#
#
# Mechanical properties :
#
#
# Convention : Reuss Voigt Hill
#
# Bulk Modulus (GPa) = 53.34452 54.21282 53.77867
# Shear Modulus (GPa) = 16.79435 20.13442 18.46438
#
# Velocity S-wave (km/s) = 3.01325 3.29931 3.15951
# Velocity P-wave (km/s) = 6.39892 6.61992 6.51036
#
# Compressibility (1/GPa) = 0.01874607
#
# Stress axis : x y z
#
# Youngs Moduli (GPa) = 36.30809 36.30809 89.58406
#
# Poissons Ratio (x) = 0.62022 0.29868
# Poissons Ratio (y) = 0.62022 0.29868
# Poissons Ratio (z) = 0.12106 0.12106
#
# Static dielectric constant tensor:
#      x y z
#    x 1.681620 0.000000 0.000000 
#    y 0.000000 1.681620 0.000000 
#    z 0.000000 0.000000 1.709790 
# 
# From -- ./inp_files/1184.got.cif
#   From: 2010.05.17/outbox.cif.g08.bks.cpg/sg179_1_cif.got.tgz:1184.got - 2010.05.20 11:37:33.
