data_PCOD9583818
_publ_section_title
;
Structure prediction by ZEFSAII (Michael W. Deem and Ramdas Pophale) SiO2 
 PCOD9583818
Probable space group: P 62 2 2
;
_chemical_formula_sum "Si O2"
_cell_formula_units_Z 72
_cell_length_a 15.076152
_cell_length_b 15.076152
_cell_length_c 17.811007
_cell_angle_alpha 90.000000
_cell_angle_beta 90.000000
_cell_angle_gamma 120.000000
_cell_volume 3505.904815
_symmetry_space_group_name_H-M "P 62 2 2"
_symmetry_group_IT_number 180
_symmetry_cell_setting 'hexagonal'
loop_
_space_group_symop_operation_xyz
x,y,z
x-y,x,1/3+z
-y,x-y,2/3+z
-x,-y,z
-x+y,-x,1/3+z
y,-x+y,2/3+z
x-y,-y,-z
-x,-x+y,1/3-z
y,x,2/3-z
-y,-x,2/3-z
-x+y,y,-z
x,x-y,1/3-z
loop_
_atom_site_type_symbol
_atom_site_label
_atom_site_fract_x
_atom_site_fract_y
_atom_site_fract_z
Si Si1 0.480894 0.884638 0.575726
Si Si2 0.449503 0.633941 0.067123
Si Si3 0.459332 0.259507 0.521175
Si Si4 0.031231 0.712089 0.881391
Si Si5 0.182957 0.267267 0.385234
Si Si6 0.164348 0.486357 0.680668
O O1 0.417122 0.834244 0.500000
O O2 0.426454 0.848628 0.654929
O O3 0.563186 0.847770 0.559985
O O4 0.500000 0.000000 0.573789
O O5 0.351455 0.566650 0.116421
O O6 0.557047 0.656106 0.104713
O O7 0.462295 0.741490 0.044211
O O8 0.372797 0.285436 0.549367
O O9 0.472781 0.275298 0.431122
O O10 0.048869 0.769343 0.801449
O O11 0.079059 0.806336 0.940302
O O12 0.177716 0.177716 0.333334
O O13 0.267134 0.370832 0.346047
O O14 0.113895 0.556948 0.666667
#
# Coordination Sequence:
#
# PCOD9583818 Si02
#       6
#    12  12  12  12  12  12
#     4  11  23  39  58  84 123 169 213 270 332 396
#     4  11  23  38  57  86 127 168 220 275 322 396
#     4  12  22  38  60  86 122 176 231 268 337 409
#     4  10  22  38  61  92 125 177 228 273 339 406
#     4  10  20  39  59  88 131 170 221 290 346 386
#     4  11  22  34  55  85 125 175 226 276 335 402
#
# _framework density 20.53678
#
# number of rings (size 3 to 8) (size 9 to 14) (size 15 to 20)
#    0.000    1.167    3.333    4.000    0.000    1.667 
#    0.000    0.000    0.000    0.000    0.000    0.000 
#    0.000   93.333    0.000   25.833    0.000    1.500 
#
# Total GULP energy -400997.212573 kJ/mol
# GULP energy per Si atom -5569.405730 kJ/mol
# Density = 2.049004 g / cm^3
# Si number density = 20.536780 Si / 1000 Ang^3
#
#
#
# Elastic Constant Matrix: (Units=GPa)
#
#
# Indices 1 2 3 4 5 6 
#
# 1 87.6388 68.2710 26.7399 0.0000 0.0000 0.0000
# 2 68.2710 87.6388 26.7399 0.0000 0.0000 0.0000
# 3 26.7399 26.7399 76.4853 0.0000 0.0000 0.0000
# 4 0.0000 0.0000 0.0000 16.7821 0.0000 0.0000
# 5 0.0000 0.0000 0.0000 0.0000 16.7821 0.0000
# 6 0.0000 0.0000 0.0000 0.0000 0.0000 9.6839
#
#
#
# Elastic Compliance Matrix: (Units=1/GPa)
#
#
# Indices 1 2 3 4 5 6 
#
# 1 0.029460 -0.022172 -0.002548 0.000000 0.000000 0.000000
# 2 -0.022172 0.029460 -0.002548 0.000000 0.000000 0.000000
# 3 -0.002548 -0.002548 0.014856 0.000000 0.000000 0.000000
# 4 0.000000 0.000000 0.000000 0.059587 0.000000 0.000000
# 5 0.000000 0.000000 0.000000 0.000000 0.059587 0.000000
# 6 0.000000 0.000000 0.000000 0.000000 0.000000 0.103265
#
#
# Mechanical properties :
#
#
# Convention : Reuss Voigt Hill
#
# Bulk Modulus (GPa) = 51.97464 55.02938 53.50201
# Shear Modulus (GPa) = 13.99915 17.31709 15.65812
#
# Velocity S-wave (km/s) = 2.61370 2.90698 2.76423
# Velocity P-wave (km/s) = 5.87125 6.17423 6.02464
#
# Compressibility (1/GPa) = 0.01924015
#
# Stress axis : x y z
#
# Youngs Moduli (GPa) = 33.94421 33.94421 67.31308
#
# Poissons Ratio (x) = 0.75262 0.17151
# Poissons Ratio (y) = 0.75262 0.17151
# Poissons Ratio (z) = 0.08649 0.08649
#
# Static dielectric constant tensor:
#      x y z
#    x 1.812930 0.000000 0.000000 
#    y 0.000000 1.812930 0.000000 
#    z 0.000000 0.000000 1.873640 
# 
# From -- ./inp_files/7772.got.cif
#   From: 2010.05.17/outbox.cif.g08.bks.cpg/sg180_4_cif.got.tgz:7772.got - 2010.05.20 11:43:55.
