data_PCOD9583275
_publ_section_title
;
Structure prediction by ZEFSAII (Michael W. Deem and Ramdas Pophale) SiO2 
 PCOD9583275
Probable space group: P 65 2 2
;
_chemical_formula_sum "Si O2"
_cell_formula_units_Z 66
_cell_length_a 20.456370
_cell_length_b 20.456370
_cell_length_c 9.130650
_cell_angle_alpha 90.000000
_cell_angle_beta 90.000000
_cell_angle_gamma 120.000000
_cell_volume 3308.944385
_symmetry_space_group_name_H-M "P 65 2 2"
_symmetry_group_IT_number 179
_symmetry_cell_setting 'hexagonal'
loop_
_space_group_symop_operation_xyz
x,y,z
x-y,x,5/6+z
-y,x-y,2/3+z
-x,-y,1/2+z
-x+y,-x,1/3+z
y,-x+y,1/6+z
x-y,-y,-z
-x,-x+y,1/3-z
y,x,2/3-z
-y,-x,1/6-z
-x+y,y,1/2-z
x,x-y,5/6-z
loop_
_atom_site_type_symbol
_atom_site_label
_atom_site_fract_x
_atom_site_fract_y
_atom_site_fract_z
Si Si1 0.724604 0.192932 0.840704
Si Si2 0.445663 0.924137 0.417044
Si Si3 0.945513 0.285001 0.892113
Si Si4 0.174261 0.825740 0.583334
Si Si5 0.504070 0.143237 0.166625
Si Si6 0.105633 0.349059 0.774926
O O1 0.638481 0.148147 0.895756
O O2 0.775556 0.283717 0.827459
O O3 0.732026 0.160085 0.686197
O O4 0.769657 0.171572 0.957778
O O5 0.473318 0.946636 0.250000
O O6 0.492950 0.895463 0.513820
O O7 0.459299 0.000000 0.500000
O O8 0.913301 0.341376 0.924901
O O9 0.917915 0.269223 0.723710
O O10 0.033357 0.314879 0.879660
O O11 0.905032 0.213794 0.999597
O O12 0.576771 0.153541 0.250000
O O13 0.153570 0.307140 0.750000
#
# Coordination Sequence:
#
# PCOD9583275 Si02
#       6
#    12  12  12   6  12  12
#     4  11  25  43  63  88 120 166 214 275 343 403
#     4  12  28  41  65  93 120 162 224 281 336 414
#     4  10  23  38  65  94 128 168 214 271 327 396
#     4  10  20  38  62  92 124 156 208 266 322 382
#     4  11  24  45  65  88 131 168 220 281 344 400
#     4  11  21  40  65  90 129 175 213 263 338 400
#
# _framework density 19.945938999999999
#
# number of rings (size 3 to 8) (size 9 to 14) (size 15 to 20)
#    0.000    1.091    3.636    3.818   10.182    0.000 
#    3.273    0.000    0.000    0.000    0.000    0.000 
#    0.000    0.000   49.455    0.000    0.000    0.000 
#
# Total GULP energy -368008.318353 kJ/mol
# GULP energy per Si atom -5575.883611 kJ/mol
# Density = 1.990054 g / cm^3
# Si number density = 19.945939 Si / 1000 Ang^3
#
#
#
# Elastic Constant Matrix: (Units=GPa)
#
#
# Indices 1 2 3 4 5 6 
#
# 1 117.4993 70.8686 33.3878 0.0000 0.0000 0.0000
# 2 70.8686 117.4993 33.3878 0.0000 0.0000 0.0000
# 3 33.3878 33.3878 97.1265 0.0000 0.0000 0.0000
# 4 0.0000 0.0000 0.0000 36.7745 0.0000 0.0000
# 5 0.0000 0.0000 0.0000 0.0000 36.7745 0.0000
# 6 0.0000 0.0000 0.0000 0.0000 0.0000 23.3153
#
#
#
# Elastic Compliance Matrix: (Units=1/GPa)
#
#
# Indices 1 2 3 4 5 6 
#
# 1 0.013745 -0.007700 -0.002078 0.000000 0.000000 0.000000
# 2 -0.007700 0.013745 -0.002078 0.000000 0.000000 0.000000
# 3 -0.002078 -0.002078 0.011725 0.000000 0.000000 0.000000
# 4 0.000000 0.000000 0.000000 0.027193 0.000000 0.000000
# 5 0.000000 0.000000 0.000000 0.000000 0.027193 0.000000
# 6 0.000000 0.000000 0.000000 0.000000 0.000000 0.042890
#
#
# Mechanical properties :
#
#
# Convention : Reuss Voigt Hill
#
# Bulk Modulus (GPa) = 64.50415 67.49041 65.99728
# Shear Modulus (GPa) = 30.23508 32.33827 31.28667
#
# Velocity S-wave (km/s) = 3.89762 4.03090 3.96482
# Velocity P-wave (km/s) = 7.25706 7.45482 7.35660
#
# Compressibility (1/GPa) = 0.01550288
#
# Stress axis : x y z
#
# Youngs Moduli (GPa) = 72.75218 72.75218 85.29070
#
# Poissons Ratio (x) = 0.56018 0.17725
# Poissons Ratio (y) = 0.56018 0.17725
# Poissons Ratio (z) = 0.15119 0.15119
#
# Static dielectric constant tensor:
#      x y z
#    x 1.771630 0.000000 0.000000 
#    y 0.000000 1.771630 0.000000 
#    z 0.000000 0.000000 1.808490 
# 
# From -- ./inp_files/3358.got.cif
#   From: 2010.05.17/outbox.cif.g08.bks.cpg/sg179_2_cif.got.tgz:3358.got - 2010.05.20 11:37:33.
