data_PCOD9583717
_publ_section_title
;
Structure prediction by ZEFSAII (Michael W. Deem and Ramdas Pophale) SiO2 
 PCOD9583717
Probable space group: P 62 2 2
;
_chemical_formula_sum "Si O2"
_cell_formula_units_Z 36
_cell_length_a 8.938849
_cell_length_b 8.938849
_cell_length_c 22.644745
_cell_angle_alpha 90.000000
_cell_angle_beta 90.000000
_cell_angle_gamma 120.000000
_cell_volume 1566.972115
_symmetry_space_group_name_H-M "P 62 2 2"
_symmetry_group_IT_number 180
_symmetry_cell_setting 'hexagonal'
loop_
_space_group_symop_operation_xyz
x,y,z
x-y,x,1/3+z
-y,x-y,2/3+z
-x,-y,z
-x+y,-x,1/3+z
y,-x+y,2/3+z
x-y,-y,-z
-x,-x+y,1/3-z
y,x,2/3-z
-y,-x,2/3-z
-x+y,y,-z
x,x-y,1/3-z
loop_
_atom_site_type_symbol
_atom_site_label
_atom_site_fract_x
_atom_site_fract_y
_atom_site_fract_z
Si Si1 0.684162 0.031352 0.793024
Si Si2 0.972536 0.160713 0.268594
Si Si3 0.479737 0.164749 0.337205
O O1 0.841069 0.158932 0.833334
O O2 0.716515 0.124842 0.729394
O O3 0.500000 0.000000 0.814574
O O4 0.687971 0.855520 0.778997
O O5 0.881695 0.118306 0.333334
O O6 0.148250 0.338011 0.281569
O O7 0.000000 0.000000 0.255606
O O8 0.657433 0.342568 0.333334
O O9 0.500000 0.000000 0.353928
#
# Coordination Sequence:
#
# PCOD9583717 Si02
#       3
#    12  12  12
#     4  10  21  37  56  83 122 161 203 262 324 380
#     4   9  19  37  58  82 114 153 202 256 312 381
#     4  10  19  36  64  91 119 164 219 270 318 384
#
# _framework density 22.974242
#
# number of rings (size 3 to 8) (size 9 to 14) (size 15 to 20)
#    0.000    2.333    0.000    5.000    0.000    3.333 
#    0.000   11.667    0.000    7.000    0.000    0.000 
#    0.000    0.000    0.000    0.000    0.000    0.000 
#
# Total GULP energy -200933.085717 kJ/mol
# GULP energy per Si atom -5581.474603 kJ/mol
# Density = 2.292195 g / cm^3
# Si number density = 22.974242 Si / 1000 Ang^3
#
#
#
# Elastic Constant Matrix: (Units=GPa)
#
#
# Indices 1 2 3 4 5 6 
#
# 1 133.3800 50.9352 21.1552 0.0000 0.0000 0.0000
# 2 50.9352 133.3800 21.1552 0.0000 0.0000 0.0000
# 3 21.1552 21.1552 31.2214 0.0000 0.0000 0.0000
# 4 0.0000 0.0000 0.0000 21.8060 0.0000 0.0000
# 5 0.0000 0.0000 0.0000 0.0000 21.8060 0.0000
# 6 0.0000 0.0000 0.0000 0.0000 0.0000 41.2224
#
#
#
# Elastic Compliance Matrix: (Units=1/GPa)
#
#
# Indices 1 2 3 4 5 6 
#
# 1 0.009277 -0.002852 -0.004353 0.000000 0.000000 0.000000
# 2 -0.002852 0.009277 -0.004353 0.000000 0.000000 0.000000
# 3 -0.004353 -0.004353 0.037929 0.000000 0.000000 0.000000
# 4 0.000000 0.000000 0.000000 0.045859 0.000000 0.000000
# 5 0.000000 0.000000 0.000000 0.000000 0.045859 0.000000
# 6 0.000000 0.000000 0.000000 0.000000 0.000000 0.024259
#
#
# Mechanical properties :
#
#
# Convention : Reuss Voigt Hill
#
# Bulk Modulus (GPa) = 29.97147 53.83028 41.90088
# Shear Modulus (GPa) = 24.18972 30.61592 27.40282
#
# Velocity S-wave (km/s) = 3.24837 3.65447 3.45739
# Velocity P-wave (km/s) = 5.20992 6.42561 5.84943
#
# Compressibility (1/GPa) = 0.03336506
#
# Stress axis : x y z
#
# Youngs Moduli (GPa) = 107.79254 107.79254 26.36511
#
# Poissons Ratio (x) = 0.30745 0.11478
# Poissons Ratio (y) = 0.30745 0.11478
# Poissons Ratio (z) = 0.46926 0.46926
#
# Static dielectric constant tensor:
#      x y z
#    x 1.984970 0.000000 0.000000 
#    y 0.000000 1.984970 0.000000 
#    z 0.000000 0.000000 1.851010 
# 
# From -- ./inp_files/10732.got.cif
#   From: 2010.05.17/outbox.cif.g08.bks.cpg/sg180_6_cif.got.tgz:10732.got - 2010.05.20 11:43:55.
