data_PCOD9583515
_publ_section_title
;
Structure prediction by ZEFSAII (Michael W. Deem and Ramdas Pophale) SiO2 
 PCOD9583515
Probable space group: P 65 2 2
;
_chemical_formula_sum "Si O2"
_cell_formula_units_Z 66
_cell_length_a 14.833132
_cell_length_b 14.833132
_cell_length_c 18.121730
_cell_angle_alpha 90.000000
_cell_angle_beta 90.000000
_cell_angle_gamma 120.000000
_cell_volume 3452.995483
_symmetry_space_group_name_H-M "P 65 2 2"
_symmetry_group_IT_number 179
_symmetry_cell_setting 'hexagonal'
loop_
_space_group_symop_operation_xyz
x,y,z
x-y,x,5/6+z
-y,x-y,2/3+z
-x,-y,1/2+z
-x+y,-x,1/3+z
y,-x+y,1/6+z
x-y,-y,-z
-x,-x+y,1/3-z
y,x,2/3-z
-y,-x,1/6-z
-x+y,y,1/2-z
x,x-y,5/6-z
loop_
_atom_site_type_symbol
_atom_site_label
_atom_site_fract_x
_atom_site_fract_y
_atom_site_fract_z
Si Si1 0.509620 0.625151 0.861739
Si Si2 0.724516 0.443757 0.328058
Si Si3 0.835045 0.169152 0.224443
Si Si4 0.456804 0.395633 0.527233
Si Si5 0.174432 0.693433 0.852647
Si Si6 0.894557 0.894557 0.833334
O O1 0.542155 0.542155 0.833334
O O2 0.397248 0.601269 0.837817
O O3 0.597332 0.736181 0.831602
O O4 0.507633 0.621952 0.949094
O O5 0.750660 0.501320 0.250000
O O6 0.749685 0.348954 0.324588
O O7 0.786635 0.514959 0.397495
O O8 0.715532 0.080784 0.219363
O O9 0.839247 0.224133 0.303071
O O10 0.908749 0.124549 0.198850
O O11 0.551639 0.448362 0.583334
O O12 0.408661 0.470019 0.517838
O O13 0.959890 0.919779 0.750000
#
# Coordination Sequence:
#
# PCOD9583515 Si02
#       6
#    12  12  12  12  12   6
#     4  12  23  38  60  93 133 171 228 289 346 418
#     4  11  22  37  58  83 134 191 236 283 343 416
#     4  12  23  41  68 103 139 174 229 300 366 428
#     4  12  24  39  62  94 135 181 227 283 347 414
#     4  11  23  41  58  93 138 185 237 287 345 437
#     4  12  26  50  82 116 144 182 238 324 394 444
#
# _framework density 19.113838999999999
#
# number of rings (size 3 to 8) (size 9 to 14) (size 15 to 20)
#    0.000    0.364    6.364    3.818    7.636    0.000 
#    0.000    0.000    0.000    4.364    2.364    0.000 
#    0.000    0.000    0.000    0.000    0.000    0.000 
#
# Total GULP energy -367821.685633 kJ/mol
# GULP energy per Si atom -5573.055843 kJ/mol
# Density = 1.907033 g / cm^3
# Si number density = 19.113839 Si / 1000 Ang^3
#
#
#
# Elastic Constant Matrix: (Units=GPa)
#
#
# Indices 1 2 3 4 5 6 
#
# 1 58.1859 43.3611 22.7392 0.0000 0.0000 0.0000
# 2 43.3611 58.1859 22.7392 0.0000 0.0000 0.0000
# 3 22.7392 22.7392 159.6498 0.0000 0.0000 0.0000
# 4 0.0000 0.0000 0.0000 20.6774 0.0000 0.0000
# 5 0.0000 0.0000 0.0000 0.0000 20.6774 0.0000
# 6 0.0000 0.0000 0.0000 0.0000 0.0000 7.4124
#
#
#
# Elastic Compliance Matrix: (Units=1/GPa)
#
#
# Indices 1 2 3 4 5 6 
#
# 1 0.038987 -0.028468 -0.001498 0.000000 0.000000 0.000000
# 2 -0.028468 0.038987 -0.001498 0.000000 0.000000 0.000000
# 3 -0.001498 -0.001498 0.006690 0.000000 0.000000 0.000000
# 4 0.000000 0.000000 0.000000 0.048362 0.000000 0.000000
# 5 0.000000 0.000000 0.000000 0.000000 0.048362 0.000000
# 6 0.000000 0.000000 0.000000 0.000000 0.000000 0.134910
#
#
# Mechanical properties :
#
#
# Convention : Reuss Voigt Hill
#
# Bulk Modulus (GPa) = 46.00876 50.41119 48.20997
# Shear Modulus (GPa) = 12.93756 22.23224 17.58490
#
# Velocity S-wave (km/s) = 2.60449 3.41420 3.03646
# Velocity P-wave (km/s) = 5.75914 6.47872 6.12950
#
# Compressibility (1/GPa) = 0.02173499
#
# Stress axis : x y z
#
# Youngs Moduli (GPa) = 25.64975 25.64975 149.46594
#
# Poissons Ratio (x) = 0.73020 0.22393
# Poissons Ratio (y) = 0.73020 0.22393
# Poissons Ratio (z) = 0.03843 0.03843
#
# Static dielectric constant tensor:
#      x y z
#    x 1.682360 0.000000 0.000000 
#    y 0.000000 1.682360 0.000000 
#    z 0.000000 0.000000 1.792030 
# 
# From -- ./inp_files/6754.got.cif
#   From: 2010.05.17/outbox.cif.g08.bks.cpg/sg179_4_cif.got.tgz:6754.got - 2010.05.20 11:37:33.
