data_PCOD9583908
_publ_section_title
;
Structure prediction by ZEFSAII (Michael W. Deem and Ramdas Pophale) SiO2 
 PCOD9583908
Probable space group: P 62 2 2
;
_chemical_formula_sum "Si O2"
_cell_formula_units_Z 42
_cell_length_a 18.704218
_cell_length_b 18.704218
_cell_length_c 6.285548
_cell_angle_alpha 90.000000
_cell_angle_beta 90.000000
_cell_angle_gamma 120.000000
_cell_volume 1904.376836
_symmetry_space_group_name_H-M "P 62 2 2"
_symmetry_group_IT_number 180
_symmetry_cell_setting 'hexagonal'
loop_
_space_group_symop_operation_xyz
x,y,z
x-y,x,1/3+z
-y,x-y,2/3+z
-x,-y,z
-x+y,-x,1/3+z
y,-x+y,2/3+z
x-y,-y,-z
-x,-x+y,1/3-z
y,x,2/3-z
-y,-x,2/3-z
-x+y,y,-z
x,x-y,1/3-z
loop_
_atom_site_type_symbol
_atom_site_label
_atom_site_fract_x
_atom_site_fract_y
_atom_site_fract_z
Si Si1 0.749541 0.874771 0.166667
Si Si2 0.000000 0.880213 0.166667
Si Si3 0.692879 0.000000 0.000000
Si Si4 0.738718 0.261283 0.833334
Si Si5 0.520671 0.629028 0.455974
Si Si6 0.598904 0.401097 0.833334
O O1 0.803413 0.931877 0.364087
O O2 0.706174 0.780333 0.250096
O O3 0.048985 0.951016 0.333334
O O4 0.615173 0.961290 0.838381
O O5 0.823791 0.300416 0.700895
O O6 0.672909 0.250170 0.657585
O O7 0.456296 0.543705 0.333334
O O8 0.478672 0.623467 0.681098
#
# Coordination Sequence:
#
# PCOD9583908 Si02
#       6
#     6   6   6   6  12   6
#     4  12  27  49  77 109 144 190 238 313 365 449
#     4  12  24  49  74 108 143 186 244 298 379 440
#     4  12  25  52  73 100 146 186 246 298 377 444
#     4  10  21  41  68 107 149 195 245 292 354 424
#     4  10  23  44  69 103 144 195 245 305 357 433
#     4  10  22  41  70 108 147 192 242 301 357 419
#
# _framework density 22.054459999999999
#
# number of rings (size 3 to 8) (size 9 to 14) (size 15 to 20)
#    0.000    1.143    2.857    2.143    0.000   14.286 
#   20.571    5.714    0.000    0.000    0.000    0.000 
#    0.000    0.000    0.000    0.000    0.000    0.000 
#
# Total GULP energy -234463.374990 kJ/mol
# GULP energy per Si atom -5582.461309 kJ/mol
# Density = 2.200426 g / cm^3
# Si number density = 22.054460 Si / 1000 Ang^3
#
#
#
# Elastic Constant Matrix: (Units=GPa)
#
#
# Indices 1 2 3 4 5 6 
#
# 1 145.1358 91.8318 58.1842 0.0000 0.0000 0.0000
# 2 91.8318 145.1358 58.1842 0.0000 0.0000 0.0000
# 3 58.1842 58.1842 139.3757 0.0000 0.0000 0.0000
# 4 0.0000 0.0000 0.0000 4.4468 0.0000 0.0000
# 5 0.0000 0.0000 0.0000 0.0000 4.4468 0.0000
# 6 0.0000 0.0000 0.0000 0.0000 0.0000 26.6520
#
#
#
# Elastic Compliance Matrix: (Units=1/GPa)
#
#
# Indices 1 2 3 4 5 6 
#
# 1 0.012034 -0.006726 -0.002216 0.000000 0.000000 0.000000
# 2 -0.006726 0.012034 -0.002216 0.000000 0.000000 0.000000
# 3 -0.002216 -0.002216 0.009025 0.000000 0.000000 0.000000
# 4 0.000000 0.000000 0.000000 0.224879 0.000000 0.000000
# 5 0.000000 0.000000 0.000000 0.000000 0.224879 0.000000
# 6 0.000000 0.000000 0.000000 0.000000 0.000000 0.037521
#
#
# Mechanical properties :
#
#
# Convention : Reuss Voigt Hill
#
# Bulk Modulus (GPa) = 92.78579 94.00532 93.39555
# Shear Modulus (GPa) = 9.15281 21.87228 15.51254
#
# Velocity S-wave (km/s) = 2.03939 3.15261 2.65500
# Velocity P-wave (km/s) = 6.90710 7.48122 7.19988
#
# Compressibility (1/GPa) = 0.01077751
#
# Stress axis : x y z
#
# Youngs Moduli (GPa) = 83.09616 83.09616 110.80305
#
# Poissons Ratio (x) = 0.55891 0.24554
# Poissons Ratio (y) = 0.55891 0.24554
# Poissons Ratio (z) = 0.18414 0.18414
#
# Static dielectric constant tensor:
#      x y z
#    x 1.865580 0.000000 0.000000 
#    y 0.000000 1.865580 0.000000 
#    z 0.000000 0.000000 1.587800 
# 
# From -- ./inp_files/905.got.cif
#   From: 2010.05.17/outbox.cif.g08.bks.cpg/sg180_1_cif.got.tgz:905.got - 2010.05.20 11:43:55.
