data_PCOD9583455
_publ_section_title
;
Structure prediction by ZEFSAII (Michael W. Deem and Ramdas Pophale) SiO2 
 PCOD9583455
Probable space group: P 65 2 2
;
_chemical_formula_sum "Si O2"
_cell_formula_units_Z 54
_cell_length_a 12.250648
_cell_length_b 12.250648
_cell_length_c 20.957490
_cell_angle_alpha 90.000000
_cell_angle_beta 90.000000
_cell_angle_gamma 120.000000
_cell_volume 2723.880321
_symmetry_space_group_name_H-M "P 65 2 2"
_symmetry_group_IT_number 179
_symmetry_cell_setting 'hexagonal'
loop_
_space_group_symop_operation_xyz
x,y,z
x-y,x,5/6+z
-y,x-y,2/3+z
-x,-y,1/2+z
-x+y,-x,1/3+z
y,-x+y,1/6+z
x-y,-y,-z
-x,-x+y,1/3-z
y,x,2/3-z
-y,-x,1/6-z
-x+y,y,1/2-z
x,x-y,5/6-z
loop_
_atom_site_type_symbol
_atom_site_label
_atom_site_fract_x
_atom_site_fract_y
_atom_site_fract_z
Si Si1 0.829810 0.914905 0.416667
Si Si2 0.150849 0.456219 0.424056
Si Si3 0.524072 0.293812 0.735522
Si Si4 0.558204 0.698013 0.862265
Si Si5 0.733690 0.810224 0.545757
O O1 0.740037 0.818370 0.469889
O O2 0.916288 0.856725 0.397527
O O3 0.089277 0.544639 0.416667
O O4 0.215238 0.498527 0.493210
O O5 0.245008 0.478356 0.365448
O O6 0.044906 0.310767 0.427059
O O7 0.625482 0.250965 0.750000
O O8 0.588739 0.433968 0.767484
O O9 0.390670 0.201197 0.766243
O O10 0.643840 0.643840 0.833334
O O11 0.616803 0.808402 0.916667
#
# Coordination Sequence:
#
# PCOD9583455 Si02
#       5
#     6  12  12  12  12
#     4  10  24  44  66 108 136 174 238 284 350 446
#     4  12  24  47  72 101 144 186 241 294 359 434
#     4  11  24  44  68 106 137 181 234 293 353 428
#     4  11  27  46  70 106 144 185 245 300 364 437
#     4  11  24  44  72 101 140 183 231 288 364 419
#
# _framework density 19.824660999999999
#
# number of rings (size 3 to 8) (size 9 to 14) (size 15 to 20)
#    0.000    0.889    6.667    0.667    6.222    3.556 
#    6.000    0.000    0.000    0.000    0.000    0.000 
#    0.000    0.000    0.000    0.000    0.000    0.000 
#
# Total GULP energy -301092.227181 kJ/mol
# GULP energy per Si atom -5575.781985 kJ/mol
# Density = 1.977954 g / cm^3
# Si number density = 19.824661 Si / 1000 Ang^3
#
#
#
# Elastic Constant Matrix: (Units=GPa)
#
#
# Indices 1 2 3 4 5 6 
#
# 1 100.8252 48.1973 32.6125 0.0000 0.0000 0.0000
# 2 48.1973 100.8252 32.6125 0.0000 0.0000 0.0000
# 3 32.6125 32.6125 133.0707 0.0000 0.0000 0.0000
# 4 0.0000 0.0000 0.0000 17.8619 0.0000 0.0000
# 5 0.0000 0.0000 0.0000 0.0000 17.8619 0.0000
# 6 0.0000 0.0000 0.0000 0.0000 0.0000 26.3139
#
#
#
# Elastic Compliance Matrix: (Units=1/GPa)
#
#
# Indices 1 2 3 4 5 6 
#
# 1 0.013259 -0.005742 -0.001842 0.000000 0.000000 0.000000
# 2 -0.005742 0.013259 -0.001842 0.000000 0.000000 0.000000
# 3 -0.001842 -0.001842 0.008418 0.000000 0.000000 0.000000
# 4 0.000000 0.000000 0.000000 0.055985 0.000000 0.000000
# 5 0.000000 0.000000 0.000000 0.000000 0.055985 0.000000
# 6 0.000000 0.000000 0.000000 0.000000 0.000000 0.038003
#
#
# Mechanical properties :
#
#
# Convention : Reuss Voigt Hill
#
# Bulk Modulus (GPa) = 62.17955 62.39620 62.28788
# Shear Modulus (GPa) = 23.90938 27.16078 25.53508
#
# Velocity S-wave (km/s) = 3.47658 3.70543 3.59283
# Velocity P-wave (km/s) = 6.89553 7.06041 6.97845
#
# Compressibility (1/GPa) = 0.01608246
#
# Stress axis : x y z
#
# Youngs Moduli (GPa) = 75.42035 75.42035 118.79662
#
# Poissons Ratio (x) = 0.43309 0.21884
# Poissons Ratio (y) = 0.43309 0.21884
# Poissons Ratio (z) = 0.13894 0.13894
#
# Static dielectric constant tensor:
#      x y z
#    x 1.692840 0.000000 0.000000 
#    y 0.000000 1.692840 0.000000 
#    z 0.000000 0.000000 1.768810 
# 
# From -- ./inp_files/7391.got.cif
#   From: 2010.05.17/outbox.cif.g08.bks.cpg/sg179_4_cif.got.tgz:7391.got - 2010.05.20 11:37:33.
