data_PCOD9583930
_publ_section_title
;
Structure prediction by ZEFSAII (Michael W. Deem and Ramdas Pophale) SiO2 
 PCOD9583930
Probable space group: P 62 2 2
;
_chemical_formula_sum "Si O2"
_cell_formula_units_Z 48
_cell_length_a 18.190792
_cell_length_b 18.190792
_cell_length_c 7.788398
_cell_angle_alpha 90.000000
_cell_angle_beta 90.000000
_cell_angle_gamma 120.000000
_cell_volume 2231.937270
_symmetry_space_group_name_H-M "P 62 2 2"
_symmetry_group_IT_number 180
_symmetry_cell_setting 'hexagonal'
loop_
_space_group_symop_operation_xyz
x,y,z
x-y,x,1/3+z
-y,x-y,2/3+z
-x,-y,z
-x+y,-x,1/3+z
y,-x+y,2/3+z
x-y,-y,-z
-x,-x+y,1/3-z
y,x,2/3-z
-y,-x,2/3-z
-x+y,y,-z
x,x-y,1/3-z
loop_
_atom_site_type_symbol
_atom_site_label
_atom_site_fract_x
_atom_site_fract_y
_atom_site_fract_z
Si Si1 0.465269 0.364770 0.857824
Si Si2 0.812457 0.187544 0.333334
Si Si3 0.901948 0.692370 0.663170
Si Si4 0.640405 0.513125 0.408251
Si Si5 0.689144 0.378288 0.500000
O O1 0.406380 0.406380 0.833334
O O2 0.562370 0.437631 0.833334
O O3 0.434412 0.284428 0.733583
O O4 0.461980 0.348899 0.059689
O O5 0.855312 0.168221 0.494145
O O6 0.846814 0.693628 0.500000
O O7 0.900604 0.602133 0.678029
O O8 0.000000 0.765120 0.666667
O O9 0.545295 0.454706 0.333334
O O10 0.676462 0.449120 0.398185
O O11 0.680416 0.319585 0.333334
#
# Coordination Sequence:
#
# PCOD9583930 Si02
#       5
#    12   6  12  12   6
#     4  11  24  42  66 103 141 187 242 295 359 422
#     4  12  24  44  78 102 143 194 243 304 354 440
#     4  12  26  47  72 106 145 186 243 304 371 451
#     4  11  22  43  63  94 137 189 239 295 349 417
#     4  10  22  38  60  88 127 176 232 289 336 390
#
# _framework density 21.505980000000001
#
# number of rings (size 3 to 8) (size 9 to 14) (size 15 to 20)
#    0.000    0.750    3.750    3.000    1.750    4.500 
#    9.000    0.000    0.000    0.000    0.000    4.375 
#    0.000    0.000    0.000    0.000    0.000    0.000 
#
# Total GULP energy -267416.719545 kJ/mol
# GULP energy per Si atom -5571.181657 kJ/mol
# Density = 2.145703 g / cm^3
# Si number density = 21.505980 Si / 1000 Ang^3
#
#
#
# Elastic Constant Matrix: (Units=GPa)
#
#
# Indices 1 2 3 4 5 6 
#
# 1 87.6668 51.8440 20.8278 0.0000 0.0000 0.0000
# 2 51.8440 87.6668 20.8278 0.0000 0.0000 0.0000
# 3 20.8278 20.8278 141.9475 0.0000 0.0000 0.0000
# 4 0.0000 0.0000 0.0000 43.5518 0.0000 0.0000
# 5 0.0000 0.0000 0.0000 0.0000 43.5518 0.0000
# 6 0.0000 0.0000 0.0000 0.0000 0.0000 17.9114
#
#
#
# Elastic Compliance Matrix: (Units=1/GPa)
#
#
# Indices 1 2 3 4 5 6 
#
# 1 0.017706 -0.010209 -0.001100 0.000000 0.000000 0.000000
# 2 -0.010209 0.017706 -0.001100 0.000000 0.000000 0.000000
# 3 -0.001100 -0.001100 0.007368 0.000000 0.000000 0.000000
# 4 0.000000 0.000000 0.000000 0.022961 0.000000 0.000000
# 5 0.000000 0.000000 0.000000 0.000000 0.022961 0.000000
# 6 0.000000 0.000000 0.000000 0.000000 0.000000 0.055830
#
#
# Mechanical properties :
#
#
# Convention : Reuss Voigt Hill
#
# Bulk Modulus (GPa) = 55.67748 56.03113 55.85431
# Shear Modulus (GPa) = 28.51646 35.92177 32.21912
#
# Velocity S-wave (km/s) = 3.64535 4.09138 3.87479
# Velocity P-wave (km/s) = 6.60784 6.95913 6.78576
#
# Compressibility (1/GPa) = 0.01796058
#
# Stress axis : x y z
#
# Youngs Moduli (GPa) = 56.47878 56.47878 135.72867
#
# Poissons Ratio (x) = 0.57662 0.14929
# Poissons Ratio (y) = 0.57662 0.14929
# Poissons Ratio (z) = 0.06212 0.06212
#
# Static dielectric constant tensor:
#      x y z
#    x 2.015850 0.000000 0.000000 
#    y 0.000000 2.015850 0.000000 
#    z 0.000000 0.000000 1.186560 
# 
# From -- ./inp_files/2690.got.cif
#   From: 2010.05.17/outbox.cif.g08.bks.cpg/sg180_2_cif.got.tgz:2690.got - 2010.05.20 11:43:55.
