data_PCOD9583162
_publ_section_title
;
Structure prediction by ZEFSAII (Michael W. Deem and Ramdas Pophale) SiO2 
 PCOD9583162
Probable space group: P 65 2 2
;
_chemical_formula_sum "Si O2"
_cell_formula_units_Z 66
_cell_length_a 21.378929
_cell_length_b 21.378929
_cell_length_c 8.561827
_cell_angle_alpha 90.000000
_cell_angle_beta 90.000000
_cell_angle_gamma 120.000000
_cell_volume 3388.979719
_symmetry_space_group_name_H-M "P 65 2 2"
_symmetry_group_IT_number 179
_symmetry_cell_setting 'hexagonal'
loop_
_space_group_symop_operation_xyz
x,y,z
x-y,x,5/6+z
-y,x-y,2/3+z
-x,-y,1/2+z
-x+y,-x,1/3+z
y,-x+y,1/6+z
x-y,-y,-z
-x,-x+y,1/3-z
y,x,2/3-z
-y,-x,1/6-z
-x+y,y,1/2-z
x,x-y,5/6-z
loop_
_atom_site_type_symbol
_atom_site_label
_atom_site_fract_x
_atom_site_fract_y
_atom_site_fract_z
Si Si1 0.767678 0.535355 0.750000
Si Si2 0.159366 0.886952 0.401258
Si Si3 0.828224 0.482471 0.491089
Si Si4 0.000000 0.128066 0.166667
Si Si5 0.225276 0.774725 0.083334
Si Si6 0.671574 0.634721 0.002048
Si Si7 0.260501 0.892622 0.842966
O O1 0.797476 0.488301 0.661083
O O2 0.832447 0.586265 0.872716
O O3 0.137309 0.862692 0.583334
O O4 0.241325 0.912466 0.350769
O O5 0.106151 0.814060 0.313087
O O6 0.151153 0.956467 0.382747
O O7 0.825087 0.412544 0.416667
O O8 0.779227 0.500647 0.381705
O O9 0.909606 0.549942 0.476898
O O10 0.057542 0.115083 0.250000
O O11 0.146075 0.739742 0.162685
O O12 0.647341 0.647341 0.833334
O O13 0.646398 0.675407 0.125153
#
# Coordination Sequence:
#
# PCOD9583162 Si02
#       7
#     6  12  12   6   6  12  12
#     4  10  18  40  68  86 126 173 202 255 314 386
#     4  11  16  30  59  92 114 149 215 265 300 367
#     4  11  24  44  65  96 127 163 215 267 323 390
#     4  10  20  30  52  80 110 152 206 262 296 354
#     4  10  24  44  60  88 134 167 202 267 324 384
#     4  12  18  34  67  96 123 162 212 269 317 386
#     4  11  19  36  61  92 126 168 208 254 327 385
#
# _framework density 19.474888
#
# number of rings (size 3 to 8) (size 9 to 14) (size 15 to 20)
#    0.000    1.091    9.091    1.091    0.000    0.727 
#    4.909    2.727    2.000    0.000    0.000    0.000 
#    0.000    0.000    0.000    0.000    0.000    0.000 
#
# Total GULP energy -367577.275776 kJ/mol
# GULP energy per Si atom -5569.352663 kJ/mol
# Density = 1.943056 g / cm^3
# Si number density = 19.474888 Si / 1000 Ang^3
#
#
#
# Elastic Constant Matrix: (Units=GPa)
#
#
# Indices 1 2 3 4 5 6 
#
# 1 107.5149 46.6708 25.9293 0.0000 0.0000 0.0000
# 2 46.6708 107.5149 25.9293 0.0000 0.0000 0.0000
# 3 25.9293 25.9293 60.1393 0.0000 0.0000 0.0000
# 4 0.0000 0.0000 0.0000 21.5582 0.0000 0.0000
# 5 0.0000 0.0000 0.0000 0.0000 21.5582 0.0000
# 6 0.0000 0.0000 0.0000 0.0000 0.0000 30.4220
#
#
#
# Elastic Compliance Matrix: (Units=1/GPa)
#
#
# Indices 1 2 3 4 5 6 
#
# 1 0.012011 -0.004425 -0.003271 0.000000 0.000000 0.000000
# 2 -0.004425 0.012011 -0.003271 0.000000 0.000000 0.000000
# 3 -0.003271 -0.003271 0.019448 0.000000 0.000000 0.000000
# 4 0.000000 0.000000 0.000000 0.046386 0.000000 0.000000
# 5 0.000000 0.000000 0.000000 0.000000 0.046386 0.000000
# 6 0.000000 0.000000 0.000000 0.000000 0.000000 0.032871
#
#
# Mechanical properties :
#
#
# Convention : Reuss Voigt Hill
#
# Bulk Modulus (GPa) = 46.43100 52.46976 49.45038
# Shear Modulus (GPa) = 25.22404 26.48369 25.85386
#
# Velocity S-wave (km/s) = 3.60280 3.69167 3.64751
# Velocity P-wave (km/s) = 6.41874 6.72101 6.57161
#
# Compressibility (1/GPa) = 0.02153733
#
# Stress axis : x y z
#
# Youngs Moduli (GPa) = 83.25992 83.25992 51.41825
#
# Poissons Ratio (x) = 0.36841 0.16817
# Poissons Ratio (y) = 0.36841 0.16817
# Poissons Ratio (z) = 0.27231 0.27231
#
# Static dielectric constant tensor:
#      x y z
#    x 1.719770 0.000000 0.000000 
#    y 0.000000 1.719770 0.000000 
#    z 0.000000 0.000000 1.793730 
# 
# From -- ./inp_files/3454.got.cif
#   From: 2010.05.17/outbox.cif.g08.bks.cpg/sg179_2_cif.got.tgz:3454.got - 2010.05.20 11:37:33.
