data_PCOD9583619
_publ_section_title
;
Structure prediction by ZEFSAII (Michael W. Deem and Ramdas Pophale) SiO2 
 PCOD9583619
Probable space group: P 62 2 2
;
_chemical_formula_sum "Si O2"
_cell_formula_units_Z 42
_cell_length_a 15.639891
_cell_length_b 15.639891
_cell_length_c 12.191113
_cell_angle_alpha 90.000000
_cell_angle_beta 90.000000
_cell_angle_gamma 120.000000
_cell_volume 2582.506554
_symmetry_space_group_name_H-M "P 62 2 2"
_symmetry_group_IT_number 180
_symmetry_cell_setting 'hexagonal'
loop_
_space_group_symop_operation_xyz
x,y,z
x-y,x,1/3+z
-y,x-y,2/3+z
-x,-y,z
-x+y,-x,1/3+z
y,-x+y,2/3+z
x-y,-y,-z
-x,-x+y,1/3-z
y,x,2/3-z
-y,-x,2/3-z
-x+y,y,-z
x,x-y,1/3-z
loop_
_atom_site_type_symbol
_atom_site_label
_atom_site_fract_x
_atom_site_fract_y
_atom_site_fract_z
Si Si1 0.780365 0.883555 0.487812
Si Si2 0.413571 0.021674 0.630846
Si Si3 0.090853 0.801775 0.927276
Si Si4 0.194159 0.388317 0.000000
O O1 0.745285 0.869002 0.362767
O O2 0.813528 0.809247 0.534928
O O3 0.685561 0.855119 0.563841
O O4 0.859554 0.000000 0.500000
O O5 0.445700 0.133939 0.664626
O O6 0.500000 0.000000 0.662643
O O7 0.395614 0.000000 0.500000
O O8 0.308544 0.956241 0.691594
O O9 0.171483 0.828518 0.833334
#
# Coordination Sequence:
#
# PCOD9583619 Si02
#       4
#    12  12  12   6
#     4  11  17  32  51  78 106 145 175 208 254 306
#     4  10  19  34  60  82  97 139 189 226 268 319
#     4  11  21  32  50  77 113 145 172 214 265 323
#     4  10  16  32  58  77 112 126 175 228 266 310
#
# _framework density 16.263269999999999
#
# number of rings (size 3 to 8) (size 9 to 14) (size 15 to 20)
#    0.000    1.429    8.571    0.857    0.000    0.571 
#    0.000    2.857    6.286   13.714    0.000    0.000 
#    0.000    0.000    0.000    0.000    0.000    0.000 
#
# Total GULP energy -233985.863838 kJ/mol
# GULP energy per Si atom -5571.091996 kJ/mol
# Density = 1.622625 g / cm^3
# Si number density = 16.263270 Si / 1000 Ang^3
#
#
#
# Elastic Constant Matrix: (Units=GPa)
#
#
# Indices 1 2 3 4 5 6 
#
# 1 94.8361 56.1481 37.5336 0.0000 0.0000 0.0000
# 2 56.1481 94.8361 37.5336 0.0000 0.0000 0.0000
# 3 37.5336 37.5336 123.6001 0.0000 0.0000 0.0000
# 4 0.0000 0.0000 0.0000 18.2270 0.0000 0.0000
# 5 0.0000 0.0000 0.0000 0.0000 18.2270 0.0000
# 6 0.0000 0.0000 0.0000 0.0000 0.0000 19.3440
#
#
#
# Elastic Compliance Matrix: (Units=1/GPa)
#
#
# Indices 1 2 3 4 5 6 
#
# 1 0.016824 -0.009023 -0.002369 0.000000 0.000000 0.000000
# 2 -0.009023 0.016824 -0.002369 0.000000 0.000000 0.000000
# 3 -0.002369 -0.002369 0.009529 0.000000 0.000000 0.000000
# 4 0.000000 0.000000 0.000000 0.054864 0.000000 0.000000
# 5 0.000000 0.000000 0.000000 0.000000 0.054864 0.000000
# 6 0.000000 0.000000 0.000000 0.000000 0.000000 0.051696
#
#
# Mechanical properties :
#
#
# Convention : Reuss Voigt Hill
#
# Bulk Modulus (GPa) = 63.87471 63.96699 63.92085
# Shear Modulus (GPa) = 21.06664 23.29674 22.18169
#
# Velocity S-wave (km/s) = 3.60300 3.78891 3.69713
# Velocity P-wave (km/s) = 7.52792 7.65237 7.59040
#
# Compressibility (1/GPa) = 0.01565565
#
# Stress axis : x y z
#
# Youngs Moduli (GPa) = 59.43748 59.43748 104.93892
#
# Poissons Ratio (x) = 0.53633 0.24859
# Poissons Ratio (y) = 0.53633 0.24859
# Poissons Ratio (z) = 0.14080 0.14080
#
# Static dielectric constant tensor:
#      x y z
#    x 1.572640 0.000000 0.000000 
#    y 0.000000 1.572640 0.000000 
#    z 0.000000 0.000000 1.575150 
# 
# From -- ./inp_files/4222.got.cif
#   From: 2010.05.17/outbox.cif.g08.bks.cpg/sg180_3_cif.got.tgz:4222.got - 2010.05.20 11:43:55.
