data_PCOD9583947
_publ_section_title
;
Structure prediction by ZEFSAII (Michael W. Deem and Ramdas Pophale) SiO2 
 PCOD9583947
Probable space group: P 62 2 2
;
_chemical_formula_sum "Si O2"
_cell_formula_units_Z 54
_cell_length_a 11.164708
_cell_length_b 11.164708
_cell_length_c 22.942253
_cell_angle_alpha 90.000000
_cell_angle_beta 90.000000
_cell_angle_gamma 120.000000
_cell_volume 2476.631741
_symmetry_space_group_name_H-M "P 62 2 2"
_symmetry_group_IT_number 180
_symmetry_cell_setting 'hexagonal'
loop_
_space_group_symop_operation_xyz
x,y,z
x-y,x,1/3+z
-y,x-y,2/3+z
-x,-y,z
-x+y,-x,1/3+z
y,-x+y,2/3+z
x-y,-y,-z
-x,-x+y,1/3-z
y,x,2/3-z
-y,-x,2/3-z
-x+y,y,-z
x,x-y,1/3-z
loop_
_atom_site_type_symbol
_atom_site_label
_atom_site_fract_x
_atom_site_fract_y
_atom_site_fract_z
Si Si1 0.333381 0.692280 0.068211
Si Si2 0.771696 0.543391 0.500000
Si Si3 0.363889 0.074002 0.891016
Si Si4 0.994689 0.867783 0.271677
Si Si5 0.583226 0.872348 0.541366
O O1 0.447184 0.689405 0.111099
O O2 0.355420 0.846964 0.074075
O O3 0.191650 0.562760 0.092781
O O4 0.333008 0.666016 0.000000
O O5 0.706687 0.630313 0.471813
O O6 0.251291 0.086041 0.931370
O O7 0.410839 0.174694 0.835396
O O8 0.077900 0.795907 0.247989
O O9 0.000000 0.000000 0.239372
O O10 0.066724 0.933277 0.333334
O O11 0.620162 0.000000 0.500000
#
# Coordination Sequence:
#
# PCOD9583947 Si02
#       5
#    12   6  12  12  12
#     4  12  27  46  74 109 148 201 265 326 398 473
#     4  12  26  48  74 104 154 200 262 312 396 484
#     4  11  24  44  70 101 145 199 243 321 386 467
#     4  10  22  40  67 105 146 186 253 315 391 462
#     4  10  22  44  72 101 146 199 249 315 394 469
#
# _framework density 21.803806000000002
#
# number of rings (size 3 to 8) (size 9 to 14) (size 15 to 20)
#    0.000    1.111    2.222    2.667    0.000   16.444 
#    0.000    4.444    0.000    0.000    0.000    0.000 
#    0.000    0.000    0.000    0.000    0.000    0.000 
#
# Total GULP energy -300858.456435 kJ/mol
# GULP energy per Si atom -5571.452897 kJ/mol
# Density = 2.175418 g / cm^3
# Si number density = 21.803806 Si / 1000 Ang^3
#
#
#
# Elastic Constant Matrix: (Units=GPa)
#
#
# Indices 1 2 3 4 5 6 
#
# 1 117.1703 39.7021 57.3335 0.0000 0.0000 0.0000
# 2 39.7021 117.1703 57.3335 0.0000 0.0000 0.0000
# 3 57.3335 57.3335 165.9900 0.0000 0.0000 0.0000
# 4 0.0000 0.0000 0.0000 24.7284 0.0000 0.0000
# 5 0.0000 0.0000 0.0000 0.0000 24.7284 0.0000
# 6 0.0000 0.0000 0.0000 0.0000 0.0000 38.7341
#
#
#
# Elastic Compliance Matrix: (Units=1/GPa)
#
#
# Indices 1 2 3 4 5 6 
#
# 1 0.010718 -0.002190 -0.002945 0.000000 0.000000 0.000000
# 2 -0.002190 0.010718 -0.002945 0.000000 0.000000 0.000000
# 3 -0.002945 -0.002945 0.008059 0.000000 0.000000 0.000000
# 4 0.000000 0.000000 0.000000 0.040439 0.000000 0.000000
# 5 0.000000 0.000000 0.000000 0.000000 0.040439 0.000000
# 6 0.000000 0.000000 0.000000 0.000000 0.000000 0.025817
#
#
# Mechanical properties :
#
#
# Convention : Reuss Voigt Hill
#
# Bulk Modulus (GPa) = 75.00429 78.78543 76.89486
# Shear Modulus (GPa) = 31.88814 34.03560 32.96187
#
# Velocity S-wave (km/s) = 3.82842 3.95523 3.89234
# Velocity P-wave (km/s) = 7.34960 7.55451 7.45276
#
# Compressibility (1/GPa) = 0.01333257
#
# Stress axis : x y z
#
# Youngs Moduli (GPa) = 93.30036 93.30036 124.08169
#
# Poissons Ratio (x) = 0.20437 0.36548
# Poissons Ratio (y) = 0.20437 0.36548
# Poissons Ratio (z) = 0.27481 0.27481
#
# Static dielectric constant tensor:
#      x y z
#    x 2.019980 0.000000 0.000000 
#    y 0.000000 2.019980 0.000000 
#    z 0.000000 0.000000 1.725740 
# 
# From -- ./inp_files/8855.got.cif
#   From: 2010.05.17/outbox.cif.g08.bks.cpg/sg180_5_cif.got.tgz:8855.got - 2010.05.20 11:43:55.
