data_PCOD9583520
_publ_section_title
;
Structure prediction by ZEFSAII (Michael W. Deem and Ramdas Pophale) SiO2 
 PCOD9583520
Probable space group: P 65 2 2
;
_chemical_formula_sum "Si O2"
_cell_formula_units_Z 78
_cell_length_a 17.288369
_cell_length_b 17.288369
_cell_length_c 13.715927
_cell_angle_alpha 90.000000
_cell_angle_beta 90.000000
_cell_angle_gamma 120.000000
_cell_volume 3550.290118
_symmetry_space_group_name_H-M "P 65 2 2"
_symmetry_group_IT_number 179
_symmetry_cell_setting 'hexagonal'
loop_
_space_group_symop_operation_xyz
x,y,z
x-y,x,5/6+z
-y,x-y,2/3+z
-x,-y,1/2+z
-x+y,-x,1/3+z
y,-x+y,1/6+z
x-y,-y,-z
-x,-x+y,1/3-z
y,x,2/3-z
-y,-x,1/6-z
-x+y,y,1/2-z
x,x-y,5/6-z
loop_
_atom_site_type_symbol
_atom_site_label
_atom_site_fract_x
_atom_site_fract_y
_atom_site_fract_z
Si Si1 0.710578 0.011336 0.883720
Si Si2 0.485092 0.830511 0.622769
Si Si3 0.119356 0.324626 0.444558
Si Si4 0.366332 0.633669 0.583334
Si Si5 0.775958 0.051852 0.598484
Si Si6 0.011041 0.471780 0.282938
Si Si7 0.477314 0.134186 0.890147
O O1 0.800805 0.105568 0.867042
O O2 0.690803 0.918999 0.832320
O O3 0.626460 0.020348 0.846049
O O4 0.706368 0.000000 0.000000
O O5 0.576413 0.854309 0.680622
O O6 0.408585 0.728656 0.635665
O O7 0.440281 0.891140 0.643515
O O8 0.510192 0.849168 0.506659
O O9 0.029419 0.250521 0.496803
O O10 0.347175 0.557836 0.662984
O O11 0.880277 0.119723 0.583334
O O12 0.734203 0.112091 0.634012
O O13 0.726580 0.000000 0.500000
O O14 0.000000 0.458606 0.166667
O O15 0.950863 0.514833 0.306299
#
# Coordination Sequence:
#
# PCOD9583520 Si02
#       7
#    12  12  12   6  12  12  12
#     4  11  26  49  73 105 144 196 256 319 387 471
#     4  11  23  44  63 106 146 200 250 311 362 452
#     4  12  25  44  78 107 143 195 256 307 395 465
#     4  12  26  38  66 102 160 202 254 296 384 440
#     4  12  23  41  72 108 147 180 237 309 378 454
#     4   9  20  42  65  91 139 189 243 296 358 428
#     4  11  22  40  67  97 149 201 241 306 364 444
#
# _framework density 21.970037000000001
#
# number of rings (size 3 to 8) (size 9 to 14) (size 15 to 20)
#    0.000    0.923    3.077    4.154    4.308    0.615 
#   13.846    0.000    0.000    9.231    0.000    0.000 
#    0.000    0.000    0.000    0.000    0.000    0.000 
#
# Total GULP energy -435821.355503 kJ/mol
# GULP energy per Si atom -5587.453276 kJ/mol
# Density = 2.192003 g / cm^3
# Si number density = 21.970037 Si / 1000 Ang^3
#
#
#
# Elastic Constant Matrix: (Units=GPa)
#
#
# Indices 1 2 3 4 5 6 
#
# 1 152.1053 85.5227 31.1067 0.0000 0.0000 0.0000
# 2 85.5227 152.1053 31.1067 0.0000 0.0000 0.0000
# 3 31.1067 31.1067 114.9551 0.0000 0.0000 0.0000
# 4 0.0000 0.0000 0.0000 28.2020 0.0000 0.0000
# 5 0.0000 0.0000 0.0000 0.0000 28.2020 0.0000
# 6 0.0000 0.0000 0.0000 0.0000 0.0000 33.2913
#
#
#
# Elastic Compliance Matrix: (Units=1/GPa)
#
#
# Indices 1 2 3 4 5 6 
#
# 1 0.009774 -0.005245 -0.001226 0.000000 0.000000 0.000000
# 2 -0.005245 0.009774 -0.001226 0.000000 0.000000 0.000000
# 3 -0.001226 -0.001226 0.009362 0.000000 0.000000 0.000000
# 4 0.000000 0.000000 0.000000 0.035459 0.000000 0.000000
# 5 0.000000 0.000000 0.000000 0.000000 0.035459 0.000000
# 6 0.000000 0.000000 0.000000 0.000000 0.000000 0.030038
#
#
# Mechanical properties :
#
#
# Convention : Reuss Voigt Hill
#
# Bulk Modulus (GPa) = 73.97395 79.40423 76.68909
# Shear Modulus (GPa) = 33.38596 36.03435 34.71015
#
# Velocity S-wave (km/s) = 3.90245 4.05428 3.97909
# Velocity P-wave (km/s) = 7.35180 7.62475 7.48952
#
# Compressibility (1/GPa) = 0.01351827
#
# Stress axis : x y z
#
# Youngs Moduli (GPa) = 102.31190 102.31190 106.81106
#
# Poissons Ratio (x) = 0.53662 0.13091
# Poissons Ratio (y) = 0.53662 0.13091
# Poissons Ratio (z) = 0.12539 0.12539
#
# Static dielectric constant tensor:
#      x y z
#    x 1.807970 0.000000 0.000000 
#    y 0.000000 1.807970 0.000000 
#    z 0.000000 0.000000 1.963180 
# 
# From -- ./inp_files/6047.got.cif
#   From: 2010.05.17/outbox.cif.g08.bks.cpg/sg179_4_cif.got.tgz:6047.got - 2010.05.20 11:37:33.
