data_PCOD9583857
_publ_section_title
;
Structure prediction by ZEFSAII (Michael W. Deem and Ramdas Pophale) SiO2 
 PCOD9583857
Probable space group: P 62 2 2
;
_chemical_formula_sum "Si O2"
_cell_formula_units_Z 48
_cell_length_a 17.924512
_cell_length_b 17.924512
_cell_length_c 9.120745
_cell_angle_alpha 90.000000
_cell_angle_beta 90.000000
_cell_angle_gamma 120.000000
_cell_volume 2537.789680
_symmetry_space_group_name_H-M "P 62 2 2"
_symmetry_group_IT_number 180
_symmetry_cell_setting 'hexagonal'
loop_
_space_group_symop_operation_xyz
x,y,z
x-y,x,1/3+z
-y,x-y,2/3+z
-x,-y,z
-x+y,-x,1/3+z
y,-x+y,2/3+z
x-y,-y,-z
-x,-x+y,1/3-z
y,x,2/3-z
-y,-x,2/3-z
-x+y,y,-z
x,x-y,1/3-z
loop_
_atom_site_type_symbol
_atom_site_label
_atom_site_fract_x
_atom_site_fract_y
_atom_site_fract_z
Si Si1 0.508360 0.641473 0.918924
Si Si2 0.802634 0.489672 0.708518
Si Si3 0.597209 0.954172 0.141994
Si Si4 0.384851 0.109860 0.692580
O O1 0.433706 0.566295 0.833334
O O2 0.476903 0.707895 0.966231
O O3 0.586368 0.687147 0.803231
O O4 0.533393 0.604353 0.056965
O O5 0.806453 0.403227 0.666667
O O6 0.862374 0.568777 0.598587
O O7 0.838066 0.528726 0.871400
O O8 0.688927 0.020751 0.216285
O O9 0.585640 0.000000 0.000000
O O10 0.346568 0.173284 0.666667
#
# Coordination Sequence:
#
# PCOD9583857 Si02
#       4
#    12  12  12  12
#     4  11  22  34  51  74 103 141 184 233 289 346
#     4  10  21  35  52  76 106 141 186 239 292 348
#     4  10  21  36  54  73  98 135 183 238 294 352
#     4   9  20  35  50  74 103 133 179 237 294 349
#
# _framework density 18.914097000000002
#
# number of rings (size 3 to 8) (size 9 to 14) (size 15 to 20)
#    0.000    2.000    0.000    3.000    0.000   15.500 
#    0.000    0.000    0.000    0.000    0.000    0.000 
#    0.000    0.000    0.000    0.000    0.000  530.000 
#
# Total GULP energy -267211.437124 kJ/mol
# GULP energy per Si atom -5566.904940 kJ/mol
# Density = 1.887105 g / cm^3
# Si number density = 18.914097 Si / 1000 Ang^3
#
#
#
# Elastic Constant Matrix: (Units=GPa)
#
#
# Indices 1 2 3 4 5 6 
#
# 1 39.5356 22.7116 47.1274 0.0000 0.0000 0.0000
# 2 22.7116 39.5356 47.1274 0.0000 0.0000 0.0000
# 3 47.1274 47.1274 126.5843 0.0000 0.0000 0.0000
# 4 0.0000 0.0000 0.0000 29.2690 0.0000 0.0000
# 5 0.0000 0.0000 0.0000 0.0000 29.2690 0.0000
# 6 0.0000 0.0000 0.0000 0.0000 0.0000 8.4120
#
#
#
# Elastic Compliance Matrix: (Units=1/GPa)
#
#
# Indices 1 2 3 4 5 6 
#
# 1 0.048131 -0.011307 -0.013710 0.000000 0.000000 0.000000
# 2 -0.011307 0.048131 -0.013710 0.000000 0.000000 0.000000
# 3 -0.013710 -0.013710 0.018108 0.000000 0.000000 0.000000
# 4 0.000000 0.000000 0.000000 0.034166 0.000000 0.000000
# 5 0.000000 0.000000 0.000000 0.000000 0.034166 0.000000
# 6 0.000000 0.000000 0.000000 0.000000 0.000000 0.118877
#
#
# Mechanical properties :
#
#
# Convention : Reuss Voigt Hill
#
# Bulk Modulus (GPa) = 27.08725 48.84314 37.96519
# Shear Modulus (GPa) = 12.77665 19.30263 16.03964
#
# Velocity S-wave (km/s) = 2.60188 3.19806 2.91525
# Velocity P-wave (km/s) = 4.83515 6.28621 5.60781
#
# Compressibility (1/GPa) = 0.03691774
#
# Stress axis : x y z
#
# Youngs Moduli (GPa) = 20.77646 20.77646 55.22401
#
# Poissons Ratio (x) = 0.23493 0.75710
# Poissons Ratio (y) = 0.23493 0.75710
# Poissons Ratio (z) = 0.28484 0.28484
#
# Static dielectric constant tensor:
#      x y z
#    x 1.713070 0.000000 0.000000 
#    y 0.000000 1.713070 0.000000 
#    z 0.000000 0.000000 1.735050 
# 
# From -- ./inp_files/2624.got.cif
#   From: 2010.05.17/outbox.cif.g08.bks.cpg/sg180_2_cif.got.tgz:2624.got - 2010.05.20 11:43:55.
