data_PCOD9583529
_publ_section_title
;
Structure prediction by ZEFSAII (Michael W. Deem and Ramdas Pophale) SiO2 
 PCOD9583529
Probable space group: P 65 2 2
;
_chemical_formula_sum "Si O2"
_cell_formula_units_Z 42
_cell_length_a 15.229922
_cell_length_b 15.229922
_cell_length_c 10.005447
_cell_angle_alpha 90.000000
_cell_angle_beta 90.000000
_cell_angle_gamma 120.000000
_cell_volume 2009.844630
_symmetry_space_group_name_H-M "P 65 2 2"
_symmetry_group_IT_number 179
_symmetry_cell_setting 'hexagonal'
loop_
_space_group_symop_operation_xyz
x,y,z
x-y,x,5/6+z
-y,x-y,2/3+z
-x,-y,1/2+z
-x+y,-x,1/3+z
y,-x+y,1/6+z
x-y,-y,-z
-x,-x+y,1/3-z
y,x,2/3-z
-y,-x,1/6-z
-x+y,y,1/2-z
x,x-y,5/6-z
loop_
_atom_site_type_symbol
_atom_site_label
_atom_site_fract_x
_atom_site_fract_y
_atom_site_fract_z
Si Si1 0.000000 0.817011 0.666667
Si Si2 0.236572 0.567679 0.126461
Si Si3 0.675030 0.107328 0.511247
Si Si4 0.135453 0.766020 0.865913
O O1 0.061796 0.786042 0.772558
O O2 0.916599 0.833198 0.750000
O O3 0.350774 0.649227 0.083334
O O4 0.256598 0.513196 0.250000
O O5 0.188417 0.638087 0.155300
O O6 0.164497 0.478698 0.028242
O O7 0.755301 0.133453 0.392172
O O8 0.727116 0.102844 0.649424
O O9 0.576256 0.000000 0.500000
#
# Coordination Sequence:
#
# PCOD9583529 Si02
#       4
#     6  12  12  12
#     4  12  28  54  74 106 138 184 246 310 368 418
#     4  12  21  42  67  98 147 191 227 282 348 432
#     4  11  23  41  68 103 139 184 235 283 349 426
#     4  11  24  45  70 102 143 179 238 297 351 428
#
# _framework density 20.897138999999999
#
# number of rings (size 3 to 8) (size 9 to 14) (size 15 to 20)
#    0.000    0.571    5.714    3.429    2.000    0.000 
#   12.857    0.000    0.000    0.000    0.000    0.000 
#    0.000    0.000    0.000    0.000    0.000    0.000 
#
# Total GULP energy -234083.621610 kJ/mol
# GULP energy per Si atom -5573.419562 kJ/mol
# Density = 2.084958 g / cm^3
# Si number density = 20.897139 Si / 1000 Ang^3
#
#
#
# Elastic Constant Matrix: (Units=GPa)
#
#
# Indices 1 2 3 4 5 6 
#
# 1 103.6870 48.7930 49.3248 0.0000 0.0000 0.0000
# 2 48.7930 103.6870 49.3248 0.0000 0.0000 0.0000
# 3 49.3248 49.3248 90.7252 0.0000 0.0000 0.0000
# 4 0.0000 0.0000 0.0000 27.4740 0.0000 0.0000
# 5 0.0000 0.0000 0.0000 0.0000 27.4740 0.0000
# 6 0.0000 0.0000 0.0000 0.0000 0.0000 27.4470
#
#
#
# Elastic Compliance Matrix: (Units=1/GPa)
#
#
# Indices 1 2 3 4 5 6 
#
# 1 0.014167 -0.004050 -0.005500 0.000000 0.000000 0.000000
# 2 -0.004050 0.014167 -0.005500 0.000000 0.000000 0.000000
# 3 -0.005500 -0.005500 0.017003 0.000000 0.000000 0.000000
# 4 0.000000 0.000000 0.000000 0.036398 0.000000 0.000000
# 5 0.000000 0.000000 0.000000 0.000000 0.036398 0.000000
# 6 0.000000 0.000000 0.000000 0.000000 0.000000 0.036434
#
#
# Mechanical properties :
#
#
# Convention : Reuss Voigt Hill
#
# Bulk Modulus (GPa) = 65.63585 65.88715 65.76150
# Shear Modulus (GPa) = 26.35105 26.52277 26.43691
#
# Velocity S-wave (km/s) = 3.55489 3.56646 3.56068
# Velocity P-wave (km/s) = 6.95175 6.96830 6.96003
#
# Compressibility (1/GPa) = 0.01523558
#
# Stress axis : x y z
#
# Youngs Moduli (GPa) = 70.58767 70.58767 58.81367
#
# Poissons Ratio (x) = 0.28589 0.32348
# Poissons Ratio (y) = 0.28589 0.32348
# Poissons Ratio (z) = 0.38824 0.38824
#
# Static dielectric constant tensor:
#      x y z
#    x 1.763750 0.000000 0.000000 
#    y 0.000000 1.763750 0.000000 
#    z 0.000000 0.000000 1.854600 
# 
# From -- ./inp_files/4074.got.cif
#   From: 2010.05.17/outbox.cif.g08.bks.cpg/sg179_3_cif.got.tgz:4074.got - 2010.05.20 11:37:33.
