data_PCOD9583943
_publ_section_title
;
Structure prediction by ZEFSAII (Michael W. Deem and Ramdas Pophale) SiO2 
 PCOD9583943
Probable space group: P 62 2 2
;
_chemical_formula_sum "Si O2"
_cell_formula_units_Z 57
_cell_length_a 14.914546
_cell_length_b 14.914546
_cell_length_c 15.063595
_cell_angle_alpha 90.000000
_cell_angle_beta 90.000000
_cell_angle_gamma 120.000000
_cell_volume 2901.879258
_symmetry_space_group_name_H-M "P 62 2 2"
_symmetry_group_IT_number 180
_symmetry_cell_setting 'hexagonal'
loop_
_space_group_symop_operation_xyz
x,y,z
x-y,x,1/3+z
-y,x-y,2/3+z
-x,-y,z
-x+y,-x,1/3+z
y,-x+y,2/3+z
x-y,-y,-z
-x,-x+y,1/3-z
y,x,2/3-z
-y,-x,2/3-z
-x+y,y,-z
x,x-y,1/3-z
loop_
_atom_site_type_symbol
_atom_site_label
_atom_site_fract_x
_atom_site_fract_y
_atom_site_fract_z
Si Si1 0.365393 0.053377 0.365548
Si Si2 0.625310 0.223633 0.904298
Si Si3 0.825412 0.650823 0.000000
Si Si4 0.146414 0.752928 0.529069
Si Si5 0.000000 0.500000 0.166667
Si Si6 0.286194 0.912785 0.836613
O O1 0.359089 0.148237 0.408951
O O2 0.405944 0.078225 0.264328
O O3 0.250690 0.949494 0.356587
O O4 0.449121 0.045179 0.429120
O O5 0.688328 0.311673 0.833334
O O6 0.504400 0.163767 0.887388
O O7 0.667346 0.143406 0.896478
O O8 0.636581 0.273161 0.000000
O O9 0.817296 0.595763 0.906749
O O10 0.025087 0.710568 0.534483
O O11 0.164242 0.835759 0.833334
#
# Coordination Sequence:
#
# PCOD9583943 Si02
#       6
#    12  12   6  12   3  12
#     4  11  24  41  67  97 133 175 225 283 344 420
#     4  11  25  40  60  95 135 174 227 278 338 413
#     4  10  22  40  60  95 128 168 211 272 344 402
#     4  11  22  38  67  90 127 173 220 279 335 404
#     4  12  24  40  68 108 140 172 228 284 364 412
#     4  10  24  43  63  93 132 179 227 278 344 415
#
# _framework density 19.642444000000001
#
# number of rings (size 3 to 8) (size 9 to 14) (size 15 to 20)
#    0.000    1.263    2.105    3.158    8.842    4.211 
#    0.000    0.000    0.000   15.158    0.000    0.000 
#    0.000    0.000    0.000    0.000    0.000    0.000 
#
# Total GULP energy -317607.994884 kJ/mol
# GULP energy per Si atom -5572.070086 kJ/mol
# Density = 1.959774 g / cm^3
# Si number density = 19.642444 Si / 1000 Ang^3
#
#
#
# Elastic Constant Matrix: (Units=GPa)
#
#
# Indices 1 2 3 4 5 6 
#
# 1 100.5419 69.4689 28.7716 0.0000 0.0000 0.0000
# 2 69.4689 100.5419 28.7716 0.0000 0.0000 0.0000
# 3 28.7716 28.7716 93.8481 0.0000 0.0000 0.0000
# 4 0.0000 0.0000 0.0000 18.1949 0.0000 0.0000
# 5 0.0000 0.0000 0.0000 0.0000 18.1949 0.0000
# 6 0.0000 0.0000 0.0000 0.0000 0.0000 15.5365
#
#
#
# Elastic Compliance Matrix: (Units=1/GPa)
#
#
# Indices 1 2 3 4 5 6 
#
# 1 0.019373 -0.012810 -0.002012 0.000000 0.000000 0.000000
# 2 -0.012810 0.019373 -0.002012 0.000000 0.000000 0.000000
# 3 -0.002012 -0.002012 0.011889 0.000000 0.000000 0.000000
# 4 0.000000 0.000000 0.000000 0.054960 0.000000 0.000000
# 5 0.000000 0.000000 0.000000 0.000000 0.054960 0.000000
# 6 0.000000 0.000000 0.000000 0.000000 0.000000 0.064365
#
#
# Mechanical properties :
#
#
# Convention : Reuss Voigt Hill
#
# Bulk Modulus (GPa) = 58.93802 60.99511 59.96657
# Shear Modulus (GPa) = 18.92196 21.57990 20.25093
#
# Velocity S-wave (km/s) = 3.10711 3.31816 3.21437
# Velocity P-wave (km/s) = 6.55307 6.76760 6.66120
#
# Compressibility (1/GPa) = 0.01696698
#
# Stress axis : x y z
#
# Youngs Moduli (GPa) = 51.61920 51.61920 84.10980
#
# Poissons Ratio (x) = 0.66122 0.16923
# Poissons Ratio (y) = 0.66122 0.16923
# Poissons Ratio (z) = 0.10386 0.10386
#
# Static dielectric constant tensor:
#      x y z
#    x 1.682490 0.000000 0.000000 
#    y 0.000000 1.682490 0.000000 
#    z 0.000000 0.000000 1.750460 
# 
# From -- ./inp_files/6144.got.cif
#   From: 2010.05.17/outbox.cif.g08.bks.cpg/sg180_4_cif.got.tgz:6144.got - 2010.05.20 11:43:55.
