data_PCOD9583487
_publ_section_title
;
Structure prediction by ZEFSAII (Michael W. Deem and Ramdas Pophale) SiO2 
 PCOD9583487
Probable space group: P 65 2 2
;
_chemical_formula_sum "Si O2"
_cell_formula_units_Z 30
_cell_length_a 19.214334
_cell_length_b 19.214334
_cell_length_c 7.576355
_cell_angle_alpha 90.000000
_cell_angle_beta 90.000000
_cell_angle_gamma 120.000000
_cell_volume 2422.376357
_symmetry_space_group_name_H-M "P 65 2 2"
_symmetry_group_IT_number 179
_symmetry_cell_setting 'hexagonal'
loop_
_space_group_symop_operation_xyz
x,y,z
x-y,x,5/6+z
-y,x-y,2/3+z
-x,-y,1/2+z
-x+y,-x,1/3+z
y,-x+y,1/6+z
x-y,-y,-z
-x,-x+y,1/3-z
y,x,2/3-z
-y,-x,1/6-z
-x+y,y,1/2-z
x,x-y,5/6-z
loop_
_atom_site_type_symbol
_atom_site_label
_atom_site_fract_x
_atom_site_fract_y
_atom_site_fract_z
Si Si1 0.294875 0.758643 0.774997
Si Si2 0.411410 0.822819 0.250000
Si Si3 0.081403 0.491274 0.584042
O O1 0.255480 0.744521 0.583334
O O2 0.377023 0.754045 0.750000
O O3 0.235057 0.684129 0.895518
O O4 0.324294 0.846731 0.851556
O O5 0.444614 0.876628 0.424284
O O6 0.061809 0.530905 0.416667
O O7 0.000000 0.420268 0.666667
#
# Coordination Sequence:
#
# PCOD9583487 Si02
#       3
#    12   6  12
#     4  11  18  28  44  61  76  98 135 172 209 253
#     4  12  18  30  48  60  76 102 142 178 204 254
#     4  11  21  30  41  58  82 105 127 164 227 272
#
# _framework density 12.384534
#
# number of rings (size 3 to 8) (size 9 to 14) (size 15 to 20)
#    0.000    0.800   12.000    1.200    0.000    0.000 
#    0.000    0.000    0.000    0.000    0.000    0.000 
#    0.000    0.000    0.000    0.000    0.000    0.000 
#
# Total GULP energy -167117.396561 kJ/mol
# GULP energy per Si atom -5570.579885 kJ/mol
# Density = 1.235635 g / cm^3
# Si number density = 12.384534 Si / 1000 Ang^3
#
#
#
# Elastic Constant Matrix: (Units=GPa)
#
#
# Indices 1 2 3 4 5 6 
#
# 1 53.5821 32.8898 25.4062 0.0000 0.0000 0.0000
# 2 32.8898 53.5821 25.4062 0.0000 0.0000 0.0000
# 3 25.4062 25.4062 90.9205 0.0000 0.0000 0.0000
# 4 0.0000 0.0000 0.0000 23.5512 0.0000 0.0000
# 5 0.0000 0.0000 0.0000 0.0000 23.5512 0.0000
# 6 0.0000 0.0000 0.0000 0.0000 0.0000 10.3462
#
#
#
# Elastic Compliance Matrix: (Units=1/GPa)
#
#
# Indices 1 2 3 4 5 6 
#
# 1 0.031082 -0.017245 -0.003866 0.000000 0.000000 0.000000
# 2 -0.017245 0.031082 -0.003866 0.000000 0.000000 0.000000
# 3 -0.003866 -0.003866 0.013159 0.000000 0.000000 0.000000
# 4 0.000000 0.000000 0.000000 0.042461 0.000000 0.000000
# 5 0.000000 0.000000 0.000000 0.000000 0.042461 0.000000
# 6 0.000000 0.000000 0.000000 0.000000 0.000000 0.096654
#
#
# Mechanical properties :
#
#
# Convention : Reuss Voigt Hill
#
# Bulk Modulus (GPa) = 39.42165 40.60991 40.01578
# Shear Modulus (GPa) = 15.85740 19.11520 17.48630
#
# Velocity S-wave (km/s) = 3.58218 3.93297 3.76166
# Velocity P-wave (km/s) = 7.00070 7.31344 7.15877
#
# Compressibility (1/GPa) = 0.02536677
#
# Stress axis : x y z
#
# Youngs Moduli (GPa) = 32.17322 32.17322 75.99137
#
# Poissons Ratio (x) = 0.55484 0.29381
# Poissons Ratio (y) = 0.55484 0.29381
# Poissons Ratio (z) = 0.12439 0.12439
#
# Static dielectric constant tensor:
#      x y z
#    x 1.403850 0.000000 0.000000 
#    y 0.000000 1.403850 0.000000 
#    z 0.000000 0.000000 1.460090 
# 
# From -- ./inp_files/2170.got.cif
#   From: 2010.05.17/outbox.cif.g08.bks.cpg/sg179_2_cif.got.tgz:2170.got - 2010.05.20 11:37:33.
