data_PCOD9583736
_publ_section_title
;
Structure prediction by ZEFSAII (Michael W. Deem and Ramdas Pophale) SiO2 
 PCOD9583736
Probable space group: P 62 2 2
;
_chemical_formula_sum "Si O2"
_cell_formula_units_Z 54
_cell_length_a 13.875019
_cell_length_b 13.875019
_cell_length_c 16.367533
_cell_angle_alpha 90.000000
_cell_angle_beta 90.000000
_cell_angle_gamma 120.000000
_cell_volume 2728.858583
_symmetry_space_group_name_H-M "P 62 2 2"
_symmetry_group_IT_number 180
_symmetry_cell_setting 'hexagonal'
loop_
_space_group_symop_operation_xyz
x,y,z
x-y,x,1/3+z
-y,x-y,2/3+z
-x,-y,z
-x+y,-x,1/3+z
y,-x+y,2/3+z
x-y,-y,-z
-x,-x+y,1/3-z
y,x,2/3-z
-y,-x,2/3-z
-x+y,y,-z
x,x-y,1/3-z
loop_
_atom_site_type_symbol
_atom_site_label
_atom_site_fract_x
_atom_site_fract_y
_atom_site_fract_z
Si Si1 0.356147 0.608888 0.745151
Si Si2 0.302791 0.151396 0.166667
Si Si3 0.893201 0.285974 0.272705
Si Si4 0.770341 0.139597 0.657415
Si Si5 0.119783 0.221847 0.185724
O O1 0.345066 0.654935 0.833334
O O2 0.353745 0.676873 0.666667
O O3 0.481012 0.627084 0.750634
O O4 0.265745 0.482202 0.725341
O O5 0.372944 0.178134 0.249871
O O6 0.220861 0.202940 0.164260
O O7 0.800785 0.199216 0.333334
O O8 0.887398 0.205172 0.199666
O O9 0.013446 0.345087 0.314823
O O10 0.870394 0.134107 0.611886
O O11 0.000000 0.115094 0.166667
#
# Coordination Sequence:
#
# PCOD9583736 Si02
#       5
#    12   6  12  12  12
#     4  11  24  41  66  92 121 160 215 270 317 367
#     4  12  23  38  58  92 134 164 203 248 326 400
#     4  10  19  39  62  90 118 158 212 262 304 356
#     4  11  23  38  62  88 126 166 204 258 318 375
#     4  10  21  37  61  89 125 168 210 254 308 379
#
# _framework density 19.788494
#
# number of rings (size 3 to 8) (size 9 to 14) (size 15 to 20)
#    0.000    1.333    4.444    1.667    1.556    0.889 
#    0.000    2.222    0.000    1.333    0.000    0.000 
#    0.000    0.000    0.000    0.000    0.000    0.000 
#
# Total GULP energy -301199.670381 kJ/mol
# GULP energy per Si atom -5577.771674 kJ/mol
# Density = 1.974345 g / cm^3
# Si number density = 19.788494 Si / 1000 Ang^3
#
#
#
# Elastic Constant Matrix: (Units=GPa)
#
#
# Indices 1 2 3 4 5 6 
#
# 1 52.3614 17.5797 26.8610 0.0000 0.0000 0.0000
# 2 17.5797 52.3614 26.8610 0.0000 0.0000 0.0000
# 3 26.8610 26.8610 154.7663 0.0000 0.0000 0.0000
# 4 0.0000 0.0000 0.0000 25.9091 0.0000 0.0000
# 5 0.0000 0.0000 0.0000 0.0000 25.9091 0.0000
# 6 0.0000 0.0000 0.0000 0.0000 0.0000 17.3909
#
#
#
# Elastic Compliance Matrix: (Units=1/GPa)
#
#
# Indices 1 2 3 4 5 6 
#
# 1 0.022624 -0.006127 -0.002863 0.000000 0.000000 0.000000
# 2 -0.006127 0.022624 -0.002863 0.000000 0.000000 0.000000
# 3 -0.002863 -0.002863 0.007455 0.000000 0.000000 0.000000
# 4 0.000000 0.000000 0.000000 0.038596 0.000000 0.000000
# 5 0.000000 0.000000 0.000000 0.000000 0.038596 0.000000
# 6 0.000000 0.000000 0.000000 0.000000 0.000000 0.057501
#
#
# Mechanical properties :
#
#
# Convention : Reuss Voigt Hill
#
# Bulk Modulus (GPa) = 34.48705 44.67694 39.58199
# Shear Modulus (GPa) = 22.64809 26.38766 24.51787
#
# Velocity S-wave (km/s) = 3.38673 3.65565 3.52376
# Velocity P-wave (km/s) = 5.72354 6.35961 6.04994
#
# Compressibility (1/GPa) = 0.02899639
#
# Stress axis : x y z
#
# Youngs Moduli (GPa) = 44.20115 44.20115 134.13427
#
# Poissons Ratio (x) = 0.27082 0.38405
# Poissons Ratio (y) = 0.27082 0.38405
# Poissons Ratio (z) = 0.12656 0.12656
#
# Static dielectric constant tensor:
#      x y z
#    x 1.685610 0.000000 0.000000 
#    y 0.000000 1.685610 0.000000 
#    z 0.000000 0.000000 2.571060 
# 
# From -- ./inp_files/5953.got.cif
#   From: 2010.05.17/outbox.cif.g08.bks.cpg/sg180_3_cif.got.tgz:5953.got - 2010.05.20 11:43:55.
