data_PCOD9583327
_publ_section_title
;
Structure prediction by ZEFSAII (Michael W. Deem and Ramdas Pophale) SiO2 
 PCOD9583327
Probable space group: P 65 2 2
;
_chemical_formula_sum "Si O2"
_cell_formula_units_Z 30
_cell_length_a 13.752528
_cell_length_b 13.752528
_cell_length_c 8.134944
_cell_angle_alpha 90.000000
_cell_angle_beta 90.000000
_cell_angle_gamma 120.000000
_cell_volume 1332.448018
_symmetry_space_group_name_H-M "P 65 2 2"
_symmetry_group_IT_number 179
_symmetry_cell_setting 'hexagonal'
loop_
_space_group_symop_operation_xyz
x,y,z
x-y,x,5/6+z
-y,x-y,2/3+z
-x,-y,1/2+z
-x+y,-x,1/3+z
y,-x+y,1/6+z
x-y,-y,-z
-x,-x+y,1/3-z
y,x,2/3-z
-y,-x,1/6-z
-x+y,y,1/2-z
x,x-y,5/6-z
loop_
_atom_site_type_symbol
_atom_site_label
_atom_site_fract_x
_atom_site_fract_y
_atom_site_fract_z
Si Si1 0.205534 0.205534 0.333334
Si Si2 0.386229 0.000000 0.000000
Si Si3 0.843349 0.421675 0.416667
Si Si4 0.799144 0.594960 0.948581
O O1 0.185006 0.092503 0.416667
O O2 0.233053 0.306288 0.460656
O O3 0.417517 0.923299 0.110683
O O4 0.370417 0.087671 0.115985
O O5 0.773744 0.295754 0.353356
O O6 0.791157 0.582314 0.750000
#
# Coordination Sequence:
#
# PCOD9583327 Si02
#       4
#     6   6   6  12
#     4  10  21  39  66  98 138 180 224 283 351 424
#     4  12  25  47  70 104 146 186 242 307 365 432
#     4  12  24  44  70 102 132 190 242 294 364 436
#     4  11  25  47  71  99 145 190 235 301 368 430
#
# _framework density 22.514949000000001
#
# number of rings (size 3 to 8) (size 9 to 14) (size 15 to 20)
#    0.000    0.800    0.000    9.600    0.000    1.600 
#   21.600    0.000    0.000    0.000    0.000    0.000 
#    0.000    0.000    0.000    0.000    0.000    0.000 
#
# Total GULP energy -167429.372796 kJ/mol
# GULP energy per Si atom -5580.979093 kJ/mol
# Density = 2.246370 g / cm^3
# Si number density = 22.514949 Si / 1000 Ang^3
#
#
#
# Elastic Constant Matrix: (Units=GPa)
#
#
# Indices 1 2 3 4 5 6 
#
# 1 143.6531 48.2647 60.9153 0.0000 0.0000 0.0000
# 2 48.2647 143.6531 60.9153 0.0000 0.0000 0.0000
# 3 60.9153 60.9153 140.9673 0.0000 0.0000 0.0000
# 4 0.0000 0.0000 0.0000 48.0250 0.0000 0.0000
# 5 0.0000 0.0000 0.0000 0.0000 48.0250 0.0000
# 6 0.0000 0.0000 0.0000 0.0000 0.0000 47.6942
#
#
#
# Elastic Compliance Matrix: (Units=1/GPa)
#
#
# Indices 1 2 3 4 5 6 
#
# 1 0.008832 -0.001652 -0.003103 0.000000 0.000000 0.000000
# 2 -0.001652 0.008832 -0.003103 0.000000 0.000000 0.000000
# 3 -0.003103 -0.003103 0.009775 0.000000 0.000000 0.000000
# 4 0.000000 0.000000 0.000000 0.020823 0.000000 0.000000
# 5 0.000000 0.000000 0.000000 0.000000 0.020823 0.000000
# 6 0.000000 0.000000 0.000000 0.000000 0.000000 0.020967
#
#
# Mechanical properties :
#
#
# Convention : Reuss Voigt Hill
#
# Bulk Modulus (GPa) = 85.28905 85.38491 85.33698
# Shear Modulus (GPa) = 45.58989 45.96070 45.77530
#
# Velocity S-wave (km/s) = 4.50474 4.52302 4.51389
# Velocity P-wave (km/s) = 8.06351 8.07979 8.07165
#
# Compressibility (1/GPa) = 0.01172483
#
# Stress axis : x y z
#
# Youngs Moduli (GPa) = 113.22684 113.22684 102.29788
#
# Poissons Ratio (x) = 0.18701 0.31740
# Poissons Ratio (y) = 0.18701 0.31740
# Poissons Ratio (z) = 0.35131 0.35131
#
# Static dielectric constant tensor:
#      x y z
#    x 1.841430 0.000000 0.000000 
#    y 0.000000 1.841430 0.000000 
#    z 0.000000 0.000000 1.720900 
# 
# From -- ./inp_files/2212.got.cif
#   From: 2010.05.17/outbox.cif.g08.bks.cpg/sg179_2_cif.got.tgz:2212.got - 2010.05.20 11:37:33.
