data_PCOD9583146
_publ_section_title
;
Structure prediction by ZEFSAII (Michael W. Deem and Ramdas Pophale) SiO2 
 PCOD9583146
Probable space group: P 65 2 2
;
_chemical_formula_sum "Si O2"
_cell_formula_units_Z 54
_cell_length_a 14.513625
_cell_length_b 14.513625
_cell_length_c 16.461162
_cell_angle_alpha 90.000000
_cell_angle_beta 90.000000
_cell_angle_gamma 120.000000
_cell_volume 3002.914148
_symmetry_space_group_name_H-M "P 65 2 2"
_symmetry_group_IT_number 179
_symmetry_cell_setting 'hexagonal'
loop_
_space_group_symop_operation_xyz
x,y,z
x-y,x,5/6+z
-y,x-y,2/3+z
-x,-y,1/2+z
-x+y,-x,1/3+z
y,-x+y,1/6+z
x-y,-y,-z
-x,-x+y,1/3-z
y,x,2/3-z
-y,-x,1/6-z
-x+y,y,1/2-z
x,x-y,5/6-z
loop_
_atom_site_type_symbol
_atom_site_label
_atom_site_fract_x
_atom_site_fract_y
_atom_site_fract_z
Si Si1 0.398410 0.262512 0.208292
Si Si2 0.938218 0.938218 0.833334
Si Si3 0.411541 0.890582 0.051684
Si Si4 0.294379 0.507444 0.624878
Si Si5 0.297967 0.202983 0.492954
O O1 0.494003 0.362299 0.255210
O O2 0.428023 0.249123 0.117159
O O3 0.304232 0.289491 0.198390
O O4 0.361070 0.156412 0.260665
O O5 0.991810 0.995905 0.916667
O O6 0.925364 0.821649 0.836375
O O7 0.350531 0.877049 0.138142
O O8 0.321537 0.795371 0.998258
O O9 0.459130 0.000000 0.000000
O O10 0.385054 0.614947 0.583334
O O11 0.347174 0.173587 0.416667
#
# Coordination Sequence:
#
# PCOD9583146 Si02
#       5
#    12   6  12  12  12
#     4  11  22  36  62  90 121 157 206 248 307 372
#     4  10  18  34  56  80 124 158 182 238 288 344
#     4  10  21  39  61  85 120 157 201 254 305 367
#     4   9  22  41  58  84 120 159 198 254 312 364
#     4  11  19  34  58  90 122 155 196 253 299 354
#
# _framework density 17.982531999999999
#
# number of rings (size 3 to 8) (size 9 to 14) (size 15 to 20)
#    0.000    1.778    4.444    1.333    3.111    2.667 
#    0.000    0.000    7.333    0.000    0.000    0.000 
#    0.000    0.000    0.000    0.000    0.000    0.000 
#
# Total GULP energy -300935.014972 kJ/mol
# GULP energy per Si atom -5572.870648 kJ/mol
# Density = 1.794160 g / cm^3
# Si number density = 17.982532 Si / 1000 Ang^3
#
#
#
# Elastic Constant Matrix: (Units=GPa)
#
#
# Indices 1 2 3 4 5 6 
#
# 1 51.2794 16.2449 31.3333 0.0000 0.0000 0.0000
# 2 16.2449 51.2794 31.3333 0.0000 0.0000 0.0000
# 3 31.3333 31.3333 144.8536 0.0000 0.0000 0.0000
# 4 0.0000 0.0000 0.0000 38.0658 0.0000 0.0000
# 5 0.0000 0.0000 0.0000 0.0000 38.0658 0.0000
# 6 0.0000 0.0000 0.0000 0.0000 0.0000 17.5173
#
#
#
# Elastic Compliance Matrix: (Units=1/GPa)
#
#
# Indices 1 2 3 4 5 6 
#
# 1 0.023536 -0.005007 -0.004008 0.000000 0.000000 0.000000
# 2 -0.005007 0.023536 -0.004008 0.000000 0.000000 0.000000
# 3 -0.004008 -0.004008 0.008637 0.000000 0.000000 0.000000
# 4 0.000000 0.000000 0.000000 0.026270 0.000000 0.000000
# 5 0.000000 0.000000 0.000000 0.000000 0.026270 0.000000
# 6 0.000000 0.000000 0.000000 0.000000 0.000000 0.057087
#
#
# Mechanical properties :
#
#
# Convention : Reuss Voigt Hill
#
# Bulk Modulus (GPa) = 33.71127 45.02615 39.36871
# Shear Modulus (GPa) = 24.84210 29.96317 27.40263
#
# Velocity S-wave (km/s) = 3.72083 4.08639 3.90788
# Velocity P-wave (km/s) = 6.10301 6.88171 6.50403
#
# Compressibility (1/GPa) = 0.02966367
#
# Stress axis : x y z
#
# Youngs Moduli (GPa) = 42.48768 42.48768 115.77437
#
# Poissons Ratio (x) = 0.21274 0.46403
# Poissons Ratio (y) = 0.21274 0.46403
# Poissons Ratio (z) = 0.17029 0.17029
#
# Static dielectric constant tensor:
#      x y z
#    x 1.604690 0.000000 0.000000 
#    y 0.000000 1.604690 0.000000 
#    z 0.000000 0.000000 1.662880 
# 
# From -- ./inp_files/6634.got.cif
#   From: 2010.05.17/outbox.cif.g08.bks.cpg/sg179_4_cif.got.tgz:6634.got - 2010.05.20 11:37:33.
