data_PCOD9583775
_publ_section_title
;
Structure prediction by ZEFSAII (Michael W. Deem and Ramdas Pophale) SiO2 
 PCOD9583775
Probable space group: P 62 2 2
;
_chemical_formula_sum "Si O2"
_cell_formula_units_Z 75
_cell_length_a 11.909107
_cell_length_b 11.909107
_cell_length_c 32.765878
_cell_angle_alpha 90.000000
_cell_angle_beta 90.000000
_cell_angle_gamma 120.000000
_cell_volume 4024.489848
_symmetry_space_group_name_H-M "P 62 2 2"
_symmetry_group_IT_number 180
_symmetry_cell_setting 'hexagonal'
loop_
_space_group_symop_operation_xyz
x,y,z
x-y,x,1/3+z
-y,x-y,2/3+z
-x,-y,z
-x+y,-x,1/3+z
y,-x+y,2/3+z
x-y,-y,-z
-x,-x+y,1/3-z
y,x,2/3-z
-y,-x,2/3-z
-x+y,y,-z
x,x-y,1/3-z
loop_
_atom_site_type_symbol
_atom_site_label
_atom_site_fract_x
_atom_site_fract_y
_atom_site_fract_z
Si Si1 0.500000 0.000000 0.788256
Si Si2 0.303909 0.273969 0.181984
Si Si3 0.140810 0.605440 0.755949
Si Si4 0.000000 0.500000 0.166667
Si Si5 0.185384 0.761696 0.116496
Si Si6 0.349698 0.405030 0.699118
Si Si7 0.567422 0.191116 0.285920
Si Si8 0.400989 0.200495 0.666667
O O1 0.610889 0.996968 0.815748
O O2 0.580870 0.118283 0.757175
O O3 0.259436 0.129718 0.166667
O O4 0.409859 0.300594 0.217365
O O5 0.192398 0.301602 0.198452
O O6 0.200231 0.536504 0.783986
O O7 0.246733 0.675630 0.721544
O O8 0.000000 0.500000 0.739941
O O9 0.092691 0.628955 0.140291
O O10 0.142248 0.738733 0.069115
O O11 0.500000 0.500000 0.712486
O O12 0.345143 0.466192 0.655766
O O13 0.325954 0.263274 0.688325
O O14 0.698729 0.198525 0.300416
#
# Coordination Sequence:
#
# PCOD9583775 Si02
#       8
#     6  12  12   3  12  12  12   6
#     4  12  20  35  64  94 127 169 216 256 325 386
#     4  11  23  40  63  96 132 172 214 266 327 398
#     4  10  21  38  61  93 130 163 198 266 326 378
#     4  12  28  38  62  96 120 172 208 260 338 376
#     4  11  24  41  60  93 130 165 209 272 321 387
#     4  10  20  40  56  93 129 161 217 266 321 376
#     4  11  21  35  63  94 124 168 210 259 324 382
#     4  10  20  36  59  90 125 166 212 266 310 378
#
# _framework density 18.635902999999999
#
# number of rings (size 3 to 8) (size 9 to 14) (size 15 to 20)
#    0.000    1.280    7.200    1.920    3.360    0.000 
#    0.000    9.600    0.000    1.920    0.000   10.080 
#    0.000    0.000    0.000    0.000    0.000    0.000 
#
# Total GULP energy -418107.346170 kJ/mol
# GULP energy per Si atom -5574.764616 kJ/mol
# Density = 1.859349 g / cm^3
# Si number density = 18.635903 Si / 1000 Ang^3
#
#
#
# Elastic Constant Matrix: (Units=GPa)
#
#
# Indices 1 2 3 4 5 6 
#
# 1 88.5691 30.3356 26.0111 0.0000 0.0000 0.0000
# 2 30.3356 88.5691 26.0111 0.0000 0.0000 0.0000
# 3 26.0111 26.0111 79.0219 0.0000 0.0000 0.0000
# 4 0.0000 0.0000 0.0000 24.9202 0.0000 0.0000
# 5 0.0000 0.0000 0.0000 0.0000 24.9202 0.0000
# 6 0.0000 0.0000 0.0000 0.0000 0.0000 29.1167
#
#
#
# Elastic Compliance Matrix: (Units=1/GPa)
#
#
# Indices 1 2 3 4 5 6 
#
# 1 0.013499 -0.003674 -0.003234 0.000000 0.000000 0.000000
# 2 -0.003674 0.013499 -0.003234 0.000000 0.000000 0.000000
# 3 -0.003234 -0.003234 0.014784 0.000000 0.000000 0.000000
# 4 0.000000 0.000000 0.000000 0.040128 0.000000 0.000000
# 5 0.000000 0.000000 0.000000 0.000000 0.040128 0.000000
# 6 0.000000 0.000000 0.000000 0.000000 0.000000 0.034344
#
#
# Mechanical properties :
#
#
# Convention : Reuss Voigt Hill
#
# Bulk Modulus (GPa) = 46.51665 46.76395 46.64030
# Shear Modulus (GPa) = 27.19889 27.37824 27.28857
#
# Velocity S-wave (km/s) = 3.82447 3.83706 3.83077
# Velocity P-wave (km/s) = 6.67211 6.69168 6.68190
#
# Compressibility (1/GPa) = 0.02149768
#
# Stress axis : x y z
#
# Youngs Moduli (GPa) = 74.08153 74.08153 67.64171
#
# Poissons Ratio (x) = 0.27215 0.21876
# Poissons Ratio (y) = 0.27215 0.21876
# Poissons Ratio (z) = 0.23958 0.23958
#
# Static dielectric constant tensor:
#      x y z
#    x 1.673310 0.000000 0.000000 
#    y 0.000000 1.673310 0.000000 
#    z 0.000000 0.000000 1.683020 
# 
# From -- ./inp_files/12407.got.cif
#   From: 2010.05.17/outbox.cif.g08.bks.cpg/sg180_7_cif.got.tgz:12407.got - 2010.05.20 11:43:55.
