data_PCOD9583254
_publ_section_title
;
Structure prediction by ZEFSAII (Michael W. Deem and Ramdas Pophale) SiO2 
 PCOD9583254
Probable space group: P 65 2 2
;
_chemical_formula_sum "Si O2"
_cell_formula_units_Z 84
_cell_length_a 15.162168
_cell_length_b 15.162168
_cell_length_c 23.121340
_cell_angle_alpha 90.000000
_cell_angle_beta 90.000000
_cell_angle_gamma 120.000000
_cell_volume 4603.267794
_symmetry_space_group_name_H-M "P 65 2 2"
_symmetry_group_IT_number 179
_symmetry_cell_setting 'hexagonal'
loop_
_space_group_symop_operation_xyz
x,y,z
x-y,x,5/6+z
-y,x-y,2/3+z
-x,-y,1/2+z
-x+y,-x,1/3+z
y,-x+y,1/6+z
x-y,-y,-z
-x,-x+y,1/3-z
y,x,2/3-z
-y,-x,1/6-z
-x+y,y,1/2-z
x,x-y,5/6-z
loop_
_atom_site_type_symbol
_atom_site_label
_atom_site_fract_x
_atom_site_fract_y
_atom_site_fract_z
Si Si1 0.353406 0.390863 0.520758
Si Si2 0.469958 0.745099 0.239021
Si Si3 0.163883 0.215566 0.457965
Si Si4 0.399716 0.190649 0.984820
Si Si5 0.565478 0.512434 0.456597
Si Si6 0.429406 0.429406 0.833334
Si Si7 0.000000 0.873947 0.666667
Si Si8 0.713991 0.999703 0.688961
O O1 0.315674 0.473158 0.529985
O O2 0.275557 0.300319 0.479069
O O3 0.469987 0.448755 0.498874
O O4 0.334348 0.334767 0.582533
O O5 0.354464 0.708927 0.250000
O O6 0.520351 0.788395 0.301981
O O7 0.476824 0.648785 0.216602
O O8 0.123253 0.102967 0.485051
O O9 0.165676 0.197430 0.389637
O O10 0.088002 0.256742 0.476468
O O11 0.417499 0.208750 0.916667
O O12 0.409817 0.093550 0.997351
O O13 0.296978 0.188524 0.005461
O O14 0.522236 0.512509 0.392777
O O15 0.638876 0.629025 0.476819
#
# Coordination Sequence:
#
# PCOD9583254 Si02
#       8
#    12  12  12  12  12   6   6  12
#     4  11  22  40  68  89 122 174 216 265 326 373
#     4  10  22  40  61  91 124 161 210 265 313 375
#     4  11  22  43  64  92 127 170 212 273 319 390
#     4  10  20  36  60  86 125 160 196 252 319 374
#     4  11  22  40  63  90 129 160 215 261 313 390
#     4  10  22  36  56  96 126 162 198 253 319 390
#     4  10  24  42  64  90 130 166 216 261 329 384
#     4  11  21  39  64  92 123 162 213 259 318 383
#
# _framework density 18.247907000000001
#
# number of rings (size 3 to 8) (size 9 to 14) (size 15 to 20)
#    0.000    1.429    4.286    2.143    0.000    1.143 
#    5.143    4.286    0.000    0.000    0.000    0.000 
#    0.000    0.000    0.000    0.000    0.000    0.000 
#
# Total GULP energy -467915.287411 kJ/mol
# GULP energy per Si atom -5570.420088 kJ/mol
# Density = 1.820637 g / cm^3
# Si number density = 18.247907 Si / 1000 Ang^3
#
#
#
# Elastic Constant Matrix: (Units=GPa)
#
#
# Indices 1 2 3 4 5 6 
#
# 1 -1227.2850 1330.0829 20.7393 0.0000 0.0000 0.0001
# 2 1330.0829-1227.2850 20.7393 0.0000 0.0000 -0.0001
# 3 20.7393 20.7393 106.1840 0.0000 0.0000 0.0000
# 4 0.0000 0.0000 0.0000 19.5112 0.0000 0.0000
# 5 0.0000 0.0000 0.0000 0.0000 19.5112 0.0000
# 6 0.0001 -0.0001 0.0000 0.0000 0.0000-1278.6840
#
#
#
# Elastic Compliance Matrix: (Units=1/GPa)
#
#
# Indices 1 2 3 4 5 6 
#
# 1 0.005085 0.005476 -0.002063 0.000000 0.000000 0.000000
# 2 0.005476 0.005085 -0.002063 0.000000 0.000000 0.000000
# 3 -0.002063 -0.002063 0.010223 0.000000 0.000000 0.000000
# 4 0.000000 0.000000 0.000000 0.051253 0.000000 0.000000
# 5 0.000000 0.000000 0.000000 0.000000 0.051253 0.000000
# 6 0.000000 0.000000 0.000000 0.000000 0.000000 -0.000782
#
#
# Mechanical properties :
#
#
# Convention : Reuss Voigt Hill
#
# Bulk Modulus (GPa) = 43.30270 43.85970 43.58120
# Shear Modulus (GPa) = 39.33521 -495.92885 -228.29682
#
# Velocity S-wave (km/s) = 4.64788 -16.50342 -11.19733
# Velocity P-wave (km/s) = 7.25159 18.41366 11.96824
#
# Compressibility (1/GPa) = 0.02309325
#
# Stress axis : x y z
#
# Youngs Moduli (GPa) = 196.67577 196.67577 97.81573
#
# Poissons Ratio (x) = -1.07691 0.20175
# Poissons Ratio (y) = -1.07691 0.20175
# Poissons Ratio (z) = 0.40565 0.40565
#
# Static dielectric constant tensor:
#      x y z
#    x 1.625040 0.000000 0.000000 
#    y 0.000000 1.625040 0.000000 
#    z 0.000000 0.000000 1.672540 
# 
# From -- ./inp_files/8410.got.cif
#   From: 2010.05.17/outbox.cif.g08.bks.cpg/sg179_5_cif.got.tgz:8410.got - 2010.05.20 11:37:33.
