data_PCOD9583890
_publ_section_title
;
Structure prediction by ZEFSAII (Michael W. Deem and Ramdas Pophale) SiO2 
 PCOD9583890
Probable space group: P 62 2 2
;
_chemical_formula_sum "Si O2"
_cell_formula_units_Z 42
_cell_length_a 11.618773
_cell_length_b 11.618773
_cell_length_c 16.444042
_cell_angle_alpha 90.000000
_cell_angle_beta 90.000000
_cell_angle_gamma 120.000000
_cell_volume 1922.470758
_symmetry_space_group_name_H-M "P 62 2 2"
_symmetry_group_IT_number 180
_symmetry_cell_setting 'hexagonal'
loop_
_space_group_symop_operation_xyz
x,y,z
x-y,x,1/3+z
-y,x-y,2/3+z
-x,-y,z
-x+y,-x,1/3+z
y,-x+y,2/3+z
x-y,-y,-z
-x,-x+y,1/3-z
y,x,2/3-z
-y,-x,2/3-z
-x+y,y,-z
x,x-y,1/3-z
loop_
_atom_site_type_symbol
_atom_site_label
_atom_site_fract_x
_atom_site_fract_y
_atom_site_fract_z
Si Si1 0.334407 0.665594 0.333334
Si Si2 0.307783 0.006302 0.588244
Si Si3 0.313364 0.419881 0.084322
Si Si4 0.610698 0.717959 0.403292
O O1 0.225500 0.657764 0.397728
O O2 0.470735 0.706843 0.379831
O O3 0.376956 0.009599 0.673686
O O4 0.325566 0.152595 0.584516
O O5 0.367024 0.000000 0.500000
O O6 0.163364 0.876422 0.592269
O O7 0.348220 0.402124 0.175431
O O8 0.650924 0.650924 0.333334
#
# Coordination Sequence:
#
# PCOD9583890 Si02
#       4
#     6  12  12  12
#     4  10  21  40  56  84 119 162 208 244 298 376
#     4   8  17  37  63  85 110 148 203 251 288 355
#     4   9  20  39  63  87 114 157 209 252 299 359
#     4  11  22  38  56  90 127 156 196 250 318 377
#
# _framework density 21.846885
#
# number of rings (size 3 to 8) (size 9 to 14) (size 15 to 20)
#    0.000    2.857    0.000    1.286    0.000    5.714 
#   15.429   14.286    0.000   13.714    0.000    0.000 
#    0.000    0.000    0.000    0.000    0.000    0.000 
#
# Total GULP energy -233939.712349 kJ/mol
# GULP energy per Si atom -5569.993151 kJ/mol
# Density = 2.179716 g / cm^3
# Si number density = 21.846885 Si / 1000 Ang^3
#
#
#
# Elastic Constant Matrix: (Units=GPa)
#
#
# Indices 1 2 3 4 5 6 
#
# 1 75.0849 12.5412 53.1539 0.0000 0.0000 0.0000
# 2 12.5412 75.0849 53.1539 0.0000 0.0000 0.0000
# 3 53.1539 53.1539 272.8462 0.0000 0.0000 0.0000
# 4 0.0000 0.0000 0.0000 -314.4710 0.0000 0.0000
# 5 0.0000 0.0000 0.0000 0.0000 -314.4710 0.0000
# 6 0.0000 0.0000 0.0000 0.0000 0.0000 31.2718
#
#
#
# Elastic Compliance Matrix: (Units=1/GPa)
#
#
# Indices 1 2 3 4 5 6 
#
# 1 0.015466 -0.000522 -0.002911 0.000000 0.000000 0.000000
# 2 -0.000522 0.015466 -0.002911 0.000000 0.000000 0.000000
# 3 -0.002911 -0.002911 0.004799 0.000000 0.000000 0.000000
# 4 0.000000 0.000000 0.000000 -0.003180 0.000000 0.000000
# 5 0.000000 0.000000 0.000000 0.000000 -0.003180 0.000000
# 6 0.000000 0.000000 0.000000 0.000000 0.000000 0.031978
#
#
# Mechanical properties :
#
#
# Convention : Reuss Voigt Hill
#
# Bulk Modulus (GPa) = 43.39824 73.41263 58.40544
# Shear Modulus (GPa) = 61.18391 -99.25623 -19.03616
#
# Velocity S-wave (km/s) = 5.29779 -6.74769 -2.95506
# Velocity P-wave (km/s) = 7.57165 5.19925 3.89216
#
# Compressibility (1/GPa) = 0.02304241
#
# Stress axis : x y z
#
# Youngs Moduli (GPa) = 64.65598 64.65598 208.36008
#
# Poissons Ratio (x) = 0.03377 0.60660
# Poissons Ratio (y) = 0.03377 0.60660
# Poissons Ratio (z) = 0.18823 0.18823
#
# Static dielectric constant tensor:
#      x y z
#    x 1.816810 0.000000 0.000000 
#    y 0.000000 1.816810 0.000000 
#    z 0.000000 0.000000 1.867880 
# 
# From -- ./inp_files/7208.got.cif
#   From: 2010.05.17/outbox.cif.g08.bks.cpg/sg180_4_cif.got.tgz:7208.got - 2010.05.20 11:43:55.
