data_PCOD9583023
_publ_section_title
;
Structure prediction by ZEFSAII (Michael W. Deem and Ramdas Pophale) SiO2 
 PCOD9583023
Probable space group: P 61 2 2
;
_chemical_formula_sum "Si O2"
_cell_formula_units_Z 42
_cell_length_a 17.878701
_cell_length_b 17.878701
_cell_length_c 6.845839
_cell_angle_alpha 90.000000
_cell_angle_beta 90.000000
_cell_angle_gamma 120.000000
_cell_volume 1895.087363
_symmetry_space_group_name_H-M "P 61 2 2"
_symmetry_group_IT_number 178
_symmetry_cell_setting 'hexagonal'
loop_
_space_group_symop_operation_xyz
x,y,z
x-y,x,1/6+z
-y,x-y,1/3+z
-x,-y,1/2+z
-x+y,-x,2/3+z
y,-x+y,5/6+z
x-y,-y,-z
-x,-x+y,2/3-z
y,x,1/3-z
-y,-x,5/6-z
-x+y,y,1/2-z
x,x-y,1/6-z
loop_
_atom_site_type_symbol
_atom_site_label
_atom_site_fract_x
_atom_site_fract_y
_atom_site_fract_z
Si Si1 0.139749 0.697491 0.317150
Si Si2 0.387977 0.916434 0.139686
Si Si3 0.908325 0.251037 0.436605
Si Si4 0.377135 0.754270 0.750000
O O1 0.221553 0.778448 0.416667
O O2 0.070529 0.647703 0.488842
O O3 0.181188 0.646779 0.201607
O O4 0.097156 0.729125 0.158719
O O5 0.436269 0.872538 0.250000
O O6 0.302743 0.866849 0.010172
O O7 0.449945 0.000000 0.000000
O O8 0.849923 0.150078 0.416667
O O9 0.000000 0.289648 0.333334
O O10 0.383684 0.691842 0.583334
#
# Coordination Sequence:
#
# PCOD9583023 Si02
#       4
#    12  12  12   6
#     4  12  25  44  67  98 138 186 248 305 367 445
#     4  11  27  43  66  98 140 186 245 294 361 431
#     4  11  25  47  72 104 145 185 245 307 384 456
#     4  12  26  42  66  94 142 200 254 314 366 434
#
# _framework density 22.162565000000001
#
# number of rings (size 3 to 8) (size 9 to 14) (size 15 to 20)
#    0.000    0.571    4.286    2.571   12.000    0.000 
#    0.000    0.000    0.000    0.000    0.000    0.000 
#   17.143    0.000    0.000    0.000    0.000    0.000 
#
# Total GULP energy -233899.120292 kJ/mol
# GULP energy per Si atom -5569.026674 kJ/mol
# Density = 2.211212 g / cm^3
# Si number density = 22.162565 Si / 1000 Ang^3
#
#
#
# Elastic Constant Matrix: (Units=GPa)
#
#
# Indices 1 2 3 4 5 6 
#
# 1 75.3520 38.4458 37.2445 0.0000 0.0000 0.0000
# 2 38.4458 75.3520 37.2445 0.0000 0.0000 0.0000
# 3 37.2445 37.2445 193.9553 0.0000 0.0000 0.0000
# 4 0.0000 0.0000 0.0000 43.4119 0.0000 0.0000
# 5 0.0000 0.0000 0.0000 0.0000 43.4119 0.0000
# 6 0.0000 0.0000 0.0000 0.0000 0.0000 18.4531
#
#
#
# Elastic Compliance Matrix: (Units=1/GPa)
#
#
# Indices 1 2 3 4 5 6 
#
# 1 0.018573 -0.008522 -0.001930 0.000000 0.000000 0.000000
# 2 -0.008522 0.018573 -0.001930 0.000000 0.000000 0.000000
# 3 -0.001930 -0.001930 0.005897 0.000000 0.000000 0.000000
# 4 0.000000 0.000000 0.000000 0.023035 0.000000 0.000000
# 5 0.000000 0.000000 0.000000 0.000000 0.023035 0.000000
# 6 0.000000 0.000000 0.000000 0.000000 0.000000 0.054191
#
#
# Mechanical properties :
#
#
# Convention : Reuss Voigt Hill
#
# Bulk Modulus (GPa) = 54.70856 63.39209 59.05033
# Shear Modulus (GPa) = 28.70873 36.50370 32.60621
#
# Velocity S-wave (km/s) = 3.60303 4.06284 3.83982
# Velocity P-wave (km/s) = 6.48443 7.11858 6.80889
#
# Compressibility (1/GPa) = 0.01827867
#
# Stress axis : x y z
#
# Youngs Moduli (GPa) = 53.84081 53.84081 169.57609
#
# Poissons Ratio (x) = 0.45885 0.32729
# Poissons Ratio (y) = 0.45885 0.32729
# Poissons Ratio (z) = 0.10391 0.10391
#
# Static dielectric constant tensor:
#      x y z
#    x 1.939840 0.000000 0.000000 
#    y 0.000000 1.939840 0.000000 
#    z 0.000000 0.000000 2.019030 
# 
# From -- ./inp_files/778.got.cif
#   From: 2010.05.17/outbox.cif.g08.bks.cpg/sg178_1_cif.got.tgz:778.got - 2010.05.20 11:30:59.
