data_PCOD9583627
_publ_section_title
;
Structure prediction by ZEFSAII (Michael W. Deem and Ramdas Pophale) SiO2 
 PCOD9583627
Probable space group: P 62 2 2
;
_chemical_formula_sum "Si O2"
_cell_formula_units_Z 66
_cell_length_a 11.657020
_cell_length_b 11.657020
_cell_length_c 31.152930
_cell_angle_alpha 90.000000
_cell_angle_beta 90.000000
_cell_angle_gamma 120.000000
_cell_volume 3666.102592
_symmetry_space_group_name_H-M "P 62 2 2"
_symmetry_group_IT_number 180
_symmetry_cell_setting 'hexagonal'
loop_
_space_group_symop_operation_xyz
x,y,z
x-y,x,1/3+z
-y,x-y,2/3+z
-x,-y,z
-x+y,-x,1/3+z
y,-x+y,2/3+z
x-y,-y,-z
-x,-x+y,1/3-z
y,x,2/3-z
-y,-x,2/3-z
-x+y,y,-z
x,x-y,1/3-z
loop_
_atom_site_type_symbol
_atom_site_label
_atom_site_fract_x
_atom_site_fract_y
_atom_site_fract_z
Si Si1 0.576356 0.931980 0.406788
Si Si2 0.944230 0.226367 0.621491
Si Si3 0.308910 0.549608 0.196762
Si Si4 0.065337 0.907759 0.882410
Si Si5 0.500000 0.500000 0.253305
Si Si6 0.878989 0.686854 0.135473
O O1 0.657844 0.872477 0.382237
O O2 0.475087 0.805902 0.435689
O O3 0.500000 0.000000 0.384289
O O4 0.680158 0.046011 0.438749
O O5 0.979452 0.377573 0.615396
O O6 0.000000 0.211358 0.666667
O O7 0.022468 0.207554 0.581932
O O8 0.346442 0.673221 0.166667
O O9 0.432767 0.560437 0.222192
O O10 0.233751 0.420793 0.166045
O O11 0.103011 0.896990 0.833334
O O12 0.941694 0.762938 0.891927
O O13 0.000000 0.000000 0.883567
O O14 0.000000 0.788422 0.166667
#
# Coordination Sequence:
#
# PCOD9583627 Si02
#       6
#    12  12  12  12   6  12
#     4  10  18  33  59  89 112 146 205 255 298 353
#     4  11  24  41  62  83 116 172 209 246 298 380
#     4  10  19  31  56  88 120 154 192 248 308 359
#     4  11  18  33  57  90 122 146 187 247 313 363
#     4  10  23  38  54  82 114 168 214 234 290 368
#     4  10  17  29  52  89 124 151 178 242 312 361
#
# _framework density 18.002769000000001
#
# number of rings (size 3 to 8) (size 9 to 14) (size 15 to 20)
#    0.000    1.636    5.455    2.455    0.000    2.545 
#    0.000    0.000    4.000    2.182    0.000    0.000 
#    0.000    0.000    0.000    0.000    0.000    0.000 
#
# Total GULP energy -367589.024789 kJ/mol
# GULP energy per Si atom -5569.530679 kJ/mol
# Density = 1.796179 g / cm^3
# Si number density = 18.002769 Si / 1000 Ang^3
#
#
#
# Elastic Constant Matrix: (Units=GPa)
#
#
# Indices 1 2 3 4 5 6 
#
# 1 70.5590 30.7065 26.1761 0.0000 0.0000 0.0000
# 2 30.7065 70.5590 26.1761 0.0000 0.0000 0.0000
# 3 26.1761 26.1761 80.3878 0.0000 0.0000 0.0000
# 4 0.0000 0.0000 0.0000 9.5854 0.0000 0.0000
# 5 0.0000 0.0000 0.0000 0.0000 9.5854 0.0000
# 6 0.0000 0.0000 0.0000 0.0000 0.0000 19.9262
#
#
#
# Elastic Compliance Matrix: (Units=1/GPa)
#
#
# Indices 1 2 3 4 5 6 
#
# 1 0.018483 -0.006609 -0.003866 0.000000 0.000000 0.000000
# 2 -0.006609 0.018483 -0.003866 0.000000 0.000000 0.000000
# 3 -0.003866 -0.003866 0.014958 0.000000 0.000000 0.000000
# 4 0.000000 0.000000 0.000000 0.104325 0.000000 0.000000
# 5 0.000000 0.000000 0.000000 0.000000 0.104325 0.000000
# 6 0.000000 0.000000 0.000000 0.000000 0.000000 0.050185
#
#
# Mechanical properties :
#
#
# Convention : Reuss Voigt Hill
#
# Bulk Modulus (GPa) = 43.02960 43.06925 43.04942
# Shear Modulus (GPa) = 14.40131 17.04922 15.72527
#
# Velocity S-wave (km/s) = 2.83141 3.08073 2.95870
# Velocity P-wave (km/s) = 5.88580 6.05228 5.96962
#
# Compressibility (1/GPa) = 0.02323982
#
# Stress axis : x y z
#
# Youngs Moduli (GPa) = 54.10318 54.10318 66.85534
#
# Poissons Ratio (x) = 0.35759 0.25849
# Poissons Ratio (y) = 0.35759 0.25849
# Poissons Ratio (z) = 0.20918 0.20918
#
# Static dielectric constant tensor:
#      x y z
#    x 1.661070 0.000000 0.000000 
#    y 0.000000 1.661070 0.000000 
#    z 0.000000 0.000000 1.613900 
# 
# From -- ./inp_files/12268.got.cif
#   From: 2010.05.17/outbox.cif.g08.bks.cpg/sg180_7_cif.got.tgz:12268.got - 2010.05.20 11:43:55.
