data_PCOD9583967
_publ_section_title
;
Structure prediction by ZEFSAII (Michael W. Deem and Ramdas Pophale) SiO2 
 PCOD9583967
Probable space group: P 62 2 2
;
_chemical_formula_sum "Si O2"
_cell_formula_units_Z 24
_cell_length_a 7.483717
_cell_length_b 7.483717
_cell_length_c 19.558645
_cell_angle_alpha 90.000000
_cell_angle_beta 90.000000
_cell_angle_gamma 120.000000
_cell_volume 948.645843
_symmetry_space_group_name_H-M "P 62 2 2"
_symmetry_group_IT_number 180
_symmetry_cell_setting 'hexagonal'
loop_
_space_group_symop_operation_xyz
x,y,z
x-y,x,1/3+z
-y,x-y,2/3+z
-x,-y,z
-x+y,-x,1/3+z
y,-x+y,2/3+z
x-y,-y,-z
-x,-x+y,1/3-z
y,x,2/3-z
-y,-x,2/3-z
-x+y,y,-z
x,x-y,1/3-z
loop_
_atom_site_type_symbol
_atom_site_label
_atom_site_fract_x
_atom_site_fract_y
_atom_site_fract_z
Si Si1 0.228322 0.903248 0.192940
Si Si2 0.403951 0.729600 0.077115
O O1 0.323440 0.842131 0.128186
O O2 0.238208 0.751662 0.248972
O O3 0.000000 0.830377 0.166667
O O4 0.376643 0.128371 0.229314
O O5 0.394216 0.788432 0.000000
#
# Coordination Sequence:
#
# PCOD9583967 Si02
#       2
#    12  12
#     4  10  23  41  70 111 152 209 280 348 422 525
#     4  10  22  42  73 104 157 211 274 355 430 519
#
# _framework density 25.299219000000001
#
# number of rings (size 3 to 8) (size 9 to 14) (size 15 to 20)
#    0.000    2.000    0.000    3.000   14.000    0.000 
#    0.000   42.500   11.000    0.000    0.000    0.000 
#    0.000    0.000    0.000    0.000    0.000    0.000 
#
# Total GULP energy -133618.083356 kJ/mol
# GULP energy per Si atom -5567.420140 kJ/mol
# Density = 2.524164 g / cm^3
# Si number density = 25.299219 Si / 1000 Ang^3
#
#
#
# Elastic Constant Matrix: (Units=GPa)
#
#
# Indices 1 2 3 4 5 6 
#
# 1 213.6384 126.9449 66.6955 0.0000 0.0000 0.0000
# 2 126.9449 213.6384 66.6955 0.0000 0.0000 0.0000
# 3 66.6955 66.6955 250.4234 0.0000 0.0000 0.0000
# 4 0.0000 0.0000 0.0000 122.2906 0.0000 0.0000
# 5 0.0000 0.0000 0.0000 0.0000 122.2906 0.0000
# 6 0.0000 0.0000 0.0000 0.0000 0.0000 43.3467
#
#
#
# Elastic Compliance Matrix: (Units=1/GPa)
#
#
# Indices 1 2 3 4 5 6 
#
# 1 0.007406 -0.004128 -0.000873 0.000000 0.000000 0.000000
# 2 -0.004128 0.007406 -0.000873 0.000000 0.000000 0.000000
# 3 -0.000873 -0.000873 0.004458 0.000000 0.000000 0.000000
# 4 0.000000 0.000000 0.000000 0.008177 0.000000 0.000000
# 5 0.000000 0.000000 0.000000 0.000000 0.008177 0.000000
# 6 0.000000 0.000000 0.000000 0.000000 0.000000 0.023070
#
#
# Mechanical properties :
#
#
# Convention : Reuss Voigt Hill
#
# Bulk Modulus (GPa) = 132.93955 133.15247 133.04601
# Shear Modulus (GPa) = 68.53827 85.40987 76.97407
#
# Velocity S-wave (km/s) = 5.21055 5.81663 5.52191
# Velocity P-wave (km/s) = 9.42660 9.89223 9.66222
#
# Compressibility (1/GPa) = 0.00752222
#
# Stress axis : x y z
#
# Youngs Moduli (GPa) = 135.01686 135.01686 224.30180
#
# Poissons Ratio (x) = 0.55740 0.19583
# Poissons Ratio (y) = 0.55740 0.19583
# Poissons Ratio (z) = 0.11788 0.11788
#
# Static dielectric constant tensor:
#      x y z
#    x 2.175480 0.000000 0.000000 
#    y 0.000000 2.175480 0.000000 
#    z 0.000000 0.000000 1.982910 
# 
# From -- ./inp_files/8097.got.cif
#   From: 2010.05.17/outbox.cif.g08.bks.cpg/sg180_5_cif.got.tgz:8097.got - 2010.05.20 11:43:55.
