data_PCOD9583246
_publ_section_title
;
Structure prediction by ZEFSAII (Michael W. Deem and Ramdas Pophale) SiO2 
 PCOD9583246
Probable space group: P 65 2 2
;
_chemical_formula_sum "Si O2"
_cell_formula_units_Z 60
_cell_length_a 12.262304
_cell_length_b 12.262304
_cell_length_c 21.505820
_cell_angle_alpha 90.000000
_cell_angle_beta 90.000000
_cell_angle_gamma 120.000000
_cell_volume 2800.469168
_symmetry_space_group_name_H-M "P 65 2 2"
_symmetry_group_IT_number 179
_symmetry_cell_setting 'hexagonal'
loop_
_space_group_symop_operation_xyz
x,y,z
x-y,x,5/6+z
-y,x-y,2/3+z
-x,-y,1/2+z
-x+y,-x,1/3+z
y,-x+y,1/6+z
x-y,-y,-z
-x,-x+y,1/3-z
y,x,2/3-z
-y,-x,1/6-z
-x+y,y,1/2-z
x,x-y,5/6-z
loop_
_atom_site_type_symbol
_atom_site_label
_atom_site_fract_x
_atom_site_fract_y
_atom_site_fract_z
Si Si1 0.390816 0.091577 0.128840
Si Si2 0.359327 0.654409 0.010560
Si Si3 0.560414 0.093533 0.862645
Si Si4 0.616318 0.751087 0.804678
Si Si5 0.702037 0.679362 0.067513
O O1 0.533535 0.201920 0.138793
O O2 0.322277 0.166569 0.104452
O O3 0.415163 0.984313 0.099317
O O4 0.332657 0.022577 0.194759
O O5 0.373359 0.626641 0.083334
O O6 0.227639 0.652503 0.010004
O O7 0.487363 0.775550 0.991656
O O8 0.677510 0.117891 0.906519
O O9 0.592776 0.035851 0.802535
O O10 0.698428 0.698428 0.833334
O O11 0.695898 0.900976 0.797777
#
# Coordination Sequence:
#
# PCOD9583246 Si02
#       5
#    12  12  12  12  12
#     4  11  20  36  63  90 125 158 212 262 321 382
#     4   9  16  34  56  81 117 158 195 251 314 354
#     4  10  20  35  62  90 122 164 209 267 323 376
#     4  11  22  37  59  87 129 166 211 260 316 383
#     4  11  20  38  60  89 127 167 208 262 325 384
#
# _framework density 21.424980000000001
#
# number of rings (size 3 to 8) (size 9 to 14) (size 15 to 20)
#    0.000    1.600    8.000    0.600    0.000    2.400 
#    0.000    2.000    0.000    8.400    0.000    0.000 
#    0.000    0.000    0.000    0.000    0.000    0.000 
#
# Total GULP energy -334233.562856 kJ/mol
# GULP energy per Si atom -5570.559381 kJ/mol
# Density = 2.137622 g / cm^3
# Si number density = 21.424980 Si / 1000 Ang^3
#
#
#
# Elastic Constant Matrix: (Units=GPa)
#
#
# Indices 1 2 3 4 5 6 
#
# 1 127.8220 49.0534 6.4886 0.0000 0.0000 0.0000
# 2 49.0534 127.8220 6.4886 0.0000 0.0000 0.0000
# 3 6.4886 6.4886 44.7562 0.0000 0.0000 0.0000
# 4 0.0000 0.0000 0.0000 18.5147 0.0000 0.0000
# 5 0.0000 0.0000 0.0000 0.0000 18.5147 0.0000
# 6 0.0000 0.0000 0.0000 0.0000 0.0000 39.3843
#
#
#
# Elastic Compliance Matrix: (Units=1/GPa)
#
#
# Indices 1 2 3 4 5 6 
#
# 1 0.009205 -0.003490 -0.000828 0.000000 0.000000 0.000000
# 2 -0.003490 0.009205 -0.000828 0.000000 0.000000 0.000000
# 3 -0.000828 -0.000828 0.022584 0.000000 0.000000 0.000000
# 4 0.000000 0.000000 0.000000 0.054011 0.000000 0.000000
# 5 0.000000 0.000000 0.000000 0.000000 0.054011 0.000000
# 6 0.000000 0.000000 0.000000 0.000000 0.000000 0.025391
#
#
# Mechanical properties :
#
#
# Convention : Reuss Voigt Hill
#
# Bulk Modulus (GPa) = 32.57477 47.16238 39.86858
# Shear Modulus (GPa) = 25.64972 31.17406 28.41189
#
# Velocity S-wave (km/s) = 3.46379 3.81863 3.64553
# Velocity P-wave (km/s) = 5.58876 6.44229 6.03065
#
# Compressibility (1/GPa) = 0.03069860
#
# Stress axis : x y z
#
# Youngs Moduli (GPa) = 108.63722 108.63722 44.28011
#
# Poissons Ratio (x) = 0.37919 0.03668
# Poissons Ratio (y) = 0.37919 0.03668
# Poissons Ratio (z) = 0.09000 0.09000
#
# Static dielectric constant tensor:
#      x y z
#    x 1.850090 0.000000 0.000000 
#    y 0.000000 1.850090 0.000000 
#    z 0.000000 0.000000 1.899420 
# 
# From -- ./inp_files/8803.got.cif
#   From: 2010.05.17/outbox.cif.g08.bks.cpg/sg179_5_cif.got.tgz:8803.got - 2010.05.20 11:37:33.
