data_PCOD9583282
_publ_section_title
;
Structure prediction by ZEFSAII (Michael W. Deem and Ramdas Pophale) SiO2 
 PCOD9583282
Probable space group: P 65 2 2
;
_chemical_formula_sum "Si O2"
_cell_formula_units_Z 72
_cell_length_a 15.023474
_cell_length_b 15.023474
_cell_length_c 18.703157
_cell_angle_alpha 90.000000
_cell_angle_beta 90.000000
_cell_angle_gamma 120.000000
_cell_volume 3655.832511
_symmetry_space_group_name_H-M "P 65 2 2"
_symmetry_group_IT_number 179
_symmetry_cell_setting 'hexagonal'
loop_
_space_group_symop_operation_xyz
x,y,z
x-y,x,5/6+z
-y,x-y,2/3+z
-x,-y,1/2+z
-x+y,-x,1/3+z
y,-x+y,1/6+z
x-y,-y,-z
-x,-x+y,1/3-z
y,x,2/3-z
-y,-x,1/6-z
-x+y,y,1/2-z
x,x-y,5/6-z
loop_
_atom_site_type_symbol
_atom_site_label
_atom_site_fract_x
_atom_site_fract_y
_atom_site_fract_z
Si Si1 0.958201 0.476885 0.247258
Si Si2 0.328505 0.120978 0.340696
Si Si3 0.109451 0.746275 0.792009
Si Si4 0.885273 0.267472 0.631652
Si Si5 0.160781 0.552232 0.334899
Si Si6 0.757580 0.480615 0.421206
O O1 0.901996 0.355251 0.253634
O O2 0.898165 0.538590 0.253493
O O3 0.000000 0.499953 0.166667
O O4 0.048922 0.521572 0.304593
O O5 0.299051 0.149525 0.416667
O O6 0.309334 0.167049 0.268670
O O7 0.451508 0.169490 0.340496
O O8 0.279634 0.998840 0.340759
O O9 0.185967 0.759251 0.855301
O O10 0.835509 0.164492 0.583334
O O11 0.797803 0.256533 0.687886
O O12 0.000000 0.307359 0.666667
O O13 0.171175 0.585588 0.416667
O O14 0.239865 0.646517 0.288225
O O15 0.805079 0.402540 0.416667
#
# Coordination Sequence:
#
# PCOD9583282 Si02
#       6
#    12  12  12  12  12  12
#     4  10  20  39  60  87 130 173 211 264 324 387
#     4  11  23  40  63  92 129 173 217 273 333 395
#     4  11  24  39  62  94 129 169 223 274 331 395
#     4  11  24  42  66  91 133 177 229 273 333 400
#     4  11  21  37  63  89 132 168 215 261 313 388
#     4  12  25  40  61  95 132 176 214 265 326 395
#
# _framework density 19.694555999999999
#
# number of rings (size 3 to 8) (size 9 to 14) (size 15 to 20)
#    0.000    1.000    5.000    4.000    2.333    7.333 
#    0.000    0.000    0.000    0.000    0.000   11.667 
#    0.000    0.000    0.000    0.000    0.000    0.000 
#
# Total GULP energy -401464.706292 kJ/mol
# GULP energy per Si atom -5575.898699 kJ/mol
# Density = 1.964973 g / cm^3
# Si number density = 19.694556 Si / 1000 Ang^3
#
#
#
# Elastic Constant Matrix: (Units=GPa)
#
#
# Indices 1 2 3 4 5 6 
#
# 1 76.0426 36.0818 35.5640 0.0000 0.0000 0.0000
# 2 36.0818 76.0426 35.5640 0.0000 0.0000 0.0000
# 3 35.5640 35.5640 69.7345 0.0000 0.0000 0.0000
# 4 0.0000 0.0000 0.0000 25.8673 0.0000 0.0000
# 5 0.0000 0.0000 0.0000 0.0000 25.8673 0.0000
# 6 0.0000 0.0000 0.0000 0.0000 0.0000 19.9804
#
#
#
# Elastic Compliance Matrix: (Units=1/GPa)
#
#
# Indices 1 2 3 4 5 6 
#
# 1 0.019104 -0.005920 -0.006724 0.000000 0.000000 0.000000
# 2 -0.005920 0.019104 -0.006724 0.000000 0.000000 0.000000
# 3 -0.006724 -0.006724 0.021198 0.000000 0.000000 0.000000
# 4 0.000000 0.000000 0.000000 0.038659 0.000000 0.000000
# 5 0.000000 0.000000 0.000000 0.000000 0.038659 0.000000
# 6 0.000000 0.000000 0.000000 0.000000 0.000000 0.050049
#
#
# Mechanical properties :
#
#
# Convention : Reuss Voigt Hill
#
# Bulk Modulus (GPa) = 48.37635 48.47104 48.42370
# Shear Modulus (GPa) = 21.51471 21.98367 21.74919
#
# Velocity S-wave (km/s) = 3.30876 3.34463 3.32674
# Velocity P-wave (km/s) = 6.26210 6.29128 6.27670
#
# Compressibility (1/GPa) = 0.02067126
#
# Stress axis : x y z
#
# Youngs Moduli (GPa) = 52.34436 52.34436 47.17387
#
# Poissons Ratio (x) = 0.30989 0.31718
# Poissons Ratio (y) = 0.30989 0.31718
# Poissons Ratio (z) = 0.35195 0.35195
#
# Static dielectric constant tensor:
#      x y z
#    x 1.766800 0.000000 0.000000 
#    y 0.000000 1.766800 0.000000 
#    z 0.000000 0.000000 1.695800 
# 
# From -- ./inp_files/6848.got.cif
#   From: 2010.05.17/outbox.cif.g08.bks.cpg/sg179_4_cif.got.tgz:6848.got - 2010.05.20 11:37:33.
