data_PCOD9583651
_publ_section_title
;
Structure prediction by ZEFSAII (Michael W. Deem and Ramdas Pophale) SiO2 
 PCOD9583651
Probable space group: P 62 2 2
;
_chemical_formula_sum "Si O2"
_cell_formula_units_Z 42
_cell_length_a 21.705198
_cell_length_b 21.705198
_cell_length_c 5.406177
_cell_angle_alpha 90.000000
_cell_angle_beta 90.000000
_cell_angle_gamma 120.000000
_cell_volume 2205.709918
_symmetry_space_group_name_H-M "P 62 2 2"
_symmetry_group_IT_number 180
_symmetry_cell_setting 'hexagonal'
loop_
_space_group_symop_operation_xyz
x,y,z
x-y,x,1/3+z
-y,x-y,2/3+z
-x,-y,z
-x+y,-x,1/3+z
y,-x+y,2/3+z
x-y,-y,-z
-x,-x+y,1/3-z
y,x,2/3-z
-y,-x,2/3-z
-x+y,y,-z
x,x-y,1/3-z
loop_
_atom_site_type_symbol
_atom_site_label
_atom_site_fract_x
_atom_site_fract_y
_atom_site_fract_z
Si Si1 0.410787 0.705394 0.166667
Si Si2 0.571078 0.918763 0.935207
Si Si3 0.333678 0.183951 0.419331
Si Si4 0.310951 0.473370 0.765316
O O1 0.363255 0.636746 0.333334
O O2 0.458906 0.762034 0.376520
O O3 0.638934 0.906413 0.918700
O O4 0.530685 0.881362 0.678834
O O5 0.530205 0.878312 0.180882
O O6 0.597292 0.000000 0.000000
O O7 0.293195 0.146598 0.666667
O O8 0.404736 0.174576 0.428530
O O9 0.296241 0.148121 0.166667
#
# Coordination Sequence:
#
# PCOD9583651 Si02
#       4
#     6  12  12  12
#     4  12  28  40  64  90 105 146 186 246 308 358
#     4  10  18  31  58  84 106 143 174 202 265 349
#     4   8  14  26  48  68 105 138 155 203 260 295
#     4  10  20  38  54  80 119 132 168 232 279 320
#
# _framework density 19.041488000000001
#
# number of rings (size 3 to 8) (size 9 to 14) (size 15 to 20)
#    0.000    2.286    4.286    0.857    4.000    0.000 
#    0.000    0.000    0.000    0.857    0.000    0.000 
#    0.000    0.000    0.000    0.000    0.000    0.000 
#
# Total GULP energy -233956.619771 kJ/mol
# GULP energy per Si atom -5570.395709 kJ/mol
# Density = 1.899815 g / cm^3
# Si number density = 19.041488 Si / 1000 Ang^3
#
#
#
# Elastic Constant Matrix: (Units=GPa)
#
#
# Indices 1 2 3 4 5 6 
#
# 1 90.2308 -4.1972 37.6174 0.0000 0.0000 0.0000
# 2 -4.1972 90.2308 37.6174 0.0000 0.0000 0.0000
# 3 37.6174 37.6174 212.7345 0.0000 0.0000 0.0000
# 4 0.0000 0.0000 0.0000 18.1769 0.0000 0.0000
# 5 0.0000 0.0000 0.0000 0.0000 18.1769 0.0000
# 6 0.0000 0.0000 0.0000 0.0000 0.0000 47.2140
#
#
#
# Elastic Compliance Matrix: (Units=1/GPa)
#
#
# Indices 1 2 3 4 5 6 
#
# 1 0.012170 0.001580 -0.002431 0.000000 0.000000 0.000000
# 2 0.001580 0.012170 -0.002431 0.000000 0.000000 0.000000
# 3 -0.002431 -0.002431 0.005561 0.000000 0.000000 0.000000
# 4 0.000000 0.000000 0.000000 0.055015 0.000000 0.000000
# 5 0.000000 0.000000 0.000000 0.000000 0.055015 0.000000
# 6 0.000000 0.000000 0.000000 0.000000 0.000000 0.021180
#
#
# Mechanical properties :
#
#
# Convention : Reuss Voigt Hill
#
# Bulk Modulus (GPa) = 42.85531 59.47459 51.16495
# Shear Modulus (GPa) = 28.49755 38.19082 33.34419
#
# Velocity S-wave (km/s) = 3.87279 4.48332 4.18919
# Velocity P-wave (km/s) = 6.52328 7.62248 7.09420
#
# Compressibility (1/GPa) = 0.02333433
#
# Stress axis : x y z
#
# Youngs Moduli (GPa) = 82.17078 82.17078 179.83885
#
# Poissons Ratio (x) = -0.12981 0.43724
# Poissons Ratio (y) = -0.12981 0.43724
# Poissons Ratio (z) = 0.19978 0.19978
#
# Static dielectric constant tensor:
#      x y z
#    x 1.734740 0.000000 0.000000 
#    y 0.000000 1.734740 0.000000 
#    z 0.000000 0.000000 1.786450 
# 
# From -- ./inp_files/1012.got.cif
#   From: 2010.05.17/outbox.cif.g08.bks.cpg/sg180_1_cif.got.tgz:1012.got - 2010.05.20 11:43:55.
