data_PCOD9583348
_publ_section_title
;
Structure prediction by ZEFSAII (Michael W. Deem and Ramdas Pophale) SiO2 
 PCOD9583348
Probable space group: P 65 2 2
;
_chemical_formula_sum "Si O2"
_cell_formula_units_Z 36
_cell_length_a 7.354898
_cell_length_b 7.354898
_cell_length_c 26.530369
_cell_angle_alpha 90.000000
_cell_angle_beta 90.000000
_cell_angle_gamma 120.000000
_cell_volume 1242.874365
_symmetry_space_group_name_H-M "P 65 2 2"
_symmetry_group_IT_number 179
_symmetry_cell_setting 'hexagonal'
loop_
_space_group_symop_operation_xyz
x,y,z
x-y,x,5/6+z
-y,x-y,2/3+z
-x,-y,1/2+z
-x+y,-x,1/3+z
y,-x+y,1/6+z
x-y,-y,-z
-x,-x+y,1/3-z
y,x,2/3-z
-y,-x,1/6-z
-x+y,y,1/2-z
x,x-y,5/6-z
loop_
_atom_site_type_symbol
_atom_site_label
_atom_site_fract_x
_atom_site_fract_y
_atom_site_fract_z
Si Si1 0.241232 0.261968 0.087163
Si Si2 0.182160 0.364320 0.250000
Si Si3 0.617029 0.477848 0.983179
Si Si4 0.717255 0.000000 0.500000
O O1 0.274564 0.441575 0.047215
O O2 0.026029 0.222216 0.113158
O O3 0.684984 0.588782 0.037224
O O4 0.215888 0.078354 0.049507
O O5 0.389566 0.472071 0.215530
O O6 0.486314 0.224753 0.984902
#
# Coordination Sequence:
#
# PCOD9583348 Si02
#       4
#    12   6  12   6
#     4  10  21  45  89 138 198 254 323 412 485 591
#     4   8  20  44  92 130 190 254 312 406 478 574
#     4  10  23  45  93 138 195 256 333 402 504 586
#     4  12  24  44  94 142 176 256 332 394 496 606
#
# _framework density 28.965119000000001
#
# number of rings (size 3 to 8) (size 9 to 14) (size 15 to 20)
#    2.000    0.000    0.000    4.000    0.000    0.000 
#    0.000    0.000   73.333    0.000    8.667    0.000 
#    0.000    0.000    0.000    0.000    0.000    0.000 
#
# Total GULP energy -200953.687536 kJ/mol
# GULP energy per Si atom -5582.046876 kJ/mol
# Density = 2.889919 g / cm^3
# Si number density = 28.965119 Si / 1000 Ang^3
#
#
#
# Elastic Constant Matrix: (Units=GPa)
#
#
# Indices 1 2 3 4 5 6 
#
# 1 222.7850 121.1983 109.8945 0.0000 0.0000 0.0000
# 2 121.1983 222.7850 109.8945 0.0000 0.0000 0.0000
# 3 109.8945 109.8945 247.1666 0.0000 0.0000 0.0000
# 4 0.0000 0.0000 0.0000 68.4971 0.0000 0.0000
# 5 0.0000 0.0000 0.0000 0.0000 68.4971 0.0000
# 6 0.0000 0.0000 0.0000 0.0000 0.0000 50.7933
#
#
#
# Elastic Compliance Matrix: (Units=1/GPa)
#
#
# Indices 1 2 3 4 5 6 
#
# 1 0.006952 -0.002892 -0.001805 0.000000 0.000000 0.000000
# 2 -0.002892 0.006952 -0.001805 0.000000 0.000000 0.000000
# 3 -0.001805 -0.001805 0.005651 0.000000 0.000000 0.000000
# 4 0.000000 0.000000 0.000000 0.014599 0.000000 0.000000
# 5 0.000000 0.000000 0.000000 0.000000 0.014599 0.000000
# 6 0.000000 0.000000 0.000000 0.000000 0.000000 0.019688
#
#
# Mechanical properties :
#
#
# Convention : Reuss Voigt Hill
#
# Bulk Modulus (GPa) = 152.65036 152.74567 152.69801
# Shear Modulus (GPa) = 59.78685 61.00744 60.39714
#
# Velocity S-wave (km/s) = 4.54816 4.59436 4.57132
# Velocity P-wave (km/s) = 8.96643 8.99961 8.98304
#
# Compressibility (1/GPa) = 0.00655092
#
# Stress axis : x y z
#
# Youngs Moduli (GPa) = 143.83791 143.83791 176.94918
#
# Poissons Ratio (x) = 0.41591 0.31948
# Poissons Ratio (y) = 0.41591 0.31948
# Poissons Ratio (z) = 0.25969 0.25969
#
# Static dielectric constant tensor:
#      x y z
#    x 2.354960 0.000000 0.000000 
#    y 0.000000 2.354960 0.000000 
#    z 0.000000 0.000000 2.108780 
# 
# From -- ./inp_files/9158.got.cif
#   From: 2010.05.17/outbox.cif.g08.bks.cpg/sg179_5_cif.got.tgz:9158.got - 2010.05.20 11:37:33.
