data_PCOD9583106
_publ_section_title
;
Structure prediction by ZEFSAII (Michael W. Deem and Ramdas Pophale) SiO2 
 PCOD9583106
Probable space group: P 65 2 2
;
_chemical_formula_sum "Si O2"
_cell_formula_units_Z 84
_cell_length_a 14.667045
_cell_length_b 14.667045
_cell_length_c 25.872424
_cell_angle_alpha 90.000000
_cell_angle_beta 90.000000
_cell_angle_gamma 120.000000
_cell_volume 4820.066172
_symmetry_space_group_name_H-M "P 65 2 2"
_symmetry_group_IT_number 179
_symmetry_cell_setting 'hexagonal'
loop_
_space_group_symop_operation_xyz
x,y,z
x-y,x,5/6+z
-y,x-y,2/3+z
-x,-y,1/2+z
-x+y,-x,1/3+z
y,-x+y,1/6+z
x-y,-y,-z
-x,-x+y,1/3-z
y,x,2/3-z
-y,-x,1/6-z
-x+y,y,1/2-z
x,x-y,5/6-z
loop_
_atom_site_type_symbol
_atom_site_label
_atom_site_fract_x
_atom_site_fract_y
_atom_site_fract_z
Si Si1 0.457346 0.800088 0.697869
Si Si2 0.424073 0.690681 0.360808
Si Si3 0.622732 0.083514 0.954671
Si Si4 0.836675 0.156321 0.897548
Si Si5 0.299838 0.269634 0.132638
Si Si6 0.849346 0.333017 0.445809
Si Si7 0.512808 0.986340 0.849084
O O1 0.412914 0.825828 0.750000
O O2 0.384547 0.676140 0.690019
O O3 0.576365 0.832170 0.707388
O O4 0.449767 0.867632 0.651755
O O5 0.472589 0.736295 0.416667
O O6 0.377944 0.566156 0.360938
O O7 0.502868 0.756301 0.315952
O O8 0.736732 0.106074 0.936068
O O9 0.547867 0.038521 0.904664
O O10 0.579927 0.000000 0.000000
O O11 0.811151 0.080322 0.847572
O O12 0.942423 0.203728 0.931860
O O13 0.386320 0.272172 0.092828
O O14 0.371453 0.386167 0.157862
O O15 0.812564 0.406282 0.416667
O O16 0.946180 0.422705 0.480150
#
# Coordination Sequence:
#
# PCOD9583106 Si02
#       7
#    12  12  12  12  12  12  12
#     4  11  16  30  57  75 105 149 191 222 273 327
#     4  11  19  33  49  72 110 155 183 212 272 333
#     4  11  23  34  48  76 118 153 183 226 282 342
#     4  11  20  37  54  80 111 152 189 240 288 338
#     4  10  20  33  56  79 108 142 193 241 285 337
#     4  10  18  31  51  77 100 139 195 231 255 322
#     4  10  17  31  51  75 105 148 191 230 264 319
#
# _framework density 17.427146
#
# number of rings (size 3 to 8) (size 9 to 14) (size 15 to 20)
#    0.000    1.429    7.143    2.143    0.000    2.286 
#    0.000    5.714    0.000    0.000    0.000    0.000 
#    0.000   17.143    0.000    0.000    0.000    0.000 
#
# Total GULP energy -468409.581641 kJ/mol
# GULP energy per Si atom -5576.304543 kJ/mol
# Density = 1.738748 g / cm^3
# Si number density = 17.427146 Si / 1000 Ang^3
#
#
#
# Elastic Constant Matrix: (Units=GPa)
#
#
# Indices 1 2 3 4 5 6 
#
# 1 43.2559 15.3013 39.0177 0.0000 0.0000 0.0000
# 2 15.3013 43.2559 39.0177 0.0000 0.0000 0.0000
# 3 39.0177 39.0177 100.9781 0.0000 0.0000 0.0000
# 4 0.0000 0.0000 0.0000 30.8540 0.0000 0.0000
# 5 0.0000 0.0000 0.0000 0.0000 30.8540 0.0000
# 6 0.0000 0.0000 0.0000 0.0000 0.0000 13.9773
#
#
#
# Elastic Compliance Matrix: (Units=1/GPa)
#
#
# Indices 1 2 3 4 5 6 
#
# 1 0.035489 -0.000283 -0.013603 0.000000 0.000000 0.000000
# 2 -0.000283 0.035489 -0.013603 0.000000 0.000000 0.000000
# 3 -0.013603 -0.013603 0.020416 0.000000 0.000000 0.000000
# 4 0.000000 0.000000 0.000000 0.032411 0.000000 0.000000
# 5 0.000000 0.000000 0.000000 0.000000 0.032411 0.000000
# 6 0.000000 0.000000 0.000000 0.000000 0.000000 0.071545
#
#
# Mechanical properties :
#
#
# Convention : Reuss Voigt Hill
#
# Bulk Modulus (GPa) = 27.46225 41.57366 34.51795
# Shear Modulus (GPa) = 16.95618 21.41395 19.18507
#
# Velocity S-wave (km/s) = 3.12264 3.50918 3.32154
# Velocity P-wave (km/s) = 5.36598 6.35033 5.87879
#
# Compressibility (1/GPa) = 0.03641363
#
# Stress axis : x y z
#
# Youngs Moduli (GPa) = 28.17775 28.17775 48.98177
#
# Poissons Ratio (x) = 0.00798 0.66632
# Poissons Ratio (y) = 0.00798 0.66632
# Poissons Ratio (z) = 0.38331 0.38331
#
# Static dielectric constant tensor:
#      x y z
#    x 1.604250 0.000000 0.000000 
#    y 0.000000 1.604250 0.000000 
#    z 0.000000 0.000000 1.640980 
# 
# From -- ./inp_files/8345.got.cif
#   From: 2010.05.17/outbox.cif.g08.bks.cpg/sg179_5_cif.got.tgz:8345.got - 2010.05.20 11:37:33.
