data_PCOD9583846
_publ_section_title
;
Structure prediction by ZEFSAII (Michael W. Deem and Ramdas Pophale) SiO2 
 PCOD9583846
Probable space group: P 62 2 2
;
_chemical_formula_sum "Si O2"
_cell_formula_units_Z 18
_cell_length_a 7.541709
_cell_length_b 7.541709
_cell_length_c 13.111327
_cell_angle_alpha 90.000000
_cell_angle_beta 90.000000
_cell_angle_gamma 120.000000
_cell_volume 645.827929
_symmetry_space_group_name_H-M "P 62 2 2"
_symmetry_group_IT_number 180
_symmetry_cell_setting 'hexagonal'
loop_
_space_group_symop_operation_xyz
x,y,z
x-y,x,1/3+z
-y,x-y,2/3+z
-x,-y,z
-x+y,-x,1/3+z
y,-x+y,2/3+z
x-y,-y,-z
-x,-x+y,1/3-z
y,x,2/3-z
-y,-x,2/3-z
-x+y,y,-z
x,x-y,1/3-z
loop_
_atom_site_type_symbol
_atom_site_label
_atom_site_fract_x
_atom_site_fract_y
_atom_site_fract_z
Si Si1 0.326711 0.241834 0.492793
Si Si2 0.672597 0.345194 0.000000
O O1 0.493504 0.318761 0.582885
O O2 0.463880 0.272517 0.392551
O O3 0.158275 0.316550 0.500000
O O4 0.191258 0.000000 0.500000
#
# Coordination Sequence:
#
# PCOD9583846 Si02
#       2
#    12   6
#     4  10  23  46  93 129 180 239 307 391 464 549
#     4  10  20  45  90 133 182 234 308 370 466 560
#
# _framework density 27.871196999999999
#
# number of rings (size 3 to 8) (size 9 to 14) (size 15 to 20)
#    0.000    2.000    0.000    4.000    0.000    5.333 
#    0.000    0.000  205.333    0.000    0.000    0.000 
#    0.000    0.000    0.000    0.000    0.000    0.000 
#
# Total GULP energy -100830.784981 kJ/mol
# GULP energy per Si atom -5601.710277 kJ/mol
# Density = 2.780776 g / cm^3
# Si number density = 27.871197 Si / 1000 Ang^3
#
#
#
# Elastic Constant Matrix: (Units=GPa)
#
#
# Indices 1 2 3 4 5 6 
#
# 1 292.1822 138.5274 120.6691 0.0000 0.0000 0.0000
# 2 138.5274 292.1822 120.6691 0.0000 0.0000 0.0000
# 3 120.6691 120.6691 223.1844 0.0000 0.0000 0.0000
# 4 0.0000 0.0000 0.0000 20.5791 0.0000 0.0000
# 5 0.0000 0.0000 0.0000 0.0000 20.5791 0.0000
# 6 0.0000 0.0000 0.0000 0.0000 0.0000 76.8274
#
#
#
# Elastic Compliance Matrix: (Units=1/GPa)
#
#
# Indices 1 2 3 4 5 6 
#
# 1 0.004919 -0.001589 -0.001801 0.000000 0.000000 0.000000
# 2 -0.001589 0.004919 -0.001801 0.000000 0.000000 0.000000
# 3 -0.001801 -0.001801 0.006428 0.000000 0.000000 0.000000
# 4 0.000000 0.000000 0.000000 0.048593 0.000000 0.000000
# 5 0.000000 0.000000 0.000000 0.000000 0.048593 0.000000
# 6 0.000000 0.000000 0.000000 0.000000 0.000000 0.013016
#
#
# Mechanical properties :
#
#
# Convention : Reuss Voigt Hill
#
# Bulk Modulus (GPa) = 169.89162 174.14221 172.01692
# Shear Modulus (GPa) = 36.02001 52.10936 44.06469
#
# Velocity S-wave (km/s) = 3.59886 4.32864 3.98051
# Velocity P-wave (km/s) = 8.85197 9.35946 9.10925
#
# Compressibility (1/GPa) = 0.00588611
#
# Stress axis : x y z
#
# Youngs Moduli (GPa) = 203.27428 203.27428 155.57022
#
# Poissons Ratio (x) = 0.32293 0.28016
# Poissons Ratio (y) = 0.32293 0.28016
# Poissons Ratio (z) = 0.36607 0.36607
#
# Static dielectric constant tensor:
#      x y z
#    x 2.128650 0.000000 0.000000 
#    y 0.000000 2.128650 0.000000 
#    z 0.000000 0.000000 2.216810 
# 
# From -- ./inp_files/3615.got.cif
#   From: 2010.05.17/outbox.cif.g08.bks.cpg/sg180_2_cif.got.tgz:3615.got - 2010.05.20 11:43:55.
