data_PCOD9583804
_publ_section_title
;
Structure prediction by ZEFSAII (Michael W. Deem and Ramdas Pophale) SiO2 
 PCOD9583804
Probable space group: P 62 2 2
;
_chemical_formula_sum "Si O2"
_cell_formula_units_Z 48
_cell_length_a 13.798084
_cell_length_b 13.798084
_cell_length_c 12.827477
_cell_angle_alpha 90.000000
_cell_angle_beta 90.000000
_cell_angle_gamma 120.000000
_cell_volume 2114.995489
_symmetry_space_group_name_H-M "P 62 2 2"
_symmetry_group_IT_number 180
_symmetry_cell_setting 'hexagonal'
loop_
_space_group_symop_operation_xyz
x,y,z
x-y,x,1/3+z
-y,x-y,2/3+z
-x,-y,z
-x+y,-x,1/3+z
y,-x+y,2/3+z
x-y,-y,-z
-x,-x+y,1/3-z
y,x,2/3-z
-y,-x,2/3-z
-x+y,y,-z
x,x-y,1/3-z
loop_
_atom_site_type_symbol
_atom_site_label
_atom_site_fract_x
_atom_site_fract_y
_atom_site_fract_z
Si Si1 0.992691 0.793087 0.865107
Si Si2 0.614150 0.032601 0.121271
Si Si3 0.736581 0.288523 0.079131
Si Si4 0.315829 0.243903 0.923745
O O1 0.032011 0.708743 0.822324
O O2 0.874978 0.743586 0.805489
O O3 0.080215 0.919786 0.833334
O O4 0.999573 0.774196 0.987818
O O5 0.679737 0.166007 0.132448
O O6 0.500000 0.000000 0.178004
O O7 0.592391 0.000000 0.000000
O O8 0.765122 0.382561 0.166667
O O9 0.844047 0.284434 0.032731
O O10 0.645376 0.290752 0.000000
O O11 0.329505 0.329505 0.833334
#
# Coordination Sequence:
#
# PCOD9583804 Si02
#       4
#    12  12  12  12
#     4  11  23  42  74 103 134 183 243 301 362 436
#     4  10  20  37  64  98 138 174 233 301 370 409
#     4  11  25  41  64  99 137 182 242 296 349 440
#     4  11  26  47  67 101 149 187 236 301 372 438
#
# _framework density 22.695084999999999
#
# number of rings (size 3 to 8) (size 9 to 14) (size 15 to 20)
#    0.000    1.250    2.500    4.500    3.500    5.000 
#    0.000    2.500    0.000    0.000    0.000    0.000 
#    0.000    0.000    0.000    0.000    0.000    0.000 
#
# Total GULP energy -267210.630667 kJ/mol
# GULP energy per Si atom -5566.888139 kJ/mol
# Density = 2.264343 g / cm^3
# Si number density = 22.695085 Si / 1000 Ang^3
#
#
#
# Elastic Constant Matrix: (Units=GPa)
#
#
# Indices 1 2 3 4 5 6 
#
# 1 88.1687 30.3859 23.3214 0.0000 0.0000 0.0000
# 2 30.3859 88.1687 23.3214 0.0000 0.0000 0.0000
# 3 23.3214 23.3214 102.1022 0.0000 0.0000 0.0000
# 4 0.0000 0.0000 0.0000 24.4763 0.0000 0.0000
# 5 0.0000 0.0000 0.0000 0.0000 24.4763 0.0000
# 6 0.0000 0.0000 0.0000 0.0000 0.0000 28.8914
#
#
#
# Elastic Compliance Matrix: (Units=1/GPa)
#
#
# Indices 1 2 3 4 5 6 
#
# 1 0.013287 -0.004019 -0.002117 0.000000 0.000000 0.000000
# 2 -0.004019 0.013287 -0.002117 0.000000 0.000000 0.000000
# 3 -0.002117 -0.002117 0.010761 0.000000 0.000000 0.000000
# 4 0.000000 0.000000 0.000000 0.040856 0.000000 0.000000
# 5 0.000000 0.000000 0.000000 0.000000 0.040856 0.000000
# 6 0.000000 0.000000 0.000000 0.000000 0.000000 0.034612
#
#
# Mechanical properties :
#
#
# Convention : Reuss Voigt Hill
#
# Bulk Modulus (GPa) = 48.00954 48.05523 48.03238
# Shear Modulus (GPa) = 28.23132 28.99618 28.61375
#
# Velocity S-wave (km/s) = 3.53078 3.57829 3.55461
# Velocity P-wave (km/s) = 6.14996 6.18809 6.16905
#
# Compressibility (1/GPa) = 0.02082919
#
# Stress axis : x y z
#
# Youngs Moduli (GPa) = 75.26166 75.26166 92.92687
#
# Poissons Ratio (x) = 0.30249 0.19671
# Poissons Ratio (y) = 0.30249 0.19671
# Poissons Ratio (z) = 0.15932 0.15932
#
# Static dielectric constant tensor:
#      x y z
#    x 2.132500 0.000000 0.000000 
#    y 0.000000 2.132500 0.000000 
#    z 0.000000 0.000000 1.939050 
# 
# From -- ./inp_files/4427.got.cif
#   From: 2010.05.17/outbox.cif.g08.bks.cpg/sg180_3_cif.got.tgz:4427.got - 2010.05.20 11:43:55.
