data_PCOD9583672
_publ_section_title
;
Structure prediction by ZEFSAII (Michael W. Deem and Ramdas Pophale) SiO2 
 PCOD9583672
Probable space group: P 62 2 2
;
_chemical_formula_sum "Si O2"
_cell_formula_units_Z 39
_cell_length_a 7.875937
_cell_length_b 7.875937
_cell_length_c 26.632278
_cell_angle_alpha 90.000000
_cell_angle_beta 90.000000
_cell_angle_gamma 120.000000
_cell_volume 1430.682992
_symmetry_space_group_name_H-M "P 62 2 2"
_symmetry_group_IT_number 180
_symmetry_cell_setting 'hexagonal'
loop_
_space_group_symop_operation_xyz
x,y,z
x-y,x,1/3+z
-y,x-y,2/3+z
-x,-y,z
-x+y,-x,1/3+z
y,-x+y,2/3+z
x-y,-y,-z
-x,-x+y,1/3-z
y,x,2/3-z
-y,-x,2/3-z
-x+y,y,-z
x,x-y,1/3-z
loop_
_atom_site_type_symbol
_atom_site_label
_atom_site_fract_x
_atom_site_fract_y
_atom_site_fract_z
Si Si1 0.554874 0.835201 0.345916
Si Si2 0.000000 0.000000 0.500000
Si Si3 0.797756 0.718499 0.578423
Si Si4 0.413544 0.740650 0.556621
O O1 0.382903 0.617098 0.333334
O O2 0.723069 0.884274 0.304439
O O3 0.512527 0.827693 0.405482
O O4 0.500000 0.000000 0.329223
O O5 0.980755 0.842919 0.542030
O O6 0.634144 0.783651 0.569367
O O7 0.709181 0.494315 0.562494
O O8 0.395983 0.791966 0.500000
#
# Coordination Sequence:
#
# PCOD9583672 Si02
#       4
#    12   3  12  12
#     4  10  18  36  64  93 129 169 229 299 354 418
#     4  12  24  40  70  98 158 186 232 294 374 460
#     4  10  21  39  63 102 135 190 221 295 370 423
#     4  10  20  39  69  99 127 175 250 293 346 424
#
# _framework density 27.259709999999998
#
# number of rings (size 3 to 8) (size 9 to 14) (size 15 to 20)
#    0.000    1.846    7.692    0.000    0.000    3.077 
#    0.000    0.000    0.000   22.154    0.000    0.000 
#    0.000    0.000    0.000    0.000    0.000    0.000 
#
# Total GULP energy -217186.946774 kJ/mol
# GULP energy per Si atom -5568.896071 kJ/mol
# Density = 2.719767 g / cm^3
# Si number density = 27.259710 Si / 1000 Ang^3
#
#
#
# Elastic Constant Matrix: (Units=GPa)
#
#
# Indices 1 2 3 4 5 6 
#
# 1 104.7678 57.7666 74.8201 0.0000 0.0000 0.0000
# 2 57.7666 104.7678 74.8201 0.0000 0.0000 0.0000
# 3 74.8201 74.8201 347.2999 0.0000 0.0000 0.0000
# 4 0.0000 0.0000 0.0000 41.1966 0.0000 0.0000
# 5 0.0000 0.0000 0.0000 0.0000 41.1966 0.0000
# 6 0.0000 0.0000 0.0000 0.0000 0.0000 23.5006
#
#
#
# Elastic Compliance Matrix: (Units=1/GPa)
#
#
# Indices 1 2 3 4 5 6 
#
# 1 0.014475 -0.006801 -0.001653 0.000000 0.000000 0.000000
# 2 -0.006801 0.014475 -0.001653 0.000000 0.000000 0.000000
# 3 -0.001653 -0.001653 0.003592 0.000000 0.000000 0.000000
# 4 0.000000 0.000000 0.000000 0.024274 0.000000 0.000000
# 5 0.000000 0.000000 0.000000 0.000000 0.024274 0.000000
# 6 0.000000 0.000000 0.000000 0.000000 0.000000 0.042552
#
#
# Mechanical properties :
#
#
# Convention : Reuss Voigt Hill
#
# Bulk Modulus (GPa) = 81.11819 107.96100 94.53959
# Shear Modulus (GPa) = 33.79140 44.47399 39.13270
#
# Velocity S-wave (km/s) = 3.52463 4.04355 3.79298
# Velocity P-wave (km/s) = 6.81074 7.84162 7.34429
#
# Compressibility (1/GPa) = 0.01232769
#
# Stress axis : x y z
#
# Youngs Moduli (GPa) = 69.08259 69.08259 278.41553
#
# Poissons Ratio (x) = 0.46981 0.46033
# Poissons Ratio (y) = 0.46981 0.46033
# Poissons Ratio (z) = 0.11422 0.11422
#
# Static dielectric constant tensor:
#      x y z
#    x 2.225990 0.000000 0.000000 
#    y 0.000000 2.225990 0.000000 
#    z 0.000000 0.000000 2.152620 
# 
# From -- ./inp_files/11835.got.cif
#   From: 2010.05.17/outbox.cif.g08.bks.cpg/sg180_6_cif.got.tgz:11835.got - 2010.05.20 11:43:55.
