data_PCOD9583705
_publ_section_title
;
Structure prediction by ZEFSAII (Michael W. Deem and Ramdas Pophale) SiO2 
 PCOD9583705
Probable space group: P 62 2 2
;
_chemical_formula_sum "Si O2"
_cell_formula_units_Z 60
_cell_length_a 15.685258
_cell_length_b 15.685258
_cell_length_c 15.276307
_cell_angle_alpha 90.000000
_cell_angle_beta 90.000000
_cell_angle_gamma 120.000000
_cell_volume 3254.860220
_symmetry_space_group_name_H-M "P 62 2 2"
_symmetry_group_IT_number 180
_symmetry_cell_setting 'hexagonal'
loop_
_space_group_symop_operation_xyz
x,y,z
x-y,x,1/3+z
-y,x-y,2/3+z
-x,-y,z
-x+y,-x,1/3+z
y,-x+y,2/3+z
x-y,-y,-z
-x,-x+y,1/3-z
y,x,2/3-z
-y,-x,2/3-z
-x+y,y,-z
x,x-y,1/3-z
loop_
_atom_site_type_symbol
_atom_site_label
_atom_site_fract_x
_atom_site_fract_y
_atom_site_fract_z
Si Si1 0.560486 0.442888 0.996235
Si Si2 0.109823 0.368959 0.065196
Si Si3 0.121271 0.746285 0.065444
Si Si4 0.118441 0.684758 0.668351
Si Si5 0.203899 0.605543 0.810672
O O1 0.500000 0.500000 0.995866
O O2 0.583339 0.429104 0.095306
O O3 0.660654 0.515574 0.946882
O O4 0.488204 0.338859 0.951951
O O5 0.127500 0.356052 0.165861
O O6 0.994066 0.304538 0.043044
O O7 0.171369 0.342737 0.000000
O O8 0.199575 0.840128 0.011383
O O9 0.162254 0.666439 0.757178
O O10 0.167179 0.655299 0.587508
O O11 0.000000 0.618008 0.666667
O O12 0.318809 0.681192 0.833334
#
# Coordination Sequence:
#
# PCOD9583705 Si02
#       5
#    12  12  12  12  12
#     4  10  19  34  55  80 114 150 188 239 292 349
#     4  10  21  36  59  85 111 151 188 245 305 349
#     4  10  21  38  56  84 116 144 198 241 287 363
#     4  11  23  39  57  81 118 161 198 239 291 354
#     4  11  21  36  55  83 116 152 196 242 278 348
#
# _framework density 18.433972000000001
#
# number of rings (size 3 to 8) (size 9 to 14) (size 15 to 20)
#    0.000    1.600    2.000    4.200    0.000    7.200 
#    0.000    0.000    0.000    0.600    0.000    2.800 
#    0.000    0.000    0.000    0.000    0.000    0.000 
#
# Total GULP energy -334854.267361 kJ/mol
# GULP energy per Si atom -5580.904456 kJ/mol
# Density = 1.839202 g / cm^3
# Si number density = 18.433972 Si / 1000 Ang^3
#
#
#
# Elastic Constant Matrix: (Units=GPa)
#
#
# Indices 1 2 3 4 5 6 
#
# 1 92.4767 24.9513 20.8924 0.0000 0.0000 0.0000
# 2 24.9513 92.4767 20.8924 0.0000 0.0000 0.0000
# 3 20.8924 20.8924 48.1748 0.0000 0.0000 0.0000
# 4 0.0000 0.0000 0.0000 26.9013 0.0000 0.0000
# 5 0.0000 0.0000 0.0000 0.0000 26.9013 0.0000
# 6 0.0000 0.0000 0.0000 0.0000 0.0000 33.7627
#
#
#
# Elastic Compliance Matrix: (Units=1/GPa)
#
#
# Indices 1 2 3 4 5 6 
#
# 1 0.012440 -0.002370 -0.004367 0.000000 0.000000 0.000000
# 2 -0.002370 0.012440 -0.004367 0.000000 0.000000 0.000000
# 3 -0.004367 -0.004367 0.024546 0.000000 0.000000 0.000000
# 4 0.000000 0.000000 0.000000 0.037173 0.000000 0.000000
# 5 0.000000 0.000000 0.000000 0.000000 0.037173 0.000000
# 6 0.000000 0.000000 0.000000 0.000000 0.000000 0.029618
#
#
# Mechanical properties :
#
#
# Convention : Reuss Voigt Hill
#
# Bulk Modulus (GPa) = 36.74189 40.73339 38.73764
# Shear Modulus (GPa) = 27.07551 28.60589 27.84070
#
# Velocity S-wave (km/s) = 3.83663 3.94357 3.89046
# Velocity P-wave (km/s) = 6.29295 6.54832 6.42190
#
# Compressibility (1/GPa) = 0.02721689
#
# Stress axis : x y z
#
# Youngs Moduli (GPa) = 80.38896 80.38896 40.74060
#
# Poissons Ratio (x) = 0.19050 0.17792
# Poissons Ratio (y) = 0.19050 0.17792
# Poissons Ratio (z) = 0.35106 0.35106
#
# Static dielectric constant tensor:
#      x y z
#    x 1.658230 0.000000 0.000000 
#    y 0.000000 1.658230 0.000000 
#    z 0.000000 0.000000 1.593580 
# 
# From -- ./inp_files/6080.got.cif
#   From: 2010.05.17/outbox.cif.g08.bks.cpg/sg180_4_cif.got.tgz:6080.got - 2010.05.20 11:43:55.
