data_PCOD9583569
_publ_section_title
;
Structure prediction by ZEFSAII (Michael W. Deem and Ramdas Pophale) SiO2 
 PCOD9583569
Probable space group: P 65 2 2
;
_chemical_formula_sum "Si O2"
_cell_formula_units_Z 42
_cell_length_a 15.066244
_cell_length_b 15.066244
_cell_length_c 10.554485
_cell_angle_alpha 90.000000
_cell_angle_beta 90.000000
_cell_angle_gamma 120.000000
_cell_volume 2074.806844
_symmetry_space_group_name_H-M "P 65 2 2"
_symmetry_group_IT_number 179
_symmetry_cell_setting 'hexagonal'
loop_
_space_group_symop_operation_xyz
x,y,z
x-y,x,5/6+z
-y,x-y,2/3+z
-x,-y,1/2+z
-x+y,-x,1/3+z
y,-x+y,1/6+z
x-y,-y,-z
-x,-x+y,1/3-z
y,x,2/3-z
-y,-x,1/6-z
-x+y,y,1/2-z
x,x-y,5/6-z
loop_
_atom_site_type_symbol
_atom_site_label
_atom_site_fract_x
_atom_site_fract_y
_atom_site_fract_z
Si Si1 0.000000 0.388284 0.666667
Si Si2 0.121925 0.726648 0.678937
Si Si3 0.475275 0.156254 0.781722
Si Si4 0.814352 0.388062 0.772638
O O1 0.910933 0.313319 0.565420
O O2 0.926661 0.401478 0.765513
O O3 0.177097 0.822904 0.583334
O O4 0.143155 0.740108 0.828272
O O5 0.169006 0.655502 0.637115
O O6 0.000000 0.665809 0.666667
O O7 0.561430 0.122859 0.750000
O O8 0.543685 0.279755 0.787944
O O9 0.786079 0.393040 0.916667
#
# Coordination Sequence:
#
# PCOD9583569 Si02
#       4
#     6  12  12  12
#     4  12  24  40  56  86 134 180 240 282 360 412
#     4  12  24  43  65  93 135 177 232 288 360 428
#     4  12  25  37  60  88 128 187 236 295 350 411
#     4  12  23  39  60  89 129 178 229 291 344 423
#
# _framework density 20.242847999999999
#
# number of rings (size 3 to 8) (size 9 to 14) (size 15 to 20)
#    0.000    0.000    7.143    4.286    0.000    0.000 
#    0.000    0.000    0.000    0.000    0.000    0.000 
#    4.286    0.000    0.000    0.000    0.000    0.000 
#
# Total GULP energy -233937.642855 kJ/mol
# GULP energy per Si atom -5569.943877 kJ/mol
# Density = 2.019677 g / cm^3
# Si number density = 20.242848 Si / 1000 Ang^3
#
#
#
# Elastic Constant Matrix: (Units=GPa)
#
#
# Indices 1 2 3 4 5 6 
#
# 1 90.3251 58.5490 51.6041 0.0000 0.0000 0.0000
# 2 58.5490 90.3251 51.6041 0.0000 0.0000 0.0000
# 3 51.6041 51.6041 182.7936 0.0000 0.0000 0.0000
# 4 0.0000 0.0000 0.0000 34.4475 0.0000 0.0000
# 5 0.0000 0.0000 0.0000 0.0000 34.4475 0.0000
# 6 0.0000 0.0000 0.0000 0.0000 0.0000 15.8881
#
#
#
# Elastic Compliance Matrix: (Units=1/GPa)
#
#
# Indices 1 2 3 4 5 6 
#
# 1 0.019911 -0.011559 -0.002358 0.000000 0.000000 0.000000
# 2 -0.011559 0.019911 -0.002358 0.000000 0.000000 0.000000
# 3 -0.002358 -0.002358 0.006802 0.000000 0.000000 0.000000
# 4 0.000000 0.000000 0.000000 0.029030 0.000000 0.000000
# 5 0.000000 0.000000 0.000000 0.000000 0.029030 0.000000
# 6 0.000000 0.000000 0.000000 0.000000 0.000000 0.062940
#
#
# Mechanical properties :
#
#
# Convention : Reuss Voigt Hill
#
# Bulk Modulus (GPa) = 71.05218 76.32869 73.69043
# Shear Modulus (GPa) = 24.40640 30.40238 27.40439
#
# Velocity S-wave (km/s) = 3.47606 3.87962 3.68337
# Velocity P-wave (km/s) = 7.16148 7.60637 7.38727
#
# Compressibility (1/GPa) = 0.01407416
#
# Stress axis : x y z
#
# Youngs Moduli (GPa) = 50.22376 50.22376 147.01861
#
# Poissons Ratio (x) = 0.58055 0.34663
# Poissons Ratio (y) = 0.58055 0.34663
# Poissons Ratio (z) = 0.11841 0.11841
#
# Static dielectric constant tensor:
#      x y z
#    x 1.755770 0.000000 0.000000 
#    y 0.000000 1.755770 0.000000 
#    z 0.000000 0.000000 1.844670 
# 
# From -- ./inp_files/4044.got.cif
#   From: 2010.05.17/outbox.cif.g08.bks.cpg/sg179_3_cif.got.tgz:4044.got - 2010.05.20 11:37:33.
