data_PCOD9583321
_publ_section_title
;
Structure prediction by ZEFSAII (Michael W. Deem and Ramdas Pophale) SiO2 
 PCOD9583321
Probable space group: P 65 2 2
;
_chemical_formula_sum "Si O2"
_cell_formula_units_Z 72
_cell_length_a 15.357146
_cell_length_b 15.357146
_cell_length_c 18.589151
_cell_angle_alpha 90.000000
_cell_angle_beta 90.000000
_cell_angle_gamma 120.000000
_cell_volume 3796.743107
_symmetry_space_group_name_H-M "P 65 2 2"
_symmetry_group_IT_number 179
_symmetry_cell_setting 'hexagonal'
loop_
_space_group_symop_operation_xyz
x,y,z
x-y,x,5/6+z
-y,x-y,2/3+z
-x,-y,1/2+z
-x+y,-x,1/3+z
y,-x+y,1/6+z
x-y,-y,-z
-x,-x+y,1/3-z
y,x,2/3-z
-y,-x,1/6-z
-x+y,y,1/2-z
x,x-y,5/6-z
loop_
_atom_site_type_symbol
_atom_site_label
_atom_site_fract_x
_atom_site_fract_y
_atom_site_fract_z
Si Si1 0.973725 0.524748 0.035887
Si Si2 0.668896 0.810145 0.566150
Si Si3 0.366037 0.818679 0.184334
Si Si4 0.655938 0.311875 0.250000
Si Si5 0.249572 0.341783 0.045323
Si Si6 0.700823 0.529660 0.684486
Si Si7 0.669610 0.000000 0.500000
O O1 0.910705 0.407255 0.050967
O O2 0.011536 0.607316 0.100281
O O3 0.913720 0.563076 0.986729
O O4 0.069866 0.542461 0.991746
O O5 0.557500 0.729876 0.538100
O O6 0.673911 0.840696 0.650947
O O7 0.733320 0.754819 0.549641
O O8 0.688256 0.908735 0.521381
O O9 0.380726 0.761452 0.250000
O O10 0.372186 0.762638 0.115837
O O11 0.571183 0.245346 0.307128
O O12 0.248341 0.379820 0.125936
O O13 0.774105 0.548209 0.750000
#
# Coordination Sequence:
#
# PCOD9583321 Si02
#       7
#    12  12  12   6  12  12   6
#     4  10  21  39  56  83 132 160 212 262 307 366
#     4  10  22  40  67  92 130 161 207 275 323 394
#     4  11  22  35  59  85 118 169 205 252 307 366
#     4  12  24  36  58  88 126 164 224 254 310 364
#     4  10  21  43  62  91 124 168 210 257 336 378
#     4  12  25  39  59  88 129 182 220 263 309 386
#     4  10  22  36  62  96 122 154 208 262 328 374
#
# _framework density 18.963621
#
# number of rings (size 3 to 8) (size 9 to 14) (size 15 to 20)
#    0.000    1.333    1.667    4.500    9.333    5.333 
#    0.000    0.000    0.000    0.000    8.667    0.000 
#    0.000    0.000    0.000    0.000    0.000    0.000 
#
# Total GULP energy -401012.104739 kJ/mol
# GULP energy per Si atom -5569.612566 kJ/mol
# Density = 1.892046 g / cm^3
# Si number density = 18.963621 Si / 1000 Ang^3
#
#
#
# Elastic Constant Matrix: (Units=GPa)
#
#
# Indices 1 2 3 4 5 6 
#
# 1 75.6594 47.4135 36.6886 0.0000 0.0000 0.0000
# 2 47.4135 75.6594 36.6886 0.0000 0.0000 0.0000
# 3 36.6886 36.6886 101.3959 0.0000 0.0000 0.0000
# 4 0.0000 0.0000 0.0000 27.4374 0.0000 0.0000
# 5 0.0000 0.0000 0.0000 0.0000 27.4374 0.0000
# 6 0.0000 0.0000 0.0000 0.0000 0.0000 14.1230
#
#
#
# Elastic Compliance Matrix: (Units=1/GPa)
#
#
# Indices 1 2 3 4 5 6 
#
# 1 0.022882 -0.012522 -0.003749 0.000000 0.000000 0.000000
# 2 -0.012522 0.022882 -0.003749 0.000000 0.000000 0.000000
# 3 -0.003749 -0.003749 0.012575 0.000000 0.000000 0.000000
# 4 0.000000 0.000000 0.000000 0.036447 0.000000 0.000000
# 5 0.000000 0.000000 0.000000 0.000000 0.036447 0.000000
# 6 0.000000 0.000000 0.000000 0.000000 0.000000 0.070807
#
#
# Mechanical properties :
#
#
# Convention : Reuss Voigt Hill
#
# Bulk Modulus (GPa) = 54.64220 54.92179 54.78199
# Shear Modulus (GPa) = 20.14692 22.59447 21.37070
#
# Velocity S-wave (km/s) = 3.26298 3.45550 3.36062
# Velocity P-wave (km/s) = 6.56299 6.70412 6.63393
#
# Compressibility (1/GPa) = 0.01830087
#
# Stress axis : x y z
#
# Youngs Moduli (GPa) = 43.70286 43.70286 79.52179
#
# Poissons Ratio (x) = 0.54723 0.29810
# Poissons Ratio (y) = 0.54723 0.29810
# Poissons Ratio (z) = 0.16383 0.16383
#
# Static dielectric constant tensor:
#      x y z
#    x 1.669320 0.000000 0.000000 
#    y 0.000000 1.669320 0.000000 
#    z 0.000000 0.000000 1.787410 
# 
# From -- ./inp_files/6866.got.cif
#   From: 2010.05.17/outbox.cif.g08.bks.cpg/sg179_4_cif.got.tgz:6866.got - 2010.05.20 11:37:33.
