data_PCOD9583070
_publ_section_title
;
Structure prediction by ZEFSAII (Michael W. Deem and Ramdas Pophale) SiO2 
 PCOD9583070
Probable space group: P 61 2 2
;
_chemical_formula_sum "Si O2"
_cell_formula_units_Z 42
_cell_length_a 7.876738
_cell_length_b 7.876738
_cell_length_c 27.711497
_cell_angle_alpha 90.000000
_cell_angle_beta 90.000000
_cell_angle_gamma 120.000000
_cell_volume 1488.961331
_symmetry_space_group_name_H-M "P 61 2 2"
_symmetry_group_IT_number 178
_symmetry_cell_setting 'hexagonal'
loop_
_space_group_symop_operation_xyz
x,y,z
x-y,x,1/6+z
-y,x-y,1/3+z
-x,-y,1/2+z
-x+y,-x,2/3+z
y,-x+y,5/6+z
x-y,-y,-z
-x,-x+y,2/3-z
y,x,1/3-z
-y,-x,5/6-z
-x+y,y,1/2-z
x,x-y,1/6-z
loop_
_atom_site_type_symbol
_atom_site_label
_atom_site_fract_x
_atom_site_fract_y
_atom_site_fract_z
Si Si1 0.296039 0.710274 0.325394
Si Si2 0.812018 0.624036 0.250000
Si Si3 0.039843 0.319701 0.181173
Si Si4 0.228720 0.201679 0.422343
O O1 0.158647 0.672595 0.372081
O O2 0.506373 0.847634 0.350532
O O3 0.276212 0.514218 0.302774
O O4 0.282664 0.861987 0.288969
O O5 0.758725 0.781989 0.270198
O O6 0.087176 0.322157 0.124294
O O7 0.956160 0.115676 0.210385
#
# Coordination Sequence:
#
# PCOD9583070 Si02
#       4
#    12   6  12  12
#     4  12  25  48  81 119 162 229 282 362 444 527
#     4  12  26  52  76 114 174 216 288 370 430 528
#     4  12  26  49  83 121 169 226 293 358 446 541
#     4  12  26  52  80 119 174 222 289 364 443 536
#
# _framework density 28.207583
#
# number of rings (size 3 to 8) (size 9 to 14) (size 15 to 20)
#    0.000    0.000    5.714    3.429    0.000    0.000 
#   20.571    0.000    0.000    0.000    0.000    0.000 
#    0.000    0.000    0.000    0.000    0.000    0.000 
#
# Total GULP energy -234921.837963 kJ/mol
# GULP energy per Si atom -5593.377094 kJ/mol
# Density = 2.814338 g / cm^3
# Si number density = 28.207583 Si / 1000 Ang^3
#
#
#
# Elastic Constant Matrix: (Units=GPa)
#
#
# Indices 1 2 3 4 5 6 
#
# 1 150.5607 49.5598 54.4323 0.0000 0.0000 0.0000
# 2 49.5598 150.5607 54.4323 0.0000 0.0000 0.0000
# 3 54.4323 54.4323 205.7888 0.0000 0.0000 0.0000
# 4 0.0000 0.0000 0.0000 35.7612 0.0000 0.0000
# 5 0.0000 0.0000 0.0000 0.0000 35.7612 0.0000
# 6 0.0000 0.0000 0.0000 0.0000 0.0000 50.5005
#
#
#
# Elastic Compliance Matrix: (Units=1/GPa)
#
#
# Indices 1 2 3 4 5 6 
#
# 1 0.007869 -0.002032 -0.001544 0.000000 0.000000 0.000000
# 2 -0.002032 0.007869 -0.001544 0.000000 0.000000 0.000000
# 3 -0.001544 -0.001544 0.005676 0.000000 0.000000 0.000000
# 4 0.000000 0.000000 0.000000 0.027963 0.000000 0.000000
# 5 0.000000 0.000000 0.000000 0.000000 0.027963 0.000000
# 6 0.000000 0.000000 0.000000 0.000000 0.000000 0.019802
#
#
# Mechanical properties :
#
#
# Convention : Reuss Voigt Hill
#
# Bulk Modulus (GPa) = 89.49134 91.52878 90.51006
# Shear Modulus (GPa) = 45.00189 47.63697 46.31943
#
# Velocity S-wave (km/s) = 3.99856 4.11396 4.05667
# Velocity P-wave (km/s) = 7.28785 7.42192 7.35519
#
# Compressibility (1/GPa) = 0.01117426
#
# Stress axis : x y z
#
# Youngs Moduli (GPa) = 127.08294 127.08294 176.17788
#
# Poissons Ratio (x) = 0.25824 0.27200
# Poissons Ratio (y) = 0.25824 0.27200
# Poissons Ratio (z) = 0.19620 0.19620
#
# Static dielectric constant tensor:
#      x y z
#    x 2.400310 0.000000 0.000000 
#    y 0.000000 2.400310 0.000000 
#    z 0.000000 0.000000 2.097740 
# 
# From -- ./inp_files/9262.got.cif
#   From: 2010.05.17/outbox.cif.g08.bks.cpg/sg178_5_cif.got.tgz:9262.got - 2010.05.20 11:30:59.
