data_PCOD9583217
_publ_section_title
;
Structure prediction by ZEFSAII (Michael W. Deem and Ramdas Pophale) SiO2 
 PCOD9583217
Probable space group: P 65 2 2
;
_chemical_formula_sum "Si O2"
_cell_formula_units_Z 54
_cell_length_a 23.138147
_cell_length_b 23.138147
_cell_length_c 6.238490
_cell_angle_alpha 90.000000
_cell_angle_beta 90.000000
_cell_angle_gamma 120.000000
_cell_volume 2892.459367
_symmetry_space_group_name_H-M "P 65 2 2"
_symmetry_group_IT_number 179
_symmetry_cell_setting 'hexagonal'
loop_
_space_group_symop_operation_xyz
x,y,z
x-y,x,5/6+z
-y,x-y,2/3+z
-x,-y,1/2+z
-x+y,-x,1/3+z
y,-x+y,1/6+z
x-y,-y,-z
-x,-x+y,1/3-z
y,x,2/3-z
-y,-x,1/6-z
-x+y,y,1/2-z
x,x-y,5/6-z
loop_
_atom_site_type_symbol
_atom_site_label
_atom_site_fract_x
_atom_site_fract_y
_atom_site_fract_z
Si Si1 0.538580 0.000000 0.500000
Si Si2 0.072899 0.669216 0.360510
Si Si3 0.515350 0.699594 0.818993
Si Si4 0.000000 0.720678 0.666667
Si Si5 0.649008 0.766515 0.542777
Si Si6 0.438168 0.876335 0.250000
O O1 0.591260 0.018487 0.308919
O O2 0.545449 0.070021 0.559109
O O3 0.137459 0.675122 0.471586
O O4 0.043967 0.704285 0.508453
O O5 0.086847 0.705976 0.131241
O O6 0.585412 0.748373 0.696059
O O7 0.470940 0.638247 0.659817
O O8 0.484141 0.742071 0.916667
O O9 0.940696 0.712430 0.506184
O O10 0.667387 0.833694 0.416667
#
# Coordination Sequence:
#
# PCOD9583217 Si02
#       6
#     6  12  12   6  12   6
#     4  12  20  37  56  90 120 134 180 252 338 395
#     4  11  19  36  57  82 117 148 182 241 313 378
#     4  11  23  38  57  85 109 150 202 241 312 402
#     4  10  20  31  54  90 114 144 192 236 290 359
#     4  11  20  36  58  82 115 154 190 239 309 367
#     4  12  24  36  58  94 114 152 190 258 334 388
#
# _framework density 18.669233999999999
#
# number of rings (size 3 to 8) (size 9 to 14) (size 15 to 20)
#    0.000    0.889    6.667    2.667    0.000    0.889 
#    0.000    0.000    0.000    0.000   40.444    0.000 
#    0.000    0.000    0.000    0.000    0.000    0.000 
#
# Total GULP energy -300618.897881 kJ/mol
# GULP energy per Si atom -5567.016627 kJ/mol
# Density = 1.862674 g / cm^3
# Si number density = 18.669234 Si / 1000 Ang^3
#
#
#
# Elastic Constant Matrix: (Units=GPa)
#
#
# Indices 1 2 3 4 5 6 
#
# 1 103.0025 24.2164 24.9862 0.0000 0.0000 0.0000
# 2 24.2164 103.0025 24.9862 0.0000 0.0000 0.0000
# 3 24.9862 24.9862 74.8379 0.0000 0.0000 0.0000
# 4 0.0000 0.0000 0.0000 22.5046 0.0000 0.0000
# 5 0.0000 0.0000 0.0000 0.0000 22.5046 0.0000
# 6 0.0000 0.0000 0.0000 0.0000 0.0000 39.3930
#
#
#
# Elastic Compliance Matrix: (Units=1/GPa)
#
#
# Indices 1 2 3 4 5 6 
#
# 1 0.010870 -0.001823 -0.003021 0.000000 0.000000 0.000000
# 2 -0.001823 0.010870 -0.003021 0.000000 0.000000 0.000000
# 3 -0.003021 -0.003021 0.015379 0.000000 0.000000 0.000000
# 4 0.000000 0.000000 0.000000 0.044435 0.000000 0.000000
# 5 0.000000 0.000000 0.000000 0.000000 0.044435 0.000000
# 6 0.000000 0.000000 0.000000 0.000000 0.000000 0.025385
#
#
# Mechanical properties :
#
#
# Convention : Reuss Voigt Hill
#
# Bulk Modulus (GPa) = 46.74870 47.69119 47.21995
# Shear Modulus (GPa) = 28.69726 30.65738 29.67732
#
# Velocity S-wave (km/s) = 3.92489 4.05672 3.99135
# Velocity P-wave (km/s) = 6.75534 6.89518 6.82561
#
# Compressibility (1/GPa) = 0.02139097
#
# Stress axis : x y z
#
# Youngs Moduli (GPa) = 91.99826 91.99826 65.02313
#
# Poissons Ratio (x) = 0.16770 0.19640
# Poissons Ratio (y) = 0.16770 0.19640
# Poissons Ratio (z) = 0.27788 0.27788
#
# Static dielectric constant tensor:
#      x y z
#    x 1.685270 0.000000 0.000000 
#    y 0.000000 1.685270 0.000000 
#    z 0.000000 0.000000 1.633390 
# 
# From -- ./inp_files/1261.got.cif
#   From: 2010.05.17/outbox.cif.g08.bks.cpg/sg179_1_cif.got.tgz:1261.got - 2010.05.20 11:37:33.
