data_PCOD9583130
_publ_section_title
;
Structure prediction by ZEFSAII (Michael W. Deem and Ramdas Pophale) SiO2 
 PCOD9583130
Probable space group: P 65 2 2
;
_chemical_formula_sum "Si O2"
_cell_formula_units_Z 60
_cell_length_a 26.980963
_cell_length_b 26.980963
_cell_length_c 5.312914
_cell_angle_alpha 90.000000
_cell_angle_beta 90.000000
_cell_angle_gamma 120.000000
_cell_volume 3349.487108
_symmetry_space_group_name_H-M "P 65 2 2"
_symmetry_group_IT_number 179
_symmetry_cell_setting 'hexagonal'
loop_
_space_group_symop_operation_xyz
x,y,z
x-y,x,5/6+z
-y,x-y,2/3+z
-x,-y,1/2+z
-x+y,-x,1/3+z
y,-x+y,1/6+z
x-y,-y,-z
-x,-x+y,1/3-z
y,x,2/3-z
-y,-x,1/6-z
-x+y,y,1/2-z
x,x-y,5/6-z
loop_
_atom_site_type_symbol
_atom_site_label
_atom_site_fract_x
_atom_site_fract_y
_atom_site_fract_z
Si Si1 0.691833 0.031218 0.754047
Si Si2 0.757544 0.270725 0.828320
Si Si3 0.948379 0.539165 0.516963
Si Si4 0.492344 0.616523 0.171832
Si Si5 0.220402 0.385366 0.502959
O O1 0.629069 0.024895 0.759493
O O2 0.733737 0.098821 0.792860
O O3 0.693987 0.000000 0.500000
O O4 0.696837 0.000000 0.000000
O O5 0.726133 0.273868 0.583334
O O6 0.822678 0.320396 0.797462
O O7 0.753455 0.208067 0.832733
O O8 0.728143 0.271858 0.083334
O O9 0.907748 0.528206 0.756149
O O10 0.000000 0.535717 0.666667
O O11 0.913315 0.505134 0.264218
O O12 0.428255 0.571746 0.083334
O O13 0.182648 0.365296 0.250000
O O14 0.182020 0.364039 0.750000
#
# Coordination Sequence:
#
# PCOD9583130 Si02
#       5
#    12  12  12  12  12
#     4  11  21  34  53  80 111 138 171 223 281 323
#     4  10  20  35  58  79  97 124 169 218 263 323
#     4  11  22  37  54  75 108 146 177 208 259 336
#     4  12  24  39  57  79 105 136 177 225 274 326
#     4  10  18  31  52  75 101 134 176 214 255 318
#
# _framework density 17.91319
#
# number of rings (size 3 to 8) (size 9 to 14) (size 15 to 20)
#    0.000    1.200    0.000   10.800    0.000    1.600 
#    0.000    1.000    0.000    1.200    0.000    0.000 
#    0.000    0.000    0.000    0.000    0.000    0.000 
#
# Total GULP energy -334225.185603 kJ/mol
# GULP energy per Si atom -5570.419760 kJ/mol
# Density = 1.787242 g / cm^3
# Si number density = 17.913190 Si / 1000 Ang^3
#
#
#
# Elastic Constant Matrix: (Units=GPa)
#
#
# Indices 1 2 3 4 5 6 
#
# 1 59.4438 18.4232 34.0846 0.0000 0.0000 0.0000
# 2 18.4232 59.4438 34.0846 0.0000 0.0000 0.0000
# 3 34.0846 34.0846 202.3019 0.0000 0.0000 0.0000
# 4 0.0000 0.0000 0.0000 22.7442 0.0000 0.0000
# 5 0.0000 0.0000 0.0000 0.0000 22.7442 0.0000
# 6 0.0000 0.0000 0.0000 0.0000 0.0000 20.5103
#
#
#
# Elastic Compliance Matrix: (Units=1/GPa)
#
#
# Indices 1 2 3 4 5 6 
#
# 1 0.019721 -0.004657 -0.002538 0.000000 0.000000 0.000000
# 2 -0.004657 0.019721 -0.002538 0.000000 0.000000 0.000000
# 3 -0.002538 -0.002538 0.005798 0.000000 0.000000 0.000000
# 4 0.000000 0.000000 0.000000 0.043967 0.000000 0.000000
# 5 0.000000 0.000000 0.000000 0.000000 0.043967 0.000000
# 6 0.000000 0.000000 0.000000 0.000000 0.000000 0.048756
#
#
# Mechanical properties :
#
#
# Convention : Reuss Voigt Hill
#
# Bulk Modulus (GPa) = 38.79764 54.93047 46.86405
# Shear Modulus (GPa) = 23.81079 28.83955 26.32517
#
# Velocity S-wave (km/s) = 3.64982 4.01679 3.83769
# Velocity P-wave (km/s) = 6.28230 7.22801 6.77169
#
# Compressibility (1/GPa) = 0.02577476
#
# Stress axis : x y z
#
# Youngs Moduli (GPa) = 50.70682 50.70682 172.46229
#
# Poissons Ratio (x) = 0.23613 0.43773
# Poissons Ratio (y) = 0.23613 0.43773
# Poissons Ratio (z) = 0.12870 0.12870
#
# Static dielectric constant tensor:
#      x y z
#    x 1.656870 0.000000 0.000000 
#    y 0.000000 1.656870 0.000000 
#    z 0.000000 0.000000 1.761330 
# 
# From -- ./inp_files/1469.got.cif
#   From: 2010.05.17/outbox.cif.g08.bks.cpg/sg179_1_cif.got.tgz:1469.got - 2010.05.20 11:37:33.
