data_PCOD9583441
_publ_section_title
;
Structure prediction by ZEFSAII (Michael W. Deem and Ramdas Pophale) SiO2 
 PCOD9583441
Probable space group: P 65 2 2
;
_chemical_formula_sum "Si O2"
_cell_formula_units_Z 42
_cell_length_a 16.536230
_cell_length_b 16.536230
_cell_length_c 8.351117
_cell_angle_alpha 90.000000
_cell_angle_beta 90.000000
_cell_angle_gamma 120.000000
_cell_volume 1977.644420
_symmetry_space_group_name_H-M "P 65 2 2"
_symmetry_group_IT_number 179
_symmetry_cell_setting 'hexagonal'
loop_
_space_group_symop_operation_xyz
x,y,z
x-y,x,5/6+z
-y,x-y,2/3+z
-x,-y,1/2+z
-x+y,-x,1/3+z
y,-x+y,1/6+z
x-y,-y,-z
-x,-x+y,1/3-z
y,x,2/3-z
-y,-x,1/6-z
-x+y,y,1/2-z
x,x-y,5/6-z
loop_
_atom_site_type_symbol
_atom_site_label
_atom_site_fract_x
_atom_site_fract_y
_atom_site_fract_z
Si Si1 0.901154 0.450577 0.916667
Si Si2 0.548018 0.289317 0.747076
Si Si3 0.836246 0.638694 0.564495
Si Si4 0.009003 0.667086 0.350477
O O1 0.828052 0.392116 0.776372
O O2 0.959914 0.399048 0.944136
O O3 0.644387 0.288773 0.750000
O O4 0.474222 0.223560 0.616520
O O5 0.499965 0.249983 0.916667
O O6 0.831701 0.663401 0.750000
O O7 0.928646 0.668103 0.459148
O O8 0.771220 0.675841 0.491532
O O9 0.000000 0.632705 0.166667
#
# Coordination Sequence:
#
# PCOD9583441 Si02
#       4
#     6  12  12  12
#     4  10  24  38  62  94 128 182 244 284 336 398
#     4  11  23  38  58  86 133 183 233 278 333 395
#     4  11  25  43  66 100 133 175 230 293 351 415
#     4  11  24  45  69  95 135 179 232 282 356 424
#
# _framework density 21.237386999999998
#
# number of rings (size 3 to 8) (size 9 to 14) (size 15 to 20)
#    0.000    1.143    1.429    5.143   10.000    4.571 
#    0.000    0.000    0.000    0.000    0.000   12.000 
#    0.000    0.000    0.000    0.000    0.000    0.000 
#
# Total GULP energy -234036.394656 kJ/mol
# GULP energy per Si atom -5572.295111 kJ/mol
# Density = 2.118905 g / cm^3
# Si number density = 21.237387 Si / 1000 Ang^3
#
#
#
# Elastic Constant Matrix: (Units=GPa)
#
#
# Indices 1 2 3 4 5 6 
#
# 1 128.9496 67.9479 24.1492 0.0000 0.0000 0.0000
# 2 67.9479 128.9496 24.1492 0.0000 0.0000 0.0000
# 3 24.1492 24.1492 83.8117 0.0000 0.0000 0.0000
# 4 0.0000 0.0000 0.0000 32.0077 0.0000 0.0000
# 5 0.0000 0.0000 0.0000 0.0000 32.0077 0.0000
# 6 0.0000 0.0000 0.0000 0.0000 0.0000 30.5008
#
#
#
# Elastic Compliance Matrix: (Units=1/GPa)
#
#
# Indices 1 2 3 4 5 6 
#
# 1 0.010929 -0.005464 -0.001575 0.000000 0.000000 0.000000
# 2 -0.005464 0.010929 -0.001575 0.000000 0.000000 0.000000
# 3 -0.001575 -0.001575 0.012839 0.000000 0.000000 0.000000
# 4 0.000000 0.000000 0.000000 0.031242 0.000000 0.000000
# 5 0.000000 0.000000 0.000000 0.000000 0.031242 0.000000
# 6 0.000000 0.000000 0.000000 0.000000 0.000000 0.032786
#
#
# Mechanical properties :
#
#
# Convention : Reuss Voigt Hill
#
# Bulk Modulus (GPa) = 57.23993 63.80042 60.52017
# Shear Modulus (GPa) = 32.67590 33.93423 33.30506
#
# Velocity S-wave (km/s) = 3.92676 4.00165 3.96438
# Velocity P-wave (km/s) = 6.89711 7.17341 7.03662
#
# Compressibility (1/GPa) = 0.01747032
#
# Stress axis : x y z
#
# Youngs Moduli (GPa) = 91.49953 91.49953 77.88801
#
# Poissons Ratio (x) = 0.49995 0.12265
# Poissons Ratio (y) = 0.49995 0.12265
# Poissons Ratio (z) = 0.14408 0.14408
#
# Static dielectric constant tensor:
#      x y z
#    x 1.817840 0.000000 0.000000 
#    y 0.000000 1.817840 0.000000 
#    z 0.000000 0.000000 2.045000 
# 
# From -- ./inp_files/2479.got.cif
#   From: 2010.05.17/outbox.cif.g08.bks.cpg/sg179_2_cif.got.tgz:2479.got - 2010.05.20 11:37:33.
