data_PCOD9583945
_publ_section_title
;
Structure prediction by ZEFSAII (Michael W. Deem and Ramdas Pophale) SiO2 
 PCOD9583945
Probable space group: P 62 2 2
;
_chemical_formula_sum "Si O2"
_cell_formula_units_Z 60
_cell_length_a 15.267659
_cell_length_b 15.267659
_cell_length_c 14.187483
_cell_angle_alpha 90.000000
_cell_angle_beta 90.000000
_cell_angle_gamma 120.000000
_cell_volume 2864.051934
_symmetry_space_group_name_H-M "P 62 2 2"
_symmetry_group_IT_number 180
_symmetry_cell_setting 'hexagonal'
loop_
_space_group_symop_operation_xyz
x,y,z
x-y,x,1/3+z
-y,x-y,2/3+z
-x,-y,z
-x+y,-x,1/3+z
y,-x+y,2/3+z
x-y,-y,-z
-x,-x+y,1/3-z
y,x,2/3-z
-y,-x,2/3-z
-x+y,y,-z
x,x-y,1/3-z
loop_
_atom_site_type_symbol
_atom_site_label
_atom_site_fract_x
_atom_site_fract_y
_atom_site_fract_z
Si Si1 0.738324 0.627735 0.620930
Si Si2 0.742099 0.950796 0.592881
Si Si3 0.852880 0.324312 0.145084
Si Si4 0.230231 0.626485 0.561151
Si Si5 0.664280 0.076655 0.913207
O O1 0.780111 0.732588 0.673501
O O2 0.667554 0.554061 0.702890
O O3 0.826188 0.600452 0.604603
O O4 0.683647 0.631432 0.525631
O O5 0.740750 0.870375 0.666667
O O6 0.627308 0.904201 0.546791
O O7 0.812661 0.000000 0.500000
O O8 0.869128 0.434564 0.166667
O O9 0.731728 0.246651 0.143663
O O10 0.298305 0.596610 0.500000
O O11 0.271054 0.635527 0.666667
O O12 0.118331 0.531819 0.565515
O O13 0.633704 0.000000 0.000000
#
# Coordination Sequence:
#
# PCOD9583945 Si02
#       5
#    12  12  12  12  12
#     4  10  22  43  63  93 134 166 223 280 344 398
#     4  10  24  42  67  99 132 175 229 289 357 419
#     4  10  22  40  66  92 136 184 227 274 334 401
#     4  11  20  38  59  87 129 173 216 264 324 391
#     4  11  23  40  66  94 133 178 221 277 340 412
#
# _framework density 20.949342000000001
#
# number of rings (size 3 to 8) (size 9 to 14) (size 15 to 20)
#    0.000    1.600    4.000    0.000    5.600    8.800 
#    0.000    2.000    0.000    0.600    0.000    0.000 
#    0.000    0.000    0.000    0.000    0.000    0.000 
#
# Total GULP energy -334047.936931 kJ/mol
# GULP energy per Si atom -5567.465616 kJ/mol
# Density = 2.090166 g / cm^3
# Si number density = 20.949342 Si / 1000 Ang^3
#
#
#
# Elastic Constant Matrix: (Units=GPa)
#
#
# Indices 1 2 3 4 5 6 
#
# 1 52.9672 33.6882 39.4894 0.0000 0.0000 0.0000
# 2 33.6882 52.9672 39.4894 0.0000 0.0000 0.0000
# 3 39.4894 39.4894 178.8009 0.0000 0.0000 0.0000
# 4 0.0000 0.0000 0.0000 38.4385 0.0000 0.0000
# 5 0.0000 0.0000 0.0000 0.0000 38.4385 0.0000
# 6 0.0000 0.0000 0.0000 0.0000 0.0000 9.6395
#
#
#
# Elastic Compliance Matrix: (Units=1/GPa)
#
#
# Indices 1 2 3 4 5 6 
#
# 1 0.033159 -0.018711 -0.003191 0.000000 0.000000 0.000000
# 2 -0.018711 0.033159 -0.003191 0.000000 0.000000 0.000000
# 3 -0.003191 -0.003191 0.007002 0.000000 0.000000 0.000000
# 4 0.000000 0.000000 0.000000 0.026016 0.000000 0.000000
# 5 0.000000 0.000000 0.000000 0.000000 0.026016 0.000000
# 6 0.000000 0.000000 0.000000 0.000000 0.000000 0.103740
#
#
# Mechanical properties :
#
#
# Convention : Reuss Voigt Hill
#
# Bulk Modulus (GPa) = 43.22479 56.67437 49.94958
# Shear Modulus (GPa) = 17.42224 28.77450 23.09837
#
# Velocity S-wave (km/s) = 2.88694 3.71013 3.32412
# Velocity P-wave (km/s) = 5.63829 6.74279 6.21513
#
# Compressibility (1/GPa) = 0.02313487
#
# Stress axis : x y z
#
# Youngs Moduli (GPa) = 30.15757 30.15757 142.80979
#
# Poissons Ratio (x) = 0.56428 0.45571
# Poissons Ratio (y) = 0.56428 0.45571
# Poissons Ratio (z) = 0.09623 0.09623
#
# Static dielectric constant tensor:
#      x y z
#    x 1.822260 0.000000 0.000000 
#    y 0.000000 1.822260 0.000000 
#    z 0.000000 0.000000 1.804560 
# 
# From -- ./inp_files/6079.got.cif
#   From: 2010.05.17/outbox.cif.g08.bks.cpg/sg180_4_cif.got.tgz:6079.got - 2010.05.20 11:43:55.
