data_PCOD9583183
_publ_section_title
;
Structure prediction by ZEFSAII (Michael W. Deem and Ramdas Pophale) SiO2 
 PCOD9583183
Probable space group: P 65 2 2
;
_chemical_formula_sum "Si O2"
_cell_formula_units_Z 84
_cell_length_a 15.972581
_cell_length_b 15.972581
_cell_length_c 19.963238
_cell_angle_alpha 90.000000
_cell_angle_beta 90.000000
_cell_angle_gamma 120.000000
_cell_volume 4410.743619
_symmetry_space_group_name_H-M "P 65 2 2"
_symmetry_group_IT_number 179
_symmetry_cell_setting 'hexagonal'
loop_
_space_group_symop_operation_xyz
x,y,z
x-y,x,5/6+z
-y,x-y,2/3+z
-x,-y,1/2+z
-x+y,-x,1/3+z
y,-x+y,1/6+z
x-y,-y,-z
-x,-x+y,1/3-z
y,x,2/3-z
-y,-x,1/6-z
-x+y,y,1/2-z
x,x-y,5/6-z
loop_
_atom_site_type_symbol
_atom_site_label
_atom_site_fract_x
_atom_site_fract_y
_atom_site_fract_z
Si Si1 0.281942 0.373946 0.111271
Si Si2 0.427686 0.121251 0.894575
Si Si3 0.596690 0.491202 0.715943
Si Si4 0.619818 0.734455 0.833225
Si Si5 0.289039 0.416196 0.572349
Si Si6 0.304593 0.900537 0.881302
Si Si7 0.873222 0.481975 0.552906
O O1 0.351127 0.478912 0.144395
O O2 0.182823 0.334291 0.153390
O O3 0.333793 0.310343 0.122036
O O4 0.282478 0.383665 0.031373
O O5 0.397051 0.198526 0.916667
O O6 0.441254 0.115494 0.814505
O O7 0.537424 0.159248 0.918580
O O8 0.352354 0.009073 0.910971
O O9 0.679788 0.547750 0.771259
O O10 0.518371 0.379774 0.725485
O O11 0.529577 0.540275 0.717158
O O12 0.696081 0.696081 0.833334
O O13 0.549955 0.693305 0.769194
O O14 0.176499 0.379703 0.578260
O O15 0.343123 0.504147 0.519927
#
# Coordination Sequence:
#
# PCOD9583183 Si02
#       7
#    12  12  12  12  12  12  12
#     4  10  19  36  56  81 112 148 187 222 276 347
#     4  10  22  36  55  83 109 144 190 237 280 327
#     4   9  19  32  54  78 107 144 181 224 273 323
#     4  10  19  33  55  83 112 143 180 234 282 327
#     4  10  20  36  58  79 108 153 184 226 276 345
#     4  10  20  37  57  78 110 152 190 223 280 342
#     4   9  18  36  52  74 112 143 177 222 277 336
#
# _framework density 19.044408000000001
#
# number of rings (size 3 to 8) (size 9 to 14) (size 15 to 20)
#    0.000    2.286    1.429    1.286    2.000    4.000 
#    2.571    1.429    0.000    0.000    7.429    0.000 
#    0.000    0.000    0.000    0.000    0.000    0.000 
#
# Total GULP energy -467693.212362 kJ/mol
# GULP energy per Si atom -5567.776338 kJ/mol
# Density = 1.900106 g / cm^3
# Si number density = 19.044408 Si / 1000 Ang^3
#
#
#
# Elastic Constant Matrix: (Units=GPa)
#
#
# Indices 1 2 3 4 5 6 
#
# 1 87.1299 39.2249 -1.7573 0.0000 0.0000 0.0000
# 2 39.2249 87.1299 -1.7573 0.0000 0.0000 0.0000
# 3 -1.7573 -1.7573 33.1625 0.0000 0.0000 0.0000
# 4 0.0000 0.0000 0.0000 17.6850 0.0000 0.0000
# 5 0.0000 0.0000 0.0000 0.0000 17.6850 0.0000
# 6 0.0000 0.0000 0.0000 0.0000 0.0000 23.9525
#
#
#
# Elastic Compliance Matrix: (Units=1/GPa)
#
#
# Indices 1 2 3 4 5 6 
#
# 1 0.014400 -0.006474 0.000420 0.000000 0.000000 0.000000
# 2 -0.006474 0.014400 0.000420 0.000000 0.000000 0.000000
# 3 0.000420 0.000420 0.030199 0.000000 0.000000 0.000000
# 4 0.000000 0.000000 0.000000 0.056545 0.000000 0.000000
# 5 0.000000 0.000000 0.000000 0.000000 0.056545 0.000000
# 6 0.000000 0.000000 0.000000 0.000000 0.000000 0.041749
#
#
# Mechanical properties :
#
#
# Convention : Reuss Voigt Hill
#
# Bulk Modulus (GPa) = 20.95081 30.98253 25.96667
# Shear Modulus (GPa) = 20.74532 23.31195 22.02863
#
# Velocity S-wave (km/s) = 3.30405 3.50249 3.40472
# Velocity P-wave (km/s) = 5.05773 5.71493 5.39634
#
# Compressibility (1/GPa) = 0.04773086
#
# Stress axis : x y z
#
# Youngs Moduli (GPa) = 69.44304 69.44304 33.11363
#
# Poissons Ratio (x) = 0.44960 -0.01391
# Poissons Ratio (y) = 0.44960 -0.01391
# Poissons Ratio (z) = -0.02917 -0.02917
#
# Static dielectric constant tensor:
#      x y z
#    x 1.704220 0.000000 0.000000 
#    y 0.000000 1.704220 0.000000 
#    z 0.000000 0.000000 1.733470 
# 
# From -- ./inp_files/8387.got.cif
#   From: 2010.05.17/outbox.cif.g08.bks.cpg/sg179_5_cif.got.tgz:8387.got - 2010.05.20 11:37:33.
