data_PCOD9583374
_publ_section_title
;
Structure prediction by ZEFSAII (Michael W. Deem and Ramdas Pophale) SiO2 
 PCOD9583374
Probable space group: P 65 2 2
;
_chemical_formula_sum "Si O2"
_cell_formula_units_Z 48
_cell_length_a 18.060848
_cell_length_b 18.060848
_cell_length_c 7.520613
_cell_angle_alpha 90.000000
_cell_angle_beta 90.000000
_cell_angle_gamma 120.000000
_cell_volume 2124.516694
_symmetry_space_group_name_H-M "P 65 2 2"
_symmetry_group_IT_number 179
_symmetry_cell_setting 'hexagonal'
loop_
_space_group_symop_operation_xyz
x,y,z
x-y,x,5/6+z
-y,x-y,2/3+z
-x,-y,1/2+z
-x+y,-x,1/3+z
y,-x+y,1/6+z
x-y,-y,-z
-x,-x+y,1/3-z
y,x,2/3-z
-y,-x,1/6-z
-x+y,y,1/2-z
x,x-y,5/6-z
loop_
_atom_site_type_symbol
_atom_site_label
_atom_site_fract_x
_atom_site_fract_y
_atom_site_fract_z
Si Si1 0.000000 0.282764 0.666667
Si Si2 0.771276 0.228725 0.083334
Si Si3 0.290171 0.449842 0.876801
Si Si4 0.826407 0.954791 0.740149
Si Si5 0.476146 0.899913 0.042493
O O1 0.081001 0.370881 0.721675
O O2 0.030031 0.244434 0.511298
O O3 0.757933 0.177545 0.267691
O O4 0.826711 0.326699 0.161538
O O5 0.241774 0.483547 0.750000
O O6 0.389444 0.517240 0.901385
O O7 0.857820 0.904875 0.616645
O O8 0.795900 0.897950 0.916667
O O9 0.448044 0.896088 0.250000
O O10 0.546913 0.000000 0.000000
#
# Coordination Sequence:
#
# PCOD9583374 Si02
#       5
#     6   6  12  12  12
#     4  12  26  44  66 102 152 194 252 320 394 480
#     4  12  28  48  86 116 154 210 278 324 408 494
#     4  12  26  48  75 111 156 209 258 332 402 487
#     4  10  22  40  64  94 132 185 248 316 390 463
#     4  12  26  53  82 118 165 217 272 346 422 500
#
# _framework density 22.593371999999999
#
# number of rings (size 3 to 8) (size 9 to 14) (size 15 to 20)
#    0.000    0.500    3.750    4.500    1.750    8.000 
#    2.250    0.000    0.000    0.000    0.000    0.000 
#    0.000    0.000    0.000    0.000    0.000    0.000 
#
# Total GULP energy -267950.404007 kJ/mol
# GULP energy per Si atom -5582.300083 kJ/mol
# Density = 2.254195 g / cm^3
# Si number density = 22.593372 Si / 1000 Ang^3
#
#
#
# Elastic Constant Matrix: (Units=GPa)
#
#
# Indices 1 2 3 4 5 6 
#
# 1 139.6526 77.3952 27.0426 0.0000 0.0000 0.0000
# 2 77.3952 139.6526 27.0426 0.0000 0.0000 0.0000
# 3 27.0426 27.0426 116.9130 0.0000 0.0000 0.0000
# 4 0.0000 0.0000 0.0000 32.3124 0.0000 0.0000
# 5 0.0000 0.0000 0.0000 0.0000 32.3124 0.0000
# 6 0.0000 0.0000 0.0000 0.0000 0.0000 31.1287
#
#
#
# Elastic Compliance Matrix: (Units=1/GPa)
#
#
# Indices 1 2 3 4 5 6 
#
# 1 0.010476 -0.005587 -0.001131 0.000000 0.000000 0.000000
# 2 -0.005587 0.010476 -0.001131 0.000000 0.000000 0.000000
# 3 -0.001131 -0.001131 0.009077 0.000000 0.000000 0.000000
# 4 0.000000 0.000000 0.000000 0.030948 0.000000 0.000000
# 5 0.000000 0.000000 0.000000 0.000000 0.030948 0.000000
# 6 0.000000 0.000000 0.000000 0.000000 0.000000 0.032125
#
#
# Mechanical properties :
#
#
# Convention : Reuss Voigt Hill
#
# Bulk Modulus (GPa) = 69.77786 73.24213 71.50999
# Shear Modulus (GPa) = 34.59676 36.79989 35.69833
#
# Velocity S-wave (km/s) = 3.91740 4.04021 3.97928
# Velocity P-wave (km/s) = 7.17026 7.36561 7.26859
#
# Compressibility (1/GPa) = 0.01433119
#
# Stress axis : x y z
#
# Youngs Moduli (GPa) = 95.45887 95.45887 110.17440
#
# Poissons Ratio (x) = 0.53329 0.12459
# Poissons Ratio (y) = 0.53329 0.12459
# Poissons Ratio (z) = 0.10795 0.10795
#
# Static dielectric constant tensor:
#      x y z
#    x 1.811970 0.000000 0.000000 
#    y 0.000000 1.811970 0.000000 
#    z 0.000000 0.000000 1.917950 
# 
# From -- ./inp_files/2879.got.cif
#   From: 2010.05.17/outbox.cif.g08.bks.cpg/sg179_2_cif.got.tgz:2879.got - 2010.05.20 11:37:33.
