data_PCOD9583691
_publ_section_title
;
Structure prediction by ZEFSAII (Michael W. Deem and Ramdas Pophale) SiO2 
 PCOD9583691
Probable space group: P 62 2 2
;
_chemical_formula_sum "Si O2"
_cell_formula_units_Z 48
_cell_length_a 17.123893
_cell_length_b 17.123893
_cell_length_c 9.758230
_cell_angle_alpha 90.000000
_cell_angle_beta 90.000000
_cell_angle_gamma 120.000000
_cell_volume 2478.030758
_symmetry_space_group_name_H-M "P 62 2 2"
_symmetry_group_IT_number 180
_symmetry_cell_setting 'hexagonal'
loop_
_space_group_symop_operation_xyz
x,y,z
x-y,x,1/3+z
-y,x-y,2/3+z
-x,-y,z
-x+y,-x,1/3+z
y,-x+y,2/3+z
x-y,-y,-z
-x,-x+y,1/3-z
y,x,2/3-z
-y,-x,2/3-z
-x+y,y,-z
x,x-y,1/3-z
loop_
_atom_site_type_symbol
_atom_site_label
_atom_site_fract_x
_atom_site_fract_y
_atom_site_fract_z
Si Si1 0.244234 0.934775 0.631896
Si Si2 0.196206 0.690061 0.954861
Si Si3 0.214674 0.315793 0.134089
Si Si4 0.315811 0.522397 0.133319
O O1 0.304544 0.887682 0.651558
O O2 0.144446 0.855036 0.592385
O O3 0.281256 0.000000 0.500000
O O4 0.254965 0.997301 0.760786
O O5 0.237901 0.762100 0.833334
O O6 0.175938 0.594780 0.895463
O O7 0.272513 0.725290 0.072727
O O8 0.292499 0.419657 0.155339
O O9 0.157644 0.315288 0.000000
O O10 0.260567 0.521134 0.000000
#
# Coordination Sequence:
#
# PCOD9583691 Si02
#       4
#    12  12  12  12
#     4   9  18  34  54  77 109 144 189 236 286 350
#     4  11  21  33  52  79 112 150 194 239 281 328
#     4   8  16  31  51  76 104 139 184 231 276 333
#     4  10  19  32  50  74 109 154 197 236 278 328
#
# _framework density 19.37022
#
# number of rings (size 3 to 8) (size 9 to 14) (size 15 to 20)
#    0.000    2.500    0.000    4.500    0.000    1.000 
#    0.000   11.250    0.000    6.000    0.000    0.000 
#    0.000   85.000    0.000    0.000    0.000    0.000 
#
# Total GULP energy -267707.927626 kJ/mol
# GULP energy per Si atom -5577.248492 kJ/mol
# Density = 1.932613 g / cm^3
# Si number density = 19.370220 Si / 1000 Ang^3
#
#
#
# Elastic Constant Matrix: (Units=GPa)
#
#
# Indices 1 2 3 4 5 6 
#
# 1 90.1729 65.7514 33.5267 0.0000 0.0000 0.0000
# 2 65.7514 90.1729 33.5267 0.0000 0.0000 0.0000
# 3 33.5267 33.5267 60.7476 0.0000 0.0000 0.0000
# 4 0.0000 0.0000 0.0000 26.6523 0.0000 0.0000
# 5 0.0000 0.0000 0.0000 0.0000 26.6523 0.0000
# 6 0.0000 0.0000 0.0000 0.0000 0.0000 12.2108
#
#
#
# Elastic Compliance Matrix: (Units=1/GPa)
#
#
# Indices 1 2 3 4 5 6 
#
# 1 0.024678 -0.016269 -0.004641 0.000000 0.000000 0.000000
# 2 -0.016269 0.024678 -0.004641 0.000000 0.000000 0.000000
# 3 -0.004641 -0.004641 0.021584 0.000000 0.000000 0.000000
# 4 0.000000 0.000000 0.000000 0.037520 0.000000 0.000000
# 5 0.000000 0.000000 0.000000 0.000000 0.037520 0.000000
# 6 0.000000 0.000000 0.000000 0.000000 0.000000 0.081895
#
#
# Mechanical properties :
#
#
# Convention : Reuss Voigt Hill
#
# Bulk Modulus (GPa) = 50.40691 56.30036 53.35364
# Shear Modulus (GPa) = 17.50751 20.32231 18.91491
#
# Velocity S-wave (km/s) = 3.00965 3.24258 3.12828
# Velocity P-wave (km/s) = 6.17711 6.56868 6.37590
#
# Compressibility (1/GPa) = 0.01983855
#
# Stress axis : x y z
#
# Youngs Moduli (GPa) = 40.52139 40.52139 46.32979
#
# Poissons Ratio (x) = 0.65925 0.21502
# Poissons Ratio (y) = 0.65925 0.21502
# Poissons Ratio (z) = 0.18806 0.18806
#
# Static dielectric constant tensor:
#      x y z
#    x 1.677040 0.000000 0.000000 
#    y 0.000000 1.677040 0.000000 
#    z 0.000000 0.000000 1.718560 
# 
# From -- ./inp_files/2643.got.cif
#   From: 2010.05.17/outbox.cif.g08.bks.cpg/sg180_2_cif.got.tgz:2643.got - 2010.05.20 11:43:55.
