data_PCOD9583305
_publ_section_title
;
Structure prediction by ZEFSAII (Michael W. Deem and Ramdas Pophale) SiO2 
 PCOD9583305
Probable space group: P 65 2 2
;
_chemical_formula_sum "Si O2"
_cell_formula_units_Z 72
_cell_length_a 17.063985
_cell_length_b 17.063985
_cell_length_c 11.534513
_cell_angle_alpha 90.000000
_cell_angle_beta 90.000000
_cell_angle_gamma 120.000000
_cell_volume 2908.645650
_symmetry_space_group_name_H-M "P 65 2 2"
_symmetry_group_IT_number 179
_symmetry_cell_setting 'hexagonal'
loop_
_space_group_symop_operation_xyz
x,y,z
x-y,x,5/6+z
-y,x-y,2/3+z
-x,-y,1/2+z
-x+y,-x,1/3+z
y,-x+y,1/6+z
x-y,-y,-z
-x,-x+y,1/3-z
y,x,2/3-z
-y,-x,1/6-z
-x+y,y,1/2-z
x,x-y,5/6-z
loop_
_atom_site_type_symbol
_atom_site_label
_atom_site_fract_x
_atom_site_fract_y
_atom_site_fract_z
Si Si1 0.143901 0.000000 0.000000
Si Si2 0.288502 0.477280 0.632649
Si Si3 0.459595 0.609961 0.951832
Si Si4 0.119640 0.831218 0.839550
Si Si5 0.263968 0.924118 0.669398
Si Si6 0.675812 0.337906 0.416667
Si Si7 0.996270 0.593171 0.046523
O O1 0.222164 0.077190 0.086121
O O2 0.062128 0.937873 0.083334
O O3 0.244828 0.489655 0.750000
O O4 0.219473 0.381095 0.578854
O O5 0.309602 0.559484 0.547589
O O6 0.376287 0.471658 0.667681
O O7 0.411692 0.588309 0.083334
O O8 0.565123 0.683842 0.934303
O O9 0.399035 0.636679 0.872864
O O10 0.447694 0.512452 0.928148
O O11 0.165176 0.854131 0.713871
O O12 0.016006 0.754460 0.814226
O O13 0.326621 0.949498 0.785258
O O14 0.000000 0.641482 0.166667
#
# Coordination Sequence:
#
# PCOD9583305 Si02
#       7
#     6  12  12  12  12   6  12
#     4  12  24  42  72 106 142 174 216 288 360 424
#     4  11  23  35  59  92 128 168 215 267 330 402
#     4  10  22  42  59  86 127 171 215 274 324 382
#     4  11  22  38  64  98 129 166 209 265 345 411
#     4  10  22  38  63  88 128 168 207 261 334 407
#     4  12  24  40  62  90 124 176 238 282 316 390
#     4  10  21  37  58  88 129 166 216 270 334 397
#
# _framework density 24.753789000000001
#
# number of rings (size 3 to 8) (size 9 to 14) (size 15 to 20)
#    0.000    1.333    1.667    5.000    9.333    0.000 
#    3.000    0.000    1.833    0.000    0.000    0.000 
#    0.000    0.000    0.000    0.000    0.000    0.000 
#
# Total GULP energy -401196.355207 kJ/mol
# GULP energy per Si atom -5572.171600 kJ/mol
# Density = 2.469745 g / cm^3
# Si number density = 24.753789 Si / 1000 Ang^3
#
#
#
# Elastic Constant Matrix: (Units=GPa)
#
#
# Indices 1 2 3 4 5 6 
#
# 1 125.0703 135.6115 14.0253 0.0000 0.0000 0.0000
# 2 135.6115 125.0703 14.0253 0.0000 0.0000 0.0000
# 3 14.0253 14.0253 59.0817 0.0000 0.0000 0.0000
# 4 0.0000 0.0000 0.0000 14.5255 0.0000 0.0000
# 5 0.0000 0.0000 0.0000 0.0000 14.5255 0.0000
# 6 0.0000 0.0000 0.0000 0.0000 0.0000 -5.2706
#
#
#
# Elastic Compliance Matrix: (Units=1/GPa)
#
#
# Indices 1 2 3 4 5 6 
#
# 1 -0.045465 0.049401 -0.000935 0.000000 0.000000 0.000000
# 2 0.049401 -0.045465 -0.000935 0.000000 0.000000 0.000000
# 3 -0.000935 -0.000935 0.017369 0.000000 0.000000 0.000000
# 4 0.000000 0.000000 0.000000 0.068845 0.000000 0.000000
# 5 0.000000 0.000000 0.000000 0.000000 0.068845 0.000000
# 6 0.000000 0.000000 0.000000 0.000000 0.000000 -0.189732
#
#
# Mechanical properties :
#
#
# Convention : Reuss Voigt Hill
#
# Bulk Modulus (GPa) = 46.50153 70.72735 58.61444
# Shear Modulus (GPa) = -23.41924 14.46009 -4.47957
#
# Velocity S-wave (km/s) = -3.07919 2.41956 -1.34669
# Velocity P-wave (km/s) = 2.48687 6.03656 4.61652
#
# Compressibility (1/GPa) = 0.02150467
#
# Stress axis : x y z
#
# Youngs Moduli (GPa) = -21.99507 -21.99507 57.57248
#
# Poissons Ratio (x) = 1.08659 0.05380
# Poissons Ratio (y) = 1.08659 0.05380
# Poissons Ratio (z) = -0.02055 -0.02055
#
# Static dielectric constant tensor:
#      x y z
#    x 1.985280 0.000000 0.000000 
#    y 0.000000 1.985280 0.000000 
#    z 0.000000 0.000000 2.288940 
# 
# From -- ./inp_files/6886.got.cif
#   From: 2010.05.17/outbox.cif.g08.bks.cpg/sg179_4_cif.got.tgz:6886.got - 2010.05.20 11:37:33.
