data_PCOD9583127
_publ_section_title
;
Structure prediction by ZEFSAII (Michael W. Deem and Ramdas Pophale) SiO2 
 PCOD9583127
Probable space group: P 65 2 2
;
_chemical_formula_sum "Si O2"
_cell_formula_units_Z 54
_cell_length_a 13.979121
_cell_length_b 13.979121
_cell_length_c 14.323755
_cell_angle_alpha 90.000000
_cell_angle_beta 90.000000
_cell_angle_gamma 120.000000
_cell_volume 2424.081649
_symmetry_space_group_name_H-M "P 65 2 2"
_symmetry_group_IT_number 179
_symmetry_cell_setting 'hexagonal'
loop_
_space_group_symop_operation_xyz
x,y,z
x-y,x,5/6+z
-y,x-y,2/3+z
-x,-y,1/2+z
-x+y,-x,1/3+z
y,-x+y,1/6+z
x-y,-y,-z
-x,-x+y,1/3-z
y,x,2/3-z
-y,-x,1/6-z
-x+y,y,1/2-z
x,x-y,5/6-z
loop_
_atom_site_type_symbol
_atom_site_label
_atom_site_fract_x
_atom_site_fract_y
_atom_site_fract_z
Si Si1 0.249535 0.000000 0.500000
Si Si2 0.056454 0.510771 0.065361
Si Si3 0.223172 0.488846 0.149564
Si Si4 0.968546 0.626701 0.930106
Si Si5 0.111029 0.955130 0.800888
O O1 0.369167 0.111811 0.492730
O O2 0.191578 0.029129 0.583866
O O3 0.183502 0.558158 0.089555
O O4 0.000000 0.488543 0.166667
O O5 0.021904 0.584437 0.006223
O O6 0.024288 0.402072 0.001432
O O7 0.269742 0.539483 0.250000
O O8 0.301418 0.460448 0.089991
O O9 0.973106 0.738490 0.962720
O O10 0.054983 0.932496 0.902624
#
# Coordination Sequence:
#
# PCOD9583127 Si02
#       5
#     6  12  12  12  12
#     4  10  18  30  62 106 140 164 230 292 334 408
#     4  11  21  37  66 103 143 186 240 310 361 429
#     4  11  17  33  64 106 135 179 238 300 353 420
#     4  10  22  37  64 106 144 186 238 296 377 422
#     4  11  22  38  67 103 144 187 233 289 349 443
#
# _framework density 22.276478000000001
#
# number of rings (size 3 to 8) (size 9 to 14) (size 15 to 20)
#    0.000    1.333    3.333    6.000    0.000    0.000 
#    0.000    0.000   17.111   32.000    0.000    0.000 
#    0.000    0.000    0.000    0.000    0.000    0.000 
#
# Total GULP energy -301455.597235 kJ/mol
# GULP energy per Si atom -5582.511060 kJ/mol
# Density = 2.222578 g / cm^3
# Si number density = 22.276478 Si / 1000 Ang^3
#
#
#
# Elastic Constant Matrix: (Units=GPa)
#
#
# Indices 1 2 3 4 5 6 
#
# 1 105.4127 44.9546 58.1353 0.0000 0.0000 0.0000
# 2 44.9546 105.4127 58.1353 0.0000 0.0000 0.0000
# 3 58.1353 58.1353 151.6606 0.0000 0.0000 0.0000
# 4 0.0000 0.0000 0.0000 38.6205 0.0000 0.0000
# 5 0.0000 0.0000 0.0000 0.0000 38.6205 0.0000
# 6 0.0000 0.0000 0.0000 0.0000 0.0000 30.2291
#
#
#
# Elastic Compliance Matrix: (Units=1/GPa)
#
#
# Indices 1 2 3 4 5 6 
#
# 1 0.012996 -0.003544 -0.003623 0.000000 0.000000 0.000000
# 2 -0.003544 0.012996 -0.003623 0.000000 0.000000 0.000000
# 3 -0.003623 -0.003623 0.009371 0.000000 0.000000 0.000000
# 4 0.000000 0.000000 0.000000 0.025893 0.000000 0.000000
# 5 0.000000 0.000000 0.000000 0.000000 0.025893 0.000000
# 6 0.000000 0.000000 0.000000 0.000000 0.000000 0.033081
#
#
# Mechanical properties :
#
#
# Convention : Reuss Voigt Hill
#
# Bulk Modulus (GPa) = 72.55511 76.10403 74.32957
# Shear Modulus (GPa) = 34.15168 34.91143 34.53156
#
# Velocity S-wave (km/s) = 3.91971 3.96307 3.94145
# Velocity P-wave (km/s) = 7.28879 7.42824 7.35885
#
# Compressibility (1/GPa) = 0.01378263
#
# Stress axis : x y z
#
# Youngs Moduli (GPa) = 76.94572 76.94572 106.70781
#
# Poissons Ratio (x) = 0.27271 0.38662
# Poissons Ratio (y) = 0.27271 0.38662
# Poissons Ratio (z) = 0.27879 0.27879
#
# Static dielectric constant tensor:
#      x y z
#    x 1.887780 0.000000 0.000000 
#    y 0.000000 1.887780 0.000000 
#    z 0.000000 0.000000 1.860910 
# 
# From -- ./inp_files/5642.got.cif
#   From: 2010.05.17/outbox.cif.g08.bks.cpg/sg179_3_cif.got.tgz:5642.got - 2010.05.20 11:37:33.
