data_PCOD9583175
_publ_section_title
;
Structure prediction by ZEFSAII (Michael W. Deem and Ramdas Pophale) SiO2 
 PCOD9583175
Probable space group: P 65 2 2
;
_chemical_formula_sum "Si O2"
_cell_formula_units_Z 66
_cell_length_a 19.439067
_cell_length_b 19.439067
_cell_length_c 8.369103
_cell_angle_alpha 90.000000
_cell_angle_beta 90.000000
_cell_angle_gamma 120.000000
_cell_volume 2738.800370
_symmetry_space_group_name_H-M "P 65 2 2"
_symmetry_group_IT_number 179
_symmetry_cell_setting 'hexagonal'
loop_
_space_group_symop_operation_xyz
x,y,z
x-y,x,5/6+z
-y,x-y,2/3+z
-x,-y,1/2+z
-x+y,-x,1/3+z
y,-x+y,1/6+z
x-y,-y,-z
-x,-x+y,1/3-z
y,x,2/3-z
-y,-x,1/6-z
-x+y,y,1/2-z
x,x-y,5/6-z
loop_
_atom_site_type_symbol
_atom_site_label
_atom_site_fract_x
_atom_site_fract_y
_atom_site_fract_z
Si Si1 0.889535 0.042371 0.259565
Si Si2 0.962792 0.698317 0.842577
Si Si3 0.467058 0.269097 0.570023
Si Si4 0.384757 0.255703 0.011781
Si Si5 0.505294 0.105854 0.044394
Si Si6 0.037340 0.518670 0.916667
O O1 0.818012 0.060330 0.260921
O O2 0.950308 0.087689 0.401396
O O3 0.926444 0.073557 0.083334
O O4 0.886382 0.610442 0.847397
O O5 0.000000 0.730462 0.666667
O O6 0.040749 0.712958 0.933071
O O7 0.504053 0.252027 0.416667
O O8 0.431704 0.191081 0.680968
O O9 0.525469 0.348453 0.666323
O O10 0.345277 0.172639 0.916667
O O11 0.445597 0.326054 0.898504
O O12 0.466355 0.028192 0.159701
O O13 0.558343 0.092016 0.908970
#
# Coordination Sequence:
#
# PCOD9583175 Si02
#       6
#    12  12  12  12  12   6
#     4  10  19  32  46  60  90 135 207 284 336 383
#     4  12  19  33  58  85 115 171 232 280 338 428
#     4  11  22  38  64  99 139 190 232 282 363 437
#     4  10  23  41  60  93 143 183 227 288 354 432
#     4  10  23  41  62  95 139 179 218 281 340 447
#     4  10  20  42  66  96 142 182 234 292 378 424
#
# _framework density 24.098140000000001
#
# number of rings (size 3 to 8) (size 9 to 14) (size 15 to 20)
#    0.000    1.455    3.636    3.818    0.000    5.091 
#    6.545    4.545    0.000    0.000    0.000    0.000 
#  155.455    0.000    0.000    0.000    0.000    0.000 
#
# Total GULP energy -367876.700751 kJ/mol
# GULP energy per Si atom -5573.889405 kJ/mol
# Density = 2.404329 g / cm^3
# Si number density = 24.098140 Si / 1000 Ang^3
#
#
#
# Elastic Constant Matrix: (Units=GPa)
#
#
# Indices 1 2 3 4 5 6 
#
# 1 69.6952 10.4675 49.7582 0.0000 0.0000 0.0000
# 2 10.4675 69.6952 49.7582 0.0000 0.0000 0.0000
# 3 49.7582 49.7582 149.5331 0.0000 0.0000 0.0000
# 4 0.0000 0.0000 0.0000 27.6084 0.0000 0.0000
# 5 0.0000 0.0000 0.0000 0.0000 27.6084 0.0000
# 6 0.0000 0.0000 0.0000 0.0000 0.0000 29.6138
#
#
#
# Elastic Compliance Matrix: (Units=1/GPa)
#
#
# Indices 1 2 3 4 5 6 
#
# 1 0.019069 0.002185 -0.007073 0.000000 0.000000 0.000000
# 2 0.002185 0.019069 -0.007073 0.000000 0.000000 0.000000
# 3 -0.007073 -0.007073 0.011394 0.000000 0.000000 0.000000
# 4 0.000000 0.000000 0.000000 0.036221 0.000000 0.000000
# 5 0.000000 0.000000 0.000000 0.000000 0.036221 0.000000
# 6 0.000000 0.000000 0.000000 0.000000 0.000000 0.033768
#
#
# Mechanical properties :
#
#
# Convention : Reuss Voigt Hill
#
# Bulk Modulus (GPa) = 39.04201 56.54350 47.79275
# Shear Modulus (GPa) = 26.56734 28.89543 27.73138
#
# Velocity S-wave (km/s) = 3.32394 3.46652 3.39598
# Velocity P-wave (km/s) = 5.56488 6.28786 5.93738
#
# Compressibility (1/GPa) = 0.02561344
#
# Stress axis : x y z
#
# Youngs Moduli (GPa) = 52.43982 52.43982 87.76167
#
# Poissons Ratio (x) = -0.11461 0.62072
# Poissons Ratio (y) = -0.11461 0.62072
# Poissons Ratio (z) = 0.37089 0.37089
#
# Static dielectric constant tensor:
#      x y z
#    x 1.961190 0.000000 0.000000 
#    y 0.000000 1.961190 0.000000 
#    z 0.000000 0.000000 1.942610 
# 
# From -- ./inp_files/3342.got.cif
#   From: 2010.05.17/outbox.cif.g08.bks.cpg/sg179_2_cif.got.tgz:3342.got - 2010.05.20 11:37:33.
