data_PCOD9583746
_publ_section_title
;
Structure prediction by ZEFSAII (Michael W. Deem and Ramdas Pophale) SiO2 
 PCOD9583746
Probable space group: P 62 2 2
;
_chemical_formula_sum "Si O2"
_cell_formula_units_Z 84
_cell_length_a 18.224399
_cell_length_b 18.224399
_cell_length_c 15.131508
_cell_angle_alpha 90.000000
_cell_angle_beta 90.000000
_cell_angle_gamma 120.000000
_cell_volume 4352.304515
_symmetry_space_group_name_H-M "P 62 2 2"
_symmetry_group_IT_number 180
_symmetry_cell_setting 'hexagonal'
loop_
_space_group_symop_operation_xyz
x,y,z
x-y,x,1/3+z
-y,x-y,2/3+z
-x,-y,z
-x+y,-x,1/3+z
y,-x+y,2/3+z
x-y,-y,-z
-x,-x+y,1/3-z
y,x,2/3-z
-y,-x,2/3-z
-x+y,y,-z
x,x-y,1/3-z
loop_
_atom_site_type_symbol
_atom_site_label
_atom_site_fract_x
_atom_site_fract_y
_atom_site_fract_z
Si Si1 0.303444 0.227953 0.781780
Si Si2 0.487721 0.689783 0.538201
Si Si3 0.150635 0.657414 0.664836
Si Si4 0.527400 0.326089 0.052756
Si Si5 0.255836 0.925738 0.247653
Si Si6 0.489995 0.140141 0.481480
Si Si7 0.101068 0.732503 0.818630
O O1 0.228326 0.228326 0.833334
O O2 0.296638 0.247399 0.679975
O O3 0.303544 0.140467 0.788565
O O4 0.392285 0.301283 0.823112
O O5 0.513524 0.680384 0.438117
O O6 0.404879 0.610679 0.575821
O O7 0.568545 0.702399 0.592539
O O8 0.475439 0.771169 0.535016
O O9 0.113318 0.556659 0.666667
O O10 0.243725 0.705381 0.710981
O O11 0.103103 0.696782 0.720726
O O12 0.450917 0.307687 0.117954
O O13 0.500518 0.339273 0.955692
O O14 0.306663 0.006842 0.186139
O O15 0.551219 0.102437 0.500000
O O16 0.166781 0.833220 0.833334
#
# Coordination Sequence:
#
# PCOD9583746 Si02
#       7
#    12  12  12  12  12  12  12
#     4  10  21  41  64  86 116 145 191 242 301 371
#     4  10  21  34  51  81 117 157 204 246 294 341
#     4  10  20  34  51  79 113 159 207 245 288 340
#     4  10  20  32  53  77 116 160 202 249 285 338
#     4  10  22  40  62  88 116 151 189 244 305 362
#     4  10  21  32  52  83 113 154 198 247 292 340
#     4  10  21  38  59  85 117 154 199 243 295 361
#
# _framework density 19.300121000000001
#
# number of rings (size 3 to 8) (size 9 to 14) (size 15 to 20)
#    0.000    2.000    1.429    1.714    4.000    3.714 
#    0.000    3.571    0.000    0.429    0.000    2.000 
#    0.000    0.000    0.000    0.000    0.000    0.000 
#
# Total GULP energy -468994.129155 kJ/mol
# GULP energy per Si atom -5583.263442 kJ/mol
# Density = 1.925619 g / cm^3
# Si number density = 19.300121 Si / 1000 Ang^3
#
#
#
# Elastic Constant Matrix: (Units=GPa)
#
#
# Indices 1 2 3 4 5 6 
#
# 1 60.5775 58.1201 36.5080 0.0000 0.0000 0.0000
# 2 58.1201 60.5775 36.5080 0.0000 0.0000 0.0000
# 3 36.5080 36.5080 85.7240 0.0000 0.0000 0.0000
# 4 0.0000 0.0000 0.0000 22.9244 0.0000 0.0000
# 5 0.0000 0.0000 0.0000 0.0000 22.9244 0.0000
# 6 0.0000 0.0000 0.0000 0.0000 0.0000 1.2287
#
#
#
# Elastic Compliance Matrix: (Units=1/GPa)
#
#
# Indices 1 2 3 4 5 6 
#
# 1 0.209173 -0.197757 -0.004862 0.000000 0.000000 0.000000
# 2 -0.197757 0.209173 -0.004862 0.000000 0.000000 0.000000
# 3 -0.004862 -0.004862 0.015806 0.000000 0.000000 0.000000
# 4 0.000000 0.000000 0.000000 0.043622 0.000000 0.000000
# 5 0.000000 0.000000 0.000000 0.000000 0.043622 0.000000
# 6 0.000000 0.000000 0.000000 0.000000 0.000000 0.813860
#
#
# Mechanical properties :
#
#
# Convention : Reuss Voigt Hill
#
# Bulk Modulus (GPa) = 52.10865 52.12791 52.11828
# Shear Modulus (GPa) = 2.84639 14.46501 8.65570
#
# Velocity S-wave (km/s) = 1.21573 2.74063 2.12003
# Velocity P-wave (km/s) = 5.38780 6.08954 5.74939
#
# Compressibility (1/GPa) = 0.01919067
#
# Stress axis : x y z
#
# Youngs Moduli (GPa) = 4.78074 4.78074 63.26630
#
# Poissons Ratio (x) = 0.94543 0.30757
# Poissons Ratio (y) = 0.94543 0.30757
# Poissons Ratio (z) = 0.02324 0.02324
#
# Static dielectric constant tensor:
#      x y z
#    x 1.672480 0.000000 0.000000 
#    y 0.000000 1.672480 0.000000 
#    z 0.000000 0.000000 1.810540 
# 
# From -- ./inp_files/6484.got.cif
#   From: 2010.05.17/outbox.cif.g08.bks.cpg/sg180_4_cif.got.tgz:6484.got - 2010.05.20 11:43:55.
