data_PCOD9583872
_publ_section_title
;
Structure prediction by ZEFSAII (Michael W. Deem and Ramdas Pophale) SiO2 
 PCOD9583872
Probable space group: P 62 2 2
;
_chemical_formula_sum "Si O2"
_cell_formula_units_Z 66
_cell_length_a 14.199830
_cell_length_b 14.199830
_cell_length_c 18.191936
_cell_angle_alpha 90.000000
_cell_angle_beta 90.000000
_cell_angle_gamma 120.000000
_cell_volume 3176.697354
_symmetry_space_group_name_H-M "P 62 2 2"
_symmetry_group_IT_number 180
_symmetry_cell_setting 'hexagonal'
loop_
_space_group_symop_operation_xyz
x,y,z
x-y,x,1/3+z
-y,x-y,2/3+z
-x,-y,z
-x+y,-x,1/3+z
y,-x+y,2/3+z
x-y,-y,-z
-x,-x+y,1/3-z
y,x,2/3-z
-y,-x,2/3-z
-x+y,y,-z
x,x-y,1/3-z
loop_
_atom_site_type_symbol
_atom_site_label
_atom_site_fract_x
_atom_site_fract_y
_atom_site_fract_z
Si Si1 0.582479 0.733612 0.091873
Si Si2 0.695819 0.737856 0.670335
Si Si3 0.392994 0.829258 0.321368
Si Si4 0.451155 0.119003 0.977556
Si Si5 0.303141 0.515612 0.794347
Si Si6 0.000000 0.684980 0.166667
O O1 0.593009 0.796505 0.166667
O O2 0.690580 0.735274 0.062806
O O3 0.472218 0.615332 0.082493
O O4 0.560874 0.801294 0.031575
O O5 0.724353 0.862177 0.666667
O O6 0.565084 0.664500 0.660134
O O7 0.735783 0.724239 0.751688
O O8 0.296434 0.703566 0.333334
O O9 0.470257 0.849037 0.390917
O O10 0.471696 0.179657 0.898670
O O11 0.559770 0.119539 0.000000
O O12 0.355379 0.000000 0.000000
O O13 0.366598 0.633403 0.833334
O O14 0.312922 0.426946 0.842613
#
# Coordination Sequence:
#
# PCOD9583872 Si02
#       6
#    12  12  12  12  12   6
#     4  11  23  42  62  88 137 183 217 275 340 420
#     4  11  24  42  65 105 132 171 236 295 355 415
#     4  10  21  37  59  96 141 175 227 272 332 424
#     4  10  23  43  61  90 133 181 228 261 340 439
#     4  11  20  32  65  97 128 171 223 283 351 397
#     4  12  21  38  70  98 135 174 218 309 366 392
#
# _framework density 20.776297
#
# number of rings (size 3 to 8) (size 9 to 14) (size 15 to 20)
#    0.000    1.273    5.455    3.000    0.000    4.364 
#    6.545    0.000    0.000    0.545    0.000    0.000 
#    0.000    0.000    0.000    0.000    0.000    0.000 
#
# Total GULP energy -367627.850217 kJ/mol
# GULP energy per Si atom -5570.118943 kJ/mol
# Density = 2.072901 g / cm^3
# Si number density = 20.776297 Si / 1000 Ang^3
#
#
#
# Elastic Constant Matrix: (Units=GPa)
#
#
# Indices 1 2 3 4 5 6 
#
# 1 70.0625 15.1257 33.8450 0.0000 0.0000 0.0000
# 2 15.1257 70.0625 33.8450 0.0000 0.0000 0.0000
# 3 33.8450 33.8450 114.8329 0.0000 0.0000 0.0000
# 4 0.0000 0.0000 0.0000 38.8585 0.0000 0.0000
# 5 0.0000 0.0000 0.0000 0.0000 38.8585 0.0000
# 6 0.0000 0.0000 0.0000 0.0000 0.0000 27.4684
#
#
#
# Elastic Compliance Matrix: (Units=1/GPa)
#
#
# Indices 1 2 3 4 5 6 
#
# 1 0.016766 -0.001437 -0.004518 0.000000 0.000000 0.000000
# 2 -0.001437 0.016766 -0.004518 0.000000 0.000000 0.000000
# 3 -0.004518 -0.004518 0.011371 0.000000 0.000000 0.000000
# 4 0.000000 0.000000 0.000000 0.025734 0.000000 0.000000
# 5 0.000000 0.000000 0.000000 0.000000 0.025734 0.000000
# 6 0.000000 0.000000 0.000000 0.000000 0.000000 0.036406
#
#
# Mechanical properties :
#
#
# Convention : Reuss Voigt Hill
#
# Bulk Modulus (GPa) = 41.74109 46.73214 44.23661
# Shear Modulus (GPa) = 30.91989 32.51323 31.71656
#
# Velocity S-wave (km/s) = 3.86194 3.96020 3.91138
# Velocity P-wave (km/s) = 6.32617 6.59187 6.46039
#
# Compressibility (1/GPa) = 0.02395721
#
# Stress axis : x y z
#
# Youngs Moduli (GPa) = 59.64577 59.64577 87.93990
#
# Poissons Ratio (x) = 0.08572 0.39730
# Poissons Ratio (y) = 0.08572 0.39730
# Poissons Ratio (z) = 0.26947 0.26947
#
# Static dielectric constant tensor:
#      x y z
#    x 1.784250 0.000000 0.000000 
#    y 0.000000 1.784250 0.000000 
#    z 0.000000 0.000000 1.880350 
# 
# From -- ./inp_files/7685.got.cif
#   From: 2010.05.17/outbox.cif.g08.bks.cpg/sg180_4_cif.got.tgz:7685.got - 2010.05.20 11:43:55.
