data_PCOD9583019
_publ_section_title
;
Structure prediction by ZEFSAII (Michael W. Deem and Ramdas Pophale) SiO2 
 PCOD9583019
Probable space group: P 61 2 2
;
_chemical_formula_sum "Si O2"
_cell_formula_units_Z 48
_cell_length_a 18.833184
_cell_length_b 18.833184
_cell_length_c 7.567637
_cell_angle_alpha 90.000000
_cell_angle_beta 90.000000
_cell_angle_gamma 120.000000
_cell_volume 2324.547487
_symmetry_space_group_name_H-M "P 61 2 2"
_symmetry_group_IT_number 178
_symmetry_cell_setting 'hexagonal'
loop_
_space_group_symop_operation_xyz
x,y,z
x-y,x,1/6+z
-y,x-y,1/3+z
-x,-y,1/2+z
-x+y,-x,2/3+z
y,-x+y,5/6+z
x-y,-y,-z
-x,-x+y,2/3-z
y,x,1/3-z
-y,-x,5/6-z
-x+y,y,1/2-z
x,x-y,1/6-z
loop_
_atom_site_type_symbol
_atom_site_label
_atom_site_fract_x
_atom_site_fract_y
_atom_site_fract_z
Si Si1 0.430174 0.860348 0.750000
Si Si2 0.000000 0.298139 0.333334
Si Si3 0.758028 0.506755 0.455923
Si Si4 0.427194 0.854387 0.250000
Si Si5 0.991510 0.597106 0.145244
Si Si6 0.353572 0.176786 0.083334
O O1 0.348760 0.795750 0.642289
O O2 0.527223 0.929310 0.725692
O O3 0.035206 0.364482 0.491356
O O4 0.079433 0.297877 0.264400
O O5 0.765157 0.530314 0.250000
O O6 0.660951 0.458542 0.502587
O O7 0.802223 0.584298 0.584522
O O8 0.417011 0.921378 0.363359
O O9 0.000000 0.639567 0.333334
#
# Coordination Sequence:
#
# PCOD9583019 Si02
#       6
#     6   6  12   6  12   6
#     4  11  26  40  62  93 128 190 247 294 340 391
#     4  12  26  48  74  98 140 172 242 292 362 446
#     4  12  28  42  59  93 139 189 247 298 346 394
#     4  11  26  39  62  92 128 188 246 288 339 389
#     4  11  25  44  67  92 131 188 238 291 351 411
#     4  12  28  47  72 101 130 180 229 302 363 444
#
# _framework density 20.649179
#
# number of rings (size 3 to 8) (size 9 to 14) (size 15 to 20)
#    0.000    0.500    5.000    1.500   19.250    0.000 
#    0.000    0.000    0.000    0.000    0.000    0.000 
#    7.500    0.000    0.000    0.000    0.000    0.000 
#
# Total GULP energy -267478.773268 kJ/mol
# GULP energy per Si atom -5572.474443 kJ/mol
# Density = 2.060218 g / cm^3
# Si number density = 20.649179 Si / 1000 Ang^3
#
#
#
# Elastic Constant Matrix: (Units=GPa)
#
#
# Indices 1 2 3 4 5 6 
#
# 1 114.6099 65.2862 33.9428 0.0000 0.0000 0.0000
# 2 65.2862 114.6099 33.9428 0.0000 0.0000 0.0000
# 3 33.9428 33.9428 116.2394 0.0000 0.0000 0.0000
# 4 0.0000 0.0000 0.0000 18.5497 0.0000 0.0000
# 5 0.0000 0.0000 0.0000 0.0000 18.5497 0.0000
# 6 0.0000 0.0000 0.0000 0.0000 0.0000 24.6618
#
#
#
# Elastic Compliance Matrix: (Units=1/GPa)
#
#
# Indices 1 2 3 4 5 6 
#
# 1 0.013261 -0.007014 -0.001824 0.000000 0.000000 0.000000
# 2 -0.007014 0.013261 -0.001824 0.000000 0.000000 0.000000
# 3 -0.001824 -0.001824 0.009668 0.000000 0.000000 0.000000
# 4 0.000000 0.000000 0.000000 0.053909 0.000000 0.000000
# 5 0.000000 0.000000 0.000000 0.000000 0.053909 0.000000
# 6 0.000000 0.000000 0.000000 0.000000 0.000000 0.040548
#
#
# Mechanical properties :
#
#
# Convention : Reuss Voigt Hill
#
# Bulk Modulus (GPa) = 67.26877 67.97810 67.62343
# Shear Modulus (GPa) = 23.71513 26.50473 25.10993
#
# Velocity S-wave (km/s) = 3.39260 3.58659 3.49094
# Velocity P-wave (km/s) = 6.92777 7.08120 7.00491
#
# Compressibility (1/GPa) = 0.01486574
#
# Stress axis : x y z
#
# Youngs Moduli (GPa) = 75.41083 75.41083 103.43078
#
# Poissons Ratio (x) = 0.52890 0.18868
# Poissons Ratio (y) = 0.52890 0.18868
# Poissons Ratio (z) = 0.13757 0.13757
#
# Static dielectric constant tensor:
#      x y z
#    x 1.778280 0.000000 0.000000 
#    y 0.000000 1.778280 0.000000 
#    z 0.000000 0.000000 1.971580 
# 
# From -- ./inp_files/2718.got.cif
#   From: 2010.05.17/outbox.cif.g08.bks.cpg/sg178_2_cif.got.tgz:2718.got - 2010.05.20 11:30:59.
