data_PCOD9583354
_publ_section_title
;
Structure prediction by ZEFSAII (Michael W. Deem and Ramdas Pophale) SiO2 
 PCOD9583354
Probable space group: P 65 2 2
;
_chemical_formula_sum "Si O2"
_cell_formula_units_Z 84
_cell_length_a 21.803032
_cell_length_b 21.803032
_cell_length_c 11.016778
_cell_angle_alpha 90.000000
_cell_angle_beta 90.000000
_cell_angle_gamma 120.000000
_cell_volume 4535.435699
_symmetry_space_group_name_H-M "P 65 2 2"
_symmetry_group_IT_number 179
_symmetry_cell_setting 'hexagonal'
loop_
_space_group_symop_operation_xyz
x,y,z
x-y,x,5/6+z
-y,x-y,2/3+z
-x,-y,1/2+z
-x+y,-x,1/3+z
y,-x+y,1/6+z
x-y,-y,-z
-x,-x+y,1/3-z
y,x,2/3-z
-y,-x,1/6-z
-x+y,y,1/2-z
x,x-y,5/6-z
loop_
_atom_site_type_symbol
_atom_site_label
_atom_site_fract_x
_atom_site_fract_y
_atom_site_fract_z
Si Si1 0.225399 0.856242 0.197068
Si Si2 0.078118 0.450291 0.719652
Si Si3 0.597096 0.273860 0.552887
Si Si4 0.594115 0.485087 0.909647
Si Si5 0.037402 0.679822 0.799768
Si Si6 0.605727 0.529324 0.641000
Si Si7 0.292435 0.808873 0.849537
O O1 0.300314 0.888976 0.127812
O O2 0.245082 0.920071 0.295272
O O3 0.205839 0.783684 0.269719
O O4 0.168856 0.831145 0.083334
O O5 0.077771 0.514527 0.791352
O O6 0.134867 0.484873 0.609614
O O7 0.000000 0.399389 0.666667
O O8 0.679296 0.320705 0.583334
O O9 0.584046 0.292023 0.416667
O O10 0.567048 0.191757 0.566185
O O11 0.555937 0.293366 0.654965
O O12 0.655860 0.559351 0.958173
O O13 0.585549 0.512601 0.780037
O O14 0.000000 0.675011 0.666667
O O15 0.979854 0.612325 0.878019
O O16 0.535572 0.464429 0.583334
O O17 0.676575 0.527248 0.609521
#
# Coordination Sequence:
#
# PCOD9583354 Si02
#       7
#    12  12  12  12  12  12  12
#     4  10  23  38  55  79 108 135 165 221 297 363
#     4  11  22  37  57  79 100 133 179 229 291 350
#     4  12  24  39  54  71 101 144 183 221 296 388
#     4  11  22  35  51  75 101 128 178 238 285 349
#     4  10  22  37  56  81 101 133 178 233 288 344
#     4  11  20  35  59  75  97 133 184 234 285 350
#     4  11  21  38  54  72 105 136 172 227 294 364
#
# _framework density 18.520821999999999
#
# number of rings (size 3 to 8) (size 9 to 14) (size 15 to 20)
#    0.000    1.143    4.286    3.429    2.000    2.857 
#    0.000    0.000    0.000    0.000    0.000    0.000 
#    0.000    0.000    0.000    0.000    0.000    0.000 
#
# Total GULP energy -467771.642021 kJ/mol
# GULP energy per Si atom -5568.710024 kJ/mol
# Density = 1.847867 g / cm^3
# Si number density = 18.520822 Si / 1000 Ang^3
#
#
#
# Elastic Constant Matrix: (Units=GPa)
#
#
# Indices 1 2 3 4 5 6 
#
# 1 71.8708 34.9299 22.2062 0.0000 0.0000 0.0000
# 2 34.9299 71.8708 22.2062 0.0000 0.0000 0.0000
# 3 22.2062 22.2062 68.6638 0.0000 0.0000 0.0000
# 4 0.0000 0.0000 0.0000 31.0363 0.0000 0.0000
# 5 0.0000 0.0000 0.0000 0.0000 31.0363 0.0000
# 6 0.0000 0.0000 0.0000 0.0000 0.0000 18.4704
#
#
#
# Elastic Compliance Matrix: (Units=1/GPa)
#
#
# Indices 1 2 3 4 5 6 
#
# 1 0.018944 -0.008126 -0.003499 0.000000 0.000000 0.000000
# 2 -0.008126 0.018944 -0.003499 0.000000 0.000000 0.000000
# 3 -0.003499 -0.003499 0.016827 0.000000 0.000000 0.000000
# 4 0.000000 0.000000 0.000000 0.032220 0.000000 0.000000
# 5 0.000000 0.000000 0.000000 0.000000 0.032220 0.000000
# 6 0.000000 0.000000 0.000000 0.000000 0.000000 0.054141
#
#
# Mechanical properties :
#
#
# Convention : Reuss Voigt Hill
#
# Bulk Modulus (GPa) = 40.86907 41.23221 41.05064
# Shear Modulus (GPa) = 23.61843 24.97950 24.29897
#
# Velocity S-wave (km/s) = 3.57492 3.67648 3.62606
# Velocity P-wave (km/s) = 6.25736 6.35083 6.30427
#
# Compressibility (1/GPa) = 0.02446838
#
# Stress axis : x y z
#
# Youngs Moduli (GPa) = 52.78658 52.78658 59.42957
#
# Poissons Ratio (x) = 0.42895 0.20792
# Poissons Ratio (y) = 0.42895 0.20792
# Poissons Ratio (z) = 0.18468 0.18468
#
# Static dielectric constant tensor:
#      x y z
#    x 1.668110 0.000000 0.000000 
#    y 0.000000 1.668110 0.000000 
#    z 0.000000 0.000000 1.828910 
# 
# From -- ./inp_files/4923.got.cif
#   From: 2010.05.17/outbox.cif.g08.bks.cpg/sg179_3_cif.got.tgz:4923.got - 2010.05.20 11:37:33.
