data_PCOD9583407
_publ_section_title
;
Structure prediction by ZEFSAII (Michael W. Deem and Ramdas Pophale) SiO2 
 PCOD9583407
Probable space group: P 65 2 2
;
_chemical_formula_sum "Si O2"
_cell_formula_units_Z 84
_cell_length_a 17.699377
_cell_length_b 17.699377
_cell_length_c 14.237531
_cell_angle_alpha 90.000000
_cell_angle_beta 90.000000
_cell_angle_gamma 120.000000
_cell_volume 3862.613679
_symmetry_space_group_name_H-M "P 65 2 2"
_symmetry_group_IT_number 179
_symmetry_cell_setting 'hexagonal'
loop_
_space_group_symop_operation_xyz
x,y,z
x-y,x,5/6+z
-y,x-y,2/3+z
-x,-y,1/2+z
-x+y,-x,1/3+z
y,-x+y,1/6+z
x-y,-y,-z
-x,-x+y,1/3-z
y,x,2/3-z
-y,-x,1/6-z
-x+y,y,1/2-z
x,x-y,5/6-z
loop_
_atom_site_type_symbol
_atom_site_label
_atom_site_fract_x
_atom_site_fract_y
_atom_site_fract_z
Si Si1 0.906700 0.895412 0.625486
Si Si2 0.991911 0.719385 0.896195
Si Si3 0.755298 0.677345 0.260661
Si Si4 0.368596 0.779890 0.640266
Si Si5 0.503421 0.897329 0.481464
Si Si6 0.365118 0.433755 0.418931
Si Si7 0.814639 0.216866 0.986526
O O1 0.929741 0.902119 0.514877
O O2 0.811413 0.809649 0.638778
O O3 0.000000 0.906865 0.666667
O O4 0.022941 0.668037 0.826401
O O5 0.889779 0.657439 0.916248
O O6 0.040436 0.727200 0.991115
O O7 0.730554 0.730554 0.333334
O O8 0.856558 0.713116 0.250000
O O9 0.703587 0.574501 0.286935
O O10 0.310448 0.689553 0.583334
O O11 0.383678 0.767355 0.750000
O O12 0.449641 0.843501 0.573727
O O13 0.307272 0.822853 0.648513
O O14 0.436179 0.899055 0.404170
O O15 0.564841 0.000000 0.500000
O O16 0.402762 0.402762 0.333334
O O17 0.278196 0.433926 0.390052
O O18 0.824741 0.175260 0.083334
#
# Coordination Sequence:
#
# PCOD9583407 Si02
#       7
#    12  12  12  12  12  12  12
#     4  10  24  45  66 104 144 190 255 310 385 443
#     4  12  26  42  74 103 148 199 244 323 390 452
#     4  11  30  54  73 103 147 202 268 309 371 466
#     4  11  24  44  73 108 149 195 245 309 387 446
#     4  10  22  47  72 105 151 191 247 307 367 470
#     4  11  21  40  71 112 146 180 238 306 388 459
#     4  11  21  39  66 109 144 180 235 300 380 458
#
# _framework density 21.746932999999999
#
# number of rings (size 3 to 8) (size 9 to 14) (size 15 to 20)
#    0.000    1.143    4.286    1.714   10.000    3.429 
#    5.143    0.000    0.000    0.000    0.000    0.000 
#    0.000    0.000    0.000    0.000    0.000    0.000 
#
# Total GULP energy -467948.413900 kJ/mol
# GULP energy per Si atom -5570.814451 kJ/mol
# Density = 2.169744 g / cm^3
# Si number density = 21.746933 Si / 1000 Ang^3
#
#
#
# Elastic Constant Matrix: (Units=GPa)
#
#
# Indices 1 2 3 4 5 6 
#
# 1 118.2912 -5.7422 39.8017 0.0000 0.0000 0.0000
# 2 -5.7422 118.2912 39.8017 0.0000 0.0000 0.0000
# 3 39.8017 39.8017 102.0925 0.0000 0.0000 0.0000
# 4 0.0000 0.0000 0.0000 26.9604 0.0000 0.0000
# 5 0.0000 0.0000 0.0000 0.0000 26.9604 0.0000
# 6 0.0000 0.0000 0.0000 0.0000 0.0000 62.0167
#
#
#
# Elastic Compliance Matrix: (Units=1/GPa)
#
#
# Indices 1 2 3 4 5 6 
#
# 1 0.010165 0.002103 -0.004783 0.000000 0.000000 0.000000
# 2 0.002103 0.010165 -0.004783 0.000000 0.000000 0.000000
# 3 -0.004783 -0.004783 0.013524 0.000000 0.000000 0.000000
# 4 0.000000 0.000000 0.000000 0.037091 0.000000 0.000000
# 5 0.000000 0.000000 0.000000 0.000000 0.037091 0.000000
# 6 0.000000 0.000000 0.000000 0.000000 0.000000 0.016125
#
#
# Mechanical properties :
#
#
# Convention : Reuss Voigt Hill
#
# Bulk Modulus (GPa) = 52.82935 54.04415 53.43675
# Shear Modulus (GPa) = 34.38867 40.84174 37.61520
#
# Velocity S-wave (km/s) = 3.98088 4.33834 4.16345
# Velocity P-wave (km/s) = 6.74355 7.07109 6.90926
#
# Compressibility (1/GPa) = 0.01892887
#
# Stress axis : x y z
#
# Youngs Moduli (GPa) = 98.37663 98.37663 73.94173
#
# Poissons Ratio (x) = -0.20685 0.35364
# Poissons Ratio (y) = -0.20685 0.35364
# Poissons Ratio (z) = 0.47050 0.47050
#
# Static dielectric constant tensor:
#      x y z
#    x 1.908880 0.000000 0.000000 
#    y 0.000000 1.908880 0.000000 
#    z 0.000000 0.000000 1.834810 
# 
# From -- ./inp_files/6125.got.cif
#   From: 2010.05.17/outbox.cif.g08.bks.cpg/sg179_4_cif.got.tgz:6125.got - 2010.05.20 11:37:33.
