data_PCOD9583821
_publ_section_title
;
Structure prediction by ZEFSAII (Michael W. Deem and Ramdas Pophale) SiO2 
 PCOD9583821
Probable space group: P 62 2 2
;
_chemical_formula_sum "Si O2"
_cell_formula_units_Z 30
_cell_length_a 18.302399
_cell_length_b 18.302399
_cell_length_c 5.026761
_cell_angle_alpha 90.000000
_cell_angle_beta 90.000000
_cell_angle_gamma 120.000000
_cell_volume 1458.259809
_symmetry_space_group_name_H-M "P 62 2 2"
_symmetry_group_IT_number 180
_symmetry_cell_setting 'hexagonal'
loop_
_space_group_symop_operation_xyz
x,y,z
x-y,x,1/3+z
-y,x-y,2/3+z
-x,-y,z
-x+y,-x,1/3+z
y,-x+y,2/3+z
x-y,-y,-z
-x,-x+y,1/3-z
y,x,2/3-z
-y,-x,2/3-z
-x+y,y,-z
x,x-y,1/3-z
loop_
_atom_site_type_symbol
_atom_site_label
_atom_site_fract_x
_atom_site_fract_y
_atom_site_fract_z
Si Si1 0.000000 0.256833 0.166667
Si Si2 0.267860 0.431685 0.745362
Si Si3 0.152989 0.152989 0.333334
Si Si4 0.234049 0.617025 0.166667
O O1 0.074239 0.348496 0.246649
O O2 0.972905 0.193044 0.421485
O O3 0.211078 0.422155 0.500000
O O4 0.350677 0.524274 0.714851
O O5 0.215260 0.430520 0.000000
O O6 0.139352 0.069676 0.166667
O O7 0.301975 0.698026 0.333334
#
# Coordination Sequence:
#
# PCOD9583821 Si02
#       4
#     6  12   6   6
#     4  12  24  43  67 100 138 178 224 286 348 412
#     4  11  23  39  65  94 131 177 224 275 343 400
#     4  12  26  48  73  97 134 176 232 282 345 408
#     4  10  20  39  64  94 132 176 228 275 326 406
#
# _framework density 20.572465000000001
#
# number of rings (size 3 to 8) (size 9 to 14) (size 15 to 20)
#    0.000    0.800    2.000    7.200    0.000    0.800 
#    0.000    9.000    0.000    7.200    0.000    0.000 
#    0.000    0.000    0.000    0.000    0.000    0.000 
#
# Total GULP energy -167037.682840 kJ/mol
# GULP energy per Si atom -5567.922761 kJ/mol
# Density = 2.052564 g / cm^3
# Si number density = 20.572465 Si / 1000 Ang^3
#
#
#
# Elastic Constant Matrix: (Units=GPa)
#
#
# Indices 1 2 3 4 5 6 
#
# 1 202.3275 70.8474 57.7246 0.0000 0.0000 0.0000
# 2 70.8474 202.3275 57.7246 0.0000 0.0000 0.0000
# 3 57.7246 57.7246 148.0197 0.0000 0.0000 0.0000
# 4 0.0000 0.0000 0.0000 32.2290 0.0000 0.0000
# 5 0.0000 0.0000 0.0000 0.0000 32.2290 0.0000
# 6 0.0000 0.0000 0.0000 0.0000 0.0000 65.7400
#
#
#
# Elastic Compliance Matrix: (Units=1/GPa)
#
#
# Indices 1 2 3 4 5 6 
#
# 1 0.005994 -0.001611 -0.001709 0.000000 0.000000 0.000000
# 2 -0.001611 0.005994 -0.001709 0.000000 0.000000 0.000000
# 3 -0.001709 -0.001709 0.008089 0.000000 0.000000 0.000000
# 4 0.000000 0.000000 0.000000 0.031028 0.000000 0.000000
# 5 0.000000 0.000000 0.000000 0.000000 0.031028 0.000000
# 6 0.000000 0.000000 0.000000 0.000000 0.000000 0.015211
#
#
# Mechanical properties :
#
#
# Convention : Reuss Voigt Hill
#
# Bulk Modulus (GPa) = 99.82094 102.80755 101.31424
# Shear Modulus (GPa) = 45.14905 50.46481 47.80693
#
# Velocity S-wave (km/s) = 4.68978 4.95818 4.82584
# Velocity P-wave (km/s) = 8.82906 9.10274 8.96694
#
# Compressibility (1/GPa) = 0.01001794
#
# Stress axis : x y z
#
# Youngs Moduli (GPa) = 166.82298 166.82298 123.62417
#
# Poissons Ratio (x) = 0.26881 0.21131
# Poissons Ratio (y) = 0.26881 0.21131
# Poissons Ratio (z) = 0.28515 0.28515
#
# Static dielectric constant tensor:
#      x y z
#    x 1.772890 0.000000 0.000000 
#    y 0.000000 1.772890 0.000000 
#    z 0.000000 0.000000 1.736560 
# 
# From -- ./inp_files/425.got.cif
#   From: 2010.05.17/outbox.cif.g08.bks.cpg/sg180_1_cif.got.tgz:425.got - 2010.05.20 11:43:55.
