data_PCOD9583228
_publ_section_title
;
Structure prediction by ZEFSAII (Michael W. Deem and Ramdas Pophale) SiO2 
 PCOD9583228
Probable space group: P 65 2 2
;
_chemical_formula_sum "Si O2"
_cell_formula_units_Z 42
_cell_length_a 22.655680
_cell_length_b 22.655680
_cell_length_c 4.941424
_cell_angle_alpha 90.000000
_cell_angle_beta 90.000000
_cell_angle_gamma 120.000000
_cell_volume 2196.529072
_symmetry_space_group_name_H-M "P 65 2 2"
_symmetry_group_IT_number 179
_symmetry_cell_setting 'hexagonal'
loop_
_space_group_symop_operation_xyz
x,y,z
x-y,x,5/6+z
-y,x-y,2/3+z
-x,-y,1/2+z
-x+y,-x,1/3+z
y,-x+y,1/6+z
x-y,-y,-z
-x,-x+y,1/3-z
y,x,2/3-z
-y,-x,1/6-z
-x+y,y,1/2-z
x,x-y,5/6-z
loop_
_atom_site_type_symbol
_atom_site_label
_atom_site_fract_x
_atom_site_fract_y
_atom_site_fract_z
Si Si1 0.238171 0.557955 0.479435
Si Si2 0.595454 0.931615 0.319721
Si Si3 0.261340 0.861636 0.694377
Si Si4 0.525394 0.050788 0.750000
O O1 0.295693 0.591385 0.250000
O O2 0.199435 0.599718 0.416667
O O3 0.186716 0.481046 0.390853
O O4 0.278647 0.557294 0.750000
O O5 0.618158 0.887734 0.501631
O O6 0.514732 0.908527 0.307603
O O7 0.625528 0.000000 0.500000
O O8 0.614098 0.921630 0.016384
O O9 0.185822 0.814179 0.583334
O O10 0.486158 0.000000 0.500000
#
# Coordination Sequence:
#
# PCOD9583228 Si02
#       4
#    12  12  12   6
#     4  11  22  35  51  69  93 129 171 211 257 315
#     4  11  22  37  58  76 102 128 167 210 264 313
#     4  11  23  38  53  77 103 129 164 206 265 321
#     4  10  20  34  52  80 102 122 164 212 260 310
#
# _framework density 19.121078000000001
#
# number of rings (size 3 to 8) (size 9 to 14) (size 15 to 20)
#    0.000    1.143    0.000   10.286    4.000    0.000 
#    0.000    0.000    0.000    0.000    0.000    0.000 
#    0.000    0.000    0.000    0.000    0.000    0.000 
#
# Total GULP energy -233896.125828 kJ/mol
# GULP energy per Si atom -5568.955377 kJ/mol
# Density = 1.907756 g / cm^3
# Si number density = 19.121078 Si / 1000 Ang^3
#
#
#
# Elastic Constant Matrix: (Units=GPa)
#
#
# Indices 1 2 3 4 5 6 
#
# 1 36.1163 5.5846 19.9952 0.0000 0.0000 0.0000
# 2 5.5846 36.1163 19.9952 0.0000 0.0000 0.0000
# 3 19.9952 19.9952 144.0082 0.0000 0.0000 0.0000
# 4 0.0000 0.0000 0.0000 28.7637 0.0000 0.0000
# 5 0.0000 0.0000 0.0000 0.0000 28.7637 0.0000
# 6 0.0000 0.0000 0.0000 0.0000 0.0000 15.2659
#
#
#
# Elastic Compliance Matrix: (Units=1/GPa)
#
#
# Indices 1 2 3 4 5 6 
#
# 1 0.030208 -0.002545 -0.003841 0.000000 0.000000 0.000000
# 2 -0.002545 0.030208 -0.003841 0.000000 0.000000 0.000000
# 3 -0.003841 -0.003841 0.008011 0.000000 0.000000 0.000000
# 4 0.000000 0.000000 0.000000 0.034766 0.000000 0.000000
# 5 0.000000 0.000000 0.000000 0.000000 0.034766 0.000000
# 6 0.000000 0.000000 0.000000 0.000000 0.000000 0.065506
#
#
# Mechanical properties :
#
#
# Convention : Reuss Voigt Hill
#
# Bulk Modulus (GPa) = 20.84457 34.15453 27.49955
# Shear Modulus (GPa) = 20.84117 25.93637 23.38877
#
# Velocity S-wave (km/s) = 3.30503 3.68697 3.50121
# Velocity P-wave (km/s) = 5.04870 6.00216 5.54596
#
# Compressibility (1/GPa) = 0.04797412
#
# Stress axis : x y z
#
# Youngs Moduli (GPa) = 33.10345 33.10345 124.83310
#
# Poissons Ratio (x) = 0.08423 0.47949
# Poissons Ratio (y) = 0.08423 0.47949
# Poissons Ratio (z) = 0.12715 0.12715
#
# Static dielectric constant tensor:
#      x y z
#    x 1.812400 0.000000 0.000000 
#    y 0.000000 1.812400 0.000000 
#    z 0.000000 0.000000 1.834740 
# 
# From -- ./inp_files/736.got.cif
#   From: 2010.05.17/outbox.cif.g08.bks.cpg/sg179_1_cif.got.tgz:736.got - 2010.05.20 11:37:33.
