data_PCOD9583205
_publ_section_title
;
Structure prediction by ZEFSAII (Michael W. Deem and Ramdas Pophale) SiO2 
 PCOD9583205
Probable space group: P 65 2 2
;
_chemical_formula_sum "Si O2"
_cell_formula_units_Z 48
_cell_length_a 9.853324
_cell_length_b 9.853324
_cell_length_c 26.350731
_cell_angle_alpha 90.000000
_cell_angle_beta 90.000000
_cell_angle_gamma 120.000000
_cell_volume 2215.587093
_symmetry_space_group_name_H-M "P 65 2 2"
_symmetry_group_IT_number 179
_symmetry_cell_setting 'hexagonal'
loop_
_space_group_symop_operation_xyz
x,y,z
x-y,x,5/6+z
-y,x-y,2/3+z
-x,-y,1/2+z
-x+y,-x,1/3+z
y,-x+y,1/6+z
x-y,-y,-z
-x,-x+y,1/3-z
y,x,2/3-z
-y,-x,1/6-z
-x+y,y,1/2-z
x,x-y,5/6-z
loop_
_atom_site_type_symbol
_atom_site_label
_atom_site_fract_x
_atom_site_fract_y
_atom_site_fract_z
Si Si1 0.688124 0.099511 0.151799
Si Si2 0.665199 0.078105 0.684994
Si Si3 0.739609 0.260392 0.583334
Si Si4 0.840941 0.213664 0.251382
Si Si5 0.659697 0.319393 0.750000
O O1 0.811684 0.142420 0.195903
O O2 0.670438 0.241244 0.129667
O O3 0.518367 0.978907 0.175769
O O4 0.714849 0.013585 0.105573
O O5 0.749673 0.165134 0.632329
O O6 0.724745 0.210453 0.728454
O O7 0.656326 0.922369 0.708075
O O8 0.553717 0.199207 0.577888
#
# Coordination Sequence:
#
# PCOD9583205 Si02
#       5
#    12  12   6  12   6
#     4  11  22  36  62  98 130 171 220 278 338 403
#     4  11  20  37  63  92 135 165 219 285 345 381
#     4  10  19  36  58  95 124 160 220 270 331 404
#     4  11  20  37  61  93 131 170 209 277 348 391
#     4  12  21  38  66  99 126 172 226 272 337 402
#
# _framework density 21.664687000000001
#
# number of rings (size 3 to 8) (size 9 to 14) (size 15 to 20)
#    0.000    1.000    7.500    1.500    0.000    1.000 
#    0.000    0.000    0.000    4.500    0.000    0.000 
#    0.000    0.000    0.000    0.000    0.000    0.000 
#
# Total GULP energy -267763.647481 kJ/mol
# GULP energy per Si atom -5578.409323 kJ/mol
# Density = 2.161538 g / cm^3
# Si number density = 21.664687 Si / 1000 Ang^3
#
#
#
# Elastic Constant Matrix: (Units=GPa)
#
#
# Indices 1 2 3 4 5 6 
#
# 1 51.3573 37.8364 17.0697 0.0000 0.0000 0.0000
# 2 37.8364 51.3573 17.0697 0.0000 0.0000 0.0000
# 3 17.0697 17.0697 50.6275 0.0000 0.0000 0.0000
# 4 0.0000 0.0000 0.0000 24.6272 0.0000 0.0000
# 5 0.0000 0.0000 0.0000 0.0000 24.6272 0.0000
# 6 0.0000 0.0000 0.0000 0.0000 0.0000 6.7604
#
#
#
# Elastic Compliance Matrix: (Units=1/GPa)
#
#
# Indices 1 2 3 4 5 6 
#
# 1 0.043416 -0.030544 -0.004340 0.000000 0.000000 0.000000
# 2 -0.030544 0.043416 -0.004340 0.000000 0.000000 0.000000
# 3 -0.004340 -0.004340 0.022679 0.000000 0.000000 0.000000
# 4 0.000000 0.000000 0.000000 0.040605 0.000000 0.000000
# 5 0.000000 0.000000 0.000000 0.000000 0.040605 0.000000
# 6 0.000000 0.000000 0.000000 0.000000 0.000000 0.147920
#
#
# Mechanical properties :
#
#
# Convention : Reuss Voigt Hill
#
# Bulk Modulus (GPa) = 32.19207 33.03261 32.61234
# Shear Modulus (GPa) = 11.69743 16.62739 14.16241
#
# Velocity S-wave (km/s) = 2.32616 2.77336 2.55955
# Velocity P-wave (km/s) = 4.70172 5.05329 4.88067
#
# Compressibility (1/GPa) = 0.03106355
#
# Stress axis : x y z
#
# Youngs Moduli (GPa) = 23.03281 23.03281 44.09399
#
# Poissons Ratio (x) = 0.70350 0.19138
# Poissons Ratio (y) = 0.70350 0.19138
# Poissons Ratio (z) = 0.09997 0.09997
#
# Static dielectric constant tensor:
#      x y z
#    x 1.802500 0.000000 0.000000 
#    y 0.000000 1.802500 0.000000 
#    z 0.000000 0.000000 1.840630 
# 
# From -- ./inp_files/8103.got.cif
#   From: 2010.05.17/outbox.cif.g08.bks.cpg/sg179_5_cif.got.tgz:8103.got - 2010.05.20 11:37:33.
