data_PCOD9583935
_publ_section_title
;
Structure prediction by ZEFSAII (Michael W. Deem and Ramdas Pophale) SiO2 
 PCOD9583935
Probable space group: P 62 2 2
;
_chemical_formula_sum "Si O2"
_cell_formula_units_Z 72
_cell_length_a 20.497169
_cell_length_b 20.497169
_cell_length_c 11.047621
_cell_angle_alpha 90.000000
_cell_angle_beta 90.000000
_cell_angle_gamma 120.000000
_cell_volume 4019.640029
_symmetry_space_group_name_H-M "P 62 2 2"
_symmetry_group_IT_number 180
_symmetry_cell_setting 'hexagonal'
loop_
_space_group_symop_operation_xyz
x,y,z
x-y,x,1/3+z
-y,x-y,2/3+z
-x,-y,z
-x+y,-x,1/3+z
y,-x+y,2/3+z
x-y,-y,-z
-x,-x+y,1/3-z
y,x,2/3-z
-y,-x,2/3-z
-x+y,y,-z
x,x-y,1/3-z
loop_
_atom_site_type_symbol
_atom_site_label
_atom_site_fract_x
_atom_site_fract_y
_atom_site_fract_z
Si Si1 0.401135 0.660408 0.467524
Si Si2 0.451504 0.877490 0.296938
Si Si3 0.077594 0.468933 0.607566
Si Si4 0.174024 0.427314 0.757952
Si Si5 0.669030 0.603194 0.017432
Si Si6 0.305601 0.898432 0.587237
O O1 0.375004 0.624997 0.333334
O O2 0.345392 0.690784 0.500000
O O3 0.203891 0.597566 0.435090
O O4 0.411904 0.485646 0.530063
O O5 0.278198 0.766867 0.139123
O O6 0.399245 0.914654 0.313646
O O7 0.504957 0.877430 0.402163
O O8 0.095750 0.547875 0.666667
O O9 0.136188 0.444194 0.644220
O O10 0.000000 0.409185 0.666667
O O11 0.224491 0.393940 0.708219
O O12 0.110571 0.390155 0.865208
O O13 0.640472 0.663339 0.993252
O O14 0.708112 0.610434 0.888709
#
# Coordination Sequence:
#
# PCOD9583935 Si02
#       6
#    12  12  12  12  12  12
#     4  11  21  34  46  69 100 129 170 225 286 334
#     4  11  20  33  53  70 101 133 172 227 272 336
#     4  11  20  33  55  76 101 137 180 222 281 337
#     4  11  21  39  54  75  99 135 179 227 281 333
#     4  10  22  39  50  76 102 134 175 221 281 330
#     4  11  23  34  56  74  99 133 178 225 272 332
#
# _framework density 17.912051999999999
#
# number of rings (size 3 to 8) (size 9 to 14) (size 15 to 20)
#    0.000    1.167    5.000    3.500    2.333    5.333 
#    0.000    0.000    0.000    0.000    0.000    0.000 
#    0.000    0.000    0.000    0.000    0.000   33.333 
#
# Total GULP energy -401247.045245 kJ/mol
# GULP energy per Si atom -5572.875628 kJ/mol
# Density = 1.787128 g / cm^3
# Si number density = 17.912052 Si / 1000 Ang^3
#
#
#
# Elastic Constant Matrix: (Units=GPa)
#
#
# Indices 1 2 3 4 5 6 
#
# 1 79.3467 27.7885 12.8702 0.0000 0.0000 0.0000
# 2 27.7885 79.3467 12.8702 0.0000 0.0000 0.0000
# 3 12.8702 12.8702 42.0835 0.0000 0.0000 0.0000
# 4 0.0000 0.0000 0.0000 77.7040 0.0000 0.0000
# 5 0.0000 0.0000 0.0000 0.0000 77.7040 0.0000
# 6 0.0000 0.0000 0.0000 0.0000 0.0000 25.7791
#
#
#
# Elastic Compliance Matrix: (Units=1/GPa)
#
#
# Indices 1 2 3 4 5 6 
#
# 1 0.014735 -0.004661 -0.003081 0.000000 0.000000 0.000000
# 2 -0.004661 0.014735 -0.003081 0.000000 0.000000 0.000000
# 3 -0.003081 -0.003081 0.025647 0.000000 0.000000 0.000000
# 4 0.000000 0.000000 0.000000 0.012869 0.000000 0.000000
# 5 0.000000 0.000000 0.000000 0.000000 0.012869 0.000000
# 6 0.000000 0.000000 0.000000 0.000000 0.000000 0.038791
#
#
# Mechanical properties :
#
#
# Convention : Reuss Voigt Hill
#
# Bulk Modulus (GPa) = 29.87624 34.20385 32.04005
# Shear Modulus (GPa) = 32.79794 46.05397 39.42596
#
# Velocity S-wave (km/s) = 4.28372 5.07612 4.69666
# Velocity P-wave (km/s) = 6.41737 7.31388 6.88025
#
# Compressibility (1/GPa) = 0.03347141
#
# Stress axis : x y z
#
# Youngs Moduli (GPa) = 67.86611 67.86611 38.99130
#
# Poissons Ratio (x) = 0.31630 0.12013
# Poissons Ratio (y) = 0.31630 0.12013
# Poissons Ratio (z) = 0.20909 0.20909
#
# Static dielectric constant tensor:
#      x y z
#    x 1.473340 0.000000 0.000000 
#    y 0.000000 1.473340 0.000000 
#    z 0.000000 0.000000 2.351550 
# 
# From -- ./inp_files/7912.got.cif
#   From: 2010.05.17/outbox.cif.g08.bks.cpg/sg180_4_cif.got.tgz:7912.got - 2010.05.20 11:43:55.
