data_PCOD9583135
_publ_section_title
;
Structure prediction by ZEFSAII (Michael W. Deem and Ramdas Pophale) SiO2 
 PCOD9583135
Probable space group: P 65 2 2
;
_chemical_formula_sum "Si O2"
_cell_formula_units_Z 54
_cell_length_a 9.922823
_cell_length_b 9.922823
_cell_length_c 24.031450
_cell_angle_alpha 90.000000
_cell_angle_beta 90.000000
_cell_angle_gamma 120.000000
_cell_volume 2049.184663
_symmetry_space_group_name_H-M "P 65 2 2"
_symmetry_group_IT_number 179
_symmetry_cell_setting 'hexagonal'
loop_
_space_group_symop_operation_xyz
x,y,z
x-y,x,5/6+z
-y,x-y,2/3+z
-x,-y,1/2+z
-x+y,-x,1/3+z
y,-x+y,1/6+z
x-y,-y,-z
-x,-x+y,1/3-z
y,x,2/3-z
-y,-x,1/6-z
-x+y,y,1/2-z
x,x-y,5/6-z
loop_
_atom_site_type_symbol
_atom_site_label
_atom_site_fract_x
_atom_site_fract_y
_atom_site_fract_z
Si Si1 0.091636 0.751891 0.718233
Si Si2 0.342494 0.639405 0.183174
Si Si3 0.907680 0.154470 0.396578
Si Si4 0.037282 0.481027 0.012179
Si Si5 0.159011 0.159011 0.833334
O O1 0.211124 0.715971 0.684999
O O2 0.008005 0.618504 0.763355
O O3 0.000000 0.766494 0.666667
O O4 0.150670 0.912629 0.749775
O O5 0.320277 0.640554 0.250000
O O6 0.485426 0.605091 0.169469
O O7 0.365091 0.796926 0.155623
O O8 0.922338 0.305764 0.365948
O O9 0.800472 0.084351 0.450892
O O10 0.870269 0.001680 0.361611
#
# Coordination Sequence:
#
# PCOD9583135 Si02
#       5
#    12  12  12  12   6
#     4  11  20  38  68 100 131 181 235 288 355 442
#     4  11  25  44  72 103 142 189 244 303 371 446
#     4  10  20  32  61  95 137 174 238 292 357 430
#     4  11  24  43  68 102 140 186 240 306 368 447
#     4  10  18  32  54  92 134 182 224 288 362 432
#
# _framework density 26.351942999999999
#
# number of rings (size 3 to 8) (size 9 to 14) (size 15 to 20)
#    0.000    1.333    5.556    0.667    0.000    3.556 
#    0.000    2.222    4.889    0.000    0.000    0.000 
#    0.000    0.000    0.000    0.000    0.000    0.000 
#
# Total GULP energy -301483.517275 kJ/mol
# GULP energy per Si atom -5583.028098 kJ/mol
# Density = 2.629196 g / cm^3
# Si number density = 26.351943 Si / 1000 Ang^3
#
#
#
# Elastic Constant Matrix: (Units=GPa)
#
#
# Indices 1 2 3 4 5 6 
#
# 1 56.2819 11.6325 17.0718 0.0000 0.0000 0.0000
# 2 11.6325 56.2819 17.0718 0.0000 0.0000 0.0000
# 3 17.0718 17.0718 137.0855 0.0000 0.0000 0.0000
# 4 0.0000 0.0000 0.0000 32.7823 0.0000 0.0000
# 5 0.0000 0.0000 0.0000 0.0000 32.7823 0.0000
# 6 0.0000 0.0000 0.0000 0.0000 0.0000 22.3247
#
#
#
# Elastic Compliance Matrix: (Units=1/GPa)
#
#
# Indices 1 2 3 4 5 6 
#
# 1 0.019052 -0.003344 -0.001956 0.000000 0.000000 0.000000
# 2 -0.003344 0.019052 -0.001956 0.000000 0.000000 0.000000
# 3 -0.001956 -0.001956 0.007782 0.000000 0.000000 0.000000
# 4 0.000000 0.000000 0.000000 0.030504 0.000000 0.000000
# 5 0.000000 0.000000 0.000000 0.000000 0.030504 0.000000
# 6 0.000000 0.000000 0.000000 0.000000 0.000000 0.044793
#
#
# Mechanical properties :
#
#
# Convention : Reuss Voigt Hill
#
# Bulk Modulus (GPa) = 31.87454 37.91129 34.89292
# Shear Modulus (GPa) = 28.30300 31.16939 29.73619
#
# Velocity S-wave (km/s) = 3.28081 3.44293 3.36285
# Velocity P-wave (km/s) = 5.14525 5.49753 5.32430
#
# Compressibility (1/GPa) = 0.03137300
#
# Stress axis : x y z
#
# Youngs Moduli (GPa) = 52.48711 52.48711 128.50273
#
# Poissons Ratio (x) = 0.17554 0.25137
# Poissons Ratio (y) = 0.17554 0.25137
# Poissons Ratio (z) = 0.10267 0.10267
#
# Static dielectric constant tensor:
#      x y z
#    x 2.139580 0.000000 0.000000 
#    y 0.000000 2.139580 0.000000 
#    z 0.000000 0.000000 2.052920 
# 
# From -- ./inp_files/8169.got.cif
#   From: 2010.05.17/outbox.cif.g08.bks.cpg/sg179_5_cif.got.tgz:8169.got - 2010.05.20 11:37:33.
