data_PCOD9583265
_publ_section_title
;
Structure prediction by ZEFSAII (Michael W. Deem and Ramdas Pophale) SiO2 
 PCOD9583265
Probable space group: P 65 2 2
;
_chemical_formula_sum "Si O2"
_cell_formula_units_Z 48
_cell_length_a 18.096650
_cell_length_b 18.096650
_cell_length_c 8.032939
_cell_angle_alpha 90.000000
_cell_angle_beta 90.000000
_cell_angle_gamma 120.000000
_cell_volume 2278.250502
_symmetry_space_group_name_H-M "P 65 2 2"
_symmetry_group_IT_number 179
_symmetry_cell_setting 'hexagonal'
loop_
_space_group_symop_operation_xyz
x,y,z
x-y,x,5/6+z
-y,x-y,2/3+z
-x,-y,1/2+z
-x+y,-x,1/3+z
y,-x+y,1/6+z
x-y,-y,-z
-x,-x+y,1/3-z
y,x,2/3-z
-y,-x,1/6-z
-x+y,y,1/2-z
x,x-y,5/6-z
loop_
_atom_site_type_symbol
_atom_site_label
_atom_site_fract_x
_atom_site_fract_y
_atom_site_fract_z
Si Si1 0.374942 0.461587 0.114389
Si Si2 0.827219 0.942503 0.668191
Si Si3 0.633121 0.523311 0.011067
Si Si4 0.805063 0.167819 0.395938
O O1 0.439196 0.560805 0.083334
O O2 0.362739 0.463060 0.312168
O O3 0.424452 0.409865 0.080867
O O4 0.292029 0.417799 0.999618
O O5 0.865330 0.880711 0.634905
O O6 0.726536 0.882367 0.703872
O O7 0.842421 0.000000 0.500000
O O8 0.572307 0.427694 0.083334
O O9 0.731843 0.570588 0.052815
O O10 0.834795 0.165206 0.583334
#
# Coordination Sequence:
#
# PCOD9583265 Si02
#       4
#    12  12  12  12
#     4  10  22  40  63  90 124 164 207 267 332 402
#     4  10  20  37  62  89 131 180 232 288 340 410
#     4  10  22  41  63  91 127 163 209 269 336 394
#     4  12  22  36  65  96 126 170 223 274 327 417
#
# _framework density 21.068798999999999
#
# number of rings (size 3 to 8) (size 9 to 14) (size 15 to 20)
#    0.000    1.500    2.500    3.750    0.000    2.000 
#    0.000    3.750   60.500    0.000    0.000    0.000 
#    0.000    0.000    0.000    0.000    0.000    0.000 
#
# Total GULP energy -267595.446787 kJ/mol
# GULP energy per Si atom -5574.905141 kJ/mol
# Density = 2.102085 g / cm^3
# Si number density = 21.068799 Si / 1000 Ang^3
#
#
#
# Elastic Constant Matrix: (Units=GPa)
#
#
# Indices 1 2 3 4 5 6 
#
# 1 148.7898 79.9310 25.6069 0.0000 0.0000 0.0000
# 2 79.9310 148.7898 25.6069 0.0000 0.0000 0.0000
# 3 25.6069 25.6069 49.9124 0.0000 0.0000 0.0000
# 4 0.0000 0.0000 0.0000 14.8007 0.0000 0.0000
# 5 0.0000 0.0000 0.0000 0.0000 14.8007 0.0000
# 6 0.0000 0.0000 0.0000 0.0000 0.0000 34.4294
#
#
#
# Elastic Compliance Matrix: (Units=1/GPa)
#
#
# Indices 1 2 3 4 5 6 
#
# 1 0.009731 -0.004791 -0.002534 0.000000 0.000000 0.000000
# 2 -0.004791 0.009731 -0.002534 0.000000 0.000000 0.000000
# 3 -0.002534 -0.002534 0.022635 0.000000 0.000000 0.000000
# 4 0.000000 0.000000 0.000000 0.067564 0.000000 0.000000
# 5 0.000000 0.000000 0.000000 0.000000 0.067564 0.000000
# 6 0.000000 0.000000 0.000000 0.000000 0.000000 0.029045
#
#
# Mechanical properties :
#
#
# Convention : Reuss Voigt Hill
#
# Bulk Modulus (GPa) = 44.68717 67.75353 56.22035
# Shear Modulus (GPa) = 21.41789 27.22932 24.32360
#
# Velocity S-wave (km/s) = 3.19183 3.59890 3.40146
# Velocity P-wave (km/s) = 5.90253 7.03544 6.49374
#
# Compressibility (1/GPa) = 0.02237779
#
# Stress axis : x y z
#
# Youngs Moduli (GPa) = 102.76409 102.76409 44.17859
#
# Poissons Ratio (x) = 0.49239 0.11196
# Poissons Ratio (y) = 0.49239 0.11196
# Poissons Ratio (z) = 0.26042 0.26042
#
# Static dielectric constant tensor:
#      x y z
#    x 1.805200 0.000000 0.000000 
#    y 0.000000 1.805200 0.000000 
#    z 0.000000 0.000000 0.854170 
# 
# From -- ./inp_files/2601.got.cif
#   From: 2010.05.17/outbox.cif.g08.bks.cpg/sg179_2_cif.got.tgz:2601.got - 2010.05.20 11:37:33.
