data_PCOD9583843
_publ_section_title
;
Structure prediction by ZEFSAII (Michael W. Deem and Ramdas Pophale) SiO2 
 PCOD9583843
Probable space group: P 62 2 2
;
_chemical_formula_sum "Si O2"
_cell_formula_units_Z 36
_cell_length_a 19.641857
_cell_length_b 19.641857
_cell_length_c 5.078372
_cell_angle_alpha 90.000000
_cell_angle_beta 90.000000
_cell_angle_gamma 120.000000
_cell_volume 1696.759276
_symmetry_space_group_name_H-M "P 62 2 2"
_symmetry_group_IT_number 180
_symmetry_cell_setting 'hexagonal'
loop_
_space_group_symop_operation_xyz
x,y,z
x-y,x,1/3+z
-y,x-y,2/3+z
-x,-y,z
-x+y,-x,1/3+z
y,-x+y,2/3+z
x-y,-y,-z
-x,-x+y,1/3-z
y,x,2/3-z
-y,-x,2/3-z
-x+y,y,-z
x,x-y,1/3-z
loop_
_atom_site_type_symbol
_atom_site_label
_atom_site_fract_x
_atom_site_fract_y
_atom_site_fract_z
Si Si1 0.225252 0.000000 0.000000
Si Si2 0.679530 0.679530 0.833334
Si Si3 0.243459 0.621730 0.166667
Si Si4 0.273649 0.824480 0.587329
Si Si5 0.842959 0.921480 0.666667
O O1 0.279508 0.013375 0.247681
O O2 0.142246 0.933278 0.114722
O O3 0.599454 0.682971 0.838240
O O4 0.303577 0.696424 0.333334
O O5 0.194054 0.538438 0.311448
O O6 0.222036 0.777965 0.333334
O O7 0.212167 0.787833 0.833334
O O8 0.894495 0.894495 0.833334
#
# Coordination Sequence:
#
# PCOD9583843 Si02
#       5
#     6   6   6  12   6
#     4  12  28  45  68  91 136 178 240 296 366 446
#     4  12  28  45  68 101 142 194 236 298 370 448
#     4  10  20  43  72 110 142 184 242 298 365 436
#     4  11  25  42  73 103 145 188 243 300 364 446
#     4  12  28  45  66  96 120 172 230 316 362 430
#
# _framework density 21.216918
#
# number of rings (size 3 to 8) (size 9 to 14) (size 15 to 20)
#    0.000    0.667    3.333    3.000    7.000    4.000 
#    0.000    0.000    0.000    6.000    0.000    0.000 
#    0.000    0.000    0.000    0.000    0.000    0.000 
#
# Total GULP energy -200697.943883 kJ/mol
# GULP energy per Si atom -5574.942886 kJ/mol
# Density = 2.116863 g / cm^3
# Si number density = 21.216918 Si / 1000 Ang^3
#
#
#
# Elastic Constant Matrix: (Units=GPa)
#
#
# Indices 1 2 3 4 5 6 
#
# 1 106.0048 87.5387 28.4691 0.0000 0.0000 0.0000
# 2 87.5387 106.0048 28.4691 0.0000 0.0000 0.0000
# 3 28.4691 28.4691 141.0393 0.0000 0.0000 0.0000
# 4 0.0000 0.0000 0.0000 25.1798 0.0000 0.0000
# 5 0.0000 0.0000 0.0000 0.0000 25.1798 0.0000
# 6 0.0000 0.0000 0.0000 0.0000 0.0000 9.2331
#
#
#
# Elastic Compliance Matrix: (Units=1/GPa)
#
#
# Indices 1 2 3 4 5 6 
#
# 1 0.029823 -0.024330 -0.001109 0.000000 0.000000 0.000000
# 2 -0.024330 0.029823 -0.001109 0.000000 0.000000 0.000000
# 3 -0.001109 -0.001109 0.007538 0.000000 0.000000 0.000000
# 4 0.000000 0.000000 0.000000 0.039714 0.000000 0.000000
# 5 0.000000 0.000000 0.000000 0.000000 0.039714 0.000000
# 6 0.000000 0.000000 0.000000 0.000000 0.000000 0.108306
#
#
# Mechanical properties :
#
#
# Convention : Reuss Voigt Hill
#
# Bulk Modulus (GPa) = 70.97873 71.33361 71.15617
# Shear Modulus (GPa) = 15.98921 25.82335 20.90628
#
# Velocity S-wave (km/s) = 2.74817 3.49250 3.14245
# Velocity P-wave (km/s) = 6.60275 7.06806 6.83937
#
# Compressibility (1/GPa) = 0.01408873
#
# Stress axis : x y z
#
# Youngs Moduli (GPa) = 33.53104 33.53104 132.66403
#
# Poissons Ratio (x) = 0.81581 0.14709
# Poissons Ratio (y) = 0.81581 0.14709
# Poissons Ratio (z) = 0.03718 0.03718
#
# Static dielectric constant tensor:
#      x y z
#    x 1.870670 0.000000 0.000000 
#    y 0.000000 1.870670 0.000000 
#    z 0.000000 0.000000 1.780020 
# 
# From -- ./inp_files/756.got.cif
#   From: 2010.05.17/outbox.cif.g08.bks.cpg/sg180_1_cif.got.tgz:756.got - 2010.05.20 11:43:55.
