data_PCOD9583535
_publ_section_title
;
Structure prediction by ZEFSAII (Michael W. Deem and Ramdas Pophale) SiO2 
 PCOD9583535
Probable space group: P 65 2 2
;
_chemical_formula_sum "Si O2"
_cell_formula_units_Z 72
_cell_length_a 11.518804
_cell_length_b 11.518804
_cell_length_c 27.976903
_cell_angle_alpha 90.000000
_cell_angle_beta 90.000000
_cell_angle_gamma 120.000000
_cell_volume 3214.734018
_symmetry_space_group_name_H-M "P 65 2 2"
_symmetry_group_IT_number 179
_symmetry_cell_setting 'hexagonal'
loop_
_space_group_symop_operation_xyz
x,y,z
x-y,x,5/6+z
-y,x-y,2/3+z
-x,-y,1/2+z
-x+y,-x,1/3+z
y,-x+y,1/6+z
x-y,-y,-z
-x,-x+y,1/3-z
y,x,2/3-z
-y,-x,1/6-z
-x+y,y,1/2-z
x,x-y,5/6-z
loop_
_atom_site_type_symbol
_atom_site_label
_atom_site_fract_x
_atom_site_fract_y
_atom_site_fract_z
Si Si1 0.347736 0.652265 0.083334
Si Si2 0.554521 0.637124 0.916200
Si Si3 0.478187 0.665432 0.326787
Si Si4 0.825761 0.726473 0.877776
Si Si5 0.213806 0.213806 0.833334
Si Si6 0.081922 0.594541 0.478672
Si Si7 0.981259 0.962518 0.250000
Si Si8 0.582979 0.165957 0.750000
O O1 0.236853 0.639388 0.122090
O O2 0.444163 0.631509 0.121783
O O3 0.562381 0.781191 0.916667
O O4 0.467781 0.558670 0.870413
O O5 0.705028 0.663536 0.915582
O O6 0.490054 0.562869 0.965563
O O7 0.635779 0.759857 0.334196
O O8 0.437674 0.741423 0.287415
O O9 0.762759 0.762759 0.833334
O O10 0.861185 0.614559 0.861775
O O11 0.944607 0.868796 0.895807
O O12 0.131012 0.126125 0.877956
O O13 0.940295 0.530774 0.452209
#
# Coordination Sequence:
#
# PCOD9583535 Si02
#       8
#     6  12  12  12   6  12   6   6
#     4  11  23  44  70 101 145 182 244 298 359 443
#     4  12  23  44  73 105 139 182 247 314 365 429
#     4  12  26  48  71 106 149 199 246 305 373 455
#     4  12  22  42  75 105 139 181 239 304 364 431
#     4  12  30  46  72 104 146 198 248 288 388 458
#     4  11  25  42  70 109 135 188 243 299 376 431
#     4  12  25  49  67 103 148 188 238 300 358 457
#     4  11  26  49  67 100 151 190 240 302 369 442
#
# _framework density 22.396875000000001
#
# number of rings (size 3 to 8) (size 9 to 14) (size 15 to 20)
#    0.000    0.333    5.833    1.500    5.833    1.333 
#    0.000    0.000    0.000    0.000    0.000    0.000 
#    0.000    0.000    0.000    0.000    0.000    0.000 
#
# Total GULP energy -401910.934227 kJ/mol
# GULP energy per Si atom -5582.096309 kJ/mol
# Density = 2.234590 g / cm^3
# Si number density = 22.396875 Si / 1000 Ang^3
#
#
#
# Elastic Constant Matrix: (Units=GPa)
#
#
# Indices 1 2 3 4 5 6 
#
# 1 100.5688 46.1675 50.7195 0.0000 0.0000 0.0000
# 2 46.1675 100.5688 50.7195 0.0000 0.0000 0.0000
# 3 50.7195 50.7195 160.1603 0.0000 0.0000 0.0000
# 4 0.0000 0.0000 0.0000 15.7996 0.0000 0.0000
# 5 0.0000 0.0000 0.0000 0.0000 15.7996 0.0000
# 6 0.0000 0.0000 0.0000 0.0000 0.0000 27.2006
#
#
#
# Elastic Compliance Matrix: (Units=1/GPa)
#
#
# Indices 1 2 3 4 5 6 
#
# 1 0.013553 -0.004828 -0.002763 0.000000 0.000000 0.000000
# 2 -0.004828 0.013553 -0.002763 0.000000 0.000000 0.000000
# 3 -0.002763 -0.002763 0.007994 0.000000 0.000000 0.000000
# 4 0.000000 0.000000 0.000000 0.063293 0.000000 0.000000
# 5 0.000000 0.000000 0.000000 0.000000 0.063293 0.000000
# 6 0.000000 0.000000 0.000000 0.000000 0.000000 0.036764
#
#
# Mechanical properties :
#
#
# Convention : Reuss Voigt Hill
#
# Bulk Modulus (GPa) = 69.48471 72.94566 71.21518
# Shear Modulus (GPa) = 22.32576 26.00605 24.16590
#
# Velocity S-wave (km/s) = 3.16068 3.41126 3.28836
# Velocity P-wave (km/s) = 6.66419 6.93944 6.80321
#
# Compressibility (1/GPa) = 0.01439166
#
# Stress axis : x y z
#
# Youngs Moduli (GPa) = 73.78178 73.78178 125.09779
#
# Poissons Ratio (x) = 0.35625 0.34565
# Poissons Ratio (y) = 0.35625 0.34565
# Poissons Ratio (z) = 0.20386 0.20386
#
# Static dielectric constant tensor:
#      x y z
#    x 1.904700 0.000000 0.000000 
#    y 0.000000 1.904700 0.000000 
#    z 0.000000 0.000000 1.863650 
# 
# From -- ./inp_files/9621.got.cif
#   From: 2010.05.17/outbox.cif.g08.bks.cpg/sg179_5_cif.got.tgz:9621.got - 2010.05.20 11:37:33.
