data_PCOD9583622
_publ_section_title
;
Structure prediction by ZEFSAII (Michael W. Deem and Ramdas Pophale) SiO2 
 PCOD9583622
Probable space group: P 62 2 2
;
_chemical_formula_sum "Si O2"
_cell_formula_units_Z 48
_cell_length_a 11.144610
_cell_length_b 11.144610
_cell_length_c 19.775838
_cell_angle_alpha 90.000000
_cell_angle_beta 90.000000
_cell_angle_gamma 120.000000
_cell_volume 2127.136098
_symmetry_space_group_name_H-M "P 62 2 2"
_symmetry_group_IT_number 180
_symmetry_cell_setting 'hexagonal'
loop_
_space_group_symop_operation_xyz
x,y,z
x-y,x,1/3+z
-y,x-y,2/3+z
-x,-y,z
-x+y,-x,1/3+z
y,-x+y,2/3+z
x-y,-y,-z
-x,-x+y,1/3-z
y,x,2/3-z
-y,-x,2/3-z
-x+y,y,-z
x,x-y,1/3-z
loop_
_atom_site_type_symbol
_atom_site_label
_atom_site_fract_x
_atom_site_fract_y
_atom_site_fract_z
Si Si1 0.565993 0.844588 0.868201
Si Si2 0.162017 0.876086 0.653170
Si Si3 0.561630 0.669919 0.623457
Si Si4 0.309069 0.474234 0.432485
O O1 0.561958 0.849709 0.787777
O O2 0.409773 0.771894 0.895552
O O3 0.620281 0.001068 0.892670
O O4 0.667189 0.806390 0.908219
O O5 0.189525 0.767631 0.695472
O O6 0.000000 0.829834 0.666667
O O7 0.279798 0.017286 0.684544
O O8 0.500000 0.500000 0.627345
O O9 0.498697 0.749349 0.666667
O O10 0.217320 0.434640 0.500000
#
# Coordination Sequence:
#
# PCOD9583622 Si02
#       4
#    12  12  12  12
#     4  10  20  36  62  99 131 180 228 293 361 433
#     4  10  22  38  67 102 134 175 236 297 359 446
#     4  12  26  47  68  98 149 194 242 306 383 444
#     4  10  16  33  62  93 139 169 225 290 361 423
#
# _framework density 22.565553000000001
#
# number of rings (size 3 to 8) (size 9 to 14) (size 15 to 20)
#    0.000    1.500    5.000    0.750    0.000    8.500 
#    0.000    1.250    0.000    3.000    0.000    0.000 
#    0.000    0.000    0.000    0.000    0.000    0.000 
#
# Total GULP energy -267322.643096 kJ/mol
# GULP energy per Si atom -5569.221731 kJ/mol
# Density = 2.251419 g / cm^3
# Si number density = 22.565553 Si / 1000 Ang^3
#
#
#
# Elastic Constant Matrix: (Units=GPa)
#
#
# Indices 1 2 3 4 5 6 
#
# 1 58.6494 34.2257 45.6051 0.0000 0.0000 0.0000
# 2 34.2257 58.6494 45.6051 0.0000 0.0000 0.0000
# 3 45.6051 45.6051 151.0865 0.0000 0.0000 0.0000
# 4 0.0000 0.0000 0.0000 8.1773 0.0000 0.0000
# 5 0.0000 0.0000 0.0000 0.0000 8.1773 0.0000
# 6 0.0000 0.0000 0.0000 0.0000 0.0000 12.2118
#
#
#
# Elastic Compliance Matrix: (Units=1/GPa)
#
#
# Indices 1 2 3 4 5 6 
#
# 1 0.028124 -0.012820 -0.004619 0.000000 0.000000 0.000000
# 2 -0.012820 0.028124 -0.004619 0.000000 0.000000 0.000000
# 3 -0.004619 -0.004619 0.009407 0.000000 0.000000 0.000000
# 4 0.000000 0.000000 0.000000 0.122290 0.000000 0.000000
# 5 0.000000 0.000000 0.000000 0.000000 0.122290 0.000000
# 6 0.000000 0.000000 0.000000 0.000000 0.000000 0.081888
#
#
# Mechanical properties :
#
#
# Convention : Reuss Voigt Hill
#
# Bulk Modulus (GPa) = 46.43100 57.69524 52.06312
# Shear Modulus (GPa) = 11.27602 15.24324 13.25963
#
# Velocity S-wave (km/s) = 2.23782 2.60188 2.42669
# Velocity P-wave (km/s) = 5.22474 5.88640 5.56541
#
# Compressibility (1/GPa) = 0.02153733
#
# Stress axis : x y z
#
# Youngs Moduli (GPa) = 35.55706 35.55706 106.29885
#
# Poissons Ratio (x) = 0.45584 0.49104
# Poissons Ratio (y) = 0.45584 0.49104
# Poissons Ratio (z) = 0.16425 0.16425
#
# Static dielectric constant tensor:
#      x y z
#    x 1.966060 0.000000 0.000000 
#    y 0.000000 1.966060 0.000000 
#    z 0.000000 0.000000 1.837150 
# 
# From -- ./inp_files/8662.got.cif
#   From: 2010.05.17/outbox.cif.g08.bks.cpg/sg180_5_cif.got.tgz:8662.got - 2010.05.20 11:43:55.
