data_PCOD9583620
_publ_section_title
;
Structure prediction by ZEFSAII (Michael W. Deem and Ramdas Pophale) SiO2 
 PCOD9583620
Probable space group: P 62 2 2
;
_chemical_formula_sum "Si O2"
_cell_formula_units_Z 66
_cell_length_a 26.228463
_cell_length_b 26.228463
_cell_length_c 5.900465
_cell_angle_alpha 90.000000
_cell_angle_beta 90.000000
_cell_angle_gamma 120.000000
_cell_volume 3515.301288
_symmetry_space_group_name_H-M "P 62 2 2"
_symmetry_group_IT_number 180
_symmetry_cell_setting 'hexagonal'
loop_
_space_group_symop_operation_xyz
x,y,z
x-y,x,1/3+z
-y,x-y,2/3+z
-x,-y,z
-x+y,-x,1/3+z
y,-x+y,2/3+z
x-y,-y,-z
-x,-x+y,1/3-z
y,x,2/3-z
-y,-x,2/3-z
-x+y,y,-z
x,x-y,1/3-z
loop_
_atom_site_type_symbol
_atom_site_label
_atom_site_fract_x
_atom_site_fract_y
_atom_site_fract_z
Si Si1 0.539105 0.460896 0.833334
Si Si2 0.629570 0.547891 0.533997
Si Si3 0.520739 0.353632 0.512735
Si Si4 0.182006 0.364012 0.500000
Si Si5 0.635546 0.271091 0.000000
Si Si6 0.274365 0.339599 0.289850
Si Si7 0.269331 0.409829 0.894706
O O1 0.565413 0.516873 0.656629
O O2 0.527163 0.406248 0.672658
O O3 0.634214 0.496554 0.403065
O O4 0.662638 0.601419 0.354170
O O5 0.675737 0.575153 0.734779
O O6 0.579482 0.350885 0.486480
O O7 0.466975 0.294464 0.613165
O O8 0.219645 0.332949 0.437794
O O9 0.216750 0.399113 0.726230
O O10 0.688709 0.311292 0.833334
O O11 0.286941 0.286941 0.333334
O O12 0.259099 0.353790 0.041837
#
# Coordination Sequence:
#
# PCOD9583620 Si02
#       7
#     6  12  12   6   6  12  12
#     4  10  16  32  62  72  92 130 174 233 286 362
#     4   9  18  33  57  79  98 132 179 224 290 346
#     4  10  20  40  54  70  97 136 178 235 295 357
#     4  10  20  38  56  93 116 144 194 226 282 360
#     4  12  28  42  42  68  99 130 176 230 302 378
#     4  10  21  38  58  85 120 148 185 237 287 346
#     4   9  20  37  60  84 105 138 184 231 280 344
#
# _framework density 18.775064
#
# number of rings (size 3 to 8) (size 9 to 14) (size 15 to 20)
#    0.000    2.182    1.818    0.545    1.273    2.909 
#   27.818    0.000    0.000   31.636    0.000    0.000 
#    0.000    0.000    0.000    0.000    0.000   20.000 
#
# Total GULP energy -367485.472032 kJ/mol
# GULP energy per Si atom -5567.961697 kJ/mol
# Density = 1.873233 g / cm^3
# Si number density = 18.775064 Si / 1000 Ang^3
#
#
#
# Elastic Constant Matrix: (Units=GPa)
#
#
# Indices 1 2 3 4 5 6 
#
# 1 74.7009 35.1662 21.0324 0.0000 0.0000 0.0000
# 2 35.1662 74.7009 21.0324 0.0000 0.0000 0.0000
# 3 21.0324 21.0324 82.5157 0.0000 0.0000 0.0000
# 4 0.0000 0.0000 0.0000 8.0336 0.0000 0.0000
# 5 0.0000 0.0000 0.0000 0.0000 8.0336 0.0000
# 6 0.0000 0.0000 0.0000 0.0000 0.0000 19.7674
#
#
#
# Elastic Compliance Matrix: (Units=1/GPa)
#
#
# Indices 1 2 3 4 5 6 
#
# 1 0.017690 -0.007604 -0.002571 0.000000 0.000000 0.000000
# 2 -0.007604 0.017690 -0.002571 0.000000 0.000000 0.000000
# 3 -0.002571 -0.002571 0.013429 0.000000 0.000000 0.000000
# 4 0.000000 0.000000 0.000000 0.124477 0.000000 0.000000
# 5 0.000000 0.000000 0.000000 0.000000 0.124477 0.000000
# 6 0.000000 0.000000 0.000000 0.000000 0.000000 0.050588
#
#
# Mechanical properties :
#
#
# Convention : Reuss Voigt Hill
#
# Bulk Modulus (GPa) = 42.88452 42.93104 42.90778
# Shear Modulus (GPa) = 13.10215 17.47935 15.29075
#
# Velocity S-wave (km/s) = 2.64455 3.05452 2.85690
# Velocity P-wave (km/s) = 5.67588 5.94607 5.81255
#
# Compressibility (1/GPa) = 0.02331844
#
# Stress axis : x y z
#
# Youngs Moduli (GPa) = 56.52841 56.52841 74.46302
#
# Poissons Ratio (x) = 0.42984 0.19143
# Poissons Ratio (y) = 0.42984 0.19143
# Poissons Ratio (z) = 0.14533 0.14533
#
# Static dielectric constant tensor:
#      x y z
#    x 1.685140 0.000000 0.000000 
#    y 0.000000 1.685140 0.000000 
#    z 0.000000 0.000000 1.747070 
# 
# From -- ./inp_files/1582.got.cif
#   From: 2010.05.17/outbox.cif.g08.bks.cpg/sg180_1_cif.got.tgz:1582.got - 2010.05.20 11:43:55.
