data_PCOD9583286
_publ_section_title
;
Structure prediction by ZEFSAII (Michael W. Deem and Ramdas Pophale) SiO2 
 PCOD9583286
Probable space group: P 65 2 2
;
_chemical_formula_sum "Si O2"
_cell_formula_units_Z 48
_cell_length_a 17.815563
_cell_length_b 17.815563
_cell_length_c 8.840994
_cell_angle_alpha 90.000000
_cell_angle_beta 90.000000
_cell_angle_gamma 120.000000
_cell_volume 2430.137405
_symmetry_space_group_name_H-M "P 65 2 2"
_symmetry_group_IT_number 179
_symmetry_cell_setting 'hexagonal'
loop_
_space_group_symop_operation_xyz
x,y,z
x-y,x,5/6+z
-y,x-y,2/3+z
-x,-y,1/2+z
-x+y,-x,1/3+z
y,-x+y,1/6+z
x-y,-y,-z
-x,-x+y,1/3-z
y,x,2/3-z
-y,-x,1/6-z
-x+y,y,1/2-z
x,x-y,5/6-z
loop_
_atom_site_type_symbol
_atom_site_label
_atom_site_fract_x
_atom_site_fract_y
_atom_site_fract_z
Si Si1 0.000000 0.155806 0.166667
Si Si2 0.188704 0.281096 0.612202
Si Si3 0.583568 0.291784 0.916667
Si Si4 0.727554 0.175124 0.358169
Si Si5 0.649544 0.649544 0.333334
Si Si6 0.545059 0.272530 0.416667
O O1 0.071027 0.142053 0.250000
O O2 0.957361 0.181729 0.302319
O O3 0.119003 0.238006 0.750000
O O4 0.173167 0.357284 0.548856
O O5 0.280643 0.317492 0.696359
O O6 0.515939 0.254297 0.780288
O O7 0.647426 0.388559 0.855762
O O8 0.707304 0.191479 0.189093
O O9 0.652695 0.086314 0.434113
#
# Coordination Sequence:
#
# PCOD9583286 Si02
#       6
#     6  12   6  12   6   6
#     4  12  26  40  63  97 132 178 226 270 328 402
#     4  10  22  41  66  94 132 174 221 273 333 390
#     4  12  20  44  66  95 130 175 216 264 338 400
#     4  11  22  40  68  99 128 179 220 270 334 400
#     4  10  20  40  67  93 136 168 214 278 334 390
#     4  12  24  38  74  95 132 173 226 268 330 422
#
# _framework density 19.751968999999999
#
# number of rings (size 3 to 8) (size 9 to 14) (size 15 to 20)
#    0.000    1.000    6.250    3.000    5.250    1.000 
#    0.000    0.000   16.500    0.000    0.000    0.000 
#    0.000    0.000    0.000    0.000    0.000    0.000 
#
# Total GULP energy -267235.511059 kJ/mol
# GULP energy per Si atom -5567.406480 kJ/mol
# Density = 1.970701 g / cm^3
# Si number density = 19.751969 Si / 1000 Ang^3
#
#
#
# Elastic Constant Matrix: (Units=GPa)
#
#
# Indices 1 2 3 4 5 6 
#
# 1 40.2721 77.9665 59.8836 0.0000 0.0000 0.0000
# 2 77.9665 40.2721 59.8836 0.0000 0.0000 0.0000
# 3 59.8836 59.8836 153.0379 0.0000 0.0000 0.0000
# 4 0.0000 0.0000 0.0000 18.0011 0.0000 0.0000
# 5 0.0000 0.0000 0.0000 0.0000 18.0011 0.0000
# 6 0.0000 0.0000 0.0000 0.0000 0.0000 -18.8472
#
#
#
# Elastic Compliance Matrix: (Units=1/GPa)
#
#
# Indices 1 2 3 4 5 6 
#
# 1 -0.006259 0.020270 -0.005482 0.000000 0.000000 0.000000
# 2 0.020270 -0.006259 -0.005482 0.000000 0.000000 0.000000
# 3 -0.005482 -0.005482 0.010825 0.000000 0.000000 0.000000
# 4 0.000000 0.000000 0.000000 0.055552 0.000000 0.000000
# 5 0.000000 0.000000 0.000000 0.000000 0.055552 0.000000
# 6 0.000000 0.000000 0.000000 0.000000 0.000000 -0.053058
#
#
# Mechanical properties :
#
#
# Convention : Reuss Voigt Hill
#
# Bulk Modulus (GPa) = 59.11298 69.89438 64.50368
# Shear Modulus (GPa) = 115.25753 5.82089 60.53921
#
# Velocity S-wave (km/s) = 7.64716 1.71854 5.54222
# Velocity P-wave (km/s) = 10.39061 6.27700 8.58386
#
# Compressibility (1/GPa) = 0.01691676
#
# Stress axis : x y z
#
# Youngs Moduli (GPa) = -159.76518 -159.76518 92.38014
#
# Poissons Ratio (x) = 3.23843 0.50646
# Poissons Ratio (y) = 3.23843 0.50646
# Poissons Ratio (z) = -0.87589 -0.87589
#
# Static dielectric constant tensor:
#      x y z
#    x 1.736950 0.000000 0.000000 
#    y 0.000000 1.736950 0.000000 
#    z 0.000000 0.000000 1.700920 
# 
# From -- ./inp_files/2773.got.cif
#   From: 2010.05.17/outbox.cif.g08.bks.cpg/sg179_2_cif.got.tgz:2773.got - 2010.05.20 11:37:33.
