data_PCOD9583666
_publ_section_title
;
Structure prediction by ZEFSAII (Michael W. Deem and Ramdas Pophale) SiO2 
 PCOD9583666
Probable space group: P 62 2 2
;
_chemical_formula_sum "Si O2"
_cell_formula_units_Z 54
_cell_length_a 10.617883
_cell_length_b 10.617883
_cell_length_c 21.753508
_cell_angle_alpha 90.000000
_cell_angle_beta 90.000000
_cell_angle_gamma 120.000000
_cell_volume 2123.908507
_symmetry_space_group_name_H-M "P 62 2 2"
_symmetry_group_IT_number 180
_symmetry_cell_setting 'hexagonal'
loop_
_space_group_symop_operation_xyz
x,y,z
x-y,x,1/3+z
-y,x-y,2/3+z
-x,-y,z
-x+y,-x,1/3+z
y,-x+y,2/3+z
x-y,-y,-z
-x,-x+y,1/3-z
y,x,2/3-z
-y,-x,2/3-z
-x+y,y,-z
x,x-y,1/3-z
loop_
_atom_site_type_symbol
_atom_site_label
_atom_site_fract_x
_atom_site_fract_y
_atom_site_fract_z
Si Si1 0.599670 0.293364 0.567235
Si Si2 0.559248 0.651018 0.267923
Si Si3 0.500000 0.000000 0.267640
Si Si4 0.874867 0.029319 0.073386
Si Si5 0.297188 0.334187 0.965918
O O1 0.629311 0.258622 0.500000
O O2 0.749374 0.414452 0.599733
O O3 0.512565 0.380040 0.563833
O O4 0.490370 0.145932 0.602633
O O5 0.500000 0.500000 0.232525
O O6 0.617910 0.617910 0.333334
O O7 0.708364 0.778290 0.238560
O O8 0.410217 0.047352 0.313318
O O9 0.932351 0.202358 0.077994
O O10 0.000000 0.000000 0.098441
O O11 0.868623 0.000000 0.000000
O O12 0.145419 0.290838 0.000000
#
# Coordination Sequence:
#
# PCOD9583666 Si02
#       5
#    12  12   6  12  12
#     4  11  26  43  66 105 151 195 238 321 403 457
#     4  10  23  38  66  97 137 185 244 297 362 457
#     4  10  22  40  71  96 133 190 260 296 362 464
#     4  10  18  35  64 103 134 170 235 306 361 419
#     4  10  21  38  69 101 139 186 249 308 372 458
#
# _framework density 25.424823
#
# number of rings (size 3 to 8) (size 9 to 14) (size 15 to 20)
#    0.000    1.778    2.222    2.667   17.111    0.000 
#    0.000    0.556    0.000    3.333    0.000    0.000 
#    0.000    0.000    0.000    0.000    0.000    0.000 
#
# Total GULP energy -301307.302967 kJ/mol
# GULP energy per Si atom -5579.764870 kJ/mol
# Density = 2.536696 g / cm^3
# Si number density = 25.424823 Si / 1000 Ang^3
#
#
#
# Elastic Constant Matrix: (Units=GPa)
#
#
# Indices 1 2 3 4 5 6 
#
# 1 139.4194 43.0959 28.3174 0.0000 0.0000 0.0000
# 2 43.0959 139.4194 28.3174 0.0000 0.0000 0.0000
# 3 28.3174 28.3174 74.5809 0.0000 0.0000 0.0000
# 4 0.0000 0.0000 0.0000 5.2207 0.0000 0.0000
# 5 0.0000 0.0000 0.0000 0.0000 5.2207 0.0000
# 6 0.0000 0.0000 0.0000 0.0000 0.0000 48.1618
#
#
#
# Elastic Compliance Matrix: (Units=1/GPa)
#
#
# Indices 1 2 3 4 5 6 
#
# 1 0.008296 -0.002085 -0.002358 0.000000 0.000000 0.000000
# 2 -0.002085 0.008296 -0.002358 0.000000 0.000000 0.000000
# 3 -0.002358 -0.002358 0.015199 0.000000 0.000000 0.000000
# 4 0.000000 0.000000 0.000000 0.191547 0.000000 0.000000
# 5 0.000000 0.000000 0.000000 0.000000 0.191547 0.000000
# 6 0.000000 0.000000 0.000000 0.000000 0.000000 0.020763
#
#
# Mechanical properties :
#
#
# Convention : Reuss Voigt Hill
#
# Bulk Modulus (GPa) = 54.98163 61.43120 58.20641
# Shear Modulus (GPa) = 10.98141 28.63321 19.80731
#
# Velocity S-wave (km/s) = 2.08052 3.35952 2.79418
# Velocity P-wave (km/s) = 5.23866 6.26601 5.77522
#
# Compressibility (1/GPa) = 0.01818789
#
# Stress axis : x y z
#
# Youngs Moduli (GPa) = 120.53706 120.53706 65.79397
#
# Poissons Ratio (x) = 0.25138 0.15515
# Poissons Ratio (y) = 0.25138 0.15515
# Poissons Ratio (z) = 0.28424 0.28424
#
# Static dielectric constant tensor:
#      x y z
#    x 2.122720 0.000000 0.000000 
#    y 0.000000 2.122720 0.000000 
#    z 0.000000 0.000000 2.078890 
# 
# From -- ./inp_files/10116.got.cif
#   From: 2010.05.17/outbox.cif.g08.bks.cpg/sg180_6_cif.got.tgz:10116.got - 2010.05.20 11:43:55.
