data_PCOD9583968
_publ_section_title
;
Structure prediction by ZEFSAII (Michael W. Deem and Ramdas Pophale) SiO2 
 PCOD9583968
Probable space group: P 62 2 2
;
_chemical_formula_sum "Si O2"
_cell_formula_units_Z 48
_cell_length_a 16.253782
_cell_length_b 16.253782
_cell_length_c 8.383837
_cell_angle_alpha 90.000000
_cell_angle_beta 90.000000
_cell_angle_gamma 120.000000
_cell_volume 1918.148908
_symmetry_space_group_name_H-M "P 62 2 2"
_symmetry_group_IT_number 180
_symmetry_cell_setting 'hexagonal'
loop_
_space_group_symop_operation_xyz
x,y,z
x-y,x,1/3+z
-y,x-y,2/3+z
-x,-y,z
-x+y,-x,1/3+z
y,-x+y,2/3+z
x-y,-y,-z
-x,-x+y,1/3-z
y,x,2/3-z
-y,-x,2/3-z
-x+y,y,-z
x,x-y,1/3-z
loop_
_atom_site_type_symbol
_atom_site_label
_atom_site_fract_x
_atom_site_fract_y
_atom_site_fract_z
Si Si1 0.211217 0.783143 0.511799
Si Si2 0.276899 0.046017 0.326628
Si Si3 0.263482 0.631741 0.166667
Si Si4 0.564843 0.599433 0.511117
Si Si5 0.939863 0.879726 0.000000
O O1 0.192485 0.807516 0.333334
O O2 0.185323 0.841039 0.638578
O O3 0.316913 0.799355 0.525771
O O4 0.146295 0.669656 0.508610
O O5 0.261789 0.000000 0.500000
O O6 0.340480 0.011509 0.239608
O O7 0.168885 0.996492 0.265736
O O8 0.323314 0.676687 0.333334
O O9 0.500000 0.500000 0.598386
O O10 0.576997 0.576997 0.333334
O O11 0.923116 0.923116 0.833334
#
# Coordination Sequence:
#
# PCOD9583968 Si02
#       5
#    12  12   6  12   6
#     4  11  24  45  70 110 150 206 270 333 404 492
#     4  11  22  41  74 106 150 199 262 332 407 487
#     4  10  26  42  71 104 164 222 277 336 410 478
#     4  11  26  42  63 105 155 200 266 329 392 482
#     4  10  22  42  78 124 165 206 274 352 432 514
#
# _framework density 25.024125999999999
#
# number of rings (size 3 to 8) (size 9 to 14) (size 15 to 20)
#    0.000    1.250    2.500    3.000   12.250    1.500 
#    0.000    0.000    0.000    0.000   13.000   21.000 
#    3.750    0.000    0.000    0.000    0.000    0.000 
#
# Total GULP energy -267533.212422 kJ/mol
# GULP energy per Si atom -5573.608592 kJ/mol
# Density = 2.496717 g / cm^3
# Si number density = 25.024126 Si / 1000 Ang^3
#
#
#
# Elastic Constant Matrix: (Units=GPa)
#
#
# Indices 1 2 3 4 5 6 
#
# 1 188.0420 71.9481 31.2695 0.0000 0.0000 0.0000
# 2 71.9481 188.0420 31.2695 0.0000 0.0000 0.0000
# 3 31.2695 31.2695 103.8075 0.0000 0.0000 0.0000
# 4 0.0000 0.0000 0.0000 87.8384 0.0000 0.0000
# 5 0.0000 0.0000 0.0000 0.0000 87.8384 0.0000
# 6 0.0000 0.0000 0.0000 0.0000 0.0000 58.0470
#
#
#
# Elastic Compliance Matrix: (Units=1/GPa)
#
#
# Indices 1 2 3 4 5 6 
#
# 1 0.006380 -0.002233 -0.001249 0.000000 0.000000 0.000000
# 2 -0.002233 0.006380 -0.001249 0.000000 0.000000 0.000000
# 3 -0.001249 -0.001249 0.010386 0.000000 0.000000 0.000000
# 4 0.000000 0.000000 0.000000 0.011385 0.000000 0.000000
# 5 0.000000 0.000000 0.000000 0.000000 0.011385 0.000000
# 6 0.000000 0.000000 0.000000 0.000000 0.000000 0.017227
#
#
# Mechanical properties :
#
#
# Convention : Reuss Voigt Hill
#
# Bulk Modulus (GPa) = 73.08430 83.20729 78.14579
# Shear Modulus (GPa) = 64.79449 69.77174 67.28312
#
# Velocity S-wave (km/s) = 5.09402 5.28605 5.19092
# Velocity P-wave (km/s) = 7.99172 8.40116 8.19900
#
# Compressibility (1/GPa) = 0.01368283
#
# Stress axis : x y z
#
# Youngs Moduli (GPa) = 156.73393 156.73393 96.28584
#
# Poissons Ratio (x) = 0.35006 0.12027
# Poissons Ratio (y) = 0.35006 0.12027
# Poissons Ratio (z) = 0.19578 0.19578
#
# Static dielectric constant tensor:
#      x y z
#    x 2.095410 0.000000 0.000000 
#    y 0.000000 2.095410 0.000000 
#    z 0.000000 0.000000 1.963200 
# 
# From -- ./inp_files/2777.got.cif
#   From: 2010.05.17/outbox.cif.g08.bks.cpg/sg180_2_cif.got.tgz:2777.got - 2010.05.20 11:43:55.
