data_PCOD9583836
_publ_section_title
;
Structure prediction by ZEFSAII (Michael W. Deem and Ramdas Pophale) SiO2 
 PCOD9583836
Probable space group: P 62 2 2
;
_chemical_formula_sum "Si O2"
_cell_formula_units_Z 42
_cell_length_a 12.281575
_cell_length_b 12.281575
_cell_length_c 16.310078
_cell_angle_alpha 90.000000
_cell_angle_beta 90.000000
_cell_angle_gamma 120.000000
_cell_volume 2130.565052
_symmetry_space_group_name_H-M "P 62 2 2"
_symmetry_group_IT_number 180
_symmetry_cell_setting 'hexagonal'
loop_
_space_group_symop_operation_xyz
x,y,z
x-y,x,1/3+z
-y,x-y,2/3+z
-x,-y,z
-x+y,-x,1/3+z
y,-x+y,2/3+z
x-y,-y,-z
-x,-x+y,1/3-z
y,x,2/3-z
-y,-x,2/3-z
-x+y,y,-z
x,x-y,1/3-z
loop_
_atom_site_type_symbol
_atom_site_label
_atom_site_fract_x
_atom_site_fract_y
_atom_site_fract_z
Si Si1 0.345866 0.654135 0.833334
Si Si2 0.725359 0.538239 0.613583
Si Si3 0.136381 0.382594 0.205678
Si Si4 0.637876 0.619829 0.455029
O O1 0.293977 0.696061 0.911619
O O2 0.491933 0.707880 0.819945
O O3 0.694567 0.562090 0.704486
O O4 0.664425 0.586921 0.546287
O O5 0.875429 0.615021 0.603456
O O6 0.240127 0.339422 0.212097
O O7 0.000000 0.291060 0.166667
O O8 0.500000 0.500000 0.433803
#
# Coordination Sequence:
#
# PCOD9583836 Si02
#       4
#     6  12  12  12
#     4  10  21  40  58  94 127 168 218 256 339 396
#     4  10  22  40  66  92 128 165 228 268 311 401
#     4  12  24  39  60  99 133 170 208 274 344 389
#     4  10  20  41  67  94 117 173 225 264 320 393
#
# _framework density 19.713080999999999
#
# number of rings (size 3 to 8) (size 9 to 14) (size 15 to 20)
#    0.000    1.714    5.714    2.143    0.000    4.571 
#    5.143    2.857    0.000    6.857    0.000    0.000 
#    0.000    0.000    0.000    0.000    0.000    0.000 
#
# Total GULP energy -233828.562186 kJ/mol
# GULP energy per Si atom -5567.346719 kJ/mol
# Density = 1.966821 g / cm^3
# Si number density = 19.713081 Si / 1000 Ang^3
#
#
#
# Elastic Constant Matrix: (Units=GPa)
#
#
# Indices 1 2 3 4 5 6 
#
# 1 115.4125 44.0967 35.7941 0.0000 0.0000 0.0000
# 2 44.0967 115.4125 35.7941 0.0000 0.0000 0.0000
# 3 35.7941 35.7941 75.7234 0.0000 0.0000 0.0000
# 4 0.0000 0.0000 0.0000 15.3523 0.0000 0.0000
# 5 0.0000 0.0000 0.0000 0.0000 15.3523 0.0000
# 6 0.0000 0.0000 0.0000 0.0000 0.0000 35.6579
#
#
#
# Elastic Compliance Matrix: (Units=1/GPa)
#
#
# Indices 1 2 3 4 5 6 
#
# 1 0.010990 -0.003032 -0.003761 0.000000 0.000000 0.000000
# 2 -0.003032 0.010990 -0.003761 0.000000 0.000000 0.000000
# 3 -0.003761 -0.003761 0.016762 0.000000 0.000000 0.000000
# 4 0.000000 0.000000 0.000000 0.065137 0.000000 0.000000
# 5 0.000000 0.000000 0.000000 0.000000 0.065137 0.000000
# 6 0.000000 0.000000 0.000000 0.000000 0.000000 0.028044
#
#
# Mechanical properties :
#
#
# Convention : Reuss Voigt Hill
#
# Bulk Modulus (GPa) = 56.71814 59.76870 58.24342
# Shear Modulus (GPa) = 22.31677 25.99674 24.15676
#
# Velocity S-wave (km/s) = 3.36829 3.63541 3.50439
# Velocity P-wave (km/s) = 6.63034 6.92869 6.78116
#
# Compressibility (1/GPa) = 0.01763104
#
# Stress axis : x y z
#
# Youngs Moduli (GPa) = 90.99388 90.99388 59.65889
#
# Poissons Ratio (x) = 0.27593 0.22440
# Poissons Ratio (y) = 0.27593 0.22440
# Poissons Ratio (z) = 0.34227 0.34227
#
# Static dielectric constant tensor:
#      x y z
#    x 1.644010 0.000000 0.000000 
#    y 0.000000 1.644010 0.000000 
#    z 0.000000 0.000000 1.744130 
# 
# From -- ./inp_files/7350.got.cif
#   From: 2010.05.17/outbox.cif.g08.bks.cpg/sg180_4_cif.got.tgz:7350.got - 2010.05.20 11:43:55.
