data_PCOD9583939
_publ_section_title
;
Structure prediction by ZEFSAII (Michael W. Deem and Ramdas Pophale) SiO2 
 PCOD9583939
Probable space group: P 62 2 2
;
_chemical_formula_sum "Si O2"
_cell_formula_units_Z 48
_cell_length_a 15.312189
_cell_length_b 15.312189
_cell_length_c 11.917443
_cell_angle_alpha 90.000000
_cell_angle_beta 90.000000
_cell_angle_gamma 120.000000
_cell_volume 2419.849059
_symmetry_space_group_name_H-M "P 62 2 2"
_symmetry_group_IT_number 180
_symmetry_cell_setting 'hexagonal'
loop_
_space_group_symop_operation_xyz
x,y,z
x-y,x,1/3+z
-y,x-y,2/3+z
-x,-y,z
-x+y,-x,1/3+z
y,-x+y,2/3+z
x-y,-y,-z
-x,-x+y,1/3-z
y,x,2/3-z
-y,-x,2/3-z
-x+y,y,-z
x,x-y,1/3-z
loop_
_atom_site_type_symbol
_atom_site_label
_atom_site_fract_x
_atom_site_fract_y
_atom_site_fract_z
Si Si1 0.410034 0.112164 0.696491
Si Si2 0.900041 0.696730 0.740988
Si Si3 0.000000 0.500000 0.478748
Si Si4 0.000000 0.742951 0.166667
Si Si5 0.321107 0.503463 0.400117
O O1 0.458595 0.229298 0.666667
O O2 0.333316 0.082375 0.801457
O O3 0.486352 0.077135 0.734889
O O4 0.346163 0.055842 0.588503
O O5 0.838486 0.754526 0.764417
O O6 0.832631 0.588636 0.678952
O O7 0.000000 0.759149 0.666667
O O8 0.070796 0.472334 0.552326
O O9 0.392882 0.607119 0.333334
O O10 0.258051 0.516102 0.500000
#
# Coordination Sequence:
#
# PCOD9583939 Si02
#       5
#    12  12   6   6  12
#     4  10  22  39  64  94 136 174 227 279 339 416
#     4  11  21  41  70  95 129 178 229 281 330 410
#     4  12  21  43  68  92 136 185 231 286 340 414
#     4  10  24  41  60 103 130 176 222 268 356 414
#     4  12  24  41  67 102 132 178 235 281 338 415
#
# _framework density 19.835947999999998
#
# number of rings (size 3 to 8) (size 9 to 14) (size 15 to 20)
#    0.000    1.000    5.000    1.875    0.000    1.500 
#    0.000    0.000    0.000   20.250    0.000    0.000 
#    0.000    0.000    0.000    0.000    0.000    0.000 
#
# Total GULP energy -268031.586289 kJ/mol
# GULP energy per Si atom -5583.991381 kJ/mol
# Density = 1.979080 g / cm^3
# Si number density = 19.835948 Si / 1000 Ang^3
#
#
#
# Elastic Constant Matrix: (Units=GPa)
#
#
# Indices 1 2 3 4 5 6 
#
# 1 99.1071 39.9344 44.2224 0.0000 0.0000 0.0000
# 2 39.9344 99.1071 44.2224 0.0000 0.0000 0.0000
# 3 44.2224 44.2224 117.0786 0.0000 0.0000 0.0000
# 4 0.0000 0.0000 0.0000 34.1447 0.0000 0.0000
# 5 0.0000 0.0000 0.0000 0.0000 34.1447 0.0000
# 6 0.0000 0.0000 0.0000 0.0000 0.0000 29.5864
#
#
#
# Elastic Compliance Matrix: (Units=1/GPa)
#
#
# Indices 1 2 3 4 5 6 
#
# 1 0.013183 -0.003717 -0.003576 0.000000 0.000000 0.000000
# 2 -0.003717 0.013183 -0.003576 0.000000 0.000000 0.000000
# 3 -0.003576 -0.003576 0.011242 0.000000 0.000000 0.000000
# 4 0.000000 0.000000 0.000000 0.029287 0.000000 0.000000
# 5 0.000000 0.000000 0.000000 0.000000 0.029287 0.000000
# 6 0.000000 0.000000 0.000000 0.000000 0.000000 0.033799
#
#
# Mechanical properties :
#
#
# Convention : Reuss Voigt Hill
#
# Bulk Modulus (GPa) = 63.00034 63.56123 63.28078
# Shear Modulus (GPa) = 31.84529 32.03607 31.94068
#
# Velocity S-wave (km/s) = 4.01113 4.02313 4.01714
# Velocity P-wave (km/s) = 7.29944 7.32760 7.31354
#
# Compressibility (1/GPa) = 0.01587293
#
# Stress axis : x y z
#
# Youngs Moduli (GPa) = 75.85446 75.85446 88.94857
#
# Poissons Ratio (x) = 0.28192 0.31805
# Poissons Ratio (y) = 0.28192 0.31805
# Poissons Ratio (z) = 0.27123 0.27123
#
# Static dielectric constant tensor:
#      x y z
#    x 1.722990 0.000000 0.000000 
#    y 0.000000 1.722990 0.000000 
#    z 0.000000 0.000000 1.697840 
# 
# From -- ./inp_files/4456.got.cif
#   From: 2010.05.17/outbox.cif.g08.bks.cpg/sg180_3_cif.got.tgz:4456.got - 2010.05.20 11:43:55.
