data_PCOD9583670
_publ_section_title
;
Structure prediction by ZEFSAII (Michael W. Deem and Ramdas Pophale) SiO2 
 PCOD9583670
Probable space group: P 62 2 2
;
_chemical_formula_sum "Si O2"
_cell_formula_units_Z 66
_cell_length_a 15.903605
_cell_length_b 15.903605
_cell_length_c 15.239981
_cell_angle_alpha 90.000000
_cell_angle_beta 90.000000
_cell_angle_gamma 120.000000
_cell_volume 3338.152848
_symmetry_space_group_name_H-M "P 62 2 2"
_symmetry_group_IT_number 180
_symmetry_cell_setting 'hexagonal'
loop_
_space_group_symop_operation_xyz
x,y,z
x-y,x,1/3+z
-y,x-y,2/3+z
-x,-y,z
-x+y,-x,1/3+z
y,-x+y,2/3+z
x-y,-y,-z
-x,-x+y,1/3-z
y,x,2/3-z
-y,-x,2/3-z
-x+y,y,-z
x,x-y,1/3-z
loop_
_atom_site_type_symbol
_atom_site_label
_atom_site_fract_x
_atom_site_fract_y
_atom_site_fract_z
Si Si1 0.085991 0.475459 0.864952
Si Si2 0.246172 0.365018 0.681897
Si Si3 0.710160 0.957975 0.907922
Si Si4 0.857248 0.714495 0.500000
Si Si5 0.107857 0.714680 0.297124
Si Si6 0.523913 0.238055 0.471414
O O1 0.046722 0.367594 0.827291
O O2 0.188238 0.531429 0.813273
O O3 0.000000 0.500000 0.855755
O O4 0.113783 0.472486 0.966002
O O5 0.147407 0.307406 0.738237
O O6 0.211300 0.348495 0.580731
O O7 0.316028 0.322169 0.704472
O O8 0.289993 0.476597 0.712399
O O9 0.814252 0.035820 0.872137
O O10 0.697080 0.000000 0.000000
O O11 0.175719 0.824282 0.333334
O O12 0.160511 0.714291 0.207856
O O13 0.624146 0.248291 0.500000
#
# Coordination Sequence:
#
# PCOD9583670 Si02
#       6
#    12  12  12   6  12  12
#     4  10  21  39  61  84 118 161 208 252 315 376
#     4  10  20  36  62  91 121 168 205 259 322 374
#     4   9  19  35  58  86 115 154 202 252 306 369
#     4  10  18  36  62  87 120 162 213 258 304 376
#     4  10  21  37  61  88 121 166 210 253 315 388
#     4  10  23  40  60  97 131 160 211 271 316 387
#
# _framework density 19.771412000000002
#
# number of rings (size 3 to 8) (size 9 to 14) (size 15 to 20)
#    0.000    2.182    1.818    0.545    2.545    1.091 
#    1.636    0.000    8.000    6.000    0.000    0.000 
#    0.000    0.000    0.000    0.000    0.000    0.000 
#
# Total GULP energy -367778.607076 kJ/mol
# GULP energy per Si atom -5572.403138 kJ/mol
# Density = 1.972641 g / cm^3
# Si number density = 19.771412 Si / 1000 Ang^3
#
#
#
# Elastic Constant Matrix: (Units=GPa)
#
#
# Indices 1 2 3 4 5 6 
#
# 1 105.7112 52.5017 18.1047 0.0000 0.0000 0.0000
# 2 52.5017 105.7112 18.1047 0.0000 0.0000 0.0000
# 3 18.1047 18.1047 65.9028 0.0000 0.0000 0.0000
# 4 0.0000 0.0000 0.0000 14.2867 0.0000 0.0000
# 5 0.0000 0.0000 0.0000 0.0000 14.2867 0.0000
# 6 0.0000 0.0000 0.0000 0.0000 0.0000 26.6047
#
#
#
# Elastic Compliance Matrix: (Units=1/GPa)
#
#
# Indices 1 2 3 4 5 6 
#
# 1 0.012769 -0.006024 -0.001853 0.000000 0.000000 0.000000
# 2 -0.006024 0.012769 -0.001853 0.000000 0.000000 0.000000
# 3 -0.001853 -0.001853 0.016192 0.000000 0.000000 0.000000
# 4 0.000000 0.000000 0.000000 0.069995 0.000000 0.000000
# 5 0.000000 0.000000 0.000000 0.000000 0.069995 0.000000
# 6 0.000000 0.000000 0.000000 0.000000 0.000000 0.037587
#
#
# Mechanical properties :
#
#
# Convention : Reuss Voigt Hill
#
# Bulk Modulus (GPa) = 44.90406 50.52748 47.71577
# Shear Modulus (GPa) = 20.30942 23.60991 21.95966
#
# Velocity S-wave (km/s) = 3.20849 3.45939 3.33630
# Velocity P-wave (km/s) = 6.04043 6.44731 6.24718
#
# Compressibility (1/GPa) = 0.02226970
#
# Stress axis : x y z
#
# Youngs Moduli (GPa) = 78.31372 78.31372 61.75924
#
# Poissons Ratio (x) = 0.47180 0.11443
# Poissons Ratio (y) = 0.47180 0.11443
# Poissons Ratio (z) = 0.14511 0.14511
#
# Static dielectric constant tensor:
#      x y z
#    x 1.696850 0.000000 0.000000 
#    y 0.000000 1.696850 0.000000 
#    z 0.000000 0.000000 1.749280 
# 
# From -- ./inp_files/7664.got.cif
#   From: 2010.05.17/outbox.cif.g08.bks.cpg/sg180_4_cif.got.tgz:7664.got - 2010.05.20 11:43:55.
