data_PCOD9583504
_publ_section_title
;
Structure prediction by ZEFSAII (Michael W. Deem and Ramdas Pophale) SiO2 
 PCOD9583504
Probable space group: P 65 2 2
;
_chemical_formula_sum "Si O2"
_cell_formula_units_Z 60
_cell_length_a 14.942844
_cell_length_b 14.942844
_cell_length_c 15.408466
_cell_angle_alpha 90.000000
_cell_angle_beta 90.000000
_cell_angle_gamma 120.000000
_cell_volume 2979.590364
_symmetry_space_group_name_H-M "P 65 2 2"
_symmetry_group_IT_number 179
_symmetry_cell_setting 'hexagonal'
loop_
_space_group_symop_operation_xyz
x,y,z
x-y,x,5/6+z
-y,x-y,2/3+z
-x,-y,1/2+z
-x+y,-x,1/3+z
y,-x+y,1/6+z
x-y,-y,-z
-x,-x+y,1/3-z
y,x,2/3-z
-y,-x,1/6-z
-x+y,y,1/2-z
x,x-y,5/6-z
loop_
_atom_site_type_symbol
_atom_site_label
_atom_site_fract_x
_atom_site_fract_y
_atom_site_fract_z
Si Si1 0.152495 0.598211 0.793541
Si Si2 0.843226 0.232595 0.495451
Si Si3 0.641458 0.655007 0.042071
Si Si4 0.317254 0.497720 0.986171
Si Si5 0.342488 0.477675 0.265621
O O1 0.152281 0.491401 0.804043
O O2 0.262032 0.698635 0.819819
O O3 0.124861 0.619056 0.697190
O O4 0.068841 0.603948 0.855007
O O5 0.829694 0.170307 0.583334
O O6 0.746170 0.178060 0.430570
O O7 0.942043 0.260143 0.435459
O O8 0.572832 0.685792 0.101466
O O9 0.632991 0.691629 0.945149
O O10 0.435048 0.565581 0.958385
O O11 0.248242 0.496483 0.250000
#
# Coordination Sequence:
#
# PCOD9583504 Si02
#       5
#    12  12  12  12  12
#     4  11  22  37  54  78 109 146 186 234 280 329
#     4  11  22  38  54  75 108 150 191 231 277 330
#     4  11  24  37  52  80 107 141 193 237 276 326
#     4  11  21  35  55  77 108 141 190 236 270 329
#     4  12  21  33  56  78 106 146 188 233 279 323
#
# _framework density 20.136996
#
# number of rings (size 3 to 8) (size 9 to 14) (size 15 to 20)
#    0.000    0.800    4.000    7.200    0.000    0.800 
#    0.000    0.000    0.000    0.000    0.000    0.000 
#    0.000    0.000    0.000  144.000    0.000    0.000 
#
# Total GULP energy -334653.586867 kJ/mol
# GULP energy per Si atom -5577.559781 kJ/mol
# Density = 2.009116 g / cm^3
# Si number density = 20.136996 Si / 1000 Ang^3
#
#
#
# Elastic Constant Matrix: (Units=GPa)
#
#
# Indices 1 2 3 4 5 6 
#
# 1 23.4386 4.3642 13.2524 0.0000 0.0000 0.0000
# 2 4.3642 23.4386 13.2524 0.0000 0.0000 0.0000
# 3 13.2524 13.2524 153.6053 0.0000 0.0000 0.0000
# 4 0.0000 0.0000 0.0000 31.6108 0.0000 0.0000
# 5 0.0000 0.0000 0.0000 0.0000 31.6108 0.0000
# 6 0.0000 0.0000 0.0000 0.0000 0.0000 9.5372
#
#
#
# Elastic Compliance Matrix: (Units=1/GPa)
#
#
# Indices 1 2 3 4 5 6 
#
# 1 0.045809 -0.006618 -0.003381 0.000000 0.000000 0.000000
# 2 -0.006618 0.045809 -0.003381 0.000000 0.000000 0.000000
# 3 -0.003381 -0.003381 0.007094 0.000000 0.000000 0.000000
# 4 0.000000 0.000000 0.000000 0.031635 0.000000 0.000000
# 5 0.000000 0.000000 0.000000 0.000000 0.031635 0.000000
# 6 0.000000 0.000000 0.000000 0.000000 0.000000 0.104852
#
#
# Mechanical properties :
#
#
# Convention : Reuss Voigt Hill
#
# Bulk Modulus (GPa) = 13.89840 29.13561 21.51700
# Shear Modulus (GPa) = 15.74425 25.85934 20.80179
#
# Velocity S-wave (km/s) = 2.79920 3.58742 3.21754
# Velocity P-wave (km/s) = 4.16705 5.62668 4.95095
#
# Compressibility (1/GPa) = 0.07195075
#
# Stress axis : x y z
#
# Youngs Moduli (GPa) = 21.82996 21.82996 140.97158
#
# Poissons Ratio (x) = 0.14446 0.47666
# Poissons Ratio (y) = 0.14446 0.47666
# Poissons Ratio (z) = 0.07381 0.07381
#
# Static dielectric constant tensor:
#      x y z
#    x 1.744180 0.000000 0.000000 
#    y 0.000000 1.744180 0.000000 
#    z 0.000000 0.000000 1.805670 
# 
# From -- ./inp_files/5788.got.cif
#   From: 2010.05.17/outbox.cif.g08.bks.cpg/sg179_3_cif.got.tgz:5788.got - 2010.05.20 11:37:33.
