data_PCOD9583593
_publ_section_title
;
Structure prediction by ZEFSAII (Michael W. Deem and Ramdas Pophale) SiO2 
 PCOD9583593
Probable space group: P 65 2 2
;
_chemical_formula_sum "Si O2"
_cell_formula_units_Z 36
_cell_length_a 7.529571
_cell_length_b 7.529571
_cell_length_c 32.907883
_cell_angle_alpha 90.000000
_cell_angle_beta 90.000000
_cell_angle_gamma 120.000000
_cell_volume 1615.738382
_symmetry_space_group_name_H-M "P 65 2 2"
_symmetry_group_IT_number 179
_symmetry_cell_setting 'hexagonal'
loop_
_space_group_symop_operation_xyz
x,y,z
x-y,x,5/6+z
-y,x-y,2/3+z
-x,-y,1/2+z
-x+y,-x,1/3+z
y,-x+y,1/6+z
x-y,-y,-z
-x,-x+y,1/3-z
y,x,2/3-z
-y,-x,1/6-z
-x+y,y,1/2-z
x,x-y,5/6-z
loop_
_atom_site_type_symbol
_atom_site_label
_atom_site_fract_x
_atom_site_fract_y
_atom_site_fract_z
Si Si1 0.779275 0.286354 0.009204
Si Si2 0.855574 0.372404 0.547473
Si Si3 0.267008 0.078710 0.564104
O O1 0.919278 0.506667 0.029284
O O2 0.722468 0.110217 0.042246
O O3 0.583972 0.275311 0.988147
O O4 0.898814 0.240228 0.972821
O O5 0.791698 0.208303 0.583334
O O6 0.833937 0.559438 0.567916
O O7 0.039351 0.960650 0.583334
#
# Coordination Sequence:
#
# PCOD9583593 Si02
#       3
#    12  12  12
#     4   9  16  29  50  69  92 124 157 191 231 273
#     4   9  17  30  47  70  93 120 155 191 229 274
#     4   8  15  29  48  67  91 126 159 187 227 279
#
# _framework density 22.280835
#
# number of rings (size 3 to 8) (size 9 to 14) (size 15 to 20)
#    0.000    3.333    0.000    0.000    0.000    0.000 
#    0.000   16.667    0.000   28.000    0.000    0.000 
#    0.000    0.000    0.000    0.000    0.000    0.000 
#
# Total GULP energy -200406.927260 kJ/mol
# GULP energy per Si atom -5566.859091 kJ/mol
# Density = 2.223012 g / cm^3
# Si number density = 22.280835 Si / 1000 Ang^3
#
#
#
# Elastic Constant Matrix: (Units=GPa)
#
#
# Indices 1 2 3 4 5 6 
#
# 1 58.7558 8.4855 6.6914 0.0000 0.0000 0.0000
# 2 8.4855 58.7558 6.6914 0.0000 0.0000 0.0000
# 3 6.6914 6.6914 72.4274 0.0000 0.0000 0.0000
# 4 0.0000 0.0000 0.0000 7.1159 0.0000 0.0000
# 5 0.0000 0.0000 0.0000 0.0000 7.1159 0.0000
# 6 0.0000 0.0000 0.0000 0.0000 0.0000 25.1352
#
#
#
# Elastic Compliance Matrix: (Units=1/GPa)
#
#
# Indices 1 2 3 4 5 6 
#
# 1 0.017521 -0.002371 -0.001400 0.000000 0.000000 0.000000
# 2 -0.002371 0.017521 -0.001400 0.000000 0.000000 0.000000
# 3 -0.001400 -0.001400 0.014066 0.000000 0.000000 0.000000
# 4 0.000000 0.000000 0.000000 0.140531 0.000000 0.000000
# 5 0.000000 0.000000 0.000000 0.000000 0.140531 0.000000
# 6 0.000000 0.000000 0.000000 0.000000 0.000000 0.039785
#
#
# Mechanical properties :
#
#
# Convention : Reuss Voigt Hill
#
# Bulk Modulus (GPa) = 25.79478 25.96394 25.87936
# Shear Modulus (GPa) = 12.71560 19.07811 15.89685
#
# Velocity S-wave (km/s) = 2.39152 2.92936 2.67400
# Velocity P-wave (km/s) = 4.38498 4.80831 4.60152
#
# Compressibility (1/GPa) = 0.03876753
#
# Stress axis : x y z
#
# Youngs Moduli (GPa) = 57.07302 57.07302 71.09562
#
# Poissons Ratio (x) = 0.13532 0.09951
# Poissons Ratio (y) = 0.13532 0.09951
# Poissons Ratio (z) = 0.07989 0.07989
#
# Static dielectric constant tensor:
#      x y z
#    x 1.855530 0.000000 0.000000 
#    y 0.000000 1.855530 0.000000 
#    z 0.000000 0.000000 1.886800 
# 
# From -- ./inp_files/9136.got.cif
#   From: 2010.05.17/outbox.cif.g08.bks.cpg/sg179_5_cif.got.tgz:9136.got - 2010.05.20 11:37:33.
