data_PCOD9583101
_publ_section_title
;
Structure prediction by ZEFSAII (Michael W. Deem and Ramdas Pophale) SiO2 
 PCOD9583101
Probable space group: P 65 2 2
;
_chemical_formula_sum "Si O2"
_cell_formula_units_Z 72
_cell_length_a 25.251319
_cell_length_b 25.251319
_cell_length_c 11.090123
_cell_angle_alpha 90.000000
_cell_angle_beta 90.000000
_cell_angle_gamma 120.000000
_cell_volume 6123.999286
_symmetry_space_group_name_H-M "P 65 2 2"
_symmetry_group_IT_number 179
_symmetry_cell_setting 'hexagonal'
loop_
_space_group_symop_operation_xyz
x,y,z
x-y,x,5/6+z
-y,x-y,2/3+z
-x,-y,1/2+z
-x+y,-x,1/3+z
y,-x+y,1/6+z
x-y,-y,-z
-x,-x+y,1/3-z
y,x,2/3-z
-y,-x,1/6-z
-x+y,y,1/2-z
x,x-y,5/6-z
loop_
_atom_site_type_symbol
_atom_site_label
_atom_site_fract_x
_atom_site_fract_y
_atom_site_fract_z
Si Si1 0.389192 0.646994 0.823452
Si Si2 0.070538 0.476772 0.665549
Si Si3 0.271534 0.550168 0.550320
Si Si4 0.493916 0.636136 0.576134
Si Si5 0.146949 0.508506 0.428172
Si Si6 0.616924 0.118234 0.002654
O O1 0.396986 0.698493 0.916667
O O2 0.394365 0.675588 0.693675
O O3 0.330168 0.582491 0.849390
O O4 0.445549 0.635052 0.832591
O O5 0.104820 0.476568 0.787953
O O6 0.104616 0.476429 0.543578
O O7 0.076599 0.543880 0.662093
O O8 0.000000 0.426059 0.666667
O O9 0.303611 0.512741 0.593049
O O10 0.213074 0.516946 0.461298
O O11 0.425766 0.574235 0.583334
O O12 0.527338 0.637735 0.702639
O O13 0.154759 0.577380 0.416667
O O14 0.116641 0.474552 0.302200
#
# Coordination Sequence:
#
# PCOD9583101 Si02
#       6
#    12  12  12  12  12  12
#     4  11  17  26  37  54  76  99 105 123 156 205
#     4  10  20  33  43  49  66  89 116 151 167 182
#     4  11  19  27  38  53  80  94 111 129 161 205
#     4   9  20  30  37  57  73  86 110 134 164 198
#     4  10  17  30  41  55  70  92 117 128 161 210
#     4   9  18  30  40  56  69  83 117 130 155 203
#
# _framework density 11.757023999999999
#
# number of rings (size 3 to 8) (size 9 to 14) (size 15 to 20)
#    0.000    2.000    5.000    1.000    0.000    9.333 
#    0.000    0.000    0.000    0.000    0.000    0.000 
#    0.000    0.000    0.000    0.000    0.000    0.000 
#
# Total GULP energy -401010.714212 kJ/mol
# GULP energy per Si atom -5569.593253 kJ/mol
# Density = 1.173026 g / cm^3
# Si number density = 11.757024 Si / 1000 Ang^3
#
#
#
# Elastic Constant Matrix: (Units=GPa)
#
#
# Indices 1 2 3 4 5 6 
#
# 1 25.9496 12.8654 23.6735 0.0000 0.0000 0.0000
# 2 12.8654 25.9496 23.6735 0.0000 0.0000 0.0000
# 3 23.6735 23.6735 120.7519 0.0000 0.0000 0.0000
# 4 0.0000 0.0000 0.0000 8.1106 0.0000 0.0000
# 5 0.0000 0.0000 0.0000 0.0000 8.1106 0.0000
# 6 0.0000 0.0000 0.0000 0.0000 0.0000 6.5421
#
#
#
# Elastic Compliance Matrix: (Units=1/GPa)
#
#
# Indices 1 2 3 4 5 6 
#
# 1 0.055144 -0.021284 -0.006638 0.000000 0.000000 0.000000
# 2 -0.021284 0.055144 -0.006638 0.000000 0.000000 0.000000
# 3 -0.006638 -0.006638 0.010884 0.000000 0.000000 0.000000
# 4 0.000000 0.000000 0.000000 0.123296 0.000000 0.000000
# 5 0.000000 0.000000 0.000000 0.000000 0.123296 0.000000
# 6 0.000000 0.000000 0.000000 0.000000 0.000000 0.152856
#
#
# Mechanical properties :
#
#
# Convention : Reuss Voigt Hill
#
# Bulk Modulus (GPa) = 19.21139 32.56397 25.88768
# Shear Modulus (GPa) = 8.23597 12.04856 10.14226
#
# Velocity S-wave (km/s) = 2.64960 3.20472 2.94029
# Velocity P-wave (km/s) = 5.07310 6.43826 5.79601
#
# Compressibility (1/GPa) = 0.05205245
#
# Stress axis : x y z
#
# Youngs Moduli (GPa) = 18.13418 18.13418 91.87464
#
# Poissons Ratio (x) = 0.38596 0.60991
# Poissons Ratio (y) = 0.38596 0.60991
# Poissons Ratio (z) = 0.12038 0.12038
#
# Static dielectric constant tensor:
#      x y z
#    x 1.373970 0.000000 0.000000 
#    y 0.000000 1.373970 0.000000 
#    z 0.000000 0.000000 1.493970 
# 
# From -- ./inp_files/5005.got.cif
#   From: 2010.05.17/outbox.cif.g08.bks.cpg/sg179_3_cif.got.tgz:5005.got - 2010.05.20 11:37:33.
