data_PCOD9583560
_publ_section_title
;
Structure prediction by ZEFSAII (Michael W. Deem and Ramdas Pophale) SiO2 
 PCOD9583560
Probable space group: P 65 2 2
;
_chemical_formula_sum "Si O2"
_cell_formula_units_Z 54
_cell_length_a 10.727141
_cell_length_b 10.727141
_cell_length_c 22.650190
_cell_angle_alpha 90.000000
_cell_angle_beta 90.000000
_cell_angle_gamma 120.000000
_cell_volume 2257.202171
_symmetry_space_group_name_H-M "P 65 2 2"
_symmetry_group_IT_number 179
_symmetry_cell_setting 'hexagonal'
loop_
_space_group_symop_operation_xyz
x,y,z
x-y,x,5/6+z
-y,x-y,2/3+z
-x,-y,1/2+z
-x+y,-x,1/3+z
y,-x+y,1/6+z
x-y,-y,-z
-x,-x+y,1/3-z
y,x,2/3-z
-y,-x,1/6-z
-x+y,y,1/2-z
x,x-y,5/6-z
loop_
_atom_site_type_symbol
_atom_site_label
_atom_site_fract_x
_atom_site_fract_y
_atom_site_fract_z
Si Si1 0.094844 0.334612 0.322532
Si Si2 0.542159 0.938045 0.057934
Si Si3 0.096675 0.703936 0.036756
Si Si4 0.970377 0.940754 0.750000
Si Si5 0.817454 0.134226 0.758022
O O1 0.240022 0.404049 0.361490
O O2 0.056227 0.175302 0.301336
O O3 0.067554 0.399275 0.262654
O O4 0.967972 0.313647 0.366346
O O5 0.411109 0.865818 0.102692
O O6 0.504027 0.000000 0.000000
O O7 0.166742 0.833259 0.083334
O O8 0.925794 0.642871 0.043142
O O9 0.150201 0.760586 0.971690
O O10 0.899556 0.042263 0.749227
#
# Coordination Sequence:
#
# PCOD9583560 Si02
#       5
#    12  12  12   6  12
#     4  12  23  44  79 111 145 191 257 330 384 450
#     4  12  24  45  69 103 148 197 247 300 385 473
#     4  12  27  44  67 101 153 200 244 306 395 470
#     4  12  20  38  80 116 136 168 250 350 394 424
#     4  12  23  43  72 113 142 180 250 338 397 441
#
# _framework density 23.923421999999999
#
# number of rings (size 3 to 8) (size 9 to 14) (size 15 to 20)
#    0.000    0.000    7.778    2.667    0.000    0.889 
#    8.000    0.000    0.000    0.000    0.000    0.000 
#    0.000    0.000    0.000    0.000    0.000    0.000 
#
# Total GULP energy -301584.678063 kJ/mol
# GULP energy per Si atom -5584.901446 kJ/mol
# Density = 2.386897 g / cm^3
# Si number density = 23.923422 Si / 1000 Ang^3
#
#
#
# Elastic Constant Matrix: (Units=GPa)
#
#
# Indices 1 2 3 4 5 6 
#
# 1 71.6118 16.7788 21.6189 0.0000 0.0000 0.0000
# 2 16.7788 71.6118 21.6189 0.0000 0.0000 0.0000
# 3 21.6189 21.6189 125.3905 0.0000 0.0000 0.0000
# 4 0.0000 0.0000 0.0000 35.9343 0.0000 0.0000
# 5 0.0000 0.0000 0.0000 0.0000 35.9343 0.0000
# 6 0.0000 0.0000 0.0000 0.0000 0.0000 27.4165
#
#
#
# Elastic Compliance Matrix: (Units=1/GPa)
#
#
# Indices 1 2 3 4 5 6 
#
# 1 0.015296 -0.002941 -0.002130 0.000000 0.000000 0.000000
# 2 -0.002941 0.015296 -0.002130 0.000000 0.000000 0.000000
# 3 -0.002130 -0.002130 0.008710 0.000000 0.000000 0.000000
# 4 0.000000 0.000000 0.000000 0.027829 0.000000 0.000000
# 5 0.000000 0.000000 0.000000 0.000000 0.027829 0.000000
# 6 0.000000 0.000000 0.000000 0.000000 0.000000 0.036474
#
#
# Mechanical properties :
#
#
# Convention : Reuss Voigt Hill
#
# Bulk Modulus (GPa) = 40.16125 43.18304 41.67214
# Shear Modulus (GPa) = 32.43878 33.76350 33.10114
#
# Velocity S-wave (km/s) = 3.68631 3.76082 3.72375
# Velocity P-wave (km/s) = 5.91120 6.07850 5.99543
#
# Compressibility (1/GPa) = 0.02489962
#
# Stress axis : x y z
#
# Youngs Moduli (GPa) = 65.37512 65.37512 114.81524
#
# Poissons Ratio (x) = 0.19226 0.24458
# Poissons Ratio (y) = 0.19226 0.24458
# Poissons Ratio (z) = 0.13926 0.13926
#
# Static dielectric constant tensor:
#      x y z
#    x 1.986460 0.000000 0.000000 
#    y 0.000000 1.986460 0.000000 
#    z 0.000000 0.000000 1.998990 
# 
# From -- ./inp_files/7439.got.cif
#   From: 2010.05.17/outbox.cif.g08.bks.cpg/sg179_4_cif.got.tgz:7439.got - 2010.05.20 11:37:33.
