data_PCOD9583198
_publ_section_title
;
Structure prediction by ZEFSAII (Michael W. Deem and Ramdas Pophale) SiO2 
 PCOD9583198
Probable space group: P 65 2 2
;
_chemical_formula_sum "Si O2"
_cell_formula_units_Z 66
_cell_length_a 18.183372
_cell_length_b 18.183372
_cell_length_c 13.533426
_cell_angle_alpha 90.000000
_cell_angle_beta 90.000000
_cell_angle_gamma 120.000000
_cell_volume 3875.138524
_symmetry_space_group_name_H-M "P 65 2 2"
_symmetry_group_IT_number 179
_symmetry_cell_setting 'hexagonal'
loop_
_space_group_symop_operation_xyz
x,y,z
x-y,x,5/6+z
-y,x-y,2/3+z
-x,-y,1/2+z
-x+y,-x,1/3+z
y,-x+y,1/6+z
x-y,-y,-z
-x,-x+y,1/3-z
y,x,2/3-z
-y,-x,1/6-z
-x+y,y,1/2-z
x,x-y,5/6-z
loop_
_atom_site_type_symbol
_atom_site_label
_atom_site_fract_x
_atom_site_fract_y
_atom_site_fract_z
Si Si1 0.755050 0.438483 0.651003
Si Si2 0.386583 0.445951 0.562446
Si Si3 0.074208 0.497909 0.245526
Si Si4 0.771647 0.543224 0.029171
Si Si5 0.952890 0.344183 0.766213
Si Si6 0.268683 0.731318 0.083334
O O1 0.698407 0.396814 0.750000
O O2 0.843159 0.500969 0.705594
O O3 0.725649 0.479915 0.565091
O O4 0.768816 0.369257 0.593750
O O5 0.455070 0.544931 0.583334
O O6 0.442283 0.411776 0.507644
O O7 0.302698 0.434188 0.510509
O O8 0.360029 0.391758 0.660934
O O9 0.086159 0.591910 0.257020
O O10 0.000000 0.454613 0.166667
O O11 0.871053 0.613376 0.032077
O O12 0.752265 0.509520 0.143801
O O13 0.000000 0.344510 0.666667
#
# Coordination Sequence:
#
# PCOD9583198 Si02
#       6
#    12  12  12  12  12   6
#     4  12  23  35  51  75 103 131 171 231 277 317
#     4  10  20  34  56  72 100 141 178 220 269 326
#     4  10  19  36  48  68  97 132 171 214 267 318
#     4  12  22  36  54  75  96 136 186 217 268 328
#     4  10  21  35  50  71 100 130 175 219 264 322
#     4  12  24  34  48  72 106 130 174 236 282 310
#
# _framework density 17.031648000000001
#
# number of rings (size 3 to 8) (size 9 to 14) (size 15 to 20)
#    0.000    1.091    3.636    4.909    2.545    0.000 
#    0.000    0.000    0.000    0.000    0.000    0.000 
#    0.000    0.000    0.000    0.000   48.364    0.000 
#
# Total GULP energy -367466.140009 kJ/mol
# GULP energy per Si atom -5567.668788 kJ/mol
# Density = 1.699288 g / cm^3
# Si number density = 17.031648 Si / 1000 Ang^3
#
#
#
# Elastic Constant Matrix: (Units=GPa)
#
#
# Indices 1 2 3 4 5 6 
#
# 1 37.4407 14.3014 0.2020 0.0000 0.0000 0.0000
# 2 14.3014 37.4407 0.2020 0.0000 0.0000 0.0000
# 3 0.2020 0.2020 73.6217 0.0000 0.0000 0.0000
# 4 0.0000 0.0000 0.0000 26.4894 0.0000 0.0000
# 5 0.0000 0.0000 0.0000 0.0000 26.4894 0.0000
# 6 0.0000 0.0000 0.0000 0.0000 0.0000 11.5697
#
#
#
# Elastic Compliance Matrix: (Units=1/GPa)
#
#
# Indices 1 2 3 4 5 6 
#
# 1 0.031272 -0.011945 -0.000053 0.000000 0.000000 0.000000
# 2 -0.011945 0.031272 -0.000053 0.000000 0.000000 0.000000
# 3 -0.000053 -0.000053 0.013583 0.000000 0.000000 0.000000
# 4 0.000000 0.000000 0.000000 0.037751 0.000000 0.000000
# 5 0.000000 0.000000 0.000000 0.000000 0.037751 0.000000
# 6 0.000000 0.000000 0.000000 0.000000 0.000000 0.086433
#
#
# Mechanical properties :
#
#
# Convention : Reuss Voigt Hill
#
# Bulk Modulus (GPa) = 19.22146 19.76822 19.49484
# Shear Modulus (GPa) = 17.88876 21.82953 19.85915
#
# Velocity S-wave (km/s) = 3.24439 3.58397 3.41840
# Velocity P-wave (km/s) = 5.03438 5.36269 5.20113
#
# Compressibility (1/GPa) = 0.05202517
#
# Stress axis : x y z
#
# Youngs Moduli (GPa) = 31.97772 31.97772 73.62016
#
# Poissons Ratio (x) = 0.38197 0.00390
# Poissons Ratio (y) = 0.38197 0.00390
# Poissons Ratio (z) = 0.00170 0.00170
#
# Static dielectric constant tensor:
#      x y z
#    x 1.646240 0.000000 0.000000 
#    y 0.000000 1.646240 0.000000 
#    z 0.000000 0.000000 1.245690 
# 
# From -- ./inp_files/6016.got.cif
#   From: 2010.05.17/outbox.cif.g08.bks.cpg/sg179_4_cif.got.tgz:6016.got - 2010.05.20 11:37:33.
