data_PCOD9583561
_publ_section_title
;
Structure prediction by ZEFSAII (Michael W. Deem and Ramdas Pophale) SiO2 
 PCOD9583561
Probable space group: P 65 2 2
;
_chemical_formula_sum "Si O2"
_cell_formula_units_Z 60
_cell_length_a 14.733927
_cell_length_b 14.733927
_cell_length_c 12.352869
_cell_angle_alpha 90.000000
_cell_angle_beta 90.000000
_cell_angle_gamma 120.000000
_cell_volume 2322.391830
_symmetry_space_group_name_H-M "P 65 2 2"
_symmetry_group_IT_number 179
_symmetry_cell_setting 'hexagonal'
loop_
_space_group_symop_operation_xyz
x,y,z
x-y,x,5/6+z
-y,x-y,2/3+z
-x,-y,1/2+z
-x+y,-x,1/3+z
y,-x+y,1/6+z
x-y,-y,-z
-x,-x+y,1/3-z
y,x,2/3-z
-y,-x,1/6-z
-x+y,y,1/2-z
x,x-y,5/6-z
loop_
_atom_site_type_symbol
_atom_site_label
_atom_site_fract_x
_atom_site_fract_y
_atom_site_fract_z
Si Si1 0.501105 0.002210 0.750000
Si Si2 0.000000 0.645402 0.166667
Si Si3 0.588550 0.886861 0.122569
Si Si4 0.868689 0.737378 0.250000
Si Si5 0.819321 0.964015 0.187529
Si Si6 0.252792 0.747209 0.583334
Si Si7 0.511554 0.340917 0.705553
O O1 0.482543 0.063778 0.655476
O O2 0.382956 0.924231 0.787474
O O3 0.059757 0.742019 0.081808
O O4 0.099504 0.632245 0.190131
O O5 0.711816 0.959526 0.148682
O O6 0.540108 0.781988 0.196168
O O7 0.564208 0.837207 0.002384
O O8 0.896056 0.788133 0.129244
O O9 0.844217 0.912313 0.081801
O O10 0.223785 0.635398 0.531288
#
# Coordination Sequence:
#
# PCOD9583561 Si02
#       7
#     6   6  12   6  12   6  12
#     4  12  25  46  79 116 160 227 278 333 404 498
#     4  12  24  40  70 116 156 208 276 332 412 494
#     4  12  25  48  79 117 168 218 274 332 419 504
#     4  12  20  40  75 115 158 206 260 344 408 492
#     4  12  25  47  80 118 152 207 275 354 425 505
#     4  12  27  48  74 113 172 221 264 351 414 500
#     4  12  25  47  70 117 162 212 275 329 405 501
#
# _framework density 25.835436000000001
#
# number of rings (size 3 to 8) (size 9 to 14) (size 15 to 20)
#    0.000    0.000    6.000    4.200    0.000    0.000 
#    3.600    0.000    0.000   10.800    0.000    0.000 
#    0.000    0.000    0.000    0.000    0.000    0.000 
#
# Total GULP energy -334215.111802 kJ/mol
# GULP energy per Si atom -5570.251863 kJ/mol
# Density = 2.577663 g / cm^3
# Si number density = 25.835436 Si / 1000 Ang^3
#
#
#
# Elastic Constant Matrix: (Units=GPa)
#
#
# Indices 1 2 3 4 5 6 
#
# 1 101.3855 49.5581 62.7331 0.0000 0.0000 0.0000
# 2 49.5581 101.3855 62.7331 0.0000 0.0000 0.0000
# 3 62.7331 62.7331 111.7502 0.0000 0.0000 0.0000
# 4 0.0000 0.0000 0.0000 44.9867 0.0000 0.0000
# 5 0.0000 0.0000 0.0000 0.0000 44.9867 0.0000
# 6 0.0000 0.0000 0.0000 0.0000 0.0000 25.9137
#
#
#
# Elastic Compliance Matrix: (Units=1/GPa)
#
#
# Indices 1 2 3 4 5 6 
#
# 1 0.015858 -0.003437 -0.006973 0.000000 0.000000 0.000000
# 2 -0.003437 0.015858 -0.006973 0.000000 0.000000 0.000000
# 3 -0.006973 -0.006973 0.016777 0.000000 0.000000 0.000000
# 4 0.000000 0.000000 0.000000 0.022229 0.000000 0.000000
# 5 0.000000 0.000000 0.000000 0.000000 0.022229 0.000000
# 6 0.000000 0.000000 0.000000 0.000000 0.000000 0.038590
#
#
# Mechanical properties :
#
#
# Convention : Reuss Voigt Hill
#
# Bulk Modulus (GPa) = 72.84414 73.84111 73.34262
# Shear Modulus (GPa) = 29.26027 32.47722 30.86875
#
# Velocity S-wave (km/s) = 3.36901 3.54938 3.46037
# Velocity P-wave (km/s) = 6.58713 6.74098 6.66450
#
# Compressibility (1/GPa) = 0.01372794
#
# Stress axis : x y z
#
# Youngs Moduli (GPa) = 63.06059 63.06059 59.60564
#
# Poissons Ratio (x) = 0.21674 0.41561
# Poissons Ratio (y) = 0.21674 0.41561
# Poissons Ratio (z) = 0.43970 0.43970
#
# Static dielectric constant tensor:
#      x y z
#    x 2.078500 0.000000 0.000000 
#    y 0.000000 2.078500 0.000000 
#    z 0.000000 0.000000 1.912320 
# 
# From -- ./inp_files/5893.got.cif
#   From: 2010.05.17/outbox.cif.g08.bks.cpg/sg179_3_cif.got.tgz:5893.got - 2010.05.20 11:37:33.
