data_PCOD9583883
_publ_section_title
;
Structure prediction by ZEFSAII (Michael W. Deem and Ramdas Pophale) SiO2 
 PCOD9583883
Probable space group: P 62 2 2
;
_chemical_formula_sum "Si O2"
_cell_formula_units_Z 54
_cell_length_a 11.690905
_cell_length_b 11.690905
_cell_length_c 20.944765
_cell_angle_alpha 90.000000
_cell_angle_beta 90.000000
_cell_angle_gamma 120.000000
_cell_volume 2479.147615
_symmetry_space_group_name_H-M "P 62 2 2"
_symmetry_group_IT_number 180
_symmetry_cell_setting 'hexagonal'
loop_
_space_group_symop_operation_xyz
x,y,z
x-y,x,1/3+z
-y,x-y,2/3+z
-x,-y,z
-x+y,-x,1/3+z
y,-x+y,2/3+z
x-y,-y,-z
-x,-x+y,1/3-z
y,x,2/3-z
-y,-x,2/3-z
-x+y,y,-z
x,x-y,1/3-z
loop_
_atom_site_type_symbol
_atom_site_label
_atom_site_fract_x
_atom_site_fract_y
_atom_site_fract_z
Si Si1 0.413407 0.591679 0.038348
Si Si2 0.662263 0.331132 0.166667
Si Si3 0.659622 0.803854 0.342455
Si Si4 0.637723 0.782773 0.851378
Si Si5 0.706131 0.761395 0.610183
O O1 0.417303 0.652083 0.108471
O O2 0.374338 0.436146 0.046248
O O3 0.282944 0.565887 0.000000
O O4 0.523645 0.718170 0.999699
O O5 0.755270 0.481447 0.189387
O O6 0.676111 0.676111 0.333334
O O7 0.701542 0.854844 0.414513
O O8 0.744024 0.912357 0.288850
O O9 0.666240 0.666240 0.833334
O O10 0.694733 0.884105 0.792514
O O11 0.715009 0.857505 0.666667
#
# Coordination Sequence:
#
# PCOD9583883 Si02
#       5
#    12   6  12  12  12
#     4  10  21  40  65  96 130 161 215 274 330 389
#     4  10  21  38  68 100 128 167 216 276 334 390
#     4  12  26  42  63  95 137 177 215 263 339 414
#     4  11  22  40  66  97 124 171 225 273 326 387
#     4  10  22  41  65  95 127 164 220 281 327 375
#
# _framework density 21.781679
#
# number of rings (size 3 to 8) (size 9 to 14) (size 15 to 20)
#    0.000    1.333    4.444    1.000    0.000    5.333 
#    0.000    3.333    0.000    0.000    0.000    0.000 
#    0.000    0.000    0.000    0.000    0.000    0.000 
#
# Total GULP energy -300684.596995 kJ/mol
# GULP energy per Si atom -5568.233278 kJ/mol
# Density = 2.173210 g / cm^3
# Si number density = 21.781679 Si / 1000 Ang^3
#
#
#
# Elastic Constant Matrix: (Units=GPa)
#
#
# Indices 1 2 3 4 5 6 
#
# 1 34.8546 21.0298 13.1317 0.0000 0.0000 0.0000
# 2 21.0298 34.8546 13.1317 0.0000 0.0000 0.0000
# 3 13.1317 13.1317 120.4220 0.0000 0.0000 0.0000
# 4 0.0000 0.0000 0.0000 13.6570 0.0000 0.0000
# 5 0.0000 0.0000 0.0000 0.0000 13.6570 0.0000
# 6 0.0000 0.0000 0.0000 0.0000 0.0000 6.9124
#
#
#
# Elastic Compliance Matrix: (Units=1/GPa)
#
#
# Indices 1 2 3 4 5 6 
#
# 1 0.045597 -0.026736 -0.002057 0.000000 0.000000 0.000000
# 2 -0.026736 0.045597 -0.002057 0.000000 0.000000 0.000000
# 3 -0.002057 -0.002057 0.008753 0.000000 0.000000 0.000000
# 4 0.000000 0.000000 0.000000 0.073223 0.000000 0.000000
# 5 0.000000 0.000000 0.000000 0.000000 0.073223 0.000000
# 6 0.000000 0.000000 0.000000 0.000000 0.000000 0.144667
#
#
# Mechanical properties :
#
#
# Convention : Reuss Voigt Hill
#
# Bulk Modulus (GPa) = 26.14573 31.63529 28.89051
# Shear Modulus (GPa) = 10.74097 16.36782 13.55440
#
# Velocity S-wave (km/s) = 2.22304 2.74423 2.49727
# Velocity P-wave (km/s) = 4.31495 4.95948 4.64840
#
# Compressibility (1/GPa) = 0.03824716
#
# Stress axis : x y z
#
# Youngs Moduli (GPa) = 21.93126 21.93126 114.25066
#
# Poissons Ratio (x) = 0.58636 0.23498
# Poissons Ratio (y) = 0.58636 0.23498
# Poissons Ratio (z) = 0.04511 0.04511
#
# Static dielectric constant tensor:
#      x y z
#    x 1.886210 0.000000 0.000000 
#    y 0.000000 1.886210 0.000000 
#    z 0.000000 0.000000 5.032680 
# 
# From -- ./inp_files/10076.got.cif
#   From: 2010.05.17/outbox.cif.g08.bks.cpg/sg180_6_cif.got.tgz:10076.got - 2010.05.20 11:43:55.
