data_PCOD9583832
_publ_section_title
;
Structure prediction by ZEFSAII (Michael W. Deem and Ramdas Pophale) SiO2 
 PCOD9583832
Probable space group: P 62 2 2
;
_chemical_formula_sum "Si O2"
_cell_formula_units_Z 39
_cell_length_a 8.483498
_cell_length_b 8.483498
_cell_length_c 27.589692
_cell_angle_alpha 90.000000
_cell_angle_beta 90.000000
_cell_angle_gamma 120.000000
_cell_volume 1719.599885
_symmetry_space_group_name_H-M "P 62 2 2"
_symmetry_group_IT_number 180
_symmetry_cell_setting 'hexagonal'
loop_
_space_group_symop_operation_xyz
x,y,z
x-y,x,1/3+z
-y,x-y,2/3+z
-x,-y,z
-x+y,-x,1/3+z
y,-x+y,2/3+z
x-y,-y,-z
-x,-x+y,1/3-z
y,x,2/3-z
-y,-x,2/3-z
-x+y,y,-z
x,x-y,1/3-z
loop_
_atom_site_type_symbol
_atom_site_label
_atom_site_fract_x
_atom_site_fract_y
_atom_site_fract_z
Si Si1 0.831156 0.829122 0.945622
Si Si2 0.500000 0.500000 0.833334
Si Si3 0.201508 0.538828 0.947254
Si Si4 0.829648 0.515997 0.773689
O O1 0.786066 0.632540 0.926909
O O2 0.662213 0.863180 0.936652
O O3 0.911221 0.822441 0.000000
O O4 0.000000 0.000000 0.920705
O O5 0.690858 0.545073 0.807261
O O6 0.316164 0.709349 0.914439
O O7 0.000000 0.500000 0.952010
O O8 0.289244 0.578487 0.000000
O O9 0.000000 0.500000 0.793997
#
# Coordination Sequence:
#
# PCOD9583832 Si02
#       4
#    12   3  12  12
#     4  10  20  40  68 108 148 178 228 304 387 468
#     4  12  28  56  70  98 160 196 290 328 356 454
#     4  11  21  38  69 107 149 186 229 304 392 465
#     4  12  26  48  75 103 142 205 251 316 387 458
#
# _framework density 22.679694000000001
#
# number of rings (size 3 to 8) (size 9 to 14) (size 15 to 20)
#    0.000    0.923    3.077    5.538    0.000    4.308 
#    5.538    0.000    0.000    0.000    0.000    0.000 
#    0.000    0.000    0.000    0.000    0.000    0.000 
#
# Total GULP energy -217130.892223 kJ/mol
# GULP energy per Si atom -5567.458775 kJ/mol
# Density = 2.262807 g / cm^3
# Si number density = 22.679694 Si / 1000 Ang^3
#
#
#
# Elastic Constant Matrix: (Units=GPa)
#
#
# Indices 1 2 3 4 5 6 
#
# 1 141.5726 31.6383 34.8081 0.0000 0.0000 0.0000
# 2 31.6383 141.5726 34.8081 0.0000 0.0000 0.0000
# 3 34.8081 34.8081 54.4867 0.0000 0.0000 0.0000
# 4 0.0000 0.0000 0.0000 17.0764 0.0000 0.0000
# 5 0.0000 0.0000 0.0000 0.0000 17.0764 0.0000
# 6 0.0000 0.0000 0.0000 0.0000 0.0000 54.9671
#
#
#
# Elastic Compliance Matrix: (Units=1/GPa)
#
#
# Indices 1 2 3 4 5 6 
#
# 1 0.008432 -0.000664 -0.004962 0.000000 0.000000 0.000000
# 2 -0.000664 0.008432 -0.004962 0.000000 0.000000 0.000000
# 3 -0.004962 -0.004962 0.024693 0.000000 0.000000 0.000000
# 4 0.000000 0.000000 0.000000 0.058560 0.000000 0.000000
# 5 0.000000 0.000000 0.000000 0.000000 0.058560 0.000000
# 6 0.000000 0.000000 0.000000 0.000000 0.000000 0.018193
#
#
# Mechanical properties :
#
#
# Convention : Reuss Voigt Hill
#
# Bulk Modulus (GPa) = 49.06885 60.01568 54.54227
# Shear Modulus (GPa) = 24.40908 33.58248 28.99578
#
# Velocity S-wave (km/s) = 3.28419 3.85220 3.57948
# Velocity P-wave (km/s) = 6.00531 6.80483 6.41753
#
# Compressibility (1/GPa) = 0.02037953
#
# Stress axis : x y z
#
# Youngs Moduli (GPa) = 118.59518 118.59518 40.49673
#
# Poissons Ratio (x) = 0.07878 0.20096
# Poissons Ratio (y) = 0.07878 0.20096
# Poissons Ratio (z) = 0.58851 0.58851
#
# Static dielectric constant tensor:
#      x y z
#    x 1.917560 0.000000 0.000000 
#    y 0.000000 1.917560 0.000000 
#    z 0.000000 0.000000 1.996240 
# 
# From -- ./inp_files/11878.got.cif
#   From: 2010.05.17/outbox.cif.g08.bks.cpg/sg180_6_cif.got.tgz:11878.got - 2010.05.20 11:43:55.
