data_PCOD9583592
_publ_section_title
;
Structure prediction by ZEFSAII (Michael W. Deem and Ramdas Pophale) SiO2 
 PCOD9583592
Probable space group: P 65 2 2
;
_chemical_formula_sum "Si O2"
_cell_formula_units_Z 18
_cell_length_a 12.387542
_cell_length_b 12.387542
_cell_length_c 4.925812
_cell_angle_alpha 90.000000
_cell_angle_beta 90.000000
_cell_angle_gamma 120.000000
_cell_volume 654.604135
_symmetry_space_group_name_H-M "P 65 2 2"
_symmetry_group_IT_number 179
_symmetry_cell_setting 'hexagonal'
loop_
_space_group_symop_operation_xyz
x,y,z
x-y,x,5/6+z
-y,x-y,2/3+z
-x,-y,1/2+z
-x+y,-x,1/3+z
y,-x+y,1/6+z
x-y,-y,-z
-x,-x+y,1/3-z
y,x,2/3-z
-y,-x,1/6-z
-x+y,y,1/2-z
x,x-y,5/6-z
loop_
_atom_site_type_symbol
_atom_site_label
_atom_site_fract_x
_atom_site_fract_y
_atom_site_fract_z
Si Si1 0.757680 0.757680 0.833334
Si Si2 0.453659 0.546342 0.083334
Si Si3 0.206003 0.412006 0.750000
O O1 0.667171 0.742241 0.577789
O O2 0.888812 0.777624 0.750000
O O3 0.474216 0.474216 0.333334
O O4 0.507194 0.686768 0.195716
#
# Coordination Sequence:
#
# PCOD9583592 Si02
#       3
#     6   6   6
#     4  12  28  54  98 144 192 244 314 402 494 582
#     4  12  32  64  97 138 194 257 326 396 482 586
#     4  12  32  62  99 142 196 257 328 400 490 582
#
# _framework density 27.497530999999999
#
# number of rings (size 3 to 8) (size 9 to 14) (size 15 to 20)
#    0.000    0.000    0.000    6.000   23.333    0.000 
#   12.000    0.000    0.000    0.000    0.000    0.000 
#    0.000    0.000    0.000    0.000    0.000    0.000 
#
# Total GULP energy -100634.547257 kJ/mol
# GULP energy per Si atom -5590.808181 kJ/mol
# Density = 2.743495 g / cm^3
# Si number density = 27.497531 Si / 1000 Ang^3
#
#
#
# Elastic Constant Matrix: (Units=GPa)
#
#
# Indices 1 2 3 4 5 6 
#
# 1 204.5063 95.7515 140.4387 0.0000 0.0000 0.0000
# 2 95.7515 204.5063 140.4387 0.0000 0.0000 0.0000
# 3 140.4387 140.4387 264.7846 0.0000 0.0000 0.0000
# 4 0.0000 0.0000 0.0000 93.2073 0.0000 0.0000
# 5 0.0000 0.0000 0.0000 0.0000 93.2073 0.0000
# 6 0.0000 0.0000 0.0000 0.0000 0.0000 54.3774
#
#
#
# Elastic Compliance Matrix: (Units=1/GPa)
#
#
# Indices 1 2 3 4 5 6 
#
# 1 0.007903 -0.001292 -0.003506 0.000000 0.000000 0.000000
# 2 -0.001292 0.007903 -0.003506 0.000000 0.000000 0.000000
# 3 -0.003506 -0.003506 0.007496 0.000000 0.000000 0.000000
# 4 0.000000 0.000000 0.000000 0.010729 0.000000 0.000000
# 5 0.000000 0.000000 0.000000 0.000000 0.010729 0.000000
# 6 0.000000 0.000000 0.000000 0.000000 0.000000 0.018390
#
#
# Mechanical properties :
#
#
# Convention : Reuss Voigt Hill
#
# Bulk Modulus (GPa) = 149.42835 158.56166 153.99501
# Shear Modulus (GPa) = 60.98481 67.96960 64.47721
#
# Velocity S-wave (km/s) = 4.71449 4.97716 4.84760
# Velocity P-wave (km/s) = 9.17037 9.52988 9.35185
#
# Compressibility (1/GPa) = 0.00669217
#
# Stress axis : x y z
#
# Youngs Moduli (GPa) = 126.54142 126.54142 133.41061
#
# Poissons Ratio (x) = 0.16355 0.46773
# Poissons Ratio (y) = 0.16355 0.46773
# Poissons Ratio (z) = 0.44364 0.44364
#
# Static dielectric constant tensor:
#      x y z
#    x 2.241060 0.000000 0.000000 
#    y 0.000000 2.241060 0.000000 
#    z 0.000000 0.000000 2.199820 
# 
# From -- ./inp_files/112.got.cif
#   From: 2010.05.17/outbox.cif.g08.bks.cpg/sg179_1_cif.got.tgz:112.got - 2010.05.20 11:37:33.
