data_PCOD9583110
_publ_section_title
;
Structure prediction by ZEFSAII (Michael W. Deem and Ramdas Pophale) SiO2 
 PCOD9583110
Probable space group: P 65 2 2
;
_chemical_formula_sum "Si O2"
_cell_formula_units_Z 60
_cell_length_a 12.318339
_cell_length_b 12.318339
_cell_length_c 21.897719
_cell_angle_alpha 90.000000
_cell_angle_beta 90.000000
_cell_angle_gamma 120.000000
_cell_volume 2877.622453
_symmetry_space_group_name_H-M "P 65 2 2"
_symmetry_group_IT_number 179
_symmetry_cell_setting 'hexagonal'
loop_
_space_group_symop_operation_xyz
x,y,z
x-y,x,5/6+z
-y,x-y,2/3+z
-x,-y,1/2+z
-x+y,-x,1/3+z
y,-x+y,1/6+z
x-y,-y,-z
-x,-x+y,1/3-z
y,x,2/3-z
-y,-x,1/6-z
-x+y,y,1/2-z
x,x-y,5/6-z
loop_
_atom_site_type_symbol
_atom_site_label
_atom_site_fract_x
_atom_site_fract_y
_atom_site_fract_z
Si Si1 0.875681 0.799784 0.125991
Si Si2 0.337468 0.731495 0.821461
Si Si3 0.466786 0.297859 0.979262
Si Si4 0.857575 0.688960 0.498942
Si Si5 0.457407 0.435115 0.514054
O O1 0.781559 0.662103 0.152865
O O2 0.787964 0.862998 0.118101
O O3 0.908786 0.762272 0.061288
O O4 0.000000 0.877535 0.166667
O O5 0.355971 0.711941 0.750000
O O6 0.272020 0.592058 0.848241
O O7 0.255536 0.801474 0.826294
O O8 0.472420 0.836186 0.842568
O O9 0.453447 0.226724 0.916667
O O10 0.502243 0.442156 0.972773
O O11 0.968780 0.658720 0.489256
O O12 0.507493 0.492508 0.583334
#
# Coordination Sequence:
#
# PCOD9583110 Si02
#       5
#    12  12  12  12  12
#     4  12  23  36  55  86 123 161 206 253 316 366
#     4   9  18  32  55  84 114 150 197 256 314 374
#     4  10  19  32  50  79 115 146 191 248 311 364
#     4  11  21  36  59  86 123 161 210 261 310 377
#     4  10  17  34  57  82 114 150 202 255 307 375
#
# _framework density 20.850546000000001
#
# number of rings (size 3 to 8) (size 9 to 14) (size 15 to 20)
#    0.000    1.600    4.000    3.000    0.000    0.000 
#    0.000    0.000    0.000    1.200    5.200    0.000 
#    0.000    0.000    0.000    0.000    0.000    0.000 
#
# Total GULP energy -334102.393300 kJ/mol
# GULP energy per Si atom -5568.373222 kJ/mol
# Density = 2.080309 g / cm^3
# Si number density = 20.850546 Si / 1000 Ang^3
#
#
#
# Elastic Constant Matrix: (Units=GPa)
#
#
# Indices 1 2 3 4 5 6 
#
# 1 103.3631 53.5247 1.3258 0.0000 0.0000 0.0000
# 2 53.5247 103.3631 1.3258 0.0000 0.0000 0.0000
# 3 1.3258 1.3258 19.3877 0.0000 0.0000 0.0000
# 4 0.0000 0.0000 0.0000 11.7709 0.0000 0.0000
# 5 0.0000 0.0000 0.0000 0.0000 11.7709 0.0000
# 6 0.0000 0.0000 0.0000 0.0000 0.0000 24.9192
#
#
#
# Elastic Compliance Matrix: (Units=1/GPa)
#
#
# Indices 1 2 3 4 5 6 
#
# 1 0.013223 -0.006842 -0.000436 0.000000 0.000000 0.000000
# 2 -0.006842 0.013223 -0.000436 0.000000 0.000000 0.000000
# 3 -0.000436 -0.000436 0.051639 0.000000 0.000000 0.000000
# 4 0.000000 0.000000 0.000000 0.084955 0.000000 0.000000
# 5 0.000000 0.000000 0.000000 0.000000 0.084955 0.000000
# 6 0.000000 0.000000 0.000000 0.000000 0.000000 0.040130
#
#
# Mechanical properties :
#
#
# Convention : Reuss Voigt Hill
#
# Bulk Modulus (GPa) = 15.96019 37.60738 26.78379
# Shear Modulus (GPa) = 15.41119 21.02137 18.21628
#
# Velocity S-wave (km/s) = 2.72164 3.17865 2.95898
# Velocity P-wave (km/s) = 4.18899 5.61672 4.95455
#
# Compressibility (1/GPa) = 0.06265589
#
# Stress axis : x y z
#
# Youngs Moduli (GPa) = 75.62518 75.62518 19.36534
#
# Poissons Ratio (x) = 0.51741 0.00845
# Poissons Ratio (y) = 0.51741 0.00845
# Poissons Ratio (z) = 0.03300 0.03300
#
# Static dielectric constant tensor:
#      x y z
#    x 1.817390 0.000000 0.000000 
#    y 0.000000 1.817390 0.000000 
#    z 0.000000 0.000000 1.844020 
# 
# From -- ./inp_files/8838.got.cif
#   From: 2010.05.17/outbox.cif.g08.bks.cpg/sg179_5_cif.got.tgz:8838.got - 2010.05.20 11:37:33.
