data_PCOD9583993
_publ_section_title
;
Structure prediction by ZEFSAII (Michael W. Deem and Ramdas Pophale) SiO2 
 PCOD9583993
Probable space group: P 62 2 2
;
_chemical_formula_sum "Si O2"
_cell_formula_units_Z 39
_cell_length_a 8.100688
_cell_length_b 8.100688
_cell_length_c 30.915235
_cell_angle_alpha 90.000000
_cell_angle_beta 90.000000
_cell_angle_gamma 120.000000
_cell_volume 1756.899806
_symmetry_space_group_name_H-M "P 62 2 2"
_symmetry_group_IT_number 180
_symmetry_cell_setting 'hexagonal'
loop_
_space_group_symop_operation_xyz
x,y,z
x-y,x,1/3+z
-y,x-y,2/3+z
-x,-y,z
-x+y,-x,1/3+z
y,-x+y,2/3+z
x-y,-y,-z
-x,-x+y,1/3-z
y,x,2/3-z
-y,-x,2/3-z
-x+y,y,-z
x,x-y,1/3-z
loop_
_atom_site_type_symbol
_atom_site_label
_atom_site_fract_x
_atom_site_fract_y
_atom_site_fract_z
Si Si1 0.724919 0.914165 0.755349
Si Si2 0.299836 0.751208 0.725763
Si Si3 0.000000 0.000000 0.833334
Si Si4 0.189322 0.357998 0.694901
O O1 0.497617 0.816268 0.750378
O O2 0.773552 0.791859 0.720965
O O3 0.798784 0.137115 0.745980
O O4 0.820654 0.927995 0.801048
O O5 0.192213 0.522685 0.724685
O O6 0.329588 0.834635 0.676620
O O7 0.000000 0.245489 0.666667
#
# Coordination Sequence:
#
# PCOD9583993 Si02
#       4
#    12  12   3  12
#     4  11  25  45  68 102 150 198 246 302 367 454
#     4  10  23  41  73 109 142 185 243 315 382 435
#     4  12  28  52  64  96 154 212 250 282 368 462
#     4  11  23  41  74 114 150 181 238 316 391 449
#
# _framework density 22.198191000000001
#
# number of rings (size 3 to 8) (size 9 to 14) (size 15 to 20)
#    0.000    1.231    0.000    5.538   17.231    2.462 
#   11.077    1.538    0.000    0.000    0.000    0.000 
#    0.000    0.000    0.000    0.000    0.000    0.000 
#
# Total GULP energy -217199.903336 kJ/mol
# GULP energy per Si atom -5569.228291 kJ/mol
# Density = 2.214767 g / cm^3
# Si number density = 22.198191 Si / 1000 Ang^3
#
#
#
# Elastic Constant Matrix: (Units=GPa)
#
#
# Indices 1 2 3 4 5 6 
#
# 1 162.2611 74.8033 73.1446 0.0000 0.0000 0.0000
# 2 74.8033 162.2611 73.1446 0.0000 0.0000 0.0000
# 3 73.1446 73.1446 140.9193 0.0000 0.0000 0.0000
# 4 0.0000 0.0000 0.0000 37.8148 0.0000 0.0000
# 5 0.0000 0.0000 0.0000 0.0000 37.8148 0.0000
# 6 0.0000 0.0000 0.0000 0.0000 0.0000 43.7289
#
#
#
# Elastic Compliance Matrix: (Units=1/GPa)
#
#
# Indices 1 2 3 4 5 6 
#
# 1 0.008820 -0.002614 -0.003221 0.000000 0.000000 0.000000
# 2 -0.002614 0.008820 -0.003221 0.000000 0.000000 0.000000
# 3 -0.003221 -0.003221 0.010440 0.000000 0.000000 0.000000
# 4 0.000000 0.000000 0.000000 0.026445 0.000000 0.000000
# 5 0.000000 0.000000 0.000000 0.000000 0.026445 0.000000
# 6 0.000000 0.000000 0.000000 0.000000 0.000000 0.022868
#
#
# Mechanical properties :
#
#
# Convention : Reuss Voigt Hill
#
# Bulk Modulus (GPa) = 100.32796 100.84739 100.58767
# Shear Modulus (GPa) = 39.91267 40.16164 40.03716
#
# Velocity S-wave (km/s) = 4.24490 4.25812 4.25152
# Velocity P-wave (km/s) = 8.32587 8.34892 8.33741
#
# Compressibility (1/GPa) = 0.00996731
#
# Stress axis : x y z
#
# Youngs Moduli (GPa) = 113.37764 113.37764 95.78282
#
# Poissons Ratio (x) = 0.29637 0.30854
# Poissons Ratio (y) = 0.29637 0.30854
# Poissons Ratio (z) = 0.36522 0.36522
#
# Static dielectric constant tensor:
#      x y z
#    x 1.893640 0.000000 0.000000 
#    y 0.000000 1.893640 0.000000 
#    z 0.000000 0.000000 1.850780 
# 
# From -- ./inp_files/11822.got.cif
#   From: 2010.05.17/outbox.cif.g08.bks.cpg/sg180_6_cif.got.tgz:11822.got - 2010.05.20 11:43:55.
