data_PCOD9583038
_publ_section_title
;
Structure prediction by ZEFSAII (Michael W. Deem and Ramdas Pophale) SiO2 
 PCOD9583038
Probable space group: P 61 2 2
;
_chemical_formula_sum "Si O2"
_cell_formula_units_Z 54
_cell_length_a 11.474280
_cell_length_b 11.474280
_cell_length_c 20.616623
_cell_angle_alpha 90.000000
_cell_angle_beta 90.000000
_cell_angle_gamma 120.000000
_cell_volume 2350.709964
_symmetry_space_group_name_H-M "P 61 2 2"
_symmetry_group_IT_number 178
_symmetry_cell_setting 'hexagonal'
loop_
_space_group_symop_operation_xyz
x,y,z
x-y,x,1/6+z
-y,x-y,1/3+z
-x,-y,1/2+z
-x+y,-x,2/3+z
y,-x+y,5/6+z
x-y,-y,-z
-x,-x+y,2/3-z
y,x,1/3-z
-y,-x,5/6-z
-x+y,y,1/2-z
x,x-y,1/6-z
loop_
_atom_site_type_symbol
_atom_site_label
_atom_site_fract_x
_atom_site_fract_y
_atom_site_fract_z
Si Si1 0.666203 0.332406 0.750000
Si Si2 0.856277 0.496609 0.867685
Si Si3 0.081553 0.682689 0.084449
Si Si4 0.182247 0.832908 0.618278
Si Si5 0.462800 0.231400 0.583334
Si Si6 0.000000 0.238713 0.833334
O O1 0.742908 0.419836 0.812732
O O2 0.506177 0.252749 0.762393
O O3 0.815195 0.597574 0.897115
O O4 0.830858 0.390945 0.925710
O O5 0.000000 0.558522 0.833334
O O6 0.088788 0.544394 0.083334
O O7 0.070119 0.720210 0.158854
O O8 0.966711 0.675747 0.038156
O O9 0.164554 0.931783 0.567331
O O10 0.371116 0.240150 0.638941
#
# Coordination Sequence:
#
# PCOD9583038 Si02
#       6
#     6  12  12  12   6   6
#     4  12  22  41  72 109 144 196 240 306 374 450
#     4  12  26  44  74 108 154 198 247 313 385 449
#     4  12  27  47  75 109 155 195 253 316 382 450
#     4  12  26  46  73 110 149 198 252 313 376 453
#     4  12  20  43  70 113 136 194 236 306 370 440
#     4  12  26  42  78 106 154 192 248 304 374 444
#
# _framework density 22.971782000000001
#
# number of rings (size 3 to 8) (size 9 to 14) (size 15 to 20)
#    0.000    0.000    7.778    1.333    3.111    1.778 
#    0.000    0.000   14.667    0.000    0.000    0.000 
#    0.000    0.000    0.000    0.000    0.000    0.000 
#
# Total GULP energy -300736.636422 kJ/mol
# GULP energy per Si atom -5569.196971 kJ/mol
# Density = 2.291950 g / cm^3
# Si number density = 22.971782 Si / 1000 Ang^3
#
#
#
# Elastic Constant Matrix: (Units=GPa)
#
#
# Indices 1 2 3 4 5 6 
#
# 1 95.0842 44.1856 22.7882 0.0000 0.0000 0.0000
# 2 44.1856 95.0842 22.7882 0.0000 0.0000 0.0000
# 3 22.7882 22.7882 52.1247 0.0000 0.0000 0.0000
# 4 0.0000 0.0000 0.0000 33.4996 0.0000 0.0000
# 5 0.0000 0.0000 0.0000 0.0000 33.4996 0.0000
# 6 0.0000 0.0000 0.0000 0.0000 0.0000 25.4493
#
#
#
# Elastic Compliance Matrix: (Units=1/GPa)
#
#
# Indices 1 2 3 4 5 6 
#
# 1 0.014013 -0.005634 -0.003663 0.000000 0.000000 0.000000
# 2 -0.005634 0.014013 -0.003663 0.000000 0.000000 0.000000
# 3 -0.003663 -0.003663 0.022388 0.000000 0.000000 0.000000
# 4 0.000000 0.000000 0.000000 0.029851 0.000000 0.000000
# 5 0.000000 0.000000 0.000000 0.000000 0.029851 0.000000
# 6 0.000000 0.000000 0.000000 0.000000 0.000000 0.039294
#
#
# Mechanical properties :
#
#
# Convention : Reuss Voigt Hill
#
# Bulk Modulus (GPa) = 40.82786 46.86858 43.84822
# Shear Modulus (GPa) = 27.24871 28.65843 27.95357
#
# Velocity S-wave (km/s) = 3.44784 3.53590 3.49214
# Velocity P-wave (km/s) = 5.80187 6.09238 5.94890
#
# Compressibility (1/GPa) = 0.02449308
#
# Stress axis : x y z
#
# Youngs Moduli (GPa) = 71.36228 71.36228 44.66725
#
# Poissons Ratio (x) = 0.40205 0.16363
# Poissons Ratio (y) = 0.40205 0.16363
# Poissons Ratio (z) = 0.26142 0.26142
#
# Static dielectric constant tensor:
#      x y z
#    x 1.870060 0.000000 0.000000 
#    y 0.000000 1.870060 0.000000 
#    z 0.000000 0.000000 2.049250 
# 
# From -- ./inp_files/7451.got.cif
#   From: 2010.05.17/outbox.cif.g08.bks.cpg/sg178_4_cif.got.tgz:7451.got - 2010.05.20 11:30:59.
