data_PCOD9583199
_publ_section_title
;
Structure prediction by ZEFSAII (Michael W. Deem and Ramdas Pophale) SiO2 
 PCOD9583199
Probable space group: P 65 2 2
;
_chemical_formula_sum "Si O2"
_cell_formula_units_Z 96
_cell_length_a 17.910352
_cell_length_b 17.910352
_cell_length_c 21.413618
_cell_angle_alpha 90.000000
_cell_angle_beta 90.000000
_cell_angle_gamma 120.000000
_cell_volume 5948.793935
_symmetry_space_group_name_H-M "P 65 2 2"
_symmetry_group_IT_number 179
_symmetry_cell_setting 'hexagonal'
loop_
_space_group_symop_operation_xyz
x,y,z
x-y,x,5/6+z
-y,x-y,2/3+z
-x,-y,1/2+z
-x+y,-x,1/3+z
y,-x+y,1/6+z
x-y,-y,-z
-x,-x+y,1/3-z
y,x,2/3-z
-y,-x,1/6-z
-x+y,y,1/2-z
x,x-y,5/6-z
loop_
_atom_site_type_symbol
_atom_site_label
_atom_site_fract_x
_atom_site_fract_y
_atom_site_fract_z
Si Si1 0.694811 0.158330 0.045583
Si Si2 0.029825 0.431384 0.546610
Si Si3 0.441391 0.304708 0.912911
Si Si4 0.543794 0.349715 0.784525
Si Si5 0.190465 0.714392 0.768901
Si Si6 0.105353 0.464722 0.418022
Si Si7 0.408279 0.404807 0.456096
Si Si8 0.577702 0.198632 0.812313
O O1 0.781799 0.218202 0.083334
O O2 0.625248 0.185034 0.067161
O O3 0.656128 0.059691 0.066027
O O4 0.697699 0.174173 0.971905
O O5 0.126405 0.470086 0.572694
O O6 0.036190 0.421652 0.473142
O O7 0.000228 0.503502 0.556302
O O8 0.965250 0.345853 0.584219
O O9 0.405424 0.202712 0.916667
O O10 0.505952 0.343372 0.854190
O O11 0.496888 0.343481 0.975581
O O12 0.571102 0.278039 0.783608
O O13 0.266629 0.813363 0.768542
O O14 0.222525 0.658805 0.809251
O O15 0.092269 0.673383 0.794669
O O16 0.132860 0.566430 0.416667
O O17 0.060586 0.426094 0.351760
O O18 0.572933 0.145865 0.750000
#
# Coordination Sequence:
#
# PCOD9583199 Si02
#       8
#    12  12  12  12  12  12  12  12
#     4  11  20  33  52  73 102 137 177 219 263 317
#     4  10  19  36  50  70 101 138 174 222 274 314
#     4  10  20  32  50  70  94 129 172 221 266 314
#     4  10  20  33  47  70  94 135 176 216 270 307
#     4  12  22  34  55  75 104 142 182 224 271 308
#     4  10  23  35  53  76 106 141 182 227 268 314
#     4  10  21  36  52  73 105 140 176 220 268 323
#     4  11  22  31  47  74 100 129 175 228 263 305
#
# _framework density 16.137723999999999
#
# number of rings (size 3 to 8) (size 9 to 14) (size 15 to 20)
#    0.000    1.500    3.750    1.875    3.500    2.000 
#    0.000    0.000    0.000    0.000    0.000    0.000 
#    0.000    0.000    0.000    3.375    0.250    0.000 
#
# Total GULP energy -534798.877784 kJ/mol
# GULP energy per Si atom -5570.821644 kJ/mol
# Density = 1.610099 g / cm^3
# Si number density = 16.137724 Si / 1000 Ang^3
#
#
#
# Elastic Constant Matrix: (Units=GPa)
#
#
# Indices 1 2 3 4 5 6 
#
# 1 70.3234 34.2746 18.5586 0.0000 0.0000 0.0000
# 2 34.2746 70.3234 18.5586 0.0000 0.0000 0.0000
# 3 18.5586 18.5586 93.7712 0.0000 0.0000 0.0000
# 4 0.0000 0.0000 0.0000 17.4521 0.0000 0.0000
# 5 0.0000 0.0000 0.0000 0.0000 17.4521 0.0000
# 6 0.0000 0.0000 0.0000 0.0000 0.0000 18.0244
#
#
#
# Elastic Compliance Matrix: (Units=1/GPa)
#
#
# Indices 1 2 3 4 5 6 
#
# 1 0.019011 -0.008729 -0.002035 0.000000 0.000000 0.000000
# 2 -0.008729 0.019011 -0.002035 0.000000 0.000000 0.000000
# 3 -0.002035 -0.002035 0.011470 0.000000 0.000000 0.000000
# 4 0.000000 0.000000 0.000000 0.057300 0.000000 0.000000
# 5 0.000000 0.000000 0.000000 0.000000 0.057300 0.000000
# 6 0.000000 0.000000 0.000000 0.000000 0.000000 0.055480
#
#
# Mechanical properties :
#
#
# Convention : Reuss Voigt Hill
#
# Bulk Modulus (GPa) = 41.85032 41.91129 41.88080
# Shear Modulus (GPa) = 19.75229 21.45412 20.60320
#
# Velocity S-wave (km/s) = 3.50234 3.65010 3.57699
# Velocity P-wave (km/s) = 6.50728 6.61753 6.56264
#
# Compressibility (1/GPa) = 0.02389468
#
# Stress axis : x y z
#
# Youngs Moduli (GPa) = 52.60013 52.60013 87.18554
#
# Poissons Ratio (x) = 0.45914 0.17743
# Poissons Ratio (y) = 0.45914 0.17743
# Poissons Ratio (z) = 0.10704 0.10704
#
# Static dielectric constant tensor:
#      x y z
#    x 1.569800 0.000000 0.000000 
#    y 0.000000 1.569800 0.000000 
#    z 0.000000 0.000000 1.593030 
# 
# From -- ./inp_files/7790.got.cif
#   From: 2010.05.17/outbox.cif.g08.bks.cpg/sg179_4_cif.got.tgz:7790.got - 2010.05.20 11:37:33.
