data_PCOD9583096
_publ_section_title
;
Structure prediction by ZEFSAII (Michael W. Deem and Ramdas Pophale) SiO2 
 PCOD9583096
Probable space group: P 65 2 2
;
_chemical_formula_sum "Si O2"
_cell_formula_units_Z 48
_cell_length_a 25.934507
_cell_length_b 25.934507
_cell_length_c 5.050270
_cell_angle_alpha 90.000000
_cell_angle_beta 90.000000
_cell_angle_gamma 120.000000
_cell_volume 2941.719249
_symmetry_space_group_name_H-M "P 65 2 2"
_symmetry_group_IT_number 179
_symmetry_cell_setting 'hexagonal'
loop_
_space_group_symop_operation_xyz
x,y,z
x-y,x,5/6+z
-y,x-y,2/3+z
-x,-y,1/2+z
-x+y,-x,1/3+z
y,-x+y,1/6+z
x-y,-y,-z
-x,-x+y,1/3-z
y,x,2/3-z
-y,-x,1/6-z
-x+y,y,1/2-z
x,x-y,5/6-z
loop_
_atom_site_type_symbol
_atom_site_label
_atom_site_fract_x
_atom_site_fract_y
_atom_site_fract_z
Si Si1 0.757234 0.128719 0.474944
Si Si2 0.317854 0.565444 0.494625
Si Si3 0.870072 0.315885 0.195701
Si Si4 0.617386 0.617386 0.833334
Si Si5 0.692852 0.000000 0.500000
O O1 0.819681 0.180320 0.583334
O O2 0.732998 0.138225 0.194178
O O3 0.752063 0.063876 0.480714
O O4 0.710319 0.126734 0.688143
O O5 0.381063 0.618938 0.583334
O O6 0.293115 0.586230 0.250000
O O7 0.323473 0.510534 0.380298
O O8 0.273887 0.547774 0.750000
O O9 0.934575 0.375660 0.153097
O O10 0.654769 0.655782 0.583976
#
# Coordination Sequence:
#
# PCOD9583096 Si02
#       5
#    12  12  12   6   6
#     4  10  17  28  46  69  93 119 151 185 219 265
#     4  12  24  38  54  72  93 119 151 189 229 268
#     4  10  19  32  51  72  91 116 147 182 223 271
#     4   8  16  30  48  69  94 114 138 179 222 266
#     4   8  16  26  40  65  94 120 146 179 222 260
#
# _framework density 16.316987999999998
#
# number of rings (size 3 to 8) (size 9 to 14) (size 15 to 20)
#    0.000    2.000    0.000    6.000    0.000    0.000 
#    0.000    0.000    0.000   12.000    0.000    0.000 
#    0.000    0.000    0.000    0.000    0.000   15.000 
#
# Total GULP energy -267246.007585 kJ/mol
# GULP energy per Si atom -5567.625158 kJ/mol
# Density = 1.627985 g / cm^3
# Si number density = 16.316988 Si / 1000 Ang^3
#
#
#
# Elastic Constant Matrix: (Units=GPa)
#
#
# Indices 1 2 3 4 5 6 
#
# 1 64.8607 70.1985 -2.2887 0.0000 0.0000 0.0000
# 2 70.1985 64.8607 -2.2887 0.0000 0.0000 0.0000
# 3 -2.2887 -2.2887 86.2826 0.0000 0.0000 0.0000
# 4 0.0000 0.0000 0.0000 19.0622 0.0000 0.0000
# 5 0.0000 0.0000 0.0000 0.0000 19.0622 0.0000
# 6 0.0000 0.0000 0.0000 0.0000 0.0000 -2.6689
#
#
#
# Elastic Compliance Matrix: (Units=1/GPa)
#
#
# Indices 1 2 3 4 5 6 
#
# 1 -0.089965 0.097376 0.000197 0.000000 0.000000 0.000000
# 2 0.097376 -0.089965 0.000197 0.000000 0.000000 0.000000
# 3 0.000197 0.000197 0.011600 0.000000 0.000000 0.000000
# 4 0.000000 0.000000 0.000000 0.052460 0.000000 0.000000
# 5 0.000000 0.000000 0.000000 0.000000 0.052460 0.000000
# 6 0.000000 0.000000 0.000000 0.000000 0.000000 -0.374681
#
#
# Mechanical properties :
#
#
# Convention : Reuss Voigt Hill
#
# Bulk Modulus (GPa) = 36.75362 38.58291 37.66826
# Shear Modulus (GPa) = -8.00564 17.11662 4.55549
#
# Velocity S-wave (km/s) = -2.21742 3.24235 1.67270
# Velocity P-wave (km/s) = 4.00221 6.14120 5.18324
#
# Compressibility (1/GPa) = 0.02720820
#
# Stress axis : x y z
#
# Youngs Moduli (GPa) = -11.11544 -11.11544 86.20508
#
# Poissons Ratio (x) = 1.08237 -0.01695
# Poissons Ratio (y) = 1.08237 -0.01695
# Poissons Ratio (z) = 0.00219 0.00219
#
# Static dielectric constant tensor:
#      x y z
#    x 1.596720 0.000000 0.000000 
#    y 0.000000 1.596720 0.000000 
#    z 0.000000 0.000000 1.557400 
# 
# From -- ./inp_files/1111.got.cif
#   From: 2010.05.17/outbox.cif.g08.bks.cpg/sg179_1_cif.got.tgz:1111.got - 2010.05.20 11:37:33.
