data_PCOD9583982
_publ_section_title
;
Structure prediction by ZEFSAII (Michael W. Deem and Ramdas Pophale) SiO2 
 PCOD9583982
Probable space group: P 62 2 2
;
_chemical_formula_sum "Si O2"
_cell_formula_units_Z 48
_cell_length_a 10.635808
_cell_length_b 10.635808
_cell_length_c 20.943442
_cell_angle_alpha 90.000000
_cell_angle_beta 90.000000
_cell_angle_gamma 120.000000
_cell_volume 2051.727444
_symmetry_space_group_name_H-M "P 62 2 2"
_symmetry_group_IT_number 180
_symmetry_cell_setting 'hexagonal'
loop_
_space_group_symop_operation_xyz
x,y,z
x-y,x,1/3+z
-y,x-y,2/3+z
-x,-y,z
-x+y,-x,1/3+z
y,-x+y,2/3+z
x-y,-y,-z
-x,-x+y,1/3-z
y,x,2/3-z
-y,-x,2/3-z
-x+y,y,-z
x,x-y,1/3-z
loop_
_atom_site_type_symbol
_atom_site_label
_atom_site_fract_x
_atom_site_fract_y
_atom_site_fract_z
Si Si1 0.000000 0.500000 0.767343
Si Si2 0.263198 0.736803 0.833334
Si Si3 0.000000 0.692879 0.666667
Si Si4 0.500000 0.500000 0.833334
Si Si5 0.000000 0.000000 0.833334
Si Si6 0.253843 0.748462 0.409063
Si Si7 0.205408 0.005452 0.725563
O O1 0.899526 0.359054 0.809287
O O2 0.927098 0.565076 0.719301
O O3 0.352884 0.726964 0.774916
O O4 0.879221 0.719795 0.632640
O O5 0.471401 0.366144 0.784127
O O6 0.126956 0.025231 0.786113
O O7 0.265798 0.734203 0.333334
O O8 0.088831 0.716541 0.412309
O O9 0.195173 0.097587 0.666667
#
# Coordination Sequence:
#
# PCOD9583982 Si02
#       7
#     6   6   6   3   3  12  12
#     4  11  30  49  74 107 152 209 262 338 402 487
#     4  11  28  50  72 112 139 200 280 320 418 500
#     4  11  25  48  72 102 161 199 258 318 402 481
#     4  10  22  50  72 118 164 200 266 332 408 516
#     4  12  20  34  68 110 148 188 254 316 384 454
#     4  10  25  44  75 107 153 204 255 329 411 486
#     4  11  23  43  69 115 145 196 251 319 396 467
#
# _framework density 23.394919999999999
#
# number of rings (size 3 to 8) (size 9 to 14) (size 15 to 20)
#    0.000    1.250    2.500    0.750   10.500    9.000 
#    0.000    0.000    0.000    0.000    0.000    0.000 
#    0.000    0.000    0.000    0.000    0.000    0.000 
#
# Total GULP energy -267685.560111 kJ/mol
# GULP energy per Si atom -5576.782502 kJ/mol
# Density = 2.334167 g / cm^3
# Si number density = 23.394920 Si / 1000 Ang^3
#
#
#
# Elastic Constant Matrix: (Units=GPa)
#
#
# Indices 1 2 3 4 5 6 
#
# 1 77.0338 44.0841 64.5748 0.0000 0.0000 0.0000
# 2 44.0841 77.0338 64.5748 0.0000 0.0000 0.0000
# 3 64.5748 64.5748 191.7485 0.0000 0.0000 0.0000
# 4 0.0000 0.0000 0.0000 -97.3951 0.0000 0.0000
# 5 0.0000 0.0000 0.0000 0.0000 -97.3951 0.0000
# 6 0.0000 0.0000 0.0000 0.0000 0.0000 16.4749
#
#
#
# Elastic Compliance Matrix: (Units=1/GPa)
#
#
# Indices 1 2 3 4 5 6 
#
# 1 0.021616 -0.008733 -0.004338 0.000000 0.000000 0.000000
# 2 -0.008733 0.021616 -0.004338 0.000000 0.000000 0.000000
# 3 -0.004338 -0.004338 0.008137 0.000000 0.000000 0.000000
# 4 0.000000 0.000000 0.000000 -0.010267 0.000000 0.000000
# 5 0.000000 0.000000 0.000000 0.000000 -0.010267 0.000000
# 6 0.000000 0.000000 0.000000 0.000000 0.000000 0.060699
#
#
# Mechanical properties :
#
#
# Convention : Reuss Voigt Hill
#
# Bulk Modulus (GPa) = 60.42796 76.92038 68.67417
# Shear Modulus (GPa) = 37.91630 -24.15757 6.87937
#
# Velocity S-wave (km/s) = 4.03017 -3.21689 1.71666
# Velocity P-wave (km/s) = 6.89507 4.37637 5.77471
#
# Compressibility (1/GPa) = 0.01654863
#
# Stress axis : x y z
#
# Youngs Moduli (GPa) = 46.26220 46.26220 122.89149
#
# Poissons Ratio (x) = 0.40402 0.53316
# Poissons Ratio (y) = 0.40402 0.53316
# Poissons Ratio (z) = 0.20071 0.20071
#
# Static dielectric constant tensor:
#      x y z
#    x 1.938580 0.000000 0.000000 
#    y 0.000000 1.938580 0.000000 
#    z 0.000000 0.000000 1.562880 
# 
# From -- ./inp_files/8807.got.cif
#   From: 2010.05.17/outbox.cif.g08.bks.cpg/sg180_5_cif.got.tgz:8807.got - 2010.05.20 11:43:55.
