data_PCOD9583219
_publ_section_title
;
Structure prediction by ZEFSAII (Michael W. Deem and Ramdas Pophale) SiO2 
 PCOD9583219
Probable space group: P 65 2 2
;
_chemical_formula_sum "Si O2"
_cell_formula_units_Z 78
_cell_length_a 24.540069
_cell_length_b 24.540069
_cell_length_c 8.419192
_cell_angle_alpha 90.000000
_cell_angle_beta 90.000000
_cell_angle_gamma 120.000000
_cell_volume 4390.890476
_symmetry_space_group_name_H-M "P 65 2 2"
_symmetry_group_IT_number 179
_symmetry_cell_setting 'hexagonal'
loop_
_space_group_symop_operation_xyz
x,y,z
x-y,x,5/6+z
-y,x-y,2/3+z
-x,-y,1/2+z
-x+y,-x,1/3+z
y,-x+y,1/6+z
x-y,-y,-z
-x,-x+y,1/3-z
y,x,2/3-z
-y,-x,1/6-z
-x+y,y,1/2-z
x,x-y,5/6-z
loop_
_atom_site_type_symbol
_atom_site_label
_atom_site_fract_x
_atom_site_fract_y
_atom_site_fract_z
Si Si1 0.442147 0.986840 0.816144
Si Si2 0.773406 0.346265 0.271211
Si Si3 0.300719 0.343105 0.990886
Si Si4 0.549347 0.900811 0.147267
Si Si5 0.322237 0.000000 0.500000
Si Si6 0.721732 0.567647 0.305761
Si Si7 0.563270 0.218321 0.138483
O O1 0.474546 0.949092 0.750000
O O2 0.469416 0.048440 0.703883
O O3 0.368080 0.962038 0.809867
O O4 0.457875 0.000000 0.000000
O O5 0.787928 0.393964 0.416667
O O6 0.838771 0.347271 0.239042
O O7 0.749112 0.378839 0.149067
O O8 0.719865 0.274437 0.293521
O O9 0.309536 0.309536 0.833334
O O10 0.260624 0.374305 0.924771
O O11 0.286670 0.305393 0.159114
O O12 0.610383 0.938759 0.038606
O O13 0.571234 0.882752 0.311185
O O14 0.781796 0.563592 0.250000
O O15 0.672617 0.501736 0.388512
O O16 0.594233 0.188466 0.250000
#
# Coordination Sequence:
#
# PCOD9583219 Si02
#       7
#    12  12  12  12   6  12  12
#     4  10  20  32  49  73  98 125 165 206 261 325
#     4  12  22  40  56  69  95 135 175 215 267 326
#     4  10  21  40  59  81 110 139 170 214 275 330
#     4  11  22  39  55  76 105 133 163 220 273 324
#     4  10  22  40  64  84 104 136 176 214 270 344
#     4  12  22  42  60  81 109 143 177 223 283 342
#     4  12  26  38  55  75 100 136 181 223 270 334
#
# _framework density 17.764050999999998
#
# number of rings (size 3 to 8) (size 9 to 14) (size 15 to 20)
#    0.000    0.923    7.692    2.308    6.462    0.615 
#    0.000    0.769    0.000    0.000    0.000    0.000 
#    0.000    0.000    0.000    0.000    0.000    0.000 
#
# Total GULP energy -434557.008406 kJ/mol
# GULP energy per Si atom -5571.243698 kJ/mol
# Density = 1.772362 g / cm^3
# Si number density = 17.764051 Si / 1000 Ang^3
#
#
#
# Elastic Constant Matrix: (Units=GPa)
#
#
# Indices 1 2 3 4 5 6 
#
# 1 286.3033 -214.5037 14.7854 0.0000 0.0000 0.0000
# 2 -214.5037 286.3033 14.7854 0.0000 0.0000 0.0000
# 3 14.7854 14.7854 82.9043 0.0000 0.0000 0.0000
# 4 0.0000 0.0000 0.0000 41.7575 0.0000 0.0000
# 5 0.0000 0.0000 0.0000 0.0000 41.7575 0.0000
# 6 0.0000 0.0000 0.0000 0.0000 0.0000 250.4035
#
#
#
# Elastic Compliance Matrix: (Units=1/GPa)
#
#
# Indices 1 2 3 4 5 6 
#
# 1 0.008514 0.006517 -0.002681 0.000000 0.000000 0.000000
# 2 0.006517 0.008514 -0.002681 0.000000 0.000000 0.000000
# 3 -0.002681 -0.002681 0.013018 0.000000 0.000000 0.000000
# 4 0.000000 0.000000 0.000000 0.023948 0.000000 0.000000
# 5 0.000000 0.000000 0.000000 0.000000 0.023948 0.000000
# 6 0.000000 0.000000 0.000000 0.000000 0.000000 0.003994
#
#
# Mechanical properties :
#
#
# Convention : Reuss Voigt Hill
#
# Bulk Modulus (GPa) = 30.90370 31.73834 31.32102
# Shear Modulus (GPa) = 55.30335 122.81329 89.05832
#
# Velocity S-wave (km/s) = 5.58567 8.32382 7.08822
# Velocity P-wave (km/s) = 7.68337 10.50175 9.20111
#
# Compressibility (1/GPa) = 0.03235859
#
# Stress axis : x y z
#
# Youngs Moduli (GPa) = 117.44990 117.44990 76.81493
#
# Poissons Ratio (x) = -0.76548 0.20593
# Poissons Ratio (y) = -0.76548 0.20593
# Poissons Ratio (z) = 0.31486 0.31486
#
# Static dielectric constant tensor:
#      x y z
#    x 1.600040 0.000000 0.000000 
#    y 0.000000 1.600040 0.000000 
#    z 0.000000 0.000000 2.754320 
# 
# From -- ./inp_files/3689.got.cif
#   From: 2010.05.17/outbox.cif.g08.bks.cpg/sg179_2_cif.got.tgz:3689.got - 2010.05.20 11:37:33.
