data_PCOD9583726
_publ_section_title
;
Structure prediction by ZEFSAII (Michael W. Deem and Ramdas Pophale) SiO2 
 PCOD9583726
Probable space group: P 62 2 2
;
_chemical_formula_sum "Si O2"
_cell_formula_units_Z 84
_cell_length_a 13.703505
_cell_length_b 13.703505
_cell_length_c 25.393375
_cell_angle_alpha 90.000000
_cell_angle_beta 90.000000
_cell_angle_gamma 120.000000
_cell_volume 4129.660817
_symmetry_space_group_name_H-M "P 62 2 2"
_symmetry_group_IT_number 180
_symmetry_cell_setting 'hexagonal'
loop_
_space_group_symop_operation_xyz
x,y,z
x-y,x,1/3+z
-y,x-y,2/3+z
-x,-y,z
-x+y,-x,1/3+z
y,-x+y,2/3+z
x-y,-y,-z
-x,-x+y,1/3-z
y,x,2/3-z
-y,-x,2/3-z
-x+y,y,-z
x,x-y,1/3-z
loop_
_atom_site_type_symbol
_atom_site_label
_atom_site_fract_x
_atom_site_fract_y
_atom_site_fract_z
Si Si1 0.597145 0.966007 0.742798
Si Si2 0.682187 0.393932 0.716775
Si Si3 0.691926 0.898622 0.466078
Si Si4 0.586097 0.634573 0.961660
Si Si5 0.519352 0.269726 0.531396
Si Si6 0.527897 0.128121 0.114696
Si Si7 0.710442 0.751817 0.179462
O O1 0.542976 0.834732 0.753784
O O2 0.500000 0.000000 0.747781
O O3 0.642116 0.998565 0.684041
O O4 0.684241 0.017728 0.790951
O O5 0.628713 0.314357 0.666667
O O6 0.692790 0.509795 0.699639
O O7 0.611789 0.357726 0.771228
O O8 0.796636 0.395466 0.732232
O O9 0.670677 0.959980 0.417085
O O10 0.573101 0.833602 0.497788
O O11 0.720382 0.797613 0.459787
O O12 0.786805 0.000000 0.500000
O O13 0.500000 0.500000 0.950158
O O14 0.572520 0.385670 0.497193
O O15 0.406158 0.116236 0.122006
O O16 0.500000 0.000000 0.111133
O O17 0.765149 0.882575 0.166667
#
# Coordination Sequence:
#
# PCOD9583726 Si02
#       7
#    12  12  12  12  12  12  12
#     4  10  19  37  61  86 123 160 211 254 300 386
#     4  12  25  34  57  93 129 162 202 263 321 386
#     4  11  24  42  62  90 126 163 213 267 322 388
#     4  11  23  38  58  92 132 167 199 260 333 383
#     4  11  20  40  60  87 120 170 212 252 308 393
#     4  12  21  39  63  88 123 164 218 256 310 385
#     4  11  22  39  68  91 115 173 217 265 316 375
#
# _framework density 20.340654000000001
#
# number of rings (size 3 to 8) (size 9 to 14) (size 15 to 20)
#    0.000    0.857    5.714    3.857    2.000    2.000 
#    0.000    2.857    0.000    0.000    0.000    4.000 
#    0.000    0.000    0.000    0.000    0.000    0.000 
#
# Total GULP energy -468739.529472 kJ/mol
# GULP energy per Si atom -5580.232494 kJ/mol
# Density = 2.029436 g / cm^3
# Si number density = 20.340654 Si / 1000 Ang^3
#
#
#
# Elastic Constant Matrix: (Units=GPa)
#
#
# Indices 1 2 3 4 5 6 
#
# 1 67.8977 14.4288 23.7220 0.0000 0.0000 0.0000
# 2 14.4288 67.8977 23.7220 0.0000 0.0000 0.0000
# 3 23.7220 23.7220 89.2142 0.0000 0.0000 0.0000
# 4 0.0000 0.0000 0.0000 27.4885 0.0000 0.0000
# 5 0.0000 0.0000 0.0000 0.0000 27.4885 0.0000
# 6 0.0000 0.0000 0.0000 0.0000 0.0000 26.7344
#
#
#
# Elastic Compliance Matrix: (Units=1/GPa)
#
#
# Indices 1 2 3 4 5 6 
#
# 1 0.016524 -0.002179 -0.003814 0.000000 0.000000 0.000000
# 2 -0.002179 0.016524 -0.003814 0.000000 0.000000 0.000000
# 3 -0.003814 -0.003814 0.013237 0.000000 0.000000 0.000000
# 4 0.000000 0.000000 0.000000 0.036379 0.000000 0.000000
# 5 0.000000 0.000000 0.000000 0.000000 0.036379 0.000000
# 6 0.000000 0.000000 0.000000 0.000000 0.000000 0.037405
#
#
# Mechanical properties :
#
#
# Convention : Reuss Voigt Hill
#
# Bulk Modulus (GPa) = 37.49528 38.75058 38.12293
# Shear Modulus (GPa) = 27.03398 27.21804 27.12601
#
# Velocity S-wave (km/s) = 3.64958 3.66199 3.65579
# Velocity P-wave (km/s) = 6.01938 6.08049 6.05001
#
# Compressibility (1/GPa) = 0.02667002
#
# Stress axis : x y z
#
# Youngs Moduli (GPa) = 60.51915 60.51915 75.54346
#
# Poissons Ratio (x) = 0.13186 0.28815
# Poissons Ratio (y) = 0.13186 0.28815
# Poissons Ratio (z) = 0.23084 0.23084
#
# Static dielectric constant tensor:
#      x y z
#    x 1.910670 0.000000 0.000000 
#    y 0.000000 1.910670 0.000000 
#    z 0.000000 0.000000 1.773850 
# 
# From -- ./inp_files/10255.got.cif
#   From: 2010.05.17/outbox.cif.g08.bks.cpg/sg180_6_cif.got.tgz:10255.got - 2010.05.20 11:43:55.
