data_PCOD9583141
_publ_section_title
;
Structure prediction by ZEFSAII (Michael W. Deem and Ramdas Pophale) SiO2 
 PCOD9583141
Probable space group: P 65 2 2
;
_chemical_formula_sum "Si O2"
_cell_formula_units_Z 84
_cell_length_a 14.612455
_cell_length_b 14.612455
_cell_length_c 24.647112
_cell_angle_alpha 90.000000
_cell_angle_beta 90.000000
_cell_angle_gamma 120.000000
_cell_volume 4557.671753
_symmetry_space_group_name_H-M "P 65 2 2"
_symmetry_group_IT_number 179
_symmetry_cell_setting 'hexagonal'
loop_
_space_group_symop_operation_xyz
x,y,z
x-y,x,5/6+z
-y,x-y,2/3+z
-x,-y,1/2+z
-x+y,-x,1/3+z
y,-x+y,1/6+z
x-y,-y,-z
-x,-x+y,1/3-z
y,x,2/3-z
-y,-x,1/6-z
-x+y,y,1/2-z
x,x-y,5/6-z
loop_
_atom_site_type_symbol
_atom_site_label
_atom_site_fract_x
_atom_site_fract_y
_atom_site_fract_z
Si Si1 0.225848 0.810789 0.233271
Si Si2 0.811628 0.394548 0.109786
Si Si3 0.555720 0.300740 0.276502
Si Si4 0.832266 0.227957 0.854945
Si Si5 0.952970 0.047031 0.583334
Si Si6 0.833563 0.023775 0.691297
Si Si7 0.923462 0.461731 0.416667
Si Si8 0.470819 0.907502 0.833839
O O1 0.178759 0.687712 0.221721
O O2 0.213407 0.823341 0.297129
O O3 0.178355 0.874509 0.203733
O O4 0.349289 0.857735 0.222130
O O5 0.697806 0.302195 0.083334
O O6 0.816033 0.364568 0.172093
O O7 0.897189 0.408119 0.064061
O O8 0.673453 0.346906 0.250000
O O9 0.466353 0.261598 0.230245
O O10 0.534410 0.192343 0.304469
O O11 0.891952 0.354232 0.842916
O O12 0.919968 0.197756 0.871702
O O13 0.868033 0.032142 0.628881
O O14 0.068638 0.096595 0.609760
O O15 0.993458 0.540489 0.464418
#
# Coordination Sequence:
#
# PCOD9583141 Si02
#       8
#    12  12  12  12   6  12   6  12
#     4  11  21  31  54  87 115 144 192 241 284 349
#     4   9  18  31  49  80 115 149 187 226 282 351
#     4   9  16  30  52  78 115 152 184 223 281 351
#     4  10  18  33  56  84 109 146 194 240 283 354
#     4  10  24  38  62  83 112 149 194 258 332 358
#     4  11  20  40  59  85 113 149 198 255 312 363
#     4  12  18  30  52  87 110 149 194 248 274 338
#     4   9  16  29  50  77 110 146 189 229 281 327
#
# _framework density 18.430463
#
# number of rings (size 3 to 8) (size 9 to 14) (size 15 to 20)
#    0.000    2.000    5.714    0.857    0.000    0.000 
#    1.286    0.000    0.000    4.286    1.857    0.000 
#    0.000    0.000    0.000    0.000    0.000    0.000 
#
# Total GULP energy -467675.156652 kJ/mol
# GULP energy per Si atom -5567.561389 kJ/mol
# Density = 1.838851 g / cm^3
# Si number density = 18.430463 Si / 1000 Ang^3
#
#
#
# Elastic Constant Matrix: (Units=GPa)
#
#
# Indices 1 2 3 4 5 6 
#
# 1 42.5742 12.5899 18.1622 0.0000 0.0000 0.0000
# 2 12.5899 42.5742 18.1622 0.0000 0.0000 0.0000
# 3 18.1622 18.1622 127.2408 0.0000 0.0000 0.0000
# 4 0.0000 0.0000 0.0000 16.8120 0.0000 0.0000
# 5 0.0000 0.0000 0.0000 0.0000 16.8120 0.0000
# 6 0.0000 0.0000 0.0000 0.0000 0.0000 14.9921
#
#
#
# Elastic Compliance Matrix: (Units=1/GPa)
#
#
# Indices 1 2 3 4 5 6 
#
# 1 0.026680 -0.006671 -0.002856 0.000000 0.000000 0.000000
# 2 -0.006671 0.026680 -0.002856 0.000000 0.000000 0.000000
# 3 -0.002856 -0.002856 0.008674 0.000000 0.000000 0.000000
# 4 0.000000 0.000000 0.000000 0.059481 0.000000 0.000000
# 5 0.000000 0.000000 0.000000 0.000000 0.059481 0.000000
# 6 0.000000 0.000000 0.000000 0.000000 0.000000 0.066702
#
#
# Mechanical properties :
#
#
# Convention : Reuss Voigt Hill
#
# Bulk Modulus (GPa) = 26.83323 34.46862 30.65092
# Shear Modulus (GPa) = 17.55084 20.62155 19.08619
#
# Velocity S-wave (km/s) = 3.08924 3.34860 3.22153
# Velocity P-wave (km/s) = 5.22641 5.80460 5.52308
#
# Compressibility (1/GPa) = 0.03726723
#
# Stress axis : x y z
#
# Youngs Moduli (GPa) = 37.48184 37.48184 115.28138
#
# Poissons Ratio (x) = 0.25005 0.32924
# Poissons Ratio (y) = 0.25005 0.32924
# Poissons Ratio (z) = 0.10705 0.10705
#
# Static dielectric constant tensor:
#      x y z
#    x 1.648420 0.000000 0.000000 
#    y 0.000000 1.648420 0.000000 
#    z 0.000000 0.000000 1.678260 
# 
# From -- ./inp_files/8408.got.cif
#   From: 2010.05.17/outbox.cif.g08.bks.cpg/sg179_5_cif.got.tgz:8408.got - 2010.05.20 11:37:33.
