data_PCOD9583373
_publ_section_title
;
Structure prediction by ZEFSAII (Michael W. Deem and Ramdas Pophale) SiO2 
 PCOD9583373
Probable space group: P 65 2 2
;
_chemical_formula_sum "Si O2"
_cell_formula_units_Z 48
_cell_length_a 10.290276
_cell_length_b 10.290276
_cell_length_c 23.861282
_cell_angle_alpha 90.000000
_cell_angle_beta 90.000000
_cell_angle_gamma 120.000000
_cell_volume 2188.156861
_symmetry_space_group_name_H-M "P 65 2 2"
_symmetry_group_IT_number 179
_symmetry_cell_setting 'hexagonal'
loop_
_space_group_symop_operation_xyz
x,y,z
x-y,x,5/6+z
-y,x-y,2/3+z
-x,-y,1/2+z
-x+y,-x,1/3+z
y,-x+y,1/6+z
x-y,-y,-z
-x,-x+y,1/3-z
y,x,2/3-z
-y,-x,1/6-z
-x+y,y,1/2-z
x,x-y,5/6-z
loop_
_atom_site_type_symbol
_atom_site_label
_atom_site_fract_x
_atom_site_fract_y
_atom_site_fract_z
Si Si1 0.757798 0.572076 0.455136
Si Si2 0.085571 0.252981 0.113294
Si Si3 0.049657 0.637184 0.520513
Si Si4 0.164479 0.245370 0.643338
O O1 0.883853 0.556233 0.490708
O O2 0.586792 0.447487 0.464950
O O3 0.813793 0.601702 0.390948
O O4 0.753365 0.719618 0.477983
O O5 0.234712 0.384698 0.141947
O O6 0.987316 0.304708 0.078064
O O7 0.138211 0.169413 0.071265
O O8 0.000000 0.154866 0.166667
O O9 0.000000 0.182094 0.666667
#
# Coordination Sequence:
#
# PCOD9583373 Si02
#       4
#    12  12  12  12
#     4  10  23  43  64  91 130 174 215 269 330 396
#     4  10  22  40  64  93 126 161 215 263 327 385
#     4  10  23  43  64  91 130 174 215 269 330 396
#     4  10  22  40  64  93 126 161 215 263 327 385
#
# _framework density 21.93627
#
# number of rings (size 3 to 8) (size 9 to 14) (size 15 to 20)
#    0.000    2.000    0.000    1.500    0.000   29.000 
#   18.000    0.000    0.000    0.000    0.000    0.000 
#    0.000    0.000    0.000    0.000    0.000    0.000 
#
# Total GULP energy -268038.298825 kJ/mol
# GULP energy per Si atom -5584.131226 kJ/mol
# Density = 2.188634 g / cm^3
# Si number density = 21.936270 Si / 1000 Ang^3
#
#
#
# Elastic Constant Matrix: (Units=GPa)
#
#
# Indices 1 2 3 4 5 6 
#
# 1 69.3461 6.1077 3.1630 0.0000 0.0000 0.0000
# 2 6.1077 69.3461 3.1630 0.0000 0.0000 0.0000
# 3 3.1630 3.1630 65.8973 0.0000 0.0000 0.0000
# 4 0.0000 0.0000 0.0000 22.1143 0.0000 0.0000
# 5 0.0000 0.0000 0.0000 0.0000 22.1143 0.0000
# 6 0.0000 0.0000 0.0000 0.0000 0.0000 31.6192
#
#
#
# Elastic Compliance Matrix: (Units=1/GPa)
#
#
# Indices 1 2 3 4 5 6 
#
# 1 0.014560 -0.001253 -0.000639 0.000000 0.000000 0.000000
# 2 -0.001253 0.014560 -0.000639 0.000000 0.000000 0.000000
# 3 -0.000639 -0.000639 0.015236 0.000000 0.000000 0.000000
# 4 0.000000 0.000000 0.000000 0.045220 0.000000 0.000000
# 5 0.000000 0.000000 0.000000 0.000000 0.045220 0.000000
# 6 0.000000 0.000000 0.000000 0.000000 0.000000 0.031626
#
#
# Mechanical properties :
#
#
# Convention : Reuss Voigt Hill
#
# Bulk Modulus (GPa) = 25.44852 25.49520 25.47186
# Shear Modulus (GPa) = 27.08830 27.97994 27.53412
#
# Velocity S-wave (km/s) = 3.51787 3.57530 3.54671
# Velocity P-wave (km/s) = 5.30348 5.35643 5.33002
#
# Compressibility (1/GPa) = 0.03929502
#
# Stress axis : x y z
#
# Youngs Moduli (GPa) = 68.68160 68.68160 65.63214
#
# Poissons Ratio (x) = 0.08607 0.04192
# Poissons Ratio (y) = 0.08607 0.04192
# Poissons Ratio (z) = 0.04387 0.04387
#
# Static dielectric constant tensor:
#      x y z
#    x 1.852850 0.000000 0.000000 
#    y 0.000000 1.852850 0.000000 
#    z 0.000000 0.000000 1.819820 
# 
# From -- ./inp_files/8062.got.cif
#   From: 2010.05.17/outbox.cif.g08.bks.cpg/sg179_5_cif.got.tgz:8062.got - 2010.05.20 11:37:33.
