data_PCOD9583052
_publ_section_title
;
Structure prediction by ZEFSAII (Michael W. Deem and Ramdas Pophale) SiO2 
 PCOD9583052
Probable space group: P 61 2 2
;
_chemical_formula_sum "Si O2"
_cell_formula_units_Z 48
_cell_length_a 14.856239
_cell_length_b 14.856239
_cell_length_c 10.806312
_cell_angle_alpha 90.000000
_cell_angle_beta 90.000000
_cell_angle_gamma 120.000000
_cell_volume 2065.503280
_symmetry_space_group_name_H-M "P 61 2 2"
_symmetry_group_IT_number 178
_symmetry_cell_setting 'hexagonal'
loop_
_space_group_symop_operation_xyz
x,y,z
x-y,x,1/6+z
-y,x-y,1/3+z
-x,-y,1/2+z
-x+y,-x,2/3+z
y,-x+y,5/6+z
x-y,-y,-z
-x,-x+y,2/3-z
y,x,1/3-z
-y,-x,5/6-z
-x+y,y,1/2-z
x,x-y,1/6-z
loop_
_atom_site_type_symbol
_atom_site_label
_atom_site_fract_x
_atom_site_fract_y
_atom_site_fract_z
Si Si1 0.792484 0.207517 0.416667
Si Si2 0.397747 0.283261 0.684257
Si Si3 0.259866 0.259866 0.166667
Si Si4 0.927075 0.807448 0.481637
Si Si5 0.556480 0.295912 0.323530
O O1 0.918754 0.266293 0.426514
O O2 0.735017 0.211590 0.542217
O O3 0.386988 0.386988 0.666667
O O4 0.390331 0.195166 0.583334
O O5 0.294373 0.218701 0.765564
O O6 0.501790 0.307942 0.756858
O O7 0.231686 0.160084 0.247390
O O8 0.888525 0.854195 0.375430
O O9 0.603086 0.396915 0.416667
O O10 0.655132 0.310264 0.250000
#
# Coordination Sequence:
#
# PCOD9583052 Si02
#       5
#     6  12   6  12  12
#     4  12  26  48  80 114 156 206 260 328 404 472
#     4  12  26  48  75 110 159 204 258 326 397 476
#     4  12  22  46  74 110 156 206 264 330 384 486
#     4  12  23  44  66 108 159 212 264 317 386 483
#     4  12  27  53  82 110 147 198 260 338 405 471
#
# _framework density 23.238887999999999
#
# number of rings (size 3 to 8) (size 9 to 14) (size 15 to 20)
#    0.000    0.000    8.750    0.750    0.000    0.000 
#   13.500    5.000    0.000    0.000    0.000    0.000 
#    0.000    0.000    0.000    0.000    0.000    0.000 
#
# Total GULP energy -267432.314377 kJ/mol
# GULP energy per Si atom -5571.506550 kJ/mol
# Density = 2.318600 g / cm^3
# Si number density = 23.238888 Si / 1000 Ang^3
#
#
#
# Elastic Constant Matrix: (Units=GPa)
#
#
# Indices 1 2 3 4 5 6 
#
# 1 83.7590 9.6451 31.6500 0.0000 0.0000 0.0000
# 2 9.6451 83.7590 31.6500 0.0000 0.0000 0.0000
# 3 31.6500 31.6500 117.5540 0.0000 0.0000 0.0000
# 4 0.0000 0.0000 0.0000 49.3399 0.0000 0.0000
# 5 0.0000 0.0000 0.0000 0.0000 49.3399 0.0000
# 6 0.0000 0.0000 0.0000 0.0000 0.0000 37.0569
#
#
#
# Elastic Compliance Matrix: (Units=1/GPa)
#
#
# Indices 1 2 3 4 5 6 
#
# 1 0.013294 -0.000199 -0.003526 0.000000 0.000000 0.000000
# 2 -0.000199 0.013294 -0.003526 0.000000 0.000000 0.000000
# 3 -0.003526 -0.003526 0.010405 0.000000 0.000000 0.000000
# 4 0.000000 0.000000 0.000000 0.020268 0.000000 0.000000
# 5 0.000000 0.000000 0.000000 0.000000 0.020268 0.000000
# 6 0.000000 0.000000 0.000000 0.000000 0.000000 0.026986
#
#
# Mechanical properties :
#
#
# Convention : Reuss Voigt Hill
#
# Bulk Modulus (GPa) = 44.45787 47.88469 46.17128
# Shear Modulus (GPa) = 39.52176 41.28913 40.40544
#
# Velocity S-wave (km/s) = 4.12840 4.21970 4.17430
# Velocity P-wave (km/s) = 6.47281 6.66268 6.56843
#
# Compressibility (1/GPa) = 0.02249320
#
# Stress axis : x y z
#
# Youngs Moduli (GPa) = 75.22082 75.22082 96.10473
#
# Poissons Ratio (x) = 0.01494 0.33885
# Poissons Ratio (y) = 0.01494 0.33885
# Poissons Ratio (z) = 0.26522 0.26522
#
# Static dielectric constant tensor:
#      x y z
#    x 1.977460 0.000000 0.000000 
#    y 0.000000 1.977460 0.000000 
#    z 0.000000 0.000000 2.071040 
# 
# From -- ./inp_files/4167.got.cif
#   From: 2010.05.17/outbox.cif.g08.bks.cpg/sg178_3_cif.got.tgz:4167.got - 2010.05.20 11:30:59.
