data_PCOD9583261
_publ_section_title
;
Structure prediction by ZEFSAII (Michael W. Deem and Ramdas Pophale) SiO2 
 PCOD9583261
Probable space group: P 65 2 2
;
_chemical_formula_sum "Si O2"
_cell_formula_units_Z 66
_cell_length_a 10.902523
_cell_length_b 10.902523
_cell_length_c 30.729008
_cell_angle_alpha 90.000000
_cell_angle_beta 90.000000
_cell_angle_gamma 120.000000
_cell_volume 3163.247659
_symmetry_space_group_name_H-M "P 65 2 2"
_symmetry_group_IT_number 179
_symmetry_cell_setting 'hexagonal'
loop_
_space_group_symop_operation_xyz
x,y,z
x-y,x,5/6+z
-y,x-y,2/3+z
-x,-y,1/2+z
-x+y,-x,1/3+z
y,-x+y,1/6+z
x-y,-y,-z
-x,-x+y,1/3-z
y,x,2/3-z
-y,-x,1/6-z
-x+y,y,1/2-z
x,x-y,5/6-z
loop_
_atom_site_type_symbol
_atom_site_label
_atom_site_fract_x
_atom_site_fract_y
_atom_site_fract_z
Si Si1 0.121907 0.560954 0.916667
Si Si2 0.705659 0.816373 0.174731
Si Si3 0.385837 0.664391 0.671162
Si Si4 0.881798 0.333920 0.201466
Si Si5 0.424100 0.087570 0.904432
Si Si6 0.223361 0.957915 0.746203
O O1 0.223746 0.629204 0.957746
O O2 0.022161 0.629069 0.912769
O O3 0.553292 0.785999 0.157111
O O4 0.645526 0.683392 0.207766
O O5 0.790897 0.951165 0.206518
O O6 0.784774 0.814427 0.130171
O O7 0.272212 0.714815 0.679563
O O8 0.346410 0.546837 0.707285
O O9 0.937925 0.487443 0.225045
O O10 0.000000 0.360060 0.166667
O O11 0.857481 0.206329 0.232754
O O12 0.341954 0.170977 0.916667
#
# Coordination Sequence:
#
# PCOD9583261 Si02
#       6
#     6  12  12  12  12  12
#     4  10  20  36  70  94 126 160 226 266 336 388
#     4  11  23  41  70  95 128 171 229 271 339 394
#     4  10  21  37  65  97 125 164 214 277 332 395
#     4  11  25  40  59  95 141 172 212 273 346 398
#     4  10  22  41  65  95 128 169 219 283 330 387
#     4  11  23  41  64  96 128 178 214 275 328 409
#
# _framework density 20.864633000000001
#
# number of rings (size 3 to 8) (size 9 to 14) (size 15 to 20)
#    0.000    1.455    3.636    1.091    8.909    0.000 
#    0.000    1.818    0.000    0.000    0.000    0.000 
#    0.000    0.000    0.000    0.000    0.000    0.000 
#
# Total GULP energy -367616.757809 kJ/mol
# GULP energy per Si atom -5569.950876 kJ/mol
# Density = 2.081714 g / cm^3
# Si number density = 20.864633 Si / 1000 Ang^3
#
#
#
# Elastic Constant Matrix: (Units=GPa)
#
#
# Indices 1 2 3 4 5 6 
#
# 1 78.2755 -26.5653 32.5883 0.0000 0.0000 0.0000
# 2 -26.5653 78.2755 32.5883 0.0000 0.0000 0.0000
# 3 32.5883 32.5883 133.9368 0.0000 0.0000 0.0000
# 4 0.0000 0.0000 0.0000 21.9683 0.0000 0.0000
# 5 0.0000 0.0000 0.0000 0.0000 21.9683 0.0000
# 6 0.0000 0.0000 0.0000 0.0000 0.0000 52.4204
#
#
#
# Elastic Compliance Matrix: (Units=1/GPa)
#
#
# Indices 1 2 3 4 5 6 
#
# 1 0.018715 0.009177 -0.006787 0.000000 0.000000 0.000000
# 2 0.009177 0.018715 -0.006787 0.000000 0.000000 0.000000
# 3 -0.006787 -0.006787 0.010769 0.000000 0.000000 0.000000
# 4 0.000000 0.000000 0.000000 0.045520 0.000000 0.000000
# 5 0.000000 0.000000 0.000000 0.000000 0.045520 0.000000
# 6 0.000000 0.000000 0.000000 0.000000 0.000000 0.019077
#
#
# Mechanical properties :
#
#
# Convention : Reuss Voigt Hill
#
# Bulk Modulus (GPa) = 25.37597 40.85670 33.11633
# Shear Modulus (GPa) = 27.74020 36.06317 31.90168
#
# Velocity S-wave (km/s) = 3.65023 4.16196 3.91446
# Velocity P-wave (km/s) = 5.47304 6.53606 6.02803
#
# Compressibility (1/GPa) = 0.03940737
#
# Stress axis : x y z
#
# Youngs Moduli (GPa) = 53.43214 53.43214 92.86194
#
# Poissons Ratio (x) = -0.49035 0.63021
# Poissons Ratio (y) = -0.49035 0.63021
# Poissons Ratio (z) = 0.36262 0.36262
#
# Static dielectric constant tensor:
#      x y z
#    x 1.801520 0.000000 0.000000 
#    y 0.000000 1.801520 0.000000 
#    z 0.000000 0.000000 1.567550 
# 
# From -- ./inp_files/9502.got.cif
#   From: 2010.05.17/outbox.cif.g08.bks.cpg/sg179_5_cif.got.tgz:9502.got - 2010.05.20 11:37:33.
