data_PCOD9583032
_publ_section_title
;
Structure prediction by ZEFSAII (Michael W. Deem and Ramdas Pophale) SiO2 
 PCOD9583032
Probable space group: P 61 2 2
;
_chemical_formula_sum "Si O2"
_cell_formula_units_Z 24
_cell_length_a 10.281238
_cell_length_b 10.281238
_cell_length_c 10.116649
_cell_angle_alpha 90.000000
_cell_angle_beta 90.000000
_cell_angle_gamma 120.000000
_cell_volume 926.100544
_symmetry_space_group_name_H-M "P 61 2 2"
_symmetry_group_IT_number 178
_symmetry_cell_setting 'hexagonal'
loop_
_space_group_symop_operation_xyz
x,y,z
x-y,x,1/6+z
-y,x-y,1/3+z
-x,-y,1/2+z
-x+y,-x,2/3+z
y,-x+y,5/6+z
x-y,-y,-z
-x,-x+y,2/3-z
y,x,1/3-z
-y,-x,5/6-z
-x+y,y,1/2-z
x,x-y,1/6-z
loop_
_atom_site_type_symbol
_atom_site_label
_atom_site_fract_x
_atom_site_fract_y
_atom_site_fract_z
Si Si1 0.560541 0.136733 0.398932
Si Si2 0.141990 0.872791 0.614402
O O1 0.727977 0.272024 0.416667
O O2 0.538791 0.077581 0.250000
O O3 0.446296 0.202654 0.408927
O O4 0.510830 0.000000 0.500000
O O5 0.966182 0.776741 0.584017
O O6 0.204958 0.000000 0.500000
#
# Coordination Sequence:
#
# PCOD9583032 Si02
#       2
#    12  12
#     4  11  28  47  81 119 166 217 281 356 430 513
#     4   9  20  40  75 110 152 213 264 332 409 484
#
# _framework density 25.915113000000002
#
# number of rings (size 3 to 8) (size 9 to 14) (size 15 to 20)
#    0.000    2.000    0.000    0.000   21.000    0.000 
#    0.000    0.000   44.000    0.000    0.000    0.000 
#    0.000    0.000    0.000    0.000    0.000    0.000 
#
# Total GULP energy -134280.665559 kJ/mol
# GULP energy per Si atom -5595.027732 kJ/mol
# Density = 2.585613 g / cm^3
# Si number density = 25.915113 Si / 1000 Ang^3
#
#
#
# Elastic Constant Matrix: (Units=GPa)
#
#
# Indices 1 2 3 4 5 6 
#
# 1 149.7757 87.2065 66.8398 0.0000 0.0000 0.0000
# 2 87.2065 149.7757 66.8398 0.0000 0.0000 0.0000
# 3 66.8398 66.8398 169.6162 0.0000 0.0000 0.0000
# 4 0.0000 0.0000 0.0000 29.3700 0.0000 0.0000
# 5 0.0000 0.0000 0.0000 0.0000 29.3700 0.0000
# 6 0.0000 0.0000 0.0000 0.0000 0.0000 31.2846
#
#
#
# Elastic Compliance Matrix: (Units=1/GPa)
#
#
# Indices 1 2 3 4 5 6 
#
# 1 0.010704 -0.005278 -0.002138 0.000000 0.000000 0.000000
# 2 -0.005278 0.010704 -0.002138 0.000000 0.000000 0.000000
# 3 -0.002138 -0.002138 0.007581 0.000000 0.000000 0.000000
# 4 0.000000 0.000000 0.000000 0.034048 0.000000 0.000000
# 5 0.000000 0.000000 0.000000 0.000000 0.034048 0.000000
# 6 0.000000 0.000000 0.000000 0.000000 0.000000 0.031965
#
#
# Mechanical properties :
#
#
# Convention : Reuss Voigt Hill
#
# Bulk Modulus (GPa) = 101.21534 101.21554 101.21544
# Shear Modulus (GPa) = 33.01367 34.55704 33.78536
#
# Velocity S-wave (km/s) = 3.57307 3.65563 3.61459
# Velocity P-wave (km/s) = 7.49424 7.54716 7.52075
#
# Compressibility (1/GPa) = 0.00987992
#
# Stress axis : x y z
#
# Youngs Moduli (GPa) = 93.42248 93.42248 131.91252
#
# Poissons Ratio (x) = 0.49311 0.28205
# Poissons Ratio (y) = 0.49311 0.28205
# Poissons Ratio (z) = 0.19975 0.19975
#
# Static dielectric constant tensor:
#      x y z
#    x 2.100630 0.000000 0.000000 
#    y 0.000000 2.100630 0.000000 
#    z 0.000000 0.000000 2.111620 
# 
# From -- ./inp_files/3708.got.cif
#   From: 2010.05.17/outbox.cif.g08.bks.cpg/sg178_2_cif.got.tgz:3708.got - 2010.05.20 11:30:59.
