data_PCOD9583991
_publ_section_title
;
Structure prediction by ZEFSAII (Michael W. Deem and Ramdas Pophale) SiO2 
 PCOD9583991
Probable space group: P 62 2 2
;
_chemical_formula_sum "Si O2"
_cell_formula_units_Z 54
_cell_length_a 10.010584
_cell_length_b 10.010584
_cell_length_c 25.087426
_cell_angle_alpha 90.000000
_cell_angle_beta 90.000000
_cell_angle_gamma 120.000000
_cell_volume 2177.236290
_symmetry_space_group_name_H-M "P 62 2 2"
_symmetry_group_IT_number 180
_symmetry_cell_setting 'hexagonal'
loop_
_space_group_symop_operation_xyz
x,y,z
x-y,x,1/3+z
-y,x-y,2/3+z
-x,-y,z
-x+y,-x,1/3+z
y,-x+y,2/3+z
x-y,-y,-z
-x,-x+y,1/3-z
y,x,2/3-z
-y,-x,2/3-z
-x+y,y,-z
x,x-y,1/3-z
loop_
_atom_site_type_symbol
_atom_site_label
_atom_site_fract_x
_atom_site_fract_y
_atom_site_fract_z
Si Si1 0.500000 0.500000 0.979008
Si Si2 0.614601 0.906244 0.921586
Si Si3 0.742122 0.491585 0.390506
Si Si4 0.047869 0.736625 0.228885
Si Si5 0.675309 0.969769 0.190833
O O1 0.361994 0.446837 0.936602
O O2 0.502538 0.370024 0.016122
O O3 0.716797 0.825446 0.920358
O O4 0.601428 0.944186 0.859670
O O5 0.706752 0.074109 0.948725
O O6 0.437635 0.793874 0.940204
O O7 0.838503 0.525484 0.445794
O O8 0.198679 0.902419 0.228649
O O9 0.000000 0.679310 0.166667
O O10 0.753630 0.876815 0.166667
#
# Coordination Sequence:
#
# PCOD9583991 Si02
#       5
#     6  12  12  12  12
#     4  12  27  44  66 100 146 186 230 289 352 424
#     4   9  21  44  70  97 142 189 231 280 345 419
#     4  10  23  40  66 105 143 184 227 281 349 419
#     4  10  23  44  70  96 129 180 236 293 350 410
#     4   9  20  41  73 105 133 178 238 295 343 410
#
# _framework density 24.802083
#
# number of rings (size 3 to 8) (size 9 to 14) (size 15 to 20)
#    0.000    2.222    0.000    0.333    0.000   21.778 
#    0.000   17.778    0.000   18.667    0.000    0.000 
#    0.000    0.000    0.000    0.000    0.000    0.000 
#
# Total GULP energy -301429.491288 kJ/mol
# GULP energy per Si atom -5582.027616 kJ/mol
# Density = 2.474563 g / cm^3
# Si number density = 24.802083 Si / 1000 Ang^3
#
#
#
# Elastic Constant Matrix: (Units=GPa)
#
#
# Indices 1 2 3 4 5 6 
#
# 1 121.3025 79.9143 51.5636 0.0000 0.0000 0.0000
# 2 79.9143 121.3025 51.5636 0.0000 0.0000 0.0000
# 3 51.5636 51.5636 103.3766 0.0000 0.0000 0.0000
# 4 0.0000 0.0000 0.0000 52.4712 0.0000 0.0000
# 5 0.0000 0.0000 0.0000 0.0000 52.4712 0.0000
# 6 0.0000 0.0000 0.0000 0.0000 0.0000 20.6941
#
#
#
# Elastic Compliance Matrix: (Units=1/GPa)
#
#
# Indices 1 2 3 4 5 6 
#
# 1 0.015419 -0.008742 -0.003330 0.000000 0.000000 0.000000
# 2 -0.008742 0.015419 -0.003330 0.000000 0.000000 0.000000
# 3 -0.003330 -0.003330 0.012996 0.000000 0.000000 0.000000
# 4 0.000000 0.000000 0.000000 0.019058 0.000000 0.000000
# 5 0.000000 0.000000 0.000000 0.000000 0.019058 0.000000
# 6 0.000000 0.000000 0.000000 0.000000 0.000000 0.048323
#
#
# Mechanical properties :
#
#
# Convention : Reuss Voigt Hill
#
# Bulk Modulus (GPa) = 76.75904 79.11828 77.93866
# Shear Modulus (GPa) = 30.22585 35.98996 33.10790
#
# Velocity S-wave (km/s) = 3.49475 3.81344 3.65757
# Velocity P-wave (km/s) = 6.87751 7.16651 7.02350
#
# Compressibility (1/GPa) = 0.01302778
#
# Stress axis : x y z
#
# Youngs Moduli (GPa) = 64.85487 64.85487 76.94930
#
# Poissons Ratio (x) = 0.56699 0.25626
# Poissons Ratio (y) = 0.56699 0.25626
# Poissons Ratio (z) = 0.21598 0.21598
#
# Static dielectric constant tensor:
#      x y z
#    x 1.936790 0.000000 0.000000 
#    y 0.000000 1.936790 0.000000 
#    z 0.000000 0.000000 2.044830 
# 
# From -- ./inp_files/11105.got.cif
#   From: 2010.05.17/outbox.cif.g08.bks.cpg/sg180_6_cif.got.tgz:11105.got - 2010.05.20 11:43:55.
