data_PCOD9583778
_publ_section_title
;
Structure prediction by ZEFSAII (Michael W. Deem and Ramdas Pophale) SiO2 
 PCOD9583778
Probable space group: P 62 2 2
;
_chemical_formula_sum "Si O2"
_cell_formula_units_Z 42
_cell_length_a 9.992285
_cell_length_b 9.992285
_cell_length_c 28.173175
_cell_angle_alpha 90.000000
_cell_angle_beta 90.000000
_cell_angle_gamma 120.000000
_cell_volume 2436.105261
_symmetry_space_group_name_H-M "P 62 2 2"
_symmetry_group_IT_number 180
_symmetry_cell_setting 'hexagonal'
loop_
_space_group_symop_operation_xyz
x,y,z
x-y,x,1/3+z
-y,x-y,2/3+z
-x,-y,z
-x+y,-x,1/3+z
y,-x+y,2/3+z
x-y,-y,-z
-x,-x+y,1/3-z
y,x,2/3-z
-y,-x,2/3-z
-x+y,y,-z
x,x-y,1/3-z
loop_
_atom_site_type_symbol
_atom_site_label
_atom_site_fract_x
_atom_site_fract_y
_atom_site_fract_z
Si Si1 0.905308 0.583396 0.439430
Si Si2 0.970177 0.144943 0.720783
Si Si3 0.339296 0.678591 0.500000
Si Si4 0.825299 0.129865 0.149448
O O1 0.898966 0.695818 0.400843
O O2 0.743076 0.440868 0.456622
O O3 0.000000 0.500000 0.424315
O O4 0.993575 0.697325 0.484091
O O5 0.073826 0.263562 0.762013
O O6 0.000000 0.200024 0.666667
O O7 0.000000 0.000000 0.724362
O O8 0.519662 0.783393 0.489887
O O9 0.000000 0.187717 0.166667
#
# Coordination Sequence:
#
# PCOD9583778 Si02
#       4
#    12  12   6  12
#     4  10  20  36  60  85 116 149 190 241 292 338
#     4  11  22  37  60  88 115 156 200 238 292 356
#     4  10  21  34  57  90 114 142 196 240 299 330
#     4  11  20  36  60  84 116 151 197 245 280 345
#
# _framework density 17.240635999999999
#
# number of rings (size 3 to 8) (size 9 to 14) (size 15 to 20)
#    0.000    1.429    5.714    0.429    0.000    0.000 
#    0.000    5.714    0.000    0.000    0.000    0.000 
#    0.000    0.000    0.000    0.000    0.000    0.000 
#
# Total GULP energy -234214.768218 kJ/mol
# GULP energy per Si atom -5576.542100 kJ/mol
# Density = 1.720140 g / cm^3
# Si number density = 17.240636 Si / 1000 Ang^3
#
#
#
# Elastic Constant Matrix: (Units=GPa)
#
#
# Indices 1 2 3 4 5 6 
#
# 1 84.1463 36.0828 47.6060 0.0000 0.0000 0.0000
# 2 36.0828 84.1463 47.6060 0.0000 0.0000 0.0000
# 3 47.6060 47.6060 148.0308 0.0000 0.0000 0.0000
# 4 0.0000 0.0000 0.0000 7.3284 0.0000 0.0000
# 5 0.0000 0.0000 0.0000 0.0000 7.3284 0.0000
# 6 0.0000 0.0000 0.0000 0.0000 0.0000 24.0318
#
#
#
# Elastic Compliance Matrix: (Units=1/GPa)
#
#
# Indices 1 2 3 4 5 6 
#
# 1 0.015983 -0.004823 -0.003589 0.000000 0.000000 0.000000
# 2 -0.004823 0.015983 -0.003589 0.000000 0.000000 0.000000
# 3 -0.003589 -0.003589 0.009064 0.000000 0.000000 0.000000
# 4 0.000000 0.000000 0.000000 0.136455 0.000000 0.000000
# 5 0.000000 0.000000 0.000000 0.000000 0.136455 0.000000
# 6 0.000000 0.000000 0.000000 0.000000 0.000000 0.041612
#
#
# Mechanical properties :
#
#
# Convention : Reuss Voigt Hill
#
# Bulk Modulus (GPa) = 58.72909 64.32366 61.52638
# Shear Modulus (GPa) = 12.97932 20.07297 16.52615
#
# Velocity S-wave (km/s) = 2.74676 3.41586 3.09942
# Velocity P-wave (km/s) = 6.64815 7.27652 6.96942
#
# Compressibility (1/GPa) = 0.01702734
#
# Stress axis : x y z
#
# Youngs Moduli (GPa) = 62.56781 62.56781 110.33058
#
# Poissons Ratio (x) = 0.30177 0.39596
# Poissons Ratio (y) = 0.30177 0.39596
# Poissons Ratio (z) = 0.22455 0.22455
#
# Static dielectric constant tensor:
#      x y z
#    x 1.593630 0.000000 0.000000 
#    y 0.000000 1.593630 0.000000 
#    z 0.000000 0.000000 1.557560 
# 
# From -- ./inp_files/8544.got.cif
#   From: 2010.05.17/outbox.cif.g08.bks.cpg/sg180_5_cif.got.tgz:8544.got - 2010.05.20 11:43:55.
