data_PCOD9583225
_publ_section_title
;
Structure prediction by ZEFSAII (Michael W. Deem and Ramdas Pophale) SiO2 
 PCOD9583225
Probable space group: P 65 2 2
;
_chemical_formula_sum "Si O2"
_cell_formula_units_Z 84
_cell_length_a 14.006264
_cell_length_b 14.006264
_cell_length_c 25.445545
_cell_angle_alpha 90.000000
_cell_angle_beta 90.000000
_cell_angle_gamma 120.000000
_cell_volume 4323.017612
_symmetry_space_group_name_H-M "P 65 2 2"
_symmetry_group_IT_number 179
_symmetry_cell_setting 'hexagonal'
loop_
_space_group_symop_operation_xyz
x,y,z
x-y,x,5/6+z
-y,x-y,2/3+z
-x,-y,1/2+z
-x+y,-x,1/3+z
y,-x+y,1/6+z
x-y,-y,-z
-x,-x+y,1/3-z
y,x,2/3-z
-y,-x,1/6-z
-x+y,y,1/2-z
x,x-y,5/6-z
loop_
_atom_site_type_symbol
_atom_site_label
_atom_site_fract_x
_atom_site_fract_y
_atom_site_fract_z
Si Si1 0.857470 0.481097 0.505781
Si Si2 0.625322 0.748976 0.312043
Si Si3 0.120245 0.176301 0.690267
Si Si4 0.660112 0.402281 0.692787
Si Si5 0.063407 0.486091 0.471536
Si Si6 0.804448 0.412812 0.217617
Si Si7 0.149124 0.344517 0.523526
O O1 0.729420 0.406643 0.487948
O O2 0.875442 0.468207 0.567641
O O3 0.880551 0.602128 0.489247
O O4 0.934698 0.443583 0.476945
O O5 0.699120 0.699120 0.333334
O O6 0.702269 0.875435 0.330272
O O7 0.512206 0.671829 0.342789
O O8 0.617673 0.752588 0.249096
O O9 0.096569 0.193138 0.750000
O O10 0.212930 0.141019 0.688419
O O11 0.000000 0.091465 0.666667
O O12 0.708537 0.417073 0.750000
O O13 0.576730 0.446495 0.683084
O O14 0.756958 0.453295 0.650226
O O15 0.101752 0.550876 0.416667
O O16 0.100520 0.396660 0.481671
O O17 0.707478 0.414956 0.250000
#
# Coordination Sequence:
#
# PCOD9583225 Si02
#       7
#    12  12  12  12  12  12  12
#     4  10  22  36  54  86 117 159 199 240 310 365
#     4  11  21  34  59  89 121 151 199 255 323 371
#     4  11  22  38  59  91 124 161 204 261 329 378
#     4  10  20  37  54  79 111 154 199 242 294 361
#     4  11  23  36  56  83 121 156 198 244 303 372
#     4  10  20  33  53  76 116 155 190 236 294 373
#     4  11  23  39  58  91 125 160 207 259 317 386
#
# _framework density 19.430869999999999
#
# number of rings (size 3 to 8) (size 9 to 14) (size 15 to 20)
#    0.000    1.429    2.857    5.571    6.000    0.000 
#    0.000    0.000    0.000    0.857    0.000    4.000 
#    0.000    0.000    0.000    0.000    0.000    0.000 
#
# Total GULP energy -468087.204746 kJ/mol
# GULP energy per Si atom -5572.466723 kJ/mol
# Density = 1.938664 g / cm^3
# Si number density = 19.430870 Si / 1000 Ang^3
#
#
#
# Elastic Constant Matrix: (Units=GPa)
#
#
# Indices 1 2 3 4 5 6 
#
# 1 44.6576 -9.6854 19.4989 0.0000 0.0000 0.0000
# 2 -9.6854 44.6576 19.4989 0.0000 0.0000 0.0000
# 3 19.4989 19.4989 99.1264 0.0000 0.0000 0.0000
# 4 0.0000 0.0000 0.0000 27.2904 0.0000 0.0000
# 5 0.0000 0.0000 0.0000 0.0000 27.2904 0.0000
# 6 0.0000 0.0000 0.0000 0.0000 0.0000 27.1715
#
#
#
# Elastic Compliance Matrix: (Units=1/GPa)
#
#
# Indices 1 2 3 4 5 6 
#
# 1 0.027515 0.009113 -0.007205 0.000000 0.000000 0.000000
# 2 0.009113 0.027515 -0.007205 0.000000 0.000000 0.000000
# 3 -0.007205 -0.007205 0.012923 0.000000 0.000000 0.000000
# 4 0.000000 0.000000 0.000000 0.036643 0.000000 0.000000
# 5 0.000000 0.000000 0.000000 0.000000 0.036643 0.000000
# 6 0.000000 0.000000 0.000000 0.000000 0.000000 0.036803
#
#
# Mechanical properties :
#
#
# Convention : Reuss Voigt Hill
#
# Bulk Modulus (GPa) = 17.43391 27.45181 22.44286
# Shear Modulus (GPa) = 24.06676 26.95906 25.51291
#
# Velocity S-wave (km/s) = 3.52317 3.72887 3.62748
# Velocity P-wave (km/s) = 5.05391 5.71821 5.39629
#
# Compressibility (1/GPa) = 0.05735948
#
# Stress axis : x y z
#
# Youngs Moduli (GPa) = 36.34367 36.34367 77.38312
#
# Poissons Ratio (x) = -0.33122 0.55755
# Poissons Ratio (y) = -0.33122 0.55755
# Poissons Ratio (z) = 0.26186 0.26186
#
# Static dielectric constant tensor:
#      x y z
#    x 1.765630 0.000000 0.000000 
#    y 0.000000 1.765630 0.000000 
#    z 0.000000 0.000000 1.728880 
# 
# From -- ./inp_files/8379.got.cif
#   From: 2010.05.17/outbox.cif.g08.bks.cpg/sg179_5_cif.got.tgz:8379.got - 2010.05.20 11:37:33.
