data_PCOD9583976
_publ_section_title
;
Structure prediction by ZEFSAII (Michael W. Deem and Ramdas Pophale) SiO2 
 PCOD9583976
Probable space group: P 62 2 2
;
_chemical_formula_sum "Si O2"
_cell_formula_units_Z 42
_cell_length_a 12.447023
_cell_length_b 12.447023
_cell_length_c 15.597917
_cell_angle_alpha 90.000000
_cell_angle_beta 90.000000
_cell_angle_gamma 120.000000
_cell_volume 2092.802381
_symmetry_space_group_name_H-M "P 62 2 2"
_symmetry_group_IT_number 180
_symmetry_cell_setting 'hexagonal'
loop_
_space_group_symop_operation_xyz
x,y,z
x-y,x,1/3+z
-y,x-y,2/3+z
-x,-y,z
-x+y,-x,1/3+z
y,-x+y,2/3+z
x-y,-y,-z
-x,-x+y,1/3-z
y,x,2/3-z
-y,-x,2/3-z
-x+y,y,-z
x,x-y,1/3-z
loop_
_atom_site_type_symbol
_atom_site_label
_atom_site_fract_x
_atom_site_fract_y
_atom_site_fract_z
Si Si1 0.840593 0.681185 0.000000
Si Si2 0.298989 0.448336 0.833834
Si Si3 0.107409 0.882711 0.932581
Si Si4 0.148839 0.695271 0.661728
O O1 0.815537 0.591822 0.079231
O O2 0.792822 0.774342 0.027661
O O3 0.362081 0.362081 0.833334
O O4 0.411030 0.588971 0.833334
O O5 0.205159 0.427264 0.756703
O O6 0.089373 0.910628 0.833334
O O7 0.204274 0.831779 0.933231
O O8 0.158230 0.000000 0.000000
O O9 0.200597 0.600299 0.666667
O O10 0.000000 0.609981 0.666667
#
# Coordination Sequence:
#
# PCOD9583976 Si02
#       4
#     6  12  12  12
#     4  12  23  42  72 100 141 186 226 288 364 426
#     4  11  25  46  67 100 142 180 235 293 356 435
#     4  11  24  41  70 110 147 187 234 291 363 437
#     4  10  22  44  69 100 139 182 235 295 347 426
#
# _framework density 20.068784999999998
#
# number of rings (size 3 to 8) (size 9 to 14) (size 15 to 20)
#    0.000    1.143    2.857    3.857    2.000    2.286 
#    0.000    2.857    0.000    0.000    0.000    0.000 
#    0.000    0.000    0.000    0.000    0.000    0.000 
#
# Total GULP energy -234037.702786 kJ/mol
# GULP energy per Si atom -5572.326257 kJ/mol
# Density = 2.002311 g / cm^3
# Si number density = 20.068785 Si / 1000 Ang^3
#
#
#
# Elastic Constant Matrix: (Units=GPa)
#
#
# Indices 1 2 3 4 5 6 
#
# 1 104.6359 57.4605 58.8413 0.0000 0.0000 0.0000
# 2 57.4605 104.6359 58.8413 0.0000 0.0000 0.0000
# 3 58.8413 58.8413 173.2532 0.0000 0.0000 0.0000
# 4 0.0000 0.0000 0.0000 41.7349 0.0000 0.0000
# 5 0.0000 0.0000 0.0000 0.0000 41.7349 0.0000
# 6 0.0000 0.0000 0.0000 0.0000 0.0000 23.5877
#
#
#
# Elastic Compliance Matrix: (Units=1/GPa)
#
#
# Indices 1 2 3 4 5 6 
#
# 1 0.014693 -0.006505 -0.002781 0.000000 0.000000 0.000000
# 2 -0.006505 0.014693 -0.002781 0.000000 0.000000 0.000000
# 3 -0.002781 -0.002781 0.007661 0.000000 0.000000 0.000000
# 4 0.000000 0.000000 0.000000 0.023961 0.000000 0.000000
# 5 0.000000 0.000000 0.000000 0.000000 0.023961 0.000000
# 6 0.000000 0.000000 0.000000 0.000000 0.000000 0.042395
#
#
# Mechanical properties :
#
#
# Convention : Reuss Voigt Hill
#
# Bulk Modulus (GPa) = 77.43853 81.42345 79.43099
# Shear Modulus (GPa) = 32.09238 35.23699 33.66468
#
# Velocity S-wave (km/s) = 4.00324 4.19479 4.10013
# Velocity P-wave (km/s) = 7.74843 8.00761 7.87909
#
# Compressibility (1/GPa) = 0.01291347
#
# Stress axis : x y z
#
# Youngs Moduli (GPa) = 68.06060 68.06060 130.53417
#
# Poissons Ratio (x) = 0.44271 0.36300
# Poissons Ratio (y) = 0.44271 0.36300
# Poissons Ratio (z) = 0.18927 0.18927
#
# Static dielectric constant tensor:
#      x y z
#    x 1.737890 0.000000 0.000000 
#    y 0.000000 1.737890 0.000000 
#    z 0.000000 0.000000 1.742500 
# 
# From -- ./inp_files/7325.got.cif
#   From: 2010.05.17/outbox.cif.g08.bks.cpg/sg180_4_cif.got.tgz:7325.got - 2010.05.20 11:43:55.
