data_PCOD9583994
_publ_section_title
;
Structure prediction by ZEFSAII (Michael W. Deem and Ramdas Pophale) SiO2 
 PCOD9583994
Probable space group: P 62 2 2
;
_chemical_formula_sum "Si O2"
_cell_formula_units_Z 66
_cell_length_a 21.970859
_cell_length_b 21.970859
_cell_length_c 7.776741
_cell_angle_alpha 90.000000
_cell_angle_beta 90.000000
_cell_angle_gamma 120.000000
_cell_volume 3251.040209
_symmetry_space_group_name_H-M "P 62 2 2"
_symmetry_group_IT_number 180
_symmetry_cell_setting 'hexagonal'
loop_
_space_group_symop_operation_xyz
x,y,z
x-y,x,1/3+z
-y,x-y,2/3+z
-x,-y,z
-x+y,-x,1/3+z
y,-x+y,2/3+z
x-y,-y,-z
-x,-x+y,1/3-z
y,x,2/3-z
-y,-x,2/3-z
-x+y,y,-z
x,x-y,1/3-z
loop_
_atom_site_type_symbol
_atom_site_label
_atom_site_fract_x
_atom_site_fract_y
_atom_site_fract_z
Si Si1 0.499437 0.192132 0.281672
Si Si2 0.037433 0.452691 0.494070
Si Si3 0.636022 0.363979 0.833334
Si Si4 0.217104 0.857994 0.506161
Si Si5 0.057626 0.211418 0.310201
Si Si6 0.000000 0.645577 0.166667
Si Si7 0.840550 0.000000 0.000000
O O1 0.520242 0.260121 0.166667
O O2 0.492451 0.123450 0.180375
O O3 0.557709 0.219839 0.430495
O O4 0.425109 0.173021 0.366694
O O5 0.000000 0.500000 0.475610
O O6 0.000000 0.408649 0.666667
O O7 0.017149 0.404018 0.329128
O O8 0.637139 0.318570 0.666667
O O9 0.185471 0.814530 0.333334
O O10 0.163604 0.875875 0.604655
O O11 0.280983 0.933497 0.454169
O O12 0.086405 0.157052 0.298846
O O13 0.022332 0.206349 0.494567
O O14 0.000000 0.191258 0.166667
#
# Coordination Sequence:
#
# PCOD9583994 Si02
#       7
#    12  12   6  12  12   6   6
#     4  11  27  46  71 112 144 189 247 304 371 444
#     4  10  24  44  72 103 140 187 233 297 358 437
#     4  12  26  50  75 108 148 196 250 302 374 452
#     4  11  24  42  67  97 138 185 228 294 357 426
#     4  11  22  44  64  95 131 174 230 280 353 425
#     4  10  23  42  64 104 132 181 228 282 358 422
#     4  10  24  38  65  94 124 176 215 282 346 408
#
# _framework density 20.301195
#
# number of rings (size 3 to 8) (size 9 to 14) (size 15 to 20)
#    0.000    1.273    1.818    2.455   10.182    2.909 
#    6.545    5.455    0.000    0.000    0.000    0.000 
#    0.000    0.000    0.000    0.000    0.000    0.000 
#
# Total GULP energy -368105.073411 kJ/mol
# GULP energy per Si atom -5577.349597 kJ/mol
# Density = 2.025499 g / cm^3
# Si number density = 20.301195 Si / 1000 Ang^3
#
#
#
# Elastic Constant Matrix: (Units=GPa)
#
#
# Indices 1 2 3 4 5 6 
#
# 1 96.7819 45.2561 44.6918 0.0000 0.0000 0.0000
# 2 45.2561 96.7819 44.6918 0.0000 0.0000 0.0000
# 3 44.6918 44.6918 120.6725 0.0000 0.0000 0.0000
# 4 0.0000 0.0000 0.0000 31.3830 0.0000 0.0000
# 5 0.0000 0.0000 0.0000 0.0000 31.3830 0.0000
# 6 0.0000 0.0000 0.0000 0.0000 0.0000 25.7629
#
#
#
# Elastic Compliance Matrix: (Units=1/GPa)
#
#
# Indices 1 2 3 4 5 6 
#
# 1 0.014294 -0.005114 -0.003400 0.000000 0.000000 0.000000
# 2 -0.005114 0.014294 -0.003400 0.000000 0.000000 0.000000
# 3 -0.003400 -0.003400 0.010805 0.000000 0.000000 0.000000
# 4 0.000000 0.000000 0.000000 0.031864 0.000000 0.000000
# 5 0.000000 0.000000 0.000000 0.000000 0.031864 0.000000
# 6 0.000000 0.000000 0.000000 0.000000 0.000000 0.038816
#
#
# Mechanical properties :
#
#
# Convention : Reuss Voigt Hill
#
# Bulk Modulus (GPa) = 64.24415 64.83508 64.53962
# Shear Modulus (GPa) = 29.24785 29.67889 29.46337
#
# Velocity S-wave (km/s) = 3.79977 3.82767 3.81374
# Velocity P-wave (km/s) = 7.13899 7.17918 7.15911
#
# Compressibility (1/GPa) = 0.01556562
#
# Stress axis : x y z
#
# Youngs Moduli (GPa) = 69.96035 69.96035 92.54829
#
# Poissons Ratio (x) = 0.35777 0.31465
# Poissons Ratio (y) = 0.35777 0.31465
# Poissons Ratio (z) = 0.23785 0.23785
#
# Static dielectric constant tensor:
#      x y z
#    x 1.744990 0.000000 0.000000 
#    y 0.000000 1.744990 0.000000 
#    z 0.000000 0.000000 1.738720 
# 
# From -- ./inp_files/3276.got.cif
#   From: 2010.05.17/outbox.cif.g08.bks.cpg/sg180_2_cif.got.tgz:3276.got - 2010.05.20 11:43:55.
