data_PCOD9583586
_publ_section_title
;
Structure prediction by ZEFSAII (Michael W. Deem and Ramdas Pophale) SiO2 
 PCOD9583586
Probable space group: P 65 2 2
;
_chemical_formula_sum "Si O2"
_cell_formula_units_Z 42
_cell_length_a 11.699141
_cell_length_b 11.699141
_cell_length_c 15.612276
_cell_angle_alpha 90.000000
_cell_angle_beta 90.000000
_cell_angle_gamma 120.000000
_cell_volume 1850.566953
_symmetry_space_group_name_H-M "P 65 2 2"
_symmetry_group_IT_number 179
_symmetry_cell_setting 'hexagonal'
loop_
_space_group_symop_operation_xyz
x,y,z
x-y,x,5/6+z
-y,x-y,2/3+z
-x,-y,1/2+z
-x+y,-x,1/3+z
y,-x+y,1/6+z
x-y,-y,-z
-x,-x+y,1/3-z
y,x,2/3-z
-y,-x,1/6-z
-x+y,y,1/2-z
x,x-y,5/6-z
loop_
_atom_site_type_symbol
_atom_site_label
_atom_site_fract_x
_atom_site_fract_y
_atom_site_fract_z
Si Si1 0.649038 0.625722 0.069639
Si Si2 0.654454 0.771228 0.774944
Si Si3 0.440914 0.720457 0.916667
Si Si4 0.716066 0.161258 0.492128
O O1 0.506428 0.493573 0.083334
O O2 0.671783 0.767607 0.096469
O O3 0.772125 0.631113 0.117568
O O4 0.669829 0.625755 0.967492
O O5 0.765904 0.765904 0.833334
O O6 0.531814 0.738356 0.835974
O O7 0.352607 0.563678 0.910882
O O8 0.755086 0.244915 0.583334
O O9 0.632136 0.000000 0.500000
#
# Coordination Sequence:
#
# PCOD9583586 Si02
#       4
#    12  12   6  12
#     4  12  27  47  78 111 154 209 261 326 402 475
#     4  12  26  49  73 116 152 203 262 323 396 484
#     4  12  26  42  80 106 152 186 252 336 384 480
#     4  12  28  49  73 114 155 201 261 329 404 477
#
# _framework density 22.695746
#
# number of rings (size 3 to 8) (size 9 to 14) (size 15 to 20)
#    0.000    0.000    4.286    4.286    8.000    0.000 
#    0.000    8.571    0.000    0.000    0.000    0.000 
#    0.000    0.000    0.000    0.000    0.000    0.000 
#
# Total GULP energy -234048.773669 kJ/mol
# GULP energy per Si atom -5572.589849 kJ/mol
# Density = 2.264409 g / cm^3
# Si number density = 22.695746 Si / 1000 Ang^3
#
#
#
# Elastic Constant Matrix: (Units=GPa)
#
#
# Indices 1 2 3 4 5 6 
#
# 1 148.8485 53.4912 6.1242 0.0000 0.0000 0.0000
# 2 53.4912 148.8485 6.1242 0.0000 0.0000 0.0000
# 3 6.1242 6.1242 85.8611 0.0000 0.0000 0.0000
# 4 0.0000 0.0000 0.0000 27.4636 0.0000 0.0000
# 5 0.0000 0.0000 0.0000 0.0000 27.4636 0.0000
# 6 0.0000 0.0000 0.0000 0.0000 0.0000 47.6787
#
#
#
# Elastic Compliance Matrix: (Units=1/GPa)
#
#
# Indices 1 2 3 4 5 6 
#
# 1 0.007725 -0.002762 -0.000354 0.000000 0.000000 0.000000
# 2 -0.002762 0.007725 -0.000354 0.000000 0.000000 0.000000
# 3 -0.000354 -0.000354 0.011697 0.000000 0.000000 0.000000
# 4 0.000000 0.000000 0.000000 0.036412 0.000000 0.000000
# 5 0.000000 0.000000 0.000000 0.000000 0.036412 0.000000
# 6 0.000000 0.000000 0.000000 0.000000 0.000000 0.020974
#
#
# Mechanical properties :
#
#
# Convention : Reuss Voigt Hill
#
# Bulk Modulus (GPa) = 49.48462 57.22635 53.35549
# Shear Modulus (GPa) = 37.14138 41.70907 39.42522
#
# Velocity S-wave (km/s) = 4.04975 4.29155 4.17240
# Velocity P-wave (km/s) = 6.61196 7.05874 6.83900
#
# Compressibility (1/GPa) = 0.02020830
#
# Stress axis : x y z
#
# Youngs Moduli (GPa) = 129.44578 129.44578 85.49042
#
# Poissons Ratio (x) = 0.35748 0.03027
# Poissons Ratio (y) = 0.35748 0.03027
# Poissons Ratio (z) = 0.04583 0.04583
#
# Static dielectric constant tensor:
#      x y z
#    x 2.075680 0.000000 0.000000 
#    y 0.000000 2.075680 0.000000 
#    z 0.000000 0.000000 1.928540 
# 
# From -- ./inp_files/6544.got.cif
#   From: 2010.05.17/outbox.cif.g08.bks.cpg/sg179_4_cif.got.tgz:6544.got - 2010.05.20 11:37:33.
