data_PCOD9583566
_publ_section_title
;
Structure prediction by ZEFSAII (Michael W. Deem and Ramdas Pophale) SiO2 
 PCOD9583566
Probable space group: P 65 2 2
;
_chemical_formula_sum "Si O2"
_cell_formula_units_Z 60
_cell_length_a 15.220471
_cell_length_b 15.220471
_cell_length_c 15.041385
_cell_angle_alpha 90.000000
_cell_angle_beta 90.000000
_cell_angle_gamma 120.000000
_cell_volume 3017.690136
_symmetry_space_group_name_H-M "P 65 2 2"
_symmetry_group_IT_number 179
_symmetry_cell_setting 'hexagonal'
loop_
_space_group_symop_operation_xyz
x,y,z
x-y,x,5/6+z
-y,x-y,2/3+z
-x,-y,1/2+z
-x+y,-x,1/3+z
y,-x+y,1/6+z
x-y,-y,-z
-x,-x+y,1/3-z
y,x,2/3-z
-y,-x,1/6-z
-x+y,y,1/2-z
x,x-y,5/6-z
loop_
_atom_site_type_symbol
_atom_site_label
_atom_site_fract_x
_atom_site_fract_y
_atom_site_fract_z
Si Si1 0.466205 0.920447 0.353869
Si Si2 0.274162 0.548324 0.250000
Si Si3 0.516491 0.868224 0.582135
Si Si4 0.752729 0.612869 0.600735
Si Si5 0.527048 0.763524 0.416667
Si Si6 0.955080 0.292620 0.265110
O O1 0.473499 0.946997 0.250000
O O2 0.474376 0.820480 0.368763
O O3 0.358475 0.901131 0.384958
O O4 0.550392 0.018487 0.408214
O O5 0.214956 0.611302 0.238035
O O6 0.256330 0.473487 0.168106
O O7 0.557961 0.860823 0.677698
O O8 0.571501 0.841402 0.501970
O O9 0.710076 0.672669 0.657541
O O10 0.867515 0.690068 0.572062
O O11 0.000000 0.317931 0.166667
#
# Coordination Sequence:
#
# PCOD9583566 Si02
#       6
#    12   6  12  12   6  12
#     4  12  23  47  63  91 144 184 237 306 358 433
#     4  12  22  40  62  98 133 191 240 286 358 426
#     4  12  26  41  64  95 139 191 239 300 360 436
#     4  12  24  42  68  93 137 182 234 292 363 438
#     4  12  28  38  66  94 129 189 248 296 360 420
#     4  12  22  42  63  96 134 181 226 291 359 430
#
# _framework density 19.882757000000002
#
# number of rings (size 3 to 8) (size 9 to 14) (size 15 to 20)
#    0.000    0.000    6.000    4.800    7.000    0.000 
#    0.000    0.000    0.000    0.000    0.000    0.000 
#   12.000    0.000    0.000    0.000    0.000    0.000 
#
# Total GULP energy -334672.240543 kJ/mol
# GULP energy per Si atom -5577.870676 kJ/mol
# Density = 1.983750 g / cm^3
# Si number density = 19.882757 Si / 1000 Ang^3
#
#
#
# Elastic Constant Matrix: (Units=GPa)
#
#
# Indices 1 2 3 4 5 6 
#
# 1 73.6725 39.7376 34.0594 0.0000 0.0000 0.0000
# 2 39.7376 73.6725 34.0594 0.0000 0.0000 0.0000
# 3 34.0594 34.0594 175.3240 0.0000 0.0000 0.0000
# 4 0.0000 0.0000 0.0000 43.8221 0.0000 0.0000
# 5 0.0000 0.0000 0.0000 0.0000 43.8221 0.0000
# 6 0.0000 0.0000 0.0000 0.0000 0.0000 16.9674
#
#
#
# Elastic Compliance Matrix: (Units=1/GPa)
#
#
# Indices 1 2 3 4 5 6 
#
# 1 0.019725 -0.009743 -0.001939 0.000000 0.000000 0.000000
# 2 -0.009743 0.019725 -0.001939 0.000000 0.000000 0.000000
# 3 -0.001939 -0.001939 0.006457 0.000000 0.000000 0.000000
# 4 0.000000 0.000000 0.000000 0.022820 0.000000 0.000000
# 5 0.000000 0.000000 0.000000 0.000000 0.022820 0.000000
# 6 0.000000 0.000000 0.000000 0.000000 0.000000 0.058936
#
#
# Mechanical properties :
#
#
# Convention : Reuss Voigt Hill
#
# Bulk Modulus (GPa) = 53.57635 59.82020 56.69827
# Shear Modulus (GPa) = 27.18166 35.24317 31.21242
#
# Velocity S-wave (km/s) = 3.70144 4.21473 3.96640
# Velocity P-wave (km/s) = 6.72846 7.33738 7.03950
#
# Compressibility (1/GPa) = 0.01866495
#
# Stress axis : x y z
#
# Youngs Moduli (GPa) = 50.69641 50.69641 154.86649
#
# Poissons Ratio (x) = 0.49393 0.30032
# Poissons Ratio (y) = 0.49393 0.30032
# Poissons Ratio (z) = 0.09831 0.09831
#
# Static dielectric constant tensor:
#      x y z
#    x 1.739990 0.000000 0.000000 
#    y 0.000000 1.739990 0.000000 
#    z 0.000000 0.000000 1.820850 
# 
# From -- ./inp_files/5878.got.cif
#   From: 2010.05.17/outbox.cif.g08.bks.cpg/sg179_3_cif.got.tgz:5878.got - 2010.05.20 11:37:33.
