data_PCOD9583471
_publ_section_title
;
Structure prediction by ZEFSAII (Michael W. Deem and Ramdas Pophale) SiO2 
 PCOD9583471
Probable space group: P 65 2 2
;
_chemical_formula_sum "Si O2"
_cell_formula_units_Z 60
_cell_length_a 15.621372
_cell_length_b 15.621372
_cell_length_c 12.140741
_cell_angle_alpha 90.000000
_cell_angle_beta 90.000000
_cell_angle_gamma 120.000000
_cell_volume 2565.749041
_symmetry_space_group_name_H-M "P 65 2 2"
_symmetry_group_IT_number 179
_symmetry_cell_setting 'hexagonal'
loop_
_space_group_symop_operation_xyz
x,y,z
x-y,x,5/6+z
-y,x-y,2/3+z
-x,-y,1/2+z
-x+y,-x,1/3+z
y,-x+y,1/6+z
x-y,-y,-z
-x,-x+y,1/3-z
y,x,2/3-z
-y,-x,1/6-z
-x+y,y,1/2-z
x,x-y,5/6-z
loop_
_atom_site_type_symbol
_atom_site_label
_atom_site_fract_x
_atom_site_fract_y
_atom_site_fract_z
Si Si1 0.437619 0.437619 0.833334
Si Si2 0.736817 0.368409 0.416667
Si Si3 0.320801 0.027628 0.806980
Si Si4 0.830094 0.915047 0.416667
Si Si5 0.000000 0.849551 0.666667
Si Si6 0.373429 0.817759 0.487392
Si Si7 0.801811 0.162887 0.902067
O O1 0.356846 0.396715 0.736573
O O2 0.462765 0.544513 0.872735
O O3 0.655142 0.398386 0.385982
O O4 0.799824 0.413242 0.525543
O O5 0.260782 0.909772 0.779229
O O6 0.239291 0.051187 0.856250
O O7 0.369205 0.107341 0.708288
O O8 0.895502 0.895502 0.333334
O O9 0.081260 0.826941 0.718947
O O10 0.938171 0.876342 0.750000
O O11 0.268561 0.814130 0.478780
#
# Coordination Sequence:
#
# PCOD9583471 Si02
#       7
#     6   6  12   6   6  12  12
#     4  12  25  44  75 106 142 190 246 327 396 469
#     4  10  24  48  72 103 144 201 254 326 388 480
#     4  12  24  44  72 107 148 196 247 324 385 471
#     4  12  24  46  72 113 152 199 252 300 376 474
#     4  12  27  50  71 104 152 206 246 305 374 457
#     4  11  25  45  73 108 145 195 259 323 400 468
#     4  12  25  45  70 105 148 194 254 312 387 462
#
# _framework density 23.384983999999999
#
# number of rings (size 3 to 8) (size 9 to 14) (size 15 to 20)
#    0.000    0.400    5.000    3.000    1.400    4.800 
#    7.200    2.000    0.000    0.000    0.000    0.000 
#    0.000    0.000    0.000    0.000    0.000    0.000 
#
# Total GULP energy -335264.740151 kJ/mol
# GULP energy per Si atom -5587.745669 kJ/mol
# Density = 2.333176 g / cm^3
# Si number density = 23.384984 Si / 1000 Ang^3
#
#
#
# Elastic Constant Matrix: (Units=GPa)
#
#
# Indices 1 2 3 4 5 6 
#
# 1 90.4181 16.2409 5.1249 0.0000 0.0000 0.0000
# 2 16.2409 90.4181 5.1249 0.0000 0.0000 0.0000
# 3 5.1249 5.1249 51.0677 0.0000 0.0000 0.0000
# 4 0.0000 0.0000 0.0000 106.1254 0.0000 0.0000
# 5 0.0000 0.0000 0.0000 0.0000 106.1254 0.0000
# 6 0.0000 0.0000 0.0000 0.0000 0.0000 37.0886
#
#
#
# Elastic Compliance Matrix: (Units=1/GPa)
#
#
# Indices 1 2 3 4 5 6 
#
# 1 0.011474 -0.002007 -0.000950 0.000000 0.000000 0.000000
# 2 -0.002007 0.011474 -0.000950 0.000000 0.000000 0.000000
# 3 -0.000950 -0.000950 0.019773 0.000000 0.000000 0.000000
# 4 0.000000 0.000000 0.000000 0.009423 0.000000 0.000000
# 5 0.000000 0.000000 0.000000 0.000000 0.009423 0.000000
# 6 0.000000 0.000000 0.000000 0.000000 0.000000 0.026962
#
#
# Mechanical properties :
#
#
# Convention : Reuss Voigt Hill
#
# Bulk Modulus (GPa) = 28.64817 31.65393 30.15105
# Shear Modulus (GPa) = 46.30540 63.56208 54.93374
#
# Velocity S-wave (km/s) = 4.45470 5.21917 4.85201
# Velocity P-wave (km/s) = 6.22385 7.06293 6.65663
#
# Compressibility (1/GPa) = 0.03490624
#
# Stress axis : x y z
#
# Youngs Moduli (GPa) = 87.15279 87.15279 50.57519
#
# Poissons Ratio (x) = 0.17493 0.04805
# Poissons Ratio (y) = 0.17493 0.04805
# Poissons Ratio (z) = 0.08280 0.08280
#
# Static dielectric constant tensor:
#      x y z
#    x 1.756200 0.000000 0.000000 
#    y 0.000000 1.756200 0.000000 
#    z 0.000000 0.000000 2.041500 
# 
# From -- ./inp_files/5901.got.cif
#   From: 2010.05.17/outbox.cif.g08.bks.cpg/sg179_3_cif.got.tgz:5901.got - 2010.05.20 11:37:33.
