data_PCOD9583144
_publ_section_title
;
Structure prediction by ZEFSAII (Michael W. Deem and Ramdas Pophale) SiO2 
 PCOD9583144
Probable space group: P 65 2 2
;
_chemical_formula_sum "Si O2"
_cell_formula_units_Z 36
_cell_length_a 16.831867
_cell_length_b 16.831867
_cell_length_c 7.869745
_cell_angle_alpha 90.000000
_cell_angle_beta 90.000000
_cell_angle_gamma 120.000000
_cell_volume 1930.882621
_symmetry_space_group_name_H-M "P 65 2 2"
_symmetry_group_IT_number 179
_symmetry_cell_setting 'hexagonal'
loop_
_space_group_symop_operation_xyz
x,y,z
x-y,x,5/6+z
-y,x-y,2/3+z
-x,-y,1/2+z
-x+y,-x,1/3+z
y,-x+y,1/6+z
x-y,-y,-z
-x,-x+y,1/3-z
y,x,2/3-z
-y,-x,1/6-z
-x+y,y,1/2-z
x,x-y,5/6-z
loop_
_atom_site_type_symbol
_atom_site_label
_atom_site_fract_x
_atom_site_fract_y
_atom_site_fract_z
Si Si1 0.426669 0.394389 0.025725
Si Si2 0.443404 0.643047 0.345548
Si Si3 0.144199 0.452225 0.320643
O O1 0.504538 0.495463 0.083334
O O2 0.343678 0.380367 0.145899
O O3 0.397013 0.397013 0.833334
O O4 0.482564 0.341752 0.992958
O O5 0.394971 0.697486 0.416667
O O6 0.497420 0.681402 0.168500
O O7 0.375249 0.535727 0.305396
O O8 0.206347 0.412693 0.250000
#
# Coordination Sequence:
#
# PCOD9583144 Si02
#       3
#    12  12  12
#     4  10  18  34  48  63  91 127 160 207 266 309
#     4  10  22  32  48  67  92 125 163 213 265 304
#     4  10  21  34  46  69  93 121 166 215 262 303
#
# _framework density 18.644321999999999
#
# number of rings (size 3 to 8) (size 9 to 14) (size 15 to 20)
#    0.000    2.000    6.667    0.000    9.333    0.000 
#    0.000    0.000    0.000    0.000    0.000    0.000 
#    0.000    0.000    0.000    0.000    0.000    0.000 
#
# Total GULP energy -200462.627422 kJ/mol
# GULP energy per Si atom -5568.406317 kJ/mol
# Density = 1.860189 g / cm^3
# Si number density = 18.644322 Si / 1000 Ang^3
#
#
#
# Elastic Constant Matrix: (Units=GPa)
#
#
# Indices 1 2 3 4 5 6 
#
# 1 54.4242 18.1959 30.6512 0.0000 0.0000 0.0000
# 2 18.1959 54.4242 30.6512 0.0000 0.0000 0.0000
# 3 30.6512 30.6512 118.1810 0.0000 0.0000 0.0000
# 4 0.0000 0.0000 0.0000 27.4382 0.0000 0.0000
# 5 0.0000 0.0000 0.0000 0.0000 27.4382 0.0000
# 6 0.0000 0.0000 0.0000 0.0000 0.0000 18.1141
#
#
#
# Elastic Compliance Matrix: (Units=1/GPa)
#
#
# Indices 1 2 3 4 5 6 
#
# 1 0.022616 -0.004986 -0.004573 0.000000 0.000000 0.000000
# 2 -0.004986 0.022616 -0.004573 0.000000 0.000000 0.000000
# 3 -0.004573 -0.004573 0.010833 0.000000 0.000000 0.000000
# 4 0.000000 0.000000 0.000000 0.036446 0.000000 0.000000
# 5 0.000000 0.000000 0.000000 0.000000 0.036446 0.000000
# 6 0.000000 0.000000 0.000000 0.000000 0.000000 0.055206
#
#
# Mechanical properties :
#
#
# Convention : Reuss Voigt Hill
#
# Bulk Modulus (GPa) = 35.96641 42.89179 39.42910
# Shear Modulus (GPa) = 22.55364 24.43350 23.49357
#
# Velocity S-wave (km/s) = 3.48182 3.62402 3.55363
# Velocity P-wave (km/s) = 5.95792 6.36919 6.16698
#
# Compressibility (1/GPa) = 0.02780372
#
# Stress axis : x y z
#
# Youngs Moduli (GPa) = 44.21552 44.21552 92.30670
#
# Poissons Ratio (x) = 0.22047 0.42208
# Poissons Ratio (y) = 0.22047 0.42208
# Poissons Ratio (z) = 0.20218 0.20218
#
# Static dielectric constant tensor:
#      x y z
#    x 1.720100 0.000000 0.000000 
#    y 0.000000 1.720100 0.000000 
#    z 0.000000 0.000000 1.750710 
# 
# From -- ./inp_files/2291.got.cif
#   From: 2010.05.17/outbox.cif.g08.bks.cpg/sg179_2_cif.got.tgz:2291.got - 2010.05.20 11:37:33.
