data_PCOD9583416
_publ_section_title
;
Structure prediction by ZEFSAII (Michael W. Deem and Ramdas Pophale) SiO2 
 PCOD9583416
Probable space group: P 65 2 2
;
_chemical_formula_sum "Si O2"
_cell_formula_units_Z 72
_cell_length_a 14.732622
_cell_length_b 14.732622
_cell_length_c 18.002789
_cell_angle_alpha 90.000000
_cell_angle_beta 90.000000
_cell_angle_gamma 120.000000
_cell_volume 3384.001255
_symmetry_space_group_name_H-M "P 65 2 2"
_symmetry_group_IT_number 179
_symmetry_cell_setting 'hexagonal'
loop_
_space_group_symop_operation_xyz
x,y,z
x-y,x,5/6+z
-y,x-y,2/3+z
-x,-y,1/2+z
-x+y,-x,1/3+z
y,-x+y,1/6+z
x-y,-y,-z
-x,-x+y,1/3-z
y,x,2/3-z
-y,-x,1/6-z
-x+y,y,1/2-z
x,x-y,5/6-z
loop_
_atom_site_type_symbol
_atom_site_label
_atom_site_fract_x
_atom_site_fract_y
_atom_site_fract_z
Si Si1 0.146155 0.324095 0.959851
Si Si2 0.613185 0.928516 0.072493
Si Si3 0.755126 0.388515 0.642477
Si Si4 0.687574 0.752949 0.466561
Si Si5 0.489007 0.464322 0.002470
Si Si6 0.804364 0.464429 0.042460
O O1 0.223595 0.277344 0.948277
O O2 0.075756 0.293468 0.887033
O O3 0.219276 0.450003 0.956906
O O4 0.089358 0.309970 0.039261
O O5 0.508878 0.818999 0.050471
O O6 0.557232 0.979195 0.120875
O O7 0.667499 0.000000 0.000000
O O8 0.705882 0.294119 0.583334
O O9 0.647295 0.368055 0.679096
O O10 0.825478 0.376258 0.705296
O O11 0.693855 0.846928 0.416667
O O12 0.572143 0.648615 0.462808
O O13 0.396443 0.491085 0.009109
O O14 0.534323 0.465678 0.083334
#
# Coordination Sequence:
#
# PCOD9583416 Si02
#       6
#    12  12  12  12  12  12
#     4  11  25  46  69 100 135 180 231 301 367 429
#     4  12  25  41  64 102 144 190 236 287 351 435
#     4  11  22  36  59  91 135 181 234 267 323 413
#     4  11  26  45  74 100 137 179 241 299 366 429
#     4  11  23  40  64  95 144 183 227 283 349 426
#     4  10  23  38  61  92 129 184 226 273 335 409
#
# _framework density 21.276588
#
# number of rings (size 3 to 8) (size 9 to 14) (size 15 to 20)
#    0.000    1.000    5.000    1.000    7.000    0.000 
#    0.000    0.000    0.000    4.000    0.000    0.000 
#    0.000    0.000    0.000    0.000    0.000    0.000 
#
# Total GULP energy -401852.645570 kJ/mol
# GULP energy per Si atom -5581.286744 kJ/mol
# Density = 2.122816 g / cm^3
# Si number density = 21.276588 Si / 1000 Ang^3
#
#
#
# Elastic Constant Matrix: (Units=GPa)
#
#
# Indices 1 2 3 4 5 6 
#
# 1 55.9726 10.6869 13.4483 0.0000 0.0000 0.0000
# 2 10.6869 55.9726 13.4483 0.0000 0.0000 0.0000
# 3 13.4483 13.4483 98.0091 0.0000 0.0000 0.0000
# 4 0.0000 0.0000 0.0000 36.7372 0.0000 0.0000
# 5 0.0000 0.0000 0.0000 0.0000 36.7372 0.0000
# 6 0.0000 0.0000 0.0000 0.0000 0.0000 22.6428
#
#
#
# Elastic Compliance Matrix: (Units=1/GPa)
#
#
# Indices 1 2 3 4 5 6 
#
# 1 0.018981 -0.003101 -0.002179 0.000000 0.000000 0.000000
# 2 -0.003101 0.018981 -0.002179 0.000000 0.000000 0.000000
# 3 -0.002179 -0.002179 0.010801 0.000000 0.000000 0.000000
# 4 0.000000 0.000000 0.000000 0.027220 0.000000 0.000000
# 5 0.000000 0.000000 0.000000 0.000000 0.027220 0.000000
# 6 0.000000 0.000000 0.000000 0.000000 0.000000 0.044164
#
#
# Mechanical properties :
#
#
# Convention : Reuss Voigt Hill
#
# Bulk Modulus (GPa) = 29.54514 31.68012 30.61263
# Shear Modulus (GPa) = 28.80705 30.71481 29.76093
#
# Velocity S-wave (km/s) = 3.68357 3.80359 3.74406
# Velocity P-wave (km/s) = 5.65756 5.84908 5.75412
#
# Compressibility (1/GPa) = 0.03384652
#
# Stress axis : x y z
#
# Youngs Moduli (GPa) = 52.68300 52.68300 92.58283
#
# Poissons Ratio (x) = 0.16335 0.20175
# Poissons Ratio (y) = 0.16335 0.20175
# Poissons Ratio (z) = 0.11480 0.11480
#
# Static dielectric constant tensor:
#      x y z
#    x 1.774190 0.000000 0.000000 
#    y 0.000000 1.774190 0.000000 
#    z 0.000000 0.000000 1.822260 
# 
# From -- ./inp_files/6807.got.cif
#   From: 2010.05.17/outbox.cif.g08.bks.cpg/sg179_4_cif.got.tgz:6807.got - 2010.05.20 11:37:33.
