data_PCOD9583926
_publ_section_title
;
Structure prediction by ZEFSAII (Michael W. Deem and Ramdas Pophale) SiO2 
 PCOD9583926
Probable space group: P 62 2 2
;
_chemical_formula_sum "Si O2"
_cell_formula_units_Z 33
_cell_length_a 8.151496
_cell_length_b 8.151496
_cell_length_c 25.803567
_cell_angle_alpha 90.000000
_cell_angle_beta 90.000000
_cell_angle_gamma 120.000000
_cell_volume 1484.858320
_symmetry_space_group_name_H-M "P 62 2 2"
_symmetry_group_IT_number 180
_symmetry_cell_setting 'hexagonal'
loop_
_space_group_symop_operation_xyz
x,y,z
x-y,x,1/3+z
-y,x-y,2/3+z
-x,-y,z
-x+y,-x,1/3+z
y,-x+y,2/3+z
x-y,-y,-z
-x,-x+y,1/3-z
y,x,2/3-z
-y,-x,2/3-z
-x+y,y,-z
x,x-y,1/3-z
loop_
_atom_site_type_symbol
_atom_site_label
_atom_site_fract_x
_atom_site_fract_y
_atom_site_fract_z
Si Si1 0.000000 0.000000 0.333334
Si Si2 0.500000 0.500000 0.247429
Si Si3 0.393282 0.107978 0.388369
Si Si4 0.841685 0.158316 0.833334
Si Si5 0.753084 0.000000 0.500000
O O1 0.184785 0.040697 0.366180
O O2 0.333426 0.493998 0.281334
O O3 0.570053 0.684501 0.210050
O O4 0.378280 0.076928 0.450545
O O5 0.500000 0.000000 0.366906
O O6 0.049675 0.221000 0.855385
#
# Coordination Sequence:
#
# PCOD9583926 Si02
#       5
#     3   6  12   6   6
#     4  12  28  48  60  98 140 188 228 284 344 418
#     4  10  22  37  62 106 126 172 228 282 342 429
#     4  11  25  44  72  96 136 180 230 283 350 417
#     4   9  18  32  59  94 140 158 205 286 340 399
#     4   9  19  42  66  98 128 172 219 287 346 401
#
# _framework density 22.224345
#
# number of rings (size 3 to 8) (size 9 to 14) (size 15 to 20)
#    0.000    1.818    0.000    4.909   10.182    3.636 
#    0.000    0.000    0.000    0.000    0.000    0.000 
#    0.000    0.000    0.000    0.000    0.000    0.000 
#
# Total GULP energy -184042.415913 kJ/mol
# GULP energy per Si atom -5577.042906 kJ/mol
# Density = 2.217376 g / cm^3
# Si number density = 22.224345 Si / 1000 Ang^3
#
#
#
# Elastic Constant Matrix: (Units=GPa)
#
#
# Indices 1 2 3 4 5 6 
#
# 1 156.0590 92.0382 42.5366 0.0000 0.0000 0.0000
# 2 92.0382 156.0590 42.5366 0.0000 0.0000 0.0000
# 3 42.5366 42.5366 80.2598 0.0000 0.0000 0.0000
# 4 0.0000 0.0000 0.0000 6.6545 0.0000 0.0000
# 5 0.0000 0.0000 0.0000 0.0000 6.6545 0.0000
# 6 0.0000 0.0000 0.0000 0.0000 0.0000 32.0104
#
#
#
# Elastic Compliance Matrix: (Units=1/GPa)
#
#
# Indices 1 2 3 4 5 6 
#
# 1 0.010273 -0.005347 -0.002611 0.000000 0.000000 0.000000
# 2 -0.005347 0.010273 -0.002611 0.000000 0.000000 0.000000
# 3 -0.002611 -0.002611 0.015227 0.000000 0.000000 0.000000
# 4 0.000000 0.000000 0.000000 0.150274 0.000000 0.000000
# 5 0.000000 0.000000 0.000000 0.000000 0.150274 0.000000
# 6 0.000000 0.000000 0.000000 0.000000 0.000000 0.031240
#
#
# Mechanical properties :
#
#
# Convention : Reuss Voigt Hill
#
# Bulk Modulus (GPa) = 68.32505 82.95562 75.64033
# Shear Modulus (GPa) = 12.70401 23.41495 18.05948
#
# Velocity S-wave (km/s) = 2.39346 3.24940 2.85370
# Velocity P-wave (km/s) = 6.20067 7.17535 6.70574
#
# Compressibility (1/GPa) = 0.01463592
#
# Stress axis : x y z
#
# Youngs Moduli (GPa) = 97.34340 97.34340 65.67384
#
# Poissons Ratio (x) = 0.52050 0.17145
# Poissons Ratio (y) = 0.52050 0.17145
# Poissons Ratio (z) = 0.25413 0.25413
#
# Static dielectric constant tensor:
#      x y z
#    x 1.961320 0.000000 0.000000 
#    y 0.000000 1.961320 0.000000 
#    z 0.000000 0.000000 1.785950 
# 
# From -- ./inp_files/10891.got.cif
#   From: 2010.05.17/outbox.cif.g08.bks.cpg/sg180_6_cif.got.tgz:10891.got - 2010.05.20 11:43:55.
