data_PCOD9583837
_publ_section_title
;
Structure prediction by ZEFSAII (Michael W. Deem and Ramdas Pophale) SiO2 
 PCOD9583837
Probable space group: P 62 2 2
;
_chemical_formula_sum "Si O2"
_cell_formula_units_Z 51
_cell_length_a 12.771012
_cell_length_b 12.771012
_cell_length_c 16.827041
_cell_angle_alpha 90.000000
_cell_angle_beta 90.000000
_cell_angle_gamma 120.000000
_cell_volume 2376.780143
_symmetry_space_group_name_H-M "P 62 2 2"
_symmetry_group_IT_number 180
_symmetry_cell_setting 'hexagonal'
loop_
_space_group_symop_operation_xyz
x,y,z
x-y,x,1/3+z
-y,x-y,2/3+z
-x,-y,z
-x+y,-x,1/3+z
y,-x+y,2/3+z
x-y,-y,-z
-x,-x+y,1/3-z
y,x,2/3-z
-y,-x,2/3-z
-x+y,y,-z
x,x-y,1/3-z
loop_
_atom_site_type_symbol
_atom_site_label
_atom_site_fract_x
_atom_site_fract_y
_atom_site_fract_z
Si Si1 0.390679 0.045679 0.379695
Si Si2 0.754237 0.934794 0.918934
Si Si3 0.935858 0.569847 0.866633
Si Si4 0.000000 0.000000 0.833334
Si Si5 0.526790 0.204295 0.583786
O O1 0.320055 0.115300 0.391408
O O2 0.529433 0.135306 0.410637
O O3 0.383967 0.995822 0.288911
O O4 0.315769 0.917545 0.424923
O O5 0.686581 0.963711 0.849739
O O6 0.886024 0.969937 0.888179
O O7 0.758518 0.000000 0.000000
O O8 0.788393 0.483173 0.864436
O O9 0.000000 0.500000 0.831782
O O10 0.547080 0.273540 0.666667
#
# Coordination Sequence:
#
# PCOD9583837 Si02
#       5
#    12  12  12   3  12
#     4  10  20  41  70 102 132 171 237 293 341 412
#     4  12  27  44  66 101 137 183 234 293 357 432
#     4  11  22  43  68 102 143 187 225 286 363 429
#     4  12  26  52  72  96 128 188 254 310 368 408
#     4   9  17  38  71 101 127 170 231 290 338 396
#
# _framework density 21.457602000000001
#
# number of rings (size 3 to 8) (size 9 to 14) (size 15 to 20)
#    0.000    1.412    4.706    3.176    0.000    5.176 
#    4.235    4.706    0.000    0.000    0.000    0.000 
#    0.000    0.000    0.000    0.000    0.000    0.000 
#
# Total GULP energy -284168.896818 kJ/mol
# GULP energy per Si atom -5571.939153 kJ/mol
# Density = 2.140876 g / cm^3
# Si number density = 21.457602 Si / 1000 Ang^3
#
#
#
# Elastic Constant Matrix: (Units=GPa)
#
#
# Indices 1 2 3 4 5 6 
#
# 1 142.9781 71.6969 30.3512 0.0000 0.0000 0.0000
# 2 71.6969 142.9781 30.3512 0.0000 0.0000 0.0000
# 3 30.3512 30.3512 79.3933 0.0000 0.0000 0.0000
# 4 0.0000 0.0000 0.0000 12.3076 0.0000 0.0000
# 5 0.0000 0.0000 0.0000 0.0000 12.3076 0.0000
# 6 0.0000 0.0000 0.0000 0.0000 0.0000 35.6406
#
#
#
# Elastic Compliance Matrix: (Units=1/GPa)
#
#
# Indices 1 2 3 4 5 6 
#
# 1 0.009626 -0.004403 -0.001997 0.000000 0.000000 0.000000
# 2 -0.004403 0.009626 -0.001997 0.000000 0.000000 0.000000
# 3 -0.001997 -0.001997 0.014122 0.000000 0.000000 0.000000
# 4 0.000000 0.000000 0.000000 0.081251 0.000000 0.000000
# 5 0.000000 0.000000 0.000000 0.000000 0.081251 0.000000
# 6 0.000000 0.000000 0.000000 0.000000 0.000000 0.028058
#
#
# Mechanical properties :
#
#
# Convention : Reuss Voigt Hill
#
# Bulk Modulus (GPa) = 60.30925 70.01643 65.16284
# Shear Modulus (GPa) = 20.30431 27.58116 23.94274
#
# Velocity S-wave (km/s) = 3.07946 3.58911 3.34401
# Velocity P-wave (km/s) = 6.38838 7.06233 6.73379
#
# Compressibility (1/GPa) = 0.01658120
#
# Stress axis : x y z
#
# Youngs Moduli (GPa) = 103.88686 103.88686 70.81105
#
# Poissons Ratio (x) = 0.45742 0.14138
# Poissons Ratio (y) = 0.45742 0.14138
# Poissons Ratio (z) = 0.20742 0.20742
#
# Static dielectric constant tensor:
#      x y z
#    x 1.747960 0.000000 0.000000 
#    y 0.000000 1.747960 0.000000 
#    z 0.000000 0.000000 1.869920 
# 
# From -- ./inp_files/8835.got.cif
#   From: 2010.05.17/outbox.cif.g08.bks.cpg/sg180_5_cif.got.tgz:8835.got - 2010.05.20 11:43:55.
