data_PCOD9583296
_publ_section_title
;
Structure prediction by ZEFSAII (Michael W. Deem and Ramdas Pophale) SiO2 
 PCOD9583296
Probable space group: P 65 2 2
;
_chemical_formula_sum "Si O2"
_cell_formula_units_Z 60
_cell_length_a 15.473059
_cell_length_b 15.473059
_cell_length_c 15.201855
_cell_angle_alpha 90.000000
_cell_angle_beta 90.000000
_cell_angle_gamma 120.000000
_cell_volume 3151.951894
_symmetry_space_group_name_H-M "P 65 2 2"
_symmetry_group_IT_number 179
_symmetry_cell_setting 'hexagonal'
loop_
_space_group_symop_operation_xyz
x,y,z
x-y,x,5/6+z
-y,x-y,2/3+z
-x,-y,1/2+z
-x+y,-x,1/3+z
y,-x+y,1/6+z
x-y,-y,-z
-x,-x+y,1/3-z
y,x,2/3-z
-y,-x,1/6-z
-x+y,y,1/2-z
x,x-y,5/6-z
loop_
_atom_site_type_symbol
_atom_site_label
_atom_site_fract_x
_atom_site_fract_y
_atom_site_fract_z
Si Si1 0.617852 0.235704 0.250000
Si Si2 0.344681 0.929299 0.816346
Si Si3 0.448343 0.896685 0.250000
Si Si4 0.470072 0.631676 0.769265
Si Si5 0.112575 0.000000 0.500000
Si Si6 0.000000 0.412417 0.666667
Si Si7 0.338457 0.180553 0.312177
O O1 0.628407 0.159553 0.315912
O O2 0.581486 0.304650 0.297722
O O3 0.252580 0.886696 0.749654
O O4 0.437226 0.028126 0.776034
O O5 0.339377 0.961239 0.915987
O O6 0.387230 0.833445 0.332620
O O7 0.431806 0.522630 0.808307
O O8 0.588077 0.705225 0.783176
O O9 0.136518 0.915048 0.468147
O O10 0.039716 0.960285 0.583334
O O11 0.356672 0.178336 0.416667
#
# Coordination Sequence:
#
# PCOD9583296 Si02
#       7
#     6  12   6  12   6   6  12
#     4   9  20  34  52  80 114 152 206 260 297 352
#     4   9  20  37  53  82 117 159 199 254 304 373
#     4   9  20  34  50  78 122 160 198 246 301 370
#     4  10  21  33  55  83 117 167 206 255 305 357
#     4  10  23  42  67  98 120 144 194 268 325 385
#     4  10  21  34  57  78 124 162 208 242 309 375
#     4  10  22  36  63  92 117 153 204 261 313 366
#
# _framework density 19.035822
#
# number of rings (size 3 to 8) (size 9 to 14) (size 15 to 20)
#    0.000    2.400    0.000    0.600   16.800    3.200 
#    1.800    1.000    0.000    0.000    0.000    0.000 
#    0.000    0.000    0.000    0.000    0.000    0.000 
#
# Total GULP energy -334449.270624 kJ/mol
# GULP energy per Si atom -5574.154510 kJ/mol
# Density = 1.899250 g / cm^3
# Si number density = 19.035822 Si / 1000 Ang^3
#
#
#
# Elastic Constant Matrix: (Units=GPa)
#
#
# Indices 1 2 3 4 5 6 
#
# 1 66.5409 25.7414 46.8595 0.0000 0.0000 0.0000
# 2 25.7414 66.5409 46.8595 0.0000 0.0000 0.0000
# 3 46.8595 46.8595 141.6551 0.0000 0.0000 0.0000
# 4 0.0000 0.0000 0.0000 25.8631 0.0000 0.0000
# 5 0.0000 0.0000 0.0000 0.0000 25.8631 0.0000
# 6 0.0000 0.0000 0.0000 0.0000 0.0000 20.3997
#
#
#
# Elastic Compliance Matrix: (Units=1/GPa)
#
#
# Indices 1 2 3 4 5 6 
#
# 1 0.020414 -0.004096 -0.005398 0.000000 0.000000 0.000000
# 2 -0.004096 0.020414 -0.005398 0.000000 0.000000 0.000000
# 3 -0.005398 -0.005398 0.010631 0.000000 0.000000 0.000000
# 4 0.000000 0.000000 0.000000 0.038665 0.000000 0.000000
# 5 0.000000 0.000000 0.000000 0.000000 0.038665 0.000000
# 6 0.000000 0.000000 0.000000 0.000000 0.000000 0.049020
#
#
# Mechanical properties :
#
#
# Convention : Reuss Voigt Hill
#
# Bulk Modulus (GPa) = 46.13566 57.07305 51.60436
# Shear Modulus (GPa) = 23.27538 24.77695 24.02617
#
# Velocity S-wave (km/s) = 3.50053 3.61168 3.55654
# Velocity P-wave (km/s) = 6.37394 6.88762 6.63575
#
# Compressibility (1/GPa) = 0.02167521
#
# Stress axis : x y z
#
# Youngs Moduli (GPa) = 48.98521 48.98521 94.06614
#
# Poissons Ratio (x) = 0.20063 0.50778
# Poissons Ratio (y) = 0.20063 0.50778
# Poissons Ratio (z) = 0.26443 0.26443
#
# Static dielectric constant tensor:
#      x y z
#    x 1.675890 0.000000 0.000000 
#    y 0.000000 1.675890 0.000000 
#    z 0.000000 0.000000 1.701660 
# 
# From -- ./inp_files/5891.got.cif
#   From: 2010.05.17/outbox.cif.g08.bks.cpg/sg179_3_cif.got.tgz:5891.got - 2010.05.20 11:37:33.
