data_PCOD9583678
_publ_section_title
;
Structure prediction by ZEFSAII (Michael W. Deem and Ramdas Pophale) SiO2 
 PCOD9583678
Probable space group: P 62 2 2
;
_chemical_formula_sum "Si O2"
_cell_formula_units_Z 33
_cell_length_a 9.250840
_cell_length_b 9.250840
_cell_length_c 24.724214
_cell_angle_alpha 90.000000
_cell_angle_beta 90.000000
_cell_angle_gamma 120.000000
_cell_volume 1832.379671
_symmetry_space_group_name_H-M "P 62 2 2"
_symmetry_group_IT_number 180
_symmetry_cell_setting 'hexagonal'
loop_
_space_group_symop_operation_xyz
x,y,z
x-y,x,1/3+z
-y,x-y,2/3+z
-x,-y,z
-x+y,-x,1/3+z
y,-x+y,2/3+z
x-y,-y,-z
-x,-x+y,1/3-z
y,x,2/3-z
-y,-x,2/3-z
-x+y,y,-z
x,x-y,1/3-z
loop_
_atom_site_type_symbol
_atom_site_label
_atom_site_fract_x
_atom_site_fract_y
_atom_site_fract_z
Si Si1 0.672895 0.951347 0.381409
Si Si2 0.589086 0.339066 0.770428
Si Si3 0.000000 0.000000 0.666667
Si Si4 0.500000 0.000000 0.718976
O O1 0.504296 0.788787 0.402565
O O2 0.633150 0.998108 0.322397
O O3 0.690300 0.096154 0.421776
O O4 0.841687 0.950226 0.372113
O O5 0.625456 0.374545 0.833334
O O6 0.583746 0.170006 0.752659
#
# Coordination Sequence:
#
# PCOD9583678 Si02
#       4
#    12  12   3   6
#     4  10  19  38  63  88 114 165 211 255 316 380
#     4  10  20  39  63  85 121 169 203 251 327 392
#     4  12  20  36  64  96 116 146 232 272 292 370
#     4  10  18  40  61  86 119 164 208 252 308 402
#
# _framework density 18.009367999999998
#
# number of rings (size 3 to 8) (size 9 to 14) (size 15 to 20)
#    0.000    2.182    3.636    5.455    0.000    0.000 
#    6.545    5.455    0.000    0.000    0.000    0.000 
#    0.000    0.000    0.000    0.000    0.000    0.000 
#
# Total GULP energy -183874.122965 kJ/mol
# GULP energy per Si atom -5571.943120 kJ/mol
# Density = 1.796838 g / cm^3
# Si number density = 18.009368 Si / 1000 Ang^3
#
#
#
# Elastic Constant Matrix: (Units=GPa)
#
#
# Indices 1 2 3 4 5 6 
#
# 1 112.2256 47.2545 55.8945 0.0000 0.0000 0.0000
# 2 47.2545 112.2256 55.8945 0.0000 0.0000 0.0000
# 3 55.8945 55.8945 141.8940 0.0000 0.0000 0.0000
# 4 0.0000 0.0000 0.0000 14.9339 0.0000 0.0000
# 5 0.0000 0.0000 0.0000 0.0000 14.9339 0.0000
# 6 0.0000 0.0000 0.0000 0.0000 0.0000 32.4855
#
#
#
# Elastic Compliance Matrix: (Units=1/GPa)
#
#
# Indices 1 2 3 4 5 6 
#
# 1 0.012027 -0.003365 -0.003412 0.000000 0.000000 0.000000
# 2 -0.003365 0.012027 -0.003412 0.000000 0.000000 0.000000
# 3 -0.003412 -0.003412 0.009736 0.000000 0.000000 0.000000
# 4 0.000000 0.000000 0.000000 0.066962 0.000000 0.000000
# 5 0.000000 0.000000 0.000000 0.000000 0.066962 0.000000
# 6 0.000000 0.000000 0.000000 0.000000 0.000000 0.030783
#
#
# Mechanical properties :
#
#
# Convention : Reuss Voigt Hill
#
# Bulk Modulus (GPa) = 74.56360 76.04804 75.30582
# Shear Modulus (GPa) = 22.38697 26.29079 24.33888
#
# Velocity S-wave (km/s) = 3.52955 3.82493 3.68020
# Velocity P-wave (km/s) = 7.62252 7.86291 7.74365
#
# Compressibility (1/GPa) = 0.01341137
#
# Stress axis : x y z
#
# Youngs Moduli (GPa) = 83.14754 83.14754 102.71430
#
# Poissons Ratio (x) = 0.27976 0.35048
# Poissons Ratio (y) = 0.27976 0.35048
# Poissons Ratio (z) = 0.28371 0.28371
#
# Static dielectric constant tensor:
#      x y z
#    x 1.675700 0.000000 0.000000 
#    y 0.000000 1.675700 0.000000 
#    z 0.000000 0.000000 1.588430 
# 
# From -- ./inp_files/10828.got.cif
#   From: 2010.05.17/outbox.cif.g08.bks.cpg/sg180_6_cif.got.tgz:10828.got - 2010.05.20 11:43:55.
