data_PCOD9583548
_publ_section_title
;
Structure prediction by ZEFSAII (Michael W. Deem and Ramdas Pophale) SiO2 
 PCOD9583548
Probable space group: P 65 2 2
;
_chemical_formula_sum "Si O2"
_cell_formula_units_Z 60
_cell_length_a 14.660023
_cell_length_b 14.660023
_cell_length_c 14.310353
_cell_angle_alpha 90.000000
_cell_angle_beta 90.000000
_cell_angle_gamma 120.000000
_cell_volume 2663.485163
_symmetry_space_group_name_H-M "P 65 2 2"
_symmetry_group_IT_number 179
_symmetry_cell_setting 'hexagonal'
loop_
_space_group_symop_operation_xyz
x,y,z
x-y,x,5/6+z
-y,x-y,2/3+z
-x,-y,1/2+z
-x+y,-x,1/3+z
y,-x+y,1/6+z
x-y,-y,-z
-x,-x+y,1/3-z
y,x,2/3-z
-y,-x,1/6-z
-x+y,y,1/2-z
x,x-y,5/6-z
loop_
_atom_site_type_symbol
_atom_site_label
_atom_site_fract_x
_atom_site_fract_y
_atom_site_fract_z
Si Si1 0.084125 0.168249 0.250000
Si Si2 0.341508 0.583263 0.848146
Si Si3 0.810841 0.643283 0.429046
Si Si4 0.321558 0.280084 0.550990
Si Si5 0.319793 0.425537 0.278680
Si Si6 0.140175 0.140175 0.833334
O O1 0.107467 0.107467 0.333334
O O2 0.044217 0.235733 0.311969
O O3 0.292653 0.585305 0.750000
O O4 0.334605 0.667303 0.916667
O O5 0.279839 0.465683 0.888785
O O6 0.464289 0.620415 0.837068
O O7 0.780399 0.655510 0.534772
O O8 0.834116 0.749388 0.377230
O O9 0.922376 0.649683 0.417279
O O10 0.425057 0.357735 0.492705
O O11 0.341109 0.341109 0.333334
O O12 0.204381 0.408762 0.250000
O O13 0.055401 0.110801 0.750000
#
# Coordination Sequence:
#
# PCOD9583548 Si02
#       6
#     6  12  12  12  12   6
#     4  12  24  44  68 106 150 204 252 320 378 460
#     4  11  30  51  80 111 156 202 266 338 408 483
#     4  12  27  48  74 109 158 205 263 322 401 480
#     4  12  24  43  73 108 150 200 254 323 385 471
#     4  11  25  47  79 113 156 204 264 327 394 477
#     4  12  26  52  72 108 158 220 266 322 390 488
#
# _framework density 22.526876000000001
#
# number of rings (size 3 to 8) (size 9 to 14) (size 15 to 20)
#    0.000    0.400    5.000    2.400    9.800    0.000 
#    7.200    0.000    0.000    0.000    0.000    0.000 
#    0.000    0.000    0.000    0.000    0.000    0.000 
#
# Total GULP energy -334935.324666 kJ/mol
# GULP energy per Si atom -5582.255411 kJ/mol
# Density = 2.247560 g / cm^3
# Si number density = 22.526876 Si / 1000 Ang^3
#
#
#
# Elastic Constant Matrix: (Units=GPa)
#
#
# Indices 1 2 3 4 5 6 
#
# 1 114.6697 50.9690 47.0124 0.0000 0.0000 0.0000
# 2 50.9690 114.6697 47.0124 0.0000 0.0000 0.0000
# 3 47.0124 47.0124 127.5465 0.0000 0.0000 0.0000
# 4 0.0000 0.0000 0.0000 37.4742 0.0000 0.0000
# 5 0.0000 0.0000 0.0000 0.0000 37.4742 0.0000
# 6 0.0000 0.0000 0.0000 0.0000 0.0000 31.8503
#
#
#
# Elastic Compliance Matrix: (Units=1/GPa)
#
#
# Indices 1 2 3 4 5 6 
#
# 1 0.011667 -0.004032 -0.002814 0.000000 0.000000 0.000000
# 2 -0.004032 0.011667 -0.002814 0.000000 0.000000 0.000000
# 3 -0.002814 -0.002814 0.009915 0.000000 0.000000 0.000000
# 4 0.000000 0.000000 0.000000 0.026685 0.000000 0.000000
# 5 0.000000 0.000000 0.000000 0.000000 0.026685 0.000000
# 6 0.000000 0.000000 0.000000 0.000000 0.000000 0.031397
#
#
# Mechanical properties :
#
#
# Convention : Reuss Voigt Hill
#
# Bulk Modulus (GPa) = 71.79885 71.87484 71.83685
# Shear Modulus (GPa) = 35.21688 35.48587 35.35138
#
# Velocity S-wave (km/s) = 3.95818 3.97327 3.96573
# Velocity P-wave (km/s) = 7.26852 7.28181 7.27516
#
# Compressibility (1/GPa) = 0.01392780
#
# Stress axis : x y z
#
# Youngs Moduli (GPa) = 85.71526 85.71526 100.85987
#
# Poissons Ratio (x) = 0.34560 0.28383
# Poissons Ratio (y) = 0.34560 0.28383
# Poissons Ratio (z) = 0.24121 0.24121
#
# Static dielectric constant tensor:
#      x y z
#    x 1.658060 0.000000 0.000000 
#    y 0.000000 1.658060 0.000000 
#    z 0.000000 0.000000 1.573690 
# 
# From -- ./inp_files/5820.got.cif
#   From: 2010.05.17/outbox.cif.g08.bks.cpg/sg179_3_cif.got.tgz:5820.got - 2010.05.20 11:37:33.
