data_PCOD9583404
_publ_section_title
;
Structure prediction by ZEFSAII (Michael W. Deem and Ramdas Pophale) SiO2 
 PCOD9583404
Probable space group: P 65 2 2
;
_chemical_formula_sum "Si O2"
_cell_formula_units_Z 42
_cell_length_a 13.235594
_cell_length_b 13.235594
_cell_length_c 13.057806
_cell_angle_alpha 90.000000
_cell_angle_beta 90.000000
_cell_angle_gamma 120.000000
_cell_volume 1981.014787
_symmetry_space_group_name_H-M "P 65 2 2"
_symmetry_group_IT_number 179
_symmetry_cell_setting 'hexagonal'
loop_
_space_group_symop_operation_xyz
x,y,z
x-y,x,5/6+z
-y,x-y,2/3+z
-x,-y,1/2+z
-x+y,-x,1/3+z
y,-x+y,1/6+z
x-y,-y,-z
-x,-x+y,1/3-z
y,x,2/3-z
-y,-x,1/6-z
-x+y,y,1/2-z
x,x-y,5/6-z
loop_
_atom_site_type_symbol
_atom_site_label
_atom_site_fract_x
_atom_site_fract_y
_atom_site_fract_z
Si Si1 0.734581 0.734581 0.833334
Si Si2 0.399533 0.799065 0.250000
Si Si3 0.693314 0.624617 0.227540
Si Si4 0.616136 0.232271 0.250000
Si Si5 0.346912 0.083938 0.294084
O O1 0.725871 0.850600 0.817117
O O2 0.677612 0.673165 0.726560
O O3 0.507393 0.878232 0.325013
O O4 0.405513 0.708985 0.171452
O O5 0.632959 0.632959 0.333334
O O6 0.821213 0.642426 0.250000
O O7 0.696085 0.718192 0.147953
O O8 0.486202 0.160621 0.293827
#
# Coordination Sequence:
#
# PCOD9583404 Si02
#       5
#     6   6  12   6  12
#     4  10  22  46  70 100 140 190 246 300 354 434
#     4  12  25  46  72 106 156 188 237 302 378 482
#     4  12  26  48  73 105 148 192 246 310 378 444
#     4  12  25  44  70 114 142 194 233 296 372 464
#     4  11  24  44  74 103 145 190 246 301 366 438
#
# _framework density 21.201255
#
# number of rings (size 3 to 8) (size 9 to 14) (size 15 to 20)
#    0.000    0.571    1.429    7.714    0.000    0.000 
#   23.143    0.000   47.143    0.000    0.000    0.000 
#    0.000    0.000    0.000    0.000    0.000    0.000 
#
# Total GULP energy -234043.699421 kJ/mol
# GULP energy per Si atom -5572.469034 kJ/mol
# Density = 2.115300 g / cm^3
# Si number density = 21.201255 Si / 1000 Ang^3
#
#
#
# Elastic Constant Matrix: (Units=GPa)
#
#
# Indices 1 2 3 4 5 6 
#
# 1 112.5222 49.7592 67.9149 0.0000 0.0000 0.0000
# 2 49.7592 112.5222 67.9149 0.0000 0.0000 0.0000
# 3 67.9149 67.9149 226.3579 0.0000 0.0000 0.0000
# 4 0.0000 0.0000 0.0000 38.4912 0.0000 0.0000
# 5 0.0000 0.0000 0.0000 0.0000 38.4912 0.0000
# 6 0.0000 0.0000 0.0000 0.0000 0.0000 31.3815
#
#
#
# Elastic Compliance Matrix: (Units=1/GPa)
#
#
# Indices 1 2 3 4 5 6 
#
# 1 0.012081 -0.003852 -0.002469 0.000000 0.000000 0.000000
# 2 -0.003852 0.012081 -0.002469 0.000000 0.000000 0.000000
# 3 -0.002469 -0.002469 0.005899 0.000000 0.000000 0.000000
# 4 0.000000 0.000000 0.000000 0.025980 0.000000 0.000000
# 5 0.000000 0.000000 0.000000 0.000000 0.025980 0.000000
# 6 0.000000 0.000000 0.000000 0.000000 0.000000 0.031866
#
#
# Mechanical properties :
#
#
# Convention : Reuss Voigt Hill
#
# Bulk Modulus (GPa) = 80.12176 91.39782 85.75979
# Shear Modulus (GPa) = 36.86588 39.39366 38.12977
#
# Velocity S-wave (km/s) = 4.17448 4.31522 4.24544
# Velocity P-wave (km/s) = 7.81717 8.24812 8.03553
#
# Compressibility (1/GPa) = 0.01248100
#
# Stress axis : x y z
#
# Youngs Moduli (GPa) = 82.77623 82.77623 169.51304
#
# Poissons Ratio (x) = 0.31887 0.41850
# Poissons Ratio (y) = 0.31887 0.41850
# Poissons Ratio (z) = 0.20436 0.20436
#
# Static dielectric constant tensor:
#      x y z
#    x -6.516820 0.000000 0.000000 
#    y 0.000000 -6.516820 0.000000 
#    z 0.000000 0.000000 2.000300 
# 
# From -- ./inp_files/4186.got.cif
#   From: 2010.05.17/outbox.cif.g08.bks.cpg/sg179_3_cif.got.tgz:4186.got - 2010.05.20 11:37:33.
