data_PCOD9583718
_publ_section_title
;
Structure prediction by ZEFSAII (Michael W. Deem and Ramdas Pophale) SiO2 
 PCOD9583718
Probable space group: P 62 2 2
;
_chemical_formula_sum "Si O2"
_cell_formula_units_Z 96
_cell_length_a 15.122331
_cell_length_b 15.122331
_cell_length_c 22.967588
_cell_angle_alpha 90.000000
_cell_angle_beta 90.000000
_cell_angle_gamma 120.000000
_cell_volume 4548.660257
_symmetry_space_group_name_H-M "P 62 2 2"
_symmetry_group_IT_number 180
_symmetry_cell_setting 'hexagonal'
loop_
_space_group_symop_operation_xyz
x,y,z
x-y,x,1/3+z
-y,x-y,2/3+z
-x,-y,z
-x+y,-x,1/3+z
y,-x+y,2/3+z
x-y,-y,-z
-x,-x+y,1/3-z
y,x,2/3-z
-y,-x,2/3-z
-x+y,y,-z
x,x-y,1/3-z
loop_
_atom_site_type_symbol
_atom_site_label
_atom_site_fract_x
_atom_site_fract_y
_atom_site_fract_z
Si Si1 0.210782 0.781510 0.763945
Si Si2 0.342027 0.677225 0.268321
Si Si3 0.208586 0.428681 0.083747
Si Si4 0.999242 0.719817 0.904140
Si Si5 0.000405 0.394202 0.784290
Si Si6 0.291738 0.014567 0.430976
Si Si7 0.454113 0.221030 0.889785
Si Si8 0.880863 0.933832 0.737058
O O1 0.205279 0.794722 0.833334
O O2 0.298243 0.753065 0.754487
O O3 0.100558 0.685152 0.749264
O O4 0.238650 0.889130 0.735406
O O5 0.353187 0.646814 0.333334
O O6 0.271918 0.728154 0.269362
O O7 0.284899 0.574355 0.231428
O O8 0.259679 0.362668 0.063241
O O9 0.217001 0.432182 0.154141
O O10 0.088508 0.367639 0.069735
O O11 0.000897 0.662189 0.844927
O O12 0.979176 0.815200 0.898994
O O13 0.107292 0.420251 0.755532
O O14 0.000000 0.500000 0.794888
O O15 0.388114 0.122467 0.414432
O O16 0.298360 0.000000 0.500000
O O17 0.185138 0.012335 0.420662
O O18 0.871903 0.935951 0.666667
O O19 0.000000 0.000000 0.752381
#
# Coordination Sequence:
#
# PCOD9583718 Si02
#       8
#    12  12  12  12  12  12  12  12
#     4  10  21  38  62  88 118 150 198 253 309 356
#     4  12  25  38  55  86 118 160 203 243 301 372
#     4   9  20  39  60  86 118 151 193 253 309 347
#     4   9  21  36  63  91 114 151 206 245 294 362
#     4  10  19  36  64  94 118 150 193 256 319 351
#     4   9  20  39  63  90 114 154 206 257 301 350
#     4  10  20  38  63  85 118 153 196 249 302 363
#     4  10  22  40  59  87 132 174 200 240 308 370
#
# _framework density 21.105115999999999
#
# number of rings (size 3 to 8) (size 9 to 14) (size 15 to 20)
#    0.000    2.125    1.250    1.875    7.000    3.750 
#    4.500    4.375    0.000    0.000    0.000    0.000 
#    0.000    0.000    0.000    0.000    0.000    0.000 
#
# Total GULP energy -535616.252930 kJ/mol
# GULP energy per Si atom -5579.335968 kJ/mol
# Density = 2.105708 g / cm^3
# Si number density = 21.105116 Si / 1000 Ang^3
#
#
#
# Elastic Constant Matrix: (Units=GPa)
#
#
# Indices 1 2 3 4 5 6 
#
# 1 126.3554 73.7222 3.8182 0.0000 0.0000 0.0000
# 2 73.7222 126.3554 3.8182 0.0000 0.0000 0.0000
# 3 3.8182 3.8182 35.1894 0.0000 0.0000 0.0000
# 4 0.0000 0.0000 0.0000 -24.5720 0.0000 0.0000
# 5 0.0000 0.0000 0.0000 0.0000 -24.5720 0.0000
# 6 0.0000 0.0000 0.0000 0.0000 0.0000 26.3166
#
#
#
# Elastic Compliance Matrix: (Units=1/GPa)
#
#
# Indices 1 2 3 4 5 6 
#
# 1 0.012009 -0.006990 -0.000545 0.000000 0.000000 0.000000
# 2 -0.006990 0.012009 -0.000545 0.000000 0.000000 0.000000
# 3 -0.000545 -0.000545 0.028536 0.000000 0.000000 0.000000
# 4 0.000000 0.000000 0.000000 -0.040697 0.000000 0.000000
# 5 0.000000 0.000000 0.000000 0.000000 -0.040697 0.000000
# 6 0.000000 0.000000 0.000000 0.000000 0.000000 0.037999
#
#
# Mechanical properties :
#
#
# Convention : Reuss Voigt Hill
#
# Bulk Modulus (GPa) = 27.47614 50.06862 38.77238
# Shear Modulus (GPa) = 133.51118 9.20396 71.35757
#
# Velocity S-wave (km/s) = 7.96225 2.09057 5.82099
# Velocity P-wave (km/s) = 9.87810 5.44080 7.97431
#
# Compressibility (1/GPa) = 0.03639521
#
# Stress axis : x y z
#
# Youngs Moduli (GPa) = 83.26998 83.26998 35.04371
#
# Poissons Ratio (x) = 0.58208 0.01908
# Poissons Ratio (y) = 0.58208 0.01908
# Poissons Ratio (z) = 0.04535 0.04535
#
# Static dielectric constant tensor:
#      x y z
#    x 1.733870 0.000000 0.000000 
#    y 0.000000 1.733870 0.000000 
#    z 0.000000 0.000000 1.772830 
# 
# From -- ./inp_files/11459.got.cif
#   From: 2010.05.17/outbox.cif.g08.bks.cpg/sg180_6_cif.got.tgz:11459.got - 2010.05.20 11:43:55.
