data_PCOD9583426
_publ_section_title
;
Structure prediction by ZEFSAII (Michael W. Deem and Ramdas Pophale) SiO2 
 PCOD9583426
Probable space group: P 65 2 2
;
_chemical_formula_sum "Si O2"
_cell_formula_units_Z 48
_cell_length_a 18.910856
_cell_length_b 18.910856
_cell_length_c 8.889329
_cell_angle_alpha 90.000000
_cell_angle_beta 90.000000
_cell_angle_gamma 120.000000
_cell_volume 2753.100004
_symmetry_space_group_name_H-M "P 65 2 2"
_symmetry_group_IT_number 179
_symmetry_cell_setting 'hexagonal'
loop_
_space_group_symop_operation_xyz
x,y,z
x-y,x,5/6+z
-y,x-y,2/3+z
-x,-y,1/2+z
-x+y,-x,1/3+z
y,-x+y,1/6+z
x-y,-y,-z
-x,-x+y,1/3-z
y,x,2/3-z
-y,-x,1/6-z
-x+y,y,1/2-z
x,x-y,5/6-z
loop_
_atom_site_type_symbol
_atom_site_label
_atom_site_fract_x
_atom_site_fract_y
_atom_site_fract_z
Si Si1 0.451567 0.451567 0.833334
Si Si2 0.558056 0.441945 0.083334
Si Si3 0.524718 0.646052 0.092381
Si Si4 0.342281 0.247552 0.344734
Si Si5 0.197514 0.449068 0.914295
O O1 0.470053 0.528450 0.729895
O O2 0.429864 0.378837 0.717383
O O3 0.515884 0.345859 0.068180
O O4 0.436902 0.563099 0.083334
O O5 0.514517 0.718816 0.159263
O O6 0.581939 0.683977 0.946201
O O7 0.274022 0.274022 0.333334
O O8 0.318831 0.159416 0.416667
O O9 0.376218 0.247129 0.179347
O O10 0.212440 0.424880 0.750000
#
# Coordination Sequence:
#
# PCOD9583426 Si02
#       5
#     6   6  12  12  12
#     4  12  22  36  60  84 106 162 214 258 296 368
#     4  12  24  38  60  80 118 158 212 262 308 362
#     4  11  23  38  57  86 119 163 211 251 306 364
#     4  10  23  42  63  89 124 156 201 258 316 380
#     4  11  24  39  56  88 118 157 207 261 310 355
#
# _framework density 17.434892000000001
#
# number of rings (size 3 to 8) (size 9 to 14) (size 15 to 20)
#    0.000    1.000    3.750    3.000    3.500    1.000 
#    2.250    0.000    0.000    0.000    0.000    1.750 
#    0.000    0.000    0.000    0.000    0.000    0.000 
#
# Total GULP energy -268017.282943 kJ/mol
# GULP energy per Si atom -5583.693395 kJ/mol
# Density = 1.739521 g / cm^3
# Si number density = 17.434892 Si / 1000 Ang^3
#
#
#
# Elastic Constant Matrix: (Units=GPa)
#
#
# Indices 1 2 3 4 5 6 
#
# 1 105.1084 67.0473 50.1952 0.0000 0.0000 0.0000
# 2 67.0473 105.1084 50.1952 0.0000 0.0000 0.0000
# 3 50.1952 50.1952 119.3830 0.0000 0.0000 0.0000
# 4 0.0000 0.0000 0.0000 30.6141 0.0000 0.0000
# 5 0.0000 0.0000 0.0000 0.0000 30.6141 0.0000
# 6 0.0000 0.0000 0.0000 0.0000 0.0000 19.0306
#
#
#
# Elastic Compliance Matrix: (Units=1/GPa)
#
#
# Indices 1 2 3 4 5 6 
#
# 1 0.016985 -0.009289 -0.003236 0.000000 0.000000 0.000000
# 2 -0.009289 0.016985 -0.003236 0.000000 0.000000 0.000000
# 3 -0.003236 -0.003236 0.011097 0.000000 0.000000 0.000000
# 4 0.000000 0.000000 0.000000 0.032665 0.000000 0.000000
# 5 0.000000 0.000000 0.000000 0.000000 0.032665 0.000000
# 6 0.000000 0.000000 0.000000 0.000000 0.000000 0.052547
#
#
# Mechanical properties :
#
#
# Convention : Reuss Voigt Hill
#
# Bulk Modulus (GPa) = 73.82355 73.83058 73.82707
# Shear Modulus (GPa) = 25.12835 26.86256 25.99545
#
# Velocity S-wave (km/s) = 3.80052 3.92948 3.86554
# Velocity P-wave (km/s) = 7.85449 7.93890 7.89681
#
# Compressibility (1/GPa) = 0.01354581
#
# Stress axis : x y z
#
# Youngs Moduli (GPa) = 58.87716 58.87716 90.11233
#
# Poissons Ratio (x) = 0.54691 0.29157
# Poissons Ratio (y) = 0.54691 0.29157
# Poissons Ratio (z) = 0.19050 0.19050
#
# Static dielectric constant tensor:
#      x y z
#    x 1.594110 0.000000 0.000000 
#    y 0.000000 1.594110 0.000000 
#    z 0.000000 0.000000 1.647310 
# 
# From -- ./inp_files/2831.got.cif
#   From: 2010.05.17/outbox.cif.g08.bks.cpg/sg179_2_cif.got.tgz:2831.got - 2010.05.20 11:37:33.
