data_PCOD9583644
_publ_section_title
;
Structure prediction by ZEFSAII (Michael W. Deem and Ramdas Pophale) SiO2 
 PCOD9583644
Probable space group: P 62 2 2
;
_chemical_formula_sum "Si O2"
_cell_formula_units_Z 72
_cell_length_a 18.974163
_cell_length_b 18.974163
_cell_length_c 17.631766
_cell_angle_alpha 90.000000
_cell_angle_beta 90.000000
_cell_angle_gamma 120.000000
_cell_volume 5497.328625
_symmetry_space_group_name_H-M "P 62 2 2"
_symmetry_group_IT_number 180
_symmetry_cell_setting 'hexagonal'
loop_
_space_group_symop_operation_xyz
x,y,z
x-y,x,1/3+z
-y,x-y,2/3+z
-x,-y,z
-x+y,-x,1/3+z
y,-x+y,2/3+z
x-y,-y,-z
-x,-x+y,1/3-z
y,x,2/3-z
-y,-x,2/3-z
-x+y,y,-z
x,x-y,1/3-z
loop_
_atom_site_type_symbol
_atom_site_label
_atom_site_fract_x
_atom_site_fract_y
_atom_site_fract_z
Si Si1 0.506046 0.182377 0.997963
Si Si2 0.585757 0.000286 0.587650
Si Si3 0.841120 0.324687 0.352541
Si Si4 0.913147 0.544649 0.818772
Si Si5 0.838330 0.344677 0.986066
Si Si6 0.901151 0.367913 0.821615
O O1 0.455169 0.126008 0.927907
O O2 0.594552 0.189103 0.000000
O O3 0.515243 0.269764 0.986811
O O4 0.466268 0.143840 0.078748
O O5 0.571191 0.919858 0.632576
O O6 0.500000 0.000000 0.587668
O O7 0.608910 0.000000 0.500000
O O8 0.642769 0.084306 0.631799
O O9 0.758193 0.241808 0.333334
O O10 0.865397 0.321290 0.439611
O O11 0.831039 0.404750 0.345024
O O12 0.909616 0.457393 0.819411
O O13 0.006835 0.613724 0.824363
O O14 0.854367 0.330083 0.899256
#
# Coordination Sequence:
#
# PCOD9583644 Si02
#       6
#    12  12  12  12  12  12
#     4  10  19  27  41  64  83 102 135 176 215 246
#     4   9  18  31  44  56  75 107 139 168 206 252
#     4  10  19  30  44  59  79 105 139 179 214 243
#     4   9  17  29  43  58  77 106 137 170 203 247
#     4  10  18  30  43  59  83 105 133 176 220 249
#     4   9  16  30  44  55  78 109 136 164 206 253
#
# _framework density 13.097270999999999
#
# number of rings (size 3 to 8) (size 9 to 14) (size 15 to 20)
#    0.000    2.500    1.667    1.500    2.333    2.000 
#    0.000    1.667    0.000    0.000    0.000    0.000 
#    0.000    0.000    0.000    0.000    0.000    3.333 
#
# Total GULP energy -400858.349805 kJ/mol
# GULP energy per Si atom -5567.477081 kJ/mol
# Density = 1.306746 g / cm^3
# Si number density = 13.097271 Si / 1000 Ang^3
#
#
#
# Elastic Constant Matrix: (Units=GPa)
#
#
# Indices 1 2 3 4 5 6 
#
# 1 54.6611 21.7321 28.2169 0.0000 0.0000 0.0000
# 2 21.7321 54.6611 28.2169 0.0000 0.0000 0.0000
# 3 28.2169 28.2169 102.7387 0.0000 0.0000 0.0000
# 4 0.0000 0.0000 0.0000 14.5169 0.0000 0.0000
# 5 0.0000 0.0000 0.0000 0.0000 14.5169 0.0000
# 6 0.0000 0.0000 0.0000 0.0000 0.0000 16.4645
#
#
#
# Elastic Compliance Matrix: (Units=1/GPa)
#
#
# Indices 1 2 3 4 5 6 
#
# 1 0.023395 -0.006973 -0.004510 0.000000 0.000000 0.000000
# 2 -0.006973 0.023395 -0.004510 0.000000 0.000000 0.000000
# 3 -0.004510 -0.004510 0.012211 0.000000 0.000000 0.000000
# 4 0.000000 0.000000 0.000000 0.068885 0.000000 0.000000
# 5 0.000000 0.000000 0.000000 0.000000 0.068885 0.000000
# 6 0.000000 0.000000 0.000000 0.000000 0.000000 0.060737
#
#
# Mechanical properties :
#
#
# Convention : Reuss Voigt Hill
#
# Bulk Modulus (GPa) = 37.01799 40.93252 38.97525
# Shear Modulus (GPa) = 16.75041 18.02601 17.38821
#
# Velocity S-wave (km/s) = 3.58008 3.71390 3.64761
# Velocity P-wave (km/s) = 6.73903 7.05062 6.89659
#
# Compressibility (1/GPa) = 0.02701390
#
# Stress axis : x y z
#
# Youngs Moduli (GPa) = 42.74384 42.74384 81.89410
#
# Poissons Ratio (x) = 0.29806 0.36936
# Poissons Ratio (y) = 0.29806 0.36936
# Poissons Ratio (z) = 0.19279 0.19279
#
# Static dielectric constant tensor:
#      x y z
#    x 1.406870 0.000000 0.000000 
#    y 0.000000 1.406870 0.000000 
#    z 0.000000 0.000000 1.449740 
# 
# From -- ./inp_files/7905.got.cif
#   From: 2010.05.17/outbox.cif.g08.bks.cpg/sg180_4_cif.got.tgz:7905.got - 2010.05.20 11:43:55.
