data_PCOD9583231
_publ_section_title
;
Structure prediction by ZEFSAII (Michael W. Deem and Ramdas Pophale) SiO2 
 PCOD9583231
Probable space group: P 65 2 2
;
_chemical_formula_sum "Si O2"
_cell_formula_units_Z 66
_cell_length_a 20.688429
_cell_length_b 20.688429
_cell_length_c 8.329000
_cell_angle_alpha 90.000000
_cell_angle_beta 90.000000
_cell_angle_gamma 120.000000
_cell_volume 3087.297778
_symmetry_space_group_name_H-M "P 65 2 2"
_symmetry_group_IT_number 179
_symmetry_cell_setting 'hexagonal'
loop_
_space_group_symop_operation_xyz
x,y,z
x-y,x,5/6+z
-y,x-y,2/3+z
-x,-y,1/2+z
-x+y,-x,1/3+z
y,-x+y,1/6+z
x-y,-y,-z
-x,-x+y,1/3-z
y,x,2/3-z
-y,-x,1/6-z
-x+y,y,1/2-z
x,x-y,5/6-z
loop_
_atom_site_type_symbol
_atom_site_label
_atom_site_fract_x
_atom_site_fract_y
_atom_site_fract_z
Si Si1 0.619772 0.728708 0.630609
Si Si2 0.416593 0.000000 0.500000
Si Si3 0.823937 0.647873 0.750000
Si Si4 0.954471 0.858194 0.004511
Si Si5 0.961096 0.241062 0.895108
Si Si6 0.546663 0.093325 0.250000
Si Si7 0.914333 0.345111 0.700173
O O1 0.597066 0.655632 0.736487
O O2 0.608444 0.784563 0.748302
O O3 0.706147 0.756002 0.581334
O O4 0.573890 0.698372 0.464229
O O5 0.479976 0.044322 0.370898
O O6 0.784886 0.697346 0.722760
O O7 0.890551 0.879968 0.019936
O O8 0.000000 0.893358 0.166667
O O9 0.935008 0.773242 0.019132
O O10 0.933050 0.290270 0.801951
O O11 0.507709 0.127829 0.134649
O O12 0.000000 0.412549 0.666667
#
# Coordination Sequence:
#
# PCOD9583231 Si02
#       7
#    12   6   6  12  12   6  12
#     4  11  21  36  52  80 117 157 211 260 302 384
#     4  12  18  34  52  84 122 148 200 232 288 360
#     4  12  22  34  54  74 112 160 205 262 322 378
#     4  10  21  38  57  76 100 142 207 282 350 394
#     4  11  21  38  55  80 110 152 207 268 331 404
#     4  12  18  32  58  86 116 164 187 238 300 364
#     4  10  20  34  55  83 116 152 202 245 303 393
#
# _framework density 21.377918000000001
#
# number of rings (size 3 to 8) (size 9 to 14) (size 15 to 20)
#    0.000    1.091    6.364    2.727    0.000    2.182 
#    0.000    5.455    0.000    0.000    0.000    0.000 
#    0.000    0.000    0.000  130.909    2.909   34.182 
#
# Total GULP energy -367740.405148 kJ/mol
# GULP energy per Si atom -5571.824320 kJ/mol
# Density = 2.132926 g / cm^3
# Si number density = 21.377918 Si / 1000 Ang^3
#
#
#
# Elastic Constant Matrix: (Units=GPa)
#
#
# Indices 1 2 3 4 5 6 
#
# 1 60.3827 47.8738 32.9274 0.0000 0.0000 0.0000
# 2 47.8738 60.3827 32.9274 0.0000 0.0000 0.0000
# 3 32.9274 32.9274 120.0430 0.0000 0.0000 0.0000
# 4 0.0000 0.0000 0.0000 37.4392 0.0000 0.0000
# 5 0.0000 0.0000 0.0000 0.0000 37.4392 0.0000
# 6 0.0000 0.0000 0.0000 0.0000 0.0000 6.2544
#
#
#
# Elastic Compliance Matrix: (Units=1/GPa)
#
#
# Indices 1 2 3 4 5 6 
#
# 1 0.045515 -0.034428 -0.003041 0.000000 0.000000 0.000000
# 2 -0.034428 0.045515 -0.003041 0.000000 0.000000 0.000000
# 3 -0.003041 -0.003041 0.009999 0.000000 0.000000 0.000000
# 4 0.000000 0.000000 0.000000 0.026710 0.000000 0.000000
# 5 0.000000 0.000000 0.000000 0.000000 0.026710 0.000000
# 6 0.000000 0.000000 0.000000 0.000000 0.000000 0.159887
#
#
# Mechanical properties :
#
#
# Convention : Reuss Voigt Hill
#
# Bulk Modulus (GPa) = 49.97859 52.02950 51.00405
# Shear Modulus (GPa) = 12.43697 24.69853 18.56775
#
# Velocity S-wave (km/s) = 2.41460 3.40270 2.95031
# Velocity P-wave (km/s) = 5.58597 6.31099 5.95952
#
# Compressibility (1/GPa) = 0.02000857
#
# Stress axis : x y z
#
# Youngs Moduli (GPa) = 21.97056 21.97056 100.01255
#
# Poissons Ratio (x) = 0.75640 0.30416
# Poissons Ratio (y) = 0.75640 0.30416
# Poissons Ratio (z) = 0.06682 0.06682
#
# Static dielectric constant tensor:
#      x y z
#    x 1.841080 0.000000 0.000000 
#    y 0.000000 1.841080 0.000000 
#    z 0.000000 0.000000 1.961430 
# 
# From -- ./inp_files/3415.got.cif
#   From: 2010.05.17/outbox.cif.g08.bks.cpg/sg179_2_cif.got.tgz:3415.got - 2010.05.20 11:37:33.
