data_PCOD9583847
_publ_section_title
;
Structure prediction by ZEFSAII (Michael W. Deem and Ramdas Pophale) SiO2 
 PCOD9583847
Probable space group: P 62 2 2
;
_chemical_formula_sum "Si O2"
_cell_formula_units_Z 66
_cell_length_a 21.644513
_cell_length_b 21.644513
_cell_length_c 10.709678
_cell_angle_alpha 90.000000
_cell_angle_beta 90.000000
_cell_angle_gamma 120.000000
_cell_volume 4345.129080
_symmetry_space_group_name_H-M "P 62 2 2"
_symmetry_group_IT_number 180
_symmetry_cell_setting 'hexagonal'
loop_
_space_group_symop_operation_xyz
x,y,z
x-y,x,1/3+z
-y,x-y,2/3+z
-x,-y,z
-x+y,-x,1/3+z
y,-x+y,2/3+z
x-y,-y,-z
-x,-x+y,1/3-z
y,x,2/3-z
-y,-x,2/3-z
-x+y,y,-z
x,x-y,1/3-z
loop_
_atom_site_type_symbol
_atom_site_label
_atom_site_fract_x
_atom_site_fract_y
_atom_site_fract_z
Si Si1 0.419869 0.985795 0.647147
Si Si2 0.166698 0.642015 0.077771
Si Si3 0.791680 0.544819 0.868047
Si Si4 0.618935 0.373398 0.537215
Si Si5 0.566785 0.133570 0.000000
Si Si6 0.408747 0.058571 0.896422
O O1 0.374405 0.901756 0.668684
O O2 0.500000 0.000000 0.659201
O O3 0.409778 0.000000 0.500000
O O4 0.404126 0.026618 0.756867
O O5 0.146786 0.573393 0.166667
O O6 0.191301 0.717366 0.139390
O O7 0.230501 0.648177 0.995855
O O8 0.778607 0.464066 0.888552
O O9 0.865796 0.588989 0.793217
O O10 0.788975 0.577950 0.000000
O O11 0.673770 0.347540 0.500000
O O12 0.617614 0.428210 0.437542
O O13 0.596508 0.084726 0.052210
O O14 0.356957 0.000000 0.000000
#
# Coordination Sequence:
#
# PCOD9583847 Si02
#       6
#    12  12  12  12   6  12
#     4  11  20  32  50  69  91 121 162 199 242 302
#     4  12  21  33  49  69  92 118 155 199 250 305
#     4  11  22  33  49  69  93 120 154 198 254 309
#     4  11  21  32  45  65  92 120 148 188 248 317
#     4  10  21  32  48  66  86 118 156 196 234 304
#     4  11  21  36  51  66  90 122 157 198 248 307
#
# _framework density 15.189422
#
# number of rings (size 3 to 8) (size 9 to 14) (size 15 to 20)
#    0.000    0.909    3.636    8.455    1.273    0.000 
#    0.000    0.000    0.000    0.000    0.000    0.000 
#    0.000    0.000    0.000    0.000    0.000    0.000 
#
# Total GULP energy -367866.206499 kJ/mol
# GULP energy per Si atom -5573.730402 kJ/mol
# Density = 1.515485 g / cm^3
# Si number density = 15.189422 Si / 1000 Ang^3
#
#
#
# Elastic Constant Matrix: (Units=GPa)
#
#
# Indices 1 2 3 4 5 6 
#
# 1 39.3239 32.4487 17.2405 0.0000 0.0000 0.0000
# 2 32.4487 39.3239 17.2405 0.0000 0.0000 0.0000
# 3 17.2405 17.2405 59.7324 0.0000 0.0000 0.0000
# 4 0.0000 0.0000 0.0000 18.6462 0.0000 0.0000
# 5 0.0000 0.0000 0.0000 0.0000 18.6462 0.0000
# 6 0.0000 0.0000 0.0000 0.0000 0.0000 3.4376
#
#
#
# Elastic Compliance Matrix: (Units=1/GPa)
#
#
# Indices 1 2 3 4 5 6 
#
# 1 0.080813 -0.064638 -0.004669 0.000000 0.000000 0.000000
# 2 -0.064638 0.080813 -0.004669 0.000000 0.000000 0.000000
# 3 -0.004669 -0.004669 0.019436 0.000000 0.000000 0.000000
# 4 0.000000 0.000000 0.000000 0.053630 0.000000 0.000000
# 5 0.000000 0.000000 0.000000 0.000000 0.053630 0.000000
# 6 0.000000 0.000000 0.000000 0.000000 0.000000 0.290902
#
#
# Mechanical properties :
#
#
# Convention : Reuss Voigt Hill
#
# Bulk Modulus (GPa) = 30.19969 30.24883 30.22426
# Shear Modulus (GPa) = 6.77311 12.90936 9.84124
#
# Velocity S-wave (km/s) = 2.11395 2.91845 2.54815
# Velocity P-wave (km/s) = 5.08759 5.59590 5.34779
#
# Compressibility (1/GPa) = 0.03311293
#
# Stress axis : x y z
#
# Youngs Moduli (GPa) = 12.37418 12.37418 51.44977
#
# Poissons Ratio (x) = 0.79984 0.24021
# Poissons Ratio (y) = 0.79984 0.24021
# Poissons Ratio (z) = 0.05777 0.05777
#
# Static dielectric constant tensor:
#      x y z
#    x 1.497700 0.000000 0.000000 
#    y 0.000000 1.497700 0.000000 
#    z 0.000000 0.000000 1.588320 
# 
# From -- ./inp_files/4957.got.cif
#   From: 2010.05.17/outbox.cif.g08.bks.cpg/sg180_3_cif.got.tgz:4957.got - 2010.05.20 11:43:55.
