data_PCOD9583848
_publ_section_title
;
Structure prediction by ZEFSAII (Michael W. Deem and Ramdas Pophale) SiO2 
 PCOD9583848
Probable space group: P 62 2 2
;
_chemical_formula_sum "Si O2"
_cell_formula_units_Z 78
_cell_length_a 16.505552
_cell_length_b 16.505552
_cell_length_c 18.372587
_cell_angle_alpha 90.000000
_cell_angle_beta 90.000000
_cell_angle_gamma 120.000000
_cell_volume 4334.720010
_symmetry_space_group_name_H-M "P 62 2 2"
_symmetry_group_IT_number 180
_symmetry_cell_setting 'hexagonal'
loop_
_space_group_symop_operation_xyz
x,y,z
x-y,x,1/3+z
-y,x-y,2/3+z
-x,-y,z
-x+y,-x,1/3+z
y,-x+y,2/3+z
x-y,-y,-z
-x,-x+y,1/3-z
y,x,2/3-z
-y,-x,2/3-z
-x+y,y,-z
x,x-y,1/3-z
loop_
_atom_site_type_symbol
_atom_site_label
_atom_site_fract_x
_atom_site_fract_y
_atom_site_fract_z
Si Si1 0.615710 0.384291 0.833334
Si Si2 0.589938 0.672257 0.893038
Si Si3 0.897715 0.377268 0.954769
Si Si4 0.306368 0.510423 0.071006
Si Si5 0.482836 0.694314 0.319879
Si Si6 0.611280 0.040488 0.875484
Si Si7 0.138580 0.389310 0.788952
O O1 0.517389 0.357018 0.872511
O O2 0.590418 0.296288 0.780908
O O3 0.630917 0.630917 0.833334
O O4 0.645827 0.786741 0.892398
O O5 0.579108 0.628159 0.973385
O O6 0.870606 0.458576 0.951246
O O7 0.796513 0.286505 0.962801
O O8 0.937721 0.374868 0.876720
O O9 0.269752 0.427153 0.128962
O O10 0.243119 0.486237 0.000000
O O11 0.374094 0.625907 0.333334
O O12 0.527000 0.656743 0.260843
O O13 0.526095 0.699680 0.398628
O O14 0.500000 0.000000 0.888205
O O15 0.654143 0.972286 0.890533
#
# Coordination Sequence:
#
# PCOD9583848 Si02
#       7
#     6  12  12  12  12  12  12
#     4  10  21  32  52  74  98 140 184 228 291 320
#     4  10  22  39  54  71 103 146 191 238 280 336
#     4  11  23  34  52  80 108 143 192 238 281 341
#     4  11  20  33  50  74 106 137 185 240 276 324
#     4  11  21  35  55  77 109 148 184 228 289 347
#     4  12  22  34  54  80 113 143 185 237 294 344
#     4  10  23  36  50  78 100 141 190 228 286 343
#
# _framework density 17.994242
#
# number of rings (size 3 to 8) (size 9 to 14) (size 15 to 20)
#    0.000    1.231    4.615    1.615    6.462    3.692 
#    0.000    0.000    0.000    0.000    0.000    0.000 
#    0.000    2.462    0.000   13.846    0.000    0.615 
#
# Total GULP energy -434917.966638 kJ/mol
# GULP energy per Si atom -5575.871367 kJ/mol
# Density = 1.795329 g / cm^3
# Si number density = 17.994242 Si / 1000 Ang^3
#
#
#
# Elastic Constant Matrix: (Units=GPa)
#
#
# Indices 1 2 3 4 5 6 
#
# 1 43.7172 13.4831 11.1206 0.0000 0.0000 0.0000
# 2 13.4831 43.7172 11.1206 0.0000 0.0000 0.0000
# 3 11.1206 11.1206 87.2325 0.0000 0.0000 0.0000
# 4 0.0000 0.0000 0.0000 28.6027 0.0000 0.0000
# 5 0.0000 0.0000 0.0000 0.0000 28.6027 0.0000
# 6 0.0000 0.0000 0.0000 0.0000 0.0000 15.1170
#
#
#
# Elastic Compliance Matrix: (Units=1/GPa)
#
#
# Indices 1 2 3 4 5 6 
#
# 1 0.025735 -0.007341 -0.002345 0.000000 0.000000 0.000000
# 2 -0.007341 0.025735 -0.002345 0.000000 0.000000 0.000000
# 3 -0.002345 -0.002345 0.012061 0.000000 0.000000 0.000000
# 4 0.000000 0.000000 0.000000 0.034962 0.000000 0.000000
# 5 0.000000 0.000000 0.000000 0.000000 0.034962 0.000000
# 6 0.000000 0.000000 0.000000 0.000000 0.000000 0.066151
#
#
# Mechanical properties :
#
#
# Convention : Reuss Voigt Hill
#
# Bulk Modulus (GPa) = 25.33560 27.34618 26.34089
# Shear Modulus (GPa) = 21.11285 23.72730 22.42008
#
# Velocity S-wave (km/s) = 3.42908 3.63520 3.53364
# Velocity P-wave (km/s) = 5.45789 5.73147 5.59635
#
# Compressibility (1/GPa) = 0.03947015
#
# Stress axis : x y z
#
# Youngs Moduli (GPa) = 38.85797 38.85797 82.90845
#
# Poissons Ratio (x) = 0.28524 0.19442
# Poissons Ratio (y) = 0.28524 0.19442
# Poissons Ratio (z) = 0.09112 0.09112
#
# Static dielectric constant tensor:
#      x y z
#    x 1.667720 0.000000 0.000000 
#    y 0.000000 1.667720 0.000000 
#    z 0.000000 0.000000 1.655990 
# 
# From -- ./inp_files/7968.got.cif
#   From: 2010.05.17/outbox.cif.g08.bks.cpg/sg180_4_cif.got.tgz:7968.got - 2010.05.20 11:43:55.
