data_PCOD9583877
_publ_section_title
;
Structure prediction by ZEFSAII (Michael W. Deem and Ramdas Pophale) SiO2 
 PCOD9583877
Probable space group: P 62 2 2
;
_chemical_formula_sum "Si O2"
_cell_formula_units_Z 60
_cell_length_a 15.990122
_cell_length_b 15.990122
_cell_length_c 12.781566
_cell_angle_alpha 90.000000
_cell_angle_beta 90.000000
_cell_angle_gamma 120.000000
_cell_volume 2830.207342
_symmetry_space_group_name_H-M "P 62 2 2"
_symmetry_group_IT_number 180
_symmetry_cell_setting 'hexagonal'
loop_
_space_group_symop_operation_xyz
x,y,z
x-y,x,1/3+z
-y,x-y,2/3+z
-x,-y,z
-x+y,-x,1/3+z
y,-x+y,2/3+z
x-y,-y,-z
-x,-x+y,1/3-z
y,x,2/3-z
-y,-x,2/3-z
-x+y,y,-z
x,x-y,1/3-z
loop_
_atom_site_type_symbol
_atom_site_label
_atom_site_fract_x
_atom_site_fract_y
_atom_site_fract_z
Si Si1 0.264084 0.697597 0.457241
Si Si2 0.101096 0.700159 0.207650
Si Si3 0.439214 0.388707 0.569524
Si Si4 0.793973 0.895196 0.790249
Si Si5 0.294702 0.241295 0.215051
O O1 0.285410 0.714591 0.333334
O O2 0.326948 0.653895 0.500000
O O3 0.302525 0.806131 0.499315
O O4 0.151612 0.637189 0.484326
O O5 0.088542 0.685204 0.332382
O O6 0.111873 0.802671 0.177225
O O7 0.000000 0.616392 0.166667
O O8 0.500000 0.500000 0.603110
O O9 0.345897 0.366288 0.502576
O O10 0.875395 0.875395 0.833334
O O11 0.797125 0.898563 0.666667
O O12 0.800899 0.991056 0.830917
O O13 0.270533 0.270533 0.333334
O O14 0.325240 0.162620 0.166667
#
# Coordination Sequence:
#
# PCOD9583877 Si02
#       5
#    12  12  12  12  12
#     4  10  22  42  65  98 133 169 223 289 349 410
#     4  10  21  37  73 102 129 166 225 296 356 403
#     4  11  25  45  66 102 141 183 239 288 356 432
#     4  11  20  41  70  96 132 172 219 287 344 403
#     4  12  27  47  70 105 146 194 242 286 360 447
#
# _framework density 21.199860000000001
#
# number of rings (size 3 to 8) (size 9 to 14) (size 15 to 20)
#    0.000    1.200    4.000    1.800    8.400    1.600 
#    3.600    2.000    0.000    0.000    0.000    0.000 
#    0.000    0.000    0.000    0.000    0.000    0.000 
#
# Total GULP energy -334206.950250 kJ/mol
# GULP energy per Si atom -5570.115838 kJ/mol
# Density = 2.115161 g / cm^3
# Si number density = 21.199860 Si / 1000 Ang^3
#
#
#
# Elastic Constant Matrix: (Units=GPa)
#
#
# Indices 1 2 3 4 5 6 
#
# 1 97.5223 35.7493 -2.7156 0.0000 0.0000 0.0000
# 2 35.7493 97.5223 -2.7156 0.0000 0.0000 0.0000
# 3 -2.7156 -2.7156 36.8967 0.0000 0.0000 0.0000
# 4 0.0000 0.0000 0.0000 21.6823 0.0000 0.0000
# 5 0.0000 0.0000 0.0000 0.0000 21.6823 0.0000
# 6 0.0000 0.0000 0.0000 0.0000 0.0000 30.8865
#
#
#
# Elastic Compliance Matrix: (Units=1/GPa)
#
#
# Indices 1 2 3 4 5 6 
#
# 1 0.011857 -0.004331 0.000554 0.000000 0.000000 0.000000
# 2 -0.004331 0.011857 0.000554 0.000000 0.000000 0.000000
# 3 0.000554 0.000554 0.027184 0.000000 0.000000 0.000000
# 4 0.000000 0.000000 0.000000 0.046120 0.000000 0.000000
# 5 0.000000 0.000000 0.000000 0.000000 0.046120 0.000000
# 6 0.000000 0.000000 0.000000 0.000000 0.000000 0.032377
#
#
# Mechanical properties :
#
#
# Convention : Reuss Voigt Hill
#
# Bulk Modulus (GPa) = 22.49617 32.50861 27.50239
# Shear Modulus (GPa) = 25.40906 28.29177 26.85042
#
# Velocity S-wave (km/s) = 3.46576 3.65708 3.56271
# Velocity P-wave (km/s) = 5.16235 5.76194 5.47037
#
# Compressibility (1/GPa) = 0.04445201
#
# Stress axis : x y z
#
# Youngs Moduli (GPa) = 84.33707 84.33707 36.78599
#
# Poissons Ratio (x) = 0.36527 -0.02038
# Poissons Ratio (y) = 0.36527 -0.02038
# Poissons Ratio (z) = -0.04672 -0.04672
#
# Static dielectric constant tensor:
#      x y z
#    x 1.771920 0.000000 0.000000 
#    y 0.000000 1.771920 0.000000 
#    z 0.000000 0.000000 1.847010 
# 
# From -- ./inp_files/6095.got.cif
#   From: 2010.05.17/outbox.cif.g08.bks.cpg/sg180_4_cif.got.tgz:6095.got - 2010.05.20 11:43:55.
