data_PCOD9583451
_publ_section_title
;
Structure prediction by ZEFSAII (Michael W. Deem and Ramdas Pophale) SiO2 
 PCOD9583451
Probable space group: P 65 2 2
;
_chemical_formula_sum "Si O2"
_cell_formula_units_Z 48
_cell_length_a 16.175361
_cell_length_b 16.175361
_cell_length_c 8.758872
_cell_angle_alpha 90.000000
_cell_angle_beta 90.000000
_cell_angle_gamma 120.000000
_cell_volume 1984.663010
_symmetry_space_group_name_H-M "P 65 2 2"
_symmetry_group_IT_number 179
_symmetry_cell_setting 'hexagonal'
loop_
_space_group_symop_operation_xyz
x,y,z
x-y,x,5/6+z
-y,x-y,2/3+z
-x,-y,1/2+z
-x+y,-x,1/3+z
y,-x+y,1/6+z
x-y,-y,-z
-x,-x+y,1/3-z
y,x,2/3-z
-y,-x,1/6-z
-x+y,y,1/2-z
x,x-y,5/6-z
loop_
_atom_site_type_symbol
_atom_site_label
_atom_site_fract_x
_atom_site_fract_y
_atom_site_fract_z
Si Si1 0.306564 0.183481 0.568236
Si Si2 0.400467 0.948211 0.663077
Si Si3 0.357762 0.715524 0.250000
Si Si4 0.869313 0.291845 0.459842
Si Si5 0.267230 0.000000 0.000000
O O1 0.255191 0.127596 0.416667
O O2 0.393312 0.285839 0.506813
O O3 0.354267 0.132823 0.662226
O O4 0.241289 0.204688 0.681991
O O5 0.446568 0.893135 0.750000
O O6 0.440780 0.000000 0.500000
O O7 0.431350 0.037779 0.772013
O O8 0.326879 0.663440 0.416667
O O9 0.472349 0.781150 0.271192
O O10 0.902224 0.267637 0.620732
#
# Coordination Sequence:
#
# PCOD9583451 Si02
#       5
#    12  12   6  12   6
#     4  11  23  41  66  94 131 171 241 310 366 432
#     4  11  24  40  67  94 130 190 246 293 366 451
#     4  12  28  44  66  96 140 194 250 326 388 430
#     4  11  24  45  64  97 134 181 250 314 364 444
#     4  10  24  42  68  90 130 184 224 304 386 442
#
# _framework density 24.185465000000001
#
# number of rings (size 3 to 8) (size 9 to 14) (size 15 to 20)
#    0.000    1.000    3.750    2.250    8.750    3.000 
#    0.000    0.000    0.000    0.000    0.000    0.000 
#    0.000    0.000    0.000  819.000   65.500    0.000 
#
# Total GULP energy -267612.927810 kJ/mol
# GULP energy per Si atom -5575.269329 kJ/mol
# Density = 2.413042 g / cm^3
# Si number density = 24.185465 Si / 1000 Ang^3
#
#
#
# Elastic Constant Matrix: (Units=GPa)
#
#
# Indices 1 2 3 4 5 6 
#
# 1 67.8696 19.4451 39.0447 0.0000 0.0000 0.0000
# 2 19.4451 67.8696 39.0447 0.0000 0.0000 0.0000
# 3 39.0447 39.0447 178.5821 0.0000 0.0000 0.0000
# 4 0.0000 0.0000 0.0000 36.1871 0.0000 0.0000
# 5 0.0000 0.0000 0.0000 0.0000 36.1871 0.0000
# 6 0.0000 0.0000 0.0000 0.0000 0.0000 24.2123
#
#
#
# Elastic Compliance Matrix: (Units=1/GPa)
#
#
# Indices 1 2 3 4 5 6 
#
# 1 0.017444 -0.003207 -0.003113 0.000000 0.000000 0.000000
# 2 -0.003207 0.017444 -0.003113 0.000000 0.000000 0.000000
# 3 -0.003113 -0.003113 0.006961 0.000000 0.000000 0.000000
# 4 0.000000 0.000000 0.000000 0.027634 0.000000 0.000000
# 5 0.000000 0.000000 0.000000 0.000000 0.027634 0.000000
# 6 0.000000 0.000000 0.000000 0.000000 0.000000 0.041301
#
#
# Mechanical properties :
#
#
# Convention : Reuss Voigt Hill
#
# Bulk Modulus (GPa) = 43.50977 56.59894 50.05435
# Shear Modulus (GPa) = 30.31341 33.76977 32.04159
#
# Velocity S-wave (km/s) = 3.54414 3.74074 3.64377
# Velocity P-wave (km/s) = 5.89720 6.48925 6.20030
#
# Compressibility (1/GPa) = 0.02298335
#
# Stress axis : x y z
#
# Youngs Moduli (GPa) = 57.32746 57.32746 143.66273
#
# Poissons Ratio (x) = 0.18385 0.44717
# Poissons Ratio (y) = 0.18385 0.44717
# Poissons Ratio (z) = 0.17844 0.17844
#
# Static dielectric constant tensor:
#      x y z
#    x 2.042220 0.000000 0.000000 
#    y 0.000000 2.042220 0.000000 
#    z 0.000000 0.000000 2.041290 
# 
# From -- ./inp_files/2858.got.cif
#   From: 2010.05.17/outbox.cif.g08.bks.cpg/sg179_2_cif.got.tgz:2858.got - 2010.05.20 11:37:33.
