data_PCOD9583169
_publ_section_title
;
Structure prediction by ZEFSAII (Michael W. Deem and Ramdas Pophale) SiO2 
 PCOD9583169
Probable space group: P 65 2 2
;
_chemical_formula_sum "Si O2"
_cell_formula_units_Z 84
_cell_length_a 24.896250
_cell_length_b 24.896250
_cell_length_c 10.965502
_cell_angle_alpha 90.000000
_cell_angle_beta 90.000000
_cell_angle_gamma 120.000000
_cell_volume 5886.091689
_symmetry_space_group_name_H-M "P 65 2 2"
_symmetry_group_IT_number 179
_symmetry_cell_setting 'hexagonal'
loop_
_space_group_symop_operation_xyz
x,y,z
x-y,x,5/6+z
-y,x-y,2/3+z
-x,-y,1/2+z
-x+y,-x,1/3+z
y,-x+y,1/6+z
x-y,-y,-z
-x,-x+y,1/3-z
y,x,2/3-z
-y,-x,1/6-z
-x+y,y,1/2-z
x,x-y,5/6-z
loop_
_atom_site_type_symbol
_atom_site_label
_atom_site_fract_x
_atom_site_fract_y
_atom_site_fract_z
Si Si1 0.082322 0.540836 0.279133
Si Si2 0.007732 0.399252 0.293333
Si Si3 0.450913 0.283355 0.878527
Si Si4 0.579723 0.222859 0.085423
Si Si5 0.588138 0.255464 0.631700
Si Si6 0.502054 0.626383 0.610167
Si Si7 0.050805 0.404513 0.570045
O O1 0.060067 0.530034 0.416667
O O2 0.052943 0.469768 0.243067
O O3 0.156564 0.582528 0.275949
O O4 0.059518 0.586742 0.230380
O O5 0.035830 0.392562 0.424739
O O6 0.000000 0.361289 0.166667
O O7 0.940228 0.386601 0.334533
O O8 0.425430 0.212715 0.916667
O O9 0.518220 0.308256 0.820042
O O10 0.411359 0.295541 0.778135
O O11 0.466521 0.329920 0.992797
O O12 0.579287 0.264702 0.194755
O O13 0.635223 0.257628 0.991467
O O14 0.628661 0.257322 0.750000
O O15 0.526428 0.187714 0.643840
O O16 0.441101 0.558900 0.583334
O O17 0.000000 0.358790 0.666667
#
# Coordination Sequence:
#
# PCOD9583169 Si02
#       7
#    12  12  12  12  12  12  12
#     4   9  20  32  44  63  91 106 130 184 238 268
#     4  11  21  32  49  72  95 110 140 186 241 279
#     4  11  19  32  49  68  90 112 145 186 225 272
#     4  11  20  33  44  59  84 111 147 183 215 276
#     4  11  20  30  44  61  78 109 148 178 213 268
#     4  11  19  29  51  69  83 109 147 185 227 282
#     4  10  19  31  48  69  88 112 143 178 222 272
#
# _framework density 14.27093
#
# number of rings (size 3 to 8) (size 9 to 14) (size 15 to 20)
#    0.000    1.429    5.714    3.000    2.000    1.143 
#    0.000    1.429    0.000    0.857    0.000    0.000 
#    0.000    0.000    0.000    0.000    0.000    0.000 
#
# Total GULP energy -467606.440023 kJ/mol
# GULP energy per Si atom -5566.743334 kJ/mol
# Density = 1.423845 g / cm^3
# Si number density = 14.270930 Si / 1000 Ang^3
#
#
#
# Elastic Constant Matrix: (Units=GPa)
#
#
# Indices 1 2 3 4 5 6 
#
# 1 49.0132 33.1241 26.5261 0.0000 0.0000 0.0000
# 2 33.1241 49.0132 26.5261 0.0000 0.0000 0.0000
# 3 26.5261 26.5261 80.3366 0.0000 0.0000 0.0000
# 4 0.0000 0.0000 0.0000 20.0336 0.0000 0.0000
# 5 0.0000 0.0000 0.0000 0.0000 20.0336 0.0000
# 6 0.0000 0.0000 0.0000 0.0000 0.0000 7.9445
#
#
#
# Elastic Compliance Matrix: (Units=1/GPa)
#
#
# Indices 1 2 3 4 5 6 
#
# 1 0.039206 -0.023731 -0.005110 0.000000 0.000000 0.000000
# 2 -0.023731 0.039206 -0.005110 0.000000 0.000000 0.000000
# 3 -0.005110 -0.005110 0.015822 0.000000 0.000000 0.000000
# 4 0.000000 0.000000 0.000000 0.049916 0.000000 0.000000
# 5 0.000000 0.000000 0.000000 0.000000 0.049916 0.000000
# 6 0.000000 0.000000 0.000000 0.000000 0.000000 0.125873
#
#
# Mechanical properties :
#
#
# Convention : Reuss Voigt Hill
#
# Bulk Modulus (GPa) = 37.97465 38.96842 38.47154
# Shear Modulus (GPa) = 12.60665 15.74812 14.17738
#
# Velocity S-wave (km/s) = 2.97539 3.32552 3.15532
# Velocity P-wave (km/s) = 6.20254 6.48929 6.34753
#
# Compressibility (1/GPa) = 0.02633336
#
# Stress axis : x y z
#
# Youngs Moduli (GPa) = 25.50649 25.50649 63.20352
#
# Poissons Ratio (x) = 0.60529 0.32295
# Poissons Ratio (y) = 0.60529 0.32295
# Poissons Ratio (z) = 0.13033 0.13033
#
# Static dielectric constant tensor:
#      x y z
#    x 1.491410 0.000000 0.000000 
#    y 0.000000 1.491410 0.000000 
#    z 0.000000 0.000000 1.529320 
# 
# From -- ./inp_files/5039.got.cif
#   From: 2010.05.17/outbox.cif.g08.bks.cpg/sg179_3_cif.got.tgz:5039.got - 2010.05.20 11:37:33.
