data_PCOD9583425
_publ_section_title
;
Structure prediction by ZEFSAII (Michael W. Deem and Ramdas Pophale) SiO2 
 PCOD9583425
Probable space group: P 65 2 2
;
_chemical_formula_sum "Si O2"
_cell_formula_units_Z 54
_cell_length_a 15.975919
_cell_length_b 15.975919
_cell_length_c 12.106388
_cell_angle_alpha 90.000000
_cell_angle_beta 90.000000
_cell_angle_gamma 120.000000
_cell_volume 2675.943381
_symmetry_space_group_name_H-M "P 65 2 2"
_symmetry_group_IT_number 179
_symmetry_cell_setting 'hexagonal'
loop_
_space_group_symop_operation_xyz
x,y,z
x-y,x,5/6+z
-y,x-y,2/3+z
-x,-y,1/2+z
-x+y,-x,1/3+z
y,-x+y,1/6+z
x-y,-y,-z
-x,-x+y,1/3-z
y,x,2/3-z
-y,-x,1/6-z
-x+y,y,1/2-z
x,x-y,5/6-z
loop_
_atom_site_type_symbol
_atom_site_label
_atom_site_fract_x
_atom_site_fract_y
_atom_site_fract_z
Si Si1 0.368606 0.519749 0.179429
Si Si2 0.268394 0.721199 0.952750
Si Si3 0.868660 0.045534 0.390695
Si Si4 0.199978 0.376822 0.458188
Si Si5 0.000000 0.636685 0.666667
O O1 0.397194 0.623372 0.233035
O O2 0.261254 0.449984 0.127757
O O3 0.384935 0.455909 0.264852
O O4 0.446961 0.553040 0.083334
O O5 0.221153 0.610577 0.916667
O O6 0.206384 0.764040 0.900503
O O7 0.273170 0.726831 0.083334
O O8 0.831355 0.107747 0.325182
O O9 0.970347 0.105660 0.462134
O O10 0.801805 0.000000 0.500000
O O11 0.274556 0.346441 0.410040
#
# Coordination Sequence:
#
# PCOD9583425 Si02
#       5
#    12  12  12  12   6
#     4  10  23  42  60  92 134 173 217 275 324 392
#     4  11  22  40  67  94 131 185 223 267 331 404
#     4  10  23  46  69  96 128 167 217 276 339 408
#     4  11  24  42  64  94 136 172 216 279 338 392
#     4  12  22  38  64  94 124 164 224 266 326 396
#
# _framework density 20.179798000000002
#
# number of rings (size 3 to 8) (size 9 to 14) (size 15 to 20)
#    0.000    1.333    0.000    6.667    3.111    2.667 
#   18.000    0.000    0.000    0.000    0.000    0.000 
#    0.000    0.000    0.000    0.000    0.000    0.000 
#
# Total GULP energy -300852.588593 kJ/mol
# GULP energy per Si atom -5571.344233 kJ/mol
# Density = 2.013387 g / cm^3
# Si number density = 20.179798 Si / 1000 Ang^3
#
#
#
# Elastic Constant Matrix: (Units=GPa)
#
#
# Indices 1 2 3 4 5 6 
#
# 1 75.5451 25.7506 12.9810 0.0000 0.0000 0.0000
# 2 25.7506 75.5451 12.9810 0.0000 0.0000 0.0000
# 3 12.9810 12.9810 88.8526 0.0000 0.0000 0.0000
# 4 0.0000 0.0000 0.0000 11.7299 0.0000 0.0000
# 5 0.0000 0.0000 0.0000 0.0000 11.7299 0.0000
# 6 0.0000 0.0000 0.0000 0.0000 0.0000 24.8972
#
#
#
# Elastic Compliance Matrix: (Units=1/GPa)
#
#
# Indices 1 2 3 4 5 6 
#
# 1 0.015169 -0.004913 -0.001498 0.000000 0.000000 0.000000
# 2 -0.004913 0.015169 -0.001498 0.000000 0.000000 0.000000
# 3 -0.001498 -0.001498 0.011692 0.000000 0.000000 0.000000
# 4 0.000000 0.000000 0.000000 0.085253 0.000000 0.000000
# 5 0.000000 0.000000 0.000000 0.000000 0.085253 0.000000
# 6 0.000000 0.000000 0.000000 0.000000 0.000000 0.040165
#
#
# Mechanical properties :
#
#
# Convention : Reuss Voigt Hill
#
# Bulk Modulus (GPa) = 38.15174 38.15202 38.15188
# Shear Modulus (GPa) = 18.03373 22.22007 20.12690
#
# Velocity S-wave (km/s) = 2.99265 3.32189 3.16156
# Velocity P-wave (km/s) = 5.55771 5.80175 5.68104
#
# Compressibility (1/GPa) = 0.02621113
#
# Stress axis : x y z
#
# Youngs Moduli (GPa) = 65.92248 65.92248 85.52559
#
# Poissons Ratio (x) = 0.32389 0.12815
# Poissons Ratio (y) = 0.32389 0.12815
# Poissons Ratio (z) = 0.09878 0.09878
#
# Static dielectric constant tensor:
#      x y z
#    x 1.800310 0.000000 0.000000 
#    y 0.000000 1.800310 0.000000 
#    z 0.000000 0.000000 2.010710 
# 
# From -- ./inp_files/4561.got.cif
#   From: 2010.05.17/outbox.cif.g08.bks.cpg/sg179_3_cif.got.tgz:4561.got - 2010.05.20 11:37:33.
