data_PCOD9583936
_publ_section_title
;
Structure prediction by ZEFSAII (Michael W. Deem and Ramdas Pophale) SiO2 
 PCOD9583936
Probable space group: P 62 2 2
;
_chemical_formula_sum "Si O2"
_cell_formula_units_Z 72
_cell_length_a 21.706044
_cell_length_b 21.706044
_cell_length_c 10.087222
_cell_angle_alpha 90.000000
_cell_angle_beta 90.000000
_cell_angle_gamma 120.000000
_cell_volume 4115.888192
_symmetry_space_group_name_H-M "P 62 2 2"
_symmetry_group_IT_number 180
_symmetry_cell_setting 'hexagonal'
loop_
_space_group_symop_operation_xyz
x,y,z
x-y,x,1/3+z
-y,x-y,2/3+z
-x,-y,z
-x+y,-x,1/3+z
y,-x+y,2/3+z
x-y,-y,-z
-x,-x+y,1/3-z
y,x,2/3-z
-y,-x,2/3-z
-x+y,y,-z
x,x-y,1/3-z
loop_
_atom_site_type_symbol
_atom_site_label
_atom_site_fract_x
_atom_site_fract_y
_atom_site_fract_z
Si Si1 0.416918 0.947399 0.330329
Si Si2 0.264106 0.921666 0.937928
Si Si3 0.489872 0.373892 0.390096
Si Si4 0.243131 0.747221 0.172417
Si Si5 0.328314 0.328314 0.833334
Si Si6 0.410567 0.589434 0.833334
Si Si7 0.217239 0.867155 0.637781
O O1 0.402596 0.940229 0.175418
O O2 0.364509 0.972280 0.391817
O O3 0.405004 0.873755 0.393269
O O4 0.500000 0.000000 0.355079
O O5 0.244648 0.902412 0.783073
O O6 0.326541 0.902843 0.962088
O O7 0.191112 0.865937 0.014082
O O8 0.292845 0.000000 0.000000
O O9 0.558955 0.441046 0.333334
O O10 0.509201 0.318049 0.453900
O O11 0.243077 0.756923 0.333334
O O12 0.229305 0.670591 0.128629
O O13 0.181448 0.753359 0.094072
O O14 0.317187 0.252681 0.876997
#
# Coordination Sequence:
#
# PCOD9583936 Si02
#       7
#    12  12  12  12   6   6  12
#     4  12  22  36  56  85 108 146 193 255 308 349
#     4  10  23  41  60  86 123 158 186 241 307 360
#     4  11  26  37  53  80 109 147 206 248 300 361
#     4  11  22  40  56  76 108 150 197 262 309 362
#     4  12  19  36  64  84 112 147 192 242 292 346
#     4  12  21  36  60  78 110 144 204 252 310 356
#     4  10  22  39  61  88 118 152 191 237 300 360
#
# _framework density 17.493186999999999
#
# number of rings (size 3 to 8) (size 9 to 14) (size 15 to 20)
#    0.000    1.000    5.000    1.000    7.000    2.000 
#    0.000    0.000    0.000    0.000    0.000    0.000 
#    0.000    8.000    0.000    0.000    0.000    0.000 
#
# Total GULP energy -401247.804055 kJ/mol
# GULP energy per Si atom -5572.886167 kJ/mol
# Density = 1.745337 g / cm^3
# Si number density = 17.493187 Si / 1000 Ang^3
#
#
#
# Elastic Constant Matrix: (Units=GPa)
#
#
# Indices 1 2 3 4 5 6 
#
# 1 94.8797 65.8438 28.9176 0.0000 0.0000 0.0000
# 2 65.8438 94.8797 28.9176 0.0000 0.0000 0.0000
# 3 28.9176 28.9176 41.8193 0.0000 0.0000 0.0000
# 4 0.0000 0.0000 0.0000 45.2374 0.0000 0.0000
# 5 0.0000 0.0000 0.0000 0.0000 45.2374 0.0000
# 6 0.0000 0.0000 0.0000 0.0000 0.0000 14.5180
#
#
#
# Elastic Compliance Matrix: (Units=1/GPa)
#
#
# Indices 1 2 3 4 5 6 
#
# 1 0.021361 -0.013079 -0.005728 0.000000 0.000000 0.000000
# 2 -0.013079 0.021361 -0.005728 0.000000 0.000000 0.000000
# 3 -0.005728 -0.005728 0.031833 0.000000 0.000000 0.000000
# 4 0.000000 0.000000 0.000000 0.022106 0.000000 0.000000
# 5 0.000000 0.000000 0.000000 0.000000 0.022106 0.000000
# 6 0.000000 0.000000 0.000000 0.000000 0.000000 0.068880
#
#
# Mechanical properties :
#
#
# Convention : Reuss Voigt Hill
#
# Bulk Modulus (GPa) = 39.23242 53.21518 46.22380
# Shear Modulus (GPa) = 20.39059 28.19188 24.29123
#
# Velocity S-wave (km/s) = 3.41784 4.01882 3.73045
# Velocity P-wave (km/s) = 6.16858 7.21257 6.71091
#
# Compressibility (1/GPa) = 0.02548912
#
# Stress axis : x y z
#
# Youngs Moduli (GPa) = 46.81330 46.81330 31.41351
#
# Poissons Ratio (x) = 0.61225 0.17992
# Poissons Ratio (y) = 0.61225 0.17992
# Poissons Ratio (z) = 0.26812 0.26812
#
# Static dielectric constant tensor:
#      x y z
#    x 1.549480 0.000000 0.000000 
#    y 0.000000 1.549480 0.000000 
#    z 0.000000 0.000000 1.653580 
# 
# From -- ./inp_files/5018.got.cif
#   From: 2010.05.17/outbox.cif.g08.bks.cpg/sg180_3_cif.got.tgz:5018.got - 2010.05.20 11:43:55.
