data_PCOD9583068
_publ_section_title
;
Structure prediction by ZEFSAII (Michael W. Deem and Ramdas Pophale) SiO2 
 PCOD9583068
Probable space group: P 61 2 2
;
_chemical_formula_sum "Si O2"
_cell_formula_units_Z 36
_cell_length_a 8.602460
_cell_length_b 8.602460
_cell_length_c 28.395437
_cell_angle_alpha 90.000000
_cell_angle_beta 90.000000
_cell_angle_gamma 120.000000
_cell_volume 1819.803568
_symmetry_space_group_name_H-M "P 61 2 2"
_symmetry_group_IT_number 178
_symmetry_cell_setting 'hexagonal'
loop_
_space_group_symop_operation_xyz
x,y,z
x-y,x,1/6+z
-y,x-y,1/3+z
-x,-y,1/2+z
-x+y,-x,2/3+z
y,-x+y,5/6+z
x-y,-y,-z
-x,-x+y,2/3-z
y,x,1/3-z
-y,-x,5/6-z
-x+y,y,1/2-z
x,x-y,1/6-z
loop_
_atom_site_type_symbol
_atom_site_label
_atom_site_fract_x
_atom_site_fract_y
_atom_site_fract_z
Si Si1 0.208002 0.472843 0.043358
Si Si2 0.880559 0.438987 0.442417
Si Si3 0.777244 0.858953 0.218734
O O1 0.206814 0.603407 0.083334
O O2 0.384522 0.456621 0.048516
O O3 0.032594 0.277795 0.048761
O O4 0.201439 0.548186 0.992149
O O5 0.745182 0.254819 0.416667
O O6 0.904698 0.603521 0.410315
O O7 0.802812 0.802812 0.166667
O O8 0.948996 0.897992 0.250000
#
# Coordination Sequence:
#
# PCOD9583068 Si02
#       3
#    12  12  12
#     4  12  27  47  74 106 143 190 242 297 359 426
#     4  12  27  47  72 107 144 188 241 294 358 427
#     4  12  25  47  75 106 145 188 238 299 362 427
#
# _framework density 19.782354000000002
#
# number of rings (size 3 to 8) (size 9 to 14) (size 15 to 20)
#    0.000    0.000    3.333    7.000    4.667    0.000 
#    0.000    0.000    0.000    0.000    0.000    0.000 
#    0.000    0.000    0.000    0.000    0.000    0.000 
#
# Total GULP energy -201782.422744 kJ/mol
# GULP energy per Si atom -5605.067298 kJ/mol
# Density = 1.973733 g / cm^3
# Si number density = 19.782354 Si / 1000 Ang^3
#
#
#
# Elastic Constant Matrix: (Units=GPa)
#
#
# Indices 1 2 3 4 5 6 
#
# 1 111.3076 111.3900 87.0802 0.0000 0.0000 0.0000
# 2 111.3900 111.3076 87.0802 0.0000 0.0000 0.0000
# 3 87.0802 87.0802 210.7781 0.0000 0.0000 0.0000
# 4 0.0000 0.0000 0.0000 37.2912 0.0000 0.0000
# 5 0.0000 0.0000 0.0000 0.0000 37.2912 0.0000
# 6 0.0000 0.0000 0.0000 0.0000 0.0000 -0.0412
#
#
#
# Elastic Compliance Matrix: (Units=1/GPa)
#
#
# Indices 1 2 3 4 5 6 
#
# 1 -6.060608 6.067241 -0.002741 0.000000 0.000000 -0.000076
# 2 6.067241 -6.060608 -0.002741 0.000000 0.000000 0.000076
# 3 -0.002741 -0.002741 0.007009 0.000000 0.000000 0.000000
# 4 0.000000 0.000000 0.000000 0.026816 0.000000 0.000000
# 5 0.000000 0.000000 0.000000 0.000000 0.026816 0.000000
# 6 -0.000076 0.000076 0.000000 0.000000 0.000000-24.255522
#
#
# Mechanical properties :
#
#
# Convention : Reuss Voigt Hill
#
# Bulk Modulus (GPa) = 107.36841 111.61044 109.48942
# Shear Modulus (GPa) = -0.10323 24.76443 12.33060
#
# Velocity S-wave (km/s) = -0.22868 3.54198 2.49933
# Velocity P-wave (km/s) = 7.37041 8.55974 7.98724
#
# Compressibility (1/GPa) = 0.00931373
#
# Stress axis : x y z
#
# Youngs Moduli (GPa) = -0.16500 -0.16500 142.67718
#
# Poissons Ratio (x) = 1.00109 0.39102
# Poissons Ratio (y) = 1.00109 0.39102
# Poissons Ratio (z) = -0.00045 -0.00045
#
# Static dielectric constant tensor:
#      x y z
#    x 1.659070 0.000000 0.000000 
#    y 0.000000 1.659070 0.000000 
#    z 0.000000 0.000000 1.662820 
# 
# From -- ./inp_files/8473.got.cif
#   From: 2010.05.17/outbox.cif.g08.bks.cpg/sg178_5_cif.got.tgz:8473.got - 2010.05.20 11:30:59.
