data_PCOD9583712
_publ_section_title
;
Structure prediction by ZEFSAII (Michael W. Deem and Ramdas Pophale) SiO2 
 PCOD9583712
Probable space group: P 62 2 2
;
_chemical_formula_sum "Si O2"
_cell_formula_units_Z 72
_cell_length_a 15.322876
_cell_length_b 15.322876
_cell_length_c 16.715732
_cell_angle_alpha 90.000000
_cell_angle_beta 90.000000
_cell_angle_gamma 120.000000
_cell_volume 3398.886055
_symmetry_space_group_name_H-M "P 62 2 2"
_symmetry_group_IT_number 180
_symmetry_cell_setting 'hexagonal'
loop_
_space_group_symop_operation_xyz
x,y,z
x-y,x,1/3+z
-y,x-y,2/3+z
-x,-y,z
-x+y,-x,1/3+z
y,-x+y,2/3+z
x-y,-y,-z
-x,-x+y,1/3-z
y,x,2/3-z
-y,-x,2/3-z
-x+y,y,-z
x,x-y,1/3-z
loop_
_atom_site_type_symbol
_atom_site_label
_atom_site_fract_x
_atom_site_fract_y
_atom_site_fract_z
Si Si1 0.384839 0.937204 0.682453
Si Si2 0.141184 0.042544 0.581809
Si Si3 0.307197 0.044428 0.801298
Si Si4 0.869246 0.669245 0.256007
Si Si5 0.615307 0.706236 0.279268
Si Si6 0.712196 0.415477 0.409262
O O1 0.314686 0.903978 0.604796
O O2 0.356998 0.833517 0.728976
O O3 0.500000 0.000000 0.661973
O O4 0.360261 0.011189 0.735458
O O5 0.097186 0.048593 0.666667
O O6 0.218175 0.160714 0.568045
O O7 0.080948 0.000000 0.500000
O O8 0.187313 0.967135 0.585745
O O9 0.361681 0.149025 0.851858
O O10 0.275378 0.957906 0.867931
O O11 0.807681 0.666292 0.335100
O O12 0.623211 0.623211 0.333334
O O13 0.502957 0.681559 0.261024
O O14 0.658313 0.341688 0.333334
O O15 0.686078 0.372156 0.500000
#
# Coordination Sequence:
#
# PCOD9583712 Si02
#       6
#    12  12  12  12  12  12
#     4  11  23  41  68 100 134 186 247 299 380 457
#     4  10  19  35  63  96 128 176 240 286 356 434
#     4  10  19  38  68  96 129 179 235 299 360 443
#     4   9  20  37  62  99 131 178 232 293 365 440
#     4   9  19  38  67 100 133 180 234 299 366 447
#     4  11  24  44  70 106 153 186 240 317 380 433
#
# _framework density 21.183409999999999
#
# number of rings (size 3 to 8) (size 9 to 14) (size 15 to 20)
#    0.000    2.000    3.333    0.000    0.000    4.333 
#    3.000    0.000    7.333   21.500    0.000    0.000 
#    0.000    0.000    0.000    0.000    0.000    0.000 
#
# Total GULP energy -401183.909042 kJ/mol
# GULP energy per Si atom -5571.998737 kJ/mol
# Density = 2.113520 g / cm^3
# Si number density = 21.183410 Si / 1000 Ang^3
#
#
#
# Elastic Constant Matrix: (Units=GPa)
#
#
# Indices 1 2 3 4 5 6 
#
# 1 94.7840 45.4533 43.8999 0.0000 0.0000 0.0000
# 2 45.4533 94.7840 43.8999 0.0000 0.0000 0.0000
# 3 43.8999 43.8999 128.9734 0.0000 0.0000 0.0000
# 4 0.0000 0.0000 0.0000 198.9748 0.0000 0.0000
# 5 0.0000 0.0000 0.0000 0.0000 198.9748 0.0000
# 6 0.0000 0.0000 0.0000 0.0000 0.0000 24.6654
#
#
#
# Elastic Compliance Matrix: (Units=1/GPa)
#
#
# Indices 1 2 3 4 5 6 
#
# 1 0.014667 -0.005605 -0.003084 0.000000 0.000000 0.000000
# 2 -0.005605 0.014667 -0.003084 0.000000 0.000000 0.000000
# 3 -0.003084 -0.003084 0.009853 0.000000 0.000000 0.000000
# 4 0.000000 0.000000 0.000000 0.005026 0.000000 0.000000
# 5 0.000000 0.000000 0.000000 0.000000 0.005026 0.000000
# 6 0.000000 0.000000 0.000000 0.000000 0.000000 0.040543
#
#
# Mechanical properties :
#
#
# Convention : Reuss Voigt Hill
#
# Bulk Modulus (GPa) = 63.94196 65.00533 64.47364
# Shear Modulus (GPa) = 42.17941 96.87555 69.52748
#
# Velocity S-wave (km/s) = 4.46707 6.76987 5.73523
# Velocity P-wave (km/s) = 7.54034 9.58445 8.62318
#
# Compressibility (1/GPa) = 0.01563918
#
# Stress axis : x y z
#
# Youngs Moduli (GPa) = 68.18201 68.18201 101.48855
#
# Poissons Ratio (x) = 0.38214 0.31304
# Poissons Ratio (y) = 0.38214 0.31304
# Poissons Ratio (z) = 0.21031 0.21031
#
# Static dielectric constant tensor:
#      x y z
#    x 1.483230 0.000000 0.000000 
#    y 0.000000 1.483230 0.000000 
#    z 0.000000 0.000000 1.826100 
# 
# From -- ./inp_files/7751.got.cif
#   From: 2010.05.17/outbox.cif.g08.bks.cpg/sg180_4_cif.got.tgz:7751.got - 2010.05.20 11:43:55.
