data_PCOD9583910
_publ_section_title
;
Structure prediction by ZEFSAII (Michael W. Deem and Ramdas Pophale) SiO2 
 PCOD9583910
Probable space group: P 62 2 2
;
_chemical_formula_sum "Si O2"
_cell_formula_units_Z 51
_cell_length_a 18.178228
_cell_length_b 18.178228
_cell_length_c 7.939918
_cell_angle_alpha 90.000000
_cell_angle_beta 90.000000
_cell_angle_gamma 120.000000
_cell_volume 2272.216669
_symmetry_space_group_name_H-M "P 62 2 2"
_symmetry_group_IT_number 180
_symmetry_cell_setting 'hexagonal'
loop_
_space_group_symop_operation_xyz
x,y,z
x-y,x,1/3+z
-y,x-y,2/3+z
-x,-y,z
-x+y,-x,1/3+z
y,-x+y,2/3+z
x-y,-y,-z
-x,-x+y,1/3-z
y,x,2/3-z
-y,-x,2/3-z
-x+y,y,-z
x,x-y,1/3-z
loop_
_atom_site_type_symbol
_atom_site_label
_atom_site_fract_x
_atom_site_fract_y
_atom_site_fract_z
Si Si1 0.500000 0.000000 0.000000
Si Si2 0.698754 0.397508 0.000000
Si Si3 0.395334 0.116670 0.243090
Si Si4 0.751986 0.751986 0.333334
Si Si5 0.735742 0.834287 0.845534
Si Si6 0.434704 0.887586 0.302150
O O1 0.430033 0.941733 0.142895
O O2 0.658914 0.341087 0.833334
O O3 0.799175 0.451082 0.976305
O O4 0.407296 0.203648 0.166667
O O5 0.351380 0.106596 0.422558
O O6 0.485116 0.122230 0.247244
O O7 0.320428 0.037528 0.142650
O O8 0.843094 0.761707 0.288778
O O9 0.806488 0.806488 0.833334
O O10 0.719772 0.859886 0.666667
O O11 0.457481 0.914961 0.500000
#
# Coordination Sequence:
#
# PCOD9583910 Si02
#       6
#     3   6  12   6  12  12
#     4  12  26  48  72 102 150 196 238 310 392 448
#     4  10  21  42  70 103 146 188 242 312 384 457
#     4  10  22  42  68  94 134 182 240 290 371 440
#     4  10  21  42  65 103 135 192 248 306 368 462
#     4  11  22  40  66  97 140 185 243 307 368 440
#     4  11  25  46  71 107 143 189 246 309 376 461
#
# _framework density 22.445041
#
# number of rings (size 3 to 8) (size 9 to 14) (size 15 to 20)
#    0.000    1.412    2.353    2.471    0.000    3.765 
#   16.941    1.765    0.000    0.000    0.000    0.000 
#    0.000    0.000    0.000    0.000    0.000    0.000 
#
# Total GULP energy -284560.765813 kJ/mol
# GULP energy per Si atom -5579.622859 kJ/mol
# Density = 2.239396 g / cm^3
# Si number density = 22.445041 Si / 1000 Ang^3
#
#
#
# Elastic Constant Matrix: (Units=GPa)
#
#
# Indices 1 2 3 4 5 6 
#
# 1 115.1051 63.1997 26.9953 0.0000 0.0000 0.0000
# 2 63.1997 115.1051 26.9953 0.0000 0.0000 0.0000
# 3 26.9953 26.9953 156.1890 0.0000 0.0000 0.0000
# 4 0.0000 0.0000 0.0000 28.6820 0.0000 0.0000
# 5 0.0000 0.0000 0.0000 0.0000 28.6820 0.0000
# 6 0.0000 0.0000 0.0000 0.0000 0.0000 25.9527
#
#
#
# Elastic Compliance Matrix: (Units=1/GPa)
#
#
# Indices 1 2 3 4 5 6 
#
# 1 0.012592 -0.006674 -0.001023 0.000000 0.000000 0.000000
# 2 -0.006674 0.012592 -0.001023 0.000000 0.000000 0.000000
# 3 -0.001023 -0.001023 0.006756 0.000000 0.000000 0.000000
# 4 0.000000 0.000000 0.000000 0.034865 0.000000 0.000000
# 5 0.000000 0.000000 0.000000 0.000000 0.034865 0.000000
# 6 0.000000 0.000000 0.000000 0.000000 0.000000 0.038532
#
#
# Mechanical properties :
#
#
# Convention : Reuss Voigt Hill
#
# Bulk Modulus (GPa) = 68.96171 68.97553 68.96862
# Shear Modulus (GPa) = 30.77407 34.61061 32.69234
#
# Velocity S-wave (km/s) = 3.70683 3.93111 3.82062
# Velocity P-wave (km/s) = 7.00801 7.16955 7.08924
#
# Compressibility (1/GPa) = 0.01450080
#
# Stress axis : x y z
#
# Youngs Moduli (GPa) = 79.41583 79.41583 148.01479
#
# Poissons Ratio (x) = 0.53001 0.15140
# Poissons Ratio (y) = 0.53001 0.15140
# Poissons Ratio (z) = 0.08123 0.08123
#
# Static dielectric constant tensor:
#      x y z
#    x 1.734760 0.000000 0.000000 
#    y 0.000000 1.734760 0.000000 
#    z 0.000000 0.000000 1.797210 
# 
# From -- ./inp_files/2805.got.cif
#   From: 2010.05.17/outbox.cif.g08.bks.cpg/sg180_2_cif.got.tgz:2805.got - 2010.05.20 11:43:55.
