data_PCOD9583530
_publ_section_title
;
Structure prediction by ZEFSAII (Michael W. Deem and Ramdas Pophale) SiO2 
 PCOD9583530
Probable space group: P 65 2 2
;
_chemical_formula_sum "Si O2"
_cell_formula_units_Z 42
_cell_length_a 13.918538
_cell_length_b 13.918538
_cell_length_c 12.144337
_cell_angle_alpha 90.000000
_cell_angle_beta 90.000000
_cell_angle_gamma 120.000000
_cell_volume 2037.472149
_symmetry_space_group_name_H-M "P 65 2 2"
_symmetry_group_IT_number 179
_symmetry_cell_setting 'hexagonal'
loop_
_space_group_symop_operation_xyz
x,y,z
x-y,x,5/6+z
-y,x-y,2/3+z
-x,-y,1/2+z
-x+y,-x,1/3+z
y,-x+y,1/6+z
x-y,-y,-z
-x,-x+y,1/3-z
y,x,2/3-z
-y,-x,1/6-z
-x+y,y,1/2-z
x,x-y,5/6-z
loop_
_atom_site_type_symbol
_atom_site_label
_atom_site_fract_x
_atom_site_fract_y
_atom_site_fract_z
Si Si1 0.709085 0.418169 0.750000
Si Si2 0.049348 0.604563 0.547435
Si Si3 0.363984 0.010763 0.842802
Si Si4 0.739809 0.260192 0.583334
Si Si5 0.190421 0.190421 0.833334
O O1 0.681076 0.502106 0.688457
O O2 0.736608 0.340992 0.675373
O O3 0.000000 0.605164 0.666667
O O4 0.034770 0.482133 0.536592
O O5 0.991569 0.640180 0.455345
O O6 0.438764 0.137866 0.876026
O O7 0.247722 0.955723 0.909303
O O8 0.086450 0.172900 0.750000
#
# Coordination Sequence:
#
# PCOD9583530 Si02
#       5
#     6  12  12   6   6
#     4  12  24  36  65 102 149 194 230 294 354 428
#     4  11  23  42  63 109 158 196 244 294 356 461
#     4  11  23  44  70 103 150 189 245 304 372 459
#     4  12  22  40  71 104 137 196 242 288 366 440
#     4  12  26  48  82 106 132 190 262 328 392 456
#
# _framework density 20.613778
#
# number of rings (size 3 to 8) (size 9 to 14) (size 15 to 20)
#    0.000    0.571    5.714    3.429    0.000    2.286 
#    0.000    0.000    6.286    0.000    0.000    0.000 
#    0.000    0.000    0.000    0.000    0.000    0.000 
#
# Total GULP energy -233806.350702 kJ/mol
# GULP energy per Si atom -5566.817874 kJ/mol
# Density = 2.056686 g / cm^3
# Si number density = 20.613778 Si / 1000 Ang^3
#
#
#
# Elastic Constant Matrix: (Units=GPa)
#
#
# Indices 1 2 3 4 5 6 
#
# 1 138.5127 3.8021 37.0114 0.0000 0.0000 0.0000
# 2 3.8021 138.5127 37.0114 0.0000 0.0000 0.0000
# 3 37.0114 37.0114 164.6493 0.0000 0.0000 0.0000
# 4 0.0000 0.0000 0.0000 8.9864 0.0000 0.0000
# 5 0.0000 0.0000 0.0000 0.0000 8.9864 0.0000
# 6 0.0000 0.0000 0.0000 0.0000 0.0000 67.3553
#
#
#
# Elastic Compliance Matrix: (Units=1/GPa)
#
#
# Indices 1 2 3 4 5 6 
#
# 1 0.007690 0.000267 -0.001789 0.000000 0.000000 0.000000
# 2 0.000267 0.007690 -0.001789 0.000000 0.000000 0.000000
# 3 -0.001789 -0.001789 0.006878 0.000000 0.000000 0.000000
# 4 0.000000 0.000000 0.000000 0.111280 0.000000 0.000000
# 5 0.000000 0.000000 0.000000 0.000000 0.111280 0.000000
# 6 0.000000 0.000000 0.000000 0.000000 0.000000 0.014847
#
#
# Mechanical properties :
#
#
# Convention : Reuss Voigt Hill
#
# Bulk Modulus (GPa) = 63.95059 66.36941 65.16000
# Shear Modulus (GPa) = 18.41637 41.32225 29.86931
#
# Velocity S-wave (km/s) = 2.99222 4.48213 3.81070
# Velocity P-wave (km/s) = 6.55961 7.68456 7.14426
#
# Compressibility (1/GPa) = 0.01563707
#
# Stress axis : x y z
#
# Youngs Moduli (GPa) = 130.03617 130.03617 145.39832
#
# Poissons Ratio (x) = -0.03470 0.26007
# Poissons Ratio (y) = -0.03470 0.26007
# Poissons Ratio (z) = 0.23259 0.23259
#
# Static dielectric constant tensor:
#      x y z
#    x 1.818480 0.000000 0.000000 
#    y 0.000000 1.818480 0.000000 
#    z 0.000000 0.000000 1.945730 
# 
# From -- ./inp_files/4163.got.cif
#   From: 2010.05.17/outbox.cif.g08.bks.cpg/sg179_3_cif.got.tgz:4163.got - 2010.05.20 11:37:33.
