data_PCOD9583830
_publ_section_title
;
Structure prediction by ZEFSAII (Michael W. Deem and Ramdas Pophale) SiO2 
 PCOD9583830
Probable space group: P 62 2 2
;
_chemical_formula_sum "Si O2"
_cell_formula_units_Z 57
_cell_length_a 14.191461
_cell_length_b 14.191461
_cell_length_c 14.434829
_cell_angle_alpha 90.000000
_cell_angle_beta 90.000000
_cell_angle_gamma 120.000000
_cell_volume 2517.656587
_symmetry_space_group_name_H-M "P 62 2 2"
_symmetry_group_IT_number 180
_symmetry_cell_setting 'hexagonal'
loop_
_space_group_symop_operation_xyz
x,y,z
x-y,x,1/3+z
-y,x-y,2/3+z
-x,-y,z
-x+y,-x,1/3+z
y,-x+y,2/3+z
x-y,-y,-z
-x,-x+y,1/3-z
y,x,2/3-z
-y,-x,2/3-z
-x+y,y,-z
x,x-y,1/3-z
loop_
_atom_site_type_symbol
_atom_site_label
_atom_site_fract_x
_atom_site_fract_y
_atom_site_fract_z
Si Si1 0.329450 0.588639 0.740008
Si Si2 0.500000 0.500000 0.333334
Si Si3 0.798689 0.798689 0.333334
Si Si4 0.009930 0.216659 0.054599
Si Si5 0.448857 0.374245 0.656223
Si Si6 0.115716 0.404636 0.787222
O O1 0.345429 0.654571 0.833334
O O2 0.291591 0.645796 0.666667
O O3 0.450928 0.617058 0.714358
O O4 0.240539 0.461677 0.752308
O O5 0.527161 0.598714 0.400624
O O6 0.717609 0.747129 0.421534
O O7 0.912953 0.800614 0.332726
O O8 0.000000 0.191807 0.166667
O O9 0.115149 0.230297 0.000000
O O10 0.017639 0.333827 0.042439
O O11 0.500000 0.500000 0.628038
O O12 0.423618 0.305162 0.562407
#
# Coordination Sequence:
#
# PCOD9583830 Si02
#       6
#    12   3   6  12  12  12
#     4  12  25  43  71 108 158 208 252 314 390 474
#     4  10  20  40  66 100 152 196 250 314 364 454
#     4  11  27  49  79 106 144 200 255 337 393 467
#     4  12  29  52  79 111 151 197 261 331 403 480
#     4  12  27  44  73 112 154 205 259 321 393 473
#     4  11  23  44  71 110 151 198 258 309 384 463
#
# _framework density 22.6401
#
# number of rings (size 3 to 8) (size 9 to 14) (size 15 to 20)
#    0.000    0.421    4.211    3.474    5.895    4.211 
#    0.000    0.000    0.000    0.000    0.000    0.000 
#    0.000    0.000    0.000    0.000    0.000    0.000 
#
# Total GULP energy -318057.413148 kJ/mol
# GULP energy per Si atom -5579.954617 kJ/mol
# Density = 2.258857 g / cm^3
# Si number density = 22.640100 Si / 1000 Ang^3
#
#
#
# Elastic Constant Matrix: (Units=GPa)
#
#
# Indices 1 2 3 4 5 6 
#
# 1 154.4301 65.2582 49.6412 0.0000 0.0000 0.0000
# 2 65.2582 154.4301 49.6412 0.0000 0.0000 0.0000
# 3 49.6412 49.6412 142.0837 0.0000 0.0000 0.0000
# 4 0.0000 0.0000 0.0000 11.8220 0.0000 0.0000
# 5 0.0000 0.0000 0.0000 0.0000 11.8220 0.0000
# 6 0.0000 0.0000 0.0000 0.0000 0.0000 44.5859
#
#
#
# Elastic Compliance Matrix: (Units=1/GPa)
#
#
# Indices 1 2 3 4 5 6 
#
# 1 0.008310 -0.002904 -0.001889 0.000000 0.000000 0.000000
# 2 -0.002904 0.008310 -0.001889 0.000000 0.000000 0.000000
# 3 -0.001889 -0.001889 0.008358 0.000000 0.000000 0.000000
# 4 0.000000 0.000000 0.000000 0.084588 0.000000 0.000000
# 5 0.000000 0.000000 0.000000 0.000000 0.084588 0.000000
# 6 0.000000 0.000000 0.000000 0.000000 0.000000 0.022429
#
#
# Mechanical properties :
#
#
# Convention : Reuss Voigt Hill
#
# Bulk Modulus (GPa) = 86.10024 86.66943 86.38483
# Shear Modulus (GPa) = 21.38432 32.73955 27.06194
#
# Velocity S-wave (km/s) = 3.07666 3.80687 3.46108
# Velocity P-wave (km/s) = 7.12276 7.59523 7.36278
#
# Compressibility (1/GPa) = 0.01161437
#
# Stress axis : x y z
#
# Youngs Moduli (GPa) = 120.33929 120.33929 119.64964
#
# Poissons Ratio (x) = 0.34952 0.22596
# Poissons Ratio (y) = 0.34952 0.22596
# Poissons Ratio (z) = 0.22726 0.22726
#
# Static dielectric constant tensor:
#      x y z
#    x 1.888610 0.000000 0.000000 
#    y 0.000000 1.888610 0.000000 
#    z 0.000000 0.000000 1.823800 
# 
# From -- ./inp_files/6136.got.cif
#   From: 2010.05.17/outbox.cif.g08.bks.cpg/sg180_4_cif.got.tgz:6136.got - 2010.05.20 11:43:55.
