data_PCOD9583378
_publ_section_title
;
Structure prediction by ZEFSAII (Michael W. Deem and Ramdas Pophale) SiO2 
 PCOD9583378
Probable space group: P 65 2 2
;
_chemical_formula_sum "Si O2"
_cell_formula_units_Z 36
_cell_length_a 11.339666
_cell_length_b 11.339666
_cell_length_c 14.063605
_cell_angle_alpha 90.000000
_cell_angle_beta 90.000000
_cell_angle_gamma 120.000000
_cell_volume 1566.130032
_symmetry_space_group_name_H-M "P 65 2 2"
_symmetry_group_IT_number 179
_symmetry_cell_setting 'hexagonal'
loop_
_space_group_symop_operation_xyz
x,y,z
x-y,x,5/6+z
-y,x-y,2/3+z
-x,-y,1/2+z
-x+y,-x,1/3+z
y,-x+y,1/6+z
x-y,-y,-z
-x,-x+y,1/3-z
y,x,2/3-z
-y,-x,1/6-z
-x+y,y,1/2-z
x,x-y,5/6-z
loop_
_atom_site_type_symbol
_atom_site_label
_atom_site_fract_x
_atom_site_fract_y
_atom_site_fract_z
Si Si1 0.855258 0.275320 0.454513
Si Si2 0.697552 0.395104 0.750000
Si Si3 0.000000 0.851543 0.166667
Si Si4 0.553478 0.007502 0.113864
O O1 0.710316 0.267571 0.468715
O O2 0.841897 0.132667 0.475926
O O3 0.909255 0.325875 0.347022
O O4 0.961640 0.398848 0.521540
O O5 0.834771 0.489360 0.807763
O O6 0.956644 0.913288 0.250000
O O7 0.567808 0.000000 0.000000
#
# Coordination Sequence:
#
# PCOD9583378 Si02
#       4
#    12   6   6  12
#     4  10  26  44  70 114 143 195 261 298 390 467
#     4  10  22  40  70 104 146 182 240 308 366 424
#     4  12  28  52  76 102 150 202 258 308 390 486
#     4  10  23  43  73 109 150 193 243 318 376 444
#
# _framework density 22.986599999999999
#
# number of rings (size 3 to 8) (size 9 to 14) (size 15 to 20)
#    0.000    2.000    0.000    2.000    9.333   17.333 
#    6.000    0.000    0.000    0.000    0.000    0.000 
#    0.000    0.000    0.000    0.000    0.000    0.000 
#
# Total GULP energy -201225.073492 kJ/mol
# GULP energy per Si atom -5589.585375 kJ/mol
# Density = 2.293428 g / cm^3
# Si number density = 22.986600 Si / 1000 Ang^3
#
#
#
# Elastic Constant Matrix: (Units=GPa)
#
#
# Indices 1 2 3 4 5 6 
#
# 1 123.2667 52.5270 50.9501 0.0000 0.0000 0.0000
# 2 52.5270 123.2667 50.9501 0.0000 0.0000 0.0000
# 3 50.9501 50.9501 187.7633 0.0000 0.0000 0.0000
# 4 0.0000 0.0000 0.0000 34.5681 0.0000 0.0000
# 5 0.0000 0.0000 0.0000 0.0000 34.5681 0.0000
# 6 0.0000 0.0000 0.0000 0.0000 0.0000 35.3698
#
#
#
# Elastic Compliance Matrix: (Units=1/GPa)
#
#
# Indices 1 2 3 4 5 6 
#
# 1 0.010443 -0.003693 -0.001832 0.000000 0.000000 0.000000
# 2 -0.003693 0.010443 -0.001832 0.000000 0.000000 0.000000
# 3 -0.001832 -0.001832 0.006320 0.000000 0.000000 0.000000
# 4 0.000000 0.000000 0.000000 0.028928 0.000000 0.000000
# 5 0.000000 0.000000 0.000000 0.000000 0.028928 0.000000
# 6 0.000000 0.000000 0.000000 0.000000 0.000000 0.028273
#
#
# Mechanical properties :
#
#
# Convention : Reuss Voigt Hill
#
# Bulk Modulus (GPa) = 80.04084 82.57237 81.30660
# Shear Modulus (GPa) = 37.81762 39.55915 38.68839
#
# Velocity S-wave (km/s) = 4.06051 4.15295 4.10699
# Velocity P-wave (km/s) = 7.54188 7.68088 7.61170
#
# Compressibility (1/GPa) = 0.01249362
#
# Stress axis : x y z
#
# Youngs Moduli (GPa) = 95.75523 95.75523 158.22966
#
# Poissons Ratio (x) = 0.35363 0.28983
# Poissons Ratio (y) = 0.35363 0.28983
# Poissons Ratio (z) = 0.17539 0.17539
#
# Static dielectric constant tensor:
#      x y z
#    x 1.867960 0.000000 0.000000 
#    y 0.000000 1.867960 0.000000 
#    z 0.000000 0.000000 1.925210 
# 
# From -- ./inp_files/5314.got.cif
#   From: 2010.05.17/outbox.cif.g08.bks.cpg/sg179_3_cif.got.tgz:5314.got - 2010.05.20 11:37:33.
