data_PCOD9583610
_publ_section_title
;
Structure prediction by ZEFSAII (Michael W. Deem and Ramdas Pophale) SiO2 
 PCOD9583610
Probable space group: P 62 2 2
;
_chemical_formula_sum "Si O2"
_cell_formula_units_Z 84
_cell_length_a 13.461918
_cell_length_b 13.461918
_cell_length_c 25.519350
_cell_angle_alpha 90.000000
_cell_angle_beta 90.000000
_cell_angle_gamma 120.000000
_cell_volume 4005.106987
_symmetry_space_group_name_H-M "P 62 2 2"
_symmetry_group_IT_number 180
_symmetry_cell_setting 'hexagonal'
loop_
_space_group_symop_operation_xyz
x,y,z
x-y,x,1/3+z
-y,x-y,2/3+z
-x,-y,z
-x+y,-x,1/3+z
y,-x+y,2/3+z
x-y,-y,-z
-x,-x+y,1/3-z
y,x,2/3-z
-y,-x,2/3-z
-x+y,y,-z
x,x-y,1/3-z
loop_
_atom_site_type_symbol
_atom_site_label
_atom_site_fract_x
_atom_site_fract_y
_atom_site_fract_z
Si Si1 0.841181 0.169845 0.419369
Si Si2 0.852501 0.381641 0.819464
Si Si3 0.031392 0.902580 0.104313
Si Si4 0.399214 0.879761 0.267084
Si Si5 0.593401 0.130974 0.441093
Si Si6 0.650747 0.275830 0.055089
Si Si7 0.735555 0.751337 0.183209
O O1 0.873288 0.280295 0.383327
O O2 0.715495 0.138889 0.437489
O O3 0.933047 0.224081 0.466322
O O4 0.840001 0.052559 0.405793
O O5 0.736227 0.263774 0.833334
O O6 0.879870 0.461763 0.870306
O O7 0.815673 0.421661 0.768092
O O8 0.943557 0.340547 0.806451
O O9 0.000000 0.875593 0.166667
O O10 0.168296 0.952736 0.104979
O O11 0.000000 0.000000 0.090223
O O12 0.399192 0.763632 0.280701
O O13 0.500000 0.000000 0.287473
O O14 0.584126 0.168252 0.500000
O O15 0.581516 0.216289 0.401213
O O16 0.500000 0.000000 0.433363
O O17 0.607378 0.214756 0.000000
O O18 0.741952 0.870976 0.166667
#
# Coordination Sequence:
#
# PCOD9583610 Si02
#       7
#    12  12  12  12  12  12  12
#     4  10  18  29  47  74 110 142 175 224 289 341
#     4   9  18  32  52  77 109 143 186 237 289 335
#     4   9  15  24  39  69 108 141 158 204 275 344
#     4  10  18  32  53  83 107 140 191 245 290 343
#     4  10  22  36  54  81 111 146 192 241 291 348
#     4  10  21  37  55  76 113 154 189 234 296 358
#     4  10  16  26  45  75 111 138 171 218 284 342
#
# _framework density 20.973223000000001
#
# number of rings (size 3 to 8) (size 9 to 14) (size 15 to 20)
#    0.000    2.286    4.286    2.143    6.000    0.571 
#    0.000    0.000    0.000    0.429    0.000    0.000 
#    0.000   18.286    0.000    2.571    0.000    0.000 
#
# Total GULP energy -468044.289698 kJ/mol
# GULP energy per Si atom -5571.955830 kJ/mol
# Density = 2.092549 g / cm^3
# Si number density = 20.973223 Si / 1000 Ang^3
#
#
#
# Elastic Constant Matrix: (Units=GPa)
#
#
# Indices 1 2 3 4 5 6 
#
# 1 68.6197 22.8875 -3.5490 0.0000 0.0000 0.0000
# 2 22.8875 68.6197 -3.5490 0.0000 0.0000 0.0000
# 3 -3.5490 -3.5490 45.6187 0.0000 0.0000 0.0000
# 4 0.0000 0.0000 0.0000 4.6995 0.0000 0.0000
# 5 0.0000 0.0000 0.0000 0.0000 4.6995 0.0000
# 6 0.0000 0.0000 0.0000 0.0000 0.0000 22.8661
#
#
#
# Elastic Compliance Matrix: (Units=1/GPa)
#
#
# Indices 1 2 3 4 5 6 
#
# 1 0.016430 -0.005436 0.000855 0.000000 0.000000 0.000000
# 2 -0.005436 0.016430 0.000855 0.000000 0.000000 0.000000
# 3 0.000855 0.000855 0.022054 0.000000 0.000000 0.000000
# 4 0.000000 0.000000 0.000000 0.212789 0.000000 0.000000
# 5 0.000000 0.000000 0.000000 0.000000 0.212789 0.000000
# 6 0.000000 0.000000 0.000000 0.000000 0.000000 0.043733
#
#
# Mechanical properties :
#
#
# Convention : Reuss Voigt Hill
#
# Bulk Modulus (GPa) = 21.06854 23.82634 22.44744
# Shear Modulus (GPa) = 9.13245 17.59093 13.36169
#
# Velocity S-wave (km/s) = 2.08897 2.89923 2.52679
# Velocity P-wave (km/s) = 3.98568 4.75315 4.38623
#
# Compressibility (1/GPa) = 0.04746414
#
# Stress axis : x y z
#
# Youngs Moduli (GPa) = 60.86268 60.86268 45.34345
#
# Poissons Ratio (x) = 0.33085 -0.03878
# Poissons Ratio (y) = 0.33085 -0.03878
# Poissons Ratio (z) = -0.05206 -0.05206
#
# Static dielectric constant tensor:
#      x y z
#    x 1.808070 0.000000 0.000000 
#    y 0.000000 1.808070 0.000000 
#    z 0.000000 0.000000 1.903140 
# 
# From -- ./inp_files/12425.got.cif
#   From: 2010.05.17/outbox.cif.g08.bks.cpg/sg180_7_cif.got.tgz:12425.got - 2010.05.20 11:43:55.
