data_PCOD9583339
_publ_section_title
;
Structure prediction by ZEFSAII (Michael W. Deem and Ramdas Pophale) SiO2 
 PCOD9583339
Probable space group: P 65 2 2
;
_chemical_formula_sum "Si O2"
_cell_formula_units_Z 60
_cell_length_a 17.524139
_cell_length_b 17.524139
_cell_length_c 11.226826
_cell_angle_alpha 90.000000
_cell_angle_beta 90.000000
_cell_angle_gamma 120.000000
_cell_volume 2985.801982
_symmetry_space_group_name_H-M "P 65 2 2"
_symmetry_group_IT_number 179
_symmetry_cell_setting 'hexagonal'
loop_
_space_group_symop_operation_xyz
x,y,z
x-y,x,5/6+z
-y,x-y,2/3+z
-x,-y,1/2+z
-x+y,-x,1/3+z
y,-x+y,1/6+z
x-y,-y,-z
-x,-x+y,1/3-z
y,x,2/3-z
-y,-x,1/6-z
-x+y,y,1/2-z
x,x-y,5/6-z
loop_
_atom_site_type_symbol
_atom_site_label
_atom_site_fract_x
_atom_site_fract_y
_atom_site_fract_z
Si Si1 0.190306 0.380612 0.750000
Si Si2 0.000000 0.481971 0.666667
Si Si3 0.843048 0.156953 0.083334
Si Si4 0.471169 0.111259 0.797688
Si Si5 0.067180 0.900632 0.392175
Si Si6 0.648335 0.042180 0.120994
Si Si7 0.770022 0.770022 0.333334
O O1 0.259380 0.443333 0.650465
O O2 0.225749 0.317661 0.801034
O O3 0.066345 0.467445 0.743657
O O4 0.056479 0.567082 0.581527
O O5 0.890741 0.139406 0.196276
O O6 0.745294 0.121806 0.136498
O O7 0.568573 0.137145 0.750000
O O8 0.394988 0.033516 0.718920
O O9 0.022883 0.828743 0.286574
O O10 0.991722 0.883046 0.487405
O O11 0.659306 0.000000 0.000000
#
# Coordination Sequence:
#
# PCOD9583339 Si02
#       7
#     6   6   6  12  12  12   6
#     4  12  24  40  71 106 134 178 235 284 342 418
#     4   8  19  40  66  91 126 164 208 265 348 414
#     4  12  24  38  61  96 124 172 233 292 348 420
#     4  10  21  42  66  96 132 175 216 281 349 415
#     4  12  25  45  57  80 132 188 244 300 355 411
#     4   9  20  37  64  90 131 165 213 277 345 414
#     4  12  25  42  66  99 136 174 232 303 342 410
#
# _framework density 20.095103000000002
#
# number of rings (size 3 to 8) (size 9 to 14) (size 15 to 20)
#    0.600    0.800    2.000    3.600    2.800    0.000 
#   10.800    0.000    2.200    0.000    2.600    0.000 
#    0.000    0.000    0.000    0.000    0.000    0.000 
#
# Total GULP energy -334174.890033 kJ/mol
# GULP energy per Si atom -5569.581501 kJ/mol
# Density = 2.004937 g / cm^3
# Si number density = 20.095103 Si / 1000 Ang^3
#
#
#
# Elastic Constant Matrix: (Units=GPa)
#
#
# Indices 1 2 3 4 5 6 
#
# 1 98.5316 66.0779 29.8603 0.0000 0.0000 0.0000
# 2 66.0779 98.5316 29.8603 0.0000 0.0000 0.0000
# 3 29.8603 29.8603 84.2166 0.0000 0.0000 0.0000
# 4 0.0000 0.0000 0.0000 22.4056 0.0000 0.0000
# 5 0.0000 0.0000 0.0000 0.0000 22.4056 0.0000
# 6 0.0000 0.0000 0.0000 0.0000 0.0000 16.2268
#
#
#
# Elastic Compliance Matrix: (Units=1/GPa)
#
#
# Indices 1 2 3 4 5 6 
#
# 1 0.018892 -0.011921 -0.002472 0.000000 0.000000 0.000000
# 2 -0.011921 0.018892 -0.002472 0.000000 0.000000 0.000000
# 3 -0.002472 -0.002472 0.013627 0.000000 0.000000 0.000000
# 4 0.000000 0.000000 0.000000 0.044632 0.000000 0.000000
# 5 0.000000 0.000000 0.000000 0.000000 0.044632 0.000000
# 6 0.000000 0.000000 0.000000 0.000000 0.000000 0.061626
#
#
# Mechanical properties :
#
#
# Convention : Reuss Voigt Hill
#
# Bulk Modulus (GPa) = 56.55194 59.20854 57.88024
# Shear Modulus (GPa) = 20.66754 22.57302 21.62028
#
# Velocity S-wave (km/s) = 3.21048 3.35522 3.28365
# Velocity P-wave (km/s) = 6.47659 6.67369 6.57587
#
# Compressibility (1/GPa) = 0.01768286
#
# Stress axis : x y z
#
# Youngs Moduli (GPa) = 52.93108 52.93108 73.38321
#
# Poissons Ratio (x) = 0.63097 0.18140
# Poissons Ratio (y) = 0.63097 0.18140
# Poissons Ratio (z) = 0.13084 0.13084
#
# Static dielectric constant tensor:
#      x y z
#    x 1.735560 0.000000 0.000000 
#    y 0.000000 1.735560 0.000000 
#    z 0.000000 0.000000 1.773110 
# 
# From -- ./inp_files/4761.got.cif
#   From: 2010.05.17/outbox.cif.g08.bks.cpg/sg179_3_cif.got.tgz:4761.got - 2010.05.20 11:37:33.
