data_PCOD9583185
_publ_section_title
;
Structure prediction by ZEFSAII (Michael W. Deem and Ramdas Pophale) SiO2 
 PCOD9583185
Probable space group: P 65 2 2
;
_chemical_formula_sum "Si O2"
_cell_formula_units_Z 84
_cell_length_a 15.710641
_cell_length_b 15.710641
_cell_length_c 23.568858
_cell_angle_alpha 90.000000
_cell_angle_beta 90.000000
_cell_angle_gamma 120.000000
_cell_volume 5037.986287
_symmetry_space_group_name_H-M "P 65 2 2"
_symmetry_group_IT_number 179
_symmetry_cell_setting 'hexagonal'
loop_
_space_group_symop_operation_xyz
x,y,z
x-y,x,5/6+z
-y,x-y,2/3+z
-x,-y,1/2+z
-x+y,-x,1/3+z
y,-x+y,1/6+z
x-y,-y,-z
-x,-x+y,1/3-z
y,x,2/3-z
-y,-x,1/6-z
-x+y,y,1/2-z
x,x-y,5/6-z
loop_
_atom_site_type_symbol
_atom_site_label
_atom_site_fract_x
_atom_site_fract_y
_atom_site_fract_z
Si Si1 0.392424 0.438000 0.516741
Si Si2 0.159942 0.501755 0.815547
Si Si3 0.623441 0.610373 0.398353
Si Si4 0.566953 0.786393 0.245164
Si Si5 0.671550 0.288581 0.335568
Si Si6 0.601506 0.566714 0.770356
Si Si7 0.504884 0.252442 0.416667
Si Si8 0.561718 0.123436 0.250000
O O1 0.462967 0.557082 0.517500
O O2 0.286521 0.398601 0.545073
O O3 0.379669 0.415143 0.449600
O O4 0.460833 0.404540 0.549230
O O5 0.191811 0.440899 0.855820
O O6 0.256337 0.608024 0.805686
O O7 0.090739 0.434418 0.764879
O O8 0.644398 0.644398 0.333334
O O9 0.720805 0.618864 0.427089
O O10 0.543273 0.493658 0.396990
O O11 0.455341 0.723229 0.221915
O O12 0.574391 0.282239 0.361150
O O13 0.642182 0.197304 0.294179
O O14 0.606918 0.606918 0.833334
O O15 0.695317 0.558328 0.755419
#
# Coordination Sequence:
#
# PCOD9583185 Si02
#       8
#    12  12  12  12  12  12   6   6
#     4  10  19  34  50  73 104 143 190 242 278 324
#     4  10  19  34  52  71 106 147 193 237 275 336
#     4  10  21  35  50  74 110 142 193 241 295 337
#     4  11  19  33  53  69 101 147 194 235 289 333
#     4  11  20  30  50  78 103 145 202 233 276 347
#     4  10  21  36  50  72 108 146 182 247 291 327
#     4  12  18  33  54  74 110 148 204 235 270 352
#     4  12  20  31  52  80 110 144 200 253 278 320
#
# _framework density 16.673328000000001
#
# number of rings (size 3 to 8) (size 9 to 14) (size 15 to 20)
#    0.000    1.429    5.714    1.714    0.000    6.286 
#    0.000    0.000    0.000    0.000    0.000    0.000 
#    0.000    0.000    0.000   12.857    1.714    0.429 
#
# Total GULP energy -468161.149748 kJ/mol
# GULP energy per Si atom -5573.347021 kJ/mol
# Density = 1.663538 g / cm^3
# Si number density = 16.673328 Si / 1000 Ang^3
#
#
#
# Elastic Constant Matrix: (Units=GPa)
#
#
# Indices 1 2 3 4 5 6 
#
# 1 59.0363 20.7912 33.0462 0.0000 0.0000 0.0000
# 2 20.7912 59.0363 33.0462 0.0000 0.0000 0.0000
# 3 33.0462 33.0462 97.3320 0.0000 0.0000 0.0000
# 4 0.0000 0.0000 0.0000 19.6145 0.0000 0.0000
# 5 0.0000 0.0000 0.0000 0.0000 19.6145 0.0000
# 6 0.0000 0.0000 0.0000 0.0000 0.0000 19.1225
#
#
#
# Elastic Compliance Matrix: (Units=1/GPa)
#
#
# Indices 1 2 3 4 5 6 
#
# 1 0.021786 -0.004361 -0.005916 0.000000 0.000000 0.000000
# 2 -0.004361 0.021786 -0.005916 0.000000 0.000000 0.000000
# 3 -0.005916 -0.005916 0.014291 0.000000 0.000000 0.000000
# 4 0.000000 0.000000 0.000000 0.050983 0.000000 0.000000
# 5 0.000000 0.000000 0.000000 0.000000 0.050983 0.000000
# 6 0.000000 0.000000 0.000000 0.000000 0.000000 0.052294
#
#
# Mechanical properties :
#
#
# Convention : Reuss Voigt Hill
#
# Bulk Modulus (GPa) = 39.25093 43.24133 41.24613
# Shear Modulus (GPa) = 19.76261 20.23836 20.00049
#
# Velocity S-wave (km/s) = 3.44653 3.48777 3.46721
# Velocity P-wave (km/s) = 6.27936 6.49693 6.38907
#
# Compressibility (1/GPa) = 0.02547711
#
# Stress axis : x y z
#
# Youngs Moduli (GPa) = 45.90056 45.90056 69.97174
#
# Poissons Ratio (x) = 0.20017 0.41397
# Poissons Ratio (y) = 0.20017 0.41397
# Poissons Ratio (z) = 0.27156 0.27156
#
# Static dielectric constant tensor:
#      x y z
#    x 1.579250 0.000000 0.000000 
#    y 0.000000 1.579250 0.000000 
#    z 0.000000 0.000000 1.707380 
# 
# From -- ./inp_files/9031.got.cif
#   From: 2010.05.17/outbox.cif.g08.bks.cpg/sg179_5_cif.got.tgz:9031.got - 2010.05.20 11:37:33.
