data_PCOD9583933
_publ_section_title
;
Structure prediction by ZEFSAII (Michael W. Deem and Ramdas Pophale) SiO2 
 PCOD9583933
Probable space group: P 62 2 2
;
_chemical_formula_sum "Si O2"
_cell_formula_units_Z 33
_cell_length_a 7.960366
_cell_length_b 7.960366
_cell_length_c 27.349856
_cell_angle_alpha 90.000000
_cell_angle_beta 90.000000
_cell_angle_gamma 120.000000
_cell_volume 1500.899967
_symmetry_space_group_name_H-M "P 62 2 2"
_symmetry_group_IT_number 180
_symmetry_cell_setting 'hexagonal'
loop_
_space_group_symop_operation_xyz
x,y,z
x-y,x,1/3+z
-y,x-y,2/3+z
-x,-y,z
-x+y,-x,1/3+z
y,-x+y,2/3+z
x-y,-y,-z
-x,-x+y,1/3-z
y,x,2/3-z
-y,-x,2/3-z
-x+y,y,-z
x,x-y,1/3-z
loop_
_atom_site_type_symbol
_atom_site_label
_atom_site_fract_x
_atom_site_fract_y
_atom_site_fract_z
Si Si1 0.242657 0.242657 0.333334
Si Si2 0.000000 0.000000 0.833334
Si Si3 0.500000 0.500000 0.586627
Si Si4 0.172242 0.827759 0.333334
Si Si5 0.282783 0.919653 0.891817
O O1 0.360200 0.297321 0.283981
O O2 0.044025 0.233619 0.315890
O O3 0.822945 0.971647 0.867977
O O4 0.460997 0.320824 0.623043
O O5 0.310004 0.440774 0.554312
O O6 0.500000 0.000000 0.874470
#
# Coordination Sequence:
#
# PCOD9583933 Si02
#       5
#     6   3   6   6  12
#     4   9  19  42  66 102 130 180 225 311 360 407
#     4  12  28  50  66 106 148 192 248 304 342 448
#     4  10  22  38  66 108 132 180 236 282 358 446
#     4   9  18  32  61  98 142 158 219 288 354 419
#     4  11  25  45  74  98 146 188 240 297 367 425
#
# _framework density 21.986806000000001
#
# number of rings (size 3 to 8) (size 9 to 14) (size 15 to 20)
#    0.000    1.818    0.000    4.909   12.727    0.000 
#    0.000    1.818    0.000    0.000    0.000    0.000 
#    0.000    0.000    0.000    0.000    0.000    0.000 
#
# Total GULP energy -183920.022559 kJ/mol
# GULP energy per Si atom -5573.334017 kJ/mol
# Density = 2.193676 g / cm^3
# Si number density = 21.986806 Si / 1000 Ang^3
#
#
#
# Elastic Constant Matrix: (Units=GPa)
#
#
# Indices 1 2 3 4 5 6 
#
# 1 134.3408 82.9023 53.8019 0.0000 0.0000 0.0000
# 2 82.9023 134.3408 53.8019 0.0000 0.0000 0.0000
# 3 53.8019 53.8019 119.8051 0.0000 0.0000 0.0000
# 4 0.0000 0.0000 0.0000 -411.7236 0.0000 0.0000
# 5 0.0000 0.0000 0.0000 0.0000 -411.7236 0.0000
# 6 0.0000 0.0000 0.0000 0.0000 0.0000 25.7192
#
#
#
# Elastic Compliance Matrix: (Units=1/GPa)
#
#
# Indices 1 2 3 4 5 6 
#
# 1 0.012680 -0.006760 -0.002659 0.000000 0.000000 0.000000
# 2 -0.006760 0.012680 -0.002659 0.000000 0.000000 0.000000
# 3 -0.002659 -0.002659 0.010735 0.000000 0.000000 0.000000
# 4 0.000000 0.000000 0.000000 -0.002429 0.000000 0.000000
# 5 0.000000 0.000000 0.000000 0.000000 -0.002429 0.000000
# 6 0.000000 0.000000 0.000000 0.000000 0.000000 0.038881
#
#
# Mechanical properties :
#
#
# Convention : Reuss Voigt Hill
#
# Bulk Modulus (GPa) = 83.74880 85.49986 84.62433
# Shear Modulus (GPa) = 50.88849 -146.34687 -47.72919
#
# Velocity S-wave (km/s) = 4.81615 -8.16736 -4.66425
# Velocity P-wave (km/s) = 8.31265 7.06892 3.09278
#
# Compressibility (1/GPa) = 0.01194047
#
# Stress axis : x y z
#
# Youngs Moduli (GPa) = 78.86236 78.86236 93.15627
#
# Poissons Ratio (x) = 0.53314 0.24766
# Poissons Ratio (y) = 0.53314 0.24766
# Poissons Ratio (z) = 0.20966 0.20966
#
# Static dielectric constant tensor:
#      x y z
#    x 2.039840 0.000000 0.000000 
#    y 0.000000 2.039840 0.000000 
#    z 0.000000 0.000000 1.780360 
# 
# From -- ./inp_files/10893.got.cif
#   From: 2010.05.17/outbox.cif.g08.bks.cpg/sg180_6_cif.got.tgz:10893.got - 2010.05.20 11:43:55.
