data_PCOD9583061
_publ_section_title
;
Structure prediction by ZEFSAII (Michael W. Deem and Ramdas Pophale) SiO2 
 PCOD9583061
Probable space group: P 61 2 2
;
_chemical_formula_sum "Si O2"
_cell_formula_units_Z 48
_cell_length_a 15.023324
_cell_length_b 15.023324
_cell_length_c 10.577154
_cell_angle_alpha 90.000000
_cell_angle_beta 90.000000
_cell_angle_gamma 120.000000
_cell_volume 2067.433392
_symmetry_space_group_name_H-M "P 61 2 2"
_symmetry_group_IT_number 178
_symmetry_cell_setting 'hexagonal'
loop_
_space_group_symop_operation_xyz
x,y,z
x-y,x,1/6+z
-y,x-y,1/3+z
-x,-y,1/2+z
-x+y,-x,2/3+z
y,-x+y,5/6+z
x-y,-y,-z
-x,-x+y,2/3-z
y,x,1/3-z
-y,-x,5/6-z
-x+y,y,1/2-z
x,x-y,1/6-z
loop_
_atom_site_type_symbol
_atom_site_label
_atom_site_fract_x
_atom_site_fract_y
_atom_site_fract_z
Si Si1 0.277171 0.307333 0.929875
Si Si2 0.899630 0.799259 0.750000
Si Si3 0.479310 0.414672 0.789727
Si Si4 0.094230 0.188460 0.750000
Si Si5 0.277164 0.766565 0.267928
O O1 0.362498 0.334668 0.823637
O O2 0.173495 0.256067 0.854518
O O3 0.285392 0.417110 0.967510
O O4 0.270313 0.214608 0.017787
O O5 0.872393 0.872393 0.666667
O O6 0.477980 0.477980 0.666667
O O7 0.531198 0.344331 0.778676
O O8 0.519323 0.480678 0.916667
O O9 0.119411 0.119411 0.666667
O O10 0.243057 0.756944 0.416667
O O11 0.387015 0.774030 0.250000
#
# Coordination Sequence:
#
# PCOD9583061 Si02
#       5
#    12   6  12   6  12
#     4  12  25  48  74 108 156 211 269 339 429 508
#     4  12  28  47  70 114 160 210 276 347 428 506
#     4  12  26  50  79 118 159 214 278 348 430 512
#     4  12  24  41  70 100 142 198 264 321 406 518
#     4  12  25  48  81 118 160 217 284 351 431 525
#
# _framework density 23.217193000000002
#
# number of rings (size 3 to 8) (size 9 to 14) (size 15 to 20)
#    0.000    0.000    3.750    6.750    0.000    6.000 
#    6.750    0.000    0.000    0.000    0.000    0.000 
#    0.000    0.000    0.000    0.000    0.000    0.000 
#
# Total GULP energy -267558.638867 kJ/mol
# GULP energy per Si atom -5574.138310 kJ/mol
# Density = 2.316435 g / cm^3
# Si number density = 23.217193 Si / 1000 Ang^3
#
#
#
# Elastic Constant Matrix: (Units=GPa)
#
#
# Indices 1 2 3 4 5 6 
#
# 1 172.4537 31.0955 46.9875 0.0000 0.0000 0.0000
# 2 31.0955 172.4537 46.9875 0.0000 0.0000 0.0000
# 3 46.9875 46.9875 102.3423 0.0000 0.0000 0.0000
# 4 0.0000 0.0000 0.0000 112.4151 0.0000 0.0000
# 5 0.0000 0.0000 0.0000 0.0000 112.4151 0.0000
# 6 0.0000 0.0000 0.0000 0.0000 0.0000 70.6791
#
#
#
# Elastic Compliance Matrix: (Units=1/GPa)
#
#
# Indices 1 2 3 4 5 6 
#
# 1 0.006654 -0.000420 -0.002862 0.000000 0.000000 0.000000
# 2 -0.000420 0.006654 -0.002862 0.000000 0.000000 0.000000
# 3 -0.002862 -0.002862 0.012399 0.000000 0.000000 0.000000
# 4 0.000000 0.000000 0.000000 0.008896 0.000000 0.000000
# 5 0.000000 0.000000 0.000000 0.000000 0.008896 0.000000
# 6 0.000000 0.000000 0.000000 0.000000 0.000000 0.014148
#
#
# Mechanical properties :
#
#
# Convention : Reuss Voigt Hill
#
# Bulk Modulus (GPa) = 74.52223 77.48785 76.00504
# Shear Modulus (GPa) = 67.19561 80.58046 73.88804
#
# Velocity S-wave (km/s) = 5.38563 5.89768 5.64746
# Velocity P-wave (km/s) = 8.41670 8.93445 8.67944
#
# Compressibility (1/GPa) = 0.01341881
#
# Stress axis : x y z
#
# Youngs Moduli (GPa) = 150.27978 150.27978 80.64904
#
# Poissons Ratio (x) = 0.06311 0.23084
# Poissons Ratio (y) = 0.06311 0.23084
# Poissons Ratio (z) = 0.43014 0.43014
#
# Static dielectric constant tensor:
#      x y z
#    x 1.630430 0.000000 0.000000 
#    y 0.000000 1.630430 0.000000 
#    z 0.000000 0.000000 1.905180 
# 
# From -- ./inp_files/4183.got.cif
#   From: 2010.05.17/outbox.cif.g08.bks.cpg/sg178_3_cif.got.tgz:4183.got - 2010.05.20 11:30:59.
