data_PCOD9583623
_publ_section_title
;
Structure prediction by ZEFSAII (Michael W. Deem and Ramdas Pophale) SiO2 
 PCOD9583623
Probable space group: P 62 2 2
;
_chemical_formula_sum "Si O2"
_cell_formula_units_Z 36
_cell_length_a 7.878372
_cell_length_b 7.878372
_cell_length_c 24.390451
_cell_angle_alpha 90.000000
_cell_angle_beta 90.000000
_cell_angle_gamma 120.000000
_cell_volume 1311.062602
_symmetry_space_group_name_H-M "P 62 2 2"
_symmetry_group_IT_number 180
_symmetry_cell_setting 'hexagonal'
loop_
_space_group_symop_operation_xyz
x,y,z
x-y,x,1/3+z
-y,x-y,2/3+z
-x,-y,z
-x+y,-x,1/3+z
y,-x+y,2/3+z
x-y,-y,-z
-x,-x+y,1/3-z
y,x,2/3-z
-y,-x,2/3-z
-x+y,y,-z
x,x-y,1/3-z
loop_
_atom_site_type_symbol
_atom_site_label
_atom_site_fract_x
_atom_site_fract_y
_atom_site_fract_z
Si Si1 0.714782 0.402221 0.775875
Si Si2 0.628786 0.737703 0.041750
Si Si3 0.743481 0.980519 0.585353
O O1 0.701041 0.298960 0.833334
O O2 0.490688 0.326189 0.756969
O O3 0.802378 0.633751 0.785784
O O4 0.804591 0.322549 0.731022
O O5 0.500000 0.500000 0.045211
O O6 0.823493 0.815770 0.078643
O O7 0.700028 0.778391 0.979259
#
# Coordination Sequence:
#
# PCOD9583623 Si02
#       3
#    12  12  12
#     4  10  17  24  38  65 105 139 176 241 309 360
#     4   9  15  24  39  62  93 141 186 233 286 366
#     4   9  15  24  40  59  92 145 189 222 294 373
#
# _framework density 27.458639999999999
#
# number of rings (size 3 to 8) (size 9 to 14) (size 15 to 20)
#    0.000    2.667    3.333    3.000    0.000    0.000 
#    0.000    0.000    0.000    0.000    0.000    0.000 
#    0.000  133.333   90.667    0.000    0.000    0.000 
#
# Total GULP energy -201198.583598 kJ/mol
# GULP energy per Si atom -5588.849544 kJ/mol
# Density = 2.739614 g / cm^3
# Si number density = 27.458640 Si / 1000 Ang^3
#
#
#
# Elastic Constant Matrix: (Units=GPa)
#
#
# Indices 1 2 3 4 5 6 
#
# 1 112.1332 26.4373 22.4766 0.0000 0.0000 0.0000
# 2 26.4373 112.1332 22.4766 0.0000 0.0000 0.0000
# 3 22.4766 22.4766 92.5275 0.0000 0.0000 0.0000
# 4 0.0000 0.0000 0.0000 9.0017 0.0000 0.0000
# 5 0.0000 0.0000 0.0000 0.0000 9.0017 0.0000
# 6 0.0000 0.0000 0.0000 0.0000 0.0000 42.8479
#
#
#
# Elastic Compliance Matrix: (Units=1/GPa)
#
#
# Indices 1 2 3 4 5 6 
#
# 1 0.009752 -0.001918 -0.001903 0.000000 0.000000 0.000000
# 2 -0.001918 0.009752 -0.001903 0.000000 0.000000 0.000000
# 3 -0.001903 -0.001903 0.011732 0.000000 0.000000 0.000000
# 4 0.000000 0.000000 0.000000 0.111091 0.000000 0.000000
# 5 0.000000 0.000000 0.000000 0.000000 0.111091 0.000000
# 6 0.000000 0.000000 0.000000 0.000000 0.000000 0.023338
#
#
# Mechanical properties :
#
#
# Convention : Reuss Voigt Hill
#
# Bulk Modulus (GPa) = 50.53583 51.06389 50.79986
# Shear Modulus (GPa) = 16.96075 28.53047 22.74561
#
# Velocity S-wave (km/s) = 2.48802 3.22690 2.88125
# Velocity P-wave (km/s) = 5.16701 5.70271 5.44145
#
# Compressibility (1/GPa) = 0.01978794
#
# Stress axis : x y z
#
# Youngs Moduli (GPa) = 102.54801 102.54801 85.23589
#
# Poissons Ratio (x) = 0.19665 0.16220
# Poissons Ratio (y) = 0.19665 0.16220
# Poissons Ratio (z) = 0.19515 0.19515
#
# Static dielectric constant tensor:
#      x y z
#    x 2.186390 0.000000 0.000000 
#    y 0.000000 2.186390 0.000000 
#    z 0.000000 0.000000 2.110320 
# 
# From -- ./inp_files/11674.got.cif
#   From: 2010.05.17/outbox.cif.g08.bks.cpg/sg180_6_cif.got.tgz:11674.got - 2010.05.20 11:43:55.
