data_PCOD9583251
_publ_section_title
;
Structure prediction by ZEFSAII (Michael W. Deem and Ramdas Pophale) SiO2 
 PCOD9583251
Probable space group: P 65 2 2
;
_chemical_formula_sum "Si O2"
_cell_formula_units_Z 60
_cell_length_a 10.785158
_cell_length_b 10.785158
_cell_length_c 29.492743
_cell_angle_alpha 90.000000
_cell_angle_beta 90.000000
_cell_angle_gamma 120.000000
_cell_volume 2970.973798
_symmetry_space_group_name_H-M "P 65 2 2"
_symmetry_group_IT_number 179
_symmetry_cell_setting 'hexagonal'
loop_
_space_group_symop_operation_xyz
x,y,z
x-y,x,5/6+z
-y,x-y,2/3+z
-x,-y,1/2+z
-x+y,-x,1/3+z
y,-x+y,1/6+z
x-y,-y,-z
-x,-x+y,1/3-z
y,x,2/3-z
-y,-x,1/6-z
-x+y,y,1/2-z
x,x-y,5/6-z
loop_
_atom_site_type_symbol
_atom_site_label
_atom_site_fract_x
_atom_site_fract_y
_atom_site_fract_z
Si Si1 0.588731 0.107549 0.690011
Si Si2 0.620188 0.701072 0.291585
Si Si3 0.437627 0.866723 0.412494
Si Si4 0.778902 0.117894 0.271587
Si Si5 0.182725 0.303652 0.538608
O O1 0.752319 0.235763 0.696675
O O2 0.561621 0.071071 0.637392
O O3 0.466259 0.144087 0.703942
O O4 0.584278 0.972417 0.714102
O O5 0.727157 0.727157 0.333334
O O6 0.547236 0.532907 0.282141
O O7 0.694718 0.772475 0.243841
O O8 0.454862 0.727431 0.416667
O O9 0.272342 0.819157 0.412853
O O10 0.857496 0.129274 0.319987
O O11 0.794629 0.030738 0.229923
#
# Coordination Sequence:
#
# PCOD9583251 Si02
#       5
#    12  12  12  12  12
#     4  10  20  37  56  83 124 159 198 251 313 377
#     4  11  20  33  52  83 119 150 197 250 304 361
#     4  11  20  33  54  86 118 151 195 250 309 360
#     4  10  20  36  57  85 125 154 202 247 314 376
#     4  10  21  37  58  87 123 162 200 253 317 374
#
# _framework density 20.195398000000001
#
# number of rings (size 3 to 8) (size 9 to 14) (size 15 to 20)
#    0.000    1.600    4.000    3.600    0.000    0.000 
#    0.000    0.000    0.000    0.000    0.000   61.600 
#    0.000    0.000    0.000    0.000    0.000    0.000 
#
# Total GULP energy -334345.987585 kJ/mol
# GULP energy per Si atom -5572.433126 kJ/mol
# Density = 2.014943 g / cm^3
# Si number density = 20.195398 Si / 1000 Ang^3
#
#
#
# Elastic Constant Matrix: (Units=GPa)
#
#
# Indices 1 2 3 4 5 6 
#
# 1 69.5449 36.2030 36.2832 0.0000 0.0000 0.0000
# 2 36.2030 69.5449 36.2832 0.0000 0.0000 0.0000
# 3 36.2832 36.2832 89.8588 0.0000 0.0000 0.0000
# 4 0.0000 0.0000 0.0000 35.5384 0.0000 0.0000
# 5 0.0000 0.0000 0.0000 0.0000 35.5384 0.0000
# 6 0.0000 0.0000 0.0000 0.0000 0.0000 16.6709
#
#
#
# Elastic Compliance Matrix: (Units=1/GPa)
#
#
# Indices 1 2 3 4 5 6 
#
# 1 0.021537 -0.008456 -0.005282 0.000000 0.000000 0.000000
# 2 -0.008456 0.021537 -0.005282 0.000000 0.000000 0.000000
# 3 -0.005282 -0.005282 0.015394 0.000000 0.000000 0.000000
# 4 0.000000 0.000000 0.000000 0.028139 0.000000 0.000000
# 5 0.000000 0.000000 0.000000 0.000000 0.028139 0.000000
# 6 0.000000 0.000000 0.000000 0.000000 0.000000 0.059985
#
#
# Mechanical properties :
#
#
# Convention : Reuss Voigt Hill
#
# Bulk Modulus (GPa) = 48.95107 49.60969 49.28038
# Shear Modulus (GPa) = 22.77101 25.56147 24.16624
#
# Velocity S-wave (km/s) = 3.36152 3.56154 3.46297
# Velocity P-wave (km/s) = 6.27358 6.44445 6.35959
#
# Compressibility (1/GPa) = 0.02042856
#
# Stress axis : x y z
#
# Youngs Moduli (GPa) = 46.43247 46.43247 64.96051
#
# Poissons Ratio (x) = 0.39262 0.34311
# Poissons Ratio (y) = 0.39262 0.34311
# Poissons Ratio (z) = 0.24525 0.24525
#
# Static dielectric constant tensor:
#      x y z
#    x 1.739920 0.000000 0.000000 
#    y 0.000000 1.739920 0.000000 
#    z 0.000000 0.000000 1.784460 
# 
# From -- ./inp_files/9438.got.cif
#   From: 2010.05.17/outbox.cif.g08.bks.cpg/sg179_5_cif.got.tgz:9438.got - 2010.05.20 11:37:33.
