data_PCOD9583819
_publ_section_title
;
Structure prediction by ZEFSAII (Michael W. Deem and Ramdas Pophale) SiO2 
 PCOD9583819
Probable space group: P 62 2 2
;
_chemical_formula_sum "Si O2"
_cell_formula_units_Z 84
_cell_length_a 14.705968
_cell_length_b 14.705968
_cell_length_c 22.895023
_cell_angle_alpha 90.000000
_cell_angle_beta 90.000000
_cell_angle_gamma 120.000000
_cell_volume 4288.041196
_symmetry_space_group_name_H-M "P 62 2 2"
_symmetry_group_IT_number 180
_symmetry_cell_setting 'hexagonal'
loop_
_space_group_symop_operation_xyz
x,y,z
x-y,x,1/3+z
-y,x-y,2/3+z
-x,-y,z
-x+y,-x,1/3+z
y,-x+y,2/3+z
x-y,-y,-z
-x,-x+y,1/3-z
y,x,2/3-z
-y,-x,2/3-z
-x+y,y,-z
x,x-y,1/3-z
loop_
_atom_site_type_symbol
_atom_site_label
_atom_site_fract_x
_atom_site_fract_y
_atom_site_fract_z
Si Si1 0.670193 0.016017 0.234305
Si Si2 0.174320 0.765940 0.216438
Si Si3 0.216908 0.437015 0.568541
Si Si4 0.207680 0.450408 0.247763
Si Si5 0.598795 0.610007 0.434688
Si Si6 0.394477 0.396098 0.970631
Si Si7 0.699240 0.371629 0.933669
O O1 0.786938 0.112429 0.227426
O O2 0.616445 0.015911 0.172657
O O3 0.652182 0.900103 0.241144
O O4 0.625477 0.033426 0.294747
O O5 0.151193 0.739179 0.148530
O O6 0.276136 0.752335 0.228360
O O7 0.085188 0.695161 0.261907
O O8 0.233103 0.466206 0.500000
O O9 0.299194 0.546933 0.598130
O O10 0.096609 0.395772 0.584098
O O11 0.291009 0.410111 0.254073
O O12 0.113859 0.410503 0.294004
O O13 0.274862 0.577058 0.249372
O O14 0.500000 0.500000 0.416461
O O15 0.500000 0.500000 0.952054
O O16 0.703675 0.407350 0.000000
#
# Coordination Sequence:
#
# PCOD9583819 Si02
#       7
#    12  12  12  12  12  12  12
#     4  10  23  37  58  86 114 154 196 243 285 344
#     4  11  24  38  58  80 118 159 198 235 286 350
#     4  10  21  36  59  81 112 149 196 236 281 337
#     4  11  23  38  57  83 119 156 195 236 293 350
#     4  10  20  39  60  84 113 154 195 237 289 351
#     4  12  23  37  56  86 120 152 193 240 294 344
#     4  12  22  33  51  84 117 154 191 235 285 340
#
# _framework density 19.589362999999999
#
# number of rings (size 3 to 8) (size 9 to 14) (size 15 to 20)
#    0.000    1.143    2.857    4.286    8.000    0.571 
#    0.000    3.571    0.000    0.857    0.000    7.000 
#    0.000    0.000    0.000    0.000    0.000    0.000 
#
# Total GULP energy -469350.214712 kJ/mol
# GULP energy per Si atom -5587.502556 kJ/mol
# Density = 1.954478 g / cm^3
# Si number density = 19.589363 Si / 1000 Ang^3
#
#
#
# Elastic Constant Matrix: (Units=GPa)
#
#
# Indices 1 2 3 4 5 6 
#
# 1 80.4250 34.4203 3.6256 0.0000 0.0000 0.0000
# 2 34.4203 80.4250 3.6256 0.0000 0.0000 0.0000
# 3 3.6256 3.6256 61.2756 0.0000 0.0000 0.0000
# 4 0.0000 0.0000 0.0000 14.4742 0.0000 0.0000
# 5 0.0000 0.0000 0.0000 0.0000 14.4742 0.0000
# 6 0.0000 0.0000 0.0000 0.0000 0.0000 23.0023
#
#
#
# Elastic Compliance Matrix: (Units=1/GPa)
#
#
# Indices 1 2 3 4 5 6 
#
# 1 0.015238 -0.006498 -0.000517 0.000000 0.000000 0.000000
# 2 -0.006498 0.015238 -0.000517 0.000000 0.000000 0.000000
# 3 -0.000517 -0.000517 0.016381 0.000000 0.000000 0.000000
# 4 0.000000 0.000000 0.000000 0.069089 0.000000 0.000000
# 5 0.000000 0.000000 0.000000 0.000000 0.069089 0.000000
# 6 0.000000 0.000000 0.000000 0.000000 0.000000 0.043474
#
#
# Mechanical properties :
#
#
# Convention : Reuss Voigt Hill
#
# Bulk Modulus (GPa) = 31.45406 33.94095 32.69751
# Shear Modulus (GPa) = 19.67174 22.42041 21.04607
#
# Velocity S-wave (km/s) = 3.17236 3.38674 3.28130
# Velocity P-wave (km/s) = 5.43231 5.71465 5.57527
#
# Compressibility (1/GPa) = 0.03179239
#
# Stress axis : x y z
#
# Youngs Moduli (GPa) = 65.62339 65.62339 61.04672
#
# Poissons Ratio (x) = 0.42645 0.03157
# Poissons Ratio (y) = 0.42645 0.03157
# Poissons Ratio (z) = 0.03394 0.03394
#
# Static dielectric constant tensor:
#      x y z
#    x 1.686490 0.000000 0.000000 
#    y 0.000000 1.686490 0.000000 
#    z 0.000000 0.000000 1.728280 
# 
# From -- ./inp_files/10283.got.cif
#   From: 2010.05.17/outbox.cif.g08.bks.cpg/sg180_6_cif.got.tgz:10283.got - 2010.05.20 11:43:55.
