data_PCOD9583517
_publ_section_title
;
Structure prediction by ZEFSAII (Michael W. Deem and Ramdas Pophale) SiO2 
 PCOD9583517
Probable space group: P 65 2 2
;
_chemical_formula_sum "Si O2"
_cell_formula_units_Z 48
_cell_length_a 14.182639
_cell_length_b 14.182639
_cell_length_c 15.612368
_cell_angle_alpha 90.000000
_cell_angle_beta 90.000000
_cell_angle_gamma 120.000000
_cell_volume 2719.653078
_symmetry_space_group_name_H-M "P 65 2 2"
_symmetry_group_IT_number 179
_symmetry_cell_setting 'hexagonal'
loop_
_space_group_symop_operation_xyz
x,y,z
x-y,x,5/6+z
-y,x-y,2/3+z
-x,-y,1/2+z
-x+y,-x,1/3+z
y,-x+y,1/6+z
x-y,-y,-z
-x,-x+y,1/3-z
y,x,2/3-z
-y,-x,1/6-z
-x+y,y,1/2-z
x,x-y,5/6-z
loop_
_atom_site_type_symbol
_atom_site_label
_atom_site_fract_x
_atom_site_fract_y
_atom_site_fract_z
Si Si1 0.879416 0.279488 0.153255
Si Si2 0.957258 0.519371 0.079437
Si Si3 0.812105 0.330536 0.510248
Si Si4 0.506205 0.750636 0.669064
O O1 0.809935 0.190066 0.083334
O O2 0.902216 0.396129 0.115240
O O3 0.816500 0.253152 0.243738
O O4 0.000000 0.298935 0.166667
O O5 0.000000 0.592318 0.166667
O O6 0.070600 0.566068 0.029982
O O7 0.867911 0.521008 0.018306
O O8 0.760710 0.239291 0.583334
O O9 0.732783 0.382282 0.506320
O O10 0.820180 0.279169 0.421217
#
# Coordination Sequence:
#
# PCOD9583517 Si02
#       4
#    12  12  12  12
#     4  11  25  42  58  91 125 162 214 260 312 377
#     4  11  22  40  56  88 132 162 211 262 294 387
#     4  11  22  39  57  91 126 167 211 248 313 370
#     4  11  23  34  62  83 120 173 202 251 308 361
#
# _framework density 17.649308999999999
#
# number of rings (size 3 to 8) (size 9 to 14) (size 15 to 20)
#    0.000    1.000    7.500    0.000   10.500    0.000 
#    0.000    0.000    0.000    0.000    0.000    3.500 
#    0.000    0.000    0.000    0.000    0.000    0.000 
#
# Total GULP energy -267279.044896 kJ/mol
# GULP energy per Si atom -5568.313435 kJ/mol
# Density = 1.760914 g / cm^3
# Si number density = 17.649309 Si / 1000 Ang^3
#
#
#
# Elastic Constant Matrix: (Units=GPa)
#
#
# Indices 1 2 3 4 5 6 
#
# 1 90.8606 49.0789 64.0933 0.0000 0.0000 0.0000
# 2 49.0789 90.8606 64.0933 0.0000 0.0000 0.0000
# 3 64.0933 64.0933 173.3440 0.0000 0.0000 0.0000
# 4 0.0000 0.0000 0.0000 33.4219 0.0000 0.0000
# 5 0.0000 0.0000 0.0000 0.0000 33.4219 0.0000
# 6 0.0000 0.0000 0.0000 0.0000 0.0000 20.8909
#
#
#
# Elastic Compliance Matrix: (Units=1/GPa)
#
#
# Indices 1 2 3 4 5 6 
#
# 1 0.017370 -0.006564 -0.003995 0.000000 0.000000 0.000000
# 2 -0.006564 0.017370 -0.003995 0.000000 0.000000 0.000000
# 3 -0.003995 -0.003995 0.008723 0.000000 0.000000 0.000000
# 4 0.000000 0.000000 0.000000 0.029920 0.000000 0.000000
# 5 0.000000 0.000000 0.000000 0.000000 0.029920 0.000000
# 6 0.000000 0.000000 0.000000 0.000000 0.000000 0.047868
#
#
# Mechanical properties :
#
#
# Convention : Reuss Voigt Hill
#
# Bulk Modulus (GPa) = 69.66977 78.84401 74.25689
# Shear Modulus (GPa) = 27.01737 29.40026 28.20881
#
# Velocity S-wave (km/s) = 3.91677 4.08585 4.00221
# Velocity P-wave (km/s) = 7.74694 8.18709 7.97005
#
# Compressibility (1/GPa) = 0.01435343
#
# Stress axis : x y z
#
# Youngs Moduli (GPa) = 57.57100 57.57100 114.63357
#
# Poissons Ratio (x) = 0.37790 0.45801
# Poissons Ratio (y) = 0.37790 0.45801
# Poissons Ratio (z) = 0.23002 0.23002
#
# Static dielectric constant tensor:
#      x y z
#    x 1.624890 0.000000 0.000000 
#    y 0.000000 1.624890 0.000000 
#    z 0.000000 0.000000 1.695630 
# 
# From -- ./inp_files/5554.got.cif
#   From: 2010.05.17/outbox.cif.g08.bks.cpg/sg179_3_cif.got.tgz:5554.got - 2010.05.20 11:37:33.
