data_PCOD9583867
_publ_section_title
;
Structure prediction by ZEFSAII (Michael W. Deem and Ramdas Pophale) SiO2 
 PCOD9583867
Probable space group: P 62 2 2
;
_chemical_formula_sum "Si O2"
_cell_formula_units_Z 84
_cell_length_a 19.884364
_cell_length_b 19.884364
_cell_length_c 13.303393
_cell_angle_alpha 90.000000
_cell_angle_beta 90.000000
_cell_angle_gamma 120.000000
_cell_volume 4555.294527
_symmetry_space_group_name_H-M "P 62 2 2"
_symmetry_group_IT_number 180
_symmetry_cell_setting 'hexagonal'
loop_
_space_group_symop_operation_xyz
x,y,z
x-y,x,1/3+z
-y,x-y,2/3+z
-x,-y,z
-x+y,-x,1/3+z
y,-x+y,2/3+z
x-y,-y,-z
-x,-x+y,1/3-z
y,x,2/3-z
-y,-x,2/3-z
-x+y,y,-z
x,x-y,1/3-z
loop_
_atom_site_type_symbol
_atom_site_label
_atom_site_fract_x
_atom_site_fract_y
_atom_site_fract_z
Si Si1 0.912014 0.533660 0.135643
Si Si2 0.143056 0.744997 0.750566
Si Si3 0.910400 0.617124 0.935562
Si Si4 0.429670 0.417535 0.213867
Si Si5 0.191852 0.779015 0.115344
Si Si6 0.919783 0.785108 0.608890
Si Si7 0.230125 0.968587 0.610384
O O1 0.913222 0.456611 0.166667
O O2 0.837371 0.528039 0.190804
O O3 0.000000 0.602690 0.166667
O O4 0.900178 0.555025 0.021916
O O5 0.205649 0.794352 0.833334
O O6 0.095241 0.659113 0.795041
O O7 0.181247 0.748704 0.642636
O O8 0.094152 0.790614 0.735855
O O9 0.833853 0.609716 0.881260
O O10 0.955331 0.603010 0.845517
O O11 0.966932 0.700725 0.987473
O O12 0.500000 0.500000 0.178173
O O13 0.422640 0.422640 0.333334
O O14 0.110607 0.767485 0.072720
O O15 0.904667 0.809334 0.500000
O O16 0.852836 0.787175 0.672898
O O17 0.000000 0.834041 0.666667
O O18 0.233243 0.000000 0.500000
#
# Coordination Sequence:
#
# PCOD9583867 Si02
#       7
#    12  12  12  12  12  12  12
#     4  11  24  40  61  94 131 161 206 263 332 389
#     4  10  21  36  62  89 126 163 209 264 319 385
#     4  12  22  39  67  94 129 165 215 272 331 382
#     4  11  23  38  58  92 128 163 208 258 320 381
#     4  11  21  39  63  91 126 164 214 265 328 387
#     4  10  22  38  60  90 126 163 205 260 325 381
#     4  11  23  38  61  96 125 160 217 272 322 375
#
# _framework density 18.440082
#
# number of rings (size 3 to 8) (size 9 to 14) (size 15 to 20)
#    0.000    1.143    4.286    3.429    8.000    0.000 
#    0.000    0.000    0.000    5.571    0.000    0.000 
#    0.000    0.000    0.000    0.000    0.000    0.000 
#
# Total GULP energy -467974.399453 kJ/mol
# GULP energy per Si atom -5571.123803 kJ/mol
# Density = 1.839811 g / cm^3
# Si number density = 18.440082 Si / 1000 Ang^3
#
#
#
# Elastic Constant Matrix: (Units=GPa)
#
#
# Indices 1 2 3 4 5 6 
#
# 1 96.9186 64.2821 42.3651 0.0000 0.0000 0.0000
# 2 64.2821 96.9186 42.3651 0.0000 0.0000 0.0000
# 3 42.3651 42.3651 88.2795 0.0000 0.0000 0.0000
# 4 0.0000 0.0000 0.0000 18.6003 0.0000 0.0000
# 5 0.0000 0.0000 0.0000 0.0000 18.6003 0.0000
# 6 0.0000 0.0000 0.0000 0.0000 0.0000 16.3182
#
#
#
# Elastic Compliance Matrix: (Units=1/GPa)
#
#
# Indices 1 2 3 4 5 6 
#
# 1 0.019468 -0.011172 -0.003981 0.000000 0.000000 0.000000
# 2 -0.011172 0.019468 -0.003981 0.000000 0.000000 0.000000
# 3 -0.003981 -0.003981 0.015149 0.000000 0.000000 0.000000
# 4 0.000000 0.000000 0.000000 0.053763 0.000000 0.000000
# 5 0.000000 0.000000 0.000000 0.000000 0.053763 0.000000
# 6 0.000000 0.000000 0.000000 0.000000 0.000000 0.061281
#
#
# Mechanical properties :
#
#
# Convention : Reuss Voigt Hill
#
# Bulk Modulus (GPa) = 63.22736 64.46018 63.84377
# Shear Modulus (GPa) = 18.76643 19.57740 19.17191
#
# Velocity S-wave (km/s) = 3.19360 3.26187 3.22792
# Velocity P-wave (km/s) = 6.92540 7.01562 6.97065
#
# Compressibility (1/GPa) = 0.01581594
#
# Stress axis : x y z
#
# Youngs Moduli (GPa) = 51.36552 51.36552 66.01160
#
# Poissons Ratio (x) = 0.57387 0.26281
# Poissons Ratio (y) = 0.57387 0.26281
# Poissons Ratio (z) = 0.20450 0.20450
#
# Static dielectric constant tensor:
#      x y z
#    x 1.706230 0.000000 0.000000 
#    y 0.000000 1.706230 0.000000 
#    z 0.000000 0.000000 1.628710 
# 
# From -- ./inp_files/5044.got.cif
#   From: 2010.05.17/outbox.cif.g08.bks.cpg/sg180_3_cif.got.tgz:5044.got - 2010.05.20 11:43:55.
