data_PCOD9583506
_publ_section_title
;
Structure prediction by ZEFSAII (Michael W. Deem and Ramdas Pophale) SiO2 
 PCOD9583506
Probable space group: P 65 2 2
;
_chemical_formula_sum "Si O2"
_cell_formula_units_Z 66
_cell_length_a 13.979967
_cell_length_b 13.979967
_cell_length_c 20.093460
_cell_angle_alpha 90.000000
_cell_angle_beta 90.000000
_cell_angle_gamma 120.000000
_cell_volume 3400.929669
_symmetry_space_group_name_H-M "P 65 2 2"
_symmetry_group_IT_number 179
_symmetry_cell_setting 'hexagonal'
loop_
_space_group_symop_operation_xyz
x,y,z
x-y,x,5/6+z
-y,x-y,2/3+z
-x,-y,1/2+z
-x+y,-x,1/3+z
y,-x+y,1/6+z
x-y,-y,-z
-x,-x+y,1/3-z
y,x,2/3-z
-y,-x,1/6-z
-x+y,y,1/2-z
x,x-y,5/6-z
loop_
_atom_site_type_symbol
_atom_site_label
_atom_site_fract_x
_atom_site_fract_y
_atom_site_fract_z
Si Si1 0.523039 0.476962 0.583334
Si Si2 0.878993 0.773948 0.672501
Si Si3 0.361187 0.072510 0.690893
Si Si4 0.593896 0.260320 0.986009
Si Si5 0.519547 0.201131 0.132906
Si Si6 0.903816 0.328549 0.214541
O O1 0.389885 0.417984 0.575766
O O2 0.585622 0.464821 0.517749
O O3 0.871224 0.742448 0.750000
O O4 0.771275 0.773897 0.646535
O O5 0.883005 0.675983 0.633741
O O6 0.000000 0.882327 0.666667
O O7 0.406561 0.202775 0.692492
O O8 0.406755 0.052795 0.621887
O O9 0.537903 0.268952 0.916667
O O10 0.665937 0.205183 0.963975
O O11 0.531410 0.193836 0.052905
O O12 0.677347 0.383282 0.011458
O O13 0.000000 0.411698 0.166667
#
# Coordination Sequence:
#
# PCOD9583506 Si02
#       6
#     6  12  12  12  12  12
#     4  12  24  38  60  92 130 170 196 252 320 380
#     4  11  22  37  60  90 123 159 204 268 327 369
#     4  12  22  38  59  89 133 157 210 252 315 387
#     4  11  21  37  58  81 128 173 210 241 308 388
#     4  11  23  38  57  89 126 168 201 255 315 375
#     4  11  21  36  58  92 125 163 204 261 313 383
#
# _framework density 19.406458000000001
#
# number of rings (size 3 to 8) (size 9 to 14) (size 15 to 20)
#    0.000    0.727    6.364    4.364    2.545    0.000 
#    0.000    0.000    0.000    0.000    0.000    5.091 
#    2.727    0.000    0.000    0.000    0.000    0.000 
#
# Total GULP energy -367741.773956 kJ/mol
# GULP energy per Si atom -5571.845060 kJ/mol
# Density = 1.936229 g / cm^3
# Si number density = 19.406458 Si / 1000 Ang^3
#
#
#
# Elastic Constant Matrix: (Units=GPa)
#
#
# Indices 1 2 3 4 5 6 
#
# 1 67.4865 47.2570 4.9037 0.0000 0.0000 0.0000
# 2 47.2570 67.4865 4.9037 0.0000 0.0000 0.0000
# 3 4.9037 4.9037 108.4865 0.0000 0.0000 0.0000
# 4 0.0000 0.0000 0.0000 23.5424 0.0000 0.0000
# 5 0.0000 0.0000 0.0000 0.0000 23.5424 0.0000
# 6 0.0000 0.0000 0.0000 0.0000 0.0000 10.1148
#
#
#
# Elastic Compliance Matrix: (Units=1/GPa)
#
#
# Indices 1 2 3 4 5 6 
#
# 1 0.029091 -0.020342 -0.000395 0.000000 0.000000 0.000000
# 2 -0.020342 0.029091 -0.000395 0.000000 0.000000 0.000000
# 3 -0.000395 -0.000395 0.009253 0.000000 0.000000 0.000000
# 4 0.000000 0.000000 0.000000 0.042477 0.000000 0.000000
# 5 0.000000 0.000000 0.000000 0.000000 0.042477 0.000000
# 6 0.000000 0.000000 0.000000 0.000000 0.000000 0.098866
#
#
# Mechanical properties :
#
#
# Convention : Reuss Voigt Hill
#
# Bulk Modulus (GPa) = 39.73074 39.73205 39.73139
# Shear Modulus (GPa) = 16.56127 23.86625 20.21376
#
# Velocity S-wave (km/s) = 2.92445 3.51067 3.23088
# Velocity P-wave (km/s) = 5.64983 6.07874 5.86821
#
# Compressibility (1/GPa) = 0.02516943
#
# Stress axis : x y z
#
# Youngs Moduli (GPa) = 34.37511 34.37511 108.06736
#
# Poissons Ratio (x) = 0.69926 0.04274
# Poissons Ratio (y) = 0.69926 0.04274
# Poissons Ratio (z) = 0.01359 0.01359
#
# Static dielectric constant tensor:
#      x y z
#    x 1.723770 0.000000 0.000000 
#    y 0.000000 1.723770 0.000000 
#    z 0.000000 0.000000 1.780570 
# 
# From -- ./inp_files/6726.got.cif
#   From: 2010.05.17/outbox.cif.g08.bks.cpg/sg179_4_cif.got.tgz:6726.got - 2010.05.20 11:37:33.
