data_PCOD9583577
_publ_section_title
;
Structure prediction by ZEFSAII (Michael W. Deem and Ramdas Pophale) SiO2 
 PCOD9583577
Probable space group: P 65 2 2
;
_chemical_formula_sum "Si O2"
_cell_formula_units_Z 54
_cell_length_a 23.939619
_cell_length_b 23.939619
_cell_length_c 4.961914
_cell_angle_alpha 90.000000
_cell_angle_beta 90.000000
_cell_angle_gamma 120.000000
_cell_volume 2462.716007
_symmetry_space_group_name_H-M "P 65 2 2"
_symmetry_group_IT_number 179
_symmetry_cell_setting 'hexagonal'
loop_
_space_group_symop_operation_xyz
x,y,z
x-y,x,5/6+z
-y,x-y,2/3+z
-x,-y,1/2+z
-x+y,-x,1/3+z
y,-x+y,1/6+z
x-y,-y,-z
-x,-x+y,1/3-z
y,x,2/3-z
-y,-x,1/6-z
-x+y,y,1/2-z
x,x-y,5/6-z
loop_
_atom_site_type_symbol
_atom_site_label
_atom_site_fract_x
_atom_site_fract_y
_atom_site_fract_z
Si Si1 0.854908 0.145093 0.083334
Si Si2 0.460128 0.113532 0.915391
Si Si3 0.523401 0.476600 0.583334
Si Si4 0.630081 0.369920 0.583334
Si Si5 0.676882 0.000000 0.500000
Si Si6 0.241989 0.000000 0.500000
Si Si7 0.411312 0.822623 0.250000
Si Si8 0.804510 0.195491 0.583334
O O1 0.930789 0.175821 0.165887
O O2 0.826777 0.168051 0.332219
O O3 0.513598 0.136477 0.681047
O O4 0.438831 0.166771 0.953891
O O5 0.390502 0.052494 0.874443
O O6 0.492818 0.088993 0.137239
O O7 0.484301 0.484301 0.333334
O O8 0.609857 0.304929 0.416667
O O9 0.630827 0.412754 0.337006
O O10 0.725016 0.013823 0.254811
#
# Coordination Sequence:
#
# PCOD9583577 Si02
#       8
#     6  12   6   6   6   6   6   6
#     4  12  24  46  72 113 151 193 240 292 362 441
#     4  12  28  50  71 109 143 192 247 314 377 465
#     4  12  28  46  78 105 146 197 254 314 396 471
#     4  12  25  51  75  92 126 186 246 318 392 462
#     4  12  26  44  79 102 151 186 244 300 372 448
#     4  12  24  46  71 116 149 198 238 294 364 436
#     4  12  29  46  69 105 138 185 252 318 394 467
#     4  12  28  45  74 107 141 193 246 308 376 435
#
# _framework density 21.927009999999999
#
# number of rings (size 3 to 8) (size 9 to 14) (size 15 to 20)
#    0.000    0.000    6.667    1.333    4.667    7.111 
#    0.000    0.000    0.000    0.000    0.000    3.111 
#    0.000    0.000    0.000    0.000    0.000    0.000 
#
# Total GULP energy -300898.374531 kJ/mol
# GULP energy per Si atom -5572.192121 kJ/mol
# Density = 2.187710 g / cm^3
# Si number density = 21.927010 Si / 1000 Ang^3
#
#
#
# Elastic Constant Matrix: (Units=GPa)
#
#
# Indices 1 2 3 4 5 6 
#
# 1 145.6650 64.6624 16.1153 0.0000 0.0000 0.0000
# 2 64.6624 145.6650 16.1153 0.0000 0.0000 0.0000
# 3 16.1153 16.1153 125.1600 0.0000 0.0000 0.0000
# 4 0.0000 0.0000 0.0000 18.7726 0.0000 0.0000
# 5 0.0000 0.0000 0.0000 0.0000 18.7726 0.0000
# 6 0.0000 0.0000 0.0000 0.0000 0.0000 40.5013
#
#
#
# Elastic Compliance Matrix: (Units=1/GPa)
#
#
# Indices 1 2 3 4 5 6 
#
# 1 0.008598 -0.003748 -0.000624 0.000000 0.000000 0.000000
# 2 -0.003748 0.008598 -0.000624 0.000000 0.000000 0.000000
# 3 -0.000624 -0.000624 0.008151 0.000000 0.000000 0.000000
# 4 0.000000 0.000000 0.000000 0.053269 0.000000 0.000000
# 5 0.000000 0.000000 0.000000 0.000000 0.053269 0.000000
# 6 0.000000 0.000000 0.000000 0.000000 0.000000 0.024691
#
#
# Mechanical properties :
#
#
# Convention : Reuss Voigt Hill
#
# Bulk Modulus (GPa) = 65.13394 67.80844 66.47119
# Shear Modulus (GPa) = 29.12296 36.91576 33.01936
#
# Velocity S-wave (km/s) = 3.64837 4.10759 3.88477
# Velocity P-wave (km/s) = 6.89325 7.31356 7.10651
#
# Compressibility (1/GPa) = 0.01535298
#
# Stress axis : x y z
#
# Youngs Moduli (GPa) = 116.30974 116.30974 122.69048
#
# Poissons Ratio (x) = 0.43588 0.07662
# Poissons Ratio (y) = 0.43588 0.07662
# Poissons Ratio (z) = 0.07264 0.07264
#
# Static dielectric constant tensor:
#      x y z
#    x 1.928790 0.000000 0.000000 
#    y 0.000000 1.928790 0.000000 
#    z 0.000000 0.000000 1.873320 
# 
# From -- ./inp_files/1296.got.cif
#   From: 2010.05.17/outbox.cif.g08.bks.cpg/sg179_1_cif.got.tgz:1296.got - 2010.05.20 11:37:33.
