data_PCOD9583682
_publ_section_title
;
Structure prediction by ZEFSAII (Michael W. Deem and Ramdas Pophale) SiO2 
 PCOD9583682
Probable space group: P 62 2 2
;
_chemical_formula_sum "Si O2"
_cell_formula_units_Z 48
_cell_length_a 26.529861
_cell_length_b 26.529861
_cell_length_c 5.086534
_cell_angle_alpha 90.000000
_cell_angle_beta 90.000000
_cell_angle_gamma 120.000000
_cell_volume 3100.434298
_symmetry_space_group_name_H-M "P 62 2 2"
_symmetry_group_IT_number 180
_symmetry_cell_setting 'hexagonal'
loop_
_space_group_symop_operation_xyz
x,y,z
x-y,x,1/3+z
-y,x-y,2/3+z
-x,-y,z
-x+y,-x,1/3+z
y,-x+y,2/3+z
x-y,-y,-z
-x,-x+y,1/3-z
y,x,2/3-z
-y,-x,2/3-z
-x+y,y,-z
x,x-y,1/3-z
loop_
_atom_site_type_symbol
_atom_site_label
_atom_site_fract_x
_atom_site_fract_y
_atom_site_fract_z
Si Si1 0.430122 0.680083 0.421836
Si Si2 0.069174 0.480074 0.118183
Si Si3 0.748231 0.183671 0.092166
Si Si4 0.067525 0.415978 0.619841
O O1 0.385876 0.614125 0.333334
O O2 0.409379 0.704690 0.666667
O O3 0.496873 0.698599 0.482252
O O4 0.432540 0.716270 0.166667
O O5 0.096962 0.548481 0.166667
O O6 0.084838 0.444813 0.330187
O O7 0.000000 0.449868 0.166667
O O8 0.075201 0.466475 0.819549
O O9 0.792233 0.207768 0.333334
O O10 0.715573 0.115017 0.043265
O O11 0.782347 0.217654 0.833334
O O12 0.000000 0.366914 0.666667
#
# Coordination Sequence:
#
# PCOD9583682 Si02
#       4
#    12  12  12  12
#     4  10  19  30  44  59  76 101 134 169 205 247
#     4   9  17  28  43  65  90 111 134 169 209 249
#     4  10  21  35  47  64  88 110 134 171 218 258
#     4  10  19  32  49  66  85 112 143 171 207 261
#
# _framework density 15.481700999999999
#
# number of rings (size 3 to 8) (size 9 to 14) (size 15 to 20)
#    0.000    2.250    0.000    3.750    0.000    5.000 
#    0.000    0.000    0.000    0.000    0.000    0.000 
#    0.000    0.000    0.000    0.000    0.000    0.000 
#
# Total GULP energy -267557.319814 kJ/mol
# GULP energy per Si atom -5574.110829 kJ/mol
# Density = 1.544646 g / cm^3
# Si number density = 15.481701 Si / 1000 Ang^3
#
#
#
# Elastic Constant Matrix: (Units=GPa)
#
#
# Indices 1 2 3 4 5 6 
#
# 1 56.8811 28.1299 6.0641 0.0000 0.0000 0.0000
# 2 28.1299 56.8811 6.0641 0.0000 0.0000 0.0000
# 3 6.0641 6.0641 61.8248 0.0000 0.0000 0.0000
# 4 0.0000 0.0000 0.0000 5.9056 0.0000 0.0000
# 5 0.0000 0.0000 0.0000 0.0000 5.9056 0.0000
# 6 0.0000 0.0000 0.0000 0.0000 0.0000 14.3756
#
#
#
# Elastic Compliance Matrix: (Units=1/GPa)
#
#
# Indices 1 2 3 4 5 6 
#
# 1 0.023356 -0.011426 -0.001170 0.000000 0.000000 0.000000
# 2 -0.011426 0.023356 -0.001170 0.000000 0.000000 0.000000
# 3 -0.001170 -0.001170 0.016404 0.000000 0.000000 0.000000
# 4 0.000000 0.000000 0.000000 0.169331 0.000000 0.000000
# 5 0.000000 0.000000 0.000000 0.000000 0.169331 0.000000
# 6 0.000000 0.000000 0.000000 0.000000 0.000000 0.069562
#
#
# Mechanical properties :
#
#
# Convention : Reuss Voigt Hill
#
# Bulk Modulus (GPa) = 28.10263 28.45592 28.27927
# Shear Modulus (GPa) = 9.78985 14.25928 12.02457
#
# Velocity S-wave (km/s) = 2.51738 3.03816 2.78995
# Velocity P-wave (km/s) = 5.16151 5.54324 5.35578
#
# Compressibility (1/GPa) = 0.03558386
#
# Stress axis : x y z
#
# Youngs Moduli (GPa) = 42.81620 42.81620 60.95966
#
# Poissons Ratio (x) = 0.48920 0.07133
# Poissons Ratio (y) = 0.48920 0.07133
# Poissons Ratio (z) = 0.05010 0.05010
#
# Static dielectric constant tensor:
#      x y z
#    x 1.575610 0.000000 0.000000 
#    y 0.000000 1.575610 0.000000 
#    z 0.000000 0.000000 1.637190 
# 
# From -- ./inp_files/1101.got.cif
#   From: 2010.05.17/outbox.cif.g08.bks.cpg/sg180_1_cif.got.tgz:1101.got - 2010.05.20 11:43:55.
