data_PCOD9583685
_publ_section_title
;
Structure prediction by ZEFSAII (Michael W. Deem and Ramdas Pophale) SiO2 
 PCOD9583685
Probable space group: P 62 2 2
;
_chemical_formula_sum "Si O2"
_cell_formula_units_Z 48
_cell_length_a 15.506386
_cell_length_b 15.506386
_cell_length_c 12.494951
_cell_angle_alpha 90.000000
_cell_angle_beta 90.000000
_cell_angle_gamma 120.000000
_cell_volume 2601.874653
_symmetry_space_group_name_H-M "P 62 2 2"
_symmetry_group_IT_number 180
_symmetry_cell_setting 'hexagonal'
loop_
_space_group_symop_operation_xyz
x,y,z
x-y,x,1/3+z
-y,x-y,2/3+z
-x,-y,z
-x+y,-x,1/3+z
y,-x+y,2/3+z
x-y,-y,-z
-x,-x+y,1/3-z
y,x,2/3-z
-y,-x,2/3-z
-x+y,y,-z
x,x-y,1/3-z
loop_
_atom_site_type_symbol
_atom_site_label
_atom_site_fract_x
_atom_site_fract_y
_atom_site_fract_z
Si Si1 0.386578 0.576854 0.458903
Si Si2 0.383243 0.941183 0.707195
Si Si3 0.934957 0.699264 0.062422
Si Si4 0.793172 0.498511 0.185879
O O1 0.404708 0.595293 0.333334
O O2 0.285574 0.571148 0.500000
O O3 0.388089 0.482577 0.507147
O O4 0.475192 0.681663 0.503037
O O5 0.316650 0.841295 0.637275
O O6 0.500000 0.000000 0.668345
O O7 0.325553 0.001133 0.687898
O O8 0.863935 0.590637 0.113176
O O9 0.000000 0.762173 0.166667
O O10 0.867579 0.735157 0.000000
O O11 0.792558 0.396279 0.166667
#
# Coordination Sequence:
#
# PCOD9583685 Si02
#       4
#    12  12  12  12
#     4  11  22  36  53  79 118 166 206 244 301 364
#     4  11  20  33  52  78 115 158 210 254 293 351
#     4  10  21  35  56  84 116 158 205 263 310 364
#     4  10  19  30  51  80 113 162 209 247 285 342
#
# _framework density 18.448236000000001
#
# number of rings (size 3 to 8) (size 9 to 14) (size 15 to 20)
#    0.000    1.500    5.000    1.500    0.000    0.500 
#    0.000    0.000    0.000    0.000    0.000    0.000 
#    0.000    3.000    0.500    0.000    0.000    0.500 
#
# Total GULP energy -267276.550727 kJ/mol
# GULP energy per Si atom -5568.261473 kJ/mol
# Density = 1.840625 g / cm^3
# Si number density = 18.448236 Si / 1000 Ang^3
#
#
#
# Elastic Constant Matrix: (Units=GPa)
#
#
# Indices 1 2 3 4 5 6 
#
# 1 66.7275 34.3504 41.7080 0.0000 0.0000 0.0000
# 2 34.3504 66.7275 41.7080 0.0000 0.0000 0.0000
# 3 41.7080 41.7080 111.6470 0.0000 0.0000 0.0000
# 4 0.0000 0.0000 0.0000 19.6378 0.0000 0.0000
# 5 0.0000 0.0000 0.0000 0.0000 19.6378 0.0000
# 6 0.0000 0.0000 0.0000 0.0000 0.0000 16.1885
#
#
#
# Elastic Compliance Matrix: (Units=1/GPa)
#
#
# Indices 1 2 3 4 5 6 
#
# 1 0.022594 -0.008292 -0.005343 0.000000 0.000000 0.000000
# 2 -0.008292 0.022594 -0.005343 0.000000 0.000000 0.000000
# 3 -0.005343 -0.005343 0.012949 0.000000 0.000000 0.000000
# 4 0.000000 0.000000 0.000000 0.050922 0.000000 0.000000
# 5 0.000000 0.000000 0.000000 0.000000 0.050922 0.000000
# 6 0.000000 0.000000 0.000000 0.000000 0.000000 0.061772
#
#
# Mechanical properties :
#
#
# Convention : Reuss Voigt Hill
#
# Bulk Modulus (GPa) = 49.54891 53.40386 51.47639
# Shear Modulus (GPa) = 18.76615 19.58188 19.17401
#
# Velocity S-wave (km/s) = 3.19287 3.26152 3.22738
# Velocity P-wave (km/s) = 6.36468 6.57223 6.46929
#
# Compressibility (1/GPa) = 0.02018208
#
# Stress axis : x y z
#
# Youngs Moduli (GPa) = 44.25866 44.25866 77.22690
#
# Poissons Ratio (x) = 0.36698 0.41263
# Poissons Ratio (y) = 0.36698 0.41263
# Poissons Ratio (z) = 0.23648 0.23648
#
# Static dielectric constant tensor:
#      x y z
#    x 1.671580 0.000000 0.000000 
#    y 0.000000 1.671580 0.000000 
#    z 0.000000 0.000000 1.710340 
# 
# From -- ./inp_files/4382.got.cif
#   From: 2010.05.17/outbox.cif.g08.bks.cpg/sg180_3_cif.got.tgz:4382.got - 2010.05.20 11:43:55.
