data_PCOD9583661
_publ_section_title
;
Structure prediction by ZEFSAII (Michael W. Deem and Ramdas Pophale) SiO2 
 PCOD9583661
Probable space group: P 62 2 2
;
_chemical_formula_sum "Si O2"
_cell_formula_units_Z 60
_cell_length_a 12.053712
_cell_length_b 12.053712
_cell_length_c 25.334896
_cell_angle_alpha 90.000000
_cell_angle_beta 90.000000
_cell_angle_gamma 120.000000
_cell_volume 3187.802294
_symmetry_space_group_name_H-M "P 62 2 2"
_symmetry_group_IT_number 180
_symmetry_cell_setting 'hexagonal'
loop_
_space_group_symop_operation_xyz
x,y,z
x-y,x,1/3+z
-y,x-y,2/3+z
-x,-y,z
-x+y,-x,1/3+z
y,-x+y,2/3+z
x-y,-y,-z
-x,-x+y,1/3-z
y,x,2/3-z
-y,-x,2/3-z
-x+y,y,-z
x,x-y,1/3-z
loop_
_atom_site_type_symbol
_atom_site_label
_atom_site_fract_x
_atom_site_fract_y
_atom_site_fract_z
Si Si1 0.353911 0.388630 0.180433
Si Si2 0.968057 0.240666 0.402935
Si Si3 0.555409 0.874126 0.473279
Si Si4 0.003378 0.711526 0.048943
Si Si5 0.204383 0.208456 0.393583
O O1 0.500000 0.500000 0.184291
O O2 0.322810 0.323264 0.122660
O O3 0.254893 0.441125 0.187021
O O4 0.311421 0.286899 0.228322
O O5 0.816426 0.138539 0.399862
O O6 0.001677 0.312768 0.346744
O O7 0.058510 0.176335 0.400454
O O8 0.429812 0.859624 0.500000
O O9 0.674812 0.000000 0.500000
O O10 0.575182 0.922195 0.413210
O O11 0.086910 0.862451 0.064438
O O12 0.251594 0.251594 0.333334
#
# Coordination Sequence:
#
# PCOD9583661 Si02
#       5
#    12  12  12  12  12
#     4  11  23  37  54  83 115 150 191 240 289 341
#     4  10  18  34  56  86 117 142 171 231 294 342
#     4  10  20  38  59  79 107 154 206 233 272 335
#     4   9  18  34  57  88 114 140 182 228 279 342
#     4   9  19  34  58  84 111 143 178 226 286 348
#
# _framework density 18.821743999999999
#
# number of rings (size 3 to 8) (size 9 to 14) (size 15 to 20)
#    0.000    2.200    2.000    1.200    0.000    4.400 
#    3.600    2.000    0.000    2.400    0.000    0.000 
#    0.000    0.000    0.000    0.000    0.000    0.000 
#
# Total GULP energy -334069.010896 kJ/mol
# GULP energy per Si atom -5567.816848 kJ/mol
# Density = 1.877891 g / cm^3
# Si number density = 18.821744 Si / 1000 Ang^3
#
#
#
# Elastic Constant Matrix: (Units=GPa)
#
#
# Indices 1 2 3 4 5 6 
#
# 1 79.0281 24.2699 40.9023 0.0000 0.0000 0.0000
# 2 24.2699 79.0281 40.9023 0.0000 0.0000 0.0000
# 3 40.9023 40.9023 144.2848 0.0000 0.0000 0.0000
# 4 0.0000 0.0000 0.0000 22.6420 0.0000 0.0000
# 5 0.0000 0.0000 0.0000 0.0000 22.6420 0.0000
# 6 0.0000 0.0000 0.0000 0.0000 0.0000 27.3791
#
#
#
# Elastic Compliance Matrix: (Units=1/GPa)
#
#
# Indices 1 2 3 4 5 6 
#
# 1 0.015373 -0.002889 -0.003539 0.000000 0.000000 0.000000
# 2 -0.002889 0.015373 -0.003539 0.000000 0.000000 0.000000
# 3 -0.003539 -0.003539 0.008937 0.000000 0.000000 0.000000
# 4 0.000000 0.000000 0.000000 0.044166 0.000000 0.000000
# 5 0.000000 0.000000 0.000000 0.000000 0.044166 0.000000
# 6 0.000000 0.000000 0.000000 0.000000 0.000000 0.036524
#
#
# Mechanical properties :
#
#
# Convention : Reuss Voigt Hill
#
# Bulk Modulus (GPa) = 50.63707 57.16557 53.90132
# Shear Modulus (GPa) = 26.17050 27.61705 26.89378
#
# Velocity S-wave (km/s) = 3.73291 3.83468 3.78414
# Velocity P-wave (km/s) = 6.74843 7.07421 6.91324
#
# Compressibility (1/GPa) = 0.01974838
#
# Stress axis : x y z
#
# Youngs Moduli (GPa) = 65.05061 65.05061 111.89300
#
# Poissons Ratio (x) = 0.18796 0.39596
# Poissons Ratio (y) = 0.18796 0.39596
# Poissons Ratio (z) = 0.23020 0.23020
#
# Static dielectric constant tensor:
#      x y z
#    x 1.652760 0.000000 0.000000 
#    y 0.000000 1.652760 0.000000 
#    z 0.000000 0.000000 1.743190 
# 
# From -- ./inp_files/11181.got.cif
#   From: 2010.05.17/outbox.cif.g08.bks.cpg/sg180_6_cif.got.tgz:11181.got - 2010.05.20 11:43:55.
