data_PCOD9583573
_publ_section_title
;
Structure prediction by ZEFSAII (Michael W. Deem and Ramdas Pophale) SiO2 
 PCOD9583573
Probable space group: P 65 2 2
;
_chemical_formula_sum "Si O2"
_cell_formula_units_Z 48
_cell_length_a 17.585727
_cell_length_b 17.585727
_cell_length_c 8.536433
_cell_angle_alpha 90.000000
_cell_angle_beta 90.000000
_cell_angle_gamma 120.000000
_cell_volume 2286.271073
_symmetry_space_group_name_H-M "P 65 2 2"
_symmetry_group_IT_number 179
_symmetry_cell_setting 'hexagonal'
loop_
_space_group_symop_operation_xyz
x,y,z
x-y,x,5/6+z
-y,x-y,2/3+z
-x,-y,1/2+z
-x+y,-x,1/3+z
y,-x+y,1/6+z
x-y,-y,-z
-x,-x+y,1/3-z
y,x,2/3-z
-y,-x,1/6-z
-x+y,y,1/2-z
x,x-y,5/6-z
loop_
_atom_site_type_symbol
_atom_site_label
_atom_site_fract_x
_atom_site_fract_y
_atom_site_fract_z
Si Si1 0.702605 0.652126 0.086855
Si Si2 0.868930 0.357679 0.687675
Si Si3 0.552649 0.000000 0.000000
Si Si4 0.311644 0.623287 0.750000
Si Si5 0.632533 0.783912 0.091009
O O1 0.678359 0.598322 0.247985
O O2 0.693115 0.738649 0.091273
O O3 0.627650 0.587848 0.964177
O O4 0.795700 0.667282 0.027501
O O5 0.928279 0.458454 0.733244
O O6 0.792238 0.351255 0.580020
O O7 0.832328 0.291213 0.833597
O O8 0.328830 0.671171 0.583334
O O9 0.621217 0.810609 0.916667
#
# Coordination Sequence:
#
# PCOD9583573 Si02
#       5
#    12  12   6   6  12
#     4  12  24  46  70 104 142 188 245 307 375 458
#     4  12  26  45  67 100 145 191 244 304 374 445
#     4  12  24  42  74  96 140 186 248 292 374 450
#     4  12  28  48  66  98 150 200 252 314 372 446
#     4  12  24  44  71 104 138 187 244 314 371 454
#
# _framework density 20.994883999999999
#
# number of rings (size 3 to 8) (size 9 to 14) (size 15 to 20)
#    0.000    0.000    7.500    2.250    0.000    3.000 
#    0.000    0.000    0.000    0.000    0.000   21.000 
#    0.000    0.000    0.000    0.000    0.000    0.000 
#
# Total GULP energy -268559.034187 kJ/mol
# GULP energy per Si atom -5594.979879 kJ/mol
# Density = 2.094710 g / cm^3
# Si number density = 20.994884 Si / 1000 Ang^3
#
#
#
# Elastic Constant Matrix: (Units=GPa)
#
#
# Indices 1 2 3 4 5 6 
#
# 1 128.6840 50.5657 46.8083 0.0000 0.0000 0.0000
# 2 50.5657 128.6840 46.8083 0.0000 0.0000 0.0000
# 3 46.8083 46.8083 119.8401 0.0000 0.0000 0.0000
# 4 0.0000 0.0000 0.0000 35.2185 0.0000 0.0000
# 5 0.0000 0.0000 0.0000 0.0000 35.2185 0.0000
# 6 0.0000 0.0000 0.0000 0.0000 0.0000 39.0591
#
#
#
# Elastic Compliance Matrix: (Units=1/GPa)
#
#
# Indices 1 2 3 4 5 6 
#
# 1 0.009905 -0.002896 -0.002737 0.000000 0.000000 0.000000
# 2 -0.002896 0.009905 -0.002737 0.000000 0.000000 0.000000
# 3 -0.002737 -0.002737 0.010483 0.000000 0.000000 0.000000
# 4 0.000000 0.000000 0.000000 0.028394 0.000000 0.000000
# 5 0.000000 0.000000 0.000000 0.000000 0.028394 0.000000
# 6 0.000000 0.000000 0.000000 0.000000 0.000000 0.025602
#
#
# Mechanical properties :
#
#
# Convention : Reuss Voigt Hill
#
# Bulk Modulus (GPa) = 73.80023 73.95253 73.87638
# Shear Modulus (GPa) = 37.32954 37.43426 37.38190
#
# Velocity S-wave (km/s) = 4.22124 4.22716 4.22420
# Velocity P-wave (km/s) = 7.68026 7.68933 7.68479
#
# Compressibility (1/GPa) = 0.01355009
#
# Stress axis : x y z
#
# Youngs Moduli (GPa) = 100.96116 100.96116 95.39358
#
# Poissons Ratio (x) = 0.29241 0.26113
# Poissons Ratio (y) = 0.29241 0.26113
# Poissons Ratio (z) = 0.27638 0.27638
#
# Static dielectric constant tensor:
#      x y z
#    x 1.772400 0.000000 0.000000 
#    y 0.000000 1.772400 0.000000 
#    z 0.000000 0.000000 1.831550 
# 
# From -- ./inp_files/2705.got.cif
#   From: 2010.05.17/outbox.cif.g08.bks.cpg/sg179_2_cif.got.tgz:2705.got - 2010.05.20 11:37:33.
