data_PCOD9583278
_publ_section_title
;
Structure prediction by ZEFSAII (Michael W. Deem and Ramdas Pophale) SiO2 
 PCOD9583278
Probable space group: P 65 2 2
;
_chemical_formula_sum "Si O2"
_cell_formula_units_Z 60
_cell_length_a 17.419807
_cell_length_b 17.419807
_cell_length_c 11.689950
_cell_angle_alpha 90.000000
_cell_angle_beta 90.000000
_cell_angle_gamma 120.000000
_cell_volume 3072.061908
_symmetry_space_group_name_H-M "P 65 2 2"
_symmetry_group_IT_number 179
_symmetry_cell_setting 'hexagonal'
loop_
_space_group_symop_operation_xyz
x,y,z
x-y,x,5/6+z
-y,x-y,2/3+z
-x,-y,1/2+z
-x+y,-x,1/3+z
y,-x+y,1/6+z
x-y,-y,-z
-x,-x+y,1/3-z
y,x,2/3-z
-y,-x,1/6-z
-x+y,y,1/2-z
x,x-y,5/6-z
loop_
_atom_site_type_symbol
_atom_site_label
_atom_site_fract_x
_atom_site_fract_y
_atom_site_fract_z
Si Si1 0.666162 0.862688 0.794948
Si Si2 0.248818 0.497636 0.750000
Si Si3 0.394340 0.942615 0.680878
Si Si4 0.140094 0.432306 0.975232
Si Si5 0.206620 0.561950 0.170518
Si Si6 0.836053 0.918027 0.916667
O O1 0.607112 0.905129 0.761525
O O2 0.652130 0.788835 0.703756
O O3 0.767099 0.928756 0.832670
O O4 0.627862 0.813931 0.916667
O O5 0.176547 0.442891 0.847401
O O6 0.343259 0.560365 0.810607
O O7 0.463378 0.926755 0.750000
O O8 0.380761 0.886709 0.565164
O O9 0.429016 0.046935 0.677397
O O10 0.208380 0.516677 0.051068
O O11 0.287014 0.574028 0.250000
O O12 0.890966 0.890966 0.833334
#
# Coordination Sequence:
#
# PCOD9583278 Si02
#       6
#    12   6  12  12  12   6
#     4  10  21  41  68  97 127 176 227 282 328 407
#     4  12  28  38  60  89 140 178 219 284 354 406
#     4  12  23  37  65  96 129 167 232 293 333 396
#     4  12  23  43  58  95 128 175 227 282 345 401
#     4  12  22  40  64  86 121 172 229 280 331 406
#     4  10  20  38  72 115 136 168 215 288 346 418
#
# _framework density 19.530857000000001
#
# number of rings (size 3 to 8) (size 9 to 14) (size 15 to 20)
#    0.600    0.000    4.000    6.000    1.400    0.000 
#    0.000    3.000    0.000    4.800    0.000    0.000 
#    0.000    0.000    0.000    0.000    0.000    0.000 
#
# Total GULP energy -334722.544237 kJ/mol
# GULP energy per Si atom -5578.709071 kJ/mol
# Density = 1.948640 g / cm^3
# Si number density = 19.530857 Si / 1000 Ang^3
#
#
#
# Elastic Constant Matrix: (Units=GPa)
#
#
# Indices 1 2 3 4 5 6 
#
# 1 94.7926 39.0162 47.7742 0.0000 0.0000 0.0000
# 2 39.0162 94.7926 47.7742 0.0000 0.0000 0.0000
# 3 47.7742 47.7742 115.3405 0.0000 0.0000 0.0000
# 4 0.0000 0.0000 0.0000 24.0023 0.0000 0.0000
# 5 0.0000 0.0000 0.0000 0.0000 24.0023 0.0000
# 6 0.0000 0.0000 0.0000 0.0000 0.0000 27.8882
#
#
#
# Elastic Compliance Matrix: (Units=1/GPa)
#
#
# Indices 1 2 3 4 5 6 
#
# 1 0.014270 -0.003658 -0.004396 0.000000 0.000000 0.000000
# 2 -0.003658 0.014270 -0.004396 0.000000 0.000000 0.000000
# 3 -0.004396 -0.004396 0.012311 0.000000 0.000000 0.000000
# 4 0.000000 0.000000 0.000000 0.041663 0.000000 0.000000
# 5 0.000000 0.000000 0.000000 0.000000 0.041663 0.000000
# 6 0.000000 0.000000 0.000000 0.000000 0.000000 0.035857
#
#
# Mechanical properties :
#
#
# Convention : Reuss Voigt Hill
#
# Bulk Modulus (GPa) = 62.68318 63.78387 63.23352
# Shear Modulus (GPa) = 26.28102 26.53597 26.40850
#
# Velocity S-wave (km/s) = 3.67224 3.69001 3.68114
# Velocity P-wave (km/s) = 7.08128 7.13329 7.10733
#
# Compressibility (1/GPa) = 0.01595324
#
# Stress axis : x y z
#
# Youngs Moduli (GPa) = 70.07522 70.07522 81.22665
#
# Poissons Ratio (x) = 0.25636 0.35703
# Poissons Ratio (y) = 0.25636 0.35703
# Poissons Ratio (z) = 0.30802 0.30802
#
# Static dielectric constant tensor:
#      x y z
#    x 1.724430 0.000000 0.000000 
#    y 0.000000 1.724430 0.000000 
#    z 0.000000 0.000000 1.698540 
# 
# From -- ./inp_files/4737.got.cif
#   From: 2010.05.17/outbox.cif.g08.bks.cpg/sg179_3_cif.got.tgz:4737.got - 2010.05.20 11:37:33.
