data_PCOD9583112
_publ_section_title
;
Structure prediction by ZEFSAII (Michael W. Deem and Ramdas Pophale) SiO2 
 PCOD9583112
Probable space group: P 65 2 2
;
_chemical_formula_sum "Si O2"
_cell_formula_units_Z 42
_cell_length_a 11.820047
_cell_length_b 11.820047
_cell_length_c 14.768461
_cell_angle_alpha 90.000000
_cell_angle_beta 90.000000
_cell_angle_gamma 120.000000
_cell_volume 1786.916582
_symmetry_space_group_name_H-M "P 65 2 2"
_symmetry_group_IT_number 179
_symmetry_cell_setting 'hexagonal'
loop_
_space_group_symop_operation_xyz
x,y,z
x-y,x,5/6+z
-y,x-y,2/3+z
-x,-y,1/2+z
-x+y,-x,1/3+z
y,-x+y,1/6+z
x-y,-y,-z
-x,-x+y,1/3-z
y,x,2/3-z
-y,-x,1/6-z
-x+y,y,1/2-z
x,x-y,5/6-z
loop_
_atom_site_type_symbol
_atom_site_label
_atom_site_fract_x
_atom_site_fract_y
_atom_site_fract_z
Si Si1 0.986363 0.671185 0.965782
Si Si2 0.747959 0.594668 0.847081
Si Si3 0.917473 0.082528 0.583334
Si Si4 0.479366 0.752294 0.190983
O O1 0.887833 0.686116 0.897037
O O2 0.114818 0.698862 0.911232
O O3 0.881673 0.530762 0.009637
O O4 0.027479 0.772147 0.047160
O O5 0.666116 0.666116 0.833334
O O6 0.781445 0.562889 0.750000
O O7 0.478679 0.679963 0.745373
O O8 0.000000 0.080629 0.666667
O O9 0.352579 0.705158 0.250000
#
# Coordination Sequence:
#
# PCOD9583112 Si02
#       4
#    12  12   6  12
#     4  10  21  38  66  96 136 181 225 284 364 428
#     4  10  17  34  63  97 132 168 223 290 353 422
#     4  12  22  38  60 100 140 178 218 286 370 440
#     4  10  21  40  66  95 138 179 231 288 345 433
#
# _framework density 23.504175
#
# number of rings (size 3 to 8) (size 9 to 14) (size 15 to 20)
#    1.714    0.000    5.714    0.000    0.000    1.143 
#    0.000    1.429    9.429    0.000    0.000    0.000 
#    0.000    0.000    0.000    0.000    0.000    0.000 
#
# Total GULP energy -234344.702254 kJ/mol
# GULP energy per Si atom -5579.635768 kJ/mol
# Density = 2.345068 g / cm^3
# Si number density = 23.504175 Si / 1000 Ang^3
#
#
#
# Elastic Constant Matrix: (Units=GPa)
#
#
# Indices 1 2 3 4 5 6 
#
# 1 73.1180 41.7136 55.5164 0.0000 0.0000 0.0000
# 2 41.7136 73.1180 55.5164 0.0000 0.0000 0.0000
# 3 55.5164 55.5164 203.4222 0.0000 0.0000 0.0000
# 4 0.0000 0.0000 0.0000 27.1621 0.0000 0.0000
# 5 0.0000 0.0000 0.0000 0.0000 27.1621 0.0000
# 6 0.0000 0.0000 0.0000 0.0000 0.0000 15.7022
#
#
#
# Elastic Compliance Matrix: (Units=1/GPa)
#
#
# Indices 1 2 3 4 5 6 
#
# 1 0.021836 -0.010006 -0.003229 0.000000 0.000000 0.000000
# 2 -0.010006 0.021836 -0.003229 0.000000 0.000000 0.000000
# 3 -0.003229 -0.003229 0.006678 0.000000 0.000000 0.000000
# 4 0.000000 0.000000 0.000000 0.036816 0.000000 0.000000
# 5 0.000000 0.000000 0.000000 0.000000 0.036816 0.000000
# 6 0.000000 0.000000 0.000000 0.000000 0.000000 0.063685
#
#
# Mechanical properties :
#
#
# Convention : Reuss Voigt Hill
#
# Bulk Modulus (GPa) = 57.39172 72.79455 65.09313
# Shear Modulus (GPa) = 22.08451 27.13275 24.60863
#
# Velocity S-wave (km/s) = 3.06861 3.40130 3.23923
# Velocity P-wave (km/s) = 6.08489 6.81640 6.46100
#
# Compressibility (1/GPa) = 0.01742412
#
# Stress axis : x y z
#
# Youngs Moduli (GPa) = 45.79511 45.79511 149.74241
#
# Poissons Ratio (x) = 0.45823 0.48346
# Poissons Ratio (y) = 0.45823 0.48346
# Poissons Ratio (z) = 0.14785 0.14785
#
# Static dielectric constant tensor:
#      x y z
#    x 1.922910 0.000000 0.000000 
#    y 0.000000 1.922910 0.000000 
#    z 0.000000 0.000000 1.895120 
# 
# From -- ./inp_files/5472.got.cif
#   From: 2010.05.17/outbox.cif.g08.bks.cpg/sg179_3_cif.got.tgz:5472.got - 2010.05.20 11:37:33.
