data_PCOD9583709
_publ_section_title
;
Structure prediction by ZEFSAII (Michael W. Deem and Ramdas Pophale) SiO2 
 PCOD9583709
Probable space group: P 62 2 2
;
_chemical_formula_sum "Si O2"
_cell_formula_units_Z 54
_cell_length_a 15.983835
_cell_length_b 15.983835
_cell_length_c 12.452555
_cell_angle_alpha 90.000000
_cell_angle_beta 90.000000
_cell_angle_gamma 120.000000
_cell_volume 2755.186969
_symmetry_space_group_name_H-M "P 62 2 2"
_symmetry_group_IT_number 180
_symmetry_cell_setting 'hexagonal'
loop_
_space_group_symop_operation_xyz
x,y,z
x-y,x,1/3+z
-y,x-y,2/3+z
-x,-y,z
-x+y,-x,1/3+z
y,-x+y,2/3+z
x-y,-y,-z
-x,-x+y,1/3-z
y,x,2/3-z
-y,-x,2/3-z
-x+y,y,-z
x,x-y,1/3-z
loop_
_atom_site_type_symbol
_atom_site_label
_atom_site_fract_x
_atom_site_fract_y
_atom_site_fract_z
Si Si1 0.002250 0.598806 0.980180
Si Si2 0.287294 0.088746 0.566395
Si Si3 0.426308 0.713154 0.666667
Si Si4 0.773256 0.498633 0.376429
Si Si5 0.437046 0.151178 0.852599
O O1 0.112316 0.683922 0.967716
O O2 0.000000 0.500000 0.016099
O O3 0.945927 0.575984 0.866366
O O4 0.945520 0.637755 0.055194
O O5 0.252868 0.126434 0.666667
O O6 0.341309 0.182510 0.492212
O O7 0.208027 0.000000 0.500000
O O8 0.357242 0.757749 0.656692
O O9 0.490270 0.765154 0.770410
O O10 0.741396 0.482792 0.500000
O O11 0.707780 0.528447 0.306804
#
# Coordination Sequence:
#
# PCOD9583709 Si02
#       5
#    12  12   6  12  12
#     4  11  21  37  57  84 113 161 211 252 308 365
#     4  10  19  35  59  90 120 155 206 265 311 363
#     4  12  22  38  54  81 110 160 214 261 300 346
#     4  12  25  38  55  81 120 161 205 250 311 367
#     4  11  21  38  60  83 115 153 211 261 303 366
#
# _framework density 19.599395999999999
#
# number of rings (size 3 to 8) (size 9 to 14) (size 15 to 20)
#    0.000    0.889    7.778    2.000    0.000    1.333 
#    0.000    1.111    0.000    0.000    0.000    0.000 
#    0.000   35.556    0.000    0.000    0.000    0.000 
#
# Total GULP energy -301397.938466 kJ/mol
# GULP energy per Si atom -5581.443305 kJ/mol
# Density = 1.955479 g / cm^3
# Si number density = 19.599396 Si / 1000 Ang^3
#
#
#
# Elastic Constant Matrix: (Units=GPa)
#
#
# Indices 1 2 3 4 5 6 
#
# 1 65.7865 18.5596 15.4213 0.0000 0.0000 0.0000
# 2 18.5596 65.7865 15.4213 0.0000 0.0000 0.0000
# 3 15.4213 15.4213 81.9397 0.0000 0.0000 0.0000
# 4 0.0000 0.0000 0.0000 21.7599 0.0000 0.0000
# 5 0.0000 0.0000 0.0000 0.0000 21.7599 0.0000
# 6 0.0000 0.0000 0.0000 0.0000 0.0000 23.6134
#
#
#
# Elastic Compliance Matrix: (Units=1/GPa)
#
#
# Indices 1 2 3 4 5 6 
#
# 1 0.016953 -0.004221 -0.002396 0.000000 0.000000 0.000000
# 2 -0.004221 0.016953 -0.002396 0.000000 0.000000 0.000000
# 3 -0.002396 -0.002396 0.013106 0.000000 0.000000 0.000000
# 4 0.000000 0.000000 0.000000 0.045956 0.000000 0.000000
# 5 0.000000 0.000000 0.000000 0.000000 0.045956 0.000000
# 6 0.000000 0.000000 0.000000 0.000000 0.000000 0.042349
#
#
# Mechanical properties :
#
#
# Convention : Reuss Voigt Hill
#
# Bulk Modulus (GPa) = 34.50013 34.70192 34.60102
# Shear Modulus (GPa) = 23.92776 24.36736 24.14756
#
# Velocity S-wave (km/s) = 3.49784 3.52983 3.51387
# Velocity P-wave (km/s) = 5.82701 5.86148 5.84427
#
# Compressibility (1/GPa) = 0.02898540
#
# Stress axis : x y z
#
# Youngs Moduli (GPa) = 58.98574 58.98574 76.30067
#
# Poissons Ratio (x) = 0.24899 0.18283
# Poissons Ratio (y) = 0.24899 0.18283
# Poissons Ratio (z) = 0.14134 0.14134
#
# Static dielectric constant tensor:
#      x y z
#    x 1.713180 0.000000 0.000000 
#    y 0.000000 1.713180 0.000000 
#    z 0.000000 0.000000 1.787190 
# 
# From -- ./inp_files/5951.got.cif
#   From: 2010.05.17/outbox.cif.g08.bks.cpg/sg180_3_cif.got.tgz:5951.got - 2010.05.20 11:43:55.
