data_PCOD9583371
_publ_section_title
;
Structure prediction by ZEFSAII (Michael W. Deem and Ramdas Pophale) SiO2 
 PCOD9583371
Probable space group: P 65 2 2
;
_chemical_formula_sum "Si O2"
_cell_formula_units_Z 48
_cell_length_a 17.070149
_cell_length_b 17.070149
_cell_length_c 7.854973
_cell_angle_alpha 90.000000
_cell_angle_beta 90.000000
_cell_angle_gamma 120.000000
_cell_volume 1982.211321
_symmetry_space_group_name_H-M "P 65 2 2"
_symmetry_group_IT_number 179
_symmetry_cell_setting 'hexagonal'
loop_
_space_group_symop_operation_xyz
x,y,z
x-y,x,5/6+z
-y,x-y,2/3+z
-x,-y,1/2+z
-x+y,-x,1/3+z
y,-x+y,1/6+z
x-y,-y,-z
-x,-x+y,1/3-z
y,x,2/3-z
-y,-x,1/6-z
-x+y,y,1/2-z
x,x-y,5/6-z
loop_
_atom_site_type_symbol
_atom_site_label
_atom_site_fract_x
_atom_site_fract_y
_atom_site_fract_z
Si Si1 0.660569 0.553188 0.804810
Si Si2 0.499794 0.398702 0.903243
Si Si3 0.393244 0.171143 0.135172
Si Si4 0.072537 0.894251 0.319268
O O1 0.606010 0.606010 0.833334
O O2 0.590351 0.446847 0.789058
O O3 0.715184 0.590474 0.632927
O O4 0.727426 0.569683 0.961920
O O5 0.436160 0.436160 0.833334
O O6 0.442160 0.292935 0.852717
O O7 0.548166 0.451835 0.083334
O O8 0.285388 0.126070 0.122027
O O9 0.001434 0.859286 0.475207
O O10 0.000000 0.863674 0.166667
#
# Coordination Sequence:
#
# PCOD9583371 Si02
#       4
#    12  12  12  12
#     4  10  22  41  66 101 140 182 242 313 385 457
#     4  11  23  40  67 100 140 190 249 321 394 460
#     4  11  22  40  70 100 138 191 250 314 379 476
#     4  10  22  40  62  97 142 191 249 318 383 458
#
# _framework density 24.215378999999999
#
# number of rings (size 3 to 8) (size 9 to 14) (size 15 to 20)
#    0.000    1.500    0.000    6.000    0.000    5.000 
#    0.000   21.250   16.500    0.000    0.000    0.000 
#    0.000    0.000    0.000    0.000    0.000    0.000 
#
# Total GULP energy -267818.594961 kJ/mol
# GULP energy per Si atom -5579.554062 kJ/mol
# Density = 2.416026 g / cm^3
# Si number density = 24.215379 Si / 1000 Ang^3
#
#
#
# Elastic Constant Matrix: (Units=GPa)
#
#
# Indices 1 2 3 4 5 6 
#
# 1 213.7159 64.3909 35.6436 0.0000 0.0000 0.0000
# 2 64.3909 213.7159 35.6436 0.0000 0.0000 0.0000
# 3 35.6436 35.6436 152.2428 0.0000 0.0000 0.0000
# 4 0.0000 0.0000 0.0000 -14.5946 0.0000 0.0000
# 5 0.0000 0.0000 0.0000 0.0000 -14.5946 0.0000
# 6 0.0000 0.0000 0.0000 0.0000 0.0000 74.6625
#
#
#
# Elastic Compliance Matrix: (Units=1/GPa)
#
#
# Indices 1 2 3 4 5 6 
#
# 1 0.005261 -0.001436 -0.000896 0.000000 0.000000 0.000000
# 2 -0.001436 0.005261 -0.000896 0.000000 0.000000 0.000000
# 3 -0.000896 -0.000896 0.006988 0.000000 0.000000 0.000000
# 4 0.000000 0.000000 0.000000 -0.068519 0.000000 0.000000
# 5 0.000000 0.000000 0.000000 0.000000 -0.068519 0.000000
# 6 0.000000 0.000000 0.000000 0.000000 0.000000 0.013394
#
#
# Mechanical properties :
#
#
# Convention : Reuss Voigt Hill
#
# Bulk Modulus (GPa) = 90.44819 94.55899 92.50359
# Shear Modulus (GPa) = -52.08631 38.69443 -6.69594
#
# Velocity S-wave (km/s) = -4.64288 4.00175 -1.66468
# Velocity P-wave (km/s) = 2.94803 7.77727 5.88119
#
# Compressibility (1/GPa) = 0.01105605
#
# Stress axis : x y z
#
# Youngs Moduli (GPa) = 190.07589 190.07589 143.10624
#
# Poissons Ratio (x) = 0.27290 0.12817
# Poissons Ratio (y) = 0.27290 0.12817
# Poissons Ratio (z) = 0.17023 0.17023
#
# Static dielectric constant tensor:
#      x y z
#    x 2.463750 0.000000 0.000000 
#    y 0.000000 2.463750 0.000000 
#    z 0.000000 0.000000 2.238310 
# 
# From -- ./inp_files/2640.got.cif
#   From: 2010.05.17/outbox.cif.g08.bks.cpg/sg179_2_cif.got.tgz:2640.got - 2010.05.20 11:37:33.
