data_PCOD9583989
_publ_section_title
;
Structure prediction by ZEFSAII (Michael W. Deem and Ramdas Pophale) SiO2 
 PCOD9583989
Probable space group: P 62 2 2
;
_chemical_formula_sum "Si O2"
_cell_formula_units_Z 84
_cell_length_a 19.680731
_cell_length_b 19.680731
_cell_length_c 11.896238
_cell_angle_alpha 90.000000
_cell_angle_beta 90.000000
_cell_angle_gamma 120.000000
_cell_volume 3990.457839
_symmetry_space_group_name_H-M "P 62 2 2"
_symmetry_group_IT_number 180
_symmetry_cell_setting 'hexagonal'
loop_
_space_group_symop_operation_xyz
x,y,z
x-y,x,1/3+z
-y,x-y,2/3+z
-x,-y,z
-x+y,-x,1/3+z
y,-x+y,2/3+z
x-y,-y,-z
-x,-x+y,1/3-z
y,x,2/3-z
-y,-x,2/3-z
-x+y,y,-z
x,x-y,1/3-z
loop_
_atom_site_type_symbol
_atom_site_label
_atom_site_fract_x
_atom_site_fract_y
_atom_site_fract_z
Si Si1 0.495392 0.764789 0.391236
Si Si2 0.756232 0.878116 0.166667
Si Si3 0.121807 0.602129 0.905019
Si Si4 0.827942 0.413971 0.666667
Si Si5 0.832750 0.322938 0.288959
Si Si6 0.670461 0.806711 0.937545
Si Si7 0.773897 0.743630 0.207216
Si Si8 0.997727 0.349275 0.348252
O O1 0.493536 0.806792 0.276628
O O2 0.443390 0.672463 0.382839
O O3 0.478384 0.806206 0.495767
O O4 0.584943 0.789620 0.413096
O O5 0.699894 0.859529 0.272115
O O6 0.803948 0.833187 0.174949
O O7 0.122486 0.590181 0.771527
O O8 0.044317 0.602433 0.950519
O O9 0.144865 0.543561 0.967511
O O10 0.757314 0.242686 0.333334
O O11 0.913889 0.321627 0.292202
O O12 0.725945 0.881124 0.862515
O O13 0.664935 0.722793 0.939243
O O14 0.739631 0.739631 0.333334
O O15 0.703236 0.686092 0.126159
#
# Coordination Sequence:
#
# PCOD9583989 Si02
#       8
#    12   6  12   6  12  12  12  12
#     4  11  25  41  66  89 128 176 230 284 335 414
#     4   8  16  30  54  90 130 165 204 256 318 389
#     4  11  26  42  66  97 132 178 229 291 357 415
#     4  12  26  42  67 102 134 172 230 294 358 416
#     4  12  24  45  64  91 133 180 233 281 354 416
#     4   9  19  35  58  93 122 175 215 264 331 390
#     4   9  17  31  59  90 134 172 214 264 331 400
#     4  10  23  40  63  94 131 174 226 285 337 415
#
# _framework density 21.050215999999999
#
# number of rings (size 3 to 8) (size 9 to 14) (size 15 to 20)
#    0.000    1.714    1.429    2.143    9.000    3.429 
#    0.000    3.571    0.000    0.000    0.000    0.000 
#    0.000   44.000   20.286    0.000   12.571    0.000 
#
# Total GULP energy -468550.656875 kJ/mol
# GULP energy per Si atom -5577.984010 kJ/mol
# Density = 2.100231 g / cm^3
# Si number density = 21.050216 Si / 1000 Ang^3
#
#
#
# Elastic Constant Matrix: (Units=GPa)
#
#
# Indices 1 2 3 4 5 6 
#
# 1 105.2449 82.0075 32.2027 0.0000 0.0000 0.0000
# 2 82.0075 105.2449 32.2027 0.0000 0.0000 0.0000
# 3 32.2027 32.2027 95.5362 0.0000 0.0000 0.0000
# 4 0.0000 0.0000 0.0000 -0.7313 0.0000 0.0000
# 5 0.0000 0.0000 0.0000 0.0000 -0.7313 0.0000
# 6 0.0000 0.0000 0.0000 0.0000 0.0000 11.6187
#
#
#
# Elastic Compliance Matrix: (Units=1/GPa)
#
#
# Indices 1 2 3 4 5 6 
#
# 1 0.024537 -0.018497 -0.002036 0.000000 0.000000 0.000000
# 2 -0.018497 0.024537 -0.002036 0.000000 0.000000 0.000000
# 3 -0.002036 -0.002036 0.011840 0.000000 0.000000 0.000000
# 4 0.000000 0.000000 0.000000 -1.367472 0.000000 0.000000
# 5 0.000000 0.000000 0.000000 0.000000 -1.367473 0.000000
# 6 0.000000 0.000000 0.000000 0.000000 0.000000 0.086068
#
#
# Mechanical properties :
#
#
# Convention : Reuss Voigt Hill
#
# Bulk Modulus (GPa) = 63.38465 66.53910 64.96187
# Shear Modulus (GPa) = -1.97039 12.67210 5.35085
#
# Velocity S-wave (km/s) = -0.96854 2.45622 1.59608
# Velocity P-wave (km/s) = 5.37827 6.30257 5.85867
#
# Compressibility (1/GPa) = 0.01577669
#
# Stress axis : x y z
#
# Youngs Moduli (GPa) = 40.75408 40.75408 84.46011
#
# Poissons Ratio (x) = 0.75382 0.17197
# Poissons Ratio (y) = 0.75382 0.17197
# Poissons Ratio (z) = 0.08298 0.08298
#
# Static dielectric constant tensor:
#      x y z
#    x 2.240420 0.000000 0.000000 
#    y 0.000000 2.240420 0.000000 
#    z 0.000000 0.000000 1.825120 
# 
# From -- ./inp_files/5088.got.cif
#   From: 2010.05.17/outbox.cif.g08.bks.cpg/sg180_3_cif.got.tgz:5088.got - 2010.05.20 11:43:55.
