data_PCOD9583136
_publ_section_title
;
Structure prediction by ZEFSAII (Michael W. Deem and Ramdas Pophale) SiO2 
 PCOD9583136
Probable space group: P 65 2 2
;
_chemical_formula_sum "Si O2"
_cell_formula_units_Z 66
_cell_length_a 11.922888
_cell_length_b 11.922888
_cell_length_c 29.311774
_cell_angle_alpha 90.000000
_cell_angle_beta 90.000000
_cell_angle_gamma 120.000000
_cell_volume 3608.574401
_symmetry_space_group_name_H-M "P 65 2 2"
_symmetry_group_IT_number 179
_symmetry_cell_setting 'hexagonal'
loop_
_space_group_symop_operation_xyz
x,y,z
x-y,x,5/6+z
-y,x-y,2/3+z
-x,-y,1/2+z
-x+y,-x,1/3+z
y,-x+y,1/6+z
x-y,-y,-z
-x,-x+y,1/3-z
y,x,2/3-z
-y,-x,1/6-z
-x+y,y,1/2-z
x,x-y,5/6-z
loop_
_atom_site_type_symbol
_atom_site_label
_atom_site_fract_x
_atom_site_fract_y
_atom_site_fract_z
Si Si1 0.772481 0.491212 0.948698
Si Si2 0.227329 0.682113 0.276250
Si Si3 0.140577 0.281153 0.250000
Si Si4 0.907432 0.933081 0.045432
Si Si5 0.590691 0.577956 0.704334
Si Si6 0.320979 0.348184 0.561541
O O1 0.740234 0.370117 0.916667
O O2 0.673099 0.544078 0.942818
O O3 0.916604 0.603249 0.932745
O O4 0.757666 0.451869 0.001980
O O5 0.322728 0.645456 0.250000
O O6 0.080402 0.564009 0.273411
O O7 0.267736 0.824578 0.257677
O O8 0.169860 0.179396 0.276129
O O9 0.258694 0.364547 0.216955
O O10 0.805140 0.783136 0.044502
O O11 0.018633 0.981368 0.083334
O O12 0.982483 0.000000 0.000000
O O13 0.587704 0.585629 0.649137
#
# Coordination Sequence:
#
# PCOD9583136 Si02
#       6
#    12  12   6  12  12  12
#     4  11  22  39  63  91 123 167 211 259 317 393
#     4  11  25  39  59  92 132 162 213 270 322 382
#     4  10  18  32  56  88 118 142 194 256 310 352
#     4  10  19  33  56  91 120 151 200 260 312 369
#     4  11  21  37  62  91 119 161 206 261 319 372
#     4  11  21  38  60  91 122 167 208 256 321 391
#
# _framework density 18.289771999999999
#
# number of rings (size 3 to 8) (size 9 to 14) (size 15 to 20)
#    0.545    0.727    6.364    0.545    5.091    0.000 
#    0.000    3.636    0.000    0.000    0.000    0.000 
#    0.000    0.000    0.000    0.000    0.000    0.000 
#
# Total GULP energy -367556.838705 kJ/mol
# GULP energy per Si atom -5569.043011 kJ/mol
# Density = 1.824814 g / cm^3
# Si number density = 18.289772 Si / 1000 Ang^3
#
#
#
# Elastic Constant Matrix: (Units=GPa)
#
#
# Indices 1 2 3 4 5 6 
#
# 1 97.9102 45.9483 20.8919 0.0000 0.0000 0.0000
# 2 45.9483 97.9102 20.8919 0.0000 0.0000 0.0000
# 3 20.8919 20.8919 65.8440 0.0000 0.0000 0.0000
# 4 0.0000 0.0000 0.0000 25.9702 0.0000 0.0000
# 5 0.0000 0.0000 0.0000 0.0000 25.9702 0.0000
# 6 0.0000 0.0000 0.0000 0.0000 0.0000 25.9809
#
#
#
# Elastic Compliance Matrix: (Units=1/GPa)
#
#
# Indices 1 2 3 4 5 6 
#
# 1 0.013451 -0.005794 -0.002429 0.000000 0.000000 0.000000
# 2 -0.005794 0.013451 -0.002429 0.000000 0.000000 0.000000
# 3 -0.002429 -0.002429 0.016729 0.000000 0.000000 0.000000
# 4 0.000000 0.000000 0.000000 0.038506 0.000000 0.000000
# 5 0.000000 0.000000 0.000000 0.000000 0.038506 0.000000
# 6 0.000000 0.000000 0.000000 0.000000 0.000000 0.038490
#
#
# Mechanical properties :
#
#
# Convention : Reuss Voigt Hill
#
# Bulk Modulus (GPa) = 44.79278 48.56981 46.68129
# Shear Modulus (GPa) = 26.61280 27.17977 26.89628
#
# Velocity S-wave (km/s) = 3.81867 3.85913 3.83895
# Velocity P-wave (km/s) = 6.63225 6.81693 6.72523
#
# Compressibility (1/GPa) = 0.02232503
#
# Stress axis : x y z
#
# Youngs Moduli (GPa) = 74.34446 74.34446 59.77593
#
# Poissons Ratio (x) = 0.43075 0.14523
# Poissons Ratio (y) = 0.43075 0.14523
# Poissons Ratio (z) = 0.18062 0.18062
#
# Static dielectric constant tensor:
#      x y z
#    x 1.641290 0.000000 0.000000 
#    y 0.000000 1.641290 0.000000 
#    z 0.000000 0.000000 1.587750 
# 
# From -- ./inp_files/9506.got.cif
#   From: 2010.05.17/outbox.cif.g08.bks.cpg/sg179_5_cif.got.tgz:9506.got - 2010.05.20 11:37:33.
