data_PCOD9583906
_publ_section_title
;
Structure prediction by ZEFSAII (Michael W. Deem and Ramdas Pophale) SiO2 
 PCOD9583906
Probable space group: P 62 2 2
;
_chemical_formula_sum "Si O2"
_cell_formula_units_Z 75
_cell_length_a 12.032573
_cell_length_b 12.032573
_cell_length_c 28.868408
_cell_angle_alpha 90.000000
_cell_angle_beta 90.000000
_cell_angle_gamma 120.000000
_cell_volume 3619.682488
_symmetry_space_group_name_H-M "P 62 2 2"
_symmetry_group_IT_number 180
_symmetry_cell_setting 'hexagonal'
loop_
_space_group_symop_operation_xyz
x,y,z
x-y,x,1/3+z
-y,x-y,2/3+z
-x,-y,z
-x+y,-x,1/3+z
y,-x+y,2/3+z
x-y,-y,-z
-x,-x+y,1/3-z
y,x,2/3-z
-y,-x,2/3-z
-x+y,y,-z
x,x-y,1/3-z
loop_
_atom_site_type_symbol
_atom_site_label
_atom_site_fract_x
_atom_site_fract_y
_atom_site_fract_z
Si Si1 0.140789 0.627404 0.950271
Si Si2 0.260635 0.598544 0.114413
Si Si3 0.682856 0.848392 0.536760
Si Si4 0.695098 0.810724 0.115261
Si Si5 0.219119 0.459146 0.709838
Si Si6 0.000000 0.500000 0.666667
Si Si7 0.110513 0.218279 0.233407
O O1 0.226951 0.592388 0.918071
O O2 0.165756 0.759246 0.925519
O O3 0.000000 0.500000 0.952773
O O4 0.192024 0.678620 0.001581
O O5 0.301120 0.650560 0.166667
O O6 0.153173 0.447899 0.118389
O O7 0.232518 0.698028 0.087871
O O8 0.694309 0.724961 0.548608
O O9 0.703539 0.858409 0.481678
O O10 0.807875 0.957846 0.563158
O O11 0.649740 0.824870 0.166667
O O12 0.814113 0.953378 0.104229
O O13 0.098420 0.477758 0.697995
O O14 0.154911 0.309549 0.722288
#
# Coordination Sequence:
#
# PCOD9583906 Si02
#       7
#    12  12  12  12  12   3  12
#     4  12  25  44  66  97 140 179 219 277 338 409
#     4  12  24  45  68  98 131 171 229 280 337 398
#     4  10  21  41  66  99 131 167 221 286 331 394
#     4  10  21  42  68  98 132 173 221 276 339 397
#     4  12  26  44  66  97 130 180 218 272 337 404
#     4  12  24  48  68  88 142 172 226 272 328 416
#     4  10  22  40  68  97 127 173 221 278 334 395
#
# _framework density 20.720051000000002
#
# number of rings (size 3 to 8) (size 9 to 14) (size 15 to 20)
#    0.000    0.960    4.800    1.920    2.240    1.920 
#    1.440    0.800    0.000    1.920    0.000    0.000 
#    0.000    0.000    0.000    0.000    0.000    0.000 
#
# Total GULP energy -417713.558140 kJ/mol
# GULP energy per Si atom -5569.514109 kJ/mol
# Density = 2.067289 g / cm^3
# Si number density = 20.720051 Si / 1000 Ang^3
#
#
#
# Elastic Constant Matrix: (Units=GPa)
#
#
# Indices 1 2 3 4 5 6 
#
# 1 82.8939 23.2935 26.6741 0.0000 0.0000 0.0000
# 2 23.2935 82.8939 26.6741 0.0000 0.0000 0.0000
# 3 26.6741 26.6741 107.6557 0.0000 0.0000 0.0000
# 4 0.0000 0.0000 0.0000 -89.9044 0.0000 0.0000
# 5 0.0000 0.0000 0.0000 0.0000 -89.9044 0.0000
# 6 0.0000 0.0000 0.0000 0.0000 0.0000 29.8002
#
#
#
# Elastic Compliance Matrix: (Units=1/GPa)
#
#
# Indices 1 2 3 4 5 6 
#
# 1 0.013767 -0.003011 -0.002665 0.000000 0.000000 0.000000
# 2 -0.003011 0.013767 -0.002665 0.000000 0.000000 0.000000
# 3 -0.002665 -0.002665 0.010610 0.000000 0.000000 0.000000
# 4 0.000000 0.000000 0.000000 -0.011123 0.000000 0.000000
# 5 0.000000 0.000000 0.000000 0.000000 -0.011123 0.000000
# 6 0.000000 0.000000 0.000000 0.000000 0.000000 0.033557
#
#
# Mechanical properties :
#
#
# Convention : Reuss Voigt Hill
#
# Bulk Modulus (GPa) = 46.59473 47.41408 47.00440
# Shear Modulus (GPa) = 68.22069 -16.88159 25.66955
#
# Velocity S-wave (km/s) = 5.74425 -2.85747 3.52358
# Velocity P-wave (km/s) = 8.15670 3.47073 6.26809
#
# Compressibility (1/GPa) = 0.02146166
#
# Stress axis : x y z
#
# Youngs Moduli (GPa) = 72.63576 72.63576 94.25476
#
# Poissons Ratio (x) = 0.21871 0.25120
# Poissons Ratio (y) = 0.21871 0.25120
# Poissons Ratio (z) = 0.19358 0.19358
#
# Static dielectric constant tensor:
#      x y z
#    x 1.959960 0.000000 0.000000 
#    y 0.000000 1.959960 0.000000 
#    z 0.000000 0.000000 1.750100 
# 
# From -- ./inp_files/12383.got.cif
#   From: 2010.05.17/outbox.cif.g08.bks.cpg/sg180_7_cif.got.tgz:12383.got - 2010.05.20 11:43:55.
