data_PCOD9583714
_publ_section_title
;
Structure prediction by ZEFSAII (Michael W. Deem and Ramdas Pophale) SiO2 
 PCOD9583714
Probable space group: P 62 2 2
;
_chemical_formula_sum "Si O2"
_cell_formula_units_Z 81
_cell_length_a 20.200367
_cell_length_b 20.200367
_cell_length_c 11.948176
_cell_angle_alpha 90.000000
_cell_angle_beta 90.000000
_cell_angle_gamma 120.000000
_cell_volume 4222.316287
_symmetry_space_group_name_H-M "P 62 2 2"
_symmetry_group_IT_number 180
_symmetry_cell_setting 'hexagonal'
loop_
_space_group_symop_operation_xyz
x,y,z
x-y,x,1/3+z
-y,x-y,2/3+z
-x,-y,z
-x+y,-x,1/3+z
y,-x+y,2/3+z
x-y,-y,-z
-x,-x+y,1/3-z
y,x,2/3-z
-y,-x,2/3-z
-x+y,y,-z
x,x-y,1/3-z
loop_
_atom_site_type_symbol
_atom_site_label
_atom_site_fract_x
_atom_site_fract_y
_atom_site_fract_z
Si Si1 0.888117 0.375378 0.485005
Si Si2 0.500000 0.000000 0.000000
Si Si3 0.580258 0.581004 0.961940
Si Si4 0.449146 0.185164 0.011680
Si Si5 0.651850 0.151908 0.763097
Si Si6 0.924879 0.849758 0.500000
Si Si7 0.185969 0.100196 0.796284
Si Si8 0.185175 0.912146 0.009754
O O1 0.949235 0.431783 0.578884
O O2 0.834177 0.300657 0.555889
O O3 0.845748 0.419497 0.437799
O O4 0.932377 0.366174 0.379309
O O5 0.500000 0.500000 0.958852
O O6 0.604157 0.604157 0.833334
O O7 0.558395 0.636949 0.025369
O O8 0.496602 0.274653 0.040236
O O9 0.472860 0.146063 0.109152
O O10 0.358238 0.148781 0.024833
O O11 0.885359 0.900541 0.514045
O O12 0.909411 0.792385 0.602665
O O13 0.161267 0.161267 0.833334
O O14 0.202768 0.101384 0.666667
O O15 0.255559 0.105385 0.866962
O O16 0.254562 0.000000 0.000000
#
# Coordination Sequence:
#
# PCOD9583714 Si02
#       8
#    12   3  12  12  12   6  12  12
#     4  11  19  35  63  94 120 154 207 258 297 359
#     4  12  16  32  62 100 116 136 216 260 276 336
#     4   9  18  35  60  88 117 152 200 246 293 345
#     4  11  22  36  60  89 126 154 196 250 321 374
#     4  10  20  36  60  90 121 153 194 259 299 365
#     4  10  19  36  54  84 108 154 204 258 308 356
#     4  11  21  37  59  79 113 157 211 258 300 358
#     4  10  23  36  54  83 120 154 194 249 316 377
#
# _framework density 19.183782999999998
#
# number of rings (size 3 to 8) (size 9 to 14) (size 15 to 20)
#    0.000    1.630    5.185    1.111    3.111    0.593 
#    0.000    2.963    0.000   21.333    0.000    0.000 
#    0.000    0.000    0.000    0.000    0.000    0.000 
#
# Total GULP energy -451879.730953 kJ/mol
# GULP energy per Si atom -5578.762111 kJ/mol
# Density = 1.914012 g / cm^3
# Si number density = 19.183783 Si / 1000 Ang^3
#
#
#
# Elastic Constant Matrix: (Units=GPa)
#
#
# Indices 1 2 3 4 5 6 
#
# 1 39.5403 19.7778 25.8909 0.0000 0.0000 0.0000
# 2 19.7778 39.5403 25.8909 0.0000 0.0000 0.0000
# 3 25.8909 25.8909 147.6708 0.0000 0.0000 0.0000
# 4 0.0000 0.0000 0.0000 11.9209 0.0000 0.0000
# 5 0.0000 0.0000 0.0000 0.0000 11.9209 0.0000
# 6 0.0000 0.0000 0.0000 0.0000 0.0000 9.8813
#
#
#
# Elastic Compliance Matrix: (Units=1/GPa)
#
#
# Indices 1 2 3 4 5 6 
#
# 1 0.035253 -0.015348 -0.003490 0.000000 0.000000 0.000000
# 2 -0.015348 0.035253 -0.003490 0.000000 0.000000 0.000000
# 3 -0.003490 -0.003490 0.007996 0.000000 0.000000 0.000000
# 4 0.000000 0.000000 0.000000 0.083886 0.000000 0.000000
# 5 0.000000 0.000000 0.000000 0.000000 0.083886 0.000000
# 6 0.000000 0.000000 0.000000 0.000000 0.000000 0.101201
#
#
# Mechanical properties :
#
#
# Convention : Reuss Voigt Hill
#
# Bulk Modulus (GPa) = 29.54597 41.09675 35.32136
# Shear Modulus (GPa) = 12.39428 17.09075 14.74251
#
# Velocity S-wave (km/s) = 2.54457 2.98803 2.77517
# Velocity P-wave (km/s) = 4.90592 5.77699 5.35918
#
# Compressibility (1/GPa) = 0.03384557
#
# Stress axis : x y z
#
# Youngs Moduli (GPa) = 28.36659 28.36659 125.06928
#
# Poissons Ratio (x) = 0.43537 0.43648
# Poissons Ratio (y) = 0.43537 0.43648
# Poissons Ratio (z) = 0.09900 0.09900
#
# Static dielectric constant tensor:
#      x y z
#    x 1.668770 0.000000 0.000000 
#    y 0.000000 1.668770 0.000000 
#    z 0.000000 0.000000 1.731280 
# 
# From -- ./inp_files/5075.got.cif
#   From: 2010.05.17/outbox.cif.g08.bks.cpg/sg180_3_cif.got.tgz:5075.got - 2010.05.20 11:43:55.
