data_PCOD9583549
_publ_section_title
;
Structure prediction by ZEFSAII (Michael W. Deem and Ramdas Pophale) SiO2 
 PCOD9583549
Probable space group: P 65 2 2
;
_chemical_formula_sum "Si O2"
_cell_formula_units_Z 36
_cell_length_a 10.793782
_cell_length_b 10.793782
_cell_length_c 14.583028
_cell_angle_alpha 90.000000
_cell_angle_beta 90.000000
_cell_angle_gamma 120.000000
_cell_volume 1471.382635
_symmetry_space_group_name_H-M "P 65 2 2"
_symmetry_group_IT_number 179
_symmetry_cell_setting 'hexagonal'
loop_
_space_group_symop_operation_xyz
x,y,z
x-y,x,5/6+z
-y,x-y,2/3+z
-x,-y,1/2+z
-x+y,-x,1/3+z
y,-x+y,1/6+z
x-y,-y,-z
-x,-x+y,1/3-z
y,x,2/3-z
-y,-x,1/6-z
-x+y,y,1/2-z
x,x-y,5/6-z
loop_
_atom_site_type_symbol
_atom_site_label
_atom_site_fract_x
_atom_site_fract_y
_atom_site_fract_z
Si Si1 0.085943 0.171886 0.750000
Si Si2 0.612659 0.994376 0.336643
Si Si3 0.799281 0.799281 0.833334
Si Si4 0.839330 0.547710 0.525211
O O1 0.076335 0.076335 0.833334
O O2 0.250242 0.269292 0.726513
O O3 0.676503 0.166104 0.329793
O O4 0.457061 0.890345 0.379892
O O5 0.608832 0.929643 0.235984
O O6 0.815275 0.907638 0.916667
O O7 0.659997 0.768864 0.774241
#
# Coordination Sequence:
#
# PCOD9583549 Si02
#       4
#     6  12   6  12
#     4  12  26  48  76 108 152 206 276 334 408 498
#     4  11  25  49  75 114 160 216 279 347 426 524
#     4  12  26  50  80 118 170 220 294 368 446 536
#     4  11  25  48  75 116 163 214 280 351 438 519
#
# _framework density 24.466785000000002
#
# number of rings (size 3 to 8) (size 9 to 14) (size 15 to 20)
#    0.000    0.667    6.667    0.000    2.333    2.667 
#   18.000    0.000    0.000    0.000    0.000    0.000 
#    0.000    0.000    0.000    0.000    0.000    0.000 
#
# Total GULP energy -201027.554671 kJ/mol
# GULP energy per Si atom -5584.098741 kJ/mol
# Density = 2.441110 g / cm^3
# Si number density = 24.466785 Si / 1000 Ang^3
#
#
#
# Elastic Constant Matrix: (Units=GPa)
#
#
# Indices 1 2 3 4 5 6 
#
# 1 110.9063 69.7479 33.2367 0.0000 0.0000 0.0000
# 2 69.7479 110.9063 33.2367 0.0000 0.0000 0.0000
# 3 33.2367 33.2367 146.5947 0.0000 0.0000 0.0000
# 4 0.0000 0.0000 0.0000 52.1469 0.0000 0.0000
# 5 0.0000 0.0000 0.0000 0.0000 52.1469 0.0000
# 6 0.0000 0.0000 0.0000 0.0000 0.0000 20.5792
#
#
#
# Elastic Compliance Matrix: (Units=1/GPa)
#
#
# Indices 1 2 3 4 5 6 
#
# 1 0.015168 -0.009129 -0.001369 0.000000 0.000000 0.000000
# 2 -0.009129 0.015168 -0.001369 0.000000 0.000000 0.000000
# 3 -0.001369 -0.001369 0.007442 0.000000 0.000000 0.000000
# 4 0.000000 0.000000 0.000000 0.019177 0.000000 0.000000
# 5 0.000000 0.000000 0.000000 0.000000 0.019177 0.000000
# 6 0.000000 0.000000 0.000000 0.000000 0.000000 0.048593
#
#
# Mechanical properties :
#
#
# Convention : Reuss Voigt Hill
#
# Bulk Modulus (GPa) = 71.20509 71.20553 71.20531
# Shear Modulus (GPa) = 32.65003 40.45370 36.55187
#
# Velocity S-wave (km/s) = 3.65699 4.07063 3.86934
# Velocity P-wave (km/s) = 6.85547 7.15957 7.00917
#
# Compressibility (1/GPa) = 0.01404394
#
# Stress axis : x y z
#
# Youngs Moduli (GPa) = 65.92915 65.92915 134.36496
#
# Poissons Ratio (x) = 0.60184 0.18398
# Poissons Ratio (y) = 0.60184 0.18398
# Poissons Ratio (z) = 0.09027 0.09027
#
# Static dielectric constant tensor:
#      x y z
#    x 2.075110 0.000000 0.000000 
#    y 0.000000 2.075110 0.000000 
#    z 0.000000 0.000000 1.929460 
# 
# From -- ./inp_files/5310.got.cif
#   From: 2010.05.17/outbox.cif.g08.bks.cpg/sg179_3_cif.got.tgz:5310.got - 2010.05.20 11:37:33.
