data_PCOD9583915
_publ_section_title
;
Structure prediction by ZEFSAII (Michael W. Deem and Ramdas Pophale) SiO2 
 PCOD9583915
Probable space group: P 62 2 2
;
_chemical_formula_sum "Si O2"
_cell_formula_units_Z 42
_cell_length_a 18.808154
_cell_length_b 18.808154
_cell_length_c 6.236002
_cell_angle_alpha 90.000000
_cell_angle_beta 90.000000
_cell_angle_gamma 120.000000
_cell_volume 1910.421608
_symmetry_space_group_name_H-M "P 62 2 2"
_symmetry_group_IT_number 180
_symmetry_cell_setting 'hexagonal'
loop_
_space_group_symop_operation_xyz
x,y,z
x-y,x,1/3+z
-y,x-y,2/3+z
-x,-y,z
-x+y,-x,1/3+z
y,-x+y,2/3+z
x-y,-y,-z
-x,-x+y,1/3-z
y,x,2/3-z
-y,-x,2/3-z
-x+y,y,-z
x,x-y,1/3-z
loop_
_atom_site_type_symbol
_atom_site_label
_atom_site_fract_x
_atom_site_fract_y
_atom_site_fract_z
Si Si1 0.123426 0.876575 0.333334
Si Si2 0.882423 0.882423 0.333334
Si Si3 0.856032 0.294224 0.941863
Si Si4 0.264764 0.735237 0.333334
Si Si5 0.405224 0.810448 0.000000
Si Si6 0.000000 0.697808 0.166667
O O1 0.073800 0.782676 0.260615
O O2 0.069181 0.875316 0.534747
O O3 0.952601 0.905202 0.500000
O O4 0.795563 0.204438 0.833334
O O5 0.855131 0.362426 0.786864
O O6 0.810538 0.287534 0.169272
O O7 0.949774 0.320039 0.988003
O O8 0.341641 0.758001 0.184025
#
# Coordination Sequence:
#
# PCOD9583915 Si02
#       6
#     6   6  12   6   6   6
#     4  12  27  43  73  99 142 192 248 305 363 436
#     4  12  24  45  64 100 136 185 248 310 364 425
#     4  10  24  44  71 107 146 189 241 300 363 437
#     4  10  21  43  72 111 149 187 241 286 358 430
#     4  10  22  43  74 110 147 188 234 299 357 433
#     4  12  26  50  70 100 144 192 240 298 368 440
#
# _framework density 21.984673999999998
#
# number of rings (size 3 to 8) (size 9 to 14) (size 15 to 20)
#    0.000    1.143    2.857    1.714    4.000   14.286 
#    0.000    4.286    0.000    3.429    0.000    0.000 
#    0.000    0.000    0.000    0.000    0.000    0.000 
#
# Total GULP energy -234733.861306 kJ/mol
# GULP energy per Si atom -5588.901460 kJ/mol
# Density = 2.193464 g / cm^3
# Si number density = 21.984674 Si / 1000 Ang^3
#
#
#
# Elastic Constant Matrix: (Units=GPa)
#
#
# Indices 1 2 3 4 5 6 
#
# 1 138.0261 65.1856 55.5051 0.0000 0.0000 0.0000
# 2 65.1856 138.0261 55.5051 0.0000 0.0000 0.0000
# 3 55.5051 55.5051 137.4625 0.0000 0.0000 0.0000
# 4 0.0000 0.0000 0.0000 25.7233 0.0000 0.0000
# 5 0.0000 0.0000 0.0000 0.0000 25.7233 0.0000
# 6 0.0000 0.0000 0.0000 0.0000 0.0000 36.4202
#
#
#
# Elastic Compliance Matrix: (Units=1/GPa)
#
#
# Indices 1 2 3 4 5 6 
#
# 1 0.010021 -0.003708 -0.002549 0.000000 0.000000 0.000000
# 2 -0.003708 0.010021 -0.002549 0.000000 0.000000 0.000000
# 3 -0.002549 -0.002549 0.009333 0.000000 0.000000 0.000000
# 4 0.000000 0.000000 0.000000 0.038875 0.000000 0.000000
# 5 0.000000 0.000000 0.000000 0.000000 0.038875 0.000000
# 6 0.000000 0.000000 0.000000 0.000000 0.000000 0.027457
#
#
# Mechanical properties :
#
#
# Convention : Reuss Voigt Hill
#
# Bulk Modulus (GPa) = 85.00965 85.10070 85.05517
# Shear Modulus (GPa) = 32.02727 33.39463 32.71095
#
# Velocity S-wave (km/s) = 3.82095 3.90166 3.86151
# Velocity P-wave (km/s) = 7.63006 7.68703 7.65860
#
# Compressibility (1/GPa) = 0.01176337
#
# Stress axis : x y z
#
# Youngs Moduli (GPa) = 99.78916 99.78916 107.14126
#
# Poissons Ratio (x) = 0.36997 0.27314
# Poissons Ratio (y) = 0.36997 0.27314
# Poissons Ratio (z) = 0.25440 0.25440
#
# Static dielectric constant tensor:
#      x y z
#    x 1.843400 0.000000 0.000000 
#    y 0.000000 1.843400 0.000000 
#    z 0.000000 0.000000 2.346110 
# 
# From -- ./inp_files/906.got.cif
#   From: 2010.05.17/outbox.cif.g08.bks.cpg/sg180_1_cif.got.tgz:906.got - 2010.05.20 11:43:55.
