data_PCOD9583510
_publ_section_title
;
Structure prediction by ZEFSAII (Michael W. Deem and Ramdas Pophale) SiO2 
 PCOD9583510
Probable space group: P 65 2 2
;
_chemical_formula_sum "Si O2"
_cell_formula_units_Z 72
_cell_length_a 14.058845
_cell_length_b 14.058845
_cell_length_c 18.825262
_cell_angle_alpha 90.000000
_cell_angle_beta 90.000000
_cell_angle_gamma 120.000000
_cell_volume 3222.336915
_symmetry_space_group_name_H-M "P 65 2 2"
_symmetry_group_IT_number 179
_symmetry_cell_setting 'hexagonal'
loop_
_space_group_symop_operation_xyz
x,y,z
x-y,x,5/6+z
-y,x-y,2/3+z
-x,-y,1/2+z
-x+y,-x,1/3+z
y,-x+y,1/6+z
x-y,-y,-z
-x,-x+y,1/3-z
y,x,2/3-z
-y,-x,1/6-z
-x+y,y,1/2-z
x,x-y,5/6-z
loop_
_atom_site_type_symbol
_atom_site_label
_atom_site_fract_x
_atom_site_fract_y
_atom_site_fract_z
Si Si1 0.463720 0.893703 0.961146
Si Si2 0.793129 0.666266 0.830887
Si Si3 0.280691 0.519932 0.672537
Si Si4 0.915601 0.211674 0.852131
Si Si5 0.148825 0.272031 0.863806
Si Si6 0.466891 0.467152 0.658724
O O1 0.549506 0.869604 0.000802
O O2 0.346644 0.783427 0.957046
O O3 0.504952 0.944277 0.883874
O O4 0.467702 0.000000 0.000000
O O5 0.759900 0.759900 0.833334
O O6 0.835162 0.670323 0.750000
O O7 0.862256 0.679318 0.902782
O O8 0.283619 0.567238 0.750000
O O9 0.195237 0.389669 0.672736
O O10 0.398627 0.531600 0.659590
O O11 0.850253 0.150607 0.781295
O O12 0.020945 0.195552 0.848325
O O13 0.958938 0.338846 0.833040
O O14 0.217594 0.217594 0.833334
O O15 0.519406 0.480595 0.583334
#
# Coordination Sequence:
#
# PCOD9583510 Si02
#       6
#    12  12  12  12  12  12
#     4  11  22  42  67  94 133 177 222 273 342 407
#     4  11  25  46  69  90 130 185 229 273 337 418
#     4  11  21  38  65  97 132 171 214 282 338 402
#     4  11  23  41  66  97 132 175 228 281 349 415
#     4  11  21  39  67 101 136 171 219 284 354 408
#     4  11  23  40  65  95 133 172 227 281 341 411
#
# _framework density 22.344031000000001
#
# number of rings (size 3 to 8) (size 9 to 14) (size 15 to 20)
#    0.000    1.000    3.333    5.000    0.000    4.667 
#    0.000    7.500    0.000    0.000    0.000    0.000 
#    0.000    0.000    0.000    0.000    0.000    0.000 
#
# Total GULP energy -401622.680468 kJ/mol
# GULP energy per Si atom -5578.092784 kJ/mol
# Density = 2.229317 g / cm^3
# Si number density = 22.344031 Si / 1000 Ang^3
#
#
#
# Elastic Constant Matrix: (Units=GPa)
#
#
# Indices 1 2 3 4 5 6 
#
# 1 39.6771 16.4760 3.3422 0.0000 0.0000 0.0000
# 2 16.4760 39.6771 3.3422 0.0000 0.0000 0.0000
# 3 3.3422 3.3422 126.7406 0.0000 0.0000 0.0000
# 4 0.0000 0.0000 0.0000 24.2160 0.0000 0.0000
# 5 0.0000 0.0000 0.0000 0.0000 24.2160 0.0000
# 6 0.0000 0.0000 0.0000 0.0000 0.0000 11.6006
#
#
#
# Elastic Compliance Matrix: (Units=1/GPa)
#
#
# Indices 1 2 3 4 5 6 
#
# 1 0.030483 -0.012618 -0.000471 0.000000 0.000000 0.000000
# 2 -0.012618 0.030483 -0.000471 0.000000 0.000000 0.000000
# 3 -0.000471 -0.000471 0.007915 0.000000 0.000000 0.000000
# 4 0.000000 0.000000 0.000000 0.041295 0.000000 0.000000
# 5 0.000000 0.000000 0.000000 0.000000 0.041295 0.000000
# 6 0.000000 0.000000 0.000000 0.000000 0.000000 0.086203
#
#
# Mechanical properties :
#
#
# Convention : Reuss Voigt Hill
#
# Bulk Modulus (GPa) = 23.94655 28.04617 25.99636
# Shear Modulus (GPa) = 17.93949 24.20214 21.07081
#
# Velocity S-wave (km/s) = 2.83658 3.29471 3.07419
# Velocity P-wave (km/s) = 4.63344 5.20122 4.92552
#
# Compressibility (1/GPa) = 0.04175966
#
# Stress axis : x y z
#
# Youngs Moduli (GPa) = 32.80523 32.80523 126.34278
#
# Poissons Ratio (x) = 0.41395 0.05952
# Poissons Ratio (y) = 0.41395 0.05952
# Poissons Ratio (z) = 0.01545 0.01545
#
# Static dielectric constant tensor:
#      x y z
#    x 1.851250 0.000000 0.000000 
#    y 0.000000 1.851250 0.000000 
#    z 0.000000 0.000000 1.846710 
# 
# From -- ./inp_files/6833.got.cif
#   From: 2010.05.17/outbox.cif.g08.bks.cpg/sg179_4_cif.got.tgz:6833.got - 2010.05.20 11:37:33.
