data_PCOD9583526
_publ_section_title
;
Structure prediction by ZEFSAII (Michael W. Deem and Ramdas Pophale) SiO2 
 PCOD9583526
Probable space group: P 65 2 2
;
_chemical_formula_sum "Si O2"
_cell_formula_units_Z 36
_cell_length_a 12.473984
_cell_length_b 12.473984
_cell_length_c 11.977888
_cell_angle_alpha 90.000000
_cell_angle_beta 90.000000
_cell_angle_gamma 120.000000
_cell_volume 1614.065835
_symmetry_space_group_name_H-M "P 65 2 2"
_symmetry_group_IT_number 179
_symmetry_cell_setting 'hexagonal'
loop_
_space_group_symop_operation_xyz
x,y,z
x-y,x,5/6+z
-y,x-y,2/3+z
-x,-y,1/2+z
-x+y,-x,1/3+z
y,-x+y,1/6+z
x-y,-y,-z
-x,-x+y,1/3-z
y,x,2/3-z
-y,-x,1/6-z
-x+y,y,1/2-z
x,x-y,5/6-z
loop_
_atom_site_type_symbol
_atom_site_label
_atom_site_fract_x
_atom_site_fract_y
_atom_site_fract_z
Si Si1 0.399449 0.699725 0.916667
Si Si2 0.759396 0.573027 0.129131
Si Si3 0.102272 0.204543 0.250000
Si Si4 0.910913 0.303650 0.925123
O O1 0.304157 0.566351 0.865561
O O2 0.486403 0.806926 0.827495
O O3 0.815683 0.631366 0.250000
O O4 0.639903 0.590086 0.109311
O O5 0.846969 0.622169 0.019722
O O6 0.120849 0.120849 0.333334
O O7 0.226113 0.289346 0.182920
#
# Coordination Sequence:
#
# PCOD9583526 Si02
#       4
#     6  12   6  12
#     4  11  28  46  74 112 142 209 252 324 404 459
#     4  12  25  47  73 110 155 195 259 320 395 476
#     4  11  22  48  74 110 150 203 254 320 396 473
#     4  11  25  48  74 108 153 196 258 322 390 475
#
# _framework density 22.303923999999999
#
# number of rings (size 3 to 8) (size 9 to 14) (size 15 to 20)
#    0.000    0.667    3.333    4.000    4.667    0.000 
#    9.000    0.000    0.000    0.000    0.000    0.000 
#    0.000    0.000    0.000    0.000    0.000    0.000 
#
# Total GULP energy -200608.285305 kJ/mol
# GULP energy per Si atom -5572.452370 kJ/mol
# Density = 2.225316 g / cm^3
# Si number density = 22.303924 Si / 1000 Ang^3
#
#
#
# Elastic Constant Matrix: (Units=GPa)
#
#
# Indices 1 2 3 4 5 6 
#
# 1 79.5051 117.7371 61.9491 0.0000 0.0000 0.0000
# 2 117.7371 79.5051 61.9491 0.0000 0.0000 0.0000
# 3 61.9491 61.9491 188.2543 0.0000 0.0000 0.0000
# 4 0.0000 0.0000 0.0000 22.9687 0.0000 0.0000
# 5 0.0000 0.0000 0.0000 0.0000 22.9687 0.0000
# 6 0.0000 0.0000 0.0000 0.0000 0.0000 -19.1160
#
#
#
# Elastic Compliance Matrix: (Units=1/GPa)
#
#
# Indices 1 2 3 4 5 6 
#
# 1 -0.009883 0.016274 -0.002103 0.000000 0.000000 0.000000
# 2 0.016274 -0.009883 -0.002103 0.000000 0.000000 0.000000
# 3 -0.002103 -0.002103 0.006696 0.000000 0.000000 0.000000
# 4 0.000000 0.000000 0.000000 0.043537 0.000000 0.000000
# 5 0.000000 0.000000 0.000000 0.000000 0.043537 0.000000
# 6 0.000000 0.000000 0.000000 0.000000 0.000000 -0.052312
#
#
# Mechanical properties :
#
#
# Convention : Reuss Voigt Hill
#
# Bulk Modulus (GPa) = 90.36943 92.28169 91.32556
# Shear Modulus (GPa) = 4007.33157 12.40622 2009.86889
#
# Velocity S-wave (km/s) = 42.43341 2.36102 30.05136
# Velocity P-wave (km/s) = 49.41050 6.99264 35.28664
#
# Compressibility (1/GPa) = 0.01106569
#
# Stress axis : x y z
#
# Youngs Moduli (GPa) = -101.18860 -101.18860 149.34075
#
# Poissons Ratio (x) = 1.64669 0.31408
# Poissons Ratio (y) = 1.64669 0.31408
# Poissons Ratio (z) = -0.21281 -0.21281
#
# Static dielectric constant tensor:
#      x y z
#    x 1.854820 0.000000 0.000000 
#    y 0.000000 1.854820 0.000000 
#    z 0.000000 0.000000 1.806010 
# 
# From -- ./inp_files/5309.got.cif
#   From: 2010.05.17/outbox.cif.g08.bks.cpg/sg179_3_cif.got.tgz:5309.got - 2010.05.20 11:37:33.
