data_PCOD9583056
_publ_section_title
;
Structure prediction by ZEFSAII (Michael W. Deem and Ramdas Pophale) SiO2 
 PCOD9583056
Probable space group: P 61 2 2
;
_chemical_formula_sum "Si O2"
_cell_formula_units_Z 54
_cell_length_a 22.670120
_cell_length_b 22.670120
_cell_length_c 5.428507
_cell_angle_alpha 90.000000
_cell_angle_beta 90.000000
_cell_angle_gamma 120.000000
_cell_volume 2416.120954
_symmetry_space_group_name_H-M "P 61 2 2"
_symmetry_group_IT_number 178
_symmetry_cell_setting 'hexagonal'
loop_
_space_group_symop_operation_xyz
x,y,z
x-y,x,1/6+z
-y,x-y,1/3+z
-x,-y,1/2+z
-x+y,-x,2/3+z
y,-x+y,5/6+z
x-y,-y,-z
-x,-x+y,2/3-z
y,x,1/3-z
-y,-x,5/6-z
-x+y,y,1/2-z
x,x-y,1/6-z
loop_
_atom_site_type_symbol
_atom_site_label
_atom_site_fract_x
_atom_site_fract_y
_atom_site_fract_z
Si Si1 0.477404 0.954808 0.250000
Si Si2 0.715999 0.858000 0.083334
Si Si3 0.850161 0.925081 0.583334
Si Si4 0.183423 0.816578 0.916667
Si Si5 0.398094 0.601907 0.416667
Si Si6 0.187065 0.187065 0.666667
Si Si7 0.671448 0.149695 0.573972
Si Si8 0.279182 0.720819 0.416667
O O1 0.394391 0.906769 0.225960
O O2 0.497152 0.000000 0.500000
O O3 0.673886 0.823815 0.332100
O O4 0.752809 0.812645 0.012903
O O5 0.897954 0.897954 0.666667
O O6 0.818998 0.873622 0.349316
O O7 0.144880 0.735738 0.852625
O O8 0.474770 0.634874 0.504381
O O9 0.352247 0.603531 0.632517
O O10 0.709141 0.220737 0.724077
#
# Coordination Sequence:
#
# PCOD9583056 Si02
#       8
#     6   6   6   6   6   6  12   6
#     4  12  29  52  80 110 161 209 268 332 388 474
#     4  12  29  51  81 109 161 210 262 332 375 473
#     4  12  23  39  74 120 161 191 229 324 402 480
#     4  12  29  52  79 107 160 209 267 325 391 463
#     4  12  23  41  73 116 160 193 237 328 416 488
#     4  12  26  48  78 118 158 200 270 316 408 462
#     4  12  26  47  78 112 153 204 262 330 402 470
#     4  12  23  41  73 116 161 190 241 323 422 484
#
# _framework density 22.349872999999999
#
# number of rings (size 3 to 8) (size 9 to 14) (size 15 to 20)
#    0.000    0.000    6.667    2.000    1.556    4.444 
#    6.000    0.000    0.000    0.000    0.000    0.000 
#    0.000    0.000    0.000    0.000    0.000    0.000 
#
# Total GULP energy -300726.927571 kJ/mol
# GULP energy per Si atom -5569.017177 kJ/mol
# Density = 2.229900 g / cm^3
# Si number density = 22.349873 Si / 1000 Ang^3
#
#
#
# Elastic Constant Matrix: (Units=GPa)
#
#
# Indices 1 2 3 4 5 6 
#
# 1 88.0066 68.4633 32.2745 0.0000 0.0000 0.0000
# 2 68.4633 88.0066 32.2745 0.0000 0.0000 0.0000
# 3 32.2745 32.2745 102.6406 0.0000 0.0000 0.0000
# 4 0.0000 0.0000 0.0000 48.0132 0.0000 0.0000
# 5 0.0000 0.0000 0.0000 0.0000 48.0132 0.0000
# 6 0.0000 0.0000 0.0000 0.0000 0.0000 9.7717
#
#
#
# Elastic Compliance Matrix: (Units=1/GPa)
#
#
# Indices 1 2 3 4 5 6 
#
# 1 0.029256 -0.021912 -0.002309 0.000000 0.000000 0.000000
# 2 -0.021912 0.029256 -0.002309 0.000000 0.000000 0.000000
# 3 -0.002309 -0.002309 0.011195 0.000000 0.000000 0.000000
# 4 0.000000 0.000000 0.000000 0.020828 0.000000 0.000000
# 5 0.000000 0.000000 0.000000 0.000000 0.020828 0.000000
# 6 0.000000 0.000000 0.000000 0.000000 0.000000 0.102337
#
#
# Mechanical properties :
#
#
# Convention : Reuss Voigt Hill
#
# Bulk Modulus (GPa) = 60.07604 60.51983 60.29794
# Shear Modulus (GPa) = 18.36150 30.86903 24.61527
#
# Velocity S-wave (km/s) = 2.86938 3.72044 3.32228
# Velocity P-wave (km/s) = 6.15759 6.75224 6.46176
#
# Compressibility (1/GPa) = 0.01664557
#
# Stress axis : x y z
#
# Youngs Moduli (GPa) = 34.18101 34.18101 89.32633
#
# Poissons Ratio (x) = 0.74899 0.20627
# Poissons Ratio (y) = 0.74899 0.20627
# Poissons Ratio (z) = 0.07893 0.07893
#
# Static dielectric constant tensor:
#      x y z
#    x 2.081460 0.000000 0.000000 
#    y 0.000000 2.081460 0.000000 
#    z 0.000000 0.000000 2.017780 
# 
# From -- ./inp_files/1307.got.cif
#   From: 2010.05.17/outbox.cif.g08.bks.cpg/sg178_1_cif.got.tgz:1307.got - 2010.05.20 11:30:59.
