data_PCOD9583521
_publ_section_title
;
Structure prediction by ZEFSAII (Michael W. Deem and Ramdas Pophale) SiO2 
 PCOD9583521
Probable space group: P 65 2 2
;
_chemical_formula_sum "Si O2"
_cell_formula_units_Z 60
_cell_length_a 11.432755
_cell_length_b 11.432755
_cell_length_c 27.015746
_cell_angle_alpha 90.000000
_cell_angle_beta 90.000000
_cell_angle_gamma 120.000000
_cell_volume 3058.083854
_symmetry_space_group_name_H-M "P 65 2 2"
_symmetry_group_IT_number 179
_symmetry_cell_setting 'hexagonal'
loop_
_space_group_symop_operation_xyz
x,y,z
x-y,x,5/6+z
-y,x-y,2/3+z
-x,-y,1/2+z
-x+y,-x,1/3+z
y,-x+y,1/6+z
x-y,-y,-z
-x,-x+y,1/3-z
y,x,2/3-z
-y,-x,1/6-z
-x+y,y,1/2-z
x,x-y,5/6-z
loop_
_atom_site_type_symbol
_atom_site_label
_atom_site_fract_x
_atom_site_fract_y
_atom_site_fract_z
Si Si1 0.751639 0.782256 0.751420
Si Si2 0.231545 0.162650 0.136784
Si Si3 0.527489 0.051017 0.054682
Si Si4 0.520898 0.717459 0.561076
Si Si5 0.924078 0.269264 0.542998
O O1 0.724732 0.798971 0.693796
O O2 0.636642 0.634427 0.770412
O O3 0.890829 0.781658 0.750000
O O4 0.782752 0.915035 0.784305
O O5 0.356884 0.217402 0.099691
O O6 0.186848 0.004362 0.132936
O O7 0.566525 0.207372 0.054854
O O8 0.417542 0.999090 0.098704
O O9 0.466084 0.000000 0.000000
O O10 0.427776 0.572225 0.583334
O O11 0.584080 0.719795 0.508559
O O12 0.813065 0.186936 0.583334
#
# Coordination Sequence:
#
# PCOD9583521 Si02
#       5
#    12  12  12  12  12
#     4  12  24  42  63  96 135 171 219 273 341 402
#     4  11  24  42  67  96 132 173 220 279 333 397
#     4  11  23  40  66  97 131 175 217 274 333 407
#     4  11  23  43  68  94 133 176 222 277 337 401
#     4  11  22  42  69  96 130 171 229 276 328 404
#
# _framework density 19.620128999999999
#
# number of rings (size 3 to 8) (size 9 to 14) (size 15 to 20)
#    0.000    0.800    4.000    4.200    0.000    0.000 
#    0.000    1.000    0.000    0.000    0.000    0.000 
#    0.000    0.000    0.000    0.000    0.000    0.000 
#
# Total GULP energy -334150.140624 kJ/mol
# GULP energy per Si atom -5569.169010 kJ/mol
# Density = 1.957547 g / cm^3
# Si number density = 19.620129 Si / 1000 Ang^3
#
#
#
# Elastic Constant Matrix: (Units=GPa)
#
#
# Indices 1 2 3 4 5 6 
#
# 1 90.7525 28.4405 28.3425 0.0000 0.0000 0.0000
# 2 28.4405 90.7525 28.3425 0.0000 0.0000 0.0000
# 3 28.3425 28.3425 156.9575 0.0000 0.0000 0.0000
# 4 0.0000 0.0000 0.0000 32.3441 0.0000 0.0000
# 5 0.0000 0.0000 0.0000 0.0000 32.3441 0.0000
# 6 0.0000 0.0000 0.0000 0.0000 0.0000 31.1560
#
#
#
# Elastic Compliance Matrix: (Units=1/GPa)
#
#
# Indices 1 2 3 4 5 6 
#
# 1 0.012613 -0.003435 -0.001657 0.000000 0.000000 0.000000
# 2 -0.003435 0.012613 -0.001657 0.000000 0.000000 0.000000
# 3 -0.001657 -0.001657 0.006970 0.000000 0.000000 0.000000
# 4 0.000000 0.000000 0.000000 0.030918 0.000000 0.000000
# 5 0.000000 0.000000 0.000000 0.000000 0.030918 0.000000
# 6 0.000000 0.000000 0.000000 0.000000 0.000000 0.032097
#
#
# Mechanical properties :
#
#
# Convention : Reuss Voigt Hill
#
# Bulk Modulus (GPa) = 53.48643 56.52374 55.00508
# Shear Modulus (GPa) = 34.27961 36.05794 35.16877
#
# Velocity S-wave (km/s) = 4.18445 4.29161 4.23837
# Velocity P-wave (km/s) = 7.11803 7.30950 7.21440
#
# Compressibility (1/GPa) = 0.01869633
#
# Stress axis : x y z
#
# Youngs Moduli (GPa) = 79.28261 79.28261 143.47851
#
# Poissons Ratio (x) = 0.27235 0.23779
# Poissons Ratio (y) = 0.27235 0.23779
# Poissons Ratio (z) = 0.13140 0.13140
#
# Static dielectric constant tensor:
#      x y z
#    x 1.727450 0.000000 0.000000 
#    y 0.000000 1.727450 0.000000 
#    z 0.000000 0.000000 1.665540 
# 
# From -- ./inp_files/8857.got.cif
#   From: 2010.05.17/outbox.cif.g08.bks.cpg/sg179_5_cif.got.tgz:8857.got - 2010.05.20 11:37:33.
