data_PCOD9583643
_publ_section_title
;
Structure prediction by ZEFSAII (Michael W. Deem and Ramdas Pophale) SiO2 
 PCOD9583643
Probable space group: P 62 2 2
;
_chemical_formula_sum "Si O2"
_cell_formula_units_Z 48
_cell_length_a 26.227015
_cell_length_b 26.227015
_cell_length_c 5.190277
_cell_angle_alpha 90.000000
_cell_angle_beta 90.000000
_cell_angle_gamma 120.000000
_cell_volume 3091.853426
_symmetry_space_group_name_H-M "P 62 2 2"
_symmetry_group_IT_number 180
_symmetry_cell_setting 'hexagonal'
loop_
_space_group_symop_operation_xyz
x,y,z
x-y,x,1/3+z
-y,x-y,2/3+z
-x,-y,z
-x+y,-x,1/3+z
y,-x+y,2/3+z
x-y,-y,-z
-x,-x+y,1/3-z
y,x,2/3-z
-y,-x,2/3-z
-x+y,y,-z
x,x-y,1/3-z
loop_
_atom_site_type_symbol
_atom_site_label
_atom_site_fract_x
_atom_site_fract_y
_atom_site_fract_z
Si Si1 0.071272 0.477504 0.156708
Si Si2 0.587177 0.658325 0.325700
Si Si3 0.135162 0.932806 0.087907
Si Si4 0.337623 0.203142 0.423645
O O1 0.093257 0.546629 0.166667
O O2 0.087819 0.449266 0.393762
O O3 0.000000 0.444653 0.166667
O O4 0.086893 0.458730 0.890157
O O5 0.630571 0.630571 0.333334
O O6 0.624088 0.727729 0.372570
O O7 0.090824 0.909177 0.333334
O O8 0.184925 0.915201 0.148177
O O9 0.102475 0.897526 0.833334
O O10 0.163505 0.000000 0.000000
O O11 0.357369 0.178685 0.666667
O O12 0.338461 0.169231 0.166667
#
# Coordination Sequence:
#
# PCOD9583643 Si02
#       4
#    12  12  12  12
#     4   9  17  28  43  65  91 120 153 184 213 249
#     4  10  18  29  46  65  90 125 158 186 220 266
#     4  10  20  34  52  71  92 118 152 195 240 291
#     4  10  20  32  46  67  94 124 157 192 231 274
#
# _framework density 15.524668999999999
#
# number of rings (size 3 to 8) (size 9 to 14) (size 15 to 20)
#    0.000    2.250    0.000    3.750    0.000    3.000 
#    0.000    7.500    0.000    3.750    0.000    0.000 
#    0.000    0.000    0.000   94.500    0.000    0.000 
#
# Total GULP energy -267506.510120 kJ/mol
# GULP energy per Si atom -5573.052294 kJ/mol
# Density = 1.548933 g / cm^3
# Si number density = 15.524669 Si / 1000 Ang^3
#
#
#
# Elastic Constant Matrix: (Units=GPa)
#
#
# Indices 1 2 3 4 5 6 
#
# 1 54.2431 80.6610 33.2817 0.0000 0.0000 0.0000
# 2 80.6610 54.2431 33.2817 0.0000 0.0000 0.0000
# 3 33.2817 33.2817 113.3749 0.0000 0.0000 0.0000
# 4 0.0000 0.0000 0.0000 13.3641 0.0000 0.0000
# 5 0.0000 0.0000 0.0000 0.0000 13.3641 0.0000
# 6 0.0000 0.0000 0.0000 0.0000 0.0000 -13.2090
#
#
#
# Elastic Compliance Matrix: (Units=1/GPa)
#
#
# Indices 1 2 3 4 5 6 
#
# 1 -0.014592 0.023261 -0.002545 0.000000 0.000000 0.000000
# 2 0.023261 -0.014592 -0.002545 0.000000 0.000000 0.000000
# 3 -0.002545 -0.002545 0.010314 0.000000 0.000000 0.000000
# 4 0.000000 0.000000 0.000000 0.074827 0.000000 0.000000
# 5 0.000000 0.000000 0.000000 0.000000 0.074827 0.000000
# 6 0.000000 0.000000 0.000000 0.000000 0.000000 -0.075706
#
#
# Mechanical properties :
#
#
# Convention : Reuss Voigt Hill
#
# Bulk Modulus (GPa) = 57.23342 57.36773 57.30058
# Shear Modulus (GPa) = 203.59566 7.67964 105.63765
#
# Velocity S-wave (km/s) = 11.46421 2.22654 8.25789
# Velocity P-wave (km/s) = 14.56652 6.60627 11.30987
#
# Compressibility (1/GPa) = 0.01747231
#
# Stress axis : x y z
#
# Youngs Moduli (GPa) = -68.52857 -68.52857 96.95328
#
# Poissons Ratio (x) = 1.59402 0.24671
# Poissons Ratio (y) = 1.59402 0.24671
# Poissons Ratio (z) = -0.17438 -0.17438
#
# Static dielectric constant tensor:
#      x y z
#    x 1.523480 0.000000 0.000000 
#    y 0.000000 1.523480 0.000000 
#    z 0.000000 0.000000 1.521210 
# 
# From -- ./inp_files/1091.got.cif
#   From: 2010.05.17/outbox.cif.g08.bks.cpg/sg180_1_cif.got.tgz:1091.got - 2010.05.20 11:43:55.
