data_PCOD9583652
_publ_section_title
;
Structure prediction by ZEFSAII (Michael W. Deem and Ramdas Pophale) SiO2 
 PCOD9583652
Probable space group: P 62 2 2
;
_chemical_formula_sum "Si O2"
_cell_formula_units_Z 96
_cell_length_a 18.020247
_cell_length_b 18.020247
_cell_length_c 20.625201
_cell_angle_alpha 90.000000
_cell_angle_beta 90.000000
_cell_angle_gamma 120.000000
_cell_volume 5800.297913
_symmetry_space_group_name_H-M "P 62 2 2"
_symmetry_group_IT_number 180
_symmetry_cell_setting 'hexagonal'
loop_
_space_group_symop_operation_xyz
x,y,z
x-y,x,1/3+z
-y,x-y,2/3+z
-x,-y,z
-x+y,-x,1/3+z
y,-x+y,2/3+z
x-y,-y,-z
-x,-x+y,1/3-z
y,x,2/3-z
-y,-x,2/3-z
-x+y,y,-z
x,x-y,1/3-z
loop_
_atom_site_type_symbol
_atom_site_label
_atom_site_fract_x
_atom_site_fract_y
_atom_site_fract_z
Si Si1 0.200596 0.187291 0.651543
Si Si2 0.281240 0.692899 0.447838
Si Si3 0.573338 0.179213 0.668480
Si Si4 0.241257 0.833729 0.481857
Si Si5 0.920864 0.147507 0.116217
Si Si6 0.377140 0.079698 0.652438
Si Si7 0.970432 0.068174 0.758721
Si Si8 0.059203 0.602075 0.088853
O O1 0.191988 0.095994 0.666667
O O2 0.196962 0.231532 0.717645
O O3 0.299115 0.248644 0.631047
O O4 0.117245 0.164571 0.609605
O O5 0.341429 0.682857 0.500000
O O6 0.221688 0.609688 0.404271
O O7 0.339468 0.756991 0.390173
O O8 0.233739 0.740371 0.480326
O O9 0.471613 0.124205 0.682119
O O10 0.608655 0.124443 0.633580
O O11 0.176760 0.856936 0.520026
O O12 0.239861 0.858852 0.406590
O O13 0.335219 0.893195 0.516824
O O14 0.000000 0.174052 0.166667
O O15 0.884727 0.049578 0.093137
O O16 0.368541 0.000608 0.611568
O O17 0.950345 0.049656 0.833334
O O18 0.000000 0.000000 0.736421
O O19 0.000000 0.500000 0.101761
#
# Coordination Sequence:
#
# PCOD9583652 Si02
#       8
#    12  12  12  12  12  12  12  12
#     4  12  22  31  48  68  99 137 174 223 271 308
#     4  10  19  32  49  74 108 138 167 209 259 319
#     4   9  20  31  48  76 105 138 172 203 253 328
#     4  11  20  31  47  77 106 139 169 208 266 322
#     4  12  20  33  47  70  97 134 181 225 255 312
#     4  10  21  30  48  76 106 136 171 210 266 325
#     4  11  22  36  48  62  89 136 193 229 263 302
#     4  10  18  32  49  72 105 142 168 197 246 329
#
# _framework density 16.550874
#
# number of rings (size 3 to 8) (size 9 to 14) (size 15 to 20)
#    0.000    1.375    6.250    0.750    3.500    2.500 
#    0.000    0.000    0.000    0.750    0.000    0.000 
#    0.000    0.000    0.000    0.000    0.000    0.000 
#
# Total GULP energy -534510.121142 kJ/mol
# GULP energy per Si atom -5567.813762 kJ/mol
# Density = 1.651320 g / cm^3
# Si number density = 16.550874 Si / 1000 Ang^3
#
#
#
# Elastic Constant Matrix: (Units=GPa)
#
#
# Indices 1 2 3 4 5 6 
#
# 1 65.4096 20.1150 27.4466 0.0000 0.0000 0.0000
# 2 20.1150 65.4096 27.4466 0.0000 0.0000 0.0000
# 3 27.4466 27.4466 72.9418 0.0000 0.0000 0.0000
# 4 0.0000 0.0000 0.0000 22.4110 0.0000 0.0000
# 5 0.0000 0.0000 0.0000 0.0000 22.4110 0.0000
# 6 0.0000 0.0000 0.0000 0.0000 0.0000 22.6473
#
#
#
# Elastic Compliance Matrix: (Units=1/GPa)
#
#
# Indices 1 2 3 4 5 6 
#
# 1 0.018747 -0.003331 -0.005801 0.000000 0.000000 0.000000
# 2 -0.003331 0.018747 -0.005801 0.000000 0.000000 0.000000
# 3 -0.005801 -0.005801 0.018075 0.000000 0.000000 0.000000
# 4 0.000000 0.000000 0.000000 0.044621 0.000000 0.000000
# 5 0.000000 0.000000 0.000000 0.000000 0.044621 0.000000
# 6 0.000000 0.000000 0.000000 0.000000 0.000000 0.044155
#
#
# Mechanical properties :
#
#
# Convention : Reuss Voigt Hill
#
# Bulk Modulus (GPa) = 38.90490 39.30857 39.10674
# Shear Modulus (GPa) = 21.98791 22.07738 22.03265
#
# Velocity S-wave (km/s) = 3.64882 3.65624 3.65253
# Velocity P-wave (km/s) = 6.42722 6.45181 6.43952
#
# Compressibility (1/GPa) = 0.02570371
#
# Stress axis : x y z
#
# Youngs Moduli (GPa) = 53.34289 53.34289 55.32553
#
# Poissons Ratio (x) = 0.17769 0.32092
# Poissons Ratio (y) = 0.17769 0.32092
# Poissons Ratio (z) = 0.30942 0.30942
#
# Static dielectric constant tensor:
#      x y z
#    x 1.680870 0.000000 0.000000 
#    y 0.000000 1.680870 0.000000 
#    z 0.000000 0.000000 1.592440 
# 
# From -- ./inp_files/9296.got.cif
#   From: 2010.05.17/outbox.cif.g08.bks.cpg/sg180_5_cif.got.tgz:9296.got - 2010.05.20 11:43:55.
