data_PCOD9583554
_publ_section_title
;
Structure prediction by ZEFSAII (Michael W. Deem and Ramdas Pophale) SiO2 
 PCOD9583554
Probable space group: P 65 2 2
;
_chemical_formula_sum "Si O2"
_cell_formula_units_Z 30
_cell_length_a 17.516721
_cell_length_b 17.516721
_cell_length_c 4.896322
_cell_angle_alpha 90.000000
_cell_angle_beta 90.000000
_cell_angle_gamma 120.000000
_cell_volume 1301.086672
_symmetry_space_group_name_H-M "P 65 2 2"
_symmetry_group_IT_number 179
_symmetry_cell_setting 'hexagonal'
loop_
_space_group_symop_operation_xyz
x,y,z
x-y,x,5/6+z
-y,x-y,2/3+z
-x,-y,1/2+z
-x+y,-x,1/3+z
y,-x+y,1/6+z
x-y,-y,-z
-x,-x+y,1/3-z
y,x,2/3-z
-y,-x,1/6-z
-x+y,y,1/2-z
x,x-y,5/6-z
loop_
_atom_site_type_symbol
_atom_site_label
_atom_site_fract_x
_atom_site_fract_y
_atom_site_fract_z
Si Si1 0.530556 0.469445 0.083334
Si Si2 0.495868 0.163544 0.361910
Si Si3 0.933990 0.230236 0.925948
O O1 0.523073 0.523073 0.333334
O O2 0.485107 0.369863 0.183092
O O3 0.579731 0.159462 0.250000
O O4 0.526238 0.263119 0.416667
O O5 0.401878 0.121569 0.208606
O O6 0.000000 0.241450 0.666667
O O7 0.863725 0.136276 0.083334
O O8 0.000000 0.282739 0.166667
#
# Coordination Sequence:
#
# PCOD9583554 Si02
#       3
#     6  12  12
#     4  12  26  46  72 102 138 206 272 330 400 464
#     4  11  28  45  71 107 155 212 273 338 393 457
#     4  11  26  47  76 111 150 198 259 324 403 480
#
# _framework density 23.057649000000001
#
# number of rings (size 3 to 8) (size 9 to 14) (size 15 to 20)
#    0.000    0.800    2.000    2.400   14.000    0.000 
#    0.000    0.000    0.000    2.400    0.000    0.000 
#    0.000    0.000    0.000    0.000    0.000    0.000 
#
# Total GULP energy -167020.267331 kJ/mol
# GULP energy per Si atom -5567.342244 kJ/mol
# Density = 2.300517 g / cm^3
# Si number density = 23.057649 Si / 1000 Ang^3
#
#
#
# Elastic Constant Matrix: (Units=GPa)
#
#
# Indices 1 2 3 4 5 6 
#
# 1 139.2404 52.5533 41.7427 0.0000 0.0000 0.0000
# 2 52.5533 139.2404 41.7427 0.0000 0.0000 0.0000
# 3 41.7427 41.7427 135.9545 0.0000 0.0000 0.0000
# 4 0.0000 0.0000 0.0000 37.5610 0.0000 0.0000
# 5 0.0000 0.0000 0.0000 0.0000 37.5610 0.0000
# 6 0.0000 0.0000 0.0000 0.0000 0.0000 43.3436
#
#
#
# Elastic Compliance Matrix: (Units=1/GPa)
#
#
# Indices 1 2 3 4 5 6 
#
# 1 0.008777 -0.002759 -0.001848 0.000000 0.000000 0.000000
# 2 -0.002759 0.008777 -0.001848 0.000000 0.000000 0.000000
# 3 -0.001848 -0.001848 0.008490 0.000000 0.000000 0.000000
# 4 0.000000 0.000000 0.000000 0.026623 0.000000 0.000000
# 5 0.000000 0.000000 0.000000 0.000000 0.026623 0.000000
# 6 0.000000 0.000000 0.000000 0.000000 0.000000 0.023071
#
#
# Mechanical properties :
#
#
# Convention : Reuss Voigt Hill
#
# Bulk Modulus (GPa) = 76.13038 76.27919 76.20479
# Shear Modulus (GPa) = 41.78874 42.25289 42.02082
#
# Velocity S-wave (km/s) = 4.26180 4.28540 4.27362
# Velocity P-wave (km/s) = 7.57009 7.59210 7.58111
#
# Compressibility (1/GPa) = 0.01313536
#
# Stress axis : x y z
#
# Youngs Moduli (GPa) = 113.93409 113.93409 117.78443
#
# Poissons Ratio (x) = 0.31431 0.21764
# Poissons Ratio (y) = 0.31431 0.21764
# Poissons Ratio (z) = 0.21053 0.21053
#
# Static dielectric constant tensor:
#      x y z
#    x 1.881770 0.000000 0.000000 
#    y 0.000000 1.881770 0.000000 
#    z 0.000000 0.000000 2.137950 
# 
# From -- ./inp_files/374.got.cif
#   From: 2010.05.17/outbox.cif.g08.bks.cpg/sg179_1_cif.got.tgz:374.got - 2010.05.20 11:37:33.
