data_PCOD9583340
_publ_section_title
;
Structure prediction by ZEFSAII (Michael W. Deem and Ramdas Pophale) SiO2 
 PCOD9583340
Probable space group: P 65 2 2
;
_chemical_formula_sum "Si O2"
_cell_formula_units_Z 72
_cell_length_a 14.984745
_cell_length_b 14.984745
_cell_length_c 17.300607
_cell_angle_alpha 90.000000
_cell_angle_beta 90.000000
_cell_angle_gamma 120.000000
_cell_volume 3364.268786
_symmetry_space_group_name_H-M "P 65 2 2"
_symmetry_group_IT_number 179
_symmetry_cell_setting 'hexagonal'
loop_
_space_group_symop_operation_xyz
x,y,z
x-y,x,5/6+z
-y,x-y,2/3+z
-x,-y,1/2+z
-x+y,-x,1/3+z
y,-x+y,1/6+z
x-y,-y,-z
-x,-x+y,1/3-z
y,x,2/3-z
-y,-x,1/6-z
-x+y,y,1/2-z
x,x-y,5/6-z
loop_
_atom_site_type_symbol
_atom_site_label
_atom_site_fract_x
_atom_site_fract_y
_atom_site_fract_z
Si Si1 0.026719 0.406095 0.752397
Si Si2 0.361830 0.135929 0.190668
Si Si3 0.048684 0.097368 0.250000
Si Si4 0.472479 0.749320 0.029030
Si Si5 0.994696 0.246976 0.334784
Si Si6 0.538346 0.269173 0.916667
Si Si7 0.377024 0.461413 0.242327
O O1 0.148748 0.464788 0.771063
O O2 0.000000 0.356474 0.666667
O O3 0.955090 0.320813 0.813433
O O4 0.983494 0.485087 0.751625
O O5 0.471981 0.225462 0.223423
O O6 0.288841 0.079379 0.264565
O O7 0.310300 0.186717 0.138853
O O8 0.040569 0.040569 0.333334
O O9 0.008175 0.173586 0.275111
O O10 0.358791 0.735764 0.027550
O O11 0.541724 0.858296 0.986439
O O12 0.477334 0.659411 0.981930
O O13 0.015882 0.349211 0.291399
#
# Coordination Sequence:
#
# PCOD9583340 Si02
#       7
#    12  12   6  12  12   6  12
#     4  12  27  45  66  96 141 192 247 284 349 450
#     4  11  25  43  67 100 141 182 240 297 358 431
#     4  12  24  44  73 112 144 179 246 312 380 454
#     4  10  21  42  70 104 135 173 227 299 371 439
#     4  11  23  41  72 102 138 180 228 304 369 418
#     4  12  24  42  69  94 132 189 228 282 356 440
#     4  10  22  41  71 106 137 175 226 300 371 436
#
# _framework density 21.401382000000002
#
# number of rings (size 3 to 8) (size 9 to 14) (size 15 to 20)
#    0.000    1.000    3.333    4.000    2.333    2.000 
#    0.000    6.667    0.000    0.000    0.000    0.000 
#    0.000    0.000    0.000    0.000    0.000    0.000 
#
# Total GULP energy -401712.306520 kJ/mol
# GULP energy per Si atom -5579.337591 kJ/mol
# Density = 2.135267 g / cm^3
# Si number density = 21.401382 Si / 1000 Ang^3
#
#
#
# Elastic Constant Matrix: (Units=GPa)
#
#
# Indices 1 2 3 4 5 6 
#
# 1 123.4657 65.7002 26.1331 0.0000 0.0000 0.0000
# 2 65.7002 123.4657 26.1331 0.0000 0.0000 0.0000
# 3 26.1331 26.1331 58.5208 0.0000 0.0000 0.0000
# 4 0.0000 0.0000 0.0000 55.0687 0.0000 0.0000
# 5 0.0000 0.0000 0.0000 0.0000 55.0687 0.0000
# 6 0.0000 0.0000 0.0000 0.0000 0.0000 28.8827
#
#
#
# Elastic Compliance Matrix: (Units=1/GPa)
#
#
# Indices 1 2 3 4 5 6 
#
# 1 0.011671 -0.005640 -0.002693 0.000000 0.000000 0.000000
# 2 -0.005640 0.011671 -0.002693 0.000000 0.000000 0.000000
# 3 -0.002693 -0.002693 0.019493 0.000000 0.000000 0.000000
# 4 0.000000 0.000000 0.000000 0.018159 0.000000 0.000000
# 5 0.000000 0.000000 0.000000 0.000000 0.018159 0.000000
# 6 0.000000 0.000000 0.000000 0.000000 0.000000 0.034623
#
#
# Mechanical properties :
#
#
# Convention : Reuss Voigt Hill
#
# Bulk Modulus (GPa) = 48.11828 60.15387 54.13608
# Shear Modulus (GPa) = 35.02480 40.30309 37.66394
#
# Velocity S-wave (km/s) = 4.04984 4.34429 4.19965
# Velocity P-wave (km/s) = 6.66339 7.30290 6.99046
#
# Compressibility (1/GPa) = 0.02078212
#
# Stress axis : x y z
#
# Youngs Moduli (GPa) = 85.68316 85.68316 51.30032
#
# Poissons Ratio (x) = 0.48329 0.13815
# Poissons Ratio (y) = 0.48329 0.13815
# Poissons Ratio (z) = 0.23074 0.23074
#
# Static dielectric constant tensor:
#      x y z
#    x 1.780850 0.000000 0.000000 
#    y 0.000000 1.780850 0.000000 
#    z 0.000000 0.000000 1.856310 
# 
# From -- ./inp_files/6861.got.cif
#   From: 2010.05.17/outbox.cif.g08.bks.cpg/sg179_4_cif.got.tgz:6861.got - 2010.05.20 11:37:33.
