data_PCOD9583694
_publ_section_title
;
Structure prediction by ZEFSAII (Michael W. Deem and Ramdas Pophale) SiO2 
 PCOD9583694
Probable space group: P 62 2 2
;
_chemical_formula_sum "Si O2"
_cell_formula_units_Z 72
_cell_length_a 15.464631
_cell_length_b 15.464631
_cell_length_c 18.481077
_cell_angle_alpha 90.000000
_cell_angle_beta 90.000000
_cell_angle_gamma 120.000000
_cell_volume 3827.692417
_symmetry_space_group_name_H-M "P 62 2 2"
_symmetry_group_IT_number 180
_symmetry_cell_setting 'hexagonal'
loop_
_space_group_symop_operation_xyz
x,y,z
x-y,x,1/3+z
-y,x-y,2/3+z
-x,-y,z
-x+y,-x,1/3+z
y,-x+y,2/3+z
x-y,-y,-z
-x,-x+y,1/3-z
y,x,2/3-z
-y,-x,2/3-z
-x+y,y,-z
x,x-y,1/3-z
loop_
_atom_site_type_symbol
_atom_site_label
_atom_site_fract_x
_atom_site_fract_y
_atom_site_fract_z
Si Si1 0.030209 0.788181 0.489393
Si Si2 0.803763 0.906982 0.046284
Si Si3 0.436968 0.381513 0.735104
Si Si4 0.616677 0.551000 0.102575
Si Si5 0.474271 0.723882 0.835317
Si Si6 0.124022 0.343015 0.252654
O O1 0.998624 0.834060 0.422823
O O2 0.957944 0.772576 0.556939
O O3 0.019579 0.684146 0.463363
O O4 0.141593 0.855775 0.520596
O O5 0.712541 0.840234 0.992047
O O6 0.887135 0.000000 0.000000
O O7 0.500000 0.500000 0.751847
O O8 0.449883 0.370653 0.650238
O O9 0.475594 0.321517 0.781975
O O10 0.320980 0.341110 0.749333
O O11 0.500000 0.500000 0.118726
O O12 0.663304 0.490749 0.139699
O O13 0.359436 0.640565 0.833334
O O14 0.539860 0.747262 0.908812
#
# Coordination Sequence:
#
# PCOD9583694 Si02
#       6
#    12  12  12  12  12  12
#     4   9  18  34  57  86 116 157 202 246 298 348
#     4   9  17  33  57  86 117 153 205 246 287 348
#     4  11  20  35  57  87 122 157 191 240 307 365
#     4  10  22  39  58  83 119 157 203 249 297 361
#     4  11  22  37  58  88 123 154 196 244 301 362
#     4  10  19  32  57  87 121 159 192 239 303 361
#
# _framework density 18.810289000000001
#
# number of rings (size 3 to 8) (size 9 to 14) (size 15 to 20)
#    0.000    2.000    3.333    1.000    0.000    0.000 
#    3.000    0.000    0.000   11.500    0.000  151.667 
#    0.000    0.000    0.000    0.000    0.000    0.000 
#
# Total GULP energy -401784.985949 kJ/mol
# GULP energy per Si atom -5580.347027 kJ/mol
# Density = 1.876748 g / cm^3
# Si number density = 18.810289 Si / 1000 Ang^3
#
#
#
# Elastic Constant Matrix: (Units=GPa)
#
#
# Indices 1 2 3 4 5 6 
#
# 1 84.9606 31.6516 23.2325 0.0000 0.0000 0.0000
# 2 31.6516 84.9606 23.2325 0.0000 0.0000 0.0000
# 3 23.2325 23.2325 78.8558 0.0000 0.0000 0.0000
# 4 0.0000 0.0000 0.0000 17.7840 0.0000 0.0000
# 5 0.0000 0.0000 0.0000 0.0000 17.7840 0.0000
# 6 0.0000 0.0000 0.0000 0.0000 0.0000 26.6545
#
#
#
# Elastic Compliance Matrix: (Units=1/GPa)
#
#
# Indices 1 2 3 4 5 6 
#
# 1 0.014237 -0.004521 -0.002863 0.000000 0.000000 0.000000
# 2 -0.004521 0.014237 -0.002863 0.000000 0.000000 0.000000
# 3 -0.002863 -0.002863 0.014368 0.000000 0.000000 0.000000
# 4 0.000000 0.000000 0.000000 0.056230 0.000000 0.000000
# 5 0.000000 0.000000 0.000000 0.000000 0.056230 0.000000
# 6 0.000000 0.000000 0.000000 0.000000 0.000000 0.037517
#
#
# Mechanical properties :
#
#
# Convention : Reuss Voigt Hill
#
# Bulk Modulus (GPa) = 44.74273 45.00116 44.87194
# Shear Modulus (GPa) = 22.64873 23.82188 23.23531
#
# Velocity S-wave (km/s) = 3.47372 3.56255 3.51842
# Velocity P-wave (km/s) = 6.31878 6.39515 6.35708
#
# Compressibility (1/GPa) = 0.02235000
#
# Stress axis : x y z
#
# Youngs Moduli (GPa) = 70.23808 70.23808 69.59862
#
# Poissons Ratio (x) = 0.31757 0.19923
# Poissons Ratio (y) = 0.31757 0.19923
# Poissons Ratio (z) = 0.20106 0.20106
#
# Static dielectric constant tensor:
#      x y z
#    x 1.655600 0.000000 0.000000 
#    y 0.000000 1.655600 0.000000 
#    z 0.000000 0.000000 1.666940 
# 
# From -- ./inp_files/7781.got.cif
#   From: 2010.05.17/outbox.cif.g08.bks.cpg/sg180_4_cif.got.tgz:7781.got - 2010.05.20 11:43:55.
