data_PCOD9583527
_publ_section_title
;
Structure prediction by ZEFSAII (Michael W. Deem and Ramdas Pophale) SiO2 
 PCOD9583527
Probable space group: P 65 2 2
;
_chemical_formula_sum "Si O2"
_cell_formula_units_Z 36
_cell_length_a 8.697469
_cell_length_b 8.697469
_cell_length_c 24.870745
_cell_angle_alpha 90.000000
_cell_angle_beta 90.000000
_cell_angle_gamma 120.000000
_cell_volume 1629.315561
_symmetry_space_group_name_H-M "P 65 2 2"
_symmetry_group_IT_number 179
_symmetry_cell_setting 'hexagonal'
loop_
_space_group_symop_operation_xyz
x,y,z
x-y,x,5/6+z
-y,x-y,2/3+z
-x,-y,1/2+z
-x+y,-x,1/3+z
y,-x+y,1/6+z
x-y,-y,-z
-x,-x+y,1/3-z
y,x,2/3-z
-y,-x,1/6-z
-x+y,y,1/2-z
x,x-y,5/6-z
loop_
_atom_site_type_symbol
_atom_site_label
_atom_site_fract_x
_atom_site_fract_y
_atom_site_fract_z
Si Si1 0.203767 0.166416 0.151078
Si Si2 0.996867 0.660673 0.102949
Si Si3 0.450780 0.178212 0.579638
O O1 0.191397 0.339243 0.136200
O O2 0.329301 0.193302 0.201120
O O3 0.299496 0.132996 0.099605
O O4 0.000000 0.017490 0.166667
O O5 0.182686 0.817315 0.083334
O O6 0.014104 0.487976 0.091958
O O7 0.000000 0.681812 0.166667
O O8 0.633729 0.366272 0.583334
#
# Coordination Sequence:
#
# PCOD9583527 Si02
#       3
#    12  12  12
#     4  12  24  43  70 100 139 184 234 294 359 433
#     4  11  23  41  66  97 132 176 226 283 350 424
#     4  11  25  44  67 101 139 182 235 291 357 433
#
# _framework density 22.095168999999999
#
# number of rings (size 3 to 8) (size 9 to 14) (size 15 to 20)
#    0.000    0.667    0.000    9.000    0.000    2.667 
#    0.000   10.000    0.000    0.000    0.000    0.000 
#    0.000    0.000    0.000    0.000    0.000    0.000 
#
# Total GULP energy -200902.685487 kJ/mol
# GULP energy per Si atom -5580.630152 kJ/mol
# Density = 2.204488 g / cm^3
# Si number density = 22.095169 Si / 1000 Ang^3
#
#
#
# Elastic Constant Matrix: (Units=GPa)
#
#
# Indices 1 2 3 4 5 6 
#
# 1 182.3193 -16.7389 48.4817 0.0000 0.0000 0.0000
# 2 -16.7389 182.3193 48.4817 0.0000 0.0000 0.0000
# 3 48.4817 48.4817 156.7412 0.0000 0.0000 0.0000
# 4 0.0000 0.0000 0.0000 47.7257 0.0000 0.0000
# 5 0.0000 0.0000 0.0000 0.0000 47.7257 0.0000
# 6 0.0000 0.0000 0.0000 0.0000 0.0000 99.5291
#
#
#
# Elastic Compliance Matrix: (Units=1/GPa)
#
#
# Indices 1 2 3 4 5 6 
#
# 1 0.006199 0.001176 -0.002281 0.000000 0.000000 0.000000
# 2 0.001176 0.006199 -0.002281 0.000000 0.000000 0.000000
# 3 -0.002281 -0.002281 0.007791 0.000000 0.000000 0.000000
# 4 0.000000 0.000000 0.000000 0.020953 0.000000 0.000000
# 5 0.000000 0.000000 0.000000 0.000000 0.020953 0.000000
# 6 0.000000 0.000000 0.000000 0.000000 0.000000 0.010047
#
#
# Mechanical properties :
#
#
# Convention : Reuss Voigt Hill
#
# Bulk Modulus (GPa) = 74.53398 75.75875 75.14636
# Shear Modulus (GPa) = 59.95985 68.40646 64.18315
#
# Velocity S-wave (km/s) = 5.21498 5.57020 5.39551
# Velocity P-wave (km/s) = 8.37065 8.70238 8.53812
#
# Compressibility (1/GPa) = 0.01341670
#
# Stress axis : x y z
#
# Youngs Moduli (GPa) = 161.30461 161.30461 128.35049
#
# Poissons Ratio (x) = -0.18966 0.29280
# Poissons Ratio (y) = -0.18966 0.29280
# Poissons Ratio (z) = 0.36797 0.36797
#
# Static dielectric constant tensor:
#      x y z
#    x 1.860640 0.000000 0.000000 
#    y 0.000000 1.860640 0.000000 
#    z 0.000000 0.000000 1.784860 
# 
# From -- ./inp_files/8541.got.cif
#   From: 2010.05.17/outbox.cif.g08.bks.cpg/sg179_5_cif.got.tgz:8541.got - 2010.05.20 11:37:33.
