data_PCOD9583368
_publ_section_title
;
Structure prediction by ZEFSAII (Michael W. Deem and Ramdas Pophale) SiO2 
 PCOD9583368
Probable space group: P 65 2 2
;
_chemical_formula_sum "Si O2"
_cell_formula_units_Z 66
_cell_length_a 20.689277
_cell_length_b 20.689277
_cell_length_c 8.972495
_cell_angle_alpha 90.000000
_cell_angle_beta 90.000000
_cell_angle_gamma 120.000000
_cell_volume 3326.093742
_symmetry_space_group_name_H-M "P 65 2 2"
_symmetry_group_IT_number 179
_symmetry_cell_setting 'hexagonal'
loop_
_space_group_symop_operation_xyz
x,y,z
x-y,x,5/6+z
-y,x-y,2/3+z
-x,-y,1/2+z
-x+y,-x,1/3+z
y,-x+y,1/6+z
x-y,-y,-z
-x,-x+y,1/3-z
y,x,2/3-z
-y,-x,1/6-z
-x+y,y,1/2-z
x,x-y,5/6-z
loop_
_atom_site_type_symbol
_atom_site_label
_atom_site_fract_x
_atom_site_fract_y
_atom_site_fract_z
Si Si1 0.665971 0.577786 0.109805
Si Si2 0.174300 0.484253 0.182206
Si Si3 0.692989 0.609604 0.581802
Si Si4 0.087292 0.300064 0.676373
Si Si5 0.389824 0.527817 0.855863
Si Si6 0.692553 0.307448 0.583334
O O1 0.638918 0.634961 0.057613
O O2 0.735866 0.630517 0.214180
O O3 0.602357 0.517640 0.218611
O O4 0.687966 0.533850 0.990797
O O5 0.257591 0.515181 0.250000
O O6 0.125322 0.406901 0.264322
O O7 0.138926 0.535439 0.227567
O O8 0.765945 0.663255 0.486170
O O9 0.650288 0.532865 0.484825
O O10 0.132713 0.265426 0.750000
O O11 0.000000 0.243516 0.666667
O O12 0.340806 0.562519 0.793064
O O13 0.688096 0.344048 0.416667
#
# Coordination Sequence:
#
# PCOD9583368 Si02
#       6
#    12  12  12  12  12   6
#     4  10  22  40  57  83 110 150 197 246 313 365
#     4  12  24  36  56  82 111 148 195 253 311 374
#     4  10  23  38  59  81 111 151 194 251 309 365
#     4   9  18  35  58  83 115 149 187 229 284 349
#     4  11  25  38  57  79 107 152 200 252 309 373
#     4  12  28  44  62  84 124 162 212 264 326 394
#
# _framework density 19.843097
#
# number of rings (size 3 to 8) (size 9 to 14) (size 15 to 20)
#    0.000    1.455    0.000    6.000   12.727    4.364 
#    0.000    0.000    0.000    0.000    0.000    0.000 
#    0.000   11.636    0.000    0.000    0.000    0.000 
#
# Total GULP energy -367630.936026 kJ/mol
# GULP energy per Si atom -5570.165697 kJ/mol
# Density = 1.979793 g / cm^3
# Si number density = 19.843097 Si / 1000 Ang^3
#
#
#
# Elastic Constant Matrix: (Units=GPa)
#
#
# Indices 1 2 3 4 5 6 
#
# 1 3.6005 34.5157 14.0511 0.0000 0.0000 0.0000
# 2 34.5157 3.6005 14.0511 0.0000 0.0000 0.0000
# 3 14.0511 14.0511 85.8101 0.0000 0.0000 0.0000
# 4 0.0000 0.0000 0.0000 20.2214 0.0000 0.0000
# 5 0.0000 0.0000 0.0000 0.0000 20.2214 0.0000
# 6 0.0000 0.0000 0.0000 0.0000 0.0000 -15.4576
#
#
#
# Elastic Compliance Matrix: (Units=1/GPa)
#
#
# Indices 1 2 3 4 5 6 
#
# 1 -0.001254 0.031092 -0.004886 0.000000 0.000000 0.000000
# 2 0.031092 -0.001254 -0.004886 0.000000 0.000000 0.000000
# 3 -0.004886 -0.004886 0.013254 0.000000 0.000000 0.000000
# 4 0.000000 0.000000 0.000000 0.049453 0.000000 0.000000
# 5 0.000000 0.000000 0.000000 0.000000 0.049453 0.000000
# 6 0.000000 0.000000 0.000000 0.000000 0.000000 -0.064693
#
#
# Mechanical properties :
#
#
# Convention : Reuss Voigt Hill
#
# Bulk Modulus (GPa) = 18.73151 24.24966 21.49058
# Shear Modulus (GPa) = 248.61782 7.02326 127.82054
#
# Velocity S-wave (km/s) = 11.20553 1.88337 8.03464
# Velocity P-wave (km/s) = 13.29958 4.12028 9.84519
#
# Compressibility (1/GPa) = 0.05338598
#
# Stress axis : x y z
#
# Youngs Moduli (GPa) = -797.20327 -797.20327 75.45047
#
# Poissons Ratio (x) = 24.78681 0.36864
# Poissons Ratio (y) = 24.78681 0.36864
# Poissons Ratio (z) = -3.89502 -3.89502
#
# Static dielectric constant tensor:
#      x y z
#    x 1.738140 0.000000 0.000000 
#    y 0.000000 1.738140 0.000000 
#    z 0.000000 0.000000 1.722230 
# 
# From -- ./inp_files/3377.got.cif
#   From: 2010.05.17/outbox.cif.g08.bks.cpg/sg179_2_cif.got.tgz:3377.got - 2010.05.20 11:37:33.
