data_PCOD9583234
_publ_section_title
;
Structure prediction by ZEFSAII (Michael W. Deem and Ramdas Pophale) SiO2 
 PCOD9583234
Probable space group: P 65 2 2
;
_chemical_formula_sum "Si O2"
_cell_formula_units_Z 42
_cell_length_a 8.531183
_cell_length_b 8.531183
_cell_length_c 29.660301
_cell_angle_alpha 90.000000
_cell_angle_beta 90.000000
_cell_angle_gamma 120.000000
_cell_volume 1869.496695
_symmetry_space_group_name_H-M "P 65 2 2"
_symmetry_group_IT_number 179
_symmetry_cell_setting 'hexagonal'
loop_
_space_group_symop_operation_xyz
x,y,z
x-y,x,5/6+z
-y,x-y,2/3+z
-x,-y,1/2+z
-x+y,-x,1/3+z
y,-x+y,1/6+z
x-y,-y,-z
-x,-x+y,1/3-z
y,x,2/3-z
-y,-x,1/6-z
-x+y,y,1/2-z
x,x-y,5/6-z
loop_
_atom_site_type_symbol
_atom_site_label
_atom_site_fract_x
_atom_site_fract_y
_atom_site_fract_z
Si Si1 0.939010 0.602169 0.810803
Si Si2 0.448626 0.256441 0.269224
Si Si3 0.567939 0.218318 0.798178
Si Si4 0.396588 0.000000 0.000000
O O1 0.046837 0.727038 0.768305
O O2 0.091222 0.560750 0.828933
O O3 0.882896 0.663091 0.856909
O O4 0.753580 0.415305 0.799063
O O5 0.617054 0.234107 0.250000
O O6 0.545139 0.447656 0.295741
O O7 0.570421 0.140841 0.750000
O O8 0.392144 0.236038 0.805770
#
# Coordination Sequence:
#
# PCOD9583234 Si02
#       4
#    12  12  12   6
#     4  11  22  37  60  96 125 164 213 267 320 382
#     4  11  21  38  60  96 129 165 211 275 317 390
#     4  11  22  36  62  92 121 163 208 264 314 380
#     4  10  20  34  58  92 120 160 214 256 314 386
#
# _framework density 22.465941999999998
#
# number of rings (size 3 to 8) (size 9 to 14) (size 15 to 20)
#    0.000    1.143    8.571    0.857    0.000    0.000 
#    0.000    0.000    0.000    6.857   59.429    0.000 
#    0.000    0.000    0.000    0.000    0.000    0.000 
#
# Total GULP energy -233804.003624 kJ/mol
# GULP energy per Si atom -5566.761991 kJ/mol
# Density = 2.241481 g / cm^3
# Si number density = 22.465942 Si / 1000 Ang^3
#
#
#
# Elastic Constant Matrix: (Units=GPa)
#
#
# Indices 1 2 3 4 5 6 
#
# 1 49.1593 26.5764 29.5321 0.0000 0.0000 0.0000
# 2 26.5764 49.1593 29.5321 0.0000 0.0000 0.0000
# 3 29.5321 29.5321 127.9195 0.0000 0.0000 0.0000
# 4 0.0000 0.0000 0.0000 36.5854 0.0000 0.0000
# 5 0.0000 0.0000 0.0000 0.0000 36.5854 0.0000
# 6 0.0000 0.0000 0.0000 0.0000 0.0000 11.2915
#
#
#
# Elastic Compliance Matrix: (Units=1/GPa)
#
#
# Indices 1 2 3 4 5 6 
#
# 1 0.030192 -0.014089 -0.003718 0.000000 0.000000 0.000000
# 2 -0.014089 0.030192 -0.003718 0.000000 0.000000 0.000000
# 3 -0.003718 -0.003718 0.009534 0.000000 0.000000 0.000000
# 4 0.000000 0.000000 0.000000 0.027333 0.000000 0.000000
# 5 0.000000 0.000000 0.000000 0.000000 0.027333 0.000000
# 6 0.000000 0.000000 0.000000 0.000000 0.000000 0.088563
#
#
# Mechanical properties :
#
#
# Convention : Reuss Voigt Hill
#
# Bulk Modulus (GPa) = 37.21677 44.16880 40.69278
# Shear Modulus (GPa) = 18.85706 26.26564 22.56135
#
# Velocity S-wave (km/s) = 2.90032 3.42297 3.17242
# Velocity P-wave (km/s) = 5.27424 5.94351 5.61885
#
# Compressibility (1/GPa) = 0.02686961
#
# Stress axis : x y z
#
# Youngs Moduli (GPa) = 33.12115 33.12115 104.88831
#
# Poissons Ratio (x) = 0.46665 0.38994
# Poissons Ratio (y) = 0.46665 0.38994
# Poissons Ratio (z) = 0.12313 0.12313
#
# Static dielectric constant tensor:
#      x y z
#    x 1.867260 0.000000 0.000000 
#    y 0.000000 1.867260 0.000000 
#    z 0.000000 0.000000 1.511850 
# 
# From -- ./inp_files/9263.got.cif
#   From: 2010.05.17/outbox.cif.g08.bks.cpg/sg179_5_cif.got.tgz:9263.got - 2010.05.20 11:37:33.
