data_PCOD9583279
_publ_section_title
;
Structure prediction by ZEFSAII (Michael W. Deem and Ramdas Pophale) SiO2 
 PCOD9583279
Probable space group: P 65 2 2
;
_chemical_formula_sum "Si O2"
_cell_formula_units_Z 54
_cell_length_a 14.439691
_cell_length_b 14.439691
_cell_length_c 13.724902
_cell_angle_alpha 90.000000
_cell_angle_beta 90.000000
_cell_angle_gamma 120.000000
_cell_volume 2478.310308
_symmetry_space_group_name_H-M "P 65 2 2"
_symmetry_group_IT_number 179
_symmetry_cell_setting 'hexagonal'
loop_
_space_group_symop_operation_xyz
x,y,z
x-y,x,5/6+z
-y,x-y,2/3+z
-x,-y,1/2+z
-x+y,-x,1/3+z
y,-x+y,1/6+z
x-y,-y,-z
-x,-x+y,1/3-z
y,x,2/3-z
-y,-x,1/6-z
-x+y,y,1/2-z
x,x-y,5/6-z
loop_
_atom_site_type_symbol
_atom_site_label
_atom_site_fract_x
_atom_site_fract_y
_atom_site_fract_z
Si Si1 0.588967 0.480023 0.897108
Si Si2 0.685525 0.006262 0.190250
Si Si3 0.118277 0.018080 0.692923
Si Si4 0.533710 0.766855 0.916667
Si Si5 0.364264 0.290381 0.928396
O O1 0.532246 0.532246 0.833334
O O2 0.673274 0.470289 0.827940
O O3 0.492907 0.368385 0.932459
O O4 0.648075 0.570196 0.979594
O O5 0.774885 0.976946 0.158482
O O6 0.728456 0.124066 0.145280
O O7 0.677830 0.996743 0.306777
O O8 0.113385 0.002848 0.808950
O O9 0.000000 0.915641 0.666667
O O10 0.319575 0.319575 0.833334
O O11 0.340785 0.170393 0.916667
#
# Coordination Sequence:
#
# PCOD9583279 Si02
#       5
#    12  12  12   6  12
#     4   9  21  44  71 105 138 180 238 302 368 435
#     4  11  22  42  71 102 142 187 237 309 369 430
#     4  10  21  37  56  91 135 181 228 280 335 416
#     4  10  20  38  76 108 134 176 244 306 364 434
#     4  11  27  49  68 101 145 193 238 293 378 457
#
# _framework density 21.789038000000001
#
# number of rings (size 3 to 8) (size 9 to 14) (size 15 to 20)
#    0.000    1.778    0.000    3.333    6.222    5.333 
#   12.000    2.222    0.000    0.000    0.000    0.000 
#    0.000    0.000    0.000    0.000    0.000    0.000 
#
# Total GULP energy -301128.915328 kJ/mol
# GULP energy per Si atom -5576.461395 kJ/mol
# Density = 2.173945 g / cm^3
# Si number density = 21.789038 Si / 1000 Ang^3
#
#
#
# Elastic Constant Matrix: (Units=GPa)
#
#
# Indices 1 2 3 4 5 6 
#
# 1 97.3823 42.5103 38.6137 0.0000 0.0000 0.0000
# 2 42.5103 97.3823 38.6137 0.0000 0.0000 0.0000
# 3 38.6137 38.6137 133.4205 0.0000 0.0000 0.0000
# 4 0.0000 0.0000 0.0000 30.0220 0.0000 0.0000
# 5 0.0000 0.0000 0.0000 0.0000 30.0220 0.0000
# 6 0.0000 0.0000 0.0000 0.0000 0.0000 27.4360
#
#
#
# Elastic Compliance Matrix: (Units=1/GPa)
#
#
# Indices 1 2 3 4 5 6 
#
# 1 0.013366 -0.004858 -0.002462 0.000000 0.000000 0.000000
# 2 -0.004858 0.013366 -0.002462 0.000000 0.000000 0.000000
# 3 -0.002462 -0.002462 0.008920 0.000000 0.000000 0.000000
# 4 0.000000 0.000000 0.000000 0.033309 0.000000 0.000000
# 5 0.000000 0.000000 0.000000 0.000000 0.033309 0.000000
# 6 0.000000 0.000000 0.000000 0.000000 0.000000 0.036448
#
#
# Mechanical properties :
#
#
# Convention : Reuss Voigt Hill
#
# Bulk Modulus (GPa) = 62.16338 63.07338 62.61838
# Shear Modulus (GPa) = 30.55374 31.39250 30.97312
#
# Velocity S-wave (km/s) = 3.74873 3.79984 3.77437
# Velocity P-wave (km/s) = 6.87960 6.94707 6.91342
#
# Compressibility (1/GPa) = 0.01608664
#
# Stress axis : x y z
#
# Youngs Moduli (GPa) = 74.81721 74.81721 112.10388
#
# Poissons Ratio (x) = 0.36348 0.27602
# Poissons Ratio (y) = 0.36348 0.27602
# Poissons Ratio (z) = 0.18422 0.18422
#
# Static dielectric constant tensor:
#      x y z
#    x 1.795030 0.000000 0.000000 
#    y 0.000000 1.795030 0.000000 
#    z 0.000000 0.000000 2.049180 
# 
# From -- ./inp_files/5693.got.cif
#   From: 2010.05.17/outbox.cif.g08.bks.cpg/sg179_3_cif.got.tgz:5693.got - 2010.05.20 11:37:33.
