data_PCOD9583763
_publ_section_title
;
Structure prediction by ZEFSAII (Michael W. Deem and Ramdas Pophale) SiO2 
 PCOD9583763
Probable space group: P 62 2 2
;
_chemical_formula_sum "Si O2"
_cell_formula_units_Z 72
_cell_length_a 15.025119
_cell_length_b 15.025119
_cell_length_c 16.704131
_cell_angle_alpha 90.000000
_cell_angle_beta 90.000000
_cell_angle_gamma 120.000000
_cell_volume 3265.805827
_symmetry_space_group_name_H-M "P 62 2 2"
_symmetry_group_IT_number 180
_symmetry_cell_setting 'hexagonal'
loop_
_space_group_symop_operation_xyz
x,y,z
x-y,x,1/3+z
-y,x-y,2/3+z
-x,-y,z
-x+y,-x,1/3+z
y,-x+y,2/3+z
x-y,-y,-z
-x,-x+y,1/3-z
y,x,2/3-z
-y,-x,2/3-z
-x+y,y,-z
x,x-y,1/3-z
loop_
_atom_site_type_symbol
_atom_site_label
_atom_site_fract_x
_atom_site_fract_y
_atom_site_fract_z
Si Si1 0.610107 0.217514 0.389178
Si Si2 0.397299 0.082728 0.830244
Si Si3 0.378523 0.291999 0.688329
Si Si4 0.584190 0.394888 0.240484
Si Si5 0.134722 0.373735 0.269608
Si Si6 0.355834 0.232591 0.239631
O O1 0.706263 0.293738 0.333334
O O2 0.643373 0.131543 0.401908
O O3 0.609332 0.311823 0.435928
O O4 0.487976 0.155918 0.371427
O O5 0.383114 0.052748 0.737136
O O6 0.513580 0.114204 0.850928
O O7 0.383218 0.179263 0.858624
O O8 0.321053 0.991665 0.888422
O O9 0.355589 0.177795 0.666667
O O10 0.291735 0.304058 0.734247
O O11 0.578962 0.421039 0.333334
O O12 0.479199 0.291592 0.231089
O O13 0.177387 0.333826 0.342021
O O14 0.307529 0.153765 0.166667
#
# Coordination Sequence:
#
# PCOD9583763 Si02
#       6
#    12  12  12  12  12  12
#     4   9  18  37  58  87 131 166 200 247 301 379
#     4  11  24  38  63  94 124 174 213 263 329 387
#     4  11  25  42  63  88 123 173 226 267 308 376
#     4  10  20  35  57  94 135 167 199 251 312 390
#     4  11  22  41  61  93 129 163 210 269 320 379
#     4  12  22  35  62  94 131 162 203 261 332 390
#
# _framework density 22.046624999999999
#
# number of rings (size 3 to 8) (size 9 to 14) (size 15 to 20)
#    0.000    1.333    6.667    1.500    2.333    2.667 
#    0.000   13.333    0.000   10.000    0.000    0.000 
#    0.000    0.000    0.000    0.000    0.000    0.000 
#
# Total GULP energy -400878.639482 kJ/mol
# GULP energy per Si atom -5567.758882 kJ/mol
# Density = 2.199645 g / cm^3
# Si number density = 22.046625 Si / 1000 Ang^3
#
#
#
# Elastic Constant Matrix: (Units=GPa)
#
#
# Indices 1 2 3 4 5 6 
#
# 1 49.7484 12.0728 -5.9176 0.0000 0.0000 0.0000
# 2 12.0728 49.7484 -5.9176 0.0000 0.0000 0.0000
# 3 -5.9176 -5.9176 61.2799 0.0000 0.0000 0.0000
# 4 0.0000 0.0000 0.0000 23.3994 0.0000 0.0000
# 5 0.0000 0.0000 0.0000 0.0000 23.3994 0.0000
# 6 0.0000 0.0000 0.0000 0.0000 0.0000 18.8378
#
#
#
# Elastic Compliance Matrix: (Units=1/GPa)
#
#
# Indices 1 2 3 4 5 6 
#
# 1 0.021511 -0.005031 0.001591 0.000000 0.000000 0.000000
# 2 -0.005031 0.021511 0.001591 0.000000 0.000000 0.000000
# 3 0.001591 0.001591 0.016626 0.000000 0.000000 0.000000
# 4 0.000000 0.000000 0.000000 0.042736 0.000000 0.000000
# 5 0.000000 0.000000 0.000000 0.000000 0.042736 0.000000
# 6 0.000000 0.000000 0.000000 0.000000 0.000000 0.053085
#
#
# Mechanical properties :
#
#
# Convention : Reuss Voigt Hill
#
# Bulk Modulus (GPa) = 17.87230 17.91686 17.89458
# Shear Modulus (GPa) = 22.67035 23.82995 23.25015
#
# Velocity S-wave (km/s) = 3.21018 3.29125 3.25097
# Velocity P-wave (km/s) = 4.67595 4.75264 4.71445
#
# Compressibility (1/GPa) = 0.05595251
#
# Stress axis : x y z
#
# Youngs Moduli (GPa) = 46.48708 46.48708 60.14701
#
# Poissons Ratio (x) = 0.23388 -0.09572
# Poissons Ratio (y) = 0.23388 -0.09572
# Poissons Ratio (z) = -0.07398 -0.07398
#
# Static dielectric constant tensor:
#      x y z
#    x 1.840310 0.000000 0.000000 
#    y 0.000000 1.840310 0.000000 
#    z 0.000000 0.000000 1.568350 
# 
# From -- ./inp_files/7819.got.cif
#   From: 2010.05.17/outbox.cif.g08.bks.cpg/sg180_4_cif.got.tgz:7819.got - 2010.05.20 11:43:55.
