data_PCOD9583021
_publ_section_title
;
Structure prediction by ZEFSAII (Michael W. Deem and Ramdas Pophale) SiO2 
 PCOD9583021
Probable space group: P 61 2 2
;
_chemical_formula_sum "Si O2"
_cell_formula_units_Z 36
_cell_length_a 8.859410
_cell_length_b 8.859410
_cell_length_c 20.938315
_cell_angle_alpha 90.000000
_cell_angle_beta 90.000000
_cell_angle_gamma 120.000000
_cell_volume 1423.252522
_symmetry_space_group_name_H-M "P 61 2 2"
_symmetry_group_IT_number 178
_symmetry_cell_setting 'hexagonal'
loop_
_space_group_symop_operation_xyz
x,y,z
x-y,x,1/6+z
-y,x-y,1/3+z
-x,-y,1/2+z
-x+y,-x,2/3+z
y,-x+y,5/6+z
x-y,-y,-z
-x,-x+y,2/3-z
y,x,1/3-z
-y,-x,5/6-z
-x+y,y,1/2-z
x,x-y,1/6-z
loop_
_atom_site_type_symbol
_atom_site_label
_atom_site_fract_x
_atom_site_fract_y
_atom_site_fract_z
Si Si1 0.488717 0.488717 0.166667
Si Si2 0.836518 0.673035 0.250000
Si Si3 0.110888 0.684947 0.998204
Si Si4 0.663704 0.897714 0.808230
O O1 0.647409 0.557815 0.217515
O O2 0.454253 0.298615 0.148139
O O3 0.807837 0.774565 0.309146
O O4 0.043936 0.696889 0.069933
O O5 0.136398 0.518494 0.995952
O O6 0.948036 0.673123 0.961684
#
# Coordination Sequence:
#
# PCOD9583021 Si02
#       4
#     6   6  12  12
#     4  12  26  46  74 110 150 200 254 310 374 450
#     4  12  26  48  78 110 152 198 250 314 382 448
#     4  11  25  45  70 102 144 192 249 306 374 451
#     4  11  25  46  72 105 145 195 247 308 378 452
#
# _framework density 25.294177000000001
#
# number of rings (size 3 to 8) (size 9 to 14) (size 15 to 20)
#    0.000    0.667    0.000    8.000    0.000   12.000 
#    0.000    0.000    0.000    0.000    0.000    0.000 
#    0.000    0.000    0.000    0.000    0.000    0.000 
#
# Total GULP energy -201350.838846 kJ/mol
# GULP energy per Si atom -5593.078857 kJ/mol
# Density = 2.523661 g / cm^3
# Si number density = 25.294177 Si / 1000 Ang^3
#
#
#
# Elastic Constant Matrix: (Units=GPa)
#
#
# Indices 1 2 3 4 5 6 
#
# 1 151.1962 62.6156 47.6684 0.0000 0.0000 0.0000
# 2 62.6156 151.1962 47.6684 0.0000 0.0000 0.0000
# 3 47.6684 47.6684 106.6907 0.0000 0.0000 0.0000
# 4 0.0000 0.0000 0.0000 42.2622 0.0000 0.0000
# 5 0.0000 0.0000 0.0000 0.0000 42.2622 0.0000
# 6 0.0000 0.0000 0.0000 0.0000 0.0000 44.2903
#
#
#
# Elastic Compliance Matrix: (Units=1/GPa)
#
#
# Indices 1 2 3 4 5 6 
#
# 1 0.008565 -0.002724 -0.002610 0.000000 0.000000 0.000000
# 2 -0.002724 0.008565 -0.002610 0.000000 0.000000 0.000000
# 3 -0.002610 -0.002610 0.011705 0.000000 0.000000 0.000000
# 4 0.000000 0.000000 0.000000 0.023662 0.000000 0.000000
# 5 0.000000 0.000000 0.000000 0.000000 0.023662 0.000000
# 6 0.000000 0.000000 0.000000 0.000000 0.000000 0.022578
#
#
# Mechanical properties :
#
#
# Convention : Reuss Voigt Hill
#
# Bulk Modulus (GPa) = 77.23328 80.55423 78.89376
# Shear Modulus (GPa) = 42.03838 42.50497 42.27167
#
# Velocity S-wave (km/s) = 4.08116 4.10375 4.09247
# Velocity P-wave (km/s) = 7.26692 7.37363 7.32047
#
# Compressibility (1/GPa) = 0.01294779
#
# Stress axis : x y z
#
# Youngs Moduli (GPa) = 116.75610 116.75610 85.43580
#
# Poissons Ratio (x) = 0.31808 0.22295
# Poissons Ratio (y) = 0.31808 0.22295
# Poissons Ratio (z) = 0.30468 0.30468
#
# Static dielectric constant tensor:
#      x y z
#    x 1.929100 0.000000 0.000000 
#    y 0.000000 1.929100 0.000000 
#    z 0.000000 0.000000 2.212260 
# 
# From -- ./inp_files/8569.got.cif
#   From: 2010.05.17/outbox.cif.g08.bks.cpg/sg178_5_cif.got.tgz:8569.got - 2010.05.20 11:30:59.
