data_PCOD9583119
_publ_section_title
;
Structure prediction by ZEFSAII (Michael W. Deem and Ramdas Pophale) SiO2 
 PCOD9583119
Probable space group: P 65 2 2
;
_chemical_formula_sum "Si O2"
_cell_formula_units_Z 90
_cell_length_a 18.380587
_cell_length_b 18.380587
_cell_length_c 16.821052
_cell_angle_alpha 90.000000
_cell_angle_beta 90.000000
_cell_angle_gamma 120.000000
_cell_volume 4921.557220
_symmetry_space_group_name_H-M "P 65 2 2"
_symmetry_group_IT_number 179
_symmetry_cell_setting 'hexagonal'
loop_
_space_group_symop_operation_xyz
x,y,z
x-y,x,5/6+z
-y,x-y,2/3+z
-x,-y,1/2+z
-x+y,-x,1/3+z
y,-x+y,1/6+z
x-y,-y,-z
-x,-x+y,1/3-z
y,x,2/3-z
-y,-x,1/6-z
-x+y,y,1/2-z
x,x-y,5/6-z
loop_
_atom_site_type_symbol
_atom_site_label
_atom_site_fract_x
_atom_site_fract_y
_atom_site_fract_z
Si Si1 0.927205 0.436554 0.080383
Si Si2 0.690360 0.856622 0.101757
Si Si3 0.360709 0.472512 0.609001
Si Si4 0.581242 0.418759 0.583334
Si Si5 0.577751 0.457892 0.266388
Si Si6 0.260319 0.365995 0.278921
Si Si7 0.275585 0.769165 0.361858
Si Si8 0.995524 0.715510 0.456652
O O1 0.882933 0.472882 0.139179
O O2 0.908786 0.352133 0.126807
O O3 0.026002 0.500719 0.080271
O O4 0.891902 0.417321 0.991349
O O5 0.589614 0.807309 0.111112
O O6 0.723066 0.790664 0.094750
O O7 0.726158 0.919245 0.176322
O O8 0.695878 0.903965 0.017903
O O9 0.455979 0.544022 0.583334
O O10 0.353503 0.480798 0.703201
O O11 0.302878 0.500293 0.560853
O O12 0.333397 0.377732 0.581594
O O13 0.671907 0.450168 0.545794
O O14 0.553040 0.363755 0.242274
O O15 0.200552 0.401103 0.250000
O O16 0.277754 0.323143 0.204289
#
# Coordination Sequence:
#
# PCOD9583119 Si02
#       8
#    12  12  12   6  12  12  12  12
#     4  11  23  35  56  77 104 140 198 246 281 336
#     4  10  19  33  49  79 109 149 184 230 287 346
#     4   9  19  36  55  72 102 151 197 235 283 340
#     4  12  26  36  56  84 104 142 194 250 282 354
#     4  10  22  39  53  74 103 151 193 236 291 339
#     4  10  18  29  47  74 106 144 182 229 276 334
#     4  10  21  37  51  78 110 142 194 233 292 338
#     4  10  20  30  54  76 110 147 191 232 283 349
#
# _framework density 18.286895000000001
#
# number of rings (size 3 to 8) (size 9 to 14) (size 15 to 20)
#    0.000    1.867    1.333    4.400    8.400    0.000 
#    7.200    0.000    0.000    0.000    0.000    0.000 
#    0.000    0.000    0.000   84.000    9.600    0.000 
#
# Total GULP energy -501456.436913 kJ/mol
# GULP energy per Si atom -5571.738188 kJ/mol
# Density = 1.824527 g / cm^3
# Si number density = 18.286895 Si / 1000 Ang^3
#
#
#
# Elastic Constant Matrix: (Units=GPa)
#
#
# Indices 1 2 3 4 5 6 
#
# 1 70.4906 38.9330 30.8744 0.0000 0.0000 0.0000
# 2 38.9330 70.4906 30.8744 0.0000 0.0000 0.0000
# 3 30.8744 30.8744 88.2924 0.0000 0.0000 0.0000
# 4 0.0000 0.0000 0.0000 23.6515 0.0000 0.0000
# 5 0.0000 0.0000 0.0000 0.0000 23.6515 0.0000
# 6 0.0000 0.0000 0.0000 0.0000 0.0000 15.7788
#
#
#
# Elastic Compliance Matrix: (Units=1/GPa)
#
#
# Indices 1 2 3 4 5 6 
#
# 1 0.021537 -0.010151 -0.003981 0.000000 0.000000 0.000000
# 2 -0.010151 0.021537 -0.003981 0.000000 0.000000 0.000000
# 3 -0.003981 -0.003981 0.014110 0.000000 0.000000 0.000000
# 4 0.000000 0.000000 0.000000 0.042281 0.000000 0.000000
# 5 0.000000 0.000000 0.000000 0.000000 0.042281 0.000000
# 6 0.000000 0.000000 0.000000 0.000000 0.000000 0.063376
#
#
# Mechanical properties :
#
#
# Convention : Reuss Voigt Hill
#
# Bulk Modulus (GPa) = 47.71877 47.84858 47.78368
# Shear Modulus (GPa) = 20.13413 21.18915 20.66164
#
# Velocity S-wave (km/s) = 3.32175 3.40767 3.36499
# Velocity P-wave (km/s) = 6.39244 6.45796 6.42528
#
# Compressibility (1/GPa) = 0.02095611
#
# Stress axis : x y z
#
# Youngs Moduli (GPa) = 46.43223 46.43223 70.86973
#
# Poissons Ratio (x) = 0.47135 0.28215
# Poissons Ratio (y) = 0.47135 0.28215
# Poissons Ratio (z) = 0.18486 0.18486
#
# Static dielectric constant tensor:
#      x y z
#    x 1.644760 0.000000 0.000000 
#    y 0.000000 1.644760 0.000000 
#    z 0.000000 0.000000 1.747950 
# 
# From -- ./inp_files/7036.got.cif
#   From: 2010.05.17/outbox.cif.g08.bks.cpg/sg179_4_cif.got.tgz:7036.got - 2010.05.20 11:37:33.
