data_PCOD9583180
_publ_section_title
;
Structure prediction by ZEFSAII (Michael W. Deem and Ramdas Pophale) SiO2 
 PCOD9583180
Probable space group: P 65 2 2
;
_chemical_formula_sum "Si O2"
_cell_formula_units_Z 48
_cell_length_a 12.341838
_cell_length_b 12.341838
_cell_length_c 19.187827
_cell_angle_alpha 90.000000
_cell_angle_beta 90.000000
_cell_angle_gamma 120.000000
_cell_volume 2531.139661
_symmetry_space_group_name_H-M "P 65 2 2"
_symmetry_group_IT_number 179
_symmetry_cell_setting 'hexagonal'
loop_
_space_group_symop_operation_xyz
x,y,z
x-y,x,5/6+z
-y,x-y,2/3+z
-x,-y,1/2+z
-x+y,-x,1/3+z
y,-x+y,1/6+z
x-y,-y,-z
-x,-x+y,1/3-z
y,x,2/3-z
-y,-x,1/6-z
-x+y,y,1/2-z
x,x-y,5/6-z
loop_
_atom_site_type_symbol
_atom_site_label
_atom_site_fract_x
_atom_site_fract_y
_atom_site_fract_z
Si Si1 0.285505 0.854064 0.515926
Si Si2 0.356622 0.394550 0.594665
Si Si3 0.578163 0.787883 0.690319
Si Si4 0.295873 0.711349 0.163915
O O1 0.195729 0.804272 0.583334
O O2 0.385836 0.807830 0.525805
O O3 0.352283 0.000000 0.500000
O O4 0.425652 0.201869 0.558863
O O5 0.503781 0.496220 0.583334
O O6 0.352346 0.290025 0.646407
O O7 0.281370 0.361241 0.520541
O O8 0.302974 0.473714 0.632304
O O9 0.432526 0.710666 0.667139
O O10 0.275697 0.724304 0.083334
#
# Coordination Sequence:
#
# PCOD9583180 Si02
#       4
#    12  12  12  12
#     4  11  21  34  53  81 112 141 179 224 272 323
#     4  10  19  33  53  78 110 146 180 221 275 332
#     4  10  20  34  52  77 111 142 177 222 272 324
#     4   9  20  33  50  80 113 143 176 219 268 327
#
# _framework density 18.963788999999998
#
# number of rings (size 3 to 8) (size 9 to 14) (size 15 to 20)
#    0.000    2.000    0.000    6.000    0.000   10.000 
#    0.000    0.000    0.000    0.000    0.000   28.000 
#    0.000    0.000    0.000    0.000    0.000    0.000 
#
# Total GULP energy -267261.932752 kJ/mol
# GULP energy per Si atom -5567.956932 kJ/mol
# Density = 1.892063 g / cm^3
# Si number density = 18.963789 Si / 1000 Ang^3
#
#
#
# Elastic Constant Matrix: (Units=GPa)
#
#
# Indices 1 2 3 4 5 6 
#
# 1 65.0902 43.9306 23.5262 0.0000 0.0000 0.0000
# 2 43.9306 65.0902 23.5262 0.0000 0.0000 0.0000
# 3 23.5262 23.5262 95.1619 0.0000 0.0000 0.0000
# 4 0.0000 0.0000 0.0000 20.5753 0.0000 0.0000
# 5 0.0000 0.0000 0.0000 0.0000 20.5753 0.0000
# 6 0.0000 0.0000 0.0000 0.0000 0.0000 10.5798
#
#
#
# Elastic Compliance Matrix: (Units=1/GPa)
#
#
# Indices 1 2 3 4 5 6 
#
# 1 0.028764 -0.018496 -0.002539 0.000000 0.000000 0.000000
# 2 -0.018496 0.028764 -0.002539 0.000000 0.000000 0.000000
# 3 -0.002539 -0.002539 0.011764 0.000000 0.000000 0.000000
# 4 0.000000 0.000000 0.000000 0.048602 0.000000 0.000000
# 5 0.000000 0.000000 0.000000 0.000000 0.048602 0.000000
# 6 0.000000 0.000000 0.000000 0.000000 0.000000 0.094520
#
#
# Mechanical properties :
#
#
# Convention : Reuss Voigt Hill
#
# Bulk Modulus (GPa) = 45.15531 45.25650 45.20591
# Shear Modulus (GPa) = 15.84573 19.30339 17.57456
#
# Velocity S-wave (km/s) = 2.89377 3.19393 3.04755
# Velocity P-wave (km/s) = 5.91847 6.12520 6.02272
#
# Compressibility (1/GPa) = 0.02214579
#
# Stress axis : x y z
#
# Youngs Moduli (GPa) = 34.76572 34.76572 85.00820
#
# Poissons Ratio (x) = 0.64302 0.21580
# Poissons Ratio (y) = 0.64302 0.21580
# Poissons Ratio (z) = 0.08825 0.08825
#
# Static dielectric constant tensor:
#      x y z
#    x 1.708080 0.000000 0.000000 
#    y 0.000000 1.708080 0.000000 
#    z 0.000000 0.000000 1.764010 
# 
# From -- ./inp_files/7276.got.cif
#   From: 2010.05.17/outbox.cif.g08.bks.cpg/sg179_4_cif.got.tgz:7276.got - 2010.05.20 11:37:33.
