data_PCOD9583753
_publ_section_title
;
Structure prediction by ZEFSAII (Michael W. Deem and Ramdas Pophale) SiO2 
 PCOD9583753
Probable space group: P 62 2 2
;
_chemical_formula_sum "Si O2"
_cell_formula_units_Z 66
_cell_length_a 18.360831
_cell_length_b 18.360831
_cell_length_c 12.073305
_cell_angle_alpha 90.000000
_cell_angle_beta 90.000000
_cell_angle_gamma 120.000000
_cell_volume 3524.856735
_symmetry_space_group_name_H-M "P 62 2 2"
_symmetry_group_IT_number 180
_symmetry_cell_setting 'hexagonal'
loop_
_space_group_symop_operation_xyz
x,y,z
x-y,x,1/3+z
-y,x-y,2/3+z
-x,-y,z
-x+y,-x,1/3+z
y,-x+y,2/3+z
x-y,-y,-z
-x,-x+y,1/3-z
y,x,2/3-z
-y,-x,2/3-z
-x+y,y,-z
x,x-y,1/3-z
loop_
_atom_site_type_symbol
_atom_site_label
_atom_site_fract_x
_atom_site_fract_y
_atom_site_fract_z
Si Si1 0.227275 0.454549 0.000000
Si Si2 0.411908 0.599953 0.566406
Si Si3 0.369062 0.049960 0.604134
Si Si4 0.041249 0.808904 0.404508
Si Si5 0.070820 0.921588 0.072105
Si Si6 0.500000 0.000000 0.690776
Si Si7 0.640448 0.280896 0.000000
O O1 0.197721 0.508325 0.929712
O O2 0.257469 0.406289 0.918098
O O3 0.439891 0.529727 0.580747
O O4 0.386101 0.610497 0.443101
O O5 0.341398 0.599098 0.650841
O O6 0.314262 0.034430 0.714784
O O7 0.312629 0.000000 0.500000
O O8 0.438242 0.022240 0.622110
O O9 0.120648 0.879353 0.333334
O O10 0.054574 0.844427 0.527703
O O11 0.961442 0.806532 0.346522
O O12 0.000000 0.896252 0.166667
O O13 0.085072 0.000000 0.000000
#
# Coordination Sequence:
#
# PCOD9583753 Si02
#       7
#     6  12  12  12  12   6   6
#     4   9  20  34  58  85 113 143 187 234 298 336
#     4   9  19  36  58  90 114 150 190 239 282 351
#     4  11  21  36  58  84 115 149 185 241 294 348
#     4  10  20  34  54  80 114 152 193 232 285 343
#     4  10  21  34  55  83 115 154 199 244 280 327
#     4  10  23  37  58  90 120 138 197 243 294 344
#     4   9  18  35  64  81 120 158 193 224 287 354
#
# _framework density 18.724166
#
# number of rings (size 3 to 8) (size 9 to 14) (size 15 to 20)
#    0.000    2.182    0.909    2.455    2.545    7.273 
#    0.000    0.000   16.000    0.000    0.000    0.000 
#    0.000    0.000    0.000    0.000    0.000    0.000 
#
# Total GULP energy -367476.093807 kJ/mol
# GULP energy per Si atom -5567.819603 kJ/mol
# Density = 1.868155 g / cm^3
# Si number density = 18.724166 Si / 1000 Ang^3
#
#
#
# Elastic Constant Matrix: (Units=GPa)
#
#
# Indices 1 2 3 4 5 6 
#
# 1 94.0491 33.8096 21.5429 0.0000 0.0000 0.0000
# 2 33.8096 94.0491 21.5429 0.0000 0.0000 0.0000
# 3 21.5429 21.5429 39.1811 0.0000 0.0000 0.0000
# 4 0.0000 0.0000 0.0000 14.2463 0.0000 0.0000
# 5 0.0000 0.0000 0.0000 0.0000 14.2463 0.0000
# 6 0.0000 0.0000 0.0000 0.0000 0.0000 30.1197
#
#
#
# Elastic Compliance Matrix: (Units=1/GPa)
#
#
# Indices 1 2 3 4 5 6 
#
# 1 0.013100 -0.003500 -0.005278 0.000000 0.000000 0.000000
# 2 -0.003500 0.013100 -0.005278 0.000000 0.000000 0.000000
# 3 -0.005278 -0.005278 0.031327 0.000000 0.000000 0.000000
# 4 0.000000 0.000000 0.000000 0.070194 0.000000 0.000000
# 5 0.000000 0.000000 0.000000 0.000000 0.070194 0.000000
# 6 0.000000 0.000000 0.000000 0.000000 0.000000 0.033201
#
#
# Mechanical properties :
#
#
# Convention : Reuss Voigt Hill
#
# Bulk Modulus (GPa) = 33.99813 42.34112 38.16962
# Shear Modulus (GPa) = 18.58504 21.74803 20.16653
#
# Velocity S-wave (km/s) = 3.15393 3.41177 3.28538
# Velocity P-wave (km/s) = 5.60890 6.17919 5.90094
#
# Compressibility (1/GPa) = 0.02941339
#
# Stress axis : x y z
#
# Youngs Moduli (GPa) = 76.33523 76.33523 31.92158
#
# Poissons Ratio (x) = 0.26720 0.16849
# Poissons Ratio (y) = 0.26720 0.16849
# Poissons Ratio (z) = 0.40292 0.40292
#
# Static dielectric constant tensor:
#      x y z
#    x 1.707490 0.000000 0.000000 
#    y 0.000000 1.707490 0.000000 
#    z 0.000000 0.000000 1.667360 
# 
# From -- ./inp_files/6384.got.cif
#   From: 2010.05.17/outbox.cif.g08.bks.cpg/sg180_4_cif.got.tgz:6384.got - 2010.05.20 11:43:55.
