data_PCOD9583244
_publ_section_title
;
Structure prediction by ZEFSAII (Michael W. Deem and Ramdas Pophale) SiO2 
 PCOD9583244
Probable space group: P 65 2 2
;
_chemical_formula_sum "Si O2"
_cell_formula_units_Z 36
_cell_length_a 13.019408
_cell_length_b 13.019408
_cell_length_c 10.486649
_cell_angle_alpha 90.000000
_cell_angle_beta 90.000000
_cell_angle_gamma 120.000000
_cell_volume 1539.394171
_symmetry_space_group_name_H-M "P 65 2 2"
_symmetry_group_IT_number 179
_symmetry_cell_setting 'hexagonal'
loop_
_space_group_symop_operation_xyz
x,y,z
x-y,x,5/6+z
-y,x-y,2/3+z
-x,-y,1/2+z
-x+y,-x,1/3+z
y,-x+y,1/6+z
x-y,-y,-z
-x,-x+y,1/3-z
y,x,2/3-z
-y,-x,1/6-z
-x+y,y,1/2-z
x,x-y,5/6-z
loop_
_atom_site_type_symbol
_atom_site_label
_atom_site_fract_x
_atom_site_fract_y
_atom_site_fract_z
Si Si1 0.404424 0.347335 0.475304
Si Si2 0.427034 0.854068 0.250000
Si Si3 0.122149 0.193530 0.083483
Si Si4 0.263324 0.631662 0.416667
O O1 0.371232 0.371232 0.333334
O O2 0.383427 0.433250 0.571448
O O3 0.322279 0.218013 0.536213
O O4 0.537835 0.370162 0.482534
O O5 0.351818 0.760687 0.360225
O O6 0.178583 0.111207 0.111383
O O7 0.000000 0.143852 0.166667
#
# Coordination Sequence:
#
# PCOD9583244 Si02
#       4
#    12   6  12   6
#     4  11  23  41  66  93 124 166 220 274 324 397
#     4  11  24  40  62  92 126 167 208 264 336 397
#     4  10  20  35  59  90 119 155 208 263 318 381
#     4  11  24  42  64  94 132 167 212 270 340 415
#
# _framework density 23.385822999999998
#
# number of rings (size 3 to 8) (size 9 to 14) (size 15 to 20)
#    0.000    1.333    0.000    7.000    0.000    5.333 
#    0.000    6.667    0.000   20.000    0.000    0.000 
#    0.000    0.000    0.000    0.000    0.000    0.000 
#
# Total GULP energy -200481.408766 kJ/mol
# GULP energy per Si atom -5568.928021 kJ/mol
# Density = 2.333260 g / cm^3
# Si number density = 23.385823 Si / 1000 Ang^3
#
#
#
# Elastic Constant Matrix: (Units=GPa)
#
#
# Indices 1 2 3 4 5 6 
#
# 1 138.2217 45.1007 29.8916 0.0000 0.0000 0.0000
# 2 45.1007 138.2217 29.8916 0.0000 0.0000 0.0000
# 3 29.8916 29.8916 59.9688 0.0000 0.0000 0.0000
# 4 0.0000 0.0000 0.0000 30.6113 0.0000 0.0000
# 5 0.0000 0.0000 0.0000 0.0000 30.6113 0.0000
# 6 0.0000 0.0000 0.0000 0.0000 0.0000 46.5605
#
#
#
# Elastic Compliance Matrix: (Units=1/GPa)
#
#
# Indices 1 2 3 4 5 6 
#
# 1 0.008626 -0.002113 -0.003247 0.000000 0.000000 0.000000
# 2 -0.002113 0.008626 -0.003247 0.000000 0.000000 0.000000
# 3 -0.003247 -0.003247 0.019912 0.000000 0.000000 0.000000
# 4 0.000000 0.000000 0.000000 0.032668 0.000000 0.000000
# 5 0.000000 0.000000 0.000000 0.000000 0.032668 0.000000
# 6 0.000000 0.000000 0.000000 0.000000 0.000000 0.021477
#
#
# Mechanical properties :
#
#
# Convention : Reuss Voigt Hill
#
# Bulk Modulus (GPa) = 50.11940 60.68667 55.40303
# Shear Modulus (GPa) = 33.82034 36.99184 35.40609
#
# Velocity S-wave (km/s) = 3.80701 3.98151 3.89523
# Velocity P-wave (km/s) = 6.38768 6.86608 6.63120
#
# Compressibility (1/GPa) = 0.01995236
#
# Stress axis : x y z
#
# Youngs Moduli (GPa) = 115.92598 115.92598 50.22089
#
# Poissons Ratio (x) = 0.24490 0.16305
# Poissons Ratio (y) = 0.24490 0.16305
# Poissons Ratio (z) = 0.37638 0.37638
#
# Static dielectric constant tensor:
#      x y z
#    x 1.930800 0.000000 0.000000 
#    y 0.000000 1.930800 0.000000 
#    z 0.000000 0.000000 2.173780 
# 
# From -- ./inp_files/5325.got.cif
#   From: 2010.05.17/outbox.cif.g08.bks.cpg/sg179_3_cif.got.tgz:5325.got - 2010.05.20 11:37:33.
