data_PCOD9583896
_publ_section_title
;
Structure prediction by ZEFSAII (Michael W. Deem and Ramdas Pophale) SiO2 
 PCOD9583896
Probable space group: P 62 2 2
;
_chemical_formula_sum "Si O2"
_cell_formula_units_Z 60
_cell_length_a 18.223825
_cell_length_b 18.223825
_cell_length_c 9.973668
_cell_angle_alpha 90.000000
_cell_angle_beta 90.000000
_cell_angle_gamma 120.000000
_cell_volume 2868.564449
_symmetry_space_group_name_H-M "P 62 2 2"
_symmetry_group_IT_number 180
_symmetry_cell_setting 'hexagonal'
loop_
_space_group_symop_operation_xyz
x,y,z
x-y,x,1/3+z
-y,x-y,2/3+z
-x,-y,z
-x+y,-x,1/3+z
y,-x+y,2/3+z
x-y,-y,-z
-x,-x+y,1/3-z
y,x,2/3-z
-y,-x,2/3-z
-x+y,y,-z
x,x-y,1/3-z
loop_
_atom_site_type_symbol
_atom_site_label
_atom_site_fract_x
_atom_site_fract_y
_atom_site_fract_z
Si Si1 0.880269 0.119732 0.333334
Si Si2 0.053240 0.259094 0.421082
Si Si3 0.182516 0.800938 0.112596
Si Si4 0.516317 0.258159 0.666667
Si Si5 0.926903 0.594716 0.585829
Si Si6 0.424062 0.625406 0.177358
O O1 0.840607 0.142803 0.208333
O O2 0.982174 0.174631 0.346709
O O3 0.120909 0.241818 0.500000
O O4 0.102868 0.336298 0.317744
O O5 0.027632 0.310305 0.524742
O O6 0.198203 0.741483 0.213121
O O7 0.264403 0.854154 0.018827
O O8 0.569782 0.220684 0.739240
O O9 0.880964 0.515271 0.486715
O O10 0.000000 0.590867 0.666667
O O11 0.402194 0.597807 0.333334
O O12 0.436056 0.718028 0.166667
#
# Coordination Sequence:
#
# PCOD9583896 Si02
#       6
#     6  12  12   6  12  12
#     4  11  20  38  64  96 132 180 225 282 345 418
#     4  10  22  38  67  99 134 175 232 285 347 419
#     4  10  21  40  64  96 132 176 224 275 342 408
#     4  11  24  42  66  97 143 179 229 284 340 426
#     4  11  22  42  65 100 133 177 231 288 340 408
#     4  12  24  41  66 100 139 184 228 281 345 417
#
# _framework density 20.916385999999999
#
# number of rings (size 3 to 8) (size 9 to 14) (size 15 to 20)
#    0.000    1.200    5.000    2.400    0.000    0.400 
#    0.000    0.000    0.000    8.400    0.000    0.000 
#    0.000    0.000    0.000    0.000    0.000    0.000 
#
# Total GULP energy -334191.769424 kJ/mol
# GULP energy per Si atom -5569.862824 kJ/mol
# Density = 2.086878 g / cm^3
# Si number density = 20.916386 Si / 1000 Ang^3
#
#
#
# Elastic Constant Matrix: (Units=GPa)
#
#
# Indices 1 2 3 4 5 6 
#
# 1 103.7977 81.0437 40.8064 0.0000 0.0000 0.0000
# 2 81.0437 103.7977 40.8064 0.0000 0.0000 0.0000
# 3 40.8064 40.8064 93.0218 0.0000 0.0000 0.0000
# 4 0.0000 0.0000 0.0000 -25.8032 0.0000 0.0000
# 5 0.0000 0.0000 0.0000 0.0000 -25.8032 0.0000
# 6 0.0000 0.0000 0.0000 0.0000 0.0000 11.3770
#
#
#
# Elastic Compliance Matrix: (Units=1/GPa)
#
#
# Indices 1 2 3 4 5 6 
#
# 1 0.025329 -0.018619 -0.002943 0.000000 0.000000 0.000000
# 2 -0.018619 0.025329 -0.002943 0.000000 0.000000 0.000000
# 3 -0.002943 -0.002943 0.013333 0.000000 0.000000 0.000000
# 4 0.000000 0.000000 0.000000 -0.038755 0.000000 0.000000
# 5 0.000000 0.000000 0.000000 0.000000 -0.038755 0.000000
# 6 0.000000 0.000000 0.000000 0.000000 0.000000 0.087896
#
#
# Mechanical properties :
#
#
# Convention : Reuss Voigt Hill
#
# Bulk Modulus (GPa) = 66.76295 69.54780 68.15537
# Shear Modulus (GPa) = 38.94637 1.15153 20.04895
#
# Velocity S-wave (km/s) = 4.31977 0.74279 3.09937
# Velocity P-wave (km/s) = 7.54114 5.83594 6.74267
#
# Compressibility (1/GPa) = 0.01497837
#
# Stress axis : x y z
#
# Youngs Moduli (GPa) = 39.48056 39.48056 75.00464
#
# Poissons Ratio (x) = 0.73510 0.22076
# Poissons Ratio (y) = 0.73510 0.22076
# Poissons Ratio (z) = 0.11620 0.11620
#
# Static dielectric constant tensor:
#      x y z
#    x 1.805850 0.000000 0.000000 
#    y 0.000000 1.805850 0.000000 
#    z 0.000000 0.000000 1.586450 
# 
# From -- ./inp_files/4869.got.cif
#   From: 2010.05.17/outbox.cif.g08.bks.cpg/sg180_3_cif.got.tgz:4869.got - 2010.05.20 11:43:55.
