data_PCOD9583458
_publ_section_title
;
Structure prediction by ZEFSAII (Michael W. Deem and Ramdas Pophale) SiO2 
 PCOD9583458
Probable space group: P 65 2 2
;
_chemical_formula_sum "Si O2"
_cell_formula_units_Z 54
_cell_length_a 10.096041
_cell_length_b 10.096041
_cell_length_c 23.731553
_cell_angle_alpha 90.000000
_cell_angle_beta 90.000000
_cell_angle_gamma 120.000000
_cell_volume 2094.879285
_symmetry_space_group_name_H-M "P 65 2 2"
_symmetry_group_IT_number 179
_symmetry_cell_setting 'hexagonal'
loop_
_space_group_symop_operation_xyz
x,y,z
x-y,x,5/6+z
-y,x-y,2/3+z
-x,-y,1/2+z
-x+y,-x,1/3+z
y,-x+y,1/6+z
x-y,-y,-z
-x,-x+y,1/3-z
y,x,2/3-z
-y,-x,1/6-z
-x+y,y,1/2-z
x,x-y,5/6-z
loop_
_atom_site_type_symbol
_atom_site_label
_atom_site_fract_x
_atom_site_fract_y
_atom_site_fract_z
Si Si1 0.027407 0.831670 0.977297
Si Si2 0.653123 0.326562 0.416667
Si Si3 0.284911 0.262371 0.519878
Si Si4 0.426214 0.672284 0.797517
Si Si5 0.532254 0.984966 0.374141
O O1 0.019078 0.693849 0.013898
O O2 0.859923 0.817469 0.979103
O O3 0.043907 0.790976 0.913525
O O4 0.148460 0.000000 0.000000
O O5 0.685094 0.389102 0.351175
O O6 0.580203 0.427509 0.436771
O O7 0.398895 0.193637 0.520424
O O8 0.394877 0.437729 0.501651
O O9 0.378910 0.757820 0.750000
O O10 0.412697 0.533825 0.761628
#
# Coordination Sequence:
#
# PCOD9583458 Si02
#       5
#    12   6  12  12  12
#     4  12  27  49  79 120 169 219 277 357 438 505
#     4  10  24  44  80 118 158 214 284 346 406 500
#     4  11  24  48  78 114 163 226 279 341 430 512
#     4  11  24  48  80 120 157 218 279 346 420 510
#     4  11  25  48  83 118 162 218 289 343 425 508
#
# _framework density 25.777142999999999
#
# number of rings (size 3 to 8) (size 9 to 14) (size 15 to 20)
#    0.000    0.889    2.222    4.667    0.000    7.111 
#    2.000    2.222    0.000    0.000    0.000    0.000 
#    0.000    0.000    0.000    0.000    0.000    0.000 
#
# Total GULP energy -301644.493197 kJ/mol
# GULP energy per Si atom -5586.009133 kJ/mol
# Density = 2.571847 g / cm^3
# Si number density = 25.777143 Si / 1000 Ang^3
#
#
#
# Elastic Constant Matrix: (Units=GPa)
#
#
# Indices 1 2 3 4 5 6 
#
# 1 103.7388 50.4964 24.3348 0.0000 0.0000 0.0000
# 2 50.4964 103.7388 24.3348 0.0000 0.0000 0.0000
# 3 24.3348 24.3348 130.1532 0.0000 0.0000 0.0000
# 4 0.0000 0.0000 0.0000 41.1593 0.0000 0.0000
# 5 0.0000 0.0000 0.0000 0.0000 41.1593 0.0000
# 6 0.0000 0.0000 0.0000 0.0000 0.0000 26.6212
#
#
#
# Elastic Compliance Matrix: (Units=1/GPa)
#
#
# Indices 1 2 3 4 5 6 
#
# 1 0.012836 -0.005946 -0.001288 0.000000 0.000000 0.000000
# 2 -0.005946 0.012836 -0.001288 0.000000 0.000000 0.000000
# 3 -0.001288 -0.001288 0.008165 0.000000 0.000000 0.000000
# 4 0.000000 0.000000 0.000000 0.024296 0.000000 0.000000
# 5 0.000000 0.000000 0.000000 0.000000 0.024296 0.000000
# 6 0.000000 0.000000 0.000000 0.000000 0.000000 0.037564
#
#
# Mechanical properties :
#
#
# Convention : Reuss Voigt Hill
#
# Bulk Modulus (GPa) = 59.55140 59.55145 59.55142
# Shear Modulus (GPa) = 35.05449 37.68564 36.37006
#
# Velocity S-wave (km/s) = 3.69169 3.82773 3.76033
# Velocity P-wave (km/s) = 6.42837 6.53360 6.48120
#
# Compressibility (1/GPa) = 0.01679222
#
# Stress axis : x y z
#
# Youngs Moduli (GPa) = 77.90549 77.90549 122.47427
#
# Poissons Ratio (x) = 0.46322 0.15778
# Poissons Ratio (y) = 0.46322 0.15778
# Poissons Ratio (z) = 0.10036 0.10036
#
# Static dielectric constant tensor:
#      x y z
#    x 1.969560 0.000000 0.000000 
#    y 0.000000 1.969560 0.000000 
#    z 0.000000 0.000000 2.050180 
# 
# From -- ./inp_files/8151.got.cif
#   From: 2010.05.17/outbox.cif.g08.bks.cpg/sg179_5_cif.got.tgz:8151.got - 2010.05.20 11:37:33.
