data_PCOD9583767
_publ_section_title
;
Structure prediction by ZEFSAII (Michael W. Deem and Ramdas Pophale) SiO2 
 PCOD9583767
Probable space group: P 62 2 2
;
_chemical_formula_sum "Si O2"
_cell_formula_units_Z 36
_cell_length_a 14.405777
_cell_length_b 14.405777
_cell_length_c 9.525450
_cell_angle_alpha 90.000000
_cell_angle_beta 90.000000
_cell_angle_gamma 120.000000
_cell_volume 1711.943821
_symmetry_space_group_name_H-M "P 62 2 2"
_symmetry_group_IT_number 180
_symmetry_cell_setting 'hexagonal'
loop_
_space_group_symop_operation_xyz
x,y,z
x-y,x,1/3+z
-y,x-y,2/3+z
-x,-y,z
-x+y,-x,1/3+z
y,-x+y,2/3+z
x-y,-y,-z
-x,-x+y,1/3-z
y,x,2/3-z
-y,-x,2/3-z
-x+y,y,-z
x,x-y,1/3-z
loop_
_atom_site_type_symbol
_atom_site_label
_atom_site_fract_x
_atom_site_fract_y
_atom_site_fract_z
Si Si1 0.123390 0.742785 0.472648
Si Si2 0.076845 0.707736 0.031799
Si Si3 0.210342 0.593967 0.413672
O O1 0.190693 0.809308 0.333334
O O2 0.173987 0.826926 0.598431
O O3 0.150370 0.647148 0.493435
O O4 0.999366 0.691034 0.433039
O O5 0.000000 0.667821 0.166667
O O6 0.128711 0.632073 0.015021
O O7 0.306857 0.693144 0.333334
O O8 0.273940 0.547880 0.500000
#
# Coordination Sequence:
#
# PCOD9583767 Si02
#       3
#    12  12  12
#     4   9  19  31  54  81 114 159 210 258 297 365
#     4  10  20  36  55  83 116 165 218 256 307 368
#     4  11  20  32  52  82 122 163 206 249 303 377
#
# _framework density 21.028727
#
# number of rings (size 3 to 8) (size 9 to 14) (size 15 to 20)
#    0.000    2.000    3.333    1.000    0.000    6.667 
#    0.000    1.667    0.000    0.000    0.000    0.000 
#    0.000  113.333    0.000    0.000    0.000    0.000 
#
# Total GULP energy -200893.756456 kJ/mol
# GULP energy per Si atom -5580.382124 kJ/mol
# Density = 2.098086 g / cm^3
# Si number density = 21.028727 Si / 1000 Ang^3
#
#
#
# Elastic Constant Matrix: (Units=GPa)
#
#
# Indices 1 2 3 4 5 6 
#
# 1 102.9271 65.7695 42.3076 0.0000 0.0000 0.0000
# 2 65.7695 102.9271 42.3076 0.0000 0.0000 0.0000
# 3 42.3076 42.3076 31.0186 0.0000 0.0000 0.0000
# 4 0.0000 0.0000 0.0000 30.7292 0.0000 0.0000
# 5 0.0000 0.0000 0.0000 0.0000 30.7292 0.0000
# 6 0.0000 0.0000 0.0000 0.0000 0.0000 18.5788
#
#
#
# Elastic Compliance Matrix: (Units=1/GPa)
#
#
# Indices 1 2 3 4 5 6 
#
# 1 0.022839 -0.004073 -0.025596 0.000000 0.000000 0.000000
# 2 -0.004073 0.022839 -0.025596 0.000000 0.000000 0.000000
# 3 -0.025596 -0.025596 0.102063 0.000000 0.000000 0.000000
# 4 0.000000 0.000000 0.000000 0.032542 0.000000 0.000000
# 5 0.000000 0.000000 0.000000 0.000000 0.032542 0.000000
# 6 0.000000 0.000000 0.000000 0.000000 0.000000 0.053825
#
#
# Mechanical properties :
#
#
# Convention : Reuss Voigt Hill
#
# Bulk Modulus (GPa) = 26.87441 59.73802 43.30622
# Shear Modulus (GPa) = 12.83414 21.77334 17.30374
#
# Velocity S-wave (km/s) = 2.47313 3.22127 2.87167
# Velocity P-wave (km/s) = 4.57851 6.50422 5.62440
#
# Compressibility (1/GPa) = 0.03721012
#
# Stress axis : x y z
#
# Youngs Moduli (GPa) = 43.78393 43.78393 9.79788
#
# Poissons Ratio (x) = 0.17833 0.25079
# Poissons Ratio (y) = 0.17833 0.25079
# Poissons Ratio (z) = 1.12071 1.12071
#
# Static dielectric constant tensor:
#      x y z
#    x 1.763880 0.000000 0.000000 
#    y 0.000000 1.763880 0.000000 
#    z 0.000000 0.000000 1.845060 
# 
# From -- ./inp_files/5467.got.cif
#   From: 2010.05.17/outbox.cif.g08.bks.cpg/sg180_3_cif.got.tgz:5467.got - 2010.05.20 11:43:55.
