data_PCOD9583349
_publ_section_title
;
Structure prediction by ZEFSAII (Michael W. Deem and Ramdas Pophale) SiO2 
 PCOD9583349
Probable space group: P 65 2 2
;
_chemical_formula_sum "Si O2"
_cell_formula_units_Z 60
_cell_length_a 14.167547
_cell_length_b 14.167547
_cell_length_c 15.198304
_cell_angle_alpha 90.000000
_cell_angle_beta 90.000000
_cell_angle_gamma 120.000000
_cell_volume 2641.892141
_symmetry_space_group_name_H-M "P 65 2 2"
_symmetry_group_IT_number 179
_symmetry_cell_setting 'hexagonal'
loop_
_space_group_symop_operation_xyz
x,y,z
x-y,x,5/6+z
-y,x-y,2/3+z
-x,-y,1/2+z
-x+y,-x,1/3+z
y,-x+y,1/6+z
x-y,-y,-z
-x,-x+y,1/3-z
y,x,2/3-z
-y,-x,1/6-z
-x+y,y,1/2-z
x,x-y,5/6-z
loop_
_atom_site_type_symbol
_atom_site_label
_atom_site_fract_x
_atom_site_fract_y
_atom_site_fract_z
Si Si1 0.632982 0.422229 0.389322
Si Si2 0.549970 0.774985 0.416667
Si Si3 0.564334 0.000000 0.000000
Si Si4 0.000000 0.277401 0.666667
Si Si5 0.012333 0.303353 0.012637
Si Si6 0.873056 0.936528 0.916667
Si Si7 0.367850 0.118756 0.165244
O O1 0.600036 0.300018 0.416667
O O2 0.745710 0.472437 0.334279
O O3 0.547738 0.433645 0.325623
O O4 0.658383 0.513354 0.464451
O O5 0.627733 0.901201 0.442787
O O6 0.611790 0.972590 0.914413
O O7 0.930212 0.209335 0.751200
O O8 0.983008 0.187296 0.053745
O O9 0.142194 0.375047 0.016021
O O10 0.957584 0.285436 0.917217
O O11 0.943343 0.943343 0.833334
#
# Coordination Sequence:
#
# PCOD9583349 Si02
#       7
#    12   6   6   6  12   6  12
#     4  11  27  45  74 109 151 195 261 326 386 481
#     4  10  22  46  71 102 150 199 240 314 392 458
#     4  12  29  48  74 105 152 200 256 321 398 456
#     4  10  21  46  74  99 152 194 250 307 388 454
#     4  12  25  45  79 106 148 202 252 315 386 464
#     4  12  24  50  77 114 160 201 264 312 378 458
#     4  11  24  46  72 108 143 201 249 316 393 461
#
# _framework density 22.710996000000002
#
# number of rings (size 3 to 8) (size 9 to 14) (size 15 to 20)
#    0.000    0.800    3.000    4.800    7.000    0.800 
#    1.800    0.000    0.000    0.000    0.000    0.000 
#    0.000    0.000    0.000    0.000    0.000    0.000 
#
# Total GULP energy -334307.944246 kJ/mol
# GULP energy per Si atom -5571.799071 kJ/mol
# Density = 2.265930 g / cm^3
# Si number density = 22.710996 Si / 1000 Ang^3
#
#
#
# Elastic Constant Matrix: (Units=GPa)
#
#
# Indices 1 2 3 4 5 6 
#
# 1 66.2040 27.6033 25.5681 0.0000 0.0000 0.0000
# 2 27.6033 66.2040 25.5681 0.0000 0.0000 0.0000
# 3 25.5681 25.5681 131.6000 0.0000 0.0000 0.0000
# 4 0.0000 0.0000 0.0000 29.7585 0.0000 0.0000
# 5 0.0000 0.0000 0.0000 0.0000 29.7585 0.0000
# 6 0.0000 0.0000 0.0000 0.0000 0.0000 19.3004
#
#
#
# Elastic Compliance Matrix: (Units=1/GPa)
#
#
# Indices 1 2 3 4 5 6 
#
# 1 0.018915 -0.006992 -0.002316 0.000000 0.000000 0.000000
# 2 -0.006992 0.018915 -0.002316 0.000000 0.000000 0.000000
# 3 -0.002316 -0.002316 0.008499 0.000000 0.000000 0.000000
# 4 0.000000 0.000000 0.000000 0.033604 0.000000 0.000000
# 5 0.000000 0.000000 0.000000 0.000000 0.033604 0.000000
# 6 0.000000 0.000000 0.000000 0.000000 0.000000 0.051813
#
#
# Mechanical properties :
#
#
# Convention : Reuss Voigt Hill
#
# Bulk Modulus (GPa) = 43.32967 46.83186 45.08076
# Shear Modulus (GPa) = 25.47245 28.11469 26.79357
#
# Velocity S-wave (km/s) = 3.35265 3.52224 3.43849
# Velocity P-wave (km/s) = 5.84013 6.09977 5.97136
#
# Compressibility (1/GPa) = 0.02307888
#
# Stress axis : x y z
#
# Youngs Moduli (GPa) = 52.86928 52.86928 117.66238
#
# Poissons Ratio (x) = 0.36964 0.27256
# Poissons Ratio (y) = 0.36964 0.27256
# Poissons Ratio (z) = 0.12247 0.12247
#
# Static dielectric constant tensor:
#      x y z
#    x 1.877280 0.000000 0.000000 
#    y 0.000000 1.877280 0.000000 
#    z 0.000000 0.000000 1.857020 
# 
# From -- ./inp_files/5903.got.cif
#   From: 2010.05.17/outbox.cif.g08.bks.cpg/sg179_3_cif.got.tgz:5903.got - 2010.05.20 11:37:33.
