data_PCOD9583380
_publ_section_title
;
Structure prediction by ZEFSAII (Michael W. Deem and Ramdas Pophale) SiO2 
 PCOD9583380
Probable space group: P 65 2 2
;
_chemical_formula_sum "Si O2"
_cell_formula_units_Z 24
_cell_length_a 15.135809
_cell_length_b 15.135809
_cell_length_c 4.889283
_cell_angle_alpha 90.000000
_cell_angle_beta 90.000000
_cell_angle_gamma 120.000000
_cell_volume 970.034286
_symmetry_space_group_name_H-M "P 65 2 2"
_symmetry_group_IT_number 179
_symmetry_cell_setting 'hexagonal'
loop_
_space_group_symop_operation_xyz
x,y,z
x-y,x,5/6+z
-y,x-y,2/3+z
-x,-y,1/2+z
-x+y,-x,1/3+z
y,-x+y,1/6+z
x-y,-y,-z
-x,-x+y,1/3-z
y,x,2/3-z
-y,-x,1/6-z
-x+y,y,1/2-z
x,x-y,5/6-z
loop_
_atom_site_type_symbol
_atom_site_label
_atom_site_fract_x
_atom_site_fract_y
_atom_site_fract_z
Si Si1 0.075406 0.679359 0.398427
Si Si2 0.885882 0.771764 0.750000
Si Si3 0.275510 0.551019 0.750000
O O1 0.102130 0.797010 0.380271
O O2 0.185933 0.696741 0.307748
O O3 0.000000 0.632007 0.666667
O O4 0.000000 0.609273 0.166667
O O5 0.843573 0.843573 0.833334
O O6 0.377799 0.622202 0.583334
#
# Coordination Sequence:
#
# PCOD9583380 Si02
#       3
#    12   6   6
#     4  11  26  52  80 112 162 217 266 340 437 518
#     4  10  22  40  73 116 157 202 256 318 398 502
#     4  12  30  52  87 124 165 218 300 376 440 526
#
# _framework density 24.741395000000001
#
# number of rings (size 3 to 8) (size 9 to 14) (size 15 to 20)
#    0.000    1.000    0.000    6.000   10.500    2.000 
#    4.500    2.500    0.000    0.000    0.000    0.000 
#    0.000    0.000    0.000    0.000    0.000    0.000 
#
# Total GULP energy -133685.128574 kJ/mol
# GULP energy per Si atom -5570.213691 kJ/mol
# Density = 2.468508 g / cm^3
# Si number density = 24.741395 Si / 1000 Ang^3
#
#
#
# Elastic Constant Matrix: (Units=GPa)
#
#
# Indices 1 2 3 4 5 6 
#
# 1 937.7019 -653.5475 68.4825 0.0000 0.0000 0.0000
# 2 -653.5475 937.7019 68.4825 0.0000 0.0000 0.0000
# 3 68.4825 68.4825 164.9330 0.0000 0.0000 0.0000
# 4 0.0000 0.0000 0.0000 -14.3519 0.0000 0.0000
# 5 0.0000 0.0000 0.0000 0.0000 -14.3519 0.0000
# 6 0.0000 0.0000 0.0000 0.0000 0.0000 795.6247
#
#
#
# Elastic Compliance Matrix: (Units=1/GPa)
#
#
# Indices 1 2 3 4 5 6 
#
# 1 0.002514 0.001886 -0.001827 0.000000 0.000000 0.000000
# 2 0.001886 0.002514 -0.001827 0.000000 0.000000 0.000000
# 3 -0.001827 -0.001827 0.007580 0.000000 0.000000 0.000000
# 4 0.000000 0.000000 0.000000 -0.069677 0.000000 0.000000
# 5 0.000000 0.000000 0.000000 0.000000 -0.069677 0.000000
# 6 0.000000 0.000000 0.000000 0.000000 0.000000 0.001257
#
#
# Mechanical properties :
#
#
# Convention : Reuss Voigt Hill
#
# Bulk Modulus (GPa) = 110.22577 111.90796 111.06687
# Shear Modulus (GPa) = -42.04199 323.84545 140.90173
#
# Velocity S-wave (km/s) = -4.12668 11.45322 7.55470
# Velocity P-wave (km/s) = 4.68422 14.84018 11.00393
#
# Compressibility (1/GPa) = 0.00907229
#
# Stress axis : x y z
#
# Youngs Moduli (GPa) = 397.75623 397.75623 131.92389
#
# Poissons Ratio (x) = -0.75004 0.24100
# Poissons Ratio (y) = -0.75004 0.24100
# Poissons Ratio (z) = 0.72664 0.72664
#
# Static dielectric constant tensor:
#      x y z
#    x 2.031710 0.000000 0.000000 
#    y 0.000000 2.031710 0.000000 
#    z 0.000000 0.000000 2.058070 
# 
# From -- ./inp_files/151.got.cif
#   From: 2010.05.17/outbox.cif.g08.bks.cpg/sg179_1_cif.got.tgz:151.got - 2010.05.20 11:37:33.
