data_PCOD9583838
_publ_section_title
;
Structure prediction by ZEFSAII (Michael W. Deem and Ramdas Pophale) SiO2 
 PCOD9583838
Probable space group: P 62 2 2
;
_chemical_formula_sum "Si O2"
_cell_formula_units_Z 45
_cell_length_a 11.983930
_cell_length_b 11.983930
_cell_length_c 19.762991
_cell_angle_alpha 90.000000
_cell_angle_beta 90.000000
_cell_angle_gamma 120.000000
_cell_volume 2457.999735
_symmetry_space_group_name_H-M "P 62 2 2"
_symmetry_group_IT_number 180
_symmetry_cell_setting 'hexagonal'
loop_
_space_group_symop_operation_xyz
x,y,z
x-y,x,1/3+z
-y,x-y,2/3+z
-x,-y,z
-x+y,-x,1/3+z
y,-x+y,2/3+z
x-y,-y,-z
-x,-x+y,1/3-z
y,x,2/3-z
-y,-x,2/3-z
-x+y,y,-z
x,x-y,1/3-z
loop_
_atom_site_type_symbol
_atom_site_label
_atom_site_fract_x
_atom_site_fract_y
_atom_site_fract_z
Si Si1 0.090793 0.438737 0.364906
Si Si2 0.709645 0.419291 0.000000
Si Si3 0.070092 0.366253 0.097670
Si Si4 0.000000 0.000000 0.666667
Si Si5 0.189737 0.008182 0.225997
O O1 0.230149 0.563351 0.357622
O O2 0.068608 0.339246 0.423512
O O3 0.000000 0.500000 0.377526
O O4 0.037302 0.357784 0.294978
O O5 0.806912 0.511259 0.060348
O O6 0.122585 0.268762 0.114384
O O7 0.000000 0.373072 0.166667
O O8 0.908633 0.878064 0.622696
O O9 0.167787 0.083894 0.166667
#
# Coordination Sequence:
#
# PCOD9583838 Si02
#       5
#    12   6  12   3  12
#     4  10  20  42  62  88 130 166 213 271 329 391
#     4  10  21  40  68  88 134 175 212 278 322 394
#     4  11  20  38  64  97 123 163 222 269 326 394
#     4  12  20  40  64  92 124 166 214 266 326 378
#     4  12  23  37  63  95 127 168 210 273 332 390
#
# _framework density 18.307569999999998
#
# number of rings (size 3 to 8) (size 9 to 14) (size 15 to 20)
#    0.000    1.067    8.000    2.000    0.000    4.800 
#    4.800    0.000    0.000    0.000    0.000    0.000 
#    0.000    0.000    0.000    0.000    0.000    0.000 
#
# Total GULP energy -250791.326198 kJ/mol
# GULP energy per Si atom -5573.140582 kJ/mol
# Density = 1.826590 g / cm^3
# Si number density = 18.307570 Si / 1000 Ang^3
#
#
#
# Elastic Constant Matrix: (Units=GPa)
#
#
# Indices 1 2 3 4 5 6 
#
# 1 102.0650 48.9751 30.4156 0.0000 0.0000 0.0000
# 2 48.9751 102.0650 30.4156 0.0000 0.0000 0.0000
# 3 30.4156 30.4156 87.9381 0.0000 0.0000 0.0000
# 4 0.0000 0.0000 0.0000 28.4840 0.0000 0.0000
# 5 0.0000 0.0000 0.0000 0.0000 28.4840 0.0000
# 6 0.0000 0.0000 0.0000 0.0000 0.0000 26.5449
#
#
#
# Elastic Compliance Matrix: (Units=1/GPa)
#
#
# Indices 1 2 3 4 5 6 
#
# 1 0.013264 -0.005572 -0.002661 0.000000 0.000000 0.000000
# 2 -0.005572 0.013264 -0.002661 0.000000 0.000000 0.000000
# 3 -0.002661 -0.002661 0.013212 0.000000 0.000000 0.000000
# 4 0.000000 0.000000 0.000000 0.035107 0.000000 0.000000
# 5 0.000000 0.000000 0.000000 0.000000 0.035107 0.000000
# 6 0.000000 0.000000 0.000000 0.000000 0.000000 0.037672
#
#
# Mechanical properties :
#
#
# Convention : Reuss Voigt Hill
#
# Bulk Modulus (GPa) = 55.69672 56.85344 56.27508
# Shear Modulus (GPa) = 28.50659 28.85336 28.67998
#
# Velocity S-wave (km/s) = 3.95028 3.97424 3.96228
# Velocity P-wave (km/s) = 7.16206 7.22367 7.19293
#
# Compressibility (1/GPa) = 0.01795438
#
# Stress axis : x y z
#
# Youngs Moduli (GPa) = 75.39122 75.39122 75.68824
#
# Poissons Ratio (x) = 0.42007 0.20137
# Poissons Ratio (y) = 0.42007 0.20137
# Poissons Ratio (z) = 0.20058 0.20058
#
# Static dielectric constant tensor:
#      x y z
#    x 1.678240 0.000000 0.000000 
#    y 0.000000 1.678240 0.000000 
#    z 0.000000 0.000000 1.639430 
# 
# From -- ./inp_files/7382.got.cif
#   From: 2010.05.17/outbox.cif.g08.bks.cpg/sg180_4_cif.got.tgz:7382.got - 2010.05.20 11:43:55.
