data_PCOD9583772
_publ_section_title
;
Structure prediction by ZEFSAII (Michael W. Deem and Ramdas Pophale) SiO2 
 PCOD9583772
Probable space group: P 62 2 2
;
_chemical_formula_sum "Si O2"
_cell_formula_units_Z 96
_cell_length_a 14.341310
_cell_length_b 14.341310
_cell_length_c 26.033097
_cell_angle_alpha 90.000000
_cell_angle_beta 90.000000
_cell_angle_gamma 120.000000
_cell_volume 4636.968177
_symmetry_space_group_name_H-M "P 62 2 2"
_symmetry_group_IT_number 180
_symmetry_cell_setting 'hexagonal'
loop_
_space_group_symop_operation_xyz
x,y,z
x-y,x,1/3+z
-y,x-y,2/3+z
-x,-y,z
-x+y,-x,1/3+z
y,-x+y,2/3+z
x-y,-y,-z
-x,-x+y,1/3-z
y,x,2/3-z
-y,-x,2/3-z
-x+y,y,-z
x,x-y,1/3-z
loop_
_atom_site_type_symbol
_atom_site_label
_atom_site_fract_x
_atom_site_fract_y
_atom_site_fract_z
Si Si1 0.772913 0.353984 0.783027
Si Si2 0.933577 0.372864 0.409638
Si Si3 0.374250 0.964422 0.372475
Si Si4 0.271677 0.693568 0.273431
Si Si5 0.305417 0.222312 0.880020
Si Si6 0.218732 0.345793 0.442922
Si Si7 0.321510 0.409891 0.186466
Si Si8 0.095841 0.986395 0.891953
O O1 0.706579 0.293422 0.833334
O O2 0.693991 0.380433 0.750380
O O3 0.800161 0.268293 0.755442
O O4 0.874637 0.466779 0.800545
O O5 0.950010 0.335053 0.353724
O O6 0.811303 0.343883 0.415622
O O7 0.954199 0.327495 0.461503
O O8 0.000000 0.500000 0.410907
O O9 0.328553 0.848563 0.399227
O O10 0.345281 0.040543 0.405419
O O11 0.500000 0.000000 0.369592
O O12 0.296331 0.703670 0.333334
O O13 0.277649 0.277649 0.833334
O O14 0.189163 0.392166 0.804335
O O15 0.198450 0.106901 0.890685
O O16 0.174698 0.349395 0.500000
O O17 0.325792 0.336336 0.446411
O O18 0.131630 0.229152 0.419526
O O19 0.000000 0.000000 0.916183
O O20 0.056441 0.943560 0.833334
#
# Coordination Sequence:
#
# PCOD9583772 Si02
#       8
#    12  12  12  12  12  12  12  12
#     4  11  20  33  54  86 119 149 195 250 304 356
#     4  10  20  36  58  81 116 156 201 252 301 362
#     4  10  22  39  54  82 124 161 199 242 305 385
#     4  10  21  38  57  83 124 164 203 246 307 384
#     4  11  21  33  56  85 111 153 197 240 310 366
#     4   9  20  32  53  85 113 141 188 251 305 352
#     4  11  21  35  58  86 116 148 200 259 308 361
#     4   9  16  34  54  82 114 141 186 249 300 357
#
# _framework density 20.703182999999999
#
# number of rings (size 3 to 8) (size 9 to 14) (size 15 to 20)
#    0.000    1.875    2.500    2.625    1.750    0.250 
#    0.000    0.000    0.000    1.500    3.250   10.500 
#    0.000    0.000    0.000    0.000    0.000    0.000 
#
# Total GULP energy -534706.909885 kJ/mol
# GULP energy per Si atom -5569.863645 kJ/mol
# Density = 2.065606 g / cm^3
# Si number density = 20.703183 Si / 1000 Ang^3
#
#
#
# Elastic Constant Matrix: (Units=GPa)
#
#
# Indices 1 2 3 4 5 6 
#
# 1 118.2458 -1.9694 11.7532 0.0000 0.0000 0.0000
# 2 -1.9694 118.2458 11.7532 0.0000 0.0000 0.0000
# 3 11.7532 11.7532 41.7903 0.0000 0.0000 0.0000
# 4 0.0000 0.0000 0.0000 18.6556 0.0000 0.0000
# 5 0.0000 0.0000 0.0000 0.0000 18.6556 0.0000
# 6 0.0000 0.0000 0.0000 0.0000 0.0000 60.1076
#
#
#
# Elastic Compliance Matrix: (Units=1/GPa)
#
#
# Indices 1 2 3 4 5 6 
#
# 1 0.008719 0.000400 -0.002565 0.000000 0.000000 0.000000
# 2 0.000400 0.008719 -0.002565 0.000000 0.000000 0.000000
# 3 -0.002565 -0.002565 0.025372 0.000000 0.000000 0.000000
# 4 0.000000 0.000000 0.000000 0.053603 0.000000 0.000000
# 5 0.000000 0.000000 0.000000 0.000000 0.053603 0.000000
# 6 0.000000 0.000000 0.000000 0.000000 0.000000 0.016637
#
#
# Mechanical properties :
#
#
# Convention : Reuss Voigt Hill
#
# Bulk Modulus (GPa) = 29.98446 35.70622 32.84534
# Shear Modulus (GPa) = 26.70560 36.60008 31.65284
#
# Velocity S-wave (km/s) = 3.59545 4.20914 3.91434
# Velocity P-wave (km/s) = 5.63479 6.39583 6.02733
#
# Compressibility (1/GPa) = 0.03335061
#
# Stress axis : x y z
#
# Youngs Moduli (GPa) = 114.69826 114.69826 39.41430
#
# Poissons Ratio (x) = -0.04589 0.10108
# Poissons Ratio (y) = -0.04589 0.10108
# Poissons Ratio (z) = 0.29415 0.29415
#
# Static dielectric constant tensor:
#      x y z
#    x 1.931070 0.000000 0.000000 
#    y 0.000000 1.931070 0.000000 
#    z 0.000000 0.000000 1.700190 
# 
# From -- ./inp_files/12480.got.cif
#   From: 2010.05.17/outbox.cif.g08.bks.cpg/sg180_7_cif.got.tgz:12480.got - 2010.05.20 11:43:55.
