data_PCOD9583171
_publ_section_title
;
Structure prediction by ZEFSAII (Michael W. Deem and Ramdas Pophale) SiO2 
 PCOD9583171
Probable space group: P 65 2 2
;
_chemical_formula_sum "Si O2"
_cell_formula_units_Z 54
_cell_length_a 26.147571
_cell_length_b 26.147571
_cell_length_c 5.127334
_cell_angle_alpha 90.000000
_cell_angle_beta 90.000000
_cell_angle_gamma 120.000000
_cell_volume 3035.882385
_symmetry_space_group_name_H-M "P 65 2 2"
_symmetry_group_IT_number 179
_symmetry_cell_setting 'hexagonal'
loop_
_space_group_symop_operation_xyz
x,y,z
x-y,x,5/6+z
-y,x-y,2/3+z
-x,-y,1/2+z
-x+y,-x,1/3+z
y,-x+y,1/6+z
x-y,-y,-z
-x,-x+y,1/3-z
y,x,2/3-z
-y,-x,1/6-z
-x+y,y,1/2-z
x,x-y,5/6-z
loop_
_atom_site_type_symbol
_atom_site_label
_atom_site_fract_x
_atom_site_fract_y
_atom_site_fract_z
Si Si1 0.753097 0.069216 0.981784
Si Si2 0.712562 0.549556 0.750914
Si Si3 0.518323 0.320384 0.912487
Si Si4 0.821284 0.752298 0.347702
Si Si5 0.367518 0.735035 0.750000
O O1 0.782006 0.079596 0.697684
O O2 0.726127 0.111214 0.024099
O O3 0.802290 0.080677 0.202657
O O4 0.705021 0.000000 0.000000
O O5 0.775783 0.551566 0.750000
O O6 0.682738 0.527061 0.471488
O O7 0.672279 0.502050 0.970299
O O8 0.511395 0.255698 0.916667
O O9 0.583417 0.358923 0.793256
O O10 0.801456 0.801456 0.333334
O O11 0.887431 0.774862 0.250000
O O12 0.308341 0.691660 0.583334
#
# Coordination Sequence:
#
# PCOD9583171 Si02
#       5
#    12  12  12  12   6
#     4  10  20  33  52  77 103 138 175 213 264 315
#     4  10  19  32  49  70 105 131 163 209 252 306
#     4  10  21  33  47  74  98 134 170 195 250 306
#     4  10  19  31  49  75 105 138 179 215 261 315
#     4  12  22  34  54  72 108 138 168 206 248 298
#
# _framework density 17.787248999999999
#
# number of rings (size 3 to 8) (size 9 to 14) (size 15 to 20)
#    0.000    1.778    1.111    5.333    0.000    1.778 
#    0.000    0.000    0.000    0.000    0.000    7.778 
#    0.000    0.000    0.000    0.000    0.000    0.000 
#
# Total GULP energy -301347.986130 kJ/mol
# GULP energy per Si atom -5580.518262 kJ/mol
# Density = 1.774676 g / cm^3
# Si number density = 17.787249 Si / 1000 Ang^3
#
#
#
# Elastic Constant Matrix: (Units=GPa)
#
#
# Indices 1 2 3 4 5 6 
#
# 1 81.5588 38.7195 24.1570 0.0000 0.0000 0.0000
# 2 38.7195 81.5588 24.1570 0.0000 0.0000 0.0000
# 3 24.1570 24.1570 87.1811 0.0000 0.0000 0.0000
# 4 0.0000 0.0000 0.0000 24.2612 0.0000 0.0000
# 5 0.0000 0.0000 0.0000 0.0000 24.2612 0.0000
# 6 0.0000 0.0000 0.0000 0.0000 0.0000 21.4197
#
#
#
# Elastic Compliance Matrix: (Units=1/GPa)
#
#
# Indices 1 2 3 4 5 6 
#
# 1 0.016349 -0.006994 -0.002592 0.000000 0.000000 0.000000
# 2 -0.006994 0.016349 -0.002592 0.000000 0.000000 0.000000
# 3 -0.002592 -0.002592 0.012907 0.000000 0.000000 0.000000
# 4 0.000000 0.000000 0.000000 0.041218 0.000000 0.000000
# 5 0.000000 0.000000 0.000000 0.000000 0.041218 0.000000
# 6 0.000000 0.000000 0.000000 0.000000 0.000000 0.046686
#
#
# Mechanical properties :
#
#
# Convention : Reuss Voigt Hill
#
# Bulk Modulus (GPa) = 47.06204 47.15174 47.10689
# Shear Modulus (GPa) = 24.25216 24.87276 24.56246
#
# Velocity S-wave (km/s) = 3.69651 3.74351 3.72008
# Velocity P-wave (km/s) = 6.68840 6.72692 6.70768
#
# Compressibility (1/GPa) = 0.02124855
#
# Stress axis : x y z
#
# Youngs Moduli (GPa) = 61.16518 61.16518 77.47763
#
# Poissons Ratio (x) = 0.42778 0.20084
# Poissons Ratio (y) = 0.42778 0.20084
# Poissons Ratio (z) = 0.15856 0.15856
#
# Static dielectric constant tensor:
#      x y z
#    x 1.607510 0.000000 0.000000 
#    y 0.000000 1.607510 0.000000 
#    z 0.000000 0.000000 1.646550 
# 
# From -- ./inp_files/1180.got.cif
#   From: 2010.05.17/outbox.cif.g08.bks.cpg/sg179_1_cif.got.tgz:1180.got - 2010.05.20 11:37:33.
