data_PCOD9583552
_publ_section_title
;
Structure prediction by ZEFSAII (Michael W. Deem and Ramdas Pophale) SiO2 
 PCOD9583552
Probable space group: P 65 2 2
;
_chemical_formula_sum "Si O2"
_cell_formula_units_Z 42
_cell_length_a 7.972544
_cell_length_b 7.972544
_cell_length_c 33.158748
_cell_angle_alpha 90.000000
_cell_angle_beta 90.000000
_cell_angle_gamma 120.000000
_cell_volume 1825.251044
_symmetry_space_group_name_H-M "P 65 2 2"
_symmetry_group_IT_number 179
_symmetry_cell_setting 'hexagonal'
loop_
_space_group_symop_operation_xyz
x,y,z
x-y,x,5/6+z
-y,x-y,2/3+z
-x,-y,1/2+z
-x+y,-x,1/3+z
y,-x+y,1/6+z
x-y,-y,-z
-x,-x+y,1/3-z
y,x,2/3-z
-y,-x,1/6-z
-x+y,y,1/2-z
x,x-y,5/6-z
loop_
_atom_site_type_symbol
_atom_site_label
_atom_site_fract_x
_atom_site_fract_y
_atom_site_fract_z
Si Si1 0.939469 0.882648 0.539722
Si Si2 0.456605 0.262099 0.820055
Si Si3 0.387714 0.529065 0.442474
Si Si4 0.705406 0.294595 0.083334
O O1 0.742901 0.891040 0.537664
O O2 0.864053 0.654827 0.536586
O O3 0.061506 0.000000 0.500000
O O4 0.039203 0.960798 0.583334
O O5 0.457483 0.457483 0.833334
O O6 0.465201 0.144814 0.858311
O O7 0.629419 0.294431 0.791134
O O8 0.328520 0.664260 0.416667
O O9 0.478437 0.416596 0.418767
#
# Coordination Sequence:
#
# PCOD9583552 Si02
#       4
#    12  12  12   6
#     4  11  28  48  76 109 153 207 269 329 401 491
#     4  11  26  45  76 108 151 199 258 325 406 482
#     4  12  26  49  74 116 153 206 260 334 407 484
#     4  12  26  46  76 108 150 196 256 318 400 482
#
# _framework density 23.010535999999998
#
# number of rings (size 3 to 8) (size 9 to 14) (size 15 to 20)
#    0.000    0.571    4.286    1.714   14.000    3.429 
#    0.000    0.000    0.000    0.000    0.000    0.000 
#    0.000    0.000    0.000    0.000    0.000    0.000 
#
# Total GULP energy -234277.860850 kJ/mol
# GULP energy per Si atom -5578.044306 kJ/mol
# Density = 2.295816 g / cm^3
# Si number density = 23.010536 Si / 1000 Ang^3
#
#
#
# Elastic Constant Matrix: (Units=GPa)
#
#
# Indices 1 2 3 4 5 6 
#
# 1 121.8521 33.0432 57.6878 0.0000 0.0000 0.0000
# 2 33.0432 121.8521 57.6878 0.0000 0.0000 0.0000
# 3 57.6878 57.6878 133.7305 0.0000 0.0000 0.0000
# 4 0.0000 0.0000 0.0000 40.4779 0.0000 0.0000
# 5 0.0000 0.0000 0.0000 0.0000 40.4779 0.0000
# 6 0.0000 0.0000 0.0000 0.0000 0.0000 44.4044
#
#
#
# Elastic Compliance Matrix: (Units=1/GPa)
#
#
# Indices 1 2 3 4 5 6 
#
# 1 0.010386 -0.000874 -0.004103 0.000000 0.000000 0.000000
# 2 -0.000874 0.010386 -0.004103 0.000000 0.000000 0.000000
# 3 -0.004103 -0.004103 0.011018 0.000000 0.000000 0.000000
# 4 0.000000 0.000000 0.000000 0.024705 0.000000 0.000000
# 5 0.000000 0.000000 0.000000 0.000000 0.024705 0.000000
# 6 0.000000 0.000000 0.000000 0.000000 0.000000 0.022520
#
#
# Mechanical properties :
#
#
# Convention : Reuss Voigt Hill
#
# Bulk Modulus (GPa) = 73.37206 74.91914 74.14560
# Shear Modulus (GPa) = 39.54916 40.33977 39.94447
#
# Velocity S-wave (km/s) = 4.15027 4.19155 4.17096
# Velocity P-wave (km/s) = 7.41093 7.48697 7.44904
#
# Compressibility (1/GPa) = 0.01362917
#
# Stress axis : x y z
#
# Youngs Moduli (GPa) = 96.28068 96.28068 90.76099
#
# Poissons Ratio (x) = 0.08413 0.37243
# Poissons Ratio (y) = 0.08413 0.37243
# Poissons Ratio (z) = 0.39508 0.39508
#
# Static dielectric constant tensor:
#      x y z
#    x 1.930270 0.000000 0.000000 
#    y 0.000000 1.930270 0.000000 
#    z 0.000000 0.000000 2.161670 
# 
# From -- ./inp_files/9251.got.cif
#   From: 2010.05.17/outbox.cif.g08.bks.cpg/sg179_5_cif.got.tgz:9251.got - 2010.05.20 11:37:33.
