data_PCOD9583941
_publ_section_title
;
Structure prediction by ZEFSAII (Michael W. Deem and Ramdas Pophale) SiO2 
 PCOD9583941
Probable space group: P 62 2 2
;
_chemical_formula_sum "Si O2"
_cell_formula_units_Z 60
_cell_length_a 15.869048
_cell_length_b 15.869048
_cell_length_c 15.201100
_cell_angle_alpha 90.000000
_cell_angle_beta 90.000000
_cell_angle_gamma 120.000000
_cell_volume 3315.182149
_symmetry_space_group_name_H-M "P 62 2 2"
_symmetry_group_IT_number 180
_symmetry_cell_setting 'hexagonal'
loop_
_space_group_symop_operation_xyz
x,y,z
x-y,x,1/3+z
-y,x-y,2/3+z
-x,-y,z
-x+y,-x,1/3+z
y,-x+y,2/3+z
x-y,-y,-z
-x,-x+y,1/3-z
y,x,2/3-z
-y,-x,2/3-z
-x+y,y,-z
x,x-y,1/3-z
loop_
_atom_site_type_symbol
_atom_site_label
_atom_site_fract_x
_atom_site_fract_y
_atom_site_fract_z
Si Si1 0.888347 0.267380 0.272893
Si Si2 0.116117 0.559929 0.809601
Si Si3 0.605604 0.398927 0.999485
Si Si4 0.884126 0.272137 0.066240
Si Si5 0.698735 0.114677 0.999565
O O1 0.827372 0.172629 0.333334
O O2 0.840841 0.334758 0.291042
O O3 0.878357 0.245342 0.169021
O O4 0.003036 0.329142 0.294094
O O5 0.173485 0.588188 0.899586
O O6 0.136092 0.488271 0.749269
O O7 0.137697 0.653679 0.752184
O O8 0.000000 0.500000 0.827403
O O9 0.677052 0.354104 0.000000
O O10 0.503578 0.341010 0.949598
O O11 0.813473 0.177956 0.009482
O O12 0.657896 0.000000 0.000000
#
# Coordination Sequence:
#
# PCOD9583941 Si02
#       5
#    12  12  12  12  12
#     4  10  22  40  58  78 108 149 190 237 285 329
#     4   9  18  34  53  74 111 153 184 220 275 336
#     4  11  22  34  52  79 114 150 186 228 271 330
#     4  11  22  37  58  82 109 144 193 235 279 341
#     4   9  19  35  55  80 110 143 181 229 279 336
#
# _framework density 18.098552999999999
#
# number of rings (size 3 to 8) (size 9 to 14) (size 15 to 20)
#    0.000    2.000    0.000    6.000    2.800    4.000 
#    3.600    0.000    0.000    0.600    0.000    2.800 
#    0.000    0.000    0.000    0.000    0.000    0.000 
#
# Total GULP energy -335254.003678 kJ/mol
# GULP energy per Si atom -5587.566728 kJ/mol
# Density = 1.805736 g / cm^3
# Si number density = 18.098553 Si / 1000 Ang^3
#
#
#
# Elastic Constant Matrix: (Units=GPa)
#
#
# Indices 1 2 3 4 5 6 
#
# 1 96.7162 47.7506 23.3533 0.0000 0.0000 0.0000
# 2 47.7506 96.7162 23.3533 0.0000 0.0000 0.0000
# 3 23.3533 23.3533 69.5488 0.0000 0.0000 0.0000
# 4 0.0000 0.0000 0.0000 0.8448 0.0000 0.0000
# 5 0.0000 0.0000 0.0000 0.0000 0.8448 0.0000
# 6 0.0000 0.0000 0.0000 0.0000 0.0000 24.4828
#
#
#
# Elastic Compliance Matrix: (Units=1/GPa)
#
#
# Indices 1 2 3 4 5 6 
#
# 1 0.014094 -0.006329 -0.002607 0.000000 0.000000 0.000000
# 2 -0.006329 0.014094 -0.002607 0.000000 0.000000 0.000000
# 3 -0.002607 -0.002607 0.016129 0.000000 0.000000 0.000000
# 4 0.000000 0.000000 0.000000 1.183748 0.000000 0.000000
# 5 0.000000 0.000000 0.000000 0.000000 1.183748 0.000000
# 6 0.000000 0.000000 0.000000 0.000000 0.000000 0.040845
#
#
# Mechanical properties :
#
#
# Convention : Reuss Voigt Hill
#
# Bulk Modulus (GPa) = 47.10323 50.21062 48.65693
# Shear Modulus (GPa) = 2.01384 16.46940 9.24162
#
# Velocity S-wave (km/s) = 1.05599 3.01987 2.26216
# Velocity P-wave (km/s) = 5.25065 6.32160 5.81085
#
# Compressibility (1/GPa) = 0.02122997
#
# Stress axis : x y z
#
# Youngs Moduli (GPa) = 70.95351 70.95351 61.99857
#
# Poissons Ratio (x) = 0.44905 0.16165
# Poissons Ratio (y) = 0.44905 0.16165
# Poissons Ratio (z) = 0.18500 0.18500
#
# Static dielectric constant tensor:
#      x y z
#    x 1.635130 0.000000 0.000000 
#    y 0.000000 1.635130 0.000000 
#    z 0.000000 0.000000 1.618480 
# 
# From -- ./inp_files/6074.got.cif
#   From: 2010.05.17/outbox.cif.g08.bks.cpg/sg180_4_cif.got.tgz:6074.got - 2010.05.20 11:43:55.
