data_PCOD9583087
_publ_section_title
;
Structure prediction by ZEFSAII (Michael W. Deem and Ramdas Pophale) SiO2 
 PCOD9583087
Probable space group: P 61 2 2
;
_chemical_formula_sum "Si O2"
_cell_formula_units_Z 84
_cell_length_a 15.000000
_cell_length_b 15.000000
_cell_length_c 24.000000
_cell_angle_alpha 90.000000
_cell_angle_beta 90.000000
_cell_angle_gamma 120.000000
_cell_volume 4676.537180
_symmetry_space_group_name_H-M "P 61 2 2"
_symmetry_group_IT_number 178
_symmetry_cell_setting 'hexagonal'
loop_
_space_group_symop_operation_xyz
x,y,z
x-y,x,1/6+z
-y,x-y,1/3+z
-x,-y,1/2+z
-x+y,-x,2/3+z
y,-x+y,5/6+z
x-y,-y,-z
-x,-x+y,2/3-z
y,x,1/3-z
-y,-x,5/6-z
-x+y,y,1/2-z
x,x-y,1/6-z
loop_
_atom_site_type_symbol
_atom_site_label
_atom_site_fract_x
_atom_site_fract_y
_atom_site_fract_z
Si Si1 0.376615 0.783191 0.315086
Si Si2 0.396369 0.299539 0.561655
Si Si3 0.278729 0.511070 0.426111
Si Si4 0.925363 0.000000 0.000000
Si Si5 0.773829 0.072920 0.187616
Si Si6 0.461368 0.461368 0.666667
Si Si7 0.210023 0.542731 0.305775
Si Si8 0.181797 0.065264 0.769206
O O1 0.408679 0.817357 0.250000
O O2 0.343136 0.851684 0.351249
O O3 0.455385 0.771916 0.357156
O O4 0.281054 0.666716 0.309829
O O5 0.377901 0.188951 0.583334
O O6 0.303314 0.288921 0.522737
O O7 0.423604 0.377124 0.615337
O O8 0.394096 0.605905 0.416667
O O9 0.274226 0.409216 0.449814
O O10 0.226412 0.498519 0.364856
O O11 0.950590 0.916304 0.027415
O O12 0.885339 0.047794 0.047036
O O13 0.868535 0.142405 0.145394
O O14 0.808755 0.025642 0.238801
O O15 0.477470 0.569964 0.641033
O O16 0.257020 0.514040 0.250000
#
# Coordination Sequence:
#
# PCOD9583087 Si02
#       8
#    12  12  12   6  12   6  12  12
#     4  10  21  42  68  90 131 179 207 266 339 393
#     4  12  26  40  62 100 141 171 218 276 330 409
#     4  10  22  45  63  90 130 169 220 265 329 397
#     4   8  16  37  69  80 118 172 202 244 323 409
#     4  11  26  37  63  97 130 167 210 279 327 394
#     4  12  24  43  71 102 128 186 232 264 351 417
#     4  10  22  44  73  91 128 175 225 278 334 402
#     4   9  20  39  59  91 121 162 209 255 327 379
#
# _framework density 17.962008000000001
#
# number of rings (size 3 to 8) (size 9 to 14) (size 15 to 20)
#    0.000    1.714    2.857    0.429   14.000    0.571 
#    2.571    0.714    3.143    0.000    0.000    0.000 
#    0.000    0.000    0.000    0.000    0.000    0.000 
#
# Total GULP energy -467656.067391 kJ/mol
# GULP energy per Si atom -5567.334136 kJ/mol
# Density = 1.792113 g / cm^3
# Si number density = 17.962008 Si / 1000 Ang^3
#
#
#
# Elastic Constant Matrix: (Units=GPa)
#
#
# Indices 1 2 3 4 5 6 
#
# 1 62.7012 14.2994 41.6943 0.0000 0.0000 0.0000
# 2 14.2994 62.7012 41.6943 0.0000 0.0000 0.0000
# 3 41.6943 41.6943 166.5785 0.0000 0.0000 0.0000
# 4 0.0000 0.0000 0.0000 34.3476 0.0000 0.0000
# 5 0.0000 0.0000 0.0000 0.0000 34.3476 0.0000
# 6 0.0000 0.0000 0.0000 0.0000 0.0000 24.2009
#
#
#
# Elastic Compliance Matrix: (Units=1/GPa)
#
#
# Indices 1 2 3 4 5 6 
#
# 1 0.019238 -0.001422 -0.004459 0.000000 0.000000 0.000000
# 2 -0.001422 0.019238 -0.004459 0.000000 0.000000 0.000000
# 3 -0.004459 -0.004459 0.008236 0.000000 0.000000 0.000000
# 4 0.000000 0.000000 0.000000 0.029114 0.000000 0.000000
# 5 0.000000 0.000000 0.000000 0.000000 0.029114 0.000000
# 6 0.000000 0.000000 0.000000 0.000000 0.000000 0.041321
#
#
# Mechanical properties :
#
#
# Convention : Reuss Voigt Hill
#
# Bulk Modulus (GPa) = 38.41649 54.15079 46.28364
# Shear Modulus (GPa) = 28.47062 31.53208 30.00135
#
# Velocity S-wave (km/s) = 3.98558 4.19440 4.09132
# Velocity P-wave (km/s) = 6.52793 7.32599 6.93845
#
# Compressibility (1/GPa) = 0.02603049
#
# Stress axis : x y z
#
# Youngs Moduli (GPa) = 51.97962 51.97962 121.42526
#
# Poissons Ratio (x) = 0.07392 0.54148
# Poissons Ratio (y) = 0.07392 0.54148
# Poissons Ratio (z) = 0.23180 0.23180
#
# Static dielectric constant tensor:
#      x y z
#    x 1.645270 0.000000 0.000000 
#    y 0.000000 1.645270 0.000000 
#    z 0.000000 0.000000 1.612850 
# 
# From -- ./inp_files/8376.got.cif
#   From: 2010.05.17/outbox.ucp.g08.bks.cvg/sg178_5_cif.got.tgz:8376.got - 2010.06.11 15:19:19.
