data_PCOD9583107
_publ_section_title
;
Structure prediction by ZEFSAII (Michael W. Deem and Ramdas Pophale) SiO2 
 PCOD9583107
Probable space group: P 65 2 2
;
_chemical_formula_sum "Si O2"
_cell_formula_units_Z 54
_cell_length_a 11.609897
_cell_length_b 11.609897
_cell_length_c 21.840499
_cell_angle_alpha 90.000000
_cell_angle_beta 90.000000
_cell_angle_gamma 120.000000
_cell_volume 2549.470094
_symmetry_space_group_name_H-M "P 65 2 2"
_symmetry_group_IT_number 179
_symmetry_cell_setting 'hexagonal'
loop_
_space_group_symop_operation_xyz
x,y,z
x-y,x,5/6+z
-y,x-y,2/3+z
-x,-y,1/2+z
-x+y,-x,1/3+z
y,-x+y,1/6+z
x-y,-y,-z
-x,-x+y,1/3-z
y,x,2/3-z
-y,-x,1/6-z
-x+y,y,1/2-z
x,x-y,5/6-z
loop_
_atom_site_type_symbol
_atom_site_label
_atom_site_fract_x
_atom_site_fract_y
_atom_site_fract_z
Si Si1 0.760049 0.380025 0.916667
Si Si2 0.993326 0.673384 0.810774
Si Si3 0.719994 0.590366 0.865027
Si Si4 0.720146 0.554820 0.096164
Si Si5 0.390018 0.952579 0.858229
O O1 0.682164 0.441957 0.883287
O O2 0.851878 0.363329 0.866057
O O3 0.845022 0.642193 0.819675
O O4 0.991809 0.538868 0.791144
O O5 0.081898 0.770172 0.757340
O O6 0.062864 0.707053 0.876350
O O7 0.608046 0.608046 0.833334
O O8 0.597966 0.402034 0.083334
O O9 0.685584 0.601785 0.160365
O O10 0.863867 0.572728 0.079181
#
# Coordination Sequence:
#
# PCOD9583107 Si02
#       5
#     6  12  12  12  12
#     4  10  18  34  52  74 122 158 188 246 296 360
#     4  10  19  35  52  82 124 157 201 250 306 373
#     4  11  21  34  54  83 123 164 199 253 311 372
#     4  10  17  31  53  78 117 162 200 242 310 372
#     4  10  18  32  54  81 117 163 201 249 305 376
#
# _framework density 21.180871
#
# number of rings (size 3 to 8) (size 9 to 14) (size 15 to 20)
#    0.000    1.778    7.778    0.667    0.000    3.556 
#    0.000    0.000    0.000    0.000    0.000    0.000 
#   13.333   36.000    0.889    0.000    0.000    0.000 
#
# Total GULP energy -300879.255557 kJ/mol
# GULP energy per Si atom -5571.838066 kJ/mol
# Density = 2.113266 g / cm^3
# Si number density = 21.180871 Si / 1000 Ang^3
#
#
#
# Elastic Constant Matrix: (Units=GPa)
#
#
# Indices 1 2 3 4 5 6 
#
# 1 61.9966 32.8441 15.0435 0.0000 0.0000 0.0000
# 2 32.8441 61.9966 15.0435 0.0000 0.0000 0.0000
# 3 15.0435 15.0435 72.1717 0.0000 0.0000 0.0000
# 4 0.0000 0.0000 0.0000 33.9352 0.0000 0.0000
# 5 0.0000 0.0000 0.0000 0.0000 33.9352 0.0000
# 6 0.0000 0.0000 0.0000 0.0000 0.0000 14.5763
#
#
#
# Elastic Compliance Matrix: (Units=1/GPa)
#
#
# Indices 1 2 3 4 5 6 
#
# 1 0.022796 -0.011506 -0.002353 0.000000 0.000000 0.000000
# 2 -0.011506 0.022796 -0.002353 0.000000 0.000000 0.000000
# 3 -0.002353 -0.002353 0.014837 0.000000 0.000000 0.000000
# 4 0.000000 0.000000 0.000000 0.029468 0.000000 0.000000
# 5 0.000000 0.000000 0.000000 0.000000 0.029468 0.000000
# 6 0.000000 0.000000 0.000000 0.000000 0.000000 0.068605
#
#
# Mechanical properties :
#
#
# Convention : Reuss Voigt Hill
#
# Bulk Modulus (GPa) = 35.70860 35.78079 35.74469
# Shear Modulus (GPa) = 21.76461 25.37158 23.56809
#
# Velocity S-wave (km/s) = 3.20903 3.46476 3.33934
# Velocity P-wave (km/s) = 5.53408 5.73896 5.63745
#
# Compressibility (1/GPa) = 0.02800446
#
# Stress axis : x y z
#
# Youngs Moduli (GPa) = 43.86643 43.86643 67.39938
#
# Poissons Ratio (x) = 0.50472 0.15862
# Poissons Ratio (y) = 0.50472 0.15862
# Poissons Ratio (z) = 0.10324 0.10324
#
# Static dielectric constant tensor:
#      x y z
#    x 1.797570 0.000000 0.000000 
#    y 0.000000 1.797570 0.000000 
#    z 0.000000 0.000000 1.908050 
# 
# From -- ./inp_files/8152.got.cif
#   From: 2010.05.17/outbox.cif.g08.bks.cpg/sg179_5_cif.got.tgz:8152.got - 2010.05.20 11:37:33.
