data_PCOD9583942
_publ_section_title
;
Structure prediction by ZEFSAII (Michael W. Deem and Ramdas Pophale) SiO2 
 PCOD9583942
Probable space group: P 62 2 2
;
_chemical_formula_sum "Si O2"
_cell_formula_units_Z 54
_cell_length_a 23.925306
_cell_length_b 23.925306
_cell_length_c 5.151220
_cell_angle_alpha 90.000000
_cell_angle_beta 90.000000
_cell_angle_gamma 120.000000
_cell_volume 2553.616830
_symmetry_space_group_name_H-M "P 62 2 2"
_symmetry_group_IT_number 180
_symmetry_cell_setting 'hexagonal'
loop_
_space_group_symop_operation_xyz
x,y,z
x-y,x,1/3+z
-y,x-y,2/3+z
-x,-y,z
-x+y,-x,1/3+z
y,-x+y,2/3+z
x-y,-y,-z
-x,-x+y,1/3-z
y,x,2/3-z
-y,-x,2/3-z
-x+y,y,-z
x,x-y,1/3-z
loop_
_atom_site_type_symbol
_atom_site_label
_atom_site_fract_x
_atom_site_fract_y
_atom_site_fract_z
Si Si1 0.691575 0.000000 0.500000
Si Si2 0.225414 0.612707 0.666667
Si Si3 0.861600 0.138401 0.833334
Si Si4 0.258010 0.741991 0.833334
Si Si5 0.561209 0.685426 0.861453
Si Si6 0.431310 0.568690 0.833334
Si Si7 0.235276 0.235276 0.333334
Si Si8 0.183824 0.367647 0.000000
O O1 0.684179 0.059061 0.607154
O O2 0.738684 0.020636 0.251621
O O3 0.259174 0.689826 0.633848
O O4 0.181684 0.584499 0.416383
O O5 0.936894 0.171408 0.765606
O O6 0.828807 0.152083 0.585200
O O7 0.284387 0.813592 0.719121
O O8 0.507875 0.612007 0.798689
O O9 0.586438 0.739084 0.632908
#
# Coordination Sequence:
#
# PCOD9583942 Si02
#       8
#     6   6   6   6  12   6   6   6
#     4  12  26  39  68  94 144 173 248 280 356 424
#     4  10  22  40  59  95 116 168 213 298 330 429
#     4  12  23  42  70 100 147 178 225 286 351 405
#     4  10  23  41  70  91 136 168 236 285 373 414
#     4  11  23  42  63  99 127 187 226 297 351 436
#     4  10  24  40  60  83 133 164 237 274 350 409
#     4  12  24  46  64 111 140 187 224 298 340 428
#     4  12  22  38  69  98 128 183 229 288 354 416
#
# _framework density 21.146477999999998
#
# number of rings (size 3 to 8) (size 9 to 14) (size 15 to 20)
#    0.000    0.889    4.444    2.000    0.000   12.000 
#    0.000    0.000    0.000    6.667    0.000    0.000 
#    0.000   24.889    0.000    0.000    0.000    0.000 
#
# Total GULP energy -301170.900520 kJ/mol
# GULP energy per Si atom -5577.238899 kJ/mol
# Density = 2.109835 g / cm^3
# Si number density = 21.146478 Si / 1000 Ang^3
#
#
#
# Elastic Constant Matrix: (Units=GPa)
#
#
# Indices 1 2 3 4 5 6 
#
# 1 138.8295 68.1366 29.1518 0.0000 0.0000 0.0000
# 2 68.1366 138.8295 29.1518 0.0000 0.0000 0.0000
# 3 29.1518 29.1518 116.9008 0.0000 0.0000 0.0000
# 4 0.0000 0.0000 0.0000 23.0359 0.0000 0.0000
# 5 0.0000 0.0000 0.0000 0.0000 23.0359 0.0000
# 6 0.0000 0.0000 0.0000 0.0000 0.0000 35.3464
#
#
#
# Elastic Compliance Matrix: (Units=1/GPa)
#
#
# Indices 1 2 3 4 5 6 
#
# 1 0.009671 -0.004474 -0.001296 0.000000 0.000000 0.000000
# 2 -0.004474 0.009671 -0.001296 0.000000 0.000000 0.000000
# 3 -0.001296 -0.001296 0.009201 0.000000 0.000000 0.000000
# 4 0.000000 0.000000 0.000000 0.043411 0.000000 0.000000
# 5 0.000000 0.000000 0.000000 0.000000 0.043411 0.000000
# 6 0.000000 0.000000 0.000000 0.000000 0.000000 0.028291
#
#
# Mechanical properties :
#
#
# Convention : Reuss Voigt Hill
#
# Bulk Modulus (GPa) = 69.39417 71.93780 70.66598
# Shear Modulus (GPa) = 30.75188 34.15829 32.45509
#
# Velocity S-wave (km/s) = 3.81758 4.02346 3.92187
# Velocity P-wave (km/s) = 7.23319 7.46170 7.34833
#
# Compressibility (1/GPa) = 0.01441043
#
# Stress axis : x y z
#
# Youngs Moduli (GPa) = 103.39940 103.39940 108.68860
#
# Poissons Ratio (x) = 0.46266 0.14085
# Poissons Ratio (y) = 0.46266 0.14085
# Poissons Ratio (z) = 0.13400 0.13400
#
# Static dielectric constant tensor:
#      x y z
#    x 1.840740 0.000000 0.000000 
#    y 0.000000 1.840740 0.000000 
#    z 0.000000 0.000000 1.792870 
# 
# From -- ./inp_files/1312.got.cif
#   From: 2010.05.17/outbox.cif.g08.bks.cpg/sg180_1_cif.got.tgz:1312.got - 2010.05.20 11:43:55.
