data_PCOD9583258
_publ_section_title
;
Structure prediction by ZEFSAII (Michael W. Deem and Ramdas Pophale) SiO2 
 PCOD9583258
Probable space group: P 65 2 2
;
_chemical_formula_sum "Si O2"
_cell_formula_units_Z 66
_cell_length_a 15.150751
_cell_length_b 15.150751
_cell_length_c 17.632535
_cell_angle_alpha 90.000000
_cell_angle_beta 90.000000
_cell_angle_gamma 120.000000
_cell_volume 3505.207301
_symmetry_space_group_name_H-M "P 65 2 2"
_symmetry_group_IT_number 179
_symmetry_cell_setting 'hexagonal'
loop_
_space_group_symop_operation_xyz
x,y,z
x-y,x,5/6+z
-y,x-y,2/3+z
-x,-y,1/2+z
-x+y,-x,1/3+z
y,-x+y,1/6+z
x-y,-y,-z
-x,-x+y,1/3-z
y,x,2/3-z
-y,-x,1/6-z
-x+y,y,1/2-z
x,x-y,5/6-z
loop_
_atom_site_type_symbol
_atom_site_label
_atom_site_fract_x
_atom_site_fract_y
_atom_site_fract_z
Si Si1 0.794244 0.588488 0.750000
Si Si2 0.061620 0.535729 0.746536
Si Si3 0.741561 0.472429 0.904851
Si Si4 0.690734 0.690749 0.698854
Si Si5 0.323152 0.269370 0.915666
Si Si6 0.890948 0.678066 0.958430
O O1 0.780311 0.520704 0.822328
O O2 0.745756 0.659512 0.762437
O O3 0.177600 0.625998 0.739393
O O4 0.060991 0.432094 0.768952
O O5 0.000000 0.510904 0.666667
O O6 0.020585 0.595012 0.800211
O O7 0.744809 0.372405 0.916667
O O8 0.818620 0.555266 0.965291
O O9 0.704569 0.800942 0.713787
O O10 0.744589 0.697928 0.619040
O O11 0.289883 0.289883 0.833334
O O12 0.329167 0.164584 0.916667
O O13 0.242598 0.269754 0.975380
#
# Coordination Sequence:
#
# PCOD9583258 Si02
#       6
#     6  12  12  12  12  12
#     4  10  20  36  66  84 132 162 198 260 322 368
#     4  10  20  37  59  90 125 162 203 240 313 378
#     4  10  21  34  58  95 125 160 205 254 306 379
#     4  10  21  39  63  91 122 159 201 261 310 379
#     4  11  24  41  65  86 123 169 208 258 316 383
#     4  10  23  38  62  88 122 159 213 256 316 376
#
# _framework density 18.829128000000001
#
# number of rings (size 3 to 8) (size 9 to 14) (size 15 to 20)
#    0.000    1.818    1.818    1.636    5.091    0.000 
#    0.000    3.636   12.000    0.000    0.000    0.000 
#    0.000    0.000    0.000    0.000    0.000    0.000 
#
# Total GULP energy -367598.163354 kJ/mol
# GULP energy per Si atom -5569.669142 kJ/mol
# Density = 1.878627 g / cm^3
# Si number density = 18.829128 Si / 1000 Ang^3
#
#
#
# Elastic Constant Matrix: (Units=GPa)
#
#
# Indices 1 2 3 4 5 6 
#
# 1 126.3072 95.8433 41.2249 0.0000 0.0000 0.0000
# 2 95.8433 126.3072 41.2249 0.0000 0.0000 0.0000
# 3 41.2249 41.2249 75.1682 0.0000 0.0000 0.0000
# 4 0.0000 0.0000 0.0000 18.8338 0.0000 0.0000
# 5 0.0000 0.0000 0.0000 0.0000 18.8338 0.0000
# 6 0.0000 0.0000 0.0000 0.0000 0.0000 15.2320
#
#
#
# Elastic Compliance Matrix: (Units=1/GPa)
#
#
# Indices 1 2 3 4 5 6 
#
# 1 0.019239 -0.013587 -0.003100 0.000000 0.000000 0.000000
# 2 -0.013587 0.019239 -0.003100 0.000000 0.000000 0.000000
# 3 -0.003100 -0.003100 0.016703 0.000000 0.000000 0.000000
# 4 0.000000 0.000000 0.000000 0.053096 0.000000 0.000000
# 5 0.000000 0.000000 0.000000 0.000000 0.053096 0.000000
# 6 0.000000 0.000000 0.000000 0.000000 0.000000 0.065651
#
#
# Mechanical properties :
#
#
# Convention : Reuss Voigt Hill
#
# Bulk Modulus (GPa) = 64.06784 76.04097 70.05440
# Shear Modulus (GPa) = 18.39590 20.54590 19.47090
#
# Velocity S-wave (km/s) = 3.12908 3.30688 3.21921
# Velocity P-wave (km/s) = 6.86692 7.41977 7.14869
#
# Compressibility (1/GPa) = 0.01560846
#
# Stress axis : x y z
#
# Youngs Moduli (GPa) = 51.97828 51.97828 59.86786
#
# Poissons Ratio (x) = 0.70622 0.18557
# Poissons Ratio (y) = 0.70622 0.18557
# Poissons Ratio (z) = 0.16112 0.16112
#
# Static dielectric constant tensor:
#      x y z
#    x 1.701070 0.000000 0.000000 
#    y 0.000000 1.701070 0.000000 
#    z 0.000000 0.000000 1.681840 
# 
# From -- ./inp_files/6721.got.cif
#   From: 2010.05.17/outbox.cif.g08.bks.cpg/sg179_4_cif.got.tgz:6721.got - 2010.05.20 11:37:33.
