data_PCOD9583653
_publ_section_title
;
Structure prediction by ZEFSAII (Michael W. Deem and Ramdas Pophale) SiO2 
 PCOD9583653
Probable space group: P 62 2 2
;
_chemical_formula_sum "Si O2"
_cell_formula_units_Z 42
_cell_length_a 21.458520
_cell_length_b 21.458520
_cell_length_c 5.449088
_cell_angle_alpha 90.000000
_cell_angle_beta 90.000000
_cell_angle_gamma 120.000000
_cell_volume 2172.971267
_symmetry_space_group_name_H-M "P 62 2 2"
_symmetry_group_IT_number 180
_symmetry_cell_setting 'hexagonal'
loop_
_space_group_symop_operation_xyz
x,y,z
x-y,x,1/3+z
-y,x-y,2/3+z
-x,-y,z
-x+y,-x,1/3+z
y,-x+y,2/3+z
x-y,-y,-z
-x,-x+y,1/3-z
y,x,2/3-z
-y,-x,2/3-z
-x+y,y,-z
x,x-y,1/3-z
loop_
_atom_site_type_symbol
_atom_site_label
_atom_site_fract_x
_atom_site_fract_y
_atom_site_fract_z
Si Si1 0.174987 0.896609 0.093269
Si Si2 0.877964 0.000000 0.000000
Si Si3 0.411369 0.329290 0.338399
Si Si4 0.469672 0.382684 0.835067
O O1 0.152955 0.847046 0.333334
O O2 0.257357 0.922053 0.038733
O O3 0.150273 0.954772 0.156302
O O4 0.136807 0.863194 0.833334
O O5 0.892505 0.946253 0.166667
O O6 0.395248 0.395248 0.333334
O O7 0.456500 0.339625 0.582991
O O8 0.449673 0.334808 0.080483
O O9 0.415246 0.415246 0.833334
O O10 0.549279 0.450721 0.833334
#
# Coordination Sequence:
#
# PCOD9583653 Si02
#       4
#    12   6  12  12
#     4  11  23  39  58  80 105 142 190 242 306 377
#     4  10  24  46  65  82 103 136 190 270 342 400
#     4  10  18  32  51  74 105 142 178 213 264 329
#     4   9  17  28  48  77 109 140 170 199 234 293
#
# _framework density 19.328372999999999
#
# number of rings (size 3 to 8) (size 9 to 14) (size 15 to 20)
#    0.000    2.000    1.429    2.571    0.000    8.000 
#    0.000    5.000    0.000    0.000    0.000    0.000 
#    0.000    0.000    0.000  108.000    0.000    0.000 
#
# Total GULP energy -233927.272541 kJ/mol
# GULP energy per Si atom -5569.696965 kJ/mol
# Density = 1.928438 g / cm^3
# Si number density = 19.328373 Si / 1000 Ang^3
#
#
#
# Elastic Constant Matrix: (Units=GPa)
#
#
# Indices 1 2 3 4 5 6 
#
# 1 84.9454 -19.7402 54.3165 0.0000 0.0000 0.0000
# 2 -19.7402 84.9454 54.3165 0.0000 0.0000 0.0000
# 3 54.3165 54.3165 183.4173 0.0000 0.0000 0.0000
# 4 0.0000 0.0000 0.0000 9.9241 0.0000 0.0000
# 5 0.0000 0.0000 0.0000 0.0000 9.9241 0.0000
# 6 0.0000 0.0000 0.0000 0.0000 0.0000 52.3428
#
#
#
# Elastic Compliance Matrix: (Units=1/GPa)
#
#
# Indices 1 2 3 4 5 6 
#
# 1 0.019912 0.010359 -0.008964 0.000000 0.000000 0.000000
# 2 0.010359 0.019912 -0.008964 0.000000 0.000000 0.000000
# 3 -0.008964 -0.008964 0.010761 0.000000 0.000000 0.000000
# 4 0.000000 0.000000 0.000000 0.100765 0.000000 0.000000
# 5 0.000000 0.000000 0.000000 0.000000 0.100765 0.000000
# 6 0.000000 0.000000 0.000000 0.000000 0.000000 0.019105
#
#
# Mechanical properties :
#
#
# Convention : Reuss Voigt Hill
#
# Bulk Modulus (GPa) = 28.21200 59.01039 43.61119
# Shear Modulus (GPa) = 16.76876 32.06587 24.41731
#
# Velocity S-wave (km/s) = 2.94865 4.07751 3.55813
# Velocity P-wave (km/s) = 5.12060 7.26394 6.28432
#
# Compressibility (1/GPa) = 0.03544591
#
# Stress axis : x y z
#
# Youngs Moduli (GPa) = 50.22187 50.22187 92.92513
#
# Poissons Ratio (x) = -0.52026 0.83301
# Poissons Ratio (y) = -0.52026 0.83301
# Poissons Ratio (z) = 0.45020 0.45020
#
# Static dielectric constant tensor:
#      x y z
#    x 1.704430 0.000000 0.000000 
#    y 0.000000 1.704430 0.000000 
#    z 0.000000 0.000000 3.888940 
# 
# From -- ./inp_files/794.got.cif
#   From: 2010.05.17/outbox.cif.g08.bks.cpg/sg180_1_cif.got.tgz:794.got - 2010.05.20 11:43:55.
