data_PCOD9583336
_publ_section_title
;
Structure prediction by ZEFSAII (Michael W. Deem and Ramdas Pophale) SiO2 
 PCOD9583336
Probable space group: P 65 2 2
;
_chemical_formula_sum "Si O2"
_cell_formula_units_Z 60
_cell_length_a 19.512771
_cell_length_b 19.512771
_cell_length_c 8.168162
_cell_angle_alpha 90.000000
_cell_angle_beta 90.000000
_cell_angle_gamma 120.000000
_cell_volume 2693.350473
_symmetry_space_group_name_H-M "P 65 2 2"
_symmetry_group_IT_number 179
_symmetry_cell_setting 'hexagonal'
loop_
_space_group_symop_operation_xyz
x,y,z
x-y,x,5/6+z
-y,x-y,2/3+z
-x,-y,1/2+z
-x+y,-x,1/3+z
y,-x+y,1/6+z
x-y,-y,-z
-x,-x+y,1/3-z
y,x,2/3-z
-y,-x,1/6-z
-x+y,y,1/2-z
x,x-y,5/6-z
loop_
_atom_site_type_symbol
_atom_site_label
_atom_site_fract_x
_atom_site_fract_y
_atom_site_fract_z
Si Si1 0.400703 0.400703 0.333334
Si Si2 0.013413 0.873287 0.939156
Si Si3 0.443348 0.295060 0.733775
Si Si4 0.545666 0.091332 0.250000
Si Si5 0.736476 0.612452 0.072096
Si Si6 0.810479 0.105531 0.250235
O O1 0.432314 0.472316 0.202574
O O2 0.323445 0.388454 0.436806
O O3 0.928811 0.868198 0.957082
O O4 0.925513 0.851026 0.250000
O O5 0.979613 0.780117 0.941523
O O6 0.519018 0.376812 0.692989
O O7 0.453927 0.217951 0.717203
O O8 0.373982 0.273310 0.600352
O O9 0.404421 0.294840 0.909216
O O10 0.825823 0.688351 0.049846
O O11 0.855040 0.144961 0.083334
#
# Coordination Sequence:
#
# PCOD9583336 Si02
#       6
#     6  12  12   6  12  12
#     4  12  24  40  68 110 142 182 240 286 344 422
#     4  10  24  40  55  83 127 181 243 299 364 417
#     4   9  22  45  70 104 140 180 225 286 356 419
#     4  12  24  40  72 110 142 182 222 284 352 420
#     4   9  22  44  70 103 142 178 230 291 343 417
#     4  10  21  41  69  97 130 185 238 302 353 425
#
# _framework density 22.277086000000001
#
# number of rings (size 3 to 8) (size 9 to 14) (size 15 to 20)
#    1.200    0.800    0.000    2.400    0.000   12.800 
#    0.000    2.000    0.000   12.000    0.000    0.000 
#    0.000    0.000    0.000    0.000    0.000    0.000 
#
# Total GULP energy -334241.326139 kJ/mol
# GULP energy per Si atom -5570.688769 kJ/mol
# Density = 2.222638 g / cm^3
# Si number density = 22.277086 Si / 1000 Ang^3
#
#
#
# Elastic Constant Matrix: (Units=GPa)
#
#
# Indices 1 2 3 4 5 6 
#
# 1 118.4380 36.8199 39.1719 0.0000 0.0000 0.0000
# 2 36.8199 118.4380 39.1719 0.0000 0.0000 0.0000
# 3 39.1719 39.1719 119.6313 0.0000 0.0000 0.0000
# 4 0.0000 0.0000 0.0000 32.3571 0.0000 0.0000
# 5 0.0000 0.0000 0.0000 0.0000 32.3571 0.0000
# 6 0.0000 0.0000 0.0000 0.0000 0.0000 40.8090
#
#
#
# Elastic Compliance Matrix: (Units=1/GPa)
#
#
# Indices 1 2 3 4 5 6 
#
# 1 0.009984 -0.002268 -0.002526 0.000000 0.000000 0.000000
# 2 -0.002268 0.009984 -0.002526 0.000000 0.000000 0.000000
# 3 -0.002526 -0.002526 0.010014 0.000000 0.000000 0.000000
# 4 0.000000 0.000000 0.000000 0.030905 0.000000 0.000000
# 5 0.000000 0.000000 0.000000 0.000000 0.030905 0.000000
# 6 0.000000 0.000000 0.000000 0.000000 0.000000 0.024504
#
#
# Mechanical properties :
#
#
# Convention : Reuss Voigt Hill
#
# Bulk Modulus (GPa) = 65.19212 65.20387 65.19800
# Shear Modulus (GPa) = 36.75083 37.19421 36.97252
#
# Velocity S-wave (km/s) = 4.06607 4.09053 4.07832
# Velocity P-wave (km/s) = 7.16740 7.18630 7.17686
#
# Compressibility (1/GPa) = 0.01533928
#
# Stress axis : x y z
#
# Youngs Moduli (GPa) = 100.16057 100.16057 99.86496
#
# Poissons Ratio (x) = 0.22719 0.25230
# Poissons Ratio (y) = 0.22719 0.25230
# Poissons Ratio (z) = 0.25305 0.25305
#
# Static dielectric constant tensor:
#      x y z
#    x 1.875840 0.000000 0.000000 
#    y 0.000000 1.875840 0.000000 
#    z 0.000000 0.000000 1.950660 
# 
# From -- ./inp_files/3270.got.cif
#   From: 2010.05.17/outbox.cif.g08.bks.cpg/sg179_2_cif.got.tgz:3270.got - 2010.05.20 11:37:33.
