data_PCOD9583083
_publ_section_title
;
Structure prediction by ZEFSAII (Michael W. Deem and Ramdas Pophale) SiO2 
 PCOD9583083
Probable space group: P 61 2 2
;
_chemical_formula_sum "Si O2"
_cell_formula_units_Z 36
_cell_length_a 14.905468
_cell_length_b 14.905468
_cell_length_c 8.396011
_cell_angle_alpha 90.000000
_cell_angle_beta 90.000000
_cell_angle_gamma 120.000000
_cell_volume 1615.454995
_symmetry_space_group_name_H-M "P 61 2 2"
_symmetry_group_IT_number 178
_symmetry_cell_setting 'hexagonal'
loop_
_space_group_symop_operation_xyz
x,y,z
x-y,x,1/6+z
-y,x-y,1/3+z
-x,-y,1/2+z
-x+y,-x,2/3+z
y,-x+y,5/6+z
x-y,-y,-z
-x,-x+y,2/3-z
y,x,1/3-z
-y,-x,5/6-z
-x+y,y,1/2-z
x,x-y,1/6-z
loop_
_atom_site_type_symbol
_atom_site_label
_atom_site_fract_x
_atom_site_fract_y
_atom_site_fract_z
Si Si1 0.619552 0.429846 0.201099
Si Si2 0.289793 0.920762 0.648885
Si Si3 0.409023 0.111205 0.833443
O O1 0.689235 0.378470 0.250000
O O2 0.649134 0.507375 0.053249
O O3 0.657737 0.515403 0.343819
O O4 0.498812 0.348966 0.202339
O O5 0.174038 0.825758 0.663547
O O6 0.310199 0.000000 0.500000
O O7 0.330727 0.991349 0.804625
#
# Coordination Sequence:
#
# PCOD9583083 Si02
#       3
#    12  12  12
#     4   8  15  28  43  65  96 130 165 206 251 300
#     4   9  16  28  46  66  99 129 167 211 246 301
#     4   9  16  28  46  69  97 131 165 210 252 301
#
# _framework density 22.284745000000001
#
# number of rings (size 3 to 8) (size 9 to 14) (size 15 to 20)
#    0.000    3.333    0.000    3.000    0.000    0.000 
#   12.000    0.000    0.000    0.000    0.000    0.000 
#    0.000  104.000    0.000    0.000    0.000    0.000 
#
# Total GULP energy -200651.081956 kJ/mol
# GULP energy per Si atom -5573.641165 kJ/mol
# Density = 2.223402 g / cm^3
# Si number density = 22.284745 Si / 1000 Ang^3
#
#
#
# Elastic Constant Matrix: (Units=GPa)
#
#
# Indices 1 2 3 4 5 6 
#
# 1 139.8561 96.0331 34.5225 0.0000 0.0000 0.0000
# 2 96.0331 139.8561 34.5225 0.0000 0.0000 0.0000
# 3 34.5225 34.5225 34.8943 0.0000 0.0000 0.0000
# 4 0.0000 0.0000 0.0000 20.2020 0.0000 0.0000
# 5 0.0000 0.0000 0.0000 0.0000 20.2020 0.0000
# 6 0.0000 0.0000 0.0000 0.0000 0.0000 21.9115
#
#
#
# Elastic Compliance Matrix: (Units=1/GPa)
#
#
# Indices 1 2 3 4 5 6 
#
# 1 0.014393 -0.008426 -0.005904 0.000000 0.000000 0.000000
# 2 -0.008426 0.014393 -0.005904 0.000000 0.000000 0.000000
# 3 -0.005904 -0.005904 0.040340 0.000000 0.000000 0.000000
# 4 0.000000 0.000000 0.000000 0.049500 0.000000 0.000000
# 5 0.000000 0.000000 0.000000 0.000000 0.049500 0.000000
# 6 0.000000 0.000000 0.000000 0.000000 0.000000 0.045638
#
#
# Mechanical properties :
#
#
# Convention : Reuss Voigt Hill
#
# Bulk Modulus (GPa) = 34.89266 71.64032 53.26649
# Shear Modulus (GPa) = 18.95488 22.43163 20.69325
#
# Velocity S-wave (km/s) = 2.91963 3.17612 3.05057
# Velocity P-wave (km/s) = 5.20166 6.75780 6.03014
#
# Compressibility (1/GPa) = 0.02865932
#
# Stress axis : x y z
#
# Youngs Moduli (GPa) = 69.47724 69.47724 24.78952
#
# Poissons Ratio (x) = 0.58541 0.14635
# Poissons Ratio (y) = 0.58541 0.14635
# Poissons Ratio (z) = 0.41017 0.41017
#
# Static dielectric constant tensor:
#      x y z
#    x 1.842340 0.000000 0.000000 
#    y 0.000000 1.842340 0.000000 
#    z 0.000000 0.000000 2.081370 
# 
# From -- ./inp_files/5222.got.cif
#   From: 2010.05.17/outbox.cif.g08.bks.cpg/sg178_3_cif.got.tgz:5222.got - 2010.05.20 11:30:59.
