data_PCOD9583794
_publ_section_title
;
Structure prediction by ZEFSAII (Michael W. Deem and Ramdas Pophale) SiO2 
 PCOD9583794
Probable space group: P 62 2 2
;
_chemical_formula_sum "Si O2"
_cell_formula_units_Z 72
_cell_length_a 14.764709
_cell_length_b 14.764709
_cell_length_c 17.133206
_cell_angle_alpha 90.000000
_cell_angle_beta 90.000000
_cell_angle_gamma 120.000000
_cell_volume 3234.588603
_symmetry_space_group_name_H-M "P 62 2 2"
_symmetry_group_IT_number 180
_symmetry_cell_setting 'hexagonal'
loop_
_space_group_symop_operation_xyz
x,y,z
x-y,x,1/3+z
-y,x-y,2/3+z
-x,-y,z
-x+y,-x,1/3+z
y,-x+y,2/3+z
x-y,-y,-z
-x,-x+y,1/3-z
y,x,2/3-z
-y,-x,2/3-z
-x+y,y,-z
x,x-y,1/3-z
loop_
_atom_site_type_symbol
_atom_site_label
_atom_site_fract_x
_atom_site_fract_y
_atom_site_fract_z
Si Si1 0.217576 0.097662 0.957664
Si Si2 0.783175 0.593889 0.413989
Si Si3 0.252314 0.943111 0.422098
Si Si4 0.125160 0.389685 0.825894
Si Si5 0.023877 0.413019 0.383924
Si Si6 0.628556 0.379759 0.243782
O O1 0.189242 0.184353 0.929118
O O2 0.280168 0.080050 0.887251
O O3 0.310715 0.136265 0.021786
O O4 0.124224 0.000000 0.000000
O O5 0.819142 0.638284 0.500000
O O6 0.853520 0.541829 0.392345
O O7 0.665310 0.497581 0.417958
O O8 0.194375 0.821452 0.441919
O O9 0.317423 0.000000 0.500000
O O10 0.324136 0.975370 0.347246
O O11 0.192638 0.495471 0.774887
O O12 0.033989 0.398004 0.868446
O O13 0.000000 0.500000 0.357139
O O14 0.647260 0.352741 0.333334
O O15 0.643504 0.321752 0.166667
#
# Coordination Sequence:
#
# PCOD9583794 Si02
#       6
#    12  12  12  12  12  12
#     4  10  20  38  66  94 128 168 221 285 365 418
#     4  10  20  37  57  88 131 166 216 279 341 418
#     4   9  22  42  62  91 130 174 225 285 349 436
#     4  11  22  41  62  95 132 179 225 286 356 430
#     4  11  22  37  63  89 124 173 230 277 344 414
#     4  11  23  40  63  93 140 185 233 289 348 425
#
# _framework density 22.259398000000001
#
# number of rings (size 3 to 8) (size 9 to 14) (size 15 to 20)
#    0.000    1.667    1.667    3.500    0.000    3.000 
#    0.000    0.833    0.000    8.000    0.000   30.333 
#    0.000    0.000    0.000    0.000    0.000    0.000 
#
# Total GULP energy -401227.337363 kJ/mol
# GULP energy per Si atom -5572.601908 kJ/mol
# Density = 2.220873 g / cm^3
# Si number density = 22.259398 Si / 1000 Ang^3
#
#
#
# Elastic Constant Matrix: (Units=GPa)
#
#
# Indices 1 2 3 4 5 6 
#
# 1 60.8738 34.5711 15.3741 0.0000 0.0000 0.0000
# 2 34.5711 60.8738 15.3741 0.0000 0.0000 0.0000
# 3 15.3741 15.3741 115.2374 0.0000 0.0000 0.0000
# 4 0.0000 0.0000 0.0000 24.7622 0.0000 0.0000
# 5 0.0000 0.0000 0.0000 0.0000 24.7622 0.0000
# 6 0.0000 0.0000 0.0000 0.0000 0.0000 13.1514
#
#
#
# Elastic Compliance Matrix: (Units=1/GPa)
#
#
# Indices 1 2 3 4 5 6 
#
# 1 0.024483 -0.013536 -0.001461 0.000000 0.000000 0.000000
# 2 -0.013536 0.024483 -0.001461 0.000000 0.000000 0.000000
# 3 -0.001461 -0.001461 0.009067 0.000000 0.000000 0.000000
# 4 0.000000 0.000000 0.000000 0.040384 0.000000 0.000000
# 5 0.000000 0.000000 0.000000 0.000000 0.040384 0.000000
# 6 0.000000 0.000000 0.000000 0.000000 0.000000 0.076038
#
#
# Mechanical properties :
#
#
# Convention : Reuss Voigt Hill
#
# Bulk Modulus (GPa) = 39.80775 40.84707 40.32741
# Shear Modulus (GPa) = 19.52157 23.97956 21.75056
#
# Velocity S-wave (km/s) = 2.96464 3.28575 3.12932
# Velocity P-wave (km/s) = 5.44437 5.72584 5.58688
#
# Compressibility (1/GPa) = 0.02512073
#
# Stress axis : x y z
#
# Youngs Moduli (GPa) = 40.84412 40.84412 110.28459
#
# Poissons Ratio (x) = 0.55285 0.16108
# Poissons Ratio (y) = 0.55285 0.16108
# Poissons Ratio (z) = 0.05966 0.05966
#
# Static dielectric constant tensor:
#      x y z
#    x 1.856870 0.000000 0.000000 
#    y 0.000000 1.856870 0.000000 
#    z 0.000000 0.000000 1.868630 
# 
# From -- ./inp_files/7807.got.cif
#   From: 2010.05.17/outbox.cif.g08.bks.cpg/sg180_4_cif.got.tgz:7807.got - 2010.05.20 11:43:55.
