data_PCOD9583017
_publ_section_title
;
Structure prediction by ZEFSAII (Michael W. Deem and Ramdas Pophale) SiO2 
 PCOD9583017
Probable space group: P 61 2 2
;
_chemical_formula_sum "Si O2"
_cell_formula_units_Z 48
_cell_length_a 14.804526
_cell_length_b 14.804526
_cell_length_c 11.420728
_cell_angle_alpha 90.000000
_cell_angle_beta 90.000000
_cell_angle_gamma 120.000000
_cell_volume 2167.771160
_symmetry_space_group_name_H-M "P 61 2 2"
_symmetry_group_IT_number 178
_symmetry_cell_setting 'hexagonal'
loop_
_space_group_symop_operation_xyz
x,y,z
x-y,x,1/6+z
-y,x-y,1/3+z
-x,-y,1/2+z
-x+y,-x,2/3+z
y,-x+y,5/6+z
x-y,-y,-z
-x,-x+y,2/3-z
y,x,1/3-z
-y,-x,5/6-z
-x+y,y,1/2-z
x,x-y,1/6-z
loop_
_atom_site_type_symbol
_atom_site_label
_atom_site_fract_x
_atom_site_fract_y
_atom_site_fract_z
Si Si1 0.788634 0.211367 0.416667
Si Si2 0.385804 0.260066 0.690242
Si Si3 0.242491 0.242491 0.166667
Si Si4 0.890954 0.815859 0.451742
Si Si5 0.549399 0.076936 0.382142
O O1 0.887998 0.236009 0.334630
O O2 0.671742 0.161647 0.366655
O O3 0.319203 0.319203 0.666667
O O4 0.413234 0.206617 0.583334
O O5 0.302321 0.160702 0.761020
O O6 0.486241 0.349935 0.753868
O O7 0.185153 0.185931 0.284253
O O8 0.873512 0.868905 0.340297
O O9 0.512895 0.025790 0.250000
O O10 0.524839 0.000000 0.500000
#
# Coordination Sequence:
#
# PCOD9583017 Si02
#       5
#     6  12   6  12  12
#     4  12  24  48  78 114 156 210 260 350 408 508
#     4  11  24  47  74 107 149 213 266 336 404 479
#     4  12  24  42  68 106 148 204 256 314 400 496
#     4  12  24  43  65 105 157 209 267 329 411 498
#     4  11  27  50  80 116 159 214 278 338 421 492
#
# _framework density 22.142558000000001
#
# number of rings (size 3 to 8) (size 9 to 14) (size 15 to 20)
#    0.000    0.500    6.250    1.500    0.000    1.000 
#   20.250    0.000    0.000    0.000    0.000    0.000 
#    0.000    0.000    0.000    0.000    0.000    0.000 
#
# Total GULP energy -267289.671155 kJ/mol
# GULP energy per Si atom -5568.534816 kJ/mol
# Density = 2.209216 g / cm^3
# Si number density = 22.142558 Si / 1000 Ang^3
#
#
#
# Elastic Constant Matrix: (Units=GPa)
#
#
# Indices 1 2 3 4 5 6 
#
# 1 144.6216 43.1400 56.9520 0.0000 0.0000 0.0000
# 2 43.1400 144.6216 56.9520 0.0000 0.0000 0.0000
# 3 56.9520 56.9520 146.7608 0.0000 0.0000 0.0000
# 4 0.0000 0.0000 0.0000 34.9636 0.0000 0.0000
# 5 0.0000 0.0000 0.0000 0.0000 34.9636 0.0000
# 6 0.0000 0.0000 0.0000 0.0000 0.0000 50.7408
#
#
#
# Elastic Compliance Matrix: (Units=1/GPa)
#
#
# Indices 1 2 3 4 5 6 
#
# 1 0.008410 -0.001444 -0.002703 0.000000 0.000000 0.000000
# 2 -0.001444 0.008410 -0.002703 0.000000 0.000000 0.000000
# 3 -0.002703 -0.002703 0.008912 0.000000 0.000000 0.000000
# 4 0.000000 0.000000 0.000000 0.028601 0.000000 0.000000
# 5 0.000000 0.000000 0.000000 0.000000 0.028601 0.000000
# 6 0.000000 0.000000 0.000000 0.000000 0.000000 0.019708
#
#
# Mechanical properties :
#
#
# Convention : Reuss Voigt Hill
#
# Bulk Modulus (GPa) = 83.12047 83.34354 83.23200
# Shear Modulus (GPa) = 41.54453 42.73096 42.13774
#
# Velocity S-wave (km/s) = 4.33625 4.39773 4.36710
# Velocity P-wave (km/s) = 7.91776 7.96919 7.94352
#
# Compressibility (1/GPa) = 0.01203073
#
# Stress axis : x y z
#
# Youngs Moduli (GPa) = 118.90802 118.90802 112.21142
#
# Poissons Ratio (x) = 0.17172 0.30332
# Poissons Ratio (y) = 0.17172 0.30332
# Poissons Ratio (z) = 0.32142 0.32142
#
# Static dielectric constant tensor:
#      x y z
#    x 1.836310 0.000000 0.000000 
#    y 0.000000 1.836310 0.000000 
#    z 0.000000 0.000000 1.935080 
# 
# From -- ./inp_files/4168.got.cif
#   From: 2010.05.17/outbox.cif.g08.bks.cpg/sg178_3_cif.got.tgz:4168.got - 2010.05.20 11:30:59.
