data_PCOD9583655
_publ_section_title
;
Structure prediction by ZEFSAII (Michael W. Deem and Ramdas Pophale) SiO2 
 PCOD9583655
Probable space group: P 62 2 2
;
_chemical_formula_sum "Si O2"
_cell_formula_units_Z 54
_cell_length_a 25.039257
_cell_length_b 25.039257
_cell_length_c 5.674457
_cell_angle_alpha 90.000000
_cell_angle_beta 90.000000
_cell_angle_gamma 120.000000
_cell_volume 3081.043404
_symmetry_space_group_name_H-M "P 62 2 2"
_symmetry_group_IT_number 180
_symmetry_cell_setting 'hexagonal'
loop_
_space_group_symop_operation_xyz
x,y,z
x-y,x,1/3+z
-y,x-y,2/3+z
-x,-y,z
-x+y,-x,1/3+z
y,-x+y,2/3+z
x-y,-y,-z
-x,-x+y,1/3-z
y,x,2/3-z
-y,-x,2/3-z
-x+y,y,-z
x,x-y,1/3-z
loop_
_atom_site_type_symbol
_atom_site_label
_atom_site_fract_x
_atom_site_fract_y
_atom_site_fract_z
Si Si1 0.520160 0.358200 0.399478
Si Si2 0.695180 0.709557 0.081746
Si Si3 0.433965 0.402720 0.584350
Si Si4 0.849202 0.582057 0.385783
Si Si5 0.757180 0.242821 0.333334
O O1 0.585697 0.414304 0.333334
O O2 0.487214 0.385294 0.567871
O O3 0.472292 0.326477 0.183805
O O4 0.525207 0.300891 0.501552
O O5 0.728961 0.728961 0.333334
O O6 0.658820 0.634167 0.082388
O O7 0.642574 0.728104 0.070889
O O8 0.730452 0.730452 0.833334
O O9 0.435485 0.435485 0.333334
O O10 0.435326 0.435326 0.833334
O O11 0.795633 0.591266 0.500000
O O12 0.821264 0.558413 0.130059
#
# Coordination Sequence:
#
# PCOD9583655 Si02
#       5
#    12  12  12  12   6
#     4  11  23  39  59  81 105 139 181 226 282 344
#     4  10  18  32  54  80 111 135 168 211 266 325
#     4  10  19  35  56  83 114 134 163 205 276 337
#     4  10  21  37  57  79 101 141 176 216 268 334
#     4  10  22  40  60  72 104 138 178 222 267 334
#
# _framework density 17.526530999999999
#
# number of rings (size 3 to 8) (size 9 to 14) (size 15 to 20)
#    0.000    1.778    4.444    2.667    3.111    1.333 
#    0.000    2.222   24.444    0.000    0.000    0.000 
#    0.000    0.000    0.000    0.000    0.000    0.000 
#
# Total GULP energy -301074.854106 kJ/mol
# GULP energy per Si atom -5575.460261 kJ/mol
# Density = 1.748664 g / cm^3
# Si number density = 17.526531 Si / 1000 Ang^3
#
#
#
# Elastic Constant Matrix: (Units=GPa)
#
#
# Indices 1 2 3 4 5 6 
#
# 1 48.7317 36.0338 24.6305 0.0000 0.0000 0.0000
# 2 36.0338 48.7317 24.6305 0.0000 0.0000 0.0000
# 3 24.6305 24.6305 134.2146 0.0000 0.0000 0.0000
# 4 0.0000 0.0000 0.0000 -6.4421 0.0000 0.0000
# 5 0.0000 0.0000 0.0000 0.0000 -6.4421 0.0000
# 6 0.0000 0.0000 0.0000 0.0000 0.0000 6.3490
#
#
#
# Elastic Compliance Matrix: (Units=1/GPa)
#
#
# Indices 1 2 3 4 5 6 
#
# 1 0.045979 -0.032774 -0.002423 0.000000 0.000000 0.000000
# 2 -0.032774 0.045979 -0.002423 0.000000 0.000000 0.000000
# 3 -0.002423 -0.002423 0.008340 0.000000 0.000000 0.000000
# 4 0.000000 0.000000 0.000000 -0.155228 0.000000 0.000000
# 5 0.000000 0.000000 0.000000 0.000000 -0.155228 0.000000
# 6 0.000000 0.000000 0.000000 0.000000 0.000000 0.157506
#
#
# Mechanical properties :
#
#
# Convention : Reuss Voigt Hill
#
# Bulk Modulus (GPa) = 39.90785 44.69640 42.30213
# Shear Modulus (GPa) = 161.58620 8.45181 85.01901
#
# Velocity S-wave (km/s) = 9.61225 2.19835 6.97238
# Velocity P-wave (km/s) = 12.08359 5.65696 9.43436
#
# Compressibility (1/GPa) = 0.02505773
#
# Stress axis : x y z
#
# Youngs Moduli (GPa) = 21.74887 21.74887 119.90065
#
# Poissons Ratio (x) = 0.71279 0.29057
# Poissons Ratio (y) = 0.71279 0.29057
# Poissons Ratio (z) = 0.05271 0.05271
#
# Static dielectric constant tensor:
#      x y z
#    x 1.584240 0.000000 0.000000 
#    y 0.000000 1.584240 0.000000 
#    z 0.000000 0.000000 1.787410 
# 
# From -- ./inp_files/1216.got.cif
#   From: 2010.05.17/outbox.cif.g08.bks.cpg/sg180_1_cif.got.tgz:1216.got - 2010.05.20 11:43:55.
