data_PCOD9583154
_publ_section_title
;
Structure prediction by ZEFSAII (Michael W. Deem and Ramdas Pophale) SiO2 
 PCOD9583154
Probable space group: P 65 2 2
;
_chemical_formula_sum "Si O2"
_cell_formula_units_Z 60
_cell_length_a 14.187935
_cell_length_b 14.187935
_cell_length_c 14.641768
_cell_angle_alpha 90.000000
_cell_angle_beta 90.000000
_cell_angle_gamma 120.000000
_cell_volume 2552.481089
_symmetry_space_group_name_H-M "P 65 2 2"
_symmetry_group_IT_number 179
_symmetry_cell_setting 'hexagonal'
loop_
_space_group_symop_operation_xyz
x,y,z
x-y,x,5/6+z
-y,x-y,2/3+z
-x,-y,1/2+z
-x+y,-x,1/3+z
y,-x+y,1/6+z
x-y,-y,-z
-x,-x+y,1/3-z
y,x,2/3-z
-y,-x,1/6-z
-x+y,y,1/2-z
x,x-y,5/6-z
loop_
_atom_site_type_symbol
_atom_site_label
_atom_site_fract_x
_atom_site_fract_y
_atom_site_fract_z
Si Si1 0.165684 0.717254 0.672117
Si Si2 0.040067 0.720623 0.307154
Si Si3 0.359528 0.274760 0.148441
Si Si4 0.535899 0.000000 0.500000
Si Si5 0.857375 0.928688 0.416667
Si Si6 0.333420 0.666581 0.083334
Si Si7 0.189979 0.594990 0.916667
O O1 0.207526 0.792475 0.583334
O O2 0.088487 0.735575 0.742436
O O3 0.276529 0.736728 0.723016
O O4 0.101168 0.586685 0.654137
O O5 0.163524 0.809138 0.283511
O O6 0.000570 0.607372 0.253825
O O7 0.016935 0.708508 0.416178
O O8 0.974085 0.778017 0.274031
O O9 0.481703 0.367454 0.130077
O O10 0.930755 0.930755 0.333334
O O11 0.327614 0.732164 0.170287
#
# Coordination Sequence:
#
# PCOD9583154 Si02
#       7
#    12  12  12   6   6   6   6
#     4  11  26  45  65 101 146 202 254 308 375 460
#     4  12  23  44  76 113 148 194 249 329 385 464
#     4  11  25  42  71 105 150 197 250 311 382 459
#     4  12  26  42  74 110 148 196 256 314 382 468
#     4  12  24  49  82 120 152 186 256 329 406 454
#     4  10  18  37  61  90 130 180 234 292 358 436
#     4  10  20  38  59  98 140 188 242 287 368 444
#
# _framework density 23.506540999999999
#
# number of rings (size 3 to 8) (size 9 to 14) (size 15 to 20)
#    0.000    0.800    4.000    3.600    5.600    1.600 
#    0.000    0.000    4.400    0.000    0.000    0.000 
#    0.000    0.000    0.000    0.000    0.000    0.000 
#
# Total GULP energy -335282.983046 kJ/mol
# GULP energy per Si atom -5588.049717 kJ/mol
# Density = 2.345304 g / cm^3
# Si number density = 23.506541 Si / 1000 Ang^3
#
#
#
# Elastic Constant Matrix: (Units=GPa)
#
#
# Indices 1 2 3 4 5 6 
#
# 1 80.8727 21.3175 31.3151 0.0000 0.0000 0.0000
# 2 21.3175 80.8727 31.3151 0.0000 0.0000 0.0000
# 3 31.3151 31.3151 168.0880 0.0000 0.0000 0.0000
# 4 0.0000 0.0000 0.0000 40.9857 0.0000 0.0000
# 5 0.0000 0.0000 0.0000 0.0000 40.9857 0.0000
# 6 0.0000 0.0000 0.0000 0.0000 0.0000 29.7776
#
#
#
# Elastic Compliance Matrix: (Units=1/GPa)
#
#
# Indices 1 2 3 4 5 6 
#
# 1 0.013919 -0.002872 -0.002058 0.000000 0.000000 0.000000
# 2 -0.002872 0.013919 -0.002058 0.000000 0.000000 0.000000
# 3 -0.002058 -0.002058 0.006716 0.000000 0.000000 0.000000
# 4 0.000000 0.000000 0.000000 0.024399 0.000000 0.000000
# 5 0.000000 0.000000 0.000000 0.000000 0.024399 0.000000
# 6 0.000000 0.000000 0.000000 0.000000 0.000000 0.033582
#
#
# Mechanical properties :
#
#
# Convention : Reuss Voigt Hill
#
# Bulk Modulus (GPa) = 48.59596 55.30321 51.94959
# Shear Modulus (GPa) = 36.29240 38.74216 37.51728
#
# Velocity S-wave (km/s) = 3.93355 4.06414 3.99938
# Velocity P-wave (km/s) = 6.43029 6.75283 6.59354
#
# Compressibility (1/GPa) = 0.02057784
#
# Stress axis : x y z
#
# Youngs Moduli (GPa) = 71.84376 71.84376 148.89561
#
# Poissons Ratio (x) = 0.20634 0.30644
# Poissons Ratio (y) = 0.20634 0.30644
# Poissons Ratio (z) = 0.14786 0.14786
#
# Static dielectric constant tensor:
#      x y z
#    x 1.881140 0.000000 0.000000 
#    y 0.000000 1.881140 0.000000 
#    z 0.000000 0.000000 2.031400 
# 
# From -- ./inp_files/5899.got.cif
#   From: 2010.05.17/outbox.cif.g08.bks.cpg/sg179_3_cif.got.tgz:5899.got - 2010.05.20 11:37:33.
