data_PCOD9583533
_publ_section_title
;
Structure prediction by ZEFSAII (Michael W. Deem and Ramdas Pophale) SiO2 
 PCOD9583533
Probable space group: P 65 2 2
;
_chemical_formula_sum "Si O2"
_cell_formula_units_Z 42
_cell_length_a 12.560975
_cell_length_b 12.560975
_cell_length_c 15.051652
_cell_angle_alpha 90.000000
_cell_angle_beta 90.000000
_cell_angle_gamma 120.000000
_cell_volume 2056.655271
_symmetry_space_group_name_H-M "P 65 2 2"
_symmetry_group_IT_number 179
_symmetry_cell_setting 'hexagonal'
loop_
_space_group_symop_operation_xyz
x,y,z
x-y,x,5/6+z
-y,x-y,2/3+z
-x,-y,1/2+z
-x+y,-x,1/3+z
y,-x+y,1/6+z
x-y,-y,-z
-x,-x+y,1/3-z
y,x,2/3-z
-y,-x,1/6-z
-x+y,y,1/2-z
x,x-y,5/6-z
loop_
_atom_site_type_symbol
_atom_site_label
_atom_site_fract_x
_atom_site_fract_y
_atom_site_fract_z
Si Si1 0.690253 0.059748 0.597020
Si Si2 0.613339 0.056316 0.900490
Si Si3 0.890426 0.656324 0.904755
Si Si4 0.000000 0.897968 0.666667
O O1 0.815154 0.184847 0.583334
O O2 0.578315 0.082525 0.622429
O O3 0.660023 0.000000 0.500000
O O4 0.696785 0.972550 0.672867
O O5 0.748042 0.178393 0.901327
O O6 0.609464 0.955896 0.831205
O O7 0.589989 0.000000 0.000000
O O8 0.888883 0.769140 0.854455
O O9 0.980075 0.960150 0.750000
#
# Coordination Sequence:
#
# PCOD9583533 Si02
#       4
#    12  12  12   6
#     4  11  27  46  66  97 140 182 225 286 349 419
#     4  11  23  43  69 100 136 177 230 289 347 416
#     4  12  22  43  70 101 138 176 241 290 342 422
#     4  12  24  40  68 106 138 182 224 288 350 410
#
# _framework density 20.421506999999998
#
# number of rings (size 3 to 8) (size 9 to 14) (size 15 to 20)
#    0.000    0.571    4.286    3.429    0.000    3.429 
#    0.000    5.714    0.000    0.000    0.000    0.000 
#    0.000    0.000    0.000    0.000    0.000    0.000 
#
# Total GULP energy -234748.771959 kJ/mol
# GULP energy per Si atom -5589.256475 kJ/mol
# Density = 2.037503 g / cm^3
# Si number density = 20.421507 Si / 1000 Ang^3
#
#
#
# Elastic Constant Matrix: (Units=GPa)
#
#
# Indices 1 2 3 4 5 6 
#
# 1 120.3726 69.6596 49.1029 0.0000 0.0000 0.0000
# 2 69.6596 120.3726 49.1029 0.0000 0.0000 0.0000
# 3 49.1029 49.1029 129.4036 0.0000 0.0000 0.0000
# 4 0.0000 0.0000 0.0000 33.6725 0.0000 0.0000
# 5 0.0000 0.0000 0.0000 0.0000 33.6725 0.0000
# 6 0.0000 0.0000 0.0000 0.0000 0.0000 25.3565
#
#
#
# Elastic Compliance Matrix: (Units=1/GPa)
#
#
# Indices 1 2 3 4 5 6 
#
# 1 0.013132 -0.006586 -0.002484 0.000000 0.000000 0.000000
# 2 -0.006586 0.013132 -0.002484 0.000000 0.000000 0.000000
# 3 -0.002484 -0.002484 0.009613 0.000000 0.000000 0.000000
# 4 0.000000 0.000000 0.000000 0.029698 0.000000 0.000000
# 5 0.000000 0.000000 0.000000 0.000000 0.029698 0.000000
# 6 0.000000 0.000000 0.000000 0.000000 0.000000 0.039438
#
#
# Mechanical properties :
#
#
# Convention : Reuss Voigt Hill
#
# Bulk Modulus (GPa) = 78.31415 78.43110 78.37262
# Shear Modulus (GPa) = 30.84984 32.02588 31.43786
#
# Velocity S-wave (km/s) = 3.89093 3.96440 3.92784
# Velocity P-wave (km/s) = 7.65623 7.71005 7.68319
#
# Compressibility (1/GPa) = 0.01276908
#
# Stress axis : x y z
#
# Youngs Moduli (GPa) = 76.14787 76.14787 104.02795
#
# Poissons Ratio (x) = 0.50154 0.25839
# Poissons Ratio (y) = 0.50154 0.25839
# Poissons Ratio (z) = 0.18914 0.18914
#
# Static dielectric constant tensor:
#      x y z
#    x 1.726000 0.000000 0.000000 
#    y 0.000000 1.726000 0.000000 
#    z 0.000000 0.000000 1.725970 
# 
# From -- ./inp_files/6429.got.cif
#   From: 2010.05.17/outbox.cif.g08.bks.cpg/sg179_4_cif.got.tgz:6429.got - 2010.05.20 11:37:33.
