data_PCOD9583010
_publ_section_title
;
Structure prediction by ZEFSAII (Michael W. Deem and Ramdas Pophale) SiO2 
 PCOD9583010
Probable space group: P 61 2 2
;
_chemical_formula_sum "Si O2"
_cell_formula_units_Z 60
_cell_length_a 14.538214
_cell_length_b 14.538214
_cell_length_c 14.412523
_cell_angle_alpha 90.000000
_cell_angle_beta 90.000000
_cell_angle_gamma 120.000000
_cell_volume 2638.109147
_symmetry_space_group_name_H-M "P 61 2 2"
_symmetry_group_IT_number 178
_symmetry_cell_setting 'hexagonal'
loop_
_space_group_symop_operation_xyz
x,y,z
x-y,x,1/6+z
-y,x-y,1/3+z
-x,-y,1/2+z
-x+y,-x,2/3+z
y,-x+y,5/6+z
x-y,-y,-z
-x,-x+y,2/3-z
y,x,1/3-z
-y,-x,5/6-z
-x+y,y,1/2-z
x,x-y,1/6-z
loop_
_atom_site_type_symbol
_atom_site_label
_atom_site_fract_x
_atom_site_fract_y
_atom_site_fract_z
Si Si1 0.881841 0.881841 0.166667
Si Si2 0.782023 0.096619 0.573560
Si Si3 0.587637 0.997319 0.889500
Si Si4 0.845105 0.422553 0.083334
Si Si5 0.522728 0.292621 0.867996
Si Si6 0.248284 0.023841 0.729221
O O1 0.962564 0.925128 0.250000
O O2 0.886315 0.780208 0.131284
O O3 0.773004 0.203466 0.565207
O O4 0.909478 0.143893 0.583540
O O5 0.725633 0.000000 0.500000
O O6 0.737708 0.050419 0.675395
O O7 0.511275 0.884458 0.841466
O O8 0.702066 0.018748 0.854864
O O9 0.568064 0.083675 0.838210
O O10 0.579147 0.000000 0.000000
O O11 0.770581 0.302754 0.114886
O O12 0.635775 0.364226 0.916667
#
# Coordination Sequence:
#
# PCOD9583010 Si02
#       6
#     6  12  12   6  12  12
#     4  12  26  38  64 100 150 204 250 306 364 448
#     4  11  24  46  74 108 157 208 252 315 385 463
#     4  11  27  52  81 110 156 199 247 324 390 461
#     4  12  26  54  80 118 148 194 262 310 396 468
#     4  11  27  52  78 117 154 196 263 326 388 471
#     4  11  24  45  67 110 153 202 256 307 372 467
#
# _framework density 22.743562000000001
#
# number of rings (size 3 to 8) (size 9 to 14) (size 15 to 20)
#    0.000    0.800    5.000    0.600    5.600    0.800 
#    7.200    0.000    0.000    0.000    0.000    0.000 
#    0.000    0.000    0.000    0.000    0.000    0.000 
#
# Total GULP energy -335309.244673 kJ/mol
# GULP energy per Si atom -5588.487411 kJ/mol
# Density = 2.269180 g / cm^3
# Si number density = 22.743562 Si / 1000 Ang^3
#
#
#
# Elastic Constant Matrix: (Units=GPa)
#
#
# Indices 1 2 3 4 5 6 
#
# 1 34.3072 50.8801 30.8009 0.0000 0.0000 0.0000
# 2 50.8801 34.3072 30.8009 0.0000 0.0000 0.0000
# 3 30.8009 30.8009 159.1872 0.0000 0.0000 0.0000
# 4 0.0000 0.0000 0.0000 29.0135 0.0000 0.0000
# 5 0.0000 0.0000 0.0000 0.0000 29.0135 0.0000
# 6 0.0000 0.0000 0.0000 0.0000 0.0000 -8.2864
#
#
#
# Elastic Compliance Matrix: (Units=1/GPa)
#
#
# Indices 1 2 3 4 5 6 
#
# 1 -0.023346 0.036994 -0.002641 0.000000 0.000000 0.000000
# 2 0.036994 -0.023346 -0.002641 0.000000 0.000000 0.000000
# 3 -0.002641 -0.002641 0.007304 0.000000 0.000000 0.000000
# 4 0.000000 0.000000 0.000000 0.034467 0.000000 0.000000
# 5 0.000000 0.000000 0.000000 0.000000 0.034467 0.000000
# 6 0.000000 0.000000 0.000000 0.000000 0.000000 -0.120679
#
#
# Mechanical properties :
#
#
# Convention : Reuss Voigt Hill
#
# Bulk Modulus (GPa) = 41.60159 50.30727 45.95443
# Shear Modulus (GPa) = -34.11918 17.63611 -8.24154
#
# Velocity S-wave (km/s) = -3.87740 2.78768 -1.90566
# Velocity P-wave (km/s) = 1.30934 5.70341 3.92521
#
# Compressibility (1/GPa) = 0.02403754
#
# Stress axis : x y z
#
# Youngs Moduli (GPa) = -42.83478 -42.83478 136.91401
#
# Poissons Ratio (x) = 1.58463 0.36157
# Poissons Ratio (y) = 1.58463 0.36157
# Poissons Ratio (z) = -0.11312 -0.11312
#
# Static dielectric constant tensor:
#      x y z
#    x 1.872630 0.000000 0.000000 
#    y 0.000000 1.872630 0.000000 
#    z 0.000000 0.000000 1.846950 
# 
# From -- ./inp_files/5737.got.cif
#   From: 2010.05.17/outbox.cif.g08.bks.cpg/sg178_3_cif.got.tgz:5737.got - 2010.05.20 11:30:59.
