data_PCOD9583049
_publ_section_title
;
Structure prediction by ZEFSAII (Michael W. Deem and Ramdas Pophale) SiO2 
 PCOD9583049
Probable space group: P 61 2 2
;
_chemical_formula_sum "Si O2"
_cell_formula_units_Z 48
_cell_length_a 14.852839
_cell_length_b 14.852839
_cell_length_c 11.485452
_cell_angle_alpha 90.000000
_cell_angle_beta 90.000000
_cell_angle_gamma 120.000000
_cell_volume 2194.308421
_symmetry_space_group_name_H-M "P 61 2 2"
_symmetry_group_IT_number 178
_symmetry_cell_setting 'hexagonal'
loop_
_space_group_symop_operation_xyz
x,y,z
x-y,x,1/6+z
-y,x-y,1/3+z
-x,-y,1/2+z
-x+y,-x,2/3+z
y,-x+y,5/6+z
x-y,-y,-z
-x,-x+y,2/3-z
y,x,1/3-z
-y,-x,5/6-z
-x+y,y,1/2-z
x,x-y,1/6-z
loop_
_atom_site_type_symbol
_atom_site_label
_atom_site_fract_x
_atom_site_fract_y
_atom_site_fract_z
Si Si1 0.549154 0.070434 0.615862
Si Si2 0.970850 0.691166 0.020364
Si Si3 0.679819 0.768397 0.254131
Si Si4 0.095085 0.190170 0.250000
Si Si5 0.248513 0.497026 0.750000
O O1 0.514874 0.029748 0.750000
O O2 0.660207 0.075619 0.616849
O O3 0.554341 0.182674 0.612281
O O4 0.488456 0.000000 0.500000
O O5 0.884106 0.724652 0.034857
O O6 0.020082 0.688294 0.145231
O O7 0.061874 0.790598 0.961905
O O8 0.756122 0.756122 0.166667
O O9 0.577754 0.754369 0.187783
O O10 0.115993 0.115993 0.166667
#
# Coordination Sequence:
#
# PCOD9583049 Si02
#       5
#    12  12  12   6   6
#     4  12  26  50  80 114 160 209 276 340 404 477
#     4  12  25  44  75 108 158 202 249 325 404 483
#     4  12  22  43  75 107 148 200 255 317 398 466
#     4  12  26  44  67 108 154 188 239 304 396 480
#     4  12  24  44  77 108 152 208 277 328 378 480
#
# _framework density 21.874775
#
# number of rings (size 3 to 8) (size 9 to 14) (size 15 to 20)
#    0.000    0.000    7.500    3.000    0.000    1.000 
#    0.000    2.500    0.000    0.000    0.000    0.000 
#    0.000    0.000    0.000    0.000    0.000    0.000 
#
# Total GULP energy -267244.318626 kJ/mol
# GULP energy per Si atom -5567.589971 kJ/mol
# Density = 2.182499 g / cm^3
# Si number density = 21.874775 Si / 1000 Ang^3
#
#
#
# Elastic Constant Matrix: (Units=GPa)
#
#
# Indices 1 2 3 4 5 6 
#
# 1 130.7755 53.2033 38.9590 0.0000 0.0000 0.0000
# 2 53.2033 130.7755 38.9590 0.0000 0.0000 0.0000
# 3 38.9590 38.9590 91.0622 0.0000 0.0000 0.0000
# 4 0.0000 0.0000 0.0000 42.4048 0.0000 0.0000
# 5 0.0000 0.0000 0.0000 0.0000 42.4048 0.0000
# 6 0.0000 0.0000 0.0000 0.0000 0.0000 38.7861
#
#
#
# Elastic Compliance Matrix: (Units=1/GPa)
#
#
# Indices 1 2 3 4 5 6 
#
# 1 0.009765 -0.003127 -0.002840 0.000000 0.000000 0.000000
# 2 -0.003127 0.009765 -0.002840 0.000000 0.000000 0.000000
# 3 -0.002840 -0.002840 0.013412 0.000000 0.000000 0.000000
# 4 0.000000 0.000000 0.000000 0.023582 0.000000 0.000000
# 5 0.000000 0.000000 0.000000 0.000000 0.023582 0.000000
# 6 0.000000 0.000000 0.000000 0.000000 0.000000 0.025782
#
#
# Mechanical properties :
#
#
# Convention : Reuss Voigt Hill
#
# Bulk Modulus (GPa) = 65.24037 68.31732 66.77885
# Shear Modulus (GPa) = 38.87712 39.48524 39.18118
#
# Velocity S-wave (km/s) = 4.22033 4.25321 4.23680
# Velocity P-wave (km/s) = 7.32376 7.44437 7.38431
#
# Compressibility (1/GPa) = 0.01532793
#
# Stress axis : x y z
#
# Youngs Moduli (GPa) = 102.40955 102.40955 74.56242
#
# Poissons Ratio (x) = 0.32018 0.21176
# Poissons Ratio (y) = 0.32018 0.21176
# Poissons Ratio (z) = 0.29084 0.29084
#
# Static dielectric constant tensor:
#      x y z
#    x 1.838110 0.000000 0.000000 
#    y 0.000000 1.838110 0.000000 
#    z 0.000000 0.000000 2.036690 
# 
# From -- ./inp_files/4204.got.cif
#   From: 2010.05.17/outbox.cif.g08.bks.cpg/sg178_3_cif.got.tgz:4204.got - 2010.05.20 11:30:59.
