data_PCOD9583051
_publ_section_title
;
Structure prediction by ZEFSAII (Michael W. Deem and Ramdas Pophale) SiO2 
 PCOD9583051
Probable space group: P 61 2 2
;
_chemical_formula_sum "Si O2"
_cell_formula_units_Z 36
_cell_length_a 11.942628
_cell_length_b 11.942628
_cell_length_c 12.919472
_cell_angle_alpha 90.000000
_cell_angle_beta 90.000000
_cell_angle_gamma 120.000000
_cell_volume 1595.788041
_symmetry_space_group_name_H-M "P 61 2 2"
_symmetry_group_IT_number 178
_symmetry_cell_setting 'hexagonal'
loop_
_space_group_symop_operation_xyz
x,y,z
x-y,x,1/6+z
-y,x-y,1/3+z
-x,-y,1/2+z
-x+y,-x,2/3+z
y,-x+y,5/6+z
x-y,-y,-z
-x,-x+y,2/3-z
y,x,1/3-z
-y,-x,5/6-z
-x+y,y,1/2-z
x,x-y,1/6-z
loop_
_atom_site_type_symbol
_atom_site_label
_atom_site_fract_x
_atom_site_fract_y
_atom_site_fract_z
Si Si1 0.464348 0.464348 0.666667
Si Si2 0.851843 0.335004 0.498389
Si Si3 0.815676 0.631351 0.250000
Si Si4 0.826123 0.800496 0.919722
O O1 0.555712 0.525926 0.765442
O O2 0.445200 0.324217 0.637321
O O3 0.739458 0.260543 0.416667
O O4 0.816457 0.408229 0.583334
O O5 0.888170 0.234933 0.548940
O O6 0.807138 0.722695 0.337362
O O7 0.841928 0.889464 0.821765
#
# Coordination Sequence:
#
# PCOD9583051 Si02
#       4
#     6  12   6  12
#     4  12  26  46  80 112 152 208 266 324 396 474
#     4  12  27  52  75 113 157 205 263 328 399 476
#     4  12  22  46  72 112 150 202 258 316 378 470
#     4  12  25  51  76 112 156 200 255 319 396 468
#
# _framework density 22.559388999999999
#
# number of rings (size 3 to 8) (size 9 to 14) (size 15 to 20)
#    0.000    0.000    6.667    2.000    2.333    0.000 
#   15.000    0.000    0.000    0.000    0.000    0.000 
#    0.000    0.000    0.000    0.000    0.000    0.000 
#
# Total GULP energy -201874.001226 kJ/mol
# GULP energy per Si atom -5607.611145 kJ/mol
# Density = 2.250804 g / cm^3
# Si number density = 22.559389 Si / 1000 Ang^3
#
#
#
# Elastic Constant Matrix: (Units=GPa)
#
#
# Indices 1 2 3 4 5 6 
#
# 1 85.6579 40.0537 72.2208 0.0000 0.0000 0.0000
# 2 40.0537 85.6579 72.2208 0.0000 0.0000 0.0000
# 3 72.2208 72.2208 172.4382 0.0000 0.0000 0.0000
# 4 0.0000 0.0000 0.0000 234.7397 0.0000 0.0000
# 5 0.0000 0.0000 0.0000 0.0000 234.7397 0.0000
# 6 0.0000 0.0000 0.0000 0.0000 0.0000 22.8021
#
#
#
# Elastic Compliance Matrix: (Units=1/GPa)
#
#
# Indices 1 2 3 4 5 6 
#
# 1 0.018631 -0.003297 -0.006422 0.000000 0.000000 0.000000
# 2 -0.003297 0.018631 -0.006422 0.000000 0.000000 0.000000
# 3 -0.006422 -0.006422 0.011179 0.000000 0.000000 0.000000
# 4 0.000000 0.000000 0.000000 0.004260 0.000000 0.000000
# 5 0.000000 0.000000 0.000000 0.000000 0.004260 0.000000
# 6 0.000000 0.000000 0.000000 0.000000 0.000000 0.043856
#
#
# Mechanical properties :
#
#
# Convention : Reuss Voigt Hill
#
# Bulk Modulus (GPa) = 61.89050 79.19389 70.54219
# Shear Modulus (GPa) = 36.10531 109.07354 72.58942
#
# Velocity S-wave (km/s) = 4.00491 6.96092 5.67863
# Velocity P-wave (km/s) = 6.99141 9.98933 8.62168
#
# Compressibility (1/GPa) = 0.01615757
#
# Stress axis : x y z
#
# Youngs Moduli (GPa) = 53.67489 53.67489 89.45708
#
# Poissons Ratio (x) = 0.17697 0.57450
# Poissons Ratio (y) = 0.17697 0.57450
# Poissons Ratio (z) = 0.34470 0.34470
#
# Static dielectric constant tensor:
#      x y z
#    x 1.856520 0.000000 0.000000 
#    y 0.000000 1.856520 0.000000 
#    z 0.000000 0.000000 2.214170 
# 
# From -- ./inp_files/5153.got.cif
#   From: 2010.05.17/outbox.cif.g08.bks.cpg/sg178_3_cif.got.tgz:5153.got - 2010.05.20 11:30:59.
