data_PCOD9583243
_publ_section_title
;
Structure prediction by ZEFSAII (Michael W. Deem and Ramdas Pophale) SiO2 
 PCOD9583243
Probable space group: P 65 2 2
;
_chemical_formula_sum "Si O2"
_cell_formula_units_Z 48
_cell_length_a 10.976918
_cell_length_b 10.976918
_cell_length_c 24.183823
_cell_angle_alpha 90.000000
_cell_angle_beta 90.000000
_cell_angle_gamma 120.000000
_cell_volume 2523.576225
_symmetry_space_group_name_H-M "P 65 2 2"
_symmetry_group_IT_number 179
_symmetry_cell_setting 'hexagonal'
loop_
_space_group_symop_operation_xyz
x,y,z
x-y,x,5/6+z
-y,x-y,2/3+z
-x,-y,1/2+z
-x+y,-x,1/3+z
y,-x+y,1/6+z
x-y,-y,-z
-x,-x+y,1/3-z
y,x,2/3-z
-y,-x,1/6-z
-x+y,y,1/2-z
x,x-y,5/6-z
loop_
_atom_site_type_symbol
_atom_site_label
_atom_site_fract_x
_atom_site_fract_y
_atom_site_fract_z
Si Si1 0.161219 0.734424 0.304586
Si Si2 0.628466 0.967331 0.757321
Si Si3 0.717012 0.298442 0.190785
Si Si4 0.604022 0.927445 0.449404
O O1 0.240813 0.889544 0.278634
O O2 0.267424 0.674711 0.315082
O O3 0.090658 0.730450 0.363998
O O4 0.041569 0.628299 0.263196
O O5 0.498765 0.997529 0.750000
O O6 0.571599 0.839164 0.801755
O O7 0.652077 0.304154 0.250000
O O8 0.852577 0.450689 0.188081
O O9 0.621726 0.810863 0.416667
O O10 0.710737 0.000000 0.500000
#
# Coordination Sequence:
#
# PCOD9583243 Si02
#       4
#    12  12  12  12
#     4  10  20  35  59  83 124 156 201 256 314 360
#     4   9  20  33  60  87 119 161 199 253 304 371
#     4   8  20  33  55  84 119 152 196 248 301 364
#     4  11  23  36  57  88 123 157 207 258 307 370
#
# _framework density 19.020624999999999
#
# number of rings (size 3 to 8) (size 9 to 14) (size 15 to 20)
#    0.000    3.000    0.000    1.500   24.500    0.000 
#    0.000    0.000    0.000    4.500    0.000    3.500 
#    0.000    0.000    0.000    0.000    0.000    0.000 
#
# Total GULP energy -267345.808350 kJ/mol
# GULP energy per Si atom -5569.704341 kJ/mol
# Density = 1.897733 g / cm^3
# Si number density = 19.020625 Si / 1000 Ang^3
#
#
#
# Elastic Constant Matrix: (Units=GPa)
#
#
# Indices 1 2 3 4 5 6 
#
# 1 83.1775 59.2764 45.1460 0.0000 0.0000 0.0000
# 2 59.2764 83.1775 45.1460 0.0000 0.0000 0.0000
# 3 45.1460 45.1460 88.6873 0.0000 0.0000 0.0000
# 4 0.0000 0.0000 0.0000 25.5704 0.0000 0.0000
# 5 0.0000 0.0000 0.0000 0.0000 25.5704 0.0000
# 6 0.0000 0.0000 0.0000 0.0000 0.0000 11.9505
#
#
#
# Elastic Compliance Matrix: (Units=1/GPa)
#
#
# Indices 1 2 3 4 5 6 
#
# 1 0.026101 -0.015738 -0.005276 0.000000 0.000000 0.000000
# 2 -0.015738 0.026101 -0.005276 0.000000 0.000000 0.000000
# 3 -0.005276 -0.005276 0.016647 0.000000 0.000000 0.000000
# 4 0.000000 0.000000 0.000000 0.039108 0.000000 0.000000
# 5 0.000000 0.000000 0.000000 0.000000 0.039108 0.000000
# 6 0.000000 0.000000 0.000000 0.000000 0.000000 0.083678
#
#
# Mechanical properties :
#
#
# Convention : Reuss Voigt Hill
#
# Bulk Modulus (GPa) = 61.45686 61.57546 61.51616
# Shear Modulus (GPa) = 17.31633 19.64985 18.48309
#
# Velocity S-wave (km/s) = 3.02055 3.21765 3.12066
# Velocity P-wave (km/s) = 6.67426 6.80056 6.73771
#
# Compressibility (1/GPa) = 0.01627158
#
# Stress axis : x y z
#
# Youngs Moduli (GPa) = 38.31216 38.31216 60.07225
#
# Poissons Ratio (x) = 0.60295 0.31692
# Poissons Ratio (y) = 0.60295 0.31692
# Poissons Ratio (z) = 0.20212 0.20212
#
# Static dielectric constant tensor:
#      x y z
#    x 1.719590 0.000000 0.000000 
#    y 0.000000 1.719590 0.000000 
#    z 0.000000 0.000000 1.706920 
# 
# From -- ./inp_files/8050.got.cif
#   From: 2010.05.17/outbox.cif.g08.bks.cpg/sg179_5_cif.got.tgz:8050.got - 2010.05.20 11:37:33.
