data_PCOD9583801
_publ_section_title
;
Structure prediction by ZEFSAII (Michael W. Deem and Ramdas Pophale) SiO2 
 PCOD9583801
Probable space group: P 62 2 2
;
_chemical_formula_sum "Si O2"
_cell_formula_units_Z 75
_cell_length_a 14.039214
_cell_length_b 14.039214
_cell_length_c 20.272190
_cell_angle_alpha 90.000000
_cell_angle_beta 90.000000
_cell_angle_gamma 120.000000
_cell_volume 3460.324979
_symmetry_space_group_name_H-M "P 62 2 2"
_symmetry_group_IT_number 180
_symmetry_cell_setting 'hexagonal'
loop_
_space_group_symop_operation_xyz
x,y,z
x-y,x,1/3+z
-y,x-y,2/3+z
-x,-y,z
-x+y,-x,1/3+z
y,-x+y,2/3+z
x-y,-y,-z
-x,-x+y,1/3-z
y,x,2/3-z
-y,-x,2/3-z
-x+y,y,-z
x,x-y,1/3-z
loop_
_atom_site_type_symbol
_atom_site_label
_atom_site_fract_x
_atom_site_fract_y
_atom_site_fract_z
Si Si1 0.463405 0.314621 0.232647
Si Si2 0.500000 0.000000 0.000000
Si Si3 0.000000 0.500000 0.984361
Si Si4 0.013167 0.181771 0.366894
Si Si5 0.741652 0.156482 0.650327
Si Si6 0.459835 0.747945 0.857025
Si Si7 0.867471 0.734942 0.500000
Si Si8 0.270667 0.847883 0.269823
O O1 0.464176 0.397491 0.285962
O O2 0.455301 0.215480 0.278266
O O3 0.579273 0.385054 0.195902
O O4 0.354690 0.259087 0.187069
O O5 0.085604 0.486824 0.940100
O O6 0.062828 0.614097 0.023876
O O7 0.936985 0.063016 0.333334
O O8 0.927533 0.221766 0.386953
O O9 0.099850 0.281655 0.319525
O O10 0.076233 0.192439 0.435287
O O11 0.763242 0.243511 0.593385
O O12 0.375196 0.624805 0.833334
O O13 0.551013 0.792718 0.800564
O O14 0.231620 0.768381 0.333334
#
# Coordination Sequence:
#
# PCOD9583801 Si02
#       8
#    12   3   6  12  12  12   6  12
#     4  11  23  38  59 101 140 180 222 277 342 433
#     4  12  24  38  64  96 152 176 224 282 364 402
#     4  10  20  37  63  80 126 180 218 260 316 394
#     4   9  21  42  65  92 130 171 229 294 346 406
#     4  10  21  40  58  92 132 174 229 284 328 407
#     4  12  22  35  60  92 140 182 217 267 343 410
#     4  10  22  40  68 100 135 181 230 284 356 432
#     4  10  22  37  55  88 125 175 222 261 317 400
#
# _framework density 21.674264999999998
#
# number of rings (size 3 to 8) (size 9 to 14) (size 15 to 20)
#    0.000    1.600    2.400    1.920    6.720    0.000 
#    0.000   13.200    0.000    0.000    0.000   44.800 
#    0.000    0.000    0.000    0.000    0.000    0.000 
#
# Total GULP energy -418582.982718 kJ/mol
# GULP energy per Si atom -5581.106436 kJ/mol
# Density = 2.162493 g / cm^3
# Si number density = 21.674265 Si / 1000 Ang^3
#
#
#
# Elastic Constant Matrix: (Units=GPa)
#
#
# Indices 1 2 3 4 5 6 
#
# 1 61.6363 33.0268 30.2006 0.0000 0.0000 0.0000
# 2 33.0268 61.6363 30.2006 0.0000 0.0000 0.0000
# 3 30.2006 30.2006 113.1353 0.0000 0.0000 0.0000
# 4 0.0000 0.0000 0.0000 14.8291 0.0000 0.0000
# 5 0.0000 0.0000 0.0000 0.0000 14.8291 0.0000
# 6 0.0000 0.0000 0.0000 0.0000 0.0000 14.3047
#
#
#
# Elastic Compliance Matrix: (Units=1/GPa)
#
#
# Indices 1 2 3 4 5 6 
#
# 1 0.023843 -0.011111 -0.003399 0.000000 0.000000 0.000000
# 2 -0.011111 0.023843 -0.003399 0.000000 0.000000 0.000000
# 3 -0.003399 -0.003399 0.010654 0.000000 0.000000 0.000000
# 4 0.000000 0.000000 0.000000 0.067435 0.000000 0.000000
# 5 0.000000 0.000000 0.000000 0.000000 0.067435 0.000000
# 6 0.000000 0.000000 0.000000 0.000000 0.000000 0.069907
#
#
# Mechanical properties :
#
#
# Convention : Reuss Voigt Hill
#
# Bulk Modulus (GPa) = 44.39879 47.02933 45.71406
# Shear Modulus (GPa) = 16.31637 18.32456 17.32046
#
# Velocity S-wave (km/s) = 2.74669 2.91082 2.82995
# Velocity P-wave (km/s) = 5.53066 5.74826 5.64051
#
# Compressibility (1/GPa) = 0.02252314
#
# Stress axis : x y z
#
# Youngs Moduli (GPa) = 41.94108 41.94108 93.86533
#
# Poissons Ratio (x) = 0.46599 0.31903
# Poissons Ratio (y) = 0.46599 0.31903
# Poissons Ratio (z) = 0.14255 0.14255
#
# Static dielectric constant tensor:
#      x y z
#    x 1.905010 0.000000 0.000000 
#    y 0.000000 1.905010 0.000000 
#    z 0.000000 0.000000 1.778210 
# 
# From -- ./inp_files/9242.got.cif
#   From: 2010.05.17/outbox.cif.g08.bks.cpg/sg180_5_cif.got.tgz:9242.got - 2010.05.20 11:43:55.
