data_PCOD9583851
_publ_section_title
;
Structure prediction by ZEFSAII (Michael W. Deem and Ramdas Pophale) SiO2 
 PCOD9583851
Probable space group: P 62 2 2
;
_chemical_formula_sum "Si O2"
_cell_formula_units_Z 48
_cell_length_a 18.120410
_cell_length_b 18.120410
_cell_length_c 7.937748
_cell_angle_alpha 90.000000
_cell_angle_beta 90.000000
_cell_angle_gamma 120.000000
_cell_volume 2257.168490
_symmetry_space_group_name_H-M "P 62 2 2"
_symmetry_group_IT_number 180
_symmetry_cell_setting 'hexagonal'
loop_
_space_group_symop_operation_xyz
x,y,z
x-y,x,1/3+z
-y,x-y,2/3+z
-x,-y,z
-x+y,-x,1/3+z
y,-x+y,2/3+z
x-y,-y,-z
-x,-x+y,1/3-z
y,x,2/3-z
-y,-x,2/3-z
-x+y,y,-z
x,x-y,1/3-z
loop_
_atom_site_type_symbol
_atom_site_label
_atom_site_fract_x
_atom_site_fract_y
_atom_site_fract_z
Si Si1 0.687193 0.216421 0.076896
Si Si2 0.646663 0.507810 0.887393
Si Si3 0.218881 0.912730 0.573144
Si Si4 0.906836 0.649520 0.626474
O O1 0.772063 0.303475 0.119586
O O2 0.656232 0.162376 0.249536
O O3 0.616176 0.232352 0.000000
O O4 0.710025 0.160167 0.955519
O O5 0.548471 0.451530 0.833334
O O6 0.703975 0.607831 0.843089
O O7 0.230031 0.918274 0.774317
O O8 0.131603 0.820021 0.568068
O O9 0.228732 0.000000 0.500000
O O10 0.000000 0.667346 0.666667
#
# Coordination Sequence:
#
# PCOD9583851 Si02
#       4
#    12  12  12  12
#     4  10  21  34  53  78 112 153 198 243 286 336
#     4  10  21  34  52  79 111 154 197 242 288 334
#     4  10  21  38  59  84 114 145 187 236 288 352
#     4  10  21  38  59  84 113 145 188 235 288 351
#
# _framework density 21.265581999999998
#
# number of rings (size 3 to 8) (size 9 to 14) (size 15 to 20)
#    0.000    2.000    0.000    3.000    3.500    6.000 
#    0.000    5.000    0.000    0.000    0.000   10.500 
#    0.000    0.000    0.000    0.000    0.000    0.000 
#
# Total GULP energy -268014.086651 kJ/mol
# GULP energy per Si atom -5583.626805 kJ/mol
# Density = 2.121718 g / cm^3
# Si number density = 21.265582 Si / 1000 Ang^3
#
#
#
# Elastic Constant Matrix: (Units=GPa)
#
#
# Indices 1 2 3 4 5 6 
#
# 1 68.5500 45.5898 20.9065 0.0000 0.0000 0.0000
# 2 45.5898 68.5500 20.9065 0.0000 0.0000 0.0000
# 3 20.9065 20.9065 70.0285 0.0000 0.0000 0.0000
# 4 0.0000 0.0000 0.0000 26.1831 0.0000 0.0000
# 5 0.0000 0.0000 0.0000 0.0000 26.1831 0.0000
# 6 0.0000 0.0000 0.0000 0.0000 0.0000 11.4801
#
#
#
# Elastic Compliance Matrix: (Units=1/GPa)
#
#
# Indices 1 2 3 4 5 6 
#
# 1 0.026695 -0.016858 -0.002937 0.000000 0.000000 0.000000
# 2 -0.016858 0.026695 -0.002937 0.000000 0.000000 0.000000
# 3 -0.002937 -0.002937 0.016033 0.000000 0.000000 0.000000
# 4 0.000000 0.000000 0.000000 0.038193 0.000000 0.000000
# 5 0.000000 0.000000 0.000000 0.000000 0.038193 0.000000
# 6 0.000000 0.000000 0.000000 0.000000 0.000000 0.087107
#
#
# Mechanical properties :
#
#
# Convention : Reuss Voigt Hill
#
# Bulk Modulus (GPa) = 41.73558 42.43710 42.08634
# Shear Modulus (GPa) = 17.46013 20.75099 19.10556
#
# Velocity S-wave (km/s) = 2.86851 3.12717 3.00063
# Velocity P-wave (km/s) = 5.53531 5.74787 5.64259
#
# Compressibility (1/GPa) = 0.02396037
#
# Stress axis : x y z
#
# Youngs Moduli (GPa) = 37.45978 37.45978 62.36976
#
# Poissons Ratio (x) = 0.63151 0.18317
# Poissons Ratio (y) = 0.63151 0.18317
# Poissons Ratio (z) = 0.11001 0.11001
#
# Static dielectric constant tensor:
#      x y z
#    x 1.815490 0.000000 0.000000 
#    y 0.000000 1.815490 0.000000 
#    z 0.000000 0.000000 1.822030 
# 
# From -- ./inp_files/2656.got.cif
#   From: 2010.05.17/outbox.cif.g08.bks.cpg/sg180_2_cif.got.tgz:2656.got - 2010.05.20 11:43:55.
