data_PCOD9583409
_publ_section_title
;
Structure prediction by ZEFSAII (Michael W. Deem and Ramdas Pophale) SiO2 
 PCOD9583409
Probable space group: P 65 2 2
;
_chemical_formula_sum "Si O2"
_cell_formula_units_Z 48
_cell_length_a 14.272606
_cell_length_b 14.272606
_cell_length_c 12.946082
_cell_angle_alpha 90.000000
_cell_angle_beta 90.000000
_cell_angle_gamma 120.000000
_cell_volume 2283.891875
_symmetry_space_group_name_H-M "P 65 2 2"
_symmetry_group_IT_number 179
_symmetry_cell_setting 'hexagonal'
loop_
_space_group_symop_operation_xyz
x,y,z
x-y,x,5/6+z
-y,x-y,2/3+z
-x,-y,1/2+z
-x+y,-x,1/3+z
y,-x+y,1/6+z
x-y,-y,-z
-x,-x+y,1/3-z
y,x,2/3-z
-y,-x,1/6-z
-x+y,y,1/2-z
x,x-y,5/6-z
loop_
_atom_site_type_symbol
_atom_site_label
_atom_site_fract_x
_atom_site_fract_y
_atom_site_fract_z
Si Si1 0.488462 0.894250 0.068742
Si Si2 0.299195 0.089830 0.079115
Si Si3 0.478453 0.239227 0.916667
Si Si4 0.205282 0.410564 0.250000
Si Si5 0.298133 0.307772 0.545956
O O1 0.366359 0.819615 0.104788
O O2 0.573373 0.935825 0.162934
O O3 0.519282 0.822697 0.994270
O O4 0.512342 0.000000 0.000000
O O5 0.262960 0.170012 0.127660
O O6 0.323981 0.027667 0.168546
O O7 0.403003 0.172042 0.012586
O O8 0.216537 0.000000 0.000000
O O9 0.097739 0.336244 0.313849
#
# Coordination Sequence:
#
# PCOD9583409 Si02
#       5
#    12  12   6   6  12
#     4  10  24  45  71 104 144 186 247 293 366 434
#     4  12  24  45  72  99 142 188 241 288 375 419
#     4  12  26  46  68 109 143 198 242 300 350 460
#     4  10  22  48  70 109 139 190 240 298 374 424
#     4  11  23  46  77  99 142 192 231 308 352 441
#
# _framework density 21.016756000000001
#
# number of rings (size 3 to 8) (size 9 to 14) (size 15 to 20)
#    0.000    1.000    5.000    0.750    0.000    3.000 
#    4.500    0.000   11.000    0.000    0.000    0.000 
#    0.000    0.000    0.000    0.000    0.000    0.000 
#
# Total GULP energy -268455.765146 kJ/mol
# GULP energy per Si atom -5592.828441 kJ/mol
# Density = 2.096892 g / cm^3
# Si number density = 21.016756 Si / 1000 Ang^3
#
#
#
# Elastic Constant Matrix: (Units=GPa)
#
#
# Indices 1 2 3 4 5 6 
#
# 1 126.2107 63.7944 37.4258 0.0000 0.0000 0.0000
# 2 63.7944 126.2107 37.4258 0.0000 0.0000 0.0000
# 3 37.4258 37.4258 100.8643 0.0000 0.0000 0.0000
# 4 0.0000 0.0000 0.0000 28.1757 0.0000 0.0000
# 5 0.0000 0.0000 0.0000 0.0000 28.1757 0.0000
# 6 0.0000 0.0000 0.0000 0.0000 0.0000 31.2081
#
#
#
# Elastic Compliance Matrix: (Units=1/GPa)
#
#
# Indices 1 2 3 4 5 6 
#
# 1 0.011093 -0.004929 -0.002287 0.000000 0.000000 0.000000
# 2 -0.004929 0.011093 -0.002287 0.000000 0.000000 0.000000
# 3 -0.002287 -0.002287 0.011612 0.000000 0.000000 0.000000
# 4 0.000000 0.000000 0.000000 0.035492 0.000000 0.000000
# 5 0.000000 0.000000 0.000000 0.000000 0.035492 0.000000
# 6 0.000000 0.000000 0.000000 0.000000 0.000000 0.032043
#
#
# Mechanical properties :
#
#
# Convention : Reuss Voigt Hill
#
# Bulk Modulus (GPa) = 67.60862 70.06418 68.83640
# Shear Modulus (GPa) = 31.10230 31.82119 31.46175
#
# Velocity S-wave (km/s) = 3.85110 3.89535 3.87329
# Velocity P-wave (km/s) = 7.21203 7.32402 7.26824
#
# Compressibility (1/GPa) = 0.01479101
#
# Stress axis : x y z
#
# Youngs Moduli (GPa) = 90.14893 90.14893 86.12060
#
# Poissons Ratio (x) = 0.44432 0.19697
# Poissons Ratio (y) = 0.44432 0.19697
# Poissons Ratio (z) = 0.20619 0.20619
#
# Static dielectric constant tensor:
#      x y z
#    x 1.756480 0.000000 0.000000 
#    y 0.000000 1.756480 0.000000 
#    z 0.000000 0.000000 1.796130 
# 
# From -- ./inp_files/4324.got.cif
#   From: 2010.05.17/outbox.cif.g08.bks.cpg/sg179_3_cif.got.tgz:4324.got - 2010.05.20 11:37:33.
