data_PCOD9583457
_publ_section_title
;
Structure prediction by ZEFSAII (Michael W. Deem and Ramdas Pophale) SiO2 
 PCOD9583457
Probable space group: P 65 2 2
;
_chemical_formula_sum "Si O2"
_cell_formula_units_Z 72
_cell_length_a 11.496388
_cell_length_b 11.496388
_cell_length_c 29.429233
_cell_angle_alpha 90.000000
_cell_angle_beta 90.000000
_cell_angle_gamma 120.000000
_cell_volume 3368.467803
_symmetry_space_group_name_H-M "P 65 2 2"
_symmetry_group_IT_number 179
_symmetry_cell_setting 'hexagonal'
loop_
_space_group_symop_operation_xyz
x,y,z
x-y,x,5/6+z
-y,x-y,2/3+z
-x,-y,1/2+z
-x+y,-x,1/3+z
y,-x+y,1/6+z
x-y,-y,-z
-x,-x+y,1/3-z
y,x,2/3-z
-y,-x,1/6-z
-x+y,y,1/2-z
x,x-y,5/6-z
loop_
_atom_site_type_symbol
_atom_site_label
_atom_site_fract_x
_atom_site_fract_y
_atom_site_fract_z
Si Si1 0.623928 0.247855 0.250000
Si Si2 0.432699 0.772994 0.333220
Si Si3 0.252743 0.147171 0.002504
Si Si4 0.247794 0.767051 0.635009
Si Si5 0.964452 0.835170 0.440726
Si Si6 0.987558 0.391742 0.971624
Si Si7 0.791353 0.000000 0.000000
O O1 0.611436 0.344242 0.213030
O O2 0.479864 0.137873 0.270300
O O3 0.362137 0.625466 0.310594
O O4 0.418597 0.882052 0.303217
O O5 0.843072 0.591888 0.327336
O O6 0.200252 0.154232 0.053678
O O7 0.156878 0.152665 0.963338
O O8 0.233854 0.000000 0.000000
O O9 0.223973 0.776028 0.583334
O O10 0.125678 0.769189 0.660109
O O11 0.380511 0.905342 0.649422
O O12 0.959219 0.710725 0.467268
O O13 0.104472 0.962201 0.457920
#
# Coordination Sequence:
#
# PCOD9583457 Si02
#       7
#     6  12  12  12  12  12   6
#     4  10  24  48  70 102 144 190 244 300 384 448
#     4  11  27  45  72 102 147 187 241 312 372 460
#     4  12  28  44  70 104 146 187 242 300 381 441
#     4  10  25  42  69 104 135 184 238 294 365 429
#     4  11  26  44  74 102 141 191 245 305 369 446
#     4  10  24  44  72 101 134 187 241 293 369 439
#     4  10  24  46  72  98 144 190 246 306 350 440
#
# _framework density 21.374704999999999
#
# number of rings (size 3 to 8) (size 9 to 14) (size 15 to 20)
#    0.000    1.333    0.833    1.500   18.667    2.667 
#    0.000    0.000    0.000    0.000    0.000    0.000 
#    0.000    0.000    0.000    0.000    0.000    0.000 
#
# Total GULP energy -401348.044512 kJ/mol
# GULP energy per Si atom -5574.278396 kJ/mol
# Density = 2.132605 g / cm^3
# Si number density = 21.374705 Si / 1000 Ang^3
#
#
#
# Elastic Constant Matrix: (Units=GPa)
#
#
# Indices 1 2 3 4 5 6 
#
# 1 127.4177 63.8808 15.2243 0.0000 0.0000 0.0000
# 2 63.8808 127.4177 15.2243 0.0000 0.0000 0.0000
# 3 15.2243 15.2243 73.7231 0.0000 0.0000 0.0000
# 4 0.0000 0.0000 0.0000 18.2445 0.0000 0.0000
# 5 0.0000 0.0000 0.0000 0.0000 18.2445 0.0000
# 6 0.0000 0.0000 0.0000 0.0000 0.0000 31.7685
#
#
#
# Elastic Compliance Matrix: (Units=1/GPa)
#
#
# Indices 1 2 3 4 5 6 
#
# 1 0.010572 -0.005167 -0.001116 0.000000 0.000000 0.000000
# 2 -0.005167 0.010572 -0.001116 0.000000 0.000000 0.000000
# 3 -0.001116 -0.001116 0.014025 0.000000 0.000000 0.000000
# 4 0.000000 0.000000 0.000000 0.054811 0.000000 0.000000
# 5 0.000000 0.000000 0.000000 0.000000 0.054811 0.000000
# 6 0.000000 0.000000 0.000000 0.000000 0.000000 0.031478
#
#
# Mechanical properties :
#
#
# Convention : Reuss Voigt Hill
#
# Bulk Modulus (GPa) = 49.09009 57.46859 53.27934
# Shear Modulus (GPa) = 25.27067 29.26677 27.26872
#
# Velocity S-wave (km/s) = 3.44215 3.70432 3.57564
# Velocity P-wave (km/s) = 6.23010 6.72611 6.48285
#
# Compressibility (1/GPa) = 0.02037071
#
# Stress axis : x y z
#
# Youngs Moduli (GPa) = 94.58961 94.58961 71.29987
#
# Poissons Ratio (x) = 0.48873 0.07958
# Poissons Ratio (y) = 0.48873 0.07958
# Poissons Ratio (z) = 0.10558 0.10558
#
# Static dielectric constant tensor:
#      x y z
#    x 1.760290 0.000000 0.000000 
#    y 0.000000 1.760290 0.000000 
#    z 0.000000 0.000000 1.881110 
# 
# From -- ./inp_files/9583.got.cif
#   From: 2010.05.17/outbox.cif.g08.bks.cpg/sg179_5_cif.got.tgz:9583.got - 2010.05.20 11:37:33.
