data_PCOD9583163
_publ_section_title
;
Structure prediction by ZEFSAII (Michael W. Deem and Ramdas Pophale) SiO2 
 PCOD9583163
Probable space group: P 65 2 2
;
_chemical_formula_sum "Si O2"
_cell_formula_units_Z 60
_cell_length_a 20.535573
_cell_length_b 20.535573
_cell_length_c 8.514842
_cell_angle_alpha 90.000000
_cell_angle_beta 90.000000
_cell_angle_gamma 120.000000
_cell_volume 3109.717060
_symmetry_space_group_name_H-M "P 65 2 2"
_symmetry_group_IT_number 179
_symmetry_cell_setting 'hexagonal'
loop_
_space_group_symop_operation_xyz
x,y,z
x-y,x,5/6+z
-y,x-y,2/3+z
-x,-y,1/2+z
-x+y,-x,1/3+z
y,-x+y,1/6+z
x-y,-y,-z
-x,-x+y,1/3-z
y,x,2/3-z
-y,-x,1/6-z
-x+y,y,1/2-z
x,x-y,5/6-z
loop_
_atom_site_type_symbol
_atom_site_label
_atom_site_fract_x
_atom_site_fract_y
_atom_site_fract_z
Si Si1 0.553338 0.149941 0.999652
Si Si2 0.514242 0.485759 0.083334
Si Si3 0.313439 0.686562 0.083334
Si Si4 0.972983 0.119245 0.846650
Si Si5 0.068680 0.289597 0.295594
Si Si6 0.646302 0.542009 0.643543
O O1 0.500298 0.141113 0.146627
O O2 0.629001 0.150601 0.059004
O O3 0.511675 0.079347 0.887096
O O4 0.575623 0.224714 0.907668
O O5 0.430553 0.454977 0.145034
O O6 0.329780 0.659560 0.250000
O O7 0.000000 0.136645 0.666667
O O8 0.906644 0.032914 0.814004
O O9 0.954944 0.183956 0.897755
O O10 0.147149 0.294298 0.250000
O O11 0.090041 0.374842 0.336004
O O12 0.000000 0.255248 0.166667
#
# Coordination Sequence:
#
# PCOD9583163 Si02
#       6
#    12   6   6  12  12  12
#     4  10  21  41  63  95 127 166 226 266 328 399
#     4  10  18  41  68  92 120 166 226 266 310 392
#     4  12  24  41  66  96 140 176 212 288 348 396
#     4  10  22  44  65  94 128 170 220 276 334 401
#     4  12  24  42  65  94 134 174 214 270 334 400
#     4  10  22  40  66  92 126 176 216 271 323 400
#
# _framework density 19.294360000000001
#
# number of rings (size 3 to 8) (size 9 to 14) (size 15 to 20)
#    0.000    1.600    3.000    4.800    0.000    4.000 
#   14.400    2.000    0.000    0.000    0.000    0.000 
#    0.000    0.000    0.000    0.000    0.000    0.000 
#
# Total GULP energy -334101.044494 kJ/mol
# GULP energy per Si atom -5568.350742 kJ/mol
# Density = 1.925045 g / cm^3
# Si number density = 19.294360 Si / 1000 Ang^3
#
#
#
# Elastic Constant Matrix: (Units=GPa)
#
#
# Indices 1 2 3 4 5 6 
#
# 1 71.0120 71.8032 22.1855 0.0000 0.0000 0.0000
# 2 71.8032 71.0120 22.1855 0.0000 0.0000 0.0000
# 3 22.1855 22.1855 66.9685 0.0000 0.0000 0.0000
# 4 0.0000 0.0000 0.0000 7.0645 0.0000 0.0000
# 5 0.0000 0.0000 0.0000 0.0000 7.0645 0.0000
# 6 0.0000 0.0000 0.0000 0.0000 0.0000 -0.3956
#
#
#
# Elastic Compliance Matrix: (Units=1/GPa)
#
#
# Indices 1 2 3 4 5 6 
#
# 1 -0.628060 0.635865 -0.002586 0.000000 0.000000 0.000000
# 2 0.635865 -0.628060 -0.002586 0.000000 0.000000 0.000000
# 3 -0.002586 -0.002586 0.016646 0.000000 0.000000 0.000000
# 4 0.000000 0.000000 0.000000 0.141553 0.000000 0.000000
# 5 0.000000 0.000000 0.000000 0.000000 0.141553 0.000000
# 6 0.000000 0.000000 0.000000 0.000000 0.000000 -2.527851
#
#
# Mechanical properties :
#
#
# Convention : Reuss Voigt Hill
#
# Bulk Modulus (GPa) = 45.63438 49.03788 47.33613
# Shear Modulus (GPa) = -1.05523 8.93456 3.93966
#
# Velocity S-wave (km/s) = -0.74034 2.15423 1.43049
# Velocity P-wave (km/s) = 4.79293 5.62658 5.22641
#
# Compressibility (1/GPa) = 0.02191330
#
# Stress axis : x y z
#
# Youngs Moduli (GPa) = -1.59220 -1.59220 60.07572
#
# Poissons Ratio (x) = 1.01243 0.15534
# Poissons Ratio (y) = 1.01243 0.15534
# Poissons Ratio (z) = -0.00412 -0.00412
#
# Static dielectric constant tensor:
#      x y z
#    x 1.709600 0.000000 0.000000 
#    y 0.000000 1.709600 0.000000 
#    z 0.000000 0.000000 1.743040 
# 
# From -- ./inp_files/3262.got.cif
#   From: 2010.05.17/outbox.cif.g08.bks.cpg/sg179_2_cif.got.tgz:3262.got - 2010.05.20 11:37:33.
