data_PCOD9583679
_publ_section_title
;
Structure prediction by ZEFSAII (Michael W. Deem and Ramdas Pophale) SiO2 
 PCOD9583679
Probable space group: P 62 2 2
;
_chemical_formula_sum "Si O2"
_cell_formula_units_Z 54
_cell_length_a 11.257509
_cell_length_b 11.257509
_cell_length_c 22.577203
_cell_angle_alpha 90.000000
_cell_angle_beta 90.000000
_cell_angle_gamma 120.000000
_cell_volume 2477.909127
_symmetry_space_group_name_H-M "P 62 2 2"
_symmetry_group_IT_number 180
_symmetry_cell_setting 'hexagonal'
loop_
_space_group_symop_operation_xyz
x,y,z
x-y,x,1/3+z
-y,x-y,2/3+z
-x,-y,z
-x+y,-x,1/3+z
y,-x+y,2/3+z
x-y,-y,-z
-x,-x+y,1/3-z
y,x,2/3-z
-y,-x,2/3-z
-x+y,y,-z
x,x-y,1/3-z
loop_
_atom_site_type_symbol
_atom_site_label
_atom_site_fract_x
_atom_site_fract_y
_atom_site_fract_z
Si Si1 0.706723 0.853362 0.166667
Si Si2 0.248133 0.751868 0.333334
Si Si3 0.000000 0.000000 0.333334
Si Si4 0.781687 0.250099 0.039752
Si Si5 0.980962 0.629839 0.400615
Si Si6 0.206585 0.084427 0.438891
Si Si7 0.000000 0.500000 0.666667
O O1 0.634604 0.714276 0.130161
O O2 0.795992 0.827968 0.214599
O O3 0.385892 0.778672 0.369476
O O4 0.133135 0.740593 0.379373
O O5 0.880663 0.979313 0.379198
O O6 0.862782 0.228044 0.092673
O O7 0.633934 0.110458 0.036624
O O8 0.866351 0.259322 0.980647
O O9 0.000000 0.500000 0.398719
O O10 0.161289 0.000000 0.500000
#
# Coordination Sequence:
#
# PCOD9583679 Si02
#       7
#     6   6   3  12  12  12   3
#     4  12  23  42  62 108 138 176 243 290 376 415
#     4   9  22  46  72  95 134 202 242 276 376 445
#     4  12  20  42  64  94 156 186 228 312 374 436
#     4  10  22  41  73  98 137 187 237 294 363 440
#     4  10  23  44  69  98 137 193 232 292 358 431
#     4  12  25  41  68 111 139 185 245 301 370 431
#     4  10  18  40  68 116 132 178 238 286 380 438
#
# _framework density 21.792566999999998
#
# number of rings (size 3 to 8) (size 9 to 14) (size 15 to 20)
#    0.000    1.333    2.222    3.333    3.111    0.889 
#   16.000    0.000    0.000    0.000    0.000    0.000 
#    0.000    0.000    0.000    0.000    0.000    0.000 
#
# Total GULP energy -300953.775835 kJ/mol
# GULP energy per Si atom -5573.218071 kJ/mol
# Density = 2.174297 g / cm^3
# Si number density = 21.792567 Si / 1000 Ang^3
#
#
#
# Elastic Constant Matrix: (Units=GPa)
#
#
# Indices 1 2 3 4 5 6 
#
# 1 48.9115 51.1563 28.0944 0.0000 0.0000 0.0000
# 2 51.1563 48.9115 28.0944 0.0000 0.0000 0.0000
# 3 28.0944 28.0944 93.8157 0.0000 0.0000 0.0000
# 4 0.0000 0.0000 0.0000 18.7521 0.0000 0.0000
# 5 0.0000 0.0000 0.0000 0.0000 18.7521 0.0000
# 6 0.0000 0.0000 0.0000 0.0000 0.0000 -1.1224
#
#
#
# Elastic Compliance Matrix: (Units=1/GPa)
#
#
# Indices 1 2 3 4 5 6 
#
# 1 -0.216725 0.228739 -0.003598 0.000000 0.000000 0.000000
# 2 0.228739 -0.216725 -0.003598 0.000000 0.000000 0.000000
# 3 -0.003598 -0.003598 0.012814 0.000000 0.000000 0.000000
# 4 0.000000 0.000000 0.000000 0.053327 0.000000 0.000000
# 5 0.000000 0.000000 0.000000 0.000000 0.053327 0.000000
# 6 0.000000 0.000000 0.000000 0.000000 0.000000 -0.890928
#
#
# Mechanical properties :
#
#
# Convention : Reuss Voigt Hill
#
# Bulk Modulus (GPa) = 44.54295 45.14766 44.84531
# Shear Modulus (GPa) = -3.04783 12.89594 4.92406
#
# Velocity S-wave (km/s) = -1.18389 2.43525 1.50480
# Velocity P-wave (km/s) = 4.31452 5.35436 4.86232
#
# Compressibility (1/GPa) = 0.02245024
#
# Stress axis : x y z
#
# Youngs Moduli (GPa) = -4.61414 -4.61414 78.04047
#
# Poissons Ratio (x) = 1.05543 0.28075
# Poissons Ratio (y) = 1.05543 0.28075
# Poissons Ratio (z) = -0.01660 -0.01660
#
# Static dielectric constant tensor:
#      x y z
#    x 1.890950 0.000000 0.000000 
#    y 0.000000 1.890950 0.000000 
#    z 0.000000 0.000000 1.831410 
# 
# From -- ./inp_files/10149.got.cif
#   From: 2010.05.17/outbox.cif.g08.bks.cpg/sg180_6_cif.got.tgz:10149.got - 2010.05.20 11:43:55.
