data_PCOD9584198
_publ_section_title
;
Structure prediction by ZEFSAII (Michael W. Deem and Ramdas Pophale) SiO2 
 PCOD9584198
Probable space group: P 64 2 2
;
_chemical_formula_sum "Si O2"
_cell_formula_units_Z 84
_cell_length_a 14.086733
_cell_length_b 14.086733
_cell_length_c 24.676892
_cell_angle_alpha 90.000000
_cell_angle_beta 90.000000
_cell_angle_gamma 120.000000
_cell_volume 4240.740113
_symmetry_space_group_name_H-M "P 64 2 2"
_symmetry_group_IT_number 181
_symmetry_cell_setting 'hexagonal'
loop_
_space_group_symop_operation_xyz
x,y,z
x-y,x,2/3+z
-y,x-y,1/3+z
-x,-y,z
-x+y,-x,2/3+z
y,-x+y,1/3+z
x-y,-y,-z
-x,-x+y,2/3-z
y,x,1/3-z
-y,-x,1/3-z
-x+y,y,-z
x,x-y,2/3-z
loop_
_atom_site_type_symbol
_atom_site_label
_atom_site_fract_x
_atom_site_fract_y
_atom_site_fract_z
Si Si1 0.464945 0.758926 0.074724
Si Si2 0.794523 0.806639 0.483900
Si Si3 0.791985 0.287892 0.279547
Si Si4 0.000000 0.256194 0.833334
Si Si5 0.986670 0.644082 0.235264
Si Si6 0.961019 0.372091 0.932314
Si Si7 0.057076 0.290904 0.629171
Si Si8 0.203822 0.000000 0.000000
O O1 0.336459 0.720071 0.079468
O O2 0.538482 0.870155 0.107296
O O3 0.512613 0.679474 0.084164
O O4 0.491681 0.788923 0.010967
O O5 0.718474 0.694720 0.515891
O O6 0.762219 0.778893 0.420959
O O7 0.919574 0.839148 0.500000
O O8 0.763279 0.896379 0.503759
O O9 0.768168 0.165226 0.270235
O O10 0.914687 0.368147 0.258646
O O11 0.989346 0.320031 0.781480
O O12 0.973078 0.717048 0.281878
O O13 0.000000 0.500000 0.937332
O O14 0.976666 0.321513 0.988882
O O15 0.096051 0.209737 0.654446
#
# Coordination Sequence:
#
# PCOD9584198 Si02
#       8
#    12  12  12   6  12  12  12   6
#     4  10  17  33  58  95 119 162 213 259 311 387
#     4  12  23  39  66  94 140 173 214 274 344 402
#     4   9  17  28  59  92 127 156 200 254 323 387
#     4  12  26  46  68  94 120 182 238 278 326 398
#     4  11  16  31  56  93 127 168 198 258 320 394
#     4  11  24  46  72  90 128 175 234 284 326 388
#     4  10  21  39  64  96 131 173 209 278 347 400
#     4  10  14  30  59  85 132 168 210 258 323 395
#
# _framework density 19.807863999999999
#
# number of rings (size 3 to 8) (size 9 to 14) (size 15 to 20)
#    0.000    1.429    8.571    0.857    0.000    1.714 
#    0.000    7.143    6.286    0.000    0.000    0.000 
#    0.000    0.000    0.000    0.000    0.000    0.000 
#
# Total GULP energy -467719.301025 kJ/mol
# GULP energy per Si atom -5568.086917 kJ/mol
# Density = 1.976278 g / cm^3
# Si number density = 19.807864 Si / 1000 Ang^3
#
#
#
# Elastic Constant Matrix: (Units=GPa)
#
#
# Indices 1 2 3 4 5 6 
#
# 1 53.7185 16.4787 9.1709 0.0000 0.0000 0.0000
# 2 16.4787 53.7185 9.1709 0.0000 0.0000 0.0000
# 3 9.1709 9.1709 74.1705 0.0000 0.0000 0.0000
# 4 0.0000 0.0000 0.0000 5.0343 0.0000 0.0000
# 5 0.0000 0.0000 0.0000 0.0000 5.0343 0.0000
# 6 0.0000 0.0000 0.0000 0.0000 0.0000 18.6199
#
#
#
# Elastic Compliance Matrix: (Units=1/GPa)
#
#
# Indices 1 2 3 4 5 6 
#
# 1 0.020787 -0.006066 -0.001820 0.000000 0.000000 0.000000
# 2 -0.006066 0.020787 -0.001820 0.000000 0.000000 0.000000
# 3 -0.001820 -0.001820 0.013933 0.000000 0.000000 0.000000
# 4 0.000000 0.000000 0.000000 0.198636 0.000000 0.000000
# 5 0.000000 0.000000 0.000000 0.000000 0.198636 0.000000
# 6 0.000000 0.000000 0.000000 0.000000 0.000000 0.053706
#
#
# Mechanical properties :
#
#
# Convention : Reuss Voigt Hill
#
# Bulk Modulus (GPa) = 27.70536 27.91648 27.81092
# Shear Modulus (GPa) = 9.29491 15.52351 12.40921
#
# Velocity S-wave (km/s) = 2.16858 2.80251 2.50567
# Velocity P-wave (km/s) = 4.50419 4.95947 4.73730
#
# Compressibility (1/GPa) = 0.03609410
#
# Stress axis : x y z
#
# Youngs Moduli (GPa) = 48.10673 48.10673 71.77431
#
# Poissons Ratio (x) = 0.29181 0.13064
# Poissons Ratio (y) = 0.29181 0.13064
# Poissons Ratio (z) = 0.08756 0.08756
#
# Static dielectric constant tensor:
#      x y z
#    x 1.757990 0.000000 0.000000 
#    y 0.000000 1.757990 0.000000 
#    z 0.000000 0.000000 1.716680 
# 
# From -- ./inp_files/10240.got.cif
#   From: 2010.05.17/outbox.cif.g08.bks.cpg/sg181_6_cif.got.tgz:10240.got - 2010.05.20 11:51:17.
