data_PCOD9584030
_publ_section_title
;
Structure prediction by ZEFSAII (Michael W. Deem and Ramdas Pophale) SiO2 
 PCOD9584030
Probable space group: P 62 2 2
;
_chemical_formula_sum "Si O2"
_cell_formula_units_Z 30
_cell_length_a 17.313600
_cell_length_b 17.313600
_cell_length_c 5.056891
_cell_angle_alpha 90.000000
_cell_angle_beta 90.000000
_cell_angle_gamma 120.000000
_cell_volume 1312.771028
_symmetry_space_group_name_H-M "P 62 2 2"
_symmetry_group_IT_number 180
_symmetry_cell_setting 'hexagonal'
loop_
_space_group_symop_operation_xyz
x,y,z
x-y,x,1/3+z
-y,x-y,2/3+z
-x,-y,z
-x+y,-x,1/3+z
y,-x+y,2/3+z
x-y,-y,-z
-x,-x+y,1/3-z
y,x,2/3-z
-y,-x,2/3-z
-x+y,y,-z
x,x-y,1/3-z
loop_
_atom_site_type_symbol
_atom_site_label
_atom_site_fract_x
_atom_site_fract_y
_atom_site_fract_z
Si Si1 0.334418 0.057813 0.765383
Si Si2 0.090904 0.181808 0.000000
Si Si3 0.786675 0.476376 0.764983
O O1 0.255345 0.079413 0.834072
O O2 0.432622 0.140854 0.761824
O O3 0.303658 0.000000 0.500000
O O4 0.338206 0.000000 0.000000
O O5 0.121709 0.121709 0.833334
O O6 0.749135 0.498269 0.500000
O O7 0.820559 0.410280 0.666667
O O8 0.714940 0.429879 0.000000
#
# Coordination Sequence:
#
# PCOD9584030 Si02
#       3
#    12   6  12
#     4  11  25  46  74 105 146 197 245 304 376 445
#     4  10  24  46  75 108 150 196 252 306 369 436
#     4  12  25  45  74 109 148 194 250 315 379 449
#
# _framework density 22.852425
#
# number of rings (size 3 to 8) (size 9 to 14) (size 15 to 20)
#    0.000    0.800    2.000    4.800    5.600    0.800 
#    0.000    9.000    0.000    0.000    0.000    0.000 
#    0.000    0.000    0.000    0.000    0.000    0.000 
#
# Total GULP energy -167545.126455 kJ/mol
# GULP energy per Si atom -5584.837549 kJ/mol
# Density = 2.280041 g / cm^3
# Si number density = 22.852425 Si / 1000 Ang^3
#
#
#
# Elastic Constant Matrix: (Units=GPa)
#
#
# Indices 1 2 3 4 5 6 
#
# 1 141.0205 69.9135 34.1441 0.0000 0.0000 0.0000
# 2 69.9135 141.0205 34.1441 0.0000 0.0000 0.0000
# 3 34.1441 34.1441 105.3751 0.0000 0.0000 0.0000
# 4 0.0000 0.0000 0.0000 51.6167 0.0000 0.0000
# 5 0.0000 0.0000 0.0000 0.0000 51.6167 0.0000
# 6 0.0000 0.0000 0.0000 0.0000 0.0000 35.5535
#
#
#
# Elastic Compliance Matrix: (Units=1/GPa)
#
#
# Indices 1 2 3 4 5 6 
#
# 1 0.009680 -0.004383 -0.001716 0.000000 0.000000 0.000000
# 2 -0.004383 0.009680 -0.001716 0.000000 0.000000 0.000000
# 3 -0.001716 -0.001716 0.010602 0.000000 0.000000 0.000000
# 4 0.000000 0.000000 0.000000 0.019374 0.000000 0.000000
# 5 0.000000 0.000000 0.000000 0.000000 0.019374 0.000000
# 6 0.000000 0.000000 0.000000 0.000000 0.000000 0.028127
#
#
# Mechanical properties :
#
#
# Convention : Reuss Voigt Hill
#
# Bulk Modulus (GPa) = 69.78255 73.75771 71.77013
# Shear Modulus (GPa) = 42.64614 44.37166 43.50890
#
# Velocity S-wave (km/s) = 4.32459 4.41121 4.36811
# Velocity P-wave (km/s) = 7.45242 7.63484 7.54418
#
# Compressibility (1/GPa) = 0.01433023
#
# Stress axis : x y z
#
# Youngs Moduli (GPa) = 103.30724 103.30724 94.32116
#
# Poissons Ratio (x) = 0.45284 0.16187
# Poissons Ratio (y) = 0.45284 0.16187
# Poissons Ratio (z) = 0.17729 0.17729
#
# Static dielectric constant tensor:
#      x y z
#    x 1.852960 0.000000 0.000000 
#    y 0.000000 1.852960 0.000000 
#    z 0.000000 0.000000 1.854730 
# 
# From -- ./inp_files/331.got.cif
#   From: 2010.05.17/outbox.cif.g08.bks.cpg/sg180_1_cif.got.tgz:331.got - 2010.05.20 11:43:55.
