data_PCOD9584541
_publ_section_title
;
Structure prediction by ZEFSAII (Michael W. Deem and Ramdas Pophale) SiO2 
 PCOD9584541
Probable space group: P 64 2 2
;
_chemical_formula_sum "Si O2"
_cell_formula_units_Z 60
_cell_length_a 14.952101
_cell_length_b 14.952101
_cell_length_c 14.170428
_cell_angle_alpha 90.000000
_cell_angle_beta 90.000000
_cell_angle_gamma 120.000000
_cell_volume 2743.582623
_symmetry_space_group_name_H-M "P 64 2 2"
_symmetry_group_IT_number 181
_symmetry_cell_setting 'hexagonal'
loop_
_space_group_symop_operation_xyz
x,y,z
x-y,x,2/3+z
-y,x-y,1/3+z
-x,-y,z
-x+y,-x,2/3+z
y,-x+y,1/3+z
x-y,-y,-z
-x,-x+y,2/3-z
y,x,1/3-z
-y,-x,1/3-z
-x+y,y,-z
x,x-y,2/3-z
loop_
_atom_site_type_symbol
_atom_site_label
_atom_site_fract_x
_atom_site_fract_y
_atom_site_fract_z
Si Si1 0.836934 0.513070 0.436041
Si Si2 0.905067 0.047297 0.277239
Si Si3 0.411717 0.823433 0.500000
Si Si4 0.682108 0.683038 0.892406
Si Si5 0.000000 0.500000 0.679031
Si Si6 0.823046 0.303100 0.449458
O O1 0.736619 0.473237 0.500000
O O2 0.871782 0.427827 0.450557
O O3 0.813628 0.528142 0.329223
O O4 0.918902 0.622887 0.475846
O O5 0.939464 0.060537 0.166667
O O6 0.000000 0.141714 0.333334
O O7 0.894598 0.947299 0.333334
O O8 0.790420 0.032084 0.276275
O O9 0.453325 0.898356 0.410208
O O10 0.289661 0.752614 0.493372
O O11 0.733806 0.624542 0.840183
O O12 0.590768 0.595954 0.956153
#
# Coordination Sequence:
#
# PCOD9584541 Si02
#       6
#    12  12   6  12   6  12
#     4  11  22  42  67 106 149 187 240 310 370 458
#     4  11  27  52  79 110 145 195 259 326 389 455
#     4  11  26  44  64 102 146 198 236 295 380 460
#     4  12  25  45  75 108 145 194 251 313 383 451
#     4  11  26  46  65 106 156 182 249 314 368 459
#     4  11  24  41  72 102 147 199 244 295 376 464
#
# _framework density 21.869215000000001
#
# number of rings (size 3 to 8) (size 9 to 14) (size 15 to 20)
#    0.000    0.800    3.000    3.600    2.800    6.400 
#    3.600    0.000    0.000    0.000    0.000    0.000 
#    0.000    0.000    0.000    0.000    0.000    0.000 
#
# Total GULP energy -335323.212957 kJ/mol
# GULP energy per Si atom -5588.720216 kJ/mol
# Density = 2.181944 g / cm^3
# Si number density = 21.869215 Si / 1000 Ang^3
#
#
#
# Elastic Constant Matrix: (Units=GPa)
#
#
# Indices 1 2 3 4 5 6 
#
# 1 147.2583 38.1730 53.6104 0.0000 0.0000 0.0000
# 2 38.1730 147.2583 53.6104 0.0000 0.0000 0.0000
# 3 53.6104 53.6104 125.7754 0.0000 0.0000 0.0000
# 4 0.0000 0.0000 0.0000 48.5519 0.0000 0.0000
# 5 0.0000 0.0000 0.0000 0.0000 48.5519 0.0000
# 6 0.0000 0.0000 0.0000 0.0000 0.0000 54.5426
#
#
#
# Elastic Compliance Matrix: (Units=1/GPa)
#
#
# Indices 1 2 3 4 5 6 
#
# 1 0.008162 -0.001005 -0.003050 0.000000 0.000000 0.000000
# 2 -0.001005 0.008162 -0.003050 0.000000 0.000000 0.000000
# 3 -0.003050 -0.003050 0.010551 0.000000 0.000000 0.000000
# 4 0.000000 0.000000 0.000000 0.020596 0.000000 0.000000
# 5 0.000000 0.000000 0.000000 0.000000 0.020596 0.000000
# 6 0.000000 0.000000 0.000000 0.000000 0.000000 0.018334
#
#
# Mechanical properties :
#
#
# Convention : Reuss Voigt Hill
#
# Bulk Modulus (GPa) = 78.97234 79.00884 78.99059
# Shear Modulus (GPa) = 47.69382 48.65586 48.17484
#
# Velocity S-wave (km/s) = 4.67504 4.72196 4.69856
# Velocity P-wave (km/s) = 8.08275 8.12007 8.10143
#
# Compressibility (1/GPa) = 0.01266266
#
# Stress axis : x y z
#
# Youngs Moduli (GPa) = 122.52038 122.52038 94.77664
#
# Poissons Ratio (x) = 0.12316 0.28911
# Poissons Ratio (y) = 0.12316 0.28911
# Poissons Ratio (z) = 0.37374 0.37374
#
# Static dielectric constant tensor:
#      x y z
#    x 1.811510 0.000000 0.000000 
#    y 0.000000 1.811510 0.000000 
#    z 0.000000 0.000000 1.779160 
# 
# From -- ./inp_files/6194.got.cif
#   From: 2010.05.17/outbox.cif.g08.bks.cpg/sg181_4_cif.got.tgz:6194.got - 2010.05.20 11:51:17.
