data_PCOD9584749
_publ_section_title
;
Structure prediction by ZEFSAII (Michael W. Deem and Ramdas Pophale) SiO2 
 PCOD9584749
Probable space group: P 63 2 2
;
_chemical_formula_sum "Si O2"
_cell_formula_units_Z 60
_cell_length_a 17.837568
_cell_length_b 17.837568
_cell_length_c 10.074587
_cell_angle_alpha 90.000000
_cell_angle_beta 90.000000
_cell_angle_gamma 120.000000
_cell_volume 2776.062035
_symmetry_space_group_name_H-M "P 63 2 2"
_symmetry_group_IT_number 182
_symmetry_cell_setting 'hexagonal'
loop_
_space_group_symop_operation_xyz
x,y,z
x-y,x,1/2+z
-y,x-y,z
-x,-y,1/2+z
-x+y,-x,z
y,-x+y,1/2+z
x-y,-y,-z
-x,-x+y,-z
y,x,-z
-y,-x,1/2-z
-x+y,y,1/2-z
x,x-y,1/2-z
loop_
_atom_site_type_symbol
_atom_site_label
_atom_site_fract_x
_atom_site_fract_y
_atom_site_fract_z
Si Si1 0.904128 0.363960 0.537197
Si Si2 0.220385 0.815460 0.938907
Si Si3 0.597895 0.086352 0.373672
Si Si4 0.368406 0.299489 0.692332
Si Si5 0.955063 0.169067 0.145848
O O1 0.841848 0.285208 0.446033
O O2 0.901453 0.450388 0.500427
O O3 0.893821 0.327535 0.684667
O O4 0.000000 0.387516 0.500000
O O5 0.252728 0.856664 0.084555
O O6 0.306366 0.834114 0.863239
O O7 0.177590 0.870759 0.887913
O O8 0.537707 0.075413 0.250000
O O9 0.616919 0.007198 0.365010
O O10 0.263316 0.239668 0.711908
O O11 0.913424 0.086577 0.250000
O O12 0.000000 0.169904 0.000000
#
# Coordination Sequence:
#
# PCOD9584749 Si02
#       5
#    12  12  12  12  12
#     4  12  22  37  62  86 116 170 221 270 341 415
#     4  10  23  37  57  87 125 161 213 289 336 399
#     4  11  23  38  60  87 120 168 227 272 336 412
#     4  10  21  38  58  88 123 165 220 280 334 410
#     4   9  18  35  58  87 126 168 212 272 347 402
#
# _framework density 21.613348999999999
#
# number of rings (size 3 to 8) (size 9 to 14) (size 15 to 20)
#    0.000    1.600    2.000    4.800    2.800    0.000 
#    1.200    0.000    0.000    0.000    0.000    0.000 
#    0.000    0.000    0.000 1533.600    0.800    0.000 
#
# Total GULP energy -334454.871960 kJ/mol
# GULP energy per Si atom -5574.247866 kJ/mol
# Density = 2.156416 g / cm^3
# Si number density = 21.613349 Si / 1000 Ang^3
#
#
#
# Elastic Constant Matrix: (Units=GPa)
#
#
# Indices 1 2 3 4 5 6 
#
# 1 73.5423 53.1340 19.0803 0.0000 0.0000 0.0000
# 2 53.1340 73.5423 19.0803 0.0000 0.0000 0.0000
# 3 19.0803 19.0803 124.4896 0.0000 0.0000 0.0000
# 4 0.0000 0.0000 0.0000 56.9588 0.0000 0.0000
# 5 0.0000 0.0000 0.0000 0.0000 56.9588 0.0000
# 6 0.0000 0.0000 0.0000 0.0000 0.0000 10.2042
#
#
#
# Elastic Compliance Matrix: (Units=1/GPa)
#
#
# Indices 1 2 3 4 5 6 
#
# 1 0.028638 -0.020362 -0.001268 0.000000 0.000000 0.000000
# 2 -0.020362 0.028638 -0.001268 0.000000 0.000000 0.000000
# 3 -0.001268 -0.001268 0.008422 0.000000 0.000000 0.000000
# 4 0.000000 0.000000 0.000000 0.017557 0.000000 0.000000
# 5 0.000000 0.000000 0.000000 0.000000 0.017557 0.000000
# 6 0.000000 0.000000 0.000000 0.000000 0.000000 0.097999
#
#
# Mechanical properties :
#
#
# Convention : Reuss Voigt Hill
#
# Bulk Modulus (GPa) = 50.25074 50.46261 50.35668
# Shear Modulus (GPa) = 19.90129 36.84301 28.37215
#
# Velocity S-wave (km/s) = 3.03774 4.13321 3.62707
# Velocity P-wave (km/s) = 5.96692 6.79533 6.39455
#
# Compressibility (1/GPa) = 0.01990020
#
# Stress axis : x y z
#
# Youngs Moduli (GPa) = 34.91880 34.91880 118.74170
#
# Poissons Ratio (x) = 0.71100 0.15062
# Poissons Ratio (y) = 0.71100 0.15062
# Poissons Ratio (z) = 0.04429 0.04429
#
# Static dielectric constant tensor:
#      x y z
#    x 1.774920 0.000000 0.000000 
#    y 0.000000 1.774920 0.000000 
#    z 0.000000 0.000000 4.294350 
# 
# From -- ./inp_files/2633.got.cif
#   From: 2010.05.17/outbox.cif.g08.bks.cpg/sg182_2_cif.got.tgz:2633.got - 2010.05.20 11:58:53.
