data_PCOD9584481
_publ_section_title
;
Structure prediction by ZEFSAII (Michael W. Deem and Ramdas Pophale) SiO2 
 PCOD9584481
Probable space group: P 64 2 2
;
_chemical_formula_sum "Si O2"
_cell_formula_units_Z 45
_cell_length_a 14.613985
_cell_length_b 14.613985
_cell_length_c 11.696204
_cell_angle_alpha 90.000000
_cell_angle_beta 90.000000
_cell_angle_gamma 120.000000
_cell_volume 2163.280725
_symmetry_space_group_name_H-M "P 64 2 2"
_symmetry_group_IT_number 181
_symmetry_cell_setting 'hexagonal'
loop_
_space_group_symop_operation_xyz
x,y,z
x-y,x,2/3+z
-y,x-y,1/3+z
-x,-y,z
-x+y,-x,2/3+z
y,-x+y,1/3+z
x-y,-y,-z
-x,-x+y,2/3-z
y,x,1/3-z
-y,-x,1/3-z
-x+y,y,-z
x,x-y,2/3-z
loop_
_atom_site_type_symbol
_atom_site_label
_atom_site_fract_x
_atom_site_fract_y
_atom_site_fract_z
Si Si1 0.510971 0.828681 0.540233
Si Si2 0.644244 0.094572 0.931723
Si Si3 0.335943 0.962940 0.674347
Si Si4 0.904412 0.095589 0.666667
Si Si5 0.000000 0.000000 0.833334
O O1 0.390532 0.781063 0.500000
O O2 0.537118 0.746116 0.597597
O O3 0.565170 0.872307 0.418563
O O4 0.564523 0.931193 0.622822
O O5 0.632877 0.061421 0.798055
O O6 0.552257 0.104513 0.000000
O O7 0.646643 0.000000 0.000000
O O8 0.223454 0.960147 0.670693
O O9 0.928060 0.036142 0.767017
#
# Coordination Sequence:
#
# PCOD9584481 Si02
#       5
#    12  12  12   6   3
#     4  11  25  46  78 100 136 197 251 298 372 453
#     4  11  27  46  69 109 152 181 243 313 375 439
#     4  11  23  48  73 104 144 195 247 303 374 450
#     4  11  22  42  72 100 154 184 247 298 374 448
#     4  10  24  38  68 118 142 194 240 310 356 464
#
# _framework density 20.801739000000001
#
# number of rings (size 3 to 8) (size 9 to 14) (size 15 to 20)
#    0.000    1.067    2.667    3.200    7.467    5.333 
#    0.000    0.000    0.000    0.000    0.000    0.000 
#    0.000    0.000    0.000    0.000    0.000    0.000 
#
# Total GULP energy -250516.376474 kJ/mol
# GULP energy per Si atom -5567.030588 kJ/mol
# Density = 2.075439 g / cm^3
# Si number density = 20.801739 Si / 1000 Ang^3
#
#
#
# Elastic Constant Matrix: (Units=GPa)
#
#
# Indices 1 2 3 4 5 6 
#
# 1 108.5828 43.1982 44.8599 0.0000 0.0000 0.0000
# 2 43.1982 108.5828 44.8599 0.0000 0.0000 0.0000
# 3 44.8599 44.8599 124.3633 0.0000 0.0000 0.0000
# 4 0.0000 0.0000 0.0000 -13.2671 0.0000 0.0000
# 5 0.0000 0.0000 0.0000 0.0000 -13.2671 0.0000
# 6 0.0000 0.0000 0.0000 0.0000 0.0000 32.6923
#
#
#
# Elastic Compliance Matrix: (Units=1/GPa)
#
#
# Indices 1 2 3 4 5 6 
#
# 1 0.011834 -0.003460 -0.003021 0.000000 0.000000 0.000000
# 2 -0.003460 0.011834 -0.003021 0.000000 0.000000 0.000000
# 3 -0.003021 -0.003021 0.010220 0.000000 0.000000 0.000000
# 4 0.000000 0.000000 0.000000 -0.075374 0.000000 0.000000
# 5 0.000000 0.000000 0.000000 0.000000 -0.075374 0.000000
# 6 0.000000 0.000000 0.000000 0.000000 0.000000 0.030588
#
#
# Mechanical properties :
#
#
# Convention : Reuss Voigt Hill
#
# Bulk Modulus (GPa) = 67.17916 67.48498 67.33207
# Shear Modulus (GPa) = -80.24723 15.13901 -32.55411
#
# Velocity S-wave (km/s) = -6.21779 2.70066 -3.96026
# Velocity P-wave (km/s) = 4.37982 6.49901 3.39517
#
# Compressibility (1/GPa) = 0.01488557
#
# Stress axis : x y z
#
# Youngs Moduli (GPa) = 84.50201 84.50201 97.84602
#
# Poissons Ratio (x) = 0.29238 0.29556
# Poissons Ratio (y) = 0.29238 0.29556
# Poissons Ratio (z) = 0.25525 0.25525
#
# Static dielectric constant tensor:
#      x y z
#    x 1.900320 0.000000 0.000000 
#    y 0.000000 1.900320 0.000000 
#    z 0.000000 0.000000 1.651170 
# 
# From -- ./inp_files/4453.got.cif
#   From: 2010.05.17/outbox.cif.g08.bks.cpg/sg181_3_cif.got.tgz:4453.got - 2010.05.20 11:51:17.
