data_PCOD9584229
_publ_section_title
;
Structure prediction by ZEFSAII (Michael W. Deem and Ramdas Pophale) SiO2 
 PCOD9584229
Probable space group: P 64 2 2
;
_chemical_formula_sum "Si O2"
_cell_formula_units_Z 84
_cell_length_a 30.426098
_cell_length_b 30.426098
_cell_length_c 5.334016
_cell_angle_alpha 90.000000
_cell_angle_beta 90.000000
_cell_angle_gamma 120.000000
_cell_volume 4276.391575
_symmetry_space_group_name_H-M "P 64 2 2"
_symmetry_group_IT_number 181
_symmetry_cell_setting 'hexagonal'
loop_
_space_group_symop_operation_xyz
x,y,z
x-y,x,2/3+z
-y,x-y,1/3+z
-x,-y,z
-x+y,-x,2/3+z
y,-x+y,1/3+z
x-y,-y,-z
-x,-x+y,2/3-z
y,x,1/3-z
-y,-x,1/3-z
-x+y,y,-z
x,x-y,2/3-z
loop_
_atom_site_type_symbol
_atom_site_label
_atom_site_fract_x
_atom_site_fract_y
_atom_site_fract_z
Si Si1 0.485204 0.172245 0.612354
Si Si2 0.033373 0.683005 0.584840
Si Si3 0.323422 0.872042 0.888305
Si Si4 0.193779 0.396071 0.250856
Si Si5 0.249362 0.651606 0.092578
Si Si6 0.253336 0.034256 0.250059
Si Si7 0.941235 0.113110 0.423918
O O1 0.491138 0.154648 0.336158
O O2 0.441095 0.187779 0.589008
O O3 0.537705 0.218246 0.707144
O O4 0.469956 0.129795 0.828997
O O5 0.074625 0.666015 0.549302
O O6 0.058137 0.744177 0.609995
O O7 0.000000 0.665962 0.333334
O O8 0.000000 0.660042 0.833334
O O9 0.262529 0.838906 0.916129
O O10 0.182162 0.364323 0.500000
O O11 0.182692 0.365384 0.000000
O O12 0.305662 0.694338 0.166667
O O13 0.228866 0.614433 0.333334
O O14 0.248995 0.624498 0.833334
O O15 0.224862 0.065257 0.195935
O O16 0.229519 0.000000 0.500000
O O17 0.239926 0.000000 0.000000
O O18 0.924549 0.075452 0.666667
O O19 0.000000 0.136890 0.333334
O O20 0.910261 0.089740 0.166667
#
# Coordination Sequence:
#
# PCOD9584229 Si02
#       7
#    12  12  12  12  12  12  12
#     4  10  20  35  54  75 106 145 181 224 270 314
#     4  10  20  34  53  79 113 144 174 218 269 316
#     4  10  18  32  53  76 104 144 182 215 264 323
#     4   8  15  27  44  66  91 127 169 201 243 293
#     4  12  24  38  55  80 114 150 189 227 268 313
#     4   9  18  34  53  75 107 144 173 208 260 314
#     4  11  21  36  57  80 103 133 176 217 261 319
#
# _framework density 19.642728999999999
#
# number of rings (size 3 to 8) (size 9 to 14) (size 15 to 20)
#    0.000    2.000    0.000    6.000    0.000    2.286 
#    0.000    4.286    0.000    2.143    0.000    0.000 
#    0.000   40.000    0.000    0.000    0.000    0.000 
#
# Total GULP energy -467763.425262 kJ/mol
# GULP energy per Si atom -5568.612206 kJ/mol
# Density = 1.959802 g / cm^3
# Si number density = 19.642729 Si / 1000 Ang^3
#
#
#
# Elastic Constant Matrix: (Units=GPa)
#
#
# Indices 1 2 3 4 5 6 
#
# 1 -13.3158 66.3506 7.5097 0.0000 0.0000 0.0000
# 2 66.3506 -13.3158 7.5097 0.0000 0.0000 0.0000
# 3 7.5097 7.5097 143.3491 0.0000 0.0000 0.0000
# 4 0.0000 0.0000 0.0000 21.4153 0.0000 0.0000
# 5 0.0000 0.0000 0.0000 0.0000 21.4153 0.0000
# 6 0.0000 0.0000 0.0000 0.0000 0.0000 -39.8332
#
#
#
# Elastic Compliance Matrix: (Units=1/GPa)
#
#
# Indices 1 2 3 4 5 6 
#
# 1 0.003294 0.015846 -0.001003 0.000000 0.000000 0.000000
# 2 0.015846 0.003294 -0.001003 0.000000 0.000000 0.000000
# 3 -0.001003 -0.001003 0.007081 0.000000 0.000000 0.000000
# 4 0.000000 0.000000 0.000000 0.046696 0.000000 0.000000
# 5 0.000000 0.000000 0.000000 0.000000 0.046696 0.000000
# 6 0.000000 0.000000 0.000000 0.000000 0.000000 -0.025105
#
#
# Mechanical properties :
#
#
# Convention : Reuss Voigt Hill
#
# Bulk Modulus (GPa) = 24.18419 31.05086 27.61753
# Shear Modulus (GPa) = 73.46806 2.95597 38.21202
#
# Velocity S-wave (km/s) = 6.12237 1.22806 4.41540
# Velocity P-wave (km/s) = 7.89409 4.22528 6.33125
#
# Compressibility (1/GPa) = 0.04134932
#
# Stress axis : x y z
#
# Youngs Moduli (GPa) = 303.62170 303.62169 141.22237
#
# Poissons Ratio (x) = -4.81117 0.14160
# Poissons Ratio (y) = -4.81117 0.14160
# Poissons Ratio (z) = 0.30443 0.30443
#
# Static dielectric constant tensor:
#      x y z
#    x 1.692450 0.000000 0.000000 
#    y 0.000000 1.692450 0.000000 
#    z 0.000000 0.000000 1.802270 
# 
# From -- ./inp_files/1692.got.cif
#   From: 2010.05.17/outbox.cif.g08.bks.cpg/sg181_1_cif.got.tgz:1692.got - 2010.05.20 11:51:17.
