data_PCOD9584045
_publ_section_title
;
Structure prediction by ZEFSAII (Michael W. Deem and Ramdas Pophale) SiO2 
 PCOD9584045
Probable space group: P 62 2 2
;
_chemical_formula_sum "Si O2"
_cell_formula_units_Z 69
_cell_length_a 14.380198
_cell_length_b 14.380198
_cell_length_c 20.620075
_cell_angle_alpha 90.000000
_cell_angle_beta 90.000000
_cell_angle_gamma 120.000000
_cell_volume 3692.755928
_symmetry_space_group_name_H-M "P 62 2 2"
_symmetry_group_IT_number 180
_symmetry_cell_setting 'hexagonal'
loop_
_space_group_symop_operation_xyz
x,y,z
x-y,x,1/3+z
-y,x-y,2/3+z
-x,-y,z
-x+y,-x,1/3+z
y,-x+y,2/3+z
x-y,-y,-z
-x,-x+y,1/3-z
y,x,2/3-z
-y,-x,2/3-z
-x+y,y,-z
x,x-y,1/3-z
loop_
_atom_site_type_symbol
_atom_site_label
_atom_site_fract_x
_atom_site_fract_y
_atom_site_fract_z
Si Si1 0.875445 0.367490 0.041817
Si Si2 0.345782 0.000000 0.500000
Si Si3 0.624939 0.046057 0.764774
Si Si4 0.629114 0.850272 0.790251
Si Si5 0.000000 0.500000 0.666667
Si Si6 0.515297 0.329811 0.419853
Si Si7 0.512060 0.256030 0.666667
Si Si8 0.273671 0.547341 0.500000
O O1 0.773624 0.249404 0.042124
O O2 0.810801 0.432233 0.028613
O O3 0.942926 0.379335 0.108685
O O4 0.946080 0.379525 0.979634
O O5 0.232404 0.904878 0.470661
O O6 0.686144 0.162208 0.797125
O O7 0.500000 0.000000 0.786326
O O8 0.684381 0.979187 0.783430
O O9 0.549085 0.831468 0.848380
O O10 0.560117 0.812417 0.725574
O O11 0.920962 0.513284 0.715202
O O12 0.638664 0.383602 0.444339
#
# Coordination Sequence:
#
# PCOD9584045 Si02
#       8
#    12   6  12  12   3  12   6   6
#     4  11  23  38  57  89 128 174 216 259 324 401
#     4  10  26  41  58  87 126 176 226 265 320 399
#     4  12  22  40  60  90 124 168 211 269 332 392
#     4  11  23  39  59  84 122 165 211 266 315 385
#     4  12  22  36  60  88 124 174 216 272 332 400
#     4  11  22  37  56  88 124 165 214 263 319 396
#     4  12  21  36  58  85 126 169 202 257 314 398
#     4  12  22  40  64  90 130 170 214 268 336 398
#
# _framework density 18.685231999999999
#
# number of rings (size 3 to 8) (size 9 to 14) (size 15 to 20)
#    0.000    0.696    3.478    5.739    0.000    2.783 
#    0.000    0.000    0.000    0.522    0.000    0.000 
#    0.000    9.739    0.000    0.000    0.000    0.174 
#
# Total GULP energy -384211.601108 kJ/mol
# GULP energy per Si atom -5568.284074 kJ/mol
# Density = 1.864270 g / cm^3
# Si number density = 18.685232 Si / 1000 Ang^3
#
#
#
# Elastic Constant Matrix: (Units=GPa)
#
#
# Indices 1 2 3 4 5 6 
#
# 1 112.1782 48.3427 39.0335 0.0000 0.0000 0.0000
# 2 48.3427 112.1782 39.0335 0.0000 0.0000 0.0000
# 3 39.0335 39.0335 79.5541 0.0000 0.0000 0.0000
# 4 0.0000 0.0000 0.0000 33.9235 0.0000 0.0000
# 5 0.0000 0.0000 0.0000 0.0000 33.9235 0.0000
# 6 0.0000 0.0000 0.0000 0.0000 0.0000 31.9178
#
#
#
# Elastic Compliance Matrix: (Units=1/GPa)
#
#
# Indices 1 2 3 4 5 6 
#
# 1 0.011924 -0.003742 -0.004015 0.000000 0.000000 0.000000
# 2 -0.003742 0.011924 -0.004015 0.000000 0.000000 0.000000
# 3 -0.004015 -0.004015 0.016510 0.000000 0.000000 0.000000
# 4 0.000000 0.000000 0.000000 0.029478 0.000000 0.000000
# 5 0.000000 0.000000 0.000000 0.000000 0.029478 0.000000
# 6 0.000000 0.000000 0.000000 0.000000 0.000000 0.031331
#
#
# Mechanical properties :
#
#
# Convention : Reuss Voigt Hill
#
# Bulk Modulus (GPa) = 59.46887 61.85889 60.66388
# Shear Modulus (GPa) = 31.29098 31.78634 31.53866
#
# Velocity S-wave (km/s) = 4.09667 4.12897 4.11285
# Velocity P-wave (km/s) = 7.36700 7.47722 7.42232
#
# Compressibility (1/GPa) = 0.01681552
#
# Stress axis : x y z
#
# Youngs Moduli (GPa) = 83.86649 83.86649 60.57072
#
# Poissons Ratio (x) = 0.31379 0.24317
# Poissons Ratio (y) = 0.31379 0.24317
# Poissons Ratio (z) = 0.33669 0.33669
#
# Static dielectric constant tensor:
#      x y z
#    x 1.674950 0.000000 0.000000 
#    y 0.000000 1.674950 0.000000 
#    z 0.000000 0.000000 1.685080 
# 
# From -- ./inp_files/7875.got.cif
#   From: 2010.05.17/outbox.cif.g08.bks.cpg/sg180_4_cif.got.tgz:7875.got - 2010.05.20 11:43:55.
