data_PCOD9584315
_publ_section_title
;
Structure prediction by ZEFSAII (Michael W. Deem and Ramdas Pophale) SiO2 
 PCOD9584315
Probable space group: P 64 2 2
;
_chemical_formula_sum "Si O2"
_cell_formula_units_Z 66
_cell_length_a 19.593797
_cell_length_b 19.593797
_cell_length_c 8.830660
_cell_angle_alpha 90.000000
_cell_angle_beta 90.000000
_cell_angle_gamma 120.000000
_cell_volume 2936.033483
_symmetry_space_group_name_H-M "P 64 2 2"
_symmetry_group_IT_number 181
_symmetry_cell_setting 'hexagonal'
loop_
_space_group_symop_operation_xyz
x,y,z
x-y,x,2/3+z
-y,x-y,1/3+z
-x,-y,z
-x+y,-x,2/3+z
y,-x+y,1/3+z
x-y,-y,-z
-x,-x+y,2/3-z
y,x,1/3-z
-y,-x,1/3-z
-x+y,y,-z
x,x-y,2/3-z
loop_
_atom_site_type_symbol
_atom_site_label
_atom_site_fract_x
_atom_site_fract_y
_atom_site_fract_z
Si Si1 0.646978 0.293955 0.500000
Si Si2 0.160809 0.080405 0.833334
Si Si3 0.081834 0.918167 0.666667
Si Si4 0.172620 0.281896 0.722790
Si Si5 0.523025 0.832106 0.376615
Si Si6 0.599294 0.646093 0.527847
Si Si7 0.352314 0.287618 0.058400
O O1 0.660630 0.339371 0.666667
O O2 0.556449 0.233934 0.455252
O O3 0.222314 0.158884 0.746211
O O4 0.113524 0.010246 0.712564
O O5 0.105591 0.879897 0.528054
O O6 0.262952 0.343785 0.755476
O O7 0.129743 0.330964 0.678533
O O8 0.567258 0.783629 0.333334
O O9 0.525707 0.881695 0.227819
O O10 0.571842 0.895459 0.502232
O O11 0.589172 0.589172 0.666667
O O12 0.653226 0.633251 0.408383
O O13 0.283935 0.283935 0.166667
#
# Coordination Sequence:
#
# PCOD9584315 Si02
#       7
#     6   6   6  12  12  12  12
#     4  10  24  50  84 118 154 189 246 299 352 444
#     4  12  26  40  54  72 104 159 230 299 370 438
#     4  12  24  40  53  68 100 156 222 298 366 426
#     4  12  21  38  59  84 118 165 221 296 350 415
#     4  10  20  44  70 103 143 183 227 285 351 410
#     4  11  22  37  61 102 139 175 234 292 353 437
#     4  10  20  35  61  93 129 177 225 282 357 420
#
# _framework density 22.479306000000001
#
# number of rings (size 3 to 8) (size 9 to 14) (size 15 to 20)
#    0.000    1.091    1.818    7.636    0.000    0.000 
#    6.545   12.273    0.000    1.091    0.000    0.000 
#    0.000    0.000    0.000    0.000    0.000    0.000 
#
# Total GULP energy -367750.414820 kJ/mol
# GULP energy per Si atom -5571.975982 kJ/mol
# Density = 2.242814 g / cm^3
# Si number density = 22.479306 Si / 1000 Ang^3
#
#
#
# Elastic Constant Matrix: (Units=GPa)
#
#
# Indices 1 2 3 4 5 6 
#
# 1 -37.5237 108.0761 29.6222 0.0000 0.0000 0.0000
# 2 108.0761 -37.5237 29.6222 0.0000 0.0000 0.0000
# 3 29.6222 29.6222 124.5817 0.0000 0.0000 0.0000
# 4 0.0000 0.0000 0.0000 28.7710 0.0000 0.0000
# 5 0.0000 0.0000 0.0000 0.0000 28.7710 0.0000
# 6 0.0000 0.0000 0.0000 0.0000 0.0000 -72.7999
#
#
#
# Elastic Compliance Matrix: (Units=1/GPa)
#
#
# Indices 1 2 3 4 5 6 
#
# 1 0.005421 0.012289 -0.004211 0.000000 0.000000 0.000000
# 2 0.012289 0.005421 -0.004211 0.000000 0.000000 0.000000
# 3 -0.004211 -0.004211 0.010029 0.000000 0.000000 0.000000
# 4 0.000000 0.000000 0.000000 0.034757 0.000000 0.000000
# 5 0.000000 0.000000 0.000000 0.000000 0.034757 0.000000
# 6 0.000000 0.000000 0.000000 0.000000 0.000000 -0.013736
#
#
# Mechanical properties :
#
#
# Convention : Reuss Voigt Hill
#
# Bulk Modulus (GPa) = 34.95846 42.68615 38.82230
# Shear Modulus (GPa) = 63.73482 -10.90399 26.41542
#
# Velocity S-wave (km/s) = 5.33050 -2.20482 3.43169
# Velocity P-wave (km/s) = 7.31237 3.54241 5.74541
#
# Compressibility (1/GPa) = 0.02860538
#
# Stress axis : x y z
#
# Youngs Moduli (GPa) = 184.47194 184.47194 99.70723
#
# Poissons Ratio (x) = -2.26698 0.41986
# Poissons Ratio (y) = -2.26698 0.41986
# Poissons Ratio (z) = 0.77680 0.77680
#
# Static dielectric constant tensor:
#      x y z
#    x 1.900650 0.000000 0.000000 
#    y 0.000000 1.900650 0.000000 
#    z 0.000000 0.000000 1.981000 
# 
# From -- ./inp_files/3228.got.cif
#   From: 2010.05.17/outbox.cif.g08.bks.cpg/sg181_2_cif.got.tgz:3228.got - 2010.05.20 11:51:17.
