data_PCOD9584163
_publ_section_title
;
Structure prediction by ZEFSAII (Michael W. Deem and Ramdas Pophale) SiO2 
 PCOD9584163
Probable space group: P 62 2 2
;
_chemical_formula_sum "Si O2"
_cell_formula_units_Z 30
_cell_length_a 7.309803
_cell_length_b 7.309803
_cell_length_c 30.240711
_cell_angle_alpha 90.000000
_cell_angle_beta 90.000000
_cell_angle_gamma 120.000000
_cell_volume 1399.374563
_symmetry_space_group_name_H-M "P 62 2 2"
_symmetry_group_IT_number 180
_symmetry_cell_setting 'hexagonal'
loop_
_space_group_symop_operation_xyz
x,y,z
x-y,x,1/3+z
-y,x-y,2/3+z
-x,-y,z
-x+y,-x,1/3+z
y,-x+y,2/3+z
x-y,-y,-z
-x,-x+y,1/3-z
y,x,2/3-z
-y,-x,2/3-z
-x+y,y,-z
x,x-y,1/3-z
loop_
_atom_site_type_symbol
_atom_site_label
_atom_site_fract_x
_atom_site_fract_y
_atom_site_fract_z
Si Si1 0.500000 0.500000 0.754715
Si Si2 0.192611 0.236296 0.283077
Si Si3 0.528142 0.224905 0.216817
O O1 0.706756 0.633249 0.725384
O O2 0.411431 0.628982 0.781728
O O3 0.270949 0.270949 0.333334
O O4 0.381925 0.272226 0.249767
O O5 0.000000 0.000000 0.277133
O O6 0.455864 0.227932 0.166667
O O7 0.500000 0.000000 0.229207
#
# Coordination Sequence:
#
# PCOD9584163 Si02
#       3
#     6  12  12
#     4  12  25  46  74 106 148 196 242 302 361 434
#     4  11  26  46  75 110 146 197 245 300 370 440
#     4  12  26  47  73 109 149 192 246 303 366 439
#
# _framework density 21.438151000000001
#
# number of rings (size 3 to 8) (size 9 to 14) (size 15 to 20)
#    0.000    0.400    4.000    4.200    2.800    4.000 
#    0.000    0.000    0.000    0.000    0.000    0.000 
#    0.000    0.000    0.000    0.000    0.000    0.000 
#
# Total GULP energy -167400.496332 kJ/mol
# GULP energy per Si atom -5580.016544 kJ/mol
# Density = 2.138936 g / cm^3
# Si number density = 21.438151 Si / 1000 Ang^3
#
#
#
# Elastic Constant Matrix: (Units=GPa)
#
#
# Indices 1 2 3 4 5 6 
#
# 1 159.2684 73.4596 79.4204 0.0000 0.0000 0.0000
# 2 73.4596 159.2684 79.4204 0.0000 0.0000 0.0000
# 3 79.4204 79.4204 189.4904 0.0000 0.0000 0.0000
# 4 0.0000 0.0000 0.0000 19.7443 0.0000 0.0000
# 5 0.0000 0.0000 0.0000 0.0000 19.7443 0.0000
# 6 0.0000 0.0000 0.0000 0.0000 0.0000 42.9044
#
#
#
# Elastic Compliance Matrix: (Units=1/GPa)
#
#
# Indices 1 2 3 4 5 6 
#
# 1 0.008836 -0.002818 -0.002523 0.000000 0.000000 0.000000
# 2 -0.002818 0.008836 -0.002523 0.000000 0.000000 0.000000
# 3 -0.002523 -0.002523 0.007392 0.000000 0.000000 0.000000
# 4 0.000000 0.000000 0.000000 0.050648 0.000000 0.000000
# 5 0.000000 0.000000 0.000000 0.000000 0.050648 0.000000
# 6 0.000000 0.000000 0.000000 0.000000 0.000000 0.023308
#
#
# Mechanical properties :
#
#
# Convention : Reuss Voigt Hill
#
# Bulk Modulus (GPa) = 107.08030 108.06977 107.57503
# Shear Modulus (GPa) = 29.67268 34.86039 32.26654
#
# Velocity S-wave (km/s) = 3.72439 4.03686 3.88377
# Velocity P-wave (km/s) = 8.27960 8.49987 8.39046
#
# Compressibility (1/GPa) = 0.00933879
#
# Stress axis : x y z
#
# Youngs Moduli (GPa) = 113.17122 113.17122 135.28463
#
# Poissons Ratio (x) = 0.31888 0.34126
# Poissons Ratio (y) = 0.31888 0.34126
# Poissons Ratio (z) = 0.28548 0.28548
#
# Static dielectric constant tensor:
#      x y z
#    x 1.952120 0.000000 0.000000 
#    y 0.000000 1.952120 0.000000 
#    z 0.000000 0.000000 1.774270 
# 
# From -- ./inp_files/9597.got.cif
#   From: 2010.05.17/outbox.cif.g08.bks.cpg/sg180_5_cif.got.tgz:9597.got - 2010.05.20 11:43:55.
