data_PCOD9584992
_publ_section_title
;
Structure prediction by ZEFSAII (Michael W. Deem and Ramdas Pophale) SiO2 
 PCOD9584992
Probable space group: P 6 M M
;
_chemical_formula_sum "Si O2"
_cell_formula_units_Z 96
_cell_length_a 18.196339
_cell_length_b 18.196339
_cell_length_c 20.789426
_cell_angle_alpha 90.000000
_cell_angle_beta 90.000000
_cell_angle_gamma 120.000000
_cell_volume 5961.302616
_symmetry_space_group_name_H-M "P 6 M M"
_symmetry_group_IT_number 183
_symmetry_cell_setting 'hexagonal'
loop_
_space_group_symop_operation_xyz
x,y,z
x-y,x,z
-y,x-y,z
-x,-y,z
-x+y,-x,z
y,-x+y,z
-x+y,y,z
x,x-y,z
-y,-x,z
y,x,z
x-y,-y,z
-x,-x+y,z
loop_
_atom_site_type_symbol
_atom_site_label
_atom_site_fract_x
_atom_site_fract_y
_atom_site_fract_z
Si Si1 0.632671 0.898592 0.312370
Si Si2 0.532422 0.897674 0.189094
Si Si3 0.261625 0.906052 0.683393
Si Si4 0.364335 0.266931 0.832198
Si Si5 0.504502 0.836478 0.577666
Si Si6 0.634967 0.101635 0.436487
Si Si7 0.632161 0.731851 0.065127
Si Si8 0.332923 0.493278 0.945331
O O1 0.669668 0.834834 0.309095
O O2 0.567536 0.876869 0.253121
O O3 0.578637 0.880618 0.377742
O O4 0.700067 0.000000 0.309564
O O5 0.431850 0.863700 0.188210
O O6 0.569363 0.876497 0.126276
O O7 0.577783 0.000000 0.188933
O O8 0.165266 0.834735 0.672788
O O9 0.284433 0.896157 0.756824
O O10 0.316191 0.890329 0.630832
O O11 0.278206 0.000000 0.677085
O O12 0.336895 0.168448 0.844003
O O13 0.292896 0.292896 0.844516
O O14 0.443438 0.321335 0.878751
O O15 0.425073 0.850145 0.583185
O O16 0.478322 0.739161 0.588738
O O17 0.538132 0.860743 0.504860
O O18 0.565028 0.130055 0.422606
O O19 0.582040 0.000000 0.443585
O O20 0.664583 0.832292 0.062369
O O21 0.702775 0.702775 0.069869
O O22 0.574644 0.689060 0.002240
O O23 0.259072 0.518143 0.947380
O O24 0.424885 0.575116 0.952284
#
# Coordination Sequence:
#
# PCOD9584992 Si02
#       8
#    12  12  12  12  12  12  12  12
#     4  10  19  31  48  69  93 122 157 195 233 274
#     4   9  17  30  49  71  93 118 149 185 225 270
#     4   9  18  32  49  68  90 117 150 188 229 272
#     4   9  18  32  49  69  92 119 151 187 228 272
#     4  10  19  30  44  64  92 124 156 188 223 264
#     4   9  17  29  46  67  89 115 149 189 231 274
#     4  10  20  33  50  72  97 126 160 197 236 277
#     4  10  20  33  49  70  96 125 156 191 231 273
#
# _framework density 16.103863
#
# number of rings (size 3 to 8) (size 9 to 14) (size 15 to 20)
#    0.000    2.500    0.000    2.500    0.000    4.250 
#    0.000    1.250    0.000    8.000    0.000    1.750 
#    0.000    6.000    0.000    4.125    0.000    3.250 
#
# Total GULP energy -534873.563419 kJ/mol
# GULP energy per Si atom -5571.599619 kJ/mol
# Density = 1.606721 g / cm^3
# Si number density = 16.103863 Si / 1000 Ang^3
#
#
#
# Elastic Constant Matrix: (Units=GPa)
#
#
# Indices 1 2 3 4 5 6 
#
# 1 77.4509 56.8919 43.3402 0.0000 0.0000 0.0000
# 2 56.8919 77.4509 43.3402 0.0000 0.0000 0.0000
# 3 43.3402 43.3402 85.4413 0.0000 0.0000 0.0000
# 4 0.0000 0.0000 0.0000 19.9713 0.0000 0.0000
# 5 0.0000 0.0000 0.0000 0.0000 19.9713 0.0000
# 6 0.0000 0.0000 0.0000 0.0000 0.0000 10.2795
#
#
#
# Elastic Compliance Matrix: (Units=1/GPa)
#
#
# Indices 1 2 3 4 5 6 
#
# 1 0.029853 -0.018788 -0.005613 0.000000 0.000000 0.000000
# 2 -0.018788 0.029853 -0.005613 0.000000 0.000000 0.000000
# 3 -0.005613 -0.005613 0.017398 0.000000 0.000000 0.000000
# 4 0.000000 0.000000 0.000000 0.050072 0.000000 0.000000
# 5 0.000000 0.000000 0.000000 0.000000 0.050072 0.000000
# 6 0.000000 0.000000 0.000000 0.000000 0.000000 0.097281
#
#
# Mechanical properties :
#
#
# Convention : Reuss Voigt Hill
#
# Bulk Modulus (GPa) = 58.55762 58.60974 58.58368
# Shear Modulus (GPa) = 14.69521 16.49581 15.59551
#
# Velocity S-wave (km/s) = 3.02408 3.20400 3.11534
# Velocity P-wave (km/s) = 6.97387 7.08247 7.02838
#
# Compressibility (1/GPa) = 0.01707720
#
# Stress axis : x y z
#
# Youngs Moduli (GPa) = 33.49779 33.49779 57.47743
#
# Poissons Ratio (x) = 0.62934 0.32261
# Poissons Ratio (y) = 0.62934 0.32261
# Poissons Ratio (z) = 0.18802 0.18802
#
# Static dielectric constant tensor:
#      x y z
#    x 1.533510 0.000000 0.000000 
#    y 0.000000 1.533510 0.000000 
#    z 0.000000 0.000000 1.551640 
# 
# From -- ./inp_files/3082.got.cif
#   From: 2010.05.17/outbox.cif.g08.bks.cpg/sg183_2_cif.got.tgz:3082.got - 2010.05.20 12:02:58.
