data_PCOD9584249
_publ_section_title
;
Structure prediction by ZEFSAII (Michael W. Deem and Ramdas Pophale) SiO2 
 PCOD9584249
Probable space group: P 64 2 2
;
_chemical_formula_sum "Si O2"
_cell_formula_units_Z 39
_cell_length_a 8.167785
_cell_length_b 8.167785
_cell_length_c 31.799693
_cell_angle_alpha 90.000000
_cell_angle_beta 90.000000
_cell_angle_gamma 120.000000
_cell_volume 1837.224184
_symmetry_space_group_name_H-M "P 64 2 2"
_symmetry_group_IT_number 181
_symmetry_cell_setting 'hexagonal'
loop_
_space_group_symop_operation_xyz
x,y,z
x-y,x,2/3+z
-y,x-y,1/3+z
-x,-y,z
-x+y,-x,2/3+z
y,-x+y,1/3+z
x-y,-y,-z
-x,-x+y,2/3-z
y,x,1/3-z
-y,-x,1/3-z
-x+y,y,-z
x,x-y,2/3-z
loop_
_atom_site_type_symbol
_atom_site_label
_atom_site_fract_x
_atom_site_fract_y
_atom_site_fract_z
Si Si1 0.000000 0.000000 0.666667
Si Si2 0.403102 0.631744 0.786123
Si Si3 0.042195 0.270767 0.784058
Si Si4 0.933699 0.190181 0.076874
O O1 0.821249 0.947933 0.696568
O O2 0.500000 0.500000 0.786891
O O3 0.415760 0.707880 0.833334
O O4 0.184814 0.489785 0.774790
O O5 0.524828 0.802120 0.754036
O O6 0.160149 0.168085 0.769909
O O7 0.000000 0.247853 0.833334
O O8 0.842990 0.146596 0.760922
#
# Coordination Sequence:
#
# PCOD9584249 Si02
#       4
#     3  12  12  12
#     4   8  16  28  48  72 104 146 192 234 292 328
#     4  10  19  31  50  77 112 147 178 228 297 358
#     4   9  16  28  47  71 106 144 173 223 291 358
#     4   9  16  30  47  72 110 144 182 240 282 336
#
# _framework density 21.227677
#
# number of rings (size 3 to 8) (size 9 to 14) (size 15 to 20)
#    0.000    3.077    0.000    5.538    0.000    0.615 
#    0.000   19.231    0.000    0.000    0.000    0.000 
#  415.385    0.000    0.000    0.000    0.000    0.000 
#
# Total GULP energy -217452.073235 kJ/mol
# GULP energy per Si atom -5575.694186 kJ/mol
# Density = 2.117936 g / cm^3
# Si number density = 21.227677 Si / 1000 Ang^3
#
#
#
# Elastic Constant Matrix: (Units=GPa)
#
#
# Indices 1 2 3 4 5 6 
#
# 1 125.8391 61.1719 55.5911 0.0000 0.0000 0.0000
# 2 61.1719 125.8391 55.5911 0.0000 0.0000 0.0000
# 3 55.5911 55.5911 124.7513 0.0000 0.0000 0.0000
# 4 0.0000 0.0000 0.0000 7.7875 0.0000 0.0000
# 5 0.0000 0.0000 0.0000 0.0000 7.7875 0.0000
# 6 0.0000 0.0000 0.0000 0.0000 0.0000 32.3336
#
#
#
# Elastic Compliance Matrix: (Units=1/GPa)
#
#
# Indices 1 2 3 4 5 6 
#
# 1 0.011369 -0.004095 -0.003242 0.000000 0.000000 0.000000
# 2 -0.004095 0.011369 -0.003242 0.000000 0.000000 0.000000
# 3 -0.003242 -0.003242 0.010905 0.000000 0.000000 0.000000
# 4 0.000000 0.000000 0.000000 0.128411 0.000000 0.000000
# 5 0.000000 0.000000 0.000000 0.000000 0.128411 0.000000
# 6 0.000000 0.000000 0.000000 0.000000 0.000000 0.030928
#
#
# Mechanical properties :
#
#
# Convention : Reuss Voigt Hill
#
# Bulk Modulus (GPa) = 80.08026 80.12641 80.10333
# Shear Modulus (GPa) = 14.42121 23.18674 18.80397
#
# Velocity S-wave (km/s) = 2.60928 3.30856 2.97951
# Velocity P-wave (km/s) = 6.84720 7.24041 7.04655
#
# Compressibility (1/GPa) = 0.01248747
#
# Stress axis : x y z
#
# Youngs Moduli (GPa) = 87.95734 87.95734 91.70115
#
# Poissons Ratio (x) = 0.36015 0.29726
# Poissons Ratio (y) = 0.36015 0.29726
# Poissons Ratio (z) = 0.28513 0.28513
#
# Static dielectric constant tensor:
#      x y z
#    x 1.442170 0.000000 0.000000 
#    y 0.000000 1.442170 0.000000 
#    z 0.000000 0.000000 1.692600 
# 
# From -- ./inp_files/11747.got.cif
#   From: 2010.05.17/outbox.cif.g08.bks.cpg/sg181_6_cif.got.tgz:11747.got - 2010.05.20 11:51:17.
