data_PCOD9584332
_publ_section_title
;
Structure prediction by ZEFSAII (Michael W. Deem and Ramdas Pophale) SiO2 
 PCOD9584332
Probable space group: P 64 2 2
;
_chemical_formula_sum "Si O2"
_cell_formula_units_Z 84
_cell_length_a 14.624542
_cell_length_b 14.624542
_cell_length_c 22.947545
_cell_angle_alpha 90.000000
_cell_angle_beta 90.000000
_cell_angle_gamma 120.000000
_cell_volume 4250.415729
_symmetry_space_group_name_H-M "P 64 2 2"
_symmetry_group_IT_number 181
_symmetry_cell_setting 'hexagonal'
loop_
_space_group_symop_operation_xyz
x,y,z
x-y,x,2/3+z
-y,x-y,1/3+z
-x,-y,z
-x+y,-x,2/3+z
y,-x+y,1/3+z
x-y,-y,-z
-x,-x+y,2/3-z
y,x,1/3-z
-y,-x,1/3-z
-x+y,y,-z
x,x-y,2/3-z
loop_
_atom_site_type_symbol
_atom_site_label
_atom_site_fract_x
_atom_site_fract_y
_atom_site_fract_z
Si Si1 0.468078 0.605856 0.603878
Si Si2 0.424289 0.311375 0.813839
Si Si3 0.762273 0.109007 0.465726
Si Si4 0.466210 0.651633 0.048710
Si Si5 0.892813 0.485617 0.592881
Si Si6 0.030866 0.749486 0.400708
Si Si7 0.459023 0.741958 0.455928
O O1 0.443732 0.556269 0.666667
O O2 0.402354 0.516014 0.557808
O O3 0.435998 0.695050 0.603720
O O4 0.592728 0.669950 0.597478
O O5 0.461537 0.230769 0.833334
O O6 0.425581 0.362681 0.875733
O O7 0.316089 0.248108 0.777383
O O8 0.677957 0.108176 0.419193
O O9 0.872688 0.147715 0.431154
O O10 0.768832 0.197445 0.511148
O O11 0.719309 0.000000 0.500000
O O12 0.359988 0.547370 0.069475
O O13 0.495760 0.664674 0.980947
O O14 0.810651 0.371975 0.564771
O O15 0.000000 0.500000 0.620050
O O16 0.000000 0.756850 0.333334
O O17 0.367921 0.735842 0.500000
#
# Coordination Sequence:
#
# PCOD9584332 Si02
#       7
#    12  12  12  12  12  12  12
#     4  11  19  34  58  87 125 169 204 245 310 384
#     4  12  23  35  57  89 129 162 200 256 328 393
#     4  10  23  41  65  84 117 163 220 267 322 393
#     4  10  22  35  56  84 121 167 222 257 304 376
#     4  12  23  34  51  84 131 169 209 262 323 380
#     4  11  23  39  62  95 122 159 211 266 322 391
#     4  10  20  38  57  82 118 170 223 268 313 385
#
# _framework density 19.762771999999998
#
# number of rings (size 3 to 8) (size 9 to 14) (size 15 to 20)
#    0.000    1.143    1.429    8.143    4.000    2.000 
#    0.000    0.000    0.000    0.429    0.000    1.000 
#    0.000    0.000    0.000    0.000    0.000    0.000 
#
# Total GULP energy -468438.217045 kJ/mol
# GULP energy per Si atom -5576.645441 kJ/mol
# Density = 1.971779 g / cm^3
# Si number density = 19.762772 Si / 1000 Ang^3
#
#
#
# Elastic Constant Matrix: (Units=GPa)
#
#
# Indices 1 2 3 4 5 6 
#
# 1 10.8397 76.4637 33.1210 0.0000 0.0000 0.0000
# 2 76.4637 10.8397 33.1210 0.0000 0.0000 0.0000
# 3 33.1210 33.1210 134.2214 0.0000 0.0000 0.0000
# 4 0.0000 0.0000 0.0000 19.7654 0.0000 0.0000
# 5 0.0000 0.0000 0.0000 0.0000 19.7654 0.0000
# 6 0.0000 0.0000 0.0000 0.0000 0.0000 -32.8120
#
#
#
# Elastic Compliance Matrix: (Units=1/GPa)
#
#
# Indices 1 2 3 4 5 6 
#
# 1 -0.000573 0.014666 -0.003478 0.000000 0.000000 0.000000
# 2 0.014666 -0.000573 -0.003478 0.000000 0.000000 0.000000
# 3 -0.003478 -0.003478 0.009167 0.000000 0.000000 0.000000
# 4 0.000000 0.000000 0.000000 0.050593 0.000000 0.000000
# 5 0.000000 0.000000 0.000000 0.000000 0.050593 0.000000
# 6 0.000000 0.000000 0.000000 0.000000 0.000000 -0.030477
#
#
# Mechanical properties :
#
#
# Convention : Reuss Voigt Hill
#
# Bulk Modulus (GPa) = 42.65832 49.03472 45.84652
# Shear Modulus (GPa) = 70.29882 2.22343 36.26112
#
# Velocity S-wave (km/s) = 5.97064 1.06184 4.28813
# Velocity P-wave (km/s) = 8.31646 5.13506 6.91131
#
# Compressibility (1/GPa) = 0.02344208
#
# Stress axis : x y z
#
# Youngs Moduli (GPa) = -1746.20060 -1746.20063 109.09064
#
# Poissons Ratio (x) = 25.60917 0.37938
# Poissons Ratio (y) = 25.60917 0.37938
# Poissons Ratio (z) = -6.07266 -6.07266
#
# Static dielectric constant tensor:
#      x y z
#    x 1.800490 0.000000 0.000000 
#    y 0.000000 1.800490 0.000000 
#    z 0.000000 0.000000 2.859440 
# 
# From -- ./inp_files/10212.got.cif
#   From: 2010.05.17/outbox.cif.g08.bks.cpg/sg181_6_cif.got.tgz:10212.got - 2010.05.20 11:51:17.
