data_PCOD9584338
_publ_section_title
;
Structure prediction by ZEFSAII (Michael W. Deem and Ramdas Pophale) SiO2 
 PCOD9584338
Probable space group: P 64 2 2
;
_chemical_formula_sum "Si O2"
_cell_formula_units_Z 72
_cell_length_a 14.858529
_cell_length_b 14.858529
_cell_length_c 17.535991
_cell_angle_alpha 90.000000
_cell_angle_beta 90.000000
_cell_angle_gamma 120.000000
_cell_volume 3352.838062
_symmetry_space_group_name_H-M "P 64 2 2"
_symmetry_group_IT_number 181
_symmetry_cell_setting 'hexagonal'
loop_
_space_group_symop_operation_xyz
x,y,z
x-y,x,2/3+z
-y,x-y,1/3+z
-x,-y,z
-x+y,-x,2/3+z
y,-x+y,1/3+z
x-y,-y,-z
-x,-x+y,2/3-z
y,x,1/3-z
-y,-x,1/3-z
-x+y,y,-z
x,x-y,2/3-z
loop_
_atom_site_type_symbol
_atom_site_label
_atom_site_fract_x
_atom_site_fract_y
_atom_site_fract_z
Si Si1 0.525224 0.411766 0.937064
Si Si2 0.843308 0.176560 0.515883
Si Si3 0.654637 0.327319 0.333334
Si Si4 0.500000 0.500000 0.666667
Si Si5 0.198820 0.014435 0.611982
Si Si6 0.000000 0.000000 0.333334
Si Si7 0.768868 0.691913 0.436488
Si Si8 0.527582 0.171884 0.115089
O O1 0.500000 0.500000 0.963005
O O2 0.421042 0.301154 0.934051
O O3 0.562479 0.432742 0.849891
O O4 0.615112 0.410098 0.985719
O O5 0.825854 0.100942 0.445952
O O6 0.793534 0.245653 0.489369
O O7 0.963434 0.264757 0.526789
O O8 0.809498 0.095270 0.587099
O O9 0.730530 0.350087 0.405251
O O10 0.401084 0.478750 0.719406
O O11 0.234384 0.052605 0.697541
O O12 0.089647 0.010678 0.609827
O O13 0.846428 0.692855 0.500000
#
# Coordination Sequence:
#
# PCOD9584338 Si02
#       8
#    12  12   6   3  12   3  12  12
#     4  12  25  46  70 104 139 179 238 294 371 444
#     4  11  23  40  64  93 142 182 234 294 357 437
#     4  11  26  43  75 106 144 187 230 303 370 439
#     4  10  20  38  72 104 134 170 226 300 354 398
#     4  11  25  39  61  99 133 190 238 293 367 437
#     4  12  20  40  58  84 144 180 238 292 344 434
#     4  12  23  42  66  95 130 181 238 297 357 440
#     4  11  22  44  68 103 138 180 231 298 356 428
#
# _framework density 21.474343999999999
#
# number of rings (size 3 to 8) (size 9 to 14) (size 15 to 20)
#    0.000    0.667    4.167    3.500    0.000    6.667 
#    0.000    0.000    0.000    1.000    0.000    0.000 
#    0.000    0.000    0.000    0.000    0.000    0.000 
#
# Total GULP energy -402091.764268 kJ/mol
# GULP energy per Si atom -5584.607837 kJ/mol
# Density = 2.142547 g / cm^3
# Si number density = 21.474344 Si / 1000 Ang^3
#
#
#
# Elastic Constant Matrix: (Units=GPa)
#
#
# Indices 1 2 3 4 5 6 
#
# 1 88.3325 39.0581 27.0721 0.0000 0.0000 0.0000
# 2 39.0581 88.3325 27.0721 0.0000 0.0000 0.0000
# 3 27.0721 27.0721 53.4300 0.0000 0.0000 0.0000
# 4 0.0000 0.0000 0.0000 -16.4362 0.0000 0.0000
# 5 0.0000 0.0000 0.0000 0.0000 -16.4362 0.0000
# 6 0.0000 0.0000 0.0000 0.0000 0.0000 24.6372
#
#
#
# Elastic Compliance Matrix: (Units=1/GPa)
#
#
# Indices 1 2 3 4 5 6 
#
# 1 0.015149 -0.005145 -0.005069 0.000000 0.000000 0.000000
# 2 -0.005145 0.015149 -0.005069 0.000000 0.000000 0.000000
# 3 -0.005069 -0.005069 0.023853 0.000000 0.000000 0.000000
# 4 0.000000 0.000000 0.000000 -0.060841 0.000000 0.000000
# 5 0.000000 0.000000 0.000000 0.000000 -0.060841 0.000000
# 6 0.000000 0.000000 0.000000 0.000000 0.000000 0.040589
#
#
# Mechanical properties :
#
#
# Convention : Reuss Voigt Hill
#
# Bulk Modulus (GPa) = 42.39908 46.27773 44.33841
# Shear Modulus (GPa) = 435.30018 7.47913 221.38966
#
# Velocity S-wave (km/s) = 14.25297 1.86826 10.16458
# Velocity P-wave (km/s) = 17.04845 5.12356 12.58771
#
# Compressibility (1/GPa) = 0.02358542
#
# Stress axis : x y z
#
# Youngs Moduli (GPa) = 66.00908 66.00908 41.92371
#
# Poissons Ratio (x) = 0.33962 0.21251
# Poissons Ratio (y) = 0.33962 0.21251
# Poissons Ratio (z) = 0.33460 0.33460
#
# Static dielectric constant tensor:
#      x y z
#    x 1.795280 0.000000 0.000000 
#    y 0.000000 1.795280 0.000000 
#    z 0.000000 0.000000 1.924880 
# 
# From -- ./inp_files/7863.got.cif
#   From: 2010.05.17/outbox.cif.g08.bks.cpg/sg181_4_cif.got.tgz:7863.got - 2010.05.20 11:51:17.
