data_PCOD9584814
_publ_section_title
;
Structure prediction by ZEFSAII (Michael W. Deem and Ramdas Pophale) SiO2 
 PCOD9584814
Probable space group: P 63 2 2
;
_chemical_formula_sum "Si O2"
_cell_formula_units_Z 78
_cell_length_a 17.368562
_cell_length_b 17.368562
_cell_length_c 17.311987
_cell_angle_alpha 90.000000
_cell_angle_beta 90.000000
_cell_angle_gamma 120.000000
_cell_volume 4522.778048
_symmetry_space_group_name_H-M "P 63 2 2"
_symmetry_group_IT_number 182
_symmetry_cell_setting 'hexagonal'
loop_
_space_group_symop_operation_xyz
x,y,z
x-y,x,1/2+z
-y,x-y,z
-x,-y,1/2+z
-x+y,-x,z
y,-x+y,1/2+z
x-y,-y,-z
-x,-x+y,-z
y,x,-z
-y,-x,1/2-z
-x+y,y,1/2-z
x,x-y,1/2-z
loop_
_atom_site_type_symbol
_atom_site_label
_atom_site_fract_x
_atom_site_fract_y
_atom_site_fract_z
Si Si1 0.479672 0.173553 0.085941
Si Si2 0.593406 0.000000 0.000000
Si Si3 0.364612 0.853716 0.620406
Si Si4 0.281575 0.898534 0.761542
Si Si5 0.903066 0.271913 0.761848
Si Si6 0.663671 0.149337 0.886942
Si Si7 0.156785 0.671606 0.411511
O O1 0.480602 0.266642 0.088165
O O2 0.576225 0.192677 0.114624
O O3 0.413845 0.108882 0.150501
O O4 0.458369 0.133789 0.000538
O O5 0.589791 0.921655 0.054112
O O6 0.583360 0.059967 0.065759
O O7 0.345483 0.881546 0.703877
O O8 0.182022 0.817979 0.750000
O O9 0.296885 0.995493 0.745888
O O10 0.831519 0.168482 0.750000
O O11 0.875110 0.322366 0.699131
O O12 0.892924 0.303586 0.846676
O O13 0.569385 0.143982 0.897068
O O14 0.740524 0.249861 0.903335
#
# Coordination Sequence:
#
# PCOD9584814 Si02
#       7
#    12   6  12  12  12  12  12
#     4  11  21  34  52  78 106 142 177 221 255 309
#     4  12  20  32  58  72 100 150 182 222 252 304
#     4  11  22  36  53  75 108 143 183 215 263 308
#     4  10  23  38  55  77 105 136 170 216 266 315
#     4  10  23  38  55  77 105 136 170 216 266 315
#     4  11  22  36  53  75 108 143 183 215 263 308
#     4  11  21  34  52  78 106 142 177 221 255 309
#
# _framework density 17.246037999999999
#
# number of rings (size 3 to 8) (size 9 to 14) (size 15 to 20)
#    0.000    1.231    4.615    1.538    2.154    1.846 
#    0.000    3.077    0.000    0.308    0.000    0.000 
#    0.000    0.000    0.000    2.769    0.000    0.000 
#
# Total GULP energy -434801.849073 kJ/mol
# GULP energy per Si atom -5574.382680 kJ/mol
# Density = 1.720679 g / cm^3
# Si number density = 17.246038 Si / 1000 Ang^3
#
#
#
# Elastic Constant Matrix: (Units=GPa)
#
#
# Indices 1 2 3 4 5 6 
#
# 1 53.3653 40.3594 38.3865 0.0000 0.0000 0.0000
# 2 40.3594 53.3653 38.3865 0.0000 0.0000 0.0000
# 3 38.3865 38.3865 129.4932 0.0000 0.0000 0.0000
# 4 0.0000 0.0000 0.0000 16.6167 0.0000 0.0000
# 5 0.0000 0.0000 0.0000 0.0000 16.6167 0.0000
# 6 0.0000 0.0000 0.0000 0.0000 0.0000 6.5030
#
#
#
# Elastic Compliance Matrix: (Units=1/GPa)
#
#
# Indices 1 2 3 4 5 6 
#
# 1 0.045490 -0.031398 -0.004177 0.000000 0.000000 0.000000
# 2 -0.031398 0.045490 -0.004177 0.000000 0.000000 0.000000
# 3 -0.004177 -0.004177 0.010199 0.000000 0.000000 0.000000
# 4 0.000000 0.000000 0.000000 0.060180 0.000000 0.000000
# 5 0.000000 0.000000 0.000000 0.000000 0.060180 0.000000
# 6 0.000000 0.000000 0.000000 0.000000 0.000000 0.153776
#
#
# Mechanical properties :
#
#
# Convention : Reuss Voigt Hill
#
# Bulk Modulus (GPa) = 46.14096 52.27651 49.20873
# Shear Modulus (GPa) = 10.82147 15.88671 13.35409
#
# Velocity S-wave (km/s) = 2.50766 3.03839 2.78569
# Velocity P-wave (km/s) = 5.93272 6.53353 6.24036
#
# Compressibility (1/GPa) = 0.02167272
#
# Stress axis : x y z
#
# Youngs Moduli (GPa) = 21.98305 21.98305 98.04964
#
# Poissons Ratio (x) = 0.69023 0.40957
# Poissons Ratio (y) = 0.69023 0.40957
# Poissons Ratio (z) = 0.09183 0.09183
#
# Static dielectric constant tensor:
#      x y z
#    x 1.581030 0.000000 0.000000 
#    y 0.000000 1.581030 0.000000 
#    z 0.000000 0.000000 1.626340 
# 
# From -- ./inp_files/3651.got.cif
#   From: 2010.05.17/outbox.cif.g08.bks.cpg/sg182_2_cif.got.tgz:3651.got - 2010.05.20 11:58:53.
