data_PCOD9584116
_publ_section_title
;
Structure prediction by ZEFSAII (Michael W. Deem and Ramdas Pophale) SiO2 
 PCOD9584116
Probable space group: P 62 2 2
;
_chemical_formula_sum "Si O2"
_cell_formula_units_Z 42
_cell_length_a 13.818500
_cell_length_b 13.818500
_cell_length_c 12.202778
_cell_angle_alpha 90.000000
_cell_angle_beta 90.000000
_cell_angle_gamma 120.000000
_cell_volume 2017.953469
_symmetry_space_group_name_H-M "P 62 2 2"
_symmetry_group_IT_number 180
_symmetry_cell_setting 'hexagonal'
loop_
_space_group_symop_operation_xyz
x,y,z
x-y,x,1/3+z
-y,x-y,2/3+z
-x,-y,z
-x+y,-x,1/3+z
y,-x+y,2/3+z
x-y,-y,-z
-x,-x+y,1/3-z
y,x,2/3-z
-y,-x,2/3-z
-x+y,y,-z
x,x-y,1/3-z
loop_
_atom_site_type_symbol
_atom_site_label
_atom_site_fract_x
_atom_site_fract_y
_atom_site_fract_z
Si Si1 0.221250 0.778751 0.833334
Si Si2 0.131818 0.247346 0.660440
Si Si3 0.457785 0.586679 0.453926
Si Si4 0.794563 0.678255 0.114138
O O1 0.148089 0.790144 0.735965
O O2 0.175359 0.650694 0.864534
O O3 0.161160 0.277191 0.787499
O O4 0.216378 0.220356 0.593028
O O5 0.000000 0.153621 0.666667
O O6 0.500000 0.500000 0.443109
O O7 0.409503 0.590498 0.333334
O O8 0.565816 0.693922 0.500758
O O9 0.821153 0.642305 0.000000
#
# Coordination Sequence:
#
# PCOD9584116 Si02
#       4
#     6  12  12  12
#     4  12  22  40  76 105 135 188 254 304 372 438
#     4  12  22  44  73 105 145 197 244 302 371 455
#     4  11  22  41  70 100 134 188 246 301 369 443
#     4  12  26  44  68 108 153 191 243 313 377 453
#
# _framework density 20.813165000000001
#
# number of rings (size 3 to 8) (size 9 to 14) (size 15 to 20)
#    0.000    0.286    8.571    0.857    0.000    1.714 
#    0.000    2.857    0.000    0.000    0.000    0.000 
#    0.000    0.000    0.000    0.000    0.000    0.000 
#
# Total GULP energy -233803.826139 kJ/mol
# GULP energy per Si atom -5566.757765 kJ/mol
# Density = 2.076579 g / cm^3
# Si number density = 20.813165 Si / 1000 Ang^3
#
#
#
# Elastic Constant Matrix: (Units=GPa)
#
#
# Indices 1 2 3 4 5 6 
#
# 1 115.1209 46.0171 46.8786 0.0000 0.0000 0.0000
# 2 46.0171 115.1209 46.8786 0.0000 0.0000 0.0000
# 3 46.8786 46.8786 173.6748 0.0000 0.0000 0.0000
# 4 0.0000 0.0000 0.0000 37.6670 0.0000 0.0000
# 5 0.0000 0.0000 0.0000 0.0000 37.6670 0.0000
# 6 0.0000 0.0000 0.0000 0.0000 0.0000 34.5519
#
#
#
# Elastic Compliance Matrix: (Units=1/GPa)
#
#
# Indices 1 2 3 4 5 6 
#
# 1 0.010917 -0.003554 -0.001987 0.000000 0.000000 0.000000
# 2 -0.003554 0.010917 -0.001987 0.000000 0.000000 0.000000
# 3 -0.001987 -0.001987 0.006831 0.000000 0.000000 0.000000
# 4 0.000000 0.000000 0.000000 0.026548 0.000000 0.000000
# 5 0.000000 0.000000 0.000000 0.000000 0.026548 0.000000
# 6 0.000000 0.000000 0.000000 0.000000 0.000000 0.028942
#
#
# Mechanical properties :
#
#
# Convention : Reuss Voigt Hill
#
# Bulk Modulus (GPa) = 73.49650 75.94058 74.71854
# Shear Modulus (GPa) = 38.37428 39.58667 38.98047
#
# Velocity S-wave (km/s) = 4.29855 4.36593 4.33237
# Velocity P-wave (km/s) = 7.74764 7.87281 7.81047
#
# Compressibility (1/GPa) = 0.01360609
#
# Stress axis : x y z
#
# Youngs Moduli (GPa) = 91.60413 91.60413 146.39877
#
# Poissons Ratio (x) = 0.32560 0.29092
# Poissons Ratio (y) = 0.32560 0.29092
# Poissons Ratio (z) = 0.18203 0.18203
#
# Static dielectric constant tensor:
#      x y z
#    x 1.825530 0.000000 0.000000 
#    y 0.000000 1.825530 0.000000 
#    z 0.000000 0.000000 1.860690 
# 
# From -- ./inp_files/4253.got.cif
#   From: 2010.05.17/outbox.cif.g08.bks.cpg/sg180_3_cif.got.tgz:4253.got - 2010.05.20 11:43:55.
