data_PCOD9584400
_publ_section_title
;
Structure prediction by ZEFSAII (Michael W. Deem and Ramdas Pophale) SiO2 
 PCOD9584400
Probable space group: P 64 2 2
;
_chemical_formula_sum "Si O2"
_cell_formula_units_Z 54
_cell_length_a 13.956495
_cell_length_b 13.956495
_cell_length_c 14.374627
_cell_angle_alpha 90.000000
_cell_angle_beta 90.000000
_cell_angle_gamma 120.000000
_cell_volume 2424.822452
_symmetry_space_group_name_H-M "P 64 2 2"
_symmetry_group_IT_number 181
_symmetry_cell_setting 'hexagonal'
loop_
_space_group_symop_operation_xyz
x,y,z
x-y,x,2/3+z
-y,x-y,1/3+z
-x,-y,z
-x+y,-x,2/3+z
y,-x+y,1/3+z
x-y,-y,-z
-x,-x+y,2/3-z
y,x,1/3-z
-y,-x,1/3-z
-x+y,y,-z
x,x-y,2/3-z
loop_
_atom_site_type_symbol
_atom_site_label
_atom_site_fract_x
_atom_site_fract_y
_atom_site_fract_z
Si Si1 0.660434 0.641858 0.458825
Si Si2 0.757791 0.378896 0.833334
Si Si3 0.909571 0.802318 0.104059
Si Si4 0.073606 0.405085 0.921965
Si Si5 0.854414 0.421209 0.441051
O O1 0.766635 0.766857 0.468606
O O2 0.629056 0.631807 0.349513
O O3 0.553002 0.629007 0.511302
O O4 0.654742 0.532301 0.502826
O O5 0.828056 0.471020 0.910890
O O6 0.677537 0.408973 0.779880
O O7 0.878827 0.878827 0.166667
O O8 0.797392 0.682721 0.094801
O O9 0.924835 0.849669 0.000000
O O10 0.000000 0.390722 0.833334
O O11 0.884628 0.442314 0.333334
#
# Coordination Sequence:
#
# PCOD9584400 Si02
#       5
#    12   6  12  12  12
#     4  10  21  43  60  85 132 184 224 273 351 395
#     4  12  25  38  60  98 133 176 236 282 332 406
#     4   9  18  37  64  96 134 175 225 287 345 406
#     4  10  22  37  62  95 132 180 226 283 330 398
#     4  11  26  40  59  84 140 190 224 280 338 424
#
# _framework density 22.269672
#
# number of rings (size 3 to 8) (size 9 to 14) (size 15 to 20)
#    0.000    1.778    2.222    1.667    9.333    0.000 
#    4.000    0.000    0.000    0.000    0.000    0.778 
#    0.000    4.000    0.000    0.000    0.000    0.000 
#
# Total GULP energy -301264.503624 kJ/mol
# GULP energy per Si atom -5578.972289 kJ/mol
# Density = 2.221899 g / cm^3
# Si number density = 22.269672 Si / 1000 Ang^3
#
#
#
# Elastic Constant Matrix: (Units=GPa)
#
#
# Indices 1 2 3 4 5 6 
#
# 1 108.1422 28.4013 45.3973 0.0000 0.0000 0.0000
# 2 28.4013 108.1422 45.3973 0.0000 0.0000 0.0000
# 3 45.3973 45.3973 159.3758 0.0000 0.0000 0.0000
# 4 0.0000 0.0000 0.0000 32.5766 0.0000 0.0000
# 5 0.0000 0.0000 0.0000 0.0000 32.5766 0.0000
# 6 0.0000 0.0000 0.0000 0.0000 0.0000 39.8704
#
#
#
# Elastic Compliance Matrix: (Units=1/GPa)
#
#
# Indices 1 2 3 4 5 6 
#
# 1 0.010788 -0.001753 -0.002574 0.000000 0.000000 0.000000
# 2 -0.001753 0.010788 -0.002574 0.000000 0.000000 0.000000
# 3 -0.002574 -0.002574 0.007741 0.000000 0.000000 0.000000
# 4 0.000000 0.000000 0.000000 0.030697 0.000000 0.000000
# 5 0.000000 0.000000 0.000000 0.000000 0.030697 0.000000
# 6 0.000000 0.000000 0.000000 0.000000 0.000000 0.025081
#
#
# Mechanical properties :
#
#
# Convention : Reuss Voigt Hill
#
# Bulk Modulus (GPa) = 64.44837 68.22800 66.33818
# Shear Modulus (GPa) = 37.10215 38.10236 37.60225
#
# Velocity S-wave (km/s) = 4.08614 4.14085 4.11359
# Velocity P-wave (km/s) = 7.15995 7.31887 7.23985
#
# Compressibility (1/GPa) = 0.01551630
#
# Stress axis : x y z
#
# Youngs Moduli (GPa) = 92.69738 92.69738 129.18879
#
# Poissons Ratio (x) = 0.16248 0.33248
# Poissons Ratio (y) = 0.16248 0.33248
# Poissons Ratio (z) = 0.23856 0.23856
#
# Static dielectric constant tensor:
#      x y z
#    x 1.927610 0.000000 0.000000 
#    y 0.000000 1.927610 0.000000 
#    z 0.000000 0.000000 1.788630 
# 
# From -- ./inp_files/6021.got.cif
#   From: 2010.05.17/outbox.cif.g08.bks.cpg/sg181_4_cif.got.tgz:6021.got - 2010.05.20 11:51:17.
