data_PCOD9584399
_publ_section_title
;
Structure prediction by ZEFSAII (Michael W. Deem and Ramdas Pophale) SiO2 
 PCOD9584399
Probable space group: P 64 2 2
;
_chemical_formula_sum "Si O2"
_cell_formula_units_Z 42
_cell_length_a 8.967852
_cell_length_b 8.967852
_cell_length_c 24.573192
_cell_angle_alpha 90.000000
_cell_angle_beta 90.000000
_cell_angle_gamma 120.000000
_cell_volume 1711.469131
_symmetry_space_group_name_H-M "P 64 2 2"
_symmetry_group_IT_number 181
_symmetry_cell_setting 'hexagonal'
loop_
_space_group_symop_operation_xyz
x,y,z
x-y,x,2/3+z
-y,x-y,1/3+z
-x,-y,z
-x+y,-x,2/3+z
y,-x+y,1/3+z
x-y,-y,-z
-x,-x+y,2/3-z
y,x,1/3-z
-y,-x,1/3-z
-x+y,y,-z
x,x-y,2/3-z
loop_
_atom_site_type_symbol
_atom_site_label
_atom_site_fract_x
_atom_site_fract_y
_atom_site_fract_z
Si Si1 0.024401 0.680264 0.251725
Si Si2 0.000000 0.000000 0.252590
Si Si3 0.644954 0.824857 0.477132
Si Si4 0.407209 0.603663 0.948497
O O1 0.229546 0.784172 0.251969
O O2 0.000000 0.500000 0.275384
O O3 0.923917 0.628128 0.194420
O O4 0.969527 0.815993 0.276847
O O5 0.169862 0.060812 0.217271
O O6 0.504249 0.731800 0.430952
O O7 0.662240 0.000000 0.500000
O O8 0.500000 0.500000 0.968560
O O9 0.319198 0.638395 0.000000
#
# Coordination Sequence:
#
# PCOD9584399 Si02
#       4
#    12   6  12  12
#     4  11  24  43  79 111 147 200 270 322 388 489
#     4  10  21  42  73 118 145 184 261 336 385 460
#     4  10  22  43  80 113 145 197 270 326 389 471
#     4  12  28  49  72 110 167 201 249 337 424 485
#
# _framework density 24.540322
#
# number of rings (size 3 to 8) (size 9 to 14) (size 15 to 20)
#    0.000    1.143    2.857    4.714    4.000    5.143 
#    0.000    5.000    0.000    0.000    0.000    0.000 
#    0.000    0.000    0.000    0.000    0.000    0.000 
#
# Total GULP energy -234343.321995 kJ/mol
# GULP energy per Si atom -5579.602905 kJ/mol
# Density = 2.448447 g / cm^3
# Si number density = 24.540322 Si / 1000 Ang^3
#
#
#
# Elastic Constant Matrix: (Units=GPa)
#
#
# Indices 1 2 3 4 5 6 
#
# 1 163.7706 60.6160 56.3564 0.0000 0.0000 0.0000
# 2 60.6160 163.7706 56.3564 0.0000 0.0000 0.0000
# 3 56.3564 56.3564 170.1256 0.0000 0.0000 0.0000
# 4 0.0000 0.0000 0.0000 -17.0112 0.0000 0.0000
# 5 0.0000 0.0000 0.0000 0.0000 -17.0112 0.0000
# 6 0.0000 0.0000 0.0000 0.0000 0.0000 51.5773
#
#
#
# Elastic Compliance Matrix: (Units=1/GPa)
#
#
# Indices 1 2 3 4 5 6 
#
# 1 0.007520 -0.002174 -0.001771 0.000000 0.000000 0.000000
# 2 -0.002174 0.007520 -0.001771 0.000000 0.000000 0.000000
# 3 -0.001771 -0.001771 0.007051 0.000000 0.000000 0.000000
# 4 0.000000 0.000000 0.000000 -0.058785 0.000000 0.000000
# 5 0.000000 0.000000 0.000000 0.000000 -0.058785 0.000000
# 6 0.000000 0.000000 0.000000 0.000000 0.000000 0.019388
#
#
# Mechanical properties :
#
#
# Convention : Reuss Voigt Hill
#
# Bulk Modulus (GPa) = 93.81096 93.81384 93.81240
# Shear Modulus (GPa) = -81.82701 25.13353 -28.34674
#
# Velocity S-wave (km/s) = -5.78068 3.20374 -3.40238
# Velocity P-wave (km/s) = 2.49896 7.21087 4.78288
#
# Compressibility (1/GPa) = 0.01065973
#
# Stress axis : x y z
#
# Youngs Moduli (GPa) = 132.97534 132.97534 141.81693
#
# Poissons Ratio (x) = 0.28909 0.25116
# Poissons Ratio (y) = 0.28909 0.25116
# Poissons Ratio (z) = 0.23550 0.23550
#
# Static dielectric constant tensor:
#      x y z
#    x 2.146020 0.000000 0.000000 
#    y 0.000000 2.146020 0.000000 
#    z 0.000000 0.000000 1.881730 
# 
# From -- ./inp_files/11954.got.cif
#   From: 2010.05.17/outbox.cif.g08.bks.cpg/sg181_6_cif.got.tgz:11954.got - 2010.05.20 11:51:17.
