data_PCOD9584842
_publ_section_title
;
Structure prediction by ZEFSAII (Michael W. Deem and Ramdas Pophale) SiO2 
 PCOD9584842
Probable space group: P 63 2 2
;
_chemical_formula_sum "Si O2"
_cell_formula_units_Z 64
_cell_length_a 14.665517
_cell_length_b 14.665517
_cell_length_c 17.654591
_cell_angle_alpha 90.000000
_cell_angle_beta 90.000000
_cell_angle_gamma 120.000000
_cell_volume 3288.387948
_symmetry_space_group_name_H-M "P 63 2 2"
_symmetry_group_IT_number 182
_symmetry_cell_setting 'hexagonal'
loop_
_space_group_symop_operation_xyz
x,y,z
x-y,x,1/2+z
-y,x-y,z
-x,-y,1/2+z
-x+y,-x,z
y,-x+y,1/2+z
x-y,-y,-z
-x,-x+y,-z
y,x,-z
-y,-x,1/2-z
-x+y,y,1/2-z
x,x-y,1/2-z
loop_
_atom_site_type_symbol
_atom_site_label
_atom_site_fract_x
_atom_site_fract_y
_atom_site_fract_z
Si Si1 0.409353 0.877524 0.666032
Si Si2 0.000000 0.000000 0.159683
Si Si3 0.252112 0.435211 0.590182
Si Si4 0.590647 0.468172 0.666032
Si Si5 0.747888 0.564789 0.909817
Si Si6 0.797856 0.797856 0.908772
O O1 0.420988 0.841975 0.750000
O O2 0.491458 0.865025 0.613039
O O3 0.293148 0.811681 0.633191
O O4 0.444578 1.000000 0.670765
O O5 0.896287 0.896288 0.129341
O O6 0.000000 0.000000 0.250000
O O7 0.240175 0.440048 0.500000
O O8 0.212294 0.314214 0.611143
O O9 0.579013 0.420988 0.750000
O O10 0.508543 0.373568 0.613039
O O11 0.706853 0.518534 0.633191
O O12 0.787704 0.685785 0.888857
O O13 0.809618 0.809618 0.000000
#
# Coordination Sequence:
#
# PCOD9584842 Si02
#       6
#    12   4  12  12  12  12
#     4  11  24  41  64  96 132 171 209 264 330 392
#     4  12  28  44  67  96 127 176 223 270 334 404
#     4  11  23  42  68  96 129 170 220 271 319 388
#     4  11  24  41  64  96 132 171 209 264 330 392
#     4  11  23  42  68  96 129 170 220 271 319 388
#     4  10  24  46  68  94 132 172 220 280 330 384
#
# _framework density 19.462423999999999
#
# number of rings (size 3 to 8) (size 9 to 14) (size 15 to 20)
#    0.000    1.125    1.875    3.562    2.625    5.250 
#    0.000    0.000    0.000    0.000    0.000    0.000 
#    0.000    0.000    0.000    0.000    0.000    0.000 
#
# Total GULP energy -358014.016026 kJ/mol
# GULP energy per Si atom -5593.969000 kJ/mol
# Density = 1.941813 g / cm^3
# Si number density = 19.462424 Si / 1000 Ang^3
#
#
#
# Elastic Constant Matrix: (Units=GPa)
#
#
# Indices 1 2 3 4 5 6 
#
# 1 142.3022 72.6676 62.5594 0.0000 0.0000 0.0000
# 2 72.6676 142.3022 62.5594 0.0000 0.0000 0.0000
# 3 62.5594 62.5594 92.9780 0.0000 0.0000 0.0000
# 4 0.0000 0.0000 0.0000 8.1587 0.0000 0.0000
# 5 0.0000 0.0000 0.0000 0.0000 8.1587 0.0000
# 6 0.0000 0.0000 0.0000 0.0000 0.0000 34.8173
#
#
#
# Elastic Compliance Matrix: (Units=1/GPa)
#
#
# Indices 1 2 3 4 5 6 
#
# 1 0.011003 -0.003357 -0.005145 0.000000 0.000000 0.000000
# 2 -0.003357 0.011003 -0.005145 0.000000 0.000000 0.000000
# 3 -0.005145 -0.005145 0.017678 0.000000 0.000000 0.000000
# 4 0.000000 0.000000 0.000000 0.122569 0.000000 0.000000
# 5 0.000000 0.000000 0.000000 0.000000 0.122569 0.000000
# 6 0.000000 0.000000 0.000000 0.000000 0.000000 0.028721
#
#
# Mechanical properties :
#
#
# Convention : Reuss Voigt Hill
#
# Bulk Modulus (GPa) = 80.69712 85.90612 83.30162
# Shear Modulus (GPa) = 14.49412 22.21335 18.35374
#
# Velocity S-wave (km/s) = 2.73192 3.38205 3.07422
# Velocity P-wave (km/s) = 7.17665 7.71273 7.44951
#
# Compressibility (1/GPa) = 0.01239202
#
# Stress axis : x y z
#
# Youngs Moduli (GPa) = 90.88094 90.88094 56.56661
#
# Poissons Ratio (x) = 0.30511 0.29101
# Poissons Ratio (y) = 0.30511 0.29101
# Poissons Ratio (z) = 0.46755 0.46755
#
# Static dielectric constant tensor:
#      x y z
#    x 1.648190 0.000000 0.000000 
#    y 0.000000 1.648190 0.000000 
#    z 0.000000 0.000000 1.669250 
# 
# From -- ./inp_files/4284.got.cif
#   From: 2010.05.17/outbox.cif.g08.bks.cpg/sg182_3_cif.got.tgz:4284.got - 2010.05.20 11:58:53.
