data_PCOD9584396
_publ_section_title
;
Structure prediction by ZEFSAII (Michael W. Deem and Ramdas Pophale) SiO2 
 PCOD9584396
Probable space group: P 64 2 2
;
_chemical_formula_sum "Si O2"
_cell_formula_units_Z 48
_cell_length_a 17.507876
_cell_length_b 17.507876
_cell_length_c 8.781894
_cell_angle_alpha 90.000000
_cell_angle_beta 90.000000
_cell_angle_gamma 120.000000
_cell_volume 2331.233346
_symmetry_space_group_name_H-M "P 64 2 2"
_symmetry_group_IT_number 181
_symmetry_cell_setting 'hexagonal'
loop_
_space_group_symop_operation_xyz
x,y,z
x-y,x,2/3+z
-y,x-y,1/3+z
-x,-y,z
-x+y,-x,2/3+z
y,-x+y,1/3+z
x-y,-y,-z
-x,-x+y,2/3-z
y,x,1/3-z
-y,-x,1/3-z
-x+y,y,-z
x,x-y,2/3-z
loop_
_atom_site_type_symbol
_atom_site_label
_atom_site_fract_x
_atom_site_fract_y
_atom_site_fract_z
Si Si1 0.566775 0.932626 0.640071
Si Si2 0.232670 0.798081 0.825872
Si Si3 0.921653 0.243540 0.240315
Si Si4 0.390897 0.592245 0.494786
O O1 0.563107 0.848694 0.563936
O O2 0.639260 0.958472 0.775563
O O3 0.472919 0.882901 0.726239
O O4 0.587037 0.000000 0.500000
O O5 0.192371 0.807630 0.666667
O O6 0.310294 0.777648 0.789577
O O7 0.263797 0.870536 0.959107
O O8 0.848414 0.151586 0.166667
O O9 0.000000 0.243012 0.333334
O O10 0.414713 0.585288 0.666667
O O11 0.290454 0.580907 0.500000
#
# Coordination Sequence:
#
# PCOD9584396 Si02
#       4
#    12  12  12  12
#     4  11  23  41  63  94 128 171 228 281 340 406
#     4  11  23  39  65  96 127 172 224 282 339 405
#     4  10  21  42  66  93 134 173 213 271 337 405
#     4  12  21  41  68  94 129 179 234 289 349 401
#
# _framework density 20.589957999999999
#
# number of rings (size 3 to 8) (size 9 to 14) (size 15 to 20)
#    0.000    1.000    5.000    3.000    0.000    0.000 
#    0.000   12.500    0.000    0.000    0.000    0.000 
#    0.000  125.000    0.000    0.000    0.000    0.000 
#
# Total GULP energy -267249.335126 kJ/mol
# GULP energy per Si atom -5567.694482 kJ/mol
# Density = 2.054309 g / cm^3
# Si number density = 20.589958 Si / 1000 Ang^3
#
#
#
# Elastic Constant Matrix: (Units=GPa)
#
#
# Indices 1 2 3 4 5 6 
#
# 1 93.0162 45.6180 56.9300 0.0000 0.0000 0.0000
# 2 45.6180 93.0162 56.9300 0.0000 0.0000 0.0000
# 3 56.9300 56.9300 186.5842 0.0000 0.0000 0.0000
# 4 0.0000 0.0000 0.0000 49.4038 0.0000 0.0000
# 5 0.0000 0.0000 0.0000 0.0000 49.4038 0.0000
# 6 0.0000 0.0000 0.0000 0.0000 0.0000 23.6991
#
#
#
# Elastic Compliance Matrix: (Units=1/GPa)
#
#
# Indices 1 2 3 4 5 6 
#
# 1 0.015362 -0.005736 -0.002937 0.000000 0.000000 0.000000
# 2 -0.005736 0.015362 -0.002937 0.000000 0.000000 0.000000
# 3 -0.002937 -0.002937 0.007152 0.000000 0.000000 0.000000
# 4 0.000000 0.000000 0.000000 0.020241 0.000000 0.000000
# 5 0.000000 0.000000 0.000000 0.000000 0.020241 0.000000
# 6 0.000000 0.000000 0.000000 0.000000 0.000000 0.042196
#
#
# Mechanical properties :
#
#
# Convention : Reuss Voigt Hill
#
# Bulk Modulus (GPa) = 68.23687 76.84140 72.53913
# Shear Modulus (GPa) = 33.63425 38.71060 36.17242
#
# Velocity S-wave (km/s) = 4.04608 4.34068 4.19597
# Velocity P-wave (km/s) = 7.41892 7.90714 7.66692
#
# Compressibility (1/GPa) = 0.01465483
#
# Stress axis : x y z
#
# Youngs Moduli (GPa) = 65.09763 65.09763 139.82773
#
# Poissons Ratio (x) = 0.37342 0.41065
# Poissons Ratio (y) = 0.37342 0.41065
# Poissons Ratio (z) = 0.19118 0.19118
#
# Static dielectric constant tensor:
#      x y z
#    x 1.765080 0.000000 0.000000 
#    y 0.000000 1.765080 0.000000 
#    z 0.000000 0.000000 1.888230 
# 
# From -- ./inp_files/2644.got.cif
#   From: 2010.05.17/outbox.cif.g08.bks.cpg/sg181_2_cif.got.tgz:2644.got - 2010.05.20 11:51:17.
