data_PCOD9584146
_publ_section_title
;
Structure prediction by ZEFSAII (Michael W. Deem and Ramdas Pophale) SiO2 
 PCOD9584146
Probable space group: P 62 2 2
;
_chemical_formula_sum "Si O2"
_cell_formula_units_Z 72
_cell_length_a 12.465900
_cell_length_b 12.465900
_cell_length_c 25.800158
_cell_angle_alpha 90.000000
_cell_angle_beta 90.000000
_cell_angle_gamma 120.000000
_cell_volume 3472.164358
_symmetry_space_group_name_H-M "P 62 2 2"
_symmetry_group_IT_number 180
_symmetry_cell_setting 'hexagonal'
loop_
_space_group_symop_operation_xyz
x,y,z
x-y,x,1/3+z
-y,x-y,2/3+z
-x,-y,z
-x+y,-x,1/3+z
y,-x+y,2/3+z
x-y,-y,-z
-x,-x+y,1/3-z
y,x,2/3-z
-y,-x,2/3-z
-x+y,y,-z
x,x-y,1/3-z
loop_
_atom_site_type_symbol
_atom_site_label
_atom_site_fract_x
_atom_site_fract_y
_atom_site_fract_z
Si Si1 0.538455 0.225619 0.840349
Si Si2 0.744489 0.016090 0.338207
Si Si3 0.713836 0.356918 0.666667
Si Si4 0.406261 0.050620 0.443402
Si Si5 0.132213 0.506827 0.935486
Si Si6 0.126129 0.383700 0.645465
Si Si7 0.000000 0.500000 0.572654
O O1 0.686206 0.313795 0.833334
O O2 0.495043 0.302051 0.875320
O O3 0.480846 0.187140 0.782918
O O4 0.497508 0.100359 0.869388
O O5 0.893053 0.106948 0.333334
O O6 0.689077 0.095601 0.313351
O O7 0.690192 0.978923 0.396720
O O8 0.679186 0.888863 0.304665
O O9 0.630997 0.381408 0.625554
O O10 0.802658 0.499013 0.684430
O O11 0.500000 0.000000 0.429672
O O12 0.346608 0.000000 0.500000
O O13 0.000000 0.500000 0.923836
O O14 0.074802 0.443993 0.603636
O O15 0.000000 0.272406 0.666667
#
# Coordination Sequence:
#
# PCOD9584146 Si02
#       7
#    12  12   6  12  12  12   6
#     4  12  26  43  69 102 149 186 234 301 373 436
#     4  12  27  44  69 104 150 190 245 300 359 442
#     4  12  23  40  74 102 147 176 244 306 366 422
#     4  11  24  42  67 102 140 185 239 302 371 432
#     4  12  25  42  68 111 150 186 236 305 383 439
#     4  12  25  43  71 103 137 193 244 295 353 431
#     4  12  25  44  68 104 142 190 243 294 366 436
#
# _framework density 20.736345
#
# number of rings (size 3 to 8) (size 9 to 14) (size 15 to 20)
#    0.000    0.167    6.667    3.500    2.333    0.333 
#    0.000    0.000    0.000    0.000    0.000    1.167 
#    0.000    0.000    0.000    0.000    0.000    0.000 
#
# Total GULP energy -401369.088145 kJ/mol
# GULP energy per Si atom -5574.570669 kJ/mol
# Density = 2.068915 g / cm^3
# Si number density = 20.736345 Si / 1000 Ang^3
#
#
#
# Elastic Constant Matrix: (Units=GPa)
#
#
# Indices 1 2 3 4 5 6 
#
# 1 112.8632 46.0148 24.8794 0.0000 0.0000 0.0000
# 2 46.0148 112.8632 24.8794 0.0000 0.0000 0.0000
# 3 24.8794 24.8794 105.6297 0.0000 0.0000 0.0000
# 4 0.0000 0.0000 0.0000 32.6778 0.0000 0.0000
# 5 0.0000 0.0000 0.0000 0.0000 32.6778 0.0000
# 6 0.0000 0.0000 0.0000 0.0000 0.0000 33.4242
#
#
#
# Elastic Compliance Matrix: (Units=1/GPa)
#
#
# Indices 1 2 3 4 5 6 
#
# 1 0.010877 -0.004082 -0.001601 0.000000 0.000000 0.000000
# 2 -0.004082 0.010877 -0.001601 0.000000 0.000000 0.000000
# 3 -0.001601 -0.001601 0.010221 0.000000 0.000000 0.000000
# 4 0.000000 0.000000 0.000000 0.030602 0.000000 0.000000
# 5 0.000000 0.000000 0.000000 0.000000 0.030602 0.000000
# 6 0.000000 0.000000 0.000000 0.000000 0.000000 0.029918
#
#
# Mechanical properties :
#
#
# Convention : Reuss Voigt Hill
#
# Bulk Modulus (GPa) = 57.43952 58.10039 57.76995
# Shear Modulus (GPa) = 34.85122 35.46144 35.15633
#
# Velocity S-wave (km/s) = 4.10406 4.13983 4.12199
# Velocity P-wave (km/s) = 7.08645 7.13656 7.11155
#
# Compressibility (1/GPa) = 0.01740962
#
# Stress axis : x y z
#
# Youngs Moduli (GPa) = 91.93442 91.93442 97.83775
#
# Poissons Ratio (x) = 0.37527 0.15659
# Poissons Ratio (y) = 0.37527 0.15659
# Poissons Ratio (z) = 0.14715 0.14715
#
# Static dielectric constant tensor:
#      x y z
#    x 1.781860 0.000000 0.000000 
#    y 0.000000 1.781860 0.000000 
#    z 0.000000 0.000000 1.771440 
# 
# From -- ./inp_files/12377.got.cif
#   From: 2010.05.17/outbox.cif.g08.bks.cpg/sg180_7_cif.got.tgz:12377.got - 2010.05.20 11:43:55.
