data_PCOD9584240
_publ_section_title
;
Structure prediction by ZEFSAII (Michael W. Deem and Ramdas Pophale) SiO2 
 PCOD9584240
Probable space group: P 64 2 2
;
_chemical_formula_sum "Si O2"
_cell_formula_units_Z 66
_cell_length_a 19.360508
_cell_length_b 19.360508
_cell_length_c 9.132157
_cell_angle_alpha 90.000000
_cell_angle_beta 90.000000
_cell_angle_gamma 120.000000
_cell_volume 2964.404734
_symmetry_space_group_name_H-M "P 64 2 2"
_symmetry_group_IT_number 181
_symmetry_cell_setting 'hexagonal'
loop_
_space_group_symop_operation_xyz
x,y,z
x-y,x,2/3+z
-y,x-y,1/3+z
-x,-y,z
-x+y,-x,2/3+z
y,-x+y,1/3+z
x-y,-y,-z
-x,-x+y,2/3-z
y,x,1/3-z
-y,-x,1/3-z
-x+y,y,-z
x,x-y,2/3-z
loop_
_atom_site_type_symbol
_atom_site_label
_atom_site_fract_x
_atom_site_fract_y
_atom_site_fract_z
Si Si1 0.434337 0.907289 0.333951
Si Si2 0.585280 0.924122 0.897720
Si Si3 0.555061 0.777531 0.333334
Si Si4 0.085922 0.823887 0.291362
Si Si5 0.546413 0.207928 0.101879
Si Si6 0.708356 0.800435 0.219731
O O1 0.442888 0.885776 0.500000
O O2 0.359813 0.912002 0.267218
O O3 0.444146 0.848079 0.222965
O O4 0.500000 0.000000 0.315259
O O5 0.667707 0.925990 0.894792
O O6 0.520242 0.849368 0.987933
O O7 0.600152 0.000000 0.000000
O O8 0.495859 0.753813 0.195403
O O9 0.620441 0.749139 0.297890
O O10 0.113070 0.886931 0.166667
O O11 0.153801 0.854189 0.413513
O O12 0.000000 0.805458 0.333334
O O13 0.626153 0.252306 0.000000
O O14 0.752019 0.752019 0.166667
O O15 0.751929 0.875965 0.333334
#
# Coordination Sequence:
#
# PCOD9584240 Si02
#       6
#    12  12   6  12  12  12
#     4  10  20  33  54  94 133 172 213 265 334 411
#     4  10  18  35  58  89 131 179 216 267 346 426
#     4  10  22  40  64 106 139 176 246 290 369 440
#     4  11  23  38  62  95 133 183 233 289 363 442
#     4  10  20  37  64  91 137 180 218 282 346 424
#     4  10  21  40  64  93 146 188 238 311 379 443
#
# _framework density 22.264167
#
# number of rings (size 3 to 8) (size 9 to 14) (size 15 to 20)
#    0.545    1.273    3.636    1.091    0.000    1.455 
#    3.273    0.000    0.000    5.455    2.364    0.000 
#    2.727    0.000    0.000    0.000    0.000    0.000 
#
# Total GULP energy -367482.801571 kJ/mol
# GULP energy per Si atom -5567.921236 kJ/mol
# Density = 2.221349 g / cm^3
# Si number density = 22.264167 Si / 1000 Ang^3
#
#
#
# Elastic Constant Matrix: (Units=GPa)
#
#
# Indices 1 2 3 4 5 6 
#
# 1 38.9717 52.8173 40.7197 0.0000 0.0000 0.0000
# 2 52.8173 38.9717 40.7197 0.0000 0.0000 0.0000
# 3 40.7197 40.7197 138.7991 0.0000 0.0000 0.0000
# 4 0.0000 0.0000 0.0000 8.2282 0.0000 0.0000
# 5 0.0000 0.0000 0.0000 0.0000 8.2282 0.0000
# 6 0.0000 0.0000 0.0000 0.0000 0.0000 -6.9228
#
#
#
# Elastic Compliance Matrix: (Units=1/GPa)
#
#
# Indices 1 2 3 4 5 6 
#
# 1 -0.028748 0.043476 -0.004321 0.000000 0.000000 0.000000
# 2 0.043476 -0.028748 -0.004321 0.000000 0.000000 0.000000
# 3 -0.004321 -0.004321 0.009740 0.000000 0.000000 0.000000
# 4 0.000000 0.000000 0.000000 0.121534 0.000000 0.000000
# 5 0.000000 0.000000 0.000000 0.000000 0.121534 0.000000
# 6 0.000000 0.000000 0.000000 0.000000 0.000000 -0.144449
#
#
# Mechanical properties :
#
#
# Convention : Reuss Voigt Hill
#
# Bulk Modulus (GPa) = 45.63515 53.91731 49.77623
# Shear Modulus (GPa) = -434.65605 7.40575 -213.62515
#
# Velocity S-wave (km/s) = -13.98751 1.82580 -9.80604
# Velocity P-wave (km/s) = 15.50244 5.35858 10.28619
#
# Compressibility (1/GPa) = 0.02191293
#
# Stress axis : x y z
#
# Youngs Moduli (GPa) = -34.78474 -34.78474 102.67085
#
# Poissons Ratio (x) = 1.51232 0.44362
# Poissons Ratio (y) = 1.51232 0.44362
# Poissons Ratio (z) = -0.15030 -0.15030
#
# Static dielectric constant tensor:
#      x y z
#    x 1.838300 0.000000 0.000000 
#    y 0.000000 1.838300 0.000000 
#    z 0.000000 0.000000 1.924660 
# 
# From -- ./inp_files/3191.got.cif
#   From: 2010.05.17/outbox.cif.g08.bks.cpg/sg181_2_cif.got.tgz:3191.got - 2010.05.20 11:51:17.
