data_PCOD9584347
_publ_section_title
;
Structure prediction by ZEFSAII (Michael W. Deem and Ramdas Pophale) SiO2 
 PCOD9584347
Probable space group: P 64 2 2
;
_chemical_formula_sum "Si O2"
_cell_formula_units_Z 42
_cell_length_a 8.984198
_cell_length_b 8.984198
_cell_length_c 27.287877
_cell_angle_alpha 90.000000
_cell_angle_beta 90.000000
_cell_angle_gamma 120.000000
_cell_volume 1907.475681
_symmetry_space_group_name_H-M "P 64 2 2"
_symmetry_group_IT_number 181
_symmetry_cell_setting 'hexagonal'
loop_
_space_group_symop_operation_xyz
x,y,z
x-y,x,2/3+z
-y,x-y,1/3+z
-x,-y,z
-x+y,-x,2/3+z
y,-x+y,1/3+z
x-y,-y,-z
-x,-x+y,2/3-z
y,x,1/3-z
-y,-x,1/3-z
-x+y,y,-z
x,x-y,2/3-z
loop_
_atom_site_type_symbol
_atom_site_label
_atom_site_fract_x
_atom_site_fract_y
_atom_site_fract_z
Si Si1 0.747100 0.747100 0.166667
Si Si2 0.478131 0.826781 0.414348
Si Si3 0.912869 0.316405 0.436718
Si Si4 0.298191 0.149096 0.333334
Si Si5 0.758755 0.758755 0.666667
O O1 0.699819 0.590345 0.129999
O O2 0.744423 0.894924 0.133044
O O3 0.278977 0.720059 0.425539
O O4 0.575094 0.763477 0.378954
O O5 0.500000 0.000000 0.389498
O O6 0.004866 0.332272 0.384546
O O7 0.000000 0.500000 0.463513
O O8 0.168091 0.221790 0.327761
#
# Coordination Sequence:
#
# PCOD9584347 Si02
#       5
#     6  12  12   6   6
#     4  10  21  48  71  94 137 194 229 294 369 430
#     4  10  20  40  66  91 129 182 230 278 345 420
#     4  11  23  41  71  99 137 176 243 299 348 426
#     4  11  22  38  63  96 136 188 215 278 362 427
#     4  11  23  40  60 102 139 177 222 294 354 417
#
# _framework density 22.018626999999999
#
# number of rings (size 3 to 8) (size 9 to 14) (size 15 to 20)
#    0.000    1.429    5.714    4.286    4.000    0.000 
#    0.000   10.000    0.000    0.000    0.000    0.000 
#    0.000    0.000    0.000    0.000    0.000    0.000 
#
# Total GULP energy -234117.907256 kJ/mol
# GULP energy per Si atom -5574.235887 kJ/mol
# Density = 2.196851 g / cm^3
# Si number density = 22.018627 Si / 1000 Ang^3
#
#
#
# Elastic Constant Matrix: (Units=GPa)
#
#
# Indices 1 2 3 4 5 6 
#
# 1 72.5668 13.8382 6.7023 0.0000 0.0000 0.0000
# 2 13.8382 72.5668 6.7023 0.0000 0.0000 0.0000
# 3 6.7023 6.7023 103.7587 0.0000 0.0000 0.0000
# 4 0.0000 0.0000 0.0000 31.3490 0.0000 0.0000
# 5 0.0000 0.0000 0.0000 0.0000 31.3490 0.0000
# 6 0.0000 0.0000 0.0000 0.0000 0.0000 29.3643
#
#
#
# Elastic Compliance Matrix: (Units=1/GPa)
#
#
# Indices 1 2 3 4 5 6 
#
# 1 0.014359 -0.002668 -0.000755 0.000000 0.000000 0.000000
# 2 -0.002668 0.014359 -0.000755 0.000000 0.000000 0.000000
# 3 -0.000755 -0.000755 0.009735 0.000000 0.000000 0.000000
# 4 0.000000 0.000000 0.000000 0.031899 0.000000 0.000000
# 5 0.000000 0.000000 0.000000 0.000000 0.031899 0.000000
# 6 0.000000 0.000000 0.000000 0.000000 0.000000 0.034055
#
#
# Mechanical properties :
#
#
# Convention : Reuss Voigt Hill
#
# Bulk Modulus (GPa) = 33.22721 33.70865 33.46793
# Shear Modulus (GPa) = 32.32155 33.18911 32.75533
#
# Velocity S-wave (km/s) = 3.83550 3.88663 3.86115
# Velocity P-wave (km/s) = 5.89390 5.95681 5.92544
#
# Compressibility (1/GPa) = 0.03009581
#
# Stress axis : x y z
#
# Youngs Moduli (GPa) = 69.64266 69.64266 102.71889
#
# Poissons Ratio (x) = 0.18584 0.07757
# Poissons Ratio (y) = 0.18584 0.07757
# Poissons Ratio (z) = 0.05259 0.05259
#
# Static dielectric constant tensor:
#      x y z
#    x 1.863610 0.000000 0.000000 
#    y 0.000000 1.863610 0.000000 
#    z 0.000000 0.000000 1.917760 
# 
# From -- ./inp_files/12015.got.cif
#   From: 2010.05.17/outbox.cif.g08.bks.cpg/sg181_7_cif.got.tgz:12015.got - 2010.05.20 11:51:17.
