data_PCOD9584643
_publ_section_title
;
Structure prediction by ZEFSAII (Michael W. Deem and Ramdas Pophale) SiO2 
 PCOD9584643
Probable space group: P 63 2 2
;
_chemical_formula_sum "Si O2"
_cell_formula_units_Z 54
_cell_length_a 21.055988
_cell_length_b 21.055988
_cell_length_c 8.961511
_cell_angle_alpha 90.000000
_cell_angle_beta 90.000000
_cell_angle_gamma 120.000000
_cell_volume 3440.829260
_symmetry_space_group_name_H-M "P 63 2 2"
_symmetry_group_IT_number 182
_symmetry_cell_setting 'hexagonal'
loop_
_space_group_symop_operation_xyz
x,y,z
x-y,x,1/2+z
-y,x-y,z
-x,-y,1/2+z
-x+y,-x,z
y,-x+y,1/2+z
x-y,-y,-z
-x,-x+y,-z
y,x,-z
-y,-x,1/2-z
-x+y,y,1/2-z
x,x-y,1/2-z
loop_
_atom_site_type_symbol
_atom_site_label
_atom_site_fract_x
_atom_site_fract_y
_atom_site_fract_z
Si Si1 0.893830 0.417852 0.910776
Si Si2 0.000000 0.641139 0.500000
Si Si3 0.262903 0.495600 0.422885
Si Si4 0.866292 0.613649 0.337858
Si Si5 0.638054 0.166539 0.138666
O O1 0.905818 0.452909 0.750000
O O2 0.944074 0.381014 0.925494
O O3 0.810721 0.350710 0.925950
O O4 0.899596 0.471785 0.044601
O O5 0.049186 0.706834 0.613282
O O6 0.242013 0.484026 0.250000
O O7 0.239875 0.420650 0.511748
O O8 0.224456 0.531550 0.518023
O O9 0.824132 0.648263 0.250000
O O10 0.855996 0.543611 0.239435
O O11 0.597170 0.194340 0.250000
#
# Coordination Sequence:
#
# PCOD9584643 Si02
#       5
#    12   6  12  12  12
#     4  11  22  33  47  68  91 115 161 212 252 321
#     4  10  20  32  54  70  92 120 158 198 272 310
#     4  10  19  33  46  59  88 121 150 196 262 310
#     4   9  20  35  51  68  92 122 154 202 263 328
#     4  11  19  33  46  63  90 119 158 202 258 319
#
# _framework density 15.693891000000001
#
# number of rings (size 3 to 8) (size 9 to 14) (size 15 to 20)
#    0.000    1.778    6.667    0.000    3.111    0.000 
#    1.333    4.444    0.000    0.000    0.000    0.000 
#    0.000    0.000    0.000    0.000    0.000    0.000 
#
# Total GULP energy -300641.760382 kJ/mol
# GULP energy per Si atom -5567.440007 kJ/mol
# Density = 1.565817 g / cm^3
# Si number density = 15.693891 Si / 1000 Ang^3
#
#
#
# Elastic Constant Matrix: (Units=GPa)
#
#
# Indices 1 2 3 4 5 6 
#
# 1 59.7606 26.0349 28.1144 0.0000 0.0000 0.0000
# 2 26.0349 59.7606 28.1144 0.0000 0.0000 0.0000
# 3 28.1144 28.1144 116.9957 0.0000 0.0000 0.0000
# 4 0.0000 0.0000 0.0000 18.6107 0.0000 0.0000
# 5 0.0000 0.0000 0.0000 0.0000 18.6107 0.0000
# 6 0.0000 0.0000 0.0000 0.0000 0.0000 16.8628
#
#
#
# Elastic Compliance Matrix: (Units=1/GPa)
#
#
# Indices 1 2 3 4 5 6 
#
# 1 0.021743 -0.007908 -0.003324 0.000000 0.000000 0.000000
# 2 -0.007908 0.021743 -0.003324 0.000000 0.000000 0.000000
# 3 -0.003324 -0.003324 0.010145 0.000000 0.000000 0.000000
# 4 0.000000 0.000000 0.000000 0.053732 0.000000 0.000000
# 5 0.000000 0.000000 0.000000 0.000000 0.053732 0.000000
# 6 0.000000 0.000000 0.000000 0.000000 0.000000 0.059302
#
#
# Mechanical properties :
#
#
# Convention : Reuss Voigt Hill
#
# Bulk Modulus (GPa) = 40.78954 44.56048 42.67501
# Shear Modulus (GPa) = 19.40363 21.10041 20.25202
#
# Velocity S-wave (km/s) = 3.52004 3.67072 3.59617
# Velocity P-wave (km/s) = 6.52442 6.81328 6.67041
#
# Compressibility (1/GPa) = 0.02451609
#
# Stress axis : x y z
#
# Youngs Moduli (GPa) = 45.99246 45.99246 98.57010
#
# Poissons Ratio (x) = 0.36372 0.32769
# Poissons Ratio (y) = 0.36372 0.32769
# Poissons Ratio (z) = 0.15290 0.15290
#
# Static dielectric constant tensor:
#      x y z
#    x 1.558960 0.000000 0.000000 
#    y 0.000000 1.558960 0.000000 
#    z 0.000000 0.000000 1.578750 
# 
# From -- ./inp_files/1722.got.cif
#   From: 2010.05.17/outbox.cif.g08.bks.cpg/sg182_1_cif.got.tgz:1722.got - 2010.05.20 11:58:53.
