data_PCOD9584354
_publ_section_title
;
Structure prediction by ZEFSAII (Michael W. Deem and Ramdas Pophale) SiO2 
 PCOD9584354
Probable space group: P 64 2 2
;
_chemical_formula_sum "Si O2"
_cell_formula_units_Z 48
_cell_length_a 18.404514
_cell_length_b 18.404514
_cell_length_c 7.591764
_cell_angle_alpha 90.000000
_cell_angle_beta 90.000000
_cell_angle_gamma 120.000000
_cell_volume 2227.009338
_symmetry_space_group_name_H-M "P 64 2 2"
_symmetry_group_IT_number 181
_symmetry_cell_setting 'hexagonal'
loop_
_space_group_symop_operation_xyz
x,y,z
x-y,x,2/3+z
-y,x-y,1/3+z
-x,-y,z
-x+y,-x,2/3+z
y,-x+y,1/3+z
x-y,-y,-z
-x,-x+y,2/3-z
y,x,1/3-z
-y,-x,1/3-z
-x+y,y,-z
x,x-y,2/3-z
loop_
_atom_site_type_symbol
_atom_site_label
_atom_site_fract_x
_atom_site_fract_y
_atom_site_fract_z
Si Si1 0.925209 0.653499 0.698163
Si Si2 0.834308 0.496362 0.219950
Si Si3 0.191597 0.808404 0.666667
Si Si4 0.000000 0.658467 0.333334
Si Si5 0.652598 0.191213 0.342241
O O1 0.965707 0.688027 0.503388
O O2 0.887603 0.554065 0.683259
O O3 0.000000 0.693557 0.833334
O O4 0.853422 0.661782 0.814398
O O5 0.839704 0.552254 0.048115
O O6 0.921774 0.565704 0.300060
O O7 0.747621 0.478504 0.312967
O O8 0.823119 0.408925 0.154198
O O9 0.601554 0.203108 0.500000
#
# Coordination Sequence:
#
# PCOD9584354 Si02
#       5
#    12  12   6   6  12
#     4  11  23  42  66  91 131 169 225 289 357 418
#     4  11  23  43  65  95 125 172 233 291 367 420
#     4  10  20  44  66  92 126 177 224 287 356 420
#     4  12  26  45  66 100 128 178 226 297 370 443
#     4  11  21  42  65  89 130 175 229 294 360 428
#
# _framework density 21.553567999999999
#
# number of rings (size 3 to 8) (size 9 to 14) (size 15 to 20)
#    0.000    1.000    7.500    0.000    0.000    9.500 
#   13.500    0.000    0.000    0.000    0.000    0.000 
#    0.000    0.000    0.000    0.000    0.000   70.000 
#
# Total GULP energy -267216.075083 kJ/mol
# GULP energy per Si atom -5567.001564 kJ/mol
# Density = 2.150451 g / cm^3
# Si number density = 21.553568 Si / 1000 Ang^3
#
#
#
# Elastic Constant Matrix: (Units=GPa)
#
#
# Indices 1 2 3 4 5 6 
#
# 1 40.2219 19.0633 34.0545 0.0000 0.0000 0.0000
# 2 19.0633 40.2219 34.0545 0.0000 0.0000 0.0000
# 3 34.0545 34.0545 175.8817 0.0000 0.0000 0.0000
# 4 0.0000 0.0000 0.0000 42.6924 0.0000 0.0000
# 5 0.0000 0.0000 0.0000 0.0000 42.6924 0.0000
# 6 0.0000 0.0000 0.0000 0.0000 0.0000 10.5793
#
#
#
# Elastic Compliance Matrix: (Units=1/GPa)
#
#
# Indices 1 2 3 4 5 6 
#
# 1 0.034478 -0.012785 -0.004200 0.000000 0.000000 0.000000
# 2 -0.012785 0.034478 -0.004200 0.000000 0.000000 0.000000
# 3 -0.004200 -0.004200 0.007312 0.000000 0.000000 0.000000
# 4 0.000000 0.000000 0.000000 0.023423 0.000000 0.000000
# 5 0.000000 0.000000 0.000000 0.000000 0.023423 0.000000
# 6 0.000000 0.000000 0.000000 0.000000 0.000000 0.094524
#
#
# Mechanical properties :
#
#
# Convention : Reuss Voigt Hill
#
# Bulk Modulus (GPa) = 29.50098 47.85224 38.67661
# Shear Modulus (GPa) = 18.42927 30.46971 24.44949
#
# Velocity S-wave (km/s) = 2.92729 3.76396 3.37168
# Velocity P-wave (km/s) = 5.01421 6.41402 5.75682
#
# Compressibility (1/GPa) = 0.03389718
#
# Stress axis : x y z
#
# Youngs Moduli (GPa) = 29.00436 29.00436 136.75875
#
# Poissons Ratio (x) = 0.37081 0.57442
# Poissons Ratio (y) = 0.37081 0.57442
# Poissons Ratio (z) = 0.12182 0.12182
#
# Static dielectric constant tensor:
#      x y z
#    x 1.800380 0.000000 0.000000 
#    y 0.000000 1.800380 0.000000 
#    z 0.000000 0.000000 2.096480 
# 
# From -- ./inp_files/2704.got.cif
#   From: 2010.05.17/outbox.cif.g08.bks.cpg/sg181_2_cif.got.tgz:2704.got - 2010.05.20 11:51:17.
