data_PCOD9584331
_publ_section_title
;
Structure prediction by ZEFSAII (Michael W. Deem and Ramdas Pophale) SiO2 
 PCOD9584331
Probable space group: P 64 2 2
;
_chemical_formula_sum "Si O2"
_cell_formula_units_Z 72
_cell_length_a 11.730922
_cell_length_b 11.730922
_cell_length_c 27.680565
_cell_angle_alpha 90.000000
_cell_angle_beta 90.000000
_cell_angle_gamma 120.000000
_cell_volume 3298.905511
_symmetry_space_group_name_H-M "P 64 2 2"
_symmetry_group_IT_number 181
_symmetry_cell_setting 'hexagonal'
loop_
_space_group_symop_operation_xyz
x,y,z
x-y,x,2/3+z
-y,x-y,1/3+z
-x,-y,z
-x+y,-x,2/3+z
y,-x+y,1/3+z
x-y,-y,-z
-x,-x+y,2/3-z
y,x,1/3-z
-y,-x,1/3-z
-x+y,y,-z
x,x-y,2/3-z
loop_
_atom_site_type_symbol
_atom_site_label
_atom_site_fract_x
_atom_site_fract_y
_atom_site_fract_z
Si Si1 0.433927 0.842347 0.609575
Si Si2 0.210192 0.273372 0.617440
Si Si3 0.677174 0.243012 0.795679
Si Si4 0.000000 0.178223 0.833334
Si Si5 0.486416 0.357400 0.948969
Si Si6 0.000000 0.000000 0.245263
Si Si7 0.144009 0.401816 0.213894
O O1 0.294680 0.782630 0.581273
O O2 0.438190 0.818656 0.666655
O O3 0.509644 0.772744 0.584531
O O4 0.500000 0.000000 0.603598
O O5 0.287196 0.287196 0.666667
O O6 0.129223 0.350311 0.620784
O O7 0.108347 0.119493 0.608957
O O8 0.316288 0.310042 0.574635
O O9 0.723985 0.361993 0.833334
O O10 0.549698 0.213676 0.765761
O O11 0.658891 0.131103 0.832640
O O12 0.885070 0.191165 0.857480
O O13 0.054683 0.124125 0.875705
O O14 0.500000 0.500000 0.940556
#
# Coordination Sequence:
#
# PCOD9584331 Si02
#       7
#    12  12  12   6  12   6  12
#     4  10  20  40  65  95 130 171 225 290 343 422
#     4  11  22  43  66  96 140 179 237 287 358 435
#     4  10  23  41  63  93 129 171 234 279 345 413
#     4   9  18  34  57  96 132 168 219 272 349 408
#     4  11  25  42  64  96 136 182 227 284 355 430
#     4   9  21  36  60  98 135 175 218 288 348 416
#     4  10  20  37  66  94 129 178 226 284 356 412
#
# _framework density 21.825420999999999
#
# number of rings (size 3 to 8) (size 9 to 14) (size 15 to 20)
#    0.000    1.833    1.667    1.750    2.333    3.667 
#    3.000    4.167    0.000    0.000    0.000    0.000 
#    0.000    0.000    0.000    0.000    0.000    0.000 
#
# Total GULP energy -400980.697429 kJ/mol
# GULP energy per Si atom -5569.176353 kJ/mol
# Density = 2.177574 g / cm^3
# Si number density = 21.825421 Si / 1000 Ang^3
#
#
#
# Elastic Constant Matrix: (Units=GPa)
#
#
# Indices 1 2 3 4 5 6 
#
# 1 58.2717 16.4138 23.4091 0.0000 0.0000 0.0000
# 2 16.4138 58.2717 23.4091 0.0000 0.0000 0.0000
# 3 23.4091 23.4091 140.2906 0.0000 0.0000 0.0000
# 4 0.0000 0.0000 0.0000 16.9359 0.0000 0.0000
# 5 0.0000 0.0000 0.0000 0.0000 16.9359 0.0000
# 6 0.0000 0.0000 0.0000 0.0000 0.0000 20.9290
#
#
#
# Elastic Compliance Matrix: (Units=1/GPa)
#
#
# Indices 1 2 3 4 5 6 
#
# 1 0.019422 -0.004468 -0.002495 0.000000 0.000000 0.000000
# 2 -0.004468 0.019422 -0.002495 0.000000 0.000000 0.000000
# 3 -0.002495 -0.002495 0.007961 0.000000 0.000000 0.000000
# 4 0.000000 0.000000 0.000000 0.059046 0.000000 0.000000
# 5 0.000000 0.000000 0.000000 0.000000 0.059046 0.000000
# 6 0.000000 0.000000 0.000000 0.000000 0.000000 0.047781
#
#
# Mechanical properties :
#
#
# Convention : Reuss Voigt Hill
#
# Bulk Modulus (GPa) = 35.85863 42.58868 39.22366
# Shear Modulus (GPa) = 20.75629 23.86696 22.31163
#
# Velocity S-wave (km/s) = 3.08720 3.31046 3.20078
# Velocity P-wave (km/s) = 5.40122 5.84533 5.62766
#
# Compressibility (1/GPa) = 0.02788729
#
# Stress axis : x y z
#
# Youngs Moduli (GPa) = 51.48805 51.48805 125.61605
#
# Poissons Ratio (x) = 0.23007 0.31344
# Poissons Ratio (y) = 0.23007 0.31344
# Poissons Ratio (z) = 0.12847 0.12847
#
# Static dielectric constant tensor:
#      x y z
#    x 1.870140 0.000000 0.000000 
#    y 0.000000 1.870140 0.000000 
#    z 0.000000 0.000000 1.830640 
# 
# From -- ./inp_files/12387.got.cif
#   From: 2010.05.17/outbox.cif.g08.bks.cpg/sg181_7_cif.got.tgz:12387.got - 2010.05.20 11:51:17.
