data_PCOD9584953
_publ_section_title
;
Structure prediction by ZEFSAII (Michael W. Deem and Ramdas Pophale) SiO2 
 PCOD9584953
Probable space group: P 6 M M
;
_chemical_formula_sum "Si O2"
_cell_formula_units_Z 84
_cell_length_a 22.905028
_cell_length_b 22.905028
_cell_length_c 12.814048
_cell_angle_alpha 90.000000
_cell_angle_beta 90.000000
_cell_angle_gamma 120.000000
_cell_volume 5822.086214
_symmetry_space_group_name_H-M "P 6 M M"
_symmetry_group_IT_number 183
_symmetry_cell_setting 'hexagonal'
loop_
_space_group_symop_operation_xyz
x,y,z
x-y,x,z
-y,x-y,z
-x,-y,z
-x+y,-x,z
y,-x+y,z
-x+y,y,z
x,x-y,z
-y,-x,z
y,x,z
x-y,-y,z
-x,-x+y,z
loop_
_atom_site_type_symbol
_atom_site_label
_atom_site_fract_x
_atom_site_fract_y
_atom_site_fract_z
Si Si1 0.714893 0.791704 0.633320
Si Si2 0.920442 0.530190 0.757601
Si Si3 0.804092 0.333323 0.137677
Si Si4 0.435474 0.286004 0.942807
Si Si5 0.713997 0.149473 0.572397
Si Si6 0.470768 0.666678 0.377524
Si Si7 0.791704 0.076810 0.881881
O O1 0.739591 0.869796 0.614495
O O2 0.767881 0.767881 0.609384
O O3 0.645219 0.747874 0.572264
O O4 0.698169 0.779241 0.757601
O O5 0.917034 0.458517 0.757602
O O6 0.882402 0.537607 0.857583
O O7 0.882402 0.537606 0.657618
O O8 0.000000 0.587019 0.757601
O O9 0.809742 0.404871 0.115473
O O10 0.726169 0.273832 0.130760
O O11 0.825658 0.333829 0.257601
O O12 0.843670 0.314982 0.053054
O O13 0.448704 0.224352 0.913506
O O14 0.354779 0.252127 0.942939
O O15 0.775646 0.224354 0.601704
O O16 0.685021 0.156334 0.462149
O O17 0.452334 0.726167 0.384439
O O18 0.404872 0.595129 0.399729
O O19 0.869796 0.130205 0.900706
O O20 0.767884 0.000000 0.905815
#
# Coordination Sequence:
#
# PCOD9584953 Si02
#       7
#    12  12  12  12  12  12  12
#     4   9  16  27  45  67  89 112 139 172 209 252
#     4  11  21  30  42  60  84 115 147 179 218 264
#     4   9  17  29  45  63  84 113 150 191 233 275
#     4  10  18  29  45  64  86 111 144 185 224 261
#     4  10  18  29  45  64  86 111 144 185 224 261
#     4   9  17  29  45  63  84 113 150 191 233 275
#     4   9  16  27  45  67  89 112 139 172 209 252
#
# _framework density 14.427819
#
# number of rings (size 3 to 8) (size 9 to 14) (size 15 to 20)
#    0.000    2.429    1.429    2.429    0.000    1.143 
#    0.000    0.000    0.000    7.714    0.000   12.000 
#    0.000    0.000    0.000    0.000    0.000    0.000 
#
# Total GULP energy -467959.582655 kJ/mol
# GULP energy per Si atom -5570.947413 kJ/mol
# Density = 1.439498 g / cm^3
# Si number density = 14.427819 Si / 1000 Ang^3
#
#
#
# Elastic Constant Matrix: (Units=GPa)
#
#
# Indices 1 2 3 4 5 6 
#
# 1 99.4923 67.2284 58.7416 0.0000 0.0000 0.0000
# 2 67.2284 99.4923 58.7416 0.0000 0.0000 0.0000
# 3 58.7416 58.7416 78.8546 0.0000 0.0000 0.0000
# 4 0.0000 0.0000 0.0000 15.3076 0.0000 0.0000
# 5 0.0000 0.0000 0.0000 0.0000 15.3076 0.0000
# 6 0.0000 0.0000 0.0000 0.0000 0.0000 16.1319
#
#
#
# Elastic Compliance Matrix: (Units=1/GPa)
#
#
# Indices 1 2 3 4 5 6 
#
# 1 0.021810 -0.009184 -0.009405 0.000000 0.000000 0.000000
# 2 -0.009184 0.021810 -0.009405 0.000000 0.000000 0.000000
# 3 -0.009405 -0.009405 0.026694 0.000000 0.000000 0.000000
# 4 0.000000 0.000000 0.000000 0.065327 0.000000 0.000000
# 5 0.000000 0.000000 0.000000 0.000000 0.065327 0.000000
# 6 0.000000 0.000000 0.000000 0.000000 0.000000 0.061989
#
#
# Mechanical properties :
#
#
# Convention : Reuss Voigt Hill
#
# Bulk Modulus (GPa) = 69.81106 71.91803 70.86455
# Shear Modulus (GPa) = 15.44536 15.55795 15.50165
#
# Velocity S-wave (km/s) = 3.27544 3.28736 3.28140
# Velocity P-wave (km/s) = 7.92440 8.02271 7.97371
#
# Compressibility (1/GPa) = 0.01432438
#
# Stress axis : x y z
#
# Youngs Moduli (GPa) = 45.85036 45.85036 37.46114
#
# Poissons Ratio (x) = 0.42111 0.35234
# Poissons Ratio (y) = 0.42111 0.35234
# Poissons Ratio (z) = 0.43124 0.43124
#
# Static dielectric constant tensor:
#      x y z
#    x 1.471970 0.000000 0.000000 
#    y 0.000000 1.471970 0.000000 
#    z 0.000000 0.000000 1.466110 
# 
# From -- ./inp_files/1762.got.cif
#   From: 2010.05.17/outbox.cif.g08.bks.cpg/sg183_1_cif.got.tgz:1762.got - 2010.05.20 12:02:58.
