data_PCOD9584579
_publ_section_title
;
Structure prediction by ZEFSAII (Michael W. Deem and Ramdas Pophale) SiO2 
 PCOD9584579
Probable space group: P 64 2 2
;
_chemical_formula_sum "Si O2"
_cell_formula_units_Z 48
_cell_length_a 10.794820
_cell_length_b 10.794820
_cell_length_c 21.529835
_cell_angle_alpha 90.000000
_cell_angle_beta 90.000000
_cell_angle_gamma 120.000000
_cell_volume 2172.711901
_symmetry_space_group_name_H-M "P 64 2 2"
_symmetry_group_IT_number 181
_symmetry_cell_setting 'hexagonal'
loop_
_space_group_symop_operation_xyz
x,y,z
x-y,x,2/3+z
-y,x-y,1/3+z
-x,-y,z
-x+y,-x,2/3+z
y,-x+y,1/3+z
x-y,-y,-z
-x,-x+y,2/3-z
y,x,1/3-z
-y,-x,1/3-z
-x+y,y,-z
x,x-y,2/3-z
loop_
_atom_site_type_symbol
_atom_site_label
_atom_site_fract_x
_atom_site_fract_y
_atom_site_fract_z
Si Si1 0.267251 0.498755 0.123650
Si Si2 0.500000 0.000000 0.855750
Si Si3 0.663301 0.326601 0.000000
Si Si4 0.216284 0.108142 0.833334
Si Si5 0.880982 0.645954 0.383151
Si Si6 0.000000 0.793513 0.833334
O O1 0.401772 0.598228 0.166667
O O2 0.131102 0.506993 0.150774
O O3 0.245418 0.340387 0.122904
O O4 0.304460 0.573543 0.058277
O O5 0.581733 0.948566 0.901829
O O6 0.492953 0.230230 0.988827
O O7 0.296176 0.109532 0.769111
O O8 0.117900 0.170319 0.807532
O O9 0.000000 0.751742 0.333334
#
# Coordination Sequence:
#
# PCOD9584579 Si02
#       6
#    12   6   6   6  12   6
#     4  12  25  48  74 108 159 201 250 327 390 453
#     4  12  21  44  78 106 149 200 240 314 400 468
#     4  12  25  42  76 123 142 188 262 318 398 457
#     4  11  26  50  76 100 150 213 256 309 392 470
#     4  12  21  44  78 111 149 191 257 325 385 476
#     4  11  27  50  68 102 149 213 256 302 386 463
#
# _framework density 22.092209
#
# number of rings (size 3 to 8) (size 9 to 14) (size 15 to 20)
#    0.000    0.250    7.500    1.875    0.000    0.000 
#    9.000    1.250    0.000    0.000    0.000    0.000 
#    0.000    0.000    0.000    0.000    0.000    0.000 
#
# Total GULP energy -267915.381511 kJ/mol
# GULP energy per Si atom -5581.570448 kJ/mol
# Density = 2.204193 g / cm^3
# Si number density = 22.092209 Si / 1000 Ang^3
#
#
#
# Elastic Constant Matrix: (Units=GPa)
#
#
# Indices 1 2 3 4 5 6 
#
# 1 97.1866 32.3752 36.1639 0.0000 0.0000 0.0000
# 2 32.3752 97.1866 36.1639 0.0000 0.0000 0.0000
# 3 36.1639 36.1639 139.4864 0.0000 0.0000 0.0000
# 4 0.0000 0.0000 0.0000 13.8532 0.0000 0.0000
# 5 0.0000 0.0000 0.0000 0.0000 13.8532 0.0000
# 6 0.0000 0.0000 0.0000 0.0000 0.0000 32.4057
#
#
#
# Elastic Compliance Matrix: (Units=1/GPa)
#
#
# Indices 1 2 3 4 5 6 
#
# 1 0.012227 -0.003202 -0.002340 0.000000 0.000000 0.000000
# 2 -0.003202 0.012227 -0.002340 0.000000 0.000000 0.000000
# 3 -0.002340 -0.002340 0.008382 0.000000 0.000000 0.000000
# 4 0.000000 0.000000 0.000000 0.072186 0.000000 0.000000
# 5 0.000000 0.000000 0.000000 0.000000 0.072186 0.000000
# 6 0.000000 0.000000 0.000000 0.000000 0.000000 0.030859
#
#
# Mechanical properties :
#
#
# Convention : Reuss Voigt Hill
#
# Bulk Modulus (GPa) = 58.57403 60.36286 59.46845
# Shear Modulus (GPa) = 21.78452 27.29952 24.54202
#
# Velocity S-wave (km/s) = 3.14359 3.51908 3.33662
# Velocity P-wave (km/s) = 6.30454 6.62528 6.46690
#
# Compressibility (1/GPa) = 0.01707241
#
# Stress axis : x y z
#
# Youngs Moduli (GPa) = 81.78667 81.78667 119.29786
#
# Poissons Ratio (x) = 0.26192 0.27912
# Poissons Ratio (y) = 0.26192 0.27912
# Poissons Ratio (z) = 0.19136 0.19136
#
# Static dielectric constant tensor:
#      x y z
#    x 2.016260 0.000000 0.000000 
#    y 0.000000 2.016260 0.000000 
#    z 0.000000 0.000000 1.741870 
# 
# From -- ./inp_files/8736.got.cif
#   From: 2010.05.17/outbox.cif.g08.bks.cpg/sg181_5_cif.got.tgz:8736.got - 2010.05.20 11:51:17.
