data_PCOD9584064
_publ_section_title
;
Structure prediction by ZEFSAII (Michael W. Deem and Ramdas Pophale) SiO2 
 PCOD9584064
Probable space group: P 62 2 2
;
_chemical_formula_sum "Si O2"
_cell_formula_units_Z 63
_cell_length_a 20.190802
_cell_length_b 20.190802
_cell_length_c 9.805971
_cell_angle_alpha 90.000000
_cell_angle_beta 90.000000
_cell_angle_gamma 120.000000
_cell_volume 3462.010463
_symmetry_space_group_name_H-M "P 62 2 2"
_symmetry_group_IT_number 180
_symmetry_cell_setting 'hexagonal'
loop_
_space_group_symop_operation_xyz
x,y,z
x-y,x,1/3+z
-y,x-y,2/3+z
-x,-y,z
-x+y,-x,1/3+z
y,-x+y,2/3+z
x-y,-y,-z
-x,-x+y,1/3-z
y,x,2/3-z
-y,-x,2/3-z
-x+y,y,-z
x,x-y,1/3-z
loop_
_atom_site_type_symbol
_atom_site_label
_atom_site_fract_x
_atom_site_fract_y
_atom_site_fract_z
Si Si1 0.431930 0.577336 0.174123
Si Si2 0.433662 0.717171 0.516989
Si Si3 0.784849 0.578048 0.335300
Si Si4 0.071749 0.419308 0.342581
Si Si5 0.500000 0.000000 0.500000
Si Si6 0.056171 0.403731 0.794523
O O1 0.432847 0.567154 0.333334
O O2 0.374421 0.608036 0.145828
O O3 0.393211 0.487922 0.133639
O O4 0.515490 0.633960 0.122427
O O5 0.372146 0.744291 0.500000
O O6 0.472891 0.736446 0.666667
O O7 0.491913 0.743129 0.392262
O O8 0.793313 0.586625 0.500000
O O9 0.871519 0.607456 0.283516
O O10 0.732652 0.609595 0.267105
O O11 0.050746 0.471568 0.247925
O O12 0.999520 0.350872 0.418311
O O13 0.000000 0.392599 0.666667
#
# Coordination Sequence:
#
# PCOD9584064 Si02
#       6
#    12  12  12  12   3  12
#     4  11  20  33  56  73  98 142 193 243 301 373
#     4  11  24  36  49  73 115 149 184 250 326 369
#     4  11  24  39  61  85 106 145 204 257 309 371
#     4  12  23  38  57  82 111 147 204 243 307 374
#     4  12  28  36  62  84 120 164 200 252 304 384
#     4  11  20  37  58  79 106 141 191 255 307 358
#
# _framework density 18.197519
#
# number of rings (size 3 to 8) (size 9 to 14) (size 15 to 20)
#    0.000    0.762    5.714    2.857    4.000    3.048 
#    0.000    0.000    0.000    0.000    0.000    0.000 
#    0.000    0.000    0.000    0.000    0.000    9.524 
#
# Total GULP energy -350896.526830 kJ/mol
# GULP energy per Si atom -5569.786140 kJ/mol
# Density = 1.815610 g / cm^3
# Si number density = 18.197519 Si / 1000 Ang^3
#
#
#
# Elastic Constant Matrix: (Units=GPa)
#
#
# Indices 1 2 3 4 5 6 
#
# 1 85.3319 24.2053 17.0869 0.0000 0.0000 0.0000
# 2 24.2053 85.3319 17.0869 0.0000 0.0000 0.0000
# 3 17.0869 17.0869 44.5485 0.0000 0.0000 0.0000
# 4 0.0000 0.0000 0.0000 13.1111 0.0000 0.0000
# 5 0.0000 0.0000 0.0000 0.0000 13.1111 0.0000
# 6 0.0000 0.0000 0.0000 0.0000 0.0000 30.5633
#
#
#
# Elastic Compliance Matrix: (Units=1/GPa)
#
#
# Indices 1 2 3 4 5 6 
#
# 1 0.013365 -0.002995 -0.003978 0.000000 0.000000 0.000000
# 2 -0.002995 0.013365 -0.003978 0.000000 0.000000 0.000000
# 3 -0.003978 -0.003978 0.025499 0.000000 0.000000 0.000000
# 4 0.000000 0.000000 0.000000 0.076271 0.000000 0.000000
# 5 0.000000 0.000000 0.000000 0.000000 0.076271 0.000000
# 6 0.000000 0.000000 0.000000 0.000000 0.000000 0.032719
#
#
# Mechanical properties :
#
#
# Convention : Reuss Voigt Hill
#
# Bulk Modulus (GPa) = 32.97187 36.88561 34.92874
# Shear Modulus (GPa) = 18.55292 21.81265 20.18279
#
# Velocity S-wave (km/s) = 3.19647 3.46592 3.33392
# Velocity P-wave (km/s) = 5.63751 6.02747 5.83575
#
# Compressibility (1/GPa) = 0.03032888
#
# Stress axis : x y z
#
# Youngs Moduli (GPa) = 74.82305 74.82305 39.21767
#
# Poissons Ratio (x) = 0.22407 0.15599
# Poissons Ratio (y) = 0.22407 0.15599
# Poissons Ratio (z) = 0.29761 0.29761
#
# Static dielectric constant tensor:
#      x y z
#    x 1.740600 0.000000 0.000000 
#    y 0.000000 1.740600 0.000000 
#    z 0.000000 0.000000 1.790700 
# 
# From -- ./inp_files/3113.got.cif
#   From: 2010.05.17/outbox.cif.g08.bks.cpg/sg180_2_cif.got.tgz:3113.got - 2010.05.20 11:43:55.
