data_PCOD9584647
_publ_section_title
;
Structure prediction by ZEFSAII (Michael W. Deem and Ramdas Pophale) SiO2 
 PCOD9584647
Probable space group: P 63 2 2
;
_chemical_formula_sum "Si O2"
_cell_formula_units_Z 60
_cell_length_a 28.007271
_cell_length_b 28.007271
_cell_length_c 5.224731
_cell_angle_alpha 90.000000
_cell_angle_beta 90.000000
_cell_angle_gamma 120.000000
_cell_volume 3549.246431
_symmetry_space_group_name_H-M "P 63 2 2"
_symmetry_group_IT_number 182
_symmetry_cell_setting 'hexagonal'
loop_
_space_group_symop_operation_xyz
x,y,z
x-y,x,1/2+z
-y,x-y,z
-x,-y,1/2+z
-x+y,-x,z
y,-x+y,1/2+z
x-y,-y,-z
-x,-x+y,-z
y,x,-z
-y,-x,1/2-z
-x+y,y,1/2-z
x,x-y,1/2-z
loop_
_atom_site_type_symbol
_atom_site_label
_atom_site_fract_x
_atom_site_fract_y
_atom_site_fract_z
Si Si1 0.961790 0.707612 0.750000
Si Si2 0.146423 0.630082 0.249999
Si Si3 0.039068 0.640942 0.250000
Si Si4 0.961528 0.812549 0.750000
Si Si5 0.333294 0.552377 0.749999
O O1 0.934083 0.641877 0.750000
O O2 0.934051 0.745632 0.750000
O O3 0.000000 0.726685 0.500000
O O4 0.000000 0.726685 0.000000
O O5 0.136284 0.568142 0.250000
O O6 0.088476 0.628219 0.250000
O O7 0.182615 0.659574 0.500258
O O8 0.182614 0.659574 0.999740
O O9 0.000000 0.616722 0.500000
O O10 0.000000 0.616722 0.000000
O O11 0.913740 0.827480 0.750000
O O12 0.000000 0.835758 0.500000
O O13 0.000000 0.835758 0.000000
O O14 0.384763 0.615238 0.750000
O O15 0.276051 0.552101 0.750000
#
# Coordination Sequence:
#
# PCOD9584647 Si02
#       5
#    12  12  12  12  12
#     4   8  16  30  49  71  94 125 164 203 238 279
#     4  10  21  34  51  78 108 135 171 218 259 307
#     4  10  19  33  53  74 103 142 176 209 255 307
#     4  10  19  33  53  75  99 127 163 204 246 294
#     4  10  20  36  55  74  98 131 171 214 263 313
#
# _framework density 16.904995
#
# number of rings (size 3 to 8) (size 9 to 14) (size 15 to 20)
#    0.000    2.400    0.000    2.600    0.000    0.800 
#    0.000    4.000    0.000    4.000    0.000    0.000 
#    0.000    0.000    0.000    0.000    0.000    0.000 
#
# Total GULP energy -334232.539907 kJ/mol
# GULP energy per Si atom -5570.542332 kJ/mol
# Density = 1.686652 g / cm^3
# Si number density = 16.904995 Si / 1000 Ang^3
#
#
#
# Elastic Constant Matrix: (Units=GPa)
#
#
# Indices 1 2 3 4 5 6 
#
# 1 113.8086 66.9086 54.8560 0.0000 0.0000 0.0000
# 2 66.9086 113.8086 54.8560 0.0000 0.0000 0.0000
# 3 54.8560 54.8560 164.3521 0.0000 0.0000 0.0000
# 4 0.0000 0.0000 0.0000 12.7175 0.0000 0.0000
# 5 0.0000 0.0000 0.0000 0.0000 12.7175 0.0000
# 6 0.0000 0.0000 0.0000 0.0000 0.0000 23.4500
#
#
#
# Elastic Compliance Matrix: (Units=1/GPa)
#
#
# Indices 1 2 3 4 5 6 
#
# 1 0.014131 -0.007191 -0.002316 0.000000 0.000000 0.000000
# 2 -0.007191 0.014131 -0.002316 0.000000 0.000000 0.000000
# 3 -0.002316 -0.002316 0.007631 0.000000 0.000000 0.000000
# 4 0.000000 0.000000 0.000000 0.078632 0.000000 0.000000
# 5 0.000000 0.000000 0.000000 0.000000 0.078632 0.000000
# 6 0.000000 0.000000 0.000000 0.000000 0.000000 0.042644
#
#
# Mechanical properties :
#
#
# Convention : Reuss Voigt Hill
#
# Bulk Modulus (GPa) = 81.66588 82.80118 82.23353
# Shear Modulus (GPa) = 18.97322 24.13357 21.55339
#
# Velocity S-wave (km/s) = 3.35377 3.78246 3.57455
# Velocity P-wave (km/s) = 7.96308 8.25607 8.11090
#
# Compressibility (1/GPa) = 0.01224502
#
# Stress axis : x y z
#
# Youngs Moduli (GPa) = 70.76728 70.76728 131.04942
#
# Poissons Ratio (x) = 0.50890 0.30355
# Poissons Ratio (y) = 0.50890 0.30355
# Poissons Ratio (z) = 0.16392 0.16392
#
# Static dielectric constant tensor:
#      x y z
#    x 1.554640 0.000000 0.000000 
#    y 0.000000 1.554640 0.000000 
#    z 0.000000 0.000000 1.570420 
# 
# From -- ./inp_files/718.got.cif
#   From: 2010.05.17/outbox.cif.g08.bks.cpg/sg182_1_cif.got.tgz:718.got - 2010.05.20 11:58:53.
