data_PCOD9584013
_publ_section_title
;
Structure prediction by ZEFSAII (Michael W. Deem and Ramdas Pophale) SiO2 
 PCOD9584013
Probable space group: P 62 2 2
;
_chemical_formula_sum "Si O2"
_cell_formula_units_Z 42
_cell_length_a 7.944782
_cell_length_b 7.944782
_cell_length_c 33.486223
_cell_angle_alpha 90.000000
_cell_angle_beta 90.000000
_cell_angle_gamma 120.000000
_cell_volume 1830.462207
_symmetry_space_group_name_H-M "P 62 2 2"
_symmetry_group_IT_number 180
_symmetry_cell_setting 'hexagonal'
loop_
_space_group_symop_operation_xyz
x,y,z
x-y,x,1/3+z
-y,x-y,2/3+z
-x,-y,z
-x+y,-x,1/3+z
y,-x+y,2/3+z
x-y,-y,-z
-x,-x+y,1/3-z
y,x,2/3-z
-y,-x,2/3-z
-x+y,y,-z
x,x-y,1/3-z
loop_
_atom_site_type_symbol
_atom_site_label
_atom_site_fract_x
_atom_site_fract_y
_atom_site_fract_z
Si Si1 0.765544 0.531087 0.500000
Si Si2 0.166076 0.702044 0.982933
Si Si3 0.398502 0.201316 0.476644
Si Si4 0.225719 0.075094 0.943426
O O1 0.625620 0.363833 0.468301
O O2 0.681011 0.677336 0.501927
O O3 0.246914 0.888029 0.954123
O O4 0.000000 0.500000 0.965265
O O5 0.338156 0.676312 0.000000
O O6 0.092141 0.765304 0.022106
O O7 0.301861 0.150323 0.433584
O O8 0.331072 0.000000 0.500000
O O9 0.000000 0.000000 0.944984
#
# Coordination Sequence:
#
# PCOD9584013 Si02
#       4
#     6  12  12  12
#     4  10  24  40  70  90 142 174 248 280 364 432
#     4  11  24  43  68 107 141 179 237 287 362 438
#     4  11  24  46  66 103 137 192 239 304 359 436
#     4  11  23  43  72  95 142 182 230 297 361 421
#
# _framework density 22.945027
#
# number of rings (size 3 to 8) (size 9 to 14) (size 15 to 20)
#    0.000    1.143    0.000    7.714    8.000    2.286 
#   10.286    0.000    0.000    0.000    0.000    0.000 
#    0.000    0.000    0.000    0.000    0.000    0.000 
#
# Total GULP energy -234398.368261 kJ/mol
# GULP energy per Si atom -5580.913530 kJ/mol
# Density = 2.289280 g / cm^3
# Si number density = 22.945027 Si / 1000 Ang^3
#
#
#
# Elastic Constant Matrix: (Units=GPa)
#
#
# Indices 1 2 3 4 5 6 
#
# 1 87.5858 1.8314 35.4810 0.0000 0.0000 0.0000
# 2 1.8314 87.5858 35.4810 0.0000 0.0000 0.0000
# 3 35.4810 35.4810 99.5315 0.0000 0.0000 0.0000
# 4 0.0000 0.0000 0.0000 -7.7626 0.0000 0.0000
# 5 0.0000 0.0000 0.0000 0.0000 -7.7626 0.0000
# 6 0.0000 0.0000 0.0000 0.0000 0.0000 42.8772
#
#
#
# Elastic Compliance Matrix: (Units=1/GPa)
#
#
# Indices 1 2 3 4 5 6 
#
# 1 0.013628 0.001967 -0.005560 0.000000 0.000000 0.000000
# 2 0.001967 0.013628 -0.005560 0.000000 0.000000 0.000000
# 3 -0.005560 -0.005560 0.014011 0.000000 0.000000 0.000000
# 4 0.000000 0.000000 0.000000 -0.128823 0.000000 0.000000
# 5 0.000000 0.000000 0.000000 0.000000 -0.128823 0.000000
# 6 0.000000 0.000000 0.000000 0.000000 0.000000 0.023322
#
#
# Mechanical properties :
#
#
# Convention : Reuss Voigt Hill
#
# Bulk Modulus (GPa) = 43.54662 46.69889 45.12275
# Shear Modulus (GPa) = -29.92261 18.93106 -5.49577
#
# Velocity S-wave (km/s) = -3.61515 2.87550 -1.54932
# Velocity P-wave (km/s) = 1.26259 5.60548 4.06297
#
# Compressibility (1/GPa) = 0.02296389
#
# Stress axis : x y z
#
# Youngs Moduli (GPa) = 73.37622 73.37622 71.37364
#
# Poissons Ratio (x) = -0.14434 0.39680
# Poissons Ratio (y) = -0.14434 0.39680
# Poissons Ratio (z) = 0.40794 0.40794
#
# Static dielectric constant tensor:
#      x y z
#    x 1.948780 0.000000 0.000000 
#    y 0.000000 1.948780 0.000000 
#    z 0.000000 0.000000 1.825120 
# 
# From -- ./inp_files/12014.got.cif
#   From: 2010.05.17/outbox.cif.g08.bks.cpg/sg180_7_cif.got.tgz:12014.got - 2010.05.20 11:43:55.
