data_PCOD9584084
_publ_section_title
;
Structure prediction by ZEFSAII (Michael W. Deem and Ramdas Pophale) SiO2 
 PCOD9584084
Probable space group: P 62 2 2
;
_chemical_formula_sum "Si O2"
_cell_formula_units_Z 72
_cell_length_a 13.945385
_cell_length_b 13.945385
_cell_length_c 20.269887
_cell_angle_alpha 90.000000
_cell_angle_beta 90.000000
_cell_angle_gamma 120.000000
_cell_volume 3413.838537
_symmetry_space_group_name_H-M "P 62 2 2"
_symmetry_group_IT_number 180
_symmetry_cell_setting 'hexagonal'
loop_
_space_group_symop_operation_xyz
x,y,z
x-y,x,1/3+z
-y,x-y,2/3+z
-x,-y,z
-x+y,-x,1/3+z
y,-x+y,2/3+z
x-y,-y,-z
-x,-x+y,1/3-z
y,x,2/3-z
-y,-x,2/3-z
-x+y,y,-z
x,x-y,1/3-z
loop_
_atom_site_type_symbol
_atom_site_label
_atom_site_fract_x
_atom_site_fract_y
_atom_site_fract_z
Si Si1 0.909355 0.625243 0.854399
Si Si2 0.796711 0.396262 0.790177
Si Si3 0.285434 0.928016 0.688506
Si Si4 0.786840 0.408622 0.299010
Si Si5 0.351474 0.245135 0.231302
Si Si6 0.393497 0.074227 0.562753
O O1 0.872028 0.499941 0.835588
O O2 0.801302 0.631023 0.873545
O O3 0.987927 0.662633 0.917796
O O4 0.980096 0.700728 0.792330
O O5 0.699689 0.300312 0.833334
O O6 0.732413 0.434061 0.740104
O O7 0.865110 0.343345 0.758563
O O8 0.346664 0.856166 0.681303
O O9 0.158681 0.840555 0.708456
O O10 0.313381 0.998649 0.621700
O O11 0.708361 0.291640 0.333334
O O12 0.868821 0.388773 0.253891
O O13 0.353861 0.176931 0.166667
O O14 0.375418 0.000000 0.500000
#
# Coordination Sequence:
#
# PCOD9584084 Si02
#       6
#    12  12  12  12  12  12
#     4  11  23  43  67  98 134 188 230 285 344 409
#     4  11  21  36  63  98 145 174 220 258 338 419
#     4  11  24  42  66  98 136 183 240 279 340 412
#     4  12  24  40  66 101 148 183 217 264 347 438
#     4   9  21  39  64  94 131 178 231 276 321 404
#     4  12  27  43  63  98 137 182 232 293 349 408
#
# _framework density 21.090629
#
# number of rings (size 3 to 8) (size 9 to 14) (size 15 to 20)
#    0.000    1.000    3.333    3.500    0.000    7.333 
#    0.000    3.333    0.000    4.500    0.000   21.000 
#    0.000    0.000    0.000    0.000    0.000    0.000 
#
# Total GULP energy -402883.963362 kJ/mol
# GULP energy per Si atom -5595.610602 kJ/mol
# Density = 2.104263 g / cm^3
# Si number density = 21.090629 Si / 1000 Ang^3
#
#
#
# Elastic Constant Matrix: (Units=GPa)
#
#
# Indices 1 2 3 4 5 6 
#
# 1 69.3583 40.4606 37.0216 0.0000 0.0000 0.0000
# 2 40.4606 69.3583 37.0216 0.0000 0.0000 0.0000
# 3 37.0216 37.0216 90.0977 0.0000 0.0000 0.0000
# 4 0.0000 0.0000 0.0000 42.1422 0.0000 0.0000
# 5 0.0000 0.0000 0.0000 0.0000 42.1422 0.0000
# 6 0.0000 0.0000 0.0000 0.0000 0.0000 14.4488
#
#
#
# Elastic Compliance Matrix: (Units=1/GPa)
#
#
# Indices 1 2 3 4 5 6 
#
# 1 0.023600 -0.011005 -0.005176 0.000000 0.000000 0.000000
# 2 -0.011005 0.023600 -0.005176 0.000000 0.000000 0.000000
# 3 -0.005176 -0.005176 0.015352 0.000000 0.000000 0.000000
# 4 0.000000 0.000000 0.000000 0.023729 0.000000 0.000000
# 5 0.000000 0.000000 0.000000 0.000000 0.023729 0.000000
# 6 0.000000 0.000000 0.000000 0.000000 0.000000 0.069210
#
#
# Mechanical properties :
#
#
# Convention : Reuss Voigt Hill
#
# Bulk Modulus (GPa) = 50.40047 50.86911 50.63479
# Shear Modulus (GPa) = 21.87742 27.36734 24.62238
#
# Velocity S-wave (km/s) = 3.22422 3.60614 3.42051
# Velocity P-wave (km/s) = 6.14896 6.44288 6.29763
#
# Compressibility (1/GPa) = 0.01984108
#
# Stress axis : x y z
#
# Youngs Moduli (GPa) = 42.37260 42.37260 65.13662
#
# Poissons Ratio (x) = 0.46630 0.33712
# Poissons Ratio (y) = 0.46630 0.33712
# Poissons Ratio (z) = 0.21930 0.21930
#
# Static dielectric constant tensor:
#      x y z
#    x 1.757310 0.000000 0.000000 
#    y 0.000000 1.757310 0.000000 
#    z 0.000000 0.000000 1.800760 
# 
# From -- ./inp_files/7793.got.cif
#   From: 2010.05.17/outbox.cif.g08.bks.cpg/sg180_4_cif.got.tgz:7793.got - 2010.05.20 11:43:55.
