data_PCOD9584803
_publ_section_title
;
Structure prediction by ZEFSAII (Michael W. Deem and Ramdas Pophale) SiO2 
 PCOD9584803
Probable space group: P 63 2 2
;
_chemical_formula_sum "Si O2"
_cell_formula_units_Z 48
_cell_length_a 16.931316
_cell_length_b 16.931316
_cell_length_c 9.257170
_cell_angle_alpha 90.000000
_cell_angle_beta 90.000000
_cell_angle_gamma 120.000000
_cell_volume 2298.213130
_symmetry_space_group_name_H-M "P 63 2 2"
_symmetry_group_IT_number 182
_symmetry_cell_setting 'hexagonal'
loop_
_space_group_symop_operation_xyz
x,y,z
x-y,x,1/2+z
-y,x-y,z
-x,-y,1/2+z
-x+y,-x,z
y,-x+y,1/2+z
x-y,-y,-z
-x,-x+y,-z
y,x,-z
-y,-x,1/2-z
-x+y,y,1/2-z
x,x-y,1/2-z
loop_
_atom_site_type_symbol
_atom_site_label
_atom_site_fract_x
_atom_site_fract_y
_atom_site_fract_z
Si Si1 0.492542 0.664827 0.173880
Si Si2 0.249442 0.874825 0.622694
Si Si3 0.542274 0.444634 0.078078
Si Si4 0.690441 0.918683 0.188177
O O1 0.432688 0.567313 0.250000
O O2 0.460988 0.730494 0.250000
O O3 0.597707 0.712545 0.219111
O O4 0.472745 0.637292 0.004856
O O5 0.195713 0.804288 0.750000
O O6 0.338619 0.872078 0.568069
O O7 0.205301 0.870996 0.468938
O O8 0.271200 0.974364 0.677921
O O9 0.544946 0.455055 0.250000
O O10 0.503739 0.503739 0.000000
O O11 0.747386 0.873693 0.250000
#
# Coordination Sequence:
#
# PCOD9584803 Si02
#       4
#    12  12  12  12
#     4  11  22  41  61  90 127 173 224 277 337 396
#     4  11  23  41  64  98 132 166 223 278 327 411
#     4  12  24  40  64  93 130 178 228 282 338 402
#     4  10  22  42  66  94 130 173 218 273 340 395
#
# _framework density 20.88579
#
# number of rings (size 3 to 8) (size 9 to 14) (size 15 to 20)
#    0.000    1.000    5.000    2.500    7.000    1.000 
#    0.000    0.000    0.000    1.000    0.000    0.000 
#    0.000    0.000    0.000    0.000    0.000    0.000 
#
# Total GULP energy -267484.467191 kJ/mol
# GULP energy per Si atom -5572.593066 kJ/mol
# Density = 2.083825 g / cm^3
# Si number density = 20.885790 Si / 1000 Ang^3
#
#
#
# Elastic Constant Matrix: (Units=GPa)
#
#
# Indices 1 2 3 4 5 6 
#
# 1 63.8101 34.0119 41.4007 0.0000 0.0000 0.0000
# 2 34.0119 63.8101 41.4007 0.0000 0.0000 0.0000
# 3 41.4007 41.4007 156.0670 0.0000 0.0000 0.0000
# 4 0.0000 0.0000 0.0000 37.7941 0.0000 0.0000
# 5 0.0000 0.0000 0.0000 0.0000 37.7941 0.0000
# 6 0.0000 0.0000 0.0000 0.0000 0.0000 14.8991
#
#
#
# Elastic Compliance Matrix: (Units=1/GPa)
#
#
# Indices 1 2 3 4 5 6 
#
# 1 0.023371 -0.010188 -0.003497 0.000000 0.000000 0.000000
# 2 -0.010188 0.023371 -0.003497 0.000000 0.000000 0.000000
# 3 -0.003497 -0.003497 0.008263 0.000000 0.000000 0.000000
# 4 0.000000 0.000000 0.000000 0.026459 0.000000 0.000000
# 5 0.000000 0.000000 0.000000 0.000000 0.026459 0.000000
# 6 0.000000 0.000000 0.000000 0.000000 0.000000 0.067118
#
#
# Mechanical properties :
#
#
# Convention : Reuss Voigt Hill
#
# Bulk Modulus (GPa) = 48.44936 57.47932 52.96434
# Shear Modulus (GPa) = 23.11759 29.22240 26.16999
#
# Velocity S-wave (km/s) = 3.33056 3.74458 3.54362
# Velocity P-wave (km/s) = 6.16748 6.80268 6.49285
#
# Compressibility (1/GPa) = 0.02064011
#
# Stress axis : x y z
#
# Youngs Moduli (GPa) = 42.78828 42.78828 121.02337
#
# Poissons Ratio (x) = 0.43593 0.42322
# Poissons Ratio (y) = 0.43593 0.42322
# Poissons Ratio (z) = 0.14963 0.14963
#
# Static dielectric constant tensor:
#      x y z
#    x 1.830720 0.000000 0.000000 
#    y 0.000000 1.830720 0.000000 
#    z 0.000000 0.000000 5.775490 
# 
# From -- ./inp_files/1402.got.cif
#   From: 2010.05.17/outbox.cif.g08.bks.cpg/sg182_1_cif.got.tgz:1402.got - 2010.05.20 11:58:53.
