data_PCOD9584918
_publ_section_title
;
Structure prediction by ZEFSAII (Michael W. Deem and Ramdas Pophale) SiO2 
 PCOD9584918
Probable space group: P 6 M M
;
_chemical_formula_sum "Si O2"
_cell_formula_units_Z 96
_cell_length_a 21.257521
_cell_length_b 21.257521
_cell_length_c 21.006558
_cell_angle_alpha 90.000000
_cell_angle_beta 90.000000
_cell_angle_gamma 120.000000
_cell_volume 8220.737159
_symmetry_space_group_name_H-M "P 6 M M"
_symmetry_group_IT_number 183
_symmetry_cell_setting 'hexagonal'
loop_
_space_group_symop_operation_xyz
x,y,z
x-y,x,z
-y,x-y,z
-x,-y,z
-x+y,-x,z
y,-x+y,z
-x+y,y,z
x,x-y,z
-y,-x,z
y,x,z
x-y,-y,z
-x,-x+y,z
loop_
_atom_site_type_symbol
_atom_site_label
_atom_site_fract_x
_atom_site_fract_y
_atom_site_fract_z
Si Si1 0.815876 0.482869 0.866620
Si Si2 0.534729 0.617754 0.371778
Si Si3 0.464691 0.082295 0.750692
Si Si4 0.483278 0.816384 0.013146
Si Si5 0.916975 0.534728 0.129606
Si Si6 0.182168 0.514961 0.250692
Si Si7 0.666895 0.483278 0.488238
Si Si8 0.517132 0.184125 0.634763
O O1 0.740546 0.481091 0.856288
O O2 0.803477 0.401739 0.859562
O O3 0.874081 0.531867 0.814018
O O4 0.839137 0.505178 0.939804
O O5 0.460264 0.539737 0.371144
O O6 0.599173 0.599173 0.366426
O O7 0.526148 0.660549 0.312585
O O8 0.532691 0.655495 0.437355
O O9 0.539981 0.079962 0.750693
O O10 0.468134 0.125919 0.687366
O O11 0.400417 0.000000 0.750691
O O12 0.401464 0.802928 0.020500
O O13 0.482785 0.741393 0.024327
O O14 0.532691 0.877196 0.064029
O O15 0.920528 0.460264 0.130240
O O16 0.865600 0.526148 0.188799
O O17 0.000000 0.599173 0.134958
O O18 0.259381 0.518762 0.250692
O O19 0.192912 0.596456 0.250692
O O20 0.741393 0.482785 0.477055
O O21 0.598536 0.401465 0.480885
O O22 0.666043 0.505179 0.561580
O O23 0.598263 0.196525 0.641821
O O24 0.518909 0.259455 0.645096
#
# Coordination Sequence:
#
# PCOD9584918 Si02
#       8
#    12  12  12  12  12  12  12  12
#     4   9  16  25  37  51  66  84 107 137 172 208
#     4   9  17  27  37  49  66  88 110 131 161 204
#     4   9  17  26  34  46  64  85 108 134 166 206
#     4   9  16  25  37  52  68  85 107 137 172 206
#     4   9  17  27  37  49  66  88 110 131 161 204
#     4  10  18  27  39  53  68  85 108 140 175 206
#     4   9  16  25  37  52  68  85 107 137 172 206
#     4   9  16  25  37  51  66  84 107 137 172 208
#
# _framework density 11.677784000000001
#
# number of rings (size 3 to 8) (size 9 to 14) (size 15 to 20)
#    0.000    2.875    0.000    2.125    0.000    4.500 
#    0.000    8.750    0.000    0.000    0.000    0.000 
#    0.000    0.000    0.000    0.000    0.000    0.000 
#
# Total GULP energy -534460.513373 kJ/mol
# GULP energy per Si atom -5567.297014 kJ/mol
# Density = 1.165121 g / cm^3
# Si number density = 11.677784 Si / 1000 Ang^3
#
#
#
# Elastic Constant Matrix: (Units=GPa)
#
#
# Indices 1 2 3 4 5 6 
#
# 1 55.7974 33.0780 53.9077 0.0000 0.0000 0.0000
# 2 33.0780 55.7974 53.9077 0.0000 0.0000 0.0000
# 3 53.9077 53.9077 105.3704 0.0000 0.0000 0.0000
# 4 0.0000 0.0000 0.0000 12.3123 0.0000 0.0000
# 5 0.0000 0.0000 0.0000 0.0000 12.3123 0.0000
# 6 0.0000 0.0000 0.0000 0.0000 0.0000 11.3597
#
#
#
# Elastic Compliance Matrix: (Units=1/GPa)
#
#
# Indices 1 2 3 4 5 6 
#
# 1 0.036837 -0.007178 -0.015173 0.000000 0.000000 0.000000
# 2 -0.007178 0.036837 -0.015173 0.000000 0.000000 0.000000
# 3 -0.015173 -0.015173 0.025016 0.000000 0.000000 0.000000
# 4 0.000000 0.000000 0.000000 0.081220 0.000000 0.000000
# 5 0.000000 0.000000 0.000000 0.000000 0.081220 0.000000
# 6 0.000000 0.000000 0.000000 0.000000 0.000000 0.088031
#
#
# Mechanical properties :
#
#
# Convention : Reuss Voigt Hill
#
# Bulk Modulus (GPa) = 42.30210 55.41688 48.85949
# Shear Modulus (GPa) = 11.57166 12.26831 11.91998
#
# Velocity S-wave (km/s) = 3.15129 3.24476 3.19837
# Velocity P-wave (km/s) = 7.03874 7.84831 7.45452
#
# Compressibility (1/GPa) = 0.02363949
#
# Stress axis : x y z
#
# Youngs Moduli (GPa) = 27.14661 27.14661 39.97459
#
# Poissons Ratio (x) = 0.19487 0.60655
# Poissons Ratio (y) = 0.19487 0.60655
# Poissons Ratio (z) = 0.41191 0.41191
#
# Static dielectric constant tensor:
#      x y z
#    x 1.354480 0.000000 0.000000 
#    y 0.000000 1.354480 0.000000 
#    z 0.000000 0.000000 1.405210 
# 
# From -- ./inp_files/2739.got.cif
#   From: 2010.05.17/outbox.cif.g08.bks.cpg/sg183_2_cif.got.tgz:2739.got - 2010.05.20 12:02:58.
