data_PCOD9584479
_publ_section_title
;
Structure prediction by ZEFSAII (Michael W. Deem and Ramdas Pophale) SiO2 
 PCOD9584479
Probable space group: P 64 2 2
;
_chemical_formula_sum "Si O2"
_cell_formula_units_Z 45
_cell_length_a 13.083015
_cell_length_b 13.083015
_cell_length_c 12.868844
_cell_angle_alpha 90.000000
_cell_angle_beta 90.000000
_cell_angle_gamma 120.000000
_cell_volume 1907.593556
_symmetry_space_group_name_H-M "P 64 2 2"
_symmetry_group_IT_number 181
_symmetry_cell_setting 'hexagonal'
loop_
_space_group_symop_operation_xyz
x,y,z
x-y,x,2/3+z
-y,x-y,1/3+z
-x,-y,z
-x+y,-x,2/3+z
y,-x+y,1/3+z
x-y,-y,-z
-x,-x+y,2/3-z
y,x,1/3-z
-y,-x,1/3-z
-x+y,y,-z
x,x-y,2/3-z
loop_
_atom_site_type_symbol
_atom_site_label
_atom_site_fract_x
_atom_site_fract_y
_atom_site_fract_z
Si Si1 0.183354 0.258315 0.256467
Si Si2 0.030477 0.281861 0.513451
Si Si3 0.462213 0.595387 0.857411
Si Si4 0.359991 0.719982 0.000000
Si Si5 0.000000 0.000000 0.666667
O O1 0.271972 0.271972 0.166667
O O2 0.257736 0.299213 0.362392
O O3 0.093425 0.298358 0.210442
O O4 0.091894 0.119465 0.275191
O O5 0.110638 0.221276 0.500000
O O6 0.104176 0.413594 0.469924
O O7 0.500000 0.500000 0.888366
O O8 0.414751 0.642899 0.951122
O O9 0.369451 0.567062 0.764120
#
# Coordination Sequence:
#
# PCOD9584479 Si02
#       5
#    12  12  12   6   3
#     4  12  22  36  55  96 146 191 236 293 362 440
#     4  12  22  38  66  99 134 186 249 292 359 438
#     4  11  26  47  77 105 141 190 244 310 374 447
#     4  10  23  50  77 110 146 185 251 316 376 436
#     4  12  18  28  52  80 140 190 206 264 350 416
#
# _framework density 23.589929999999999
#
# number of rings (size 3 to 8) (size 9 to 14) (size 15 to 20)
#    0.000    0.533    8.000    0.800    3.733    2.133 
#    4.800    2.667    0.000    0.000    0.000    0.000 
#    0.000    0.000    0.000    0.000    0.000    0.000 
#
# Total GULP energy -250585.782223 kJ/mol
# GULP energy per Si atom -5568.572938 kJ/mol
# Density = 2.353624 g / cm^3
# Si number density = 23.589930 Si / 1000 Ang^3
#
#
#
# Elastic Constant Matrix: (Units=GPa)
#
#
# Indices 1 2 3 4 5 6 
#
# 1 117.1293 43.8389 37.2155 0.0000 0.0000 0.0000
# 2 43.8389 117.1293 37.2155 0.0000 0.0000 0.0000
# 3 37.2155 37.2155 162.3680 0.0000 0.0000 0.0000
# 4 0.0000 0.0000 0.0000 21.4185 0.0000 0.0000
# 5 0.0000 0.0000 0.0000 0.0000 21.4185 0.0000
# 6 0.0000 0.0000 0.0000 0.0000 0.0000 36.6452
#
#
#
# Elastic Compliance Matrix: (Units=1/GPa)
#
#
# Indices 1 2 3 4 5 6 
#
# 1 0.010297 -0.003348 -0.001593 0.000000 0.000000 0.000000
# 2 -0.003348 0.010297 -0.001593 0.000000 0.000000 0.000000
# 3 -0.001593 -0.001593 0.006889 0.000000 0.000000 0.000000
# 4 0.000000 0.000000 0.000000 0.046689 0.000000 0.000000
# 5 0.000000 0.000000 0.000000 0.000000 0.046689 0.000000
# 6 0.000000 0.000000 0.000000 0.000000 0.000000 0.027289
#
#
# Mechanical properties :
#
#
# Convention : Reuss Voigt Hill
#
# Bulk Modulus (GPa) = 69.36806 70.35179 69.85993
# Shear Modulus (GPa) = 30.11688 34.45354 32.28521
#
# Velocity S-wave (km/s) = 3.57695 3.82582 3.70347
# Velocity P-wave (km/s) = 6.82122 7.02876 6.92577
#
# Compressibility (1/GPa) = 0.01441586
#
# Stress axis : x y z
#
# Youngs Moduli (GPa) = 97.11930 97.11930 145.15975
#
# Poissons Ratio (x) = 0.32513 0.23120
# Poissons Ratio (y) = 0.32513 0.23120
# Poissons Ratio (z) = 0.15468 0.15468
#
# Static dielectric constant tensor:
#      x y z
#    x 1.994730 0.000000 0.000000 
#    y 0.000000 1.994730 0.000000 
#    z 0.000000 0.000000 3.376010 
# 
# From -- ./inp_files/4437.got.cif
#   From: 2010.05.17/outbox.cif.g08.bks.cpg/sg181_3_cif.got.tgz:4437.got - 2010.05.20 11:51:17.
