data_PCOD9584585
_publ_section_title
;
Structure prediction by ZEFSAII (Michael W. Deem and Ramdas Pophale) SiO2 
 PCOD9584585
Probable space group: P 64 2 2
;
_chemical_formula_sum "Si O2"
_cell_formula_units_Z 84
_cell_length_a 17.457285
_cell_length_b 17.457285
_cell_length_c 13.879623
_cell_angle_alpha 90.000000
_cell_angle_beta 90.000000
_cell_angle_gamma 120.000000
_cell_volume 3663.209069
_symmetry_space_group_name_H-M "P 64 2 2"
_symmetry_group_IT_number 181
_symmetry_cell_setting 'hexagonal'
loop_
_space_group_symop_operation_xyz
x,y,z
x-y,x,2/3+z
-y,x-y,1/3+z
-x,-y,z
-x+y,-x,2/3+z
y,-x+y,1/3+z
x-y,-y,-z
-x,-x+y,2/3-z
y,x,1/3-z
-y,-x,1/3-z
-x+y,y,-z
x,x-y,2/3-z
loop_
_atom_site_type_symbol
_atom_site_label
_atom_site_fract_x
_atom_site_fract_y
_atom_site_fract_z
Si Si1 0.283408 0.974729 0.714378
Si Si2 0.936568 0.726885 0.254794
Si Si3 0.853245 0.863393 0.055082
Si Si4 0.217341 0.761460 0.889150
Si Si5 0.365073 0.876476 0.280503
Si Si6 0.604762 0.221261 0.884956
Si Si7 0.491084 0.164073 0.359353
O O1 0.241499 0.979770 0.816252
O O2 0.281289 0.883317 0.696187
O O3 0.220747 0.983227 0.636116
O O4 0.387820 0.045718 0.709773
O O5 0.917424 0.802424 0.293698
O O6 0.840708 0.641547 0.240301
O O7 0.000000 0.719533 0.333334
O O8 0.874436 0.874436 0.166667
O O9 0.942958 0.885916 0.000000
O O10 0.318040 0.799378 0.858030
O O11 0.159032 0.690827 0.806607
O O12 0.201725 0.711789 0.990664
O O13 0.365885 0.850067 0.169364
O O14 0.452095 0.881630 0.329110
O O15 0.626294 0.313147 0.833334
O O16 0.610719 0.221437 0.000000
O O17 0.537429 0.268715 0.333334
#
# Coordination Sequence:
#
# PCOD9584585 Si02
#       7
#    12  12  12  12  12  12  12
#     4  12  26  47  78 111 162 204 264 327 406 498
#     4  12  28  50  76 111 155 208 262 335 417 495
#     4  12  25  50  83 117 155 206 265 332 418 500
#     4  12  25  46  72 110 152 203 255 327 401 471
#     4  12  26  43  72 114 152 200 265 325 393 474
#     4  12  25  42  70 105 152 204 258 321 387 469
#     4  12  23  44  75 108 154 205 261 321 390 473
#
# _framework density 22.930713999999998
#
# number of rings (size 3 to 8) (size 9 to 14) (size 15 to 20)
#    0.000    0.000    7.143    3.000    2.000    0.857 
#    0.000    2.143    0.000    0.000    0.000    0.000 
#    0.000    0.000    0.000    0.000    0.000    0.000 
#
# Total GULP energy -469298.940140 kJ/mol
# GULP energy per Si atom -5586.892145 kJ/mol
# Density = 2.287852 g / cm^3
# Si number density = 22.930714 Si / 1000 Ang^3
#
#
#
# Elastic Constant Matrix: (Units=GPa)
#
#
# Indices 1 2 3 4 5 6 
#
# 1 132.0124 20.0744 30.9461 0.0000 0.0000 0.0000
# 2 20.0744 132.0124 30.9461 0.0000 0.0000 0.0000
# 3 30.9461 30.9461 156.0902 0.0000 0.0000 0.0000
# 4 0.0000 0.0000 0.0000 37.2424 0.0000 0.0000
# 5 0.0000 0.0000 0.0000 0.0000 37.2424 0.0000
# 6 0.0000 0.0000 0.0000 0.0000 0.0000 55.9690
#
#
#
# Elastic Compliance Matrix: (Units=1/GPa)
#
#
# Indices 1 2 3 4 5 6 
#
# 1 0.008043 -0.000891 -0.001418 0.000000 0.000000 0.000000
# 2 -0.000891 0.008043 -0.001418 0.000000 0.000000 0.000000
# 3 -0.001418 -0.001418 0.006969 0.000000 0.000000 0.000000
# 4 0.000000 0.000000 0.000000 0.026851 0.000000 0.000000
# 5 0.000000 0.000000 0.000000 0.000000 0.026851 0.000000
# 6 0.000000 0.000000 0.000000 0.000000 0.000000 0.017867
#
#
# Mechanical properties :
#
#
# Convention : Reuss Voigt Hill
#
# Bulk Modulus (GPa) = 64.09701 64.89422 64.49562
# Shear Modulus (GPa) = 46.60809 48.63398 47.62104
#
# Velocity S-wave (km/s) = 4.51329 4.61033 4.56207
# Velocity P-wave (km/s) = 7.42784 7.53006 7.47912
#
# Compressibility (1/GPa) = 0.01560135
#
# Stress axis : x y z
#
# Youngs Moduli (GPa) = 124.33350 124.33350 143.49662
#
# Poissons Ratio (x) = 0.11074 0.20348
# Poissons Ratio (y) = 0.11074 0.20348
# Poissons Ratio (z) = 0.17630 0.17630
#
# Static dielectric constant tensor:
#      x y z
#    x 1.825600 0.000000 0.000000 
#    y 0.000000 1.825600 0.000000 
#    z 0.000000 0.000000 1.933800 
# 
# From -- ./inp_files/6512.got.cif
#   From: 2010.05.17/outbox.cif.g08.bks.cpg/sg181_4_cif.got.tgz:6512.got - 2010.05.20 11:51:17.
