data_PCOD9584871
_publ_section_title
;
Structure prediction by ZEFSAII (Michael W. Deem and Ramdas Pophale) SiO2 
 PCOD9584871
Probable space group: P 63 2 2
;
_chemical_formula_sum "Si O2"
_cell_formula_units_Z 58
_cell_length_a 14.625932
_cell_length_b 14.625932
_cell_length_c 14.346123
_cell_angle_alpha 90.000000
_cell_angle_beta 90.000000
_cell_angle_gamma 120.000000
_cell_volume 2657.738708
_symmetry_space_group_name_H-M "P 63 2 2"
_symmetry_group_IT_number 182
_symmetry_cell_setting 'hexagonal'
loop_
_space_group_symop_operation_xyz
x,y,z
x-y,x,1/2+z
-y,x-y,z
-x,-y,1/2+z
-x+y,-x,z
y,-x+y,1/2+z
x-y,-y,-z
-x,-x+y,-z
y,x,-z
-y,-x,1/2-z
-x+y,y,1/2-z
x,x-y,1/2-z
loop_
_atom_site_type_symbol
_atom_site_label
_atom_site_fract_x
_atom_site_fract_y
_atom_site_fract_z
Si Si1 0.432340 0.231440 0.982972
Si Si2 0.890325 0.633976 0.324901
Si Si3 0.147762 0.905477 0.141221
Si Si4 0.564848 0.468526 0.937347
Si Si5 0.487290 0.512711 0.750000
Si Si6 0.000000 0.000000 0.862879
O O1 0.324391 0.187487 0.924878
O O2 0.498761 0.356457 0.986540
O O3 0.498329 0.184834 0.930945
O O4 0.411094 0.184978 0.086438
O O5 0.837745 0.675490 0.250000
O O6 0.999668 0.731517 0.360522
O O7 0.908682 0.545157 0.275723
O O8 0.126626 0.873375 0.250000
O O9 0.070504 0.948391 0.109764
O O10 0.510722 0.461641 0.839103
O O11 0.553720 0.553720 0.000000
O O12 0.000000 0.000000 0.750000
#
# Coordination Sequence:
#
# PCOD9584871 Si02
#       6
#    12  12  12  12   6   4
#     4  12  26  46  72 101 147 187 242 301 363 429
#     4  12  25  45  71 102 142 191 243 295 367 427
#     4  11  22  45  72 107 147 188 231 301 355 437
#     4  12  25  47  71 107 146 189 246 305 362 439
#     4  12  24  46  74 102 144 190 244 308 362 434
#     4   9  21  39  70 107 149 179 238 282 352 437
#
# _framework density 21.823065
#
# number of rings (size 3 to 8) (size 9 to 14) (size 15 to 20)
#    0.000    0.414    4.138    5.379    0.000    1.655 
#    0.621    5.172    0.000    0.000    0.000    0.000 
#    0.000    0.000    0.000    0.000    0.000    0.000 
#
# Total GULP energy -324906.031360 kJ/mol
# GULP energy per Si atom -5601.828127 kJ/mol
# Density = 2.177339 g / cm^3
# Si number density = 21.823065 Si / 1000 Ang^3
#
#
#
# Elastic Constant Matrix: (Units=GPa)
#
#
# Indices 1 2 3 4 5 6 
#
# 1 75.0487 14.6755 0.8047 0.0000 0.0000 0.0000
# 2 14.6755 75.0487 0.8047 0.0000 0.0000 0.0000
# 3 0.8047 0.8047 98.8636 0.0000 0.0000 0.0000
# 4 0.0000 0.0000 0.0000 29.0939 0.0000 0.0000
# 5 0.0000 0.0000 0.0000 0.0000 29.0939 0.0000
# 6 0.0000 0.0000 0.0000 0.0000 0.0000 30.1866
#
#
#
# Elastic Compliance Matrix: (Units=1/GPa)
#
#
# Indices 1 2 3 4 5 6 
#
# 1 0.013855 -0.002708 -0.000091 0.000000 0.000000 0.000000
# 2 -0.002708 0.013855 -0.000091 0.000000 0.000000 0.000000
# 3 -0.000091 -0.000091 0.010116 0.000000 0.000000 0.000000
# 4 0.000000 0.000000 0.000000 0.034372 0.000000 0.000000
# 5 0.000000 0.000000 0.000000 0.000000 0.034372 0.000000
# 6 0.000000 0.000000 0.000000 0.000000 0.000000 0.033127
#
#
# Mechanical properties :
#
#
# Convention : Reuss Voigt Hill
#
# Bulk Modulus (GPa) = 31.20389 31.28120 31.24254
# Shear Modulus (GPa) = 32.01856 33.18660 32.60258
#
# Velocity S-wave (km/s) = 3.83455 3.90386 3.86936
# Velocity P-wave (km/s) = 5.82534 5.88942 5.85747
#
# Compressibility (1/GPa) = 0.03204729
#
# Stress axis : x y z
#
# Youngs Moduli (GPa) = 72.17469 72.17469 98.84920
#
# Poissons Ratio (x) = 0.19548 0.00897
# Poissons Ratio (y) = 0.19548 0.00897
# Poissons Ratio (z) = 0.00655 0.00655
#
# Static dielectric constant tensor:
#      x y z
#    x 1.783510 0.000000 0.000000 
#    y 0.000000 1.783510 0.000000 
#    z 0.000000 0.000000 1.803830 
# 
# From -- ./inp_files/3482.got.cif
#   From: 2010.05.17/outbox.cif.g08.bks.cpg/sg182_2_cif.got.tgz:3482.got - 2010.05.20 11:58:53.
