data_PCOD9584757
_publ_section_title
;
Structure prediction by ZEFSAII (Michael W. Deem and Ramdas Pophale) SiO2 
 PCOD9584757
Probable space group: P 63 2 2
;
_chemical_formula_sum "Si O2"
_cell_formula_units_Z 48
_cell_length_a 17.709062
_cell_length_b 17.709062
_cell_length_c 8.960434
_cell_angle_alpha 90.000000
_cell_angle_beta 90.000000
_cell_angle_gamma 120.000000
_cell_volume 2433.608950
_symmetry_space_group_name_H-M "P 63 2 2"
_symmetry_group_IT_number 182
_symmetry_cell_setting 'hexagonal'
loop_
_space_group_symop_operation_xyz
x,y,z
x-y,x,1/2+z
-y,x-y,z
-x,-y,1/2+z
-x+y,-x,z
y,-x+y,1/2+z
x-y,-y,-z
-x,-x+y,-z
y,x,-z
-y,-x,1/2-z
-x+y,y,1/2-z
x,x-y,1/2-z
loop_
_atom_site_type_symbol
_atom_site_label
_atom_site_fract_x
_atom_site_fract_y
_atom_site_fract_z
Si Si1 0.491138 0.093589 0.057032
Si Si2 0.908021 0.817144 0.571826
Si Si3 0.172038 0.383111 0.076722
Si Si4 0.506522 0.826948 0.849216
O O1 0.458584 0.096185 0.225565
O O2 0.594447 0.162481 0.067249
O O3 0.437351 0.123569 0.954606
O O4 0.471382 0.000000 0.000000
O O5 0.836222 0.836222 0.500000
O O6 0.914193 0.828386 0.750000
O O7 0.885066 0.718674 0.538566
O O8 0.000000 0.883545 0.500000
O O9 0.195141 0.390282 0.250000
O O10 0.255882 0.425226 0.968571
O O11 0.479425 0.739713 0.750000
#
# Coordination Sequence:
#
# PCOD9584757 Si02
#       4
#    12  12  12  12
#     4  10  21  39  64  90 120 166 217 269 326 396
#     4  11  24  41  63  90 124 165 208 261 322 395
#     4  10  23  40  60  93 125 164 209 270 332 388
#     4   9  21  41  61  90 126 171 213 267 330 400
#
# _framework density 19.723793000000001
#
# number of rings (size 3 to 8) (size 9 to 14) (size 15 to 20)
#    0.000    2.000    0.000    1.750    0.000   16.000 
#   39.000    0.000    0.000    0.000    0.000    0.000 
#    0.000    0.000    0.000    0.000    0.000    0.000 
#
# Total GULP energy -267751.143462 kJ/mol
# GULP energy per Si atom -5578.148822 kJ/mol
# Density = 1.967890 g / cm^3
# Si number density = 19.723793 Si / 1000 Ang^3
#
#
#
# Elastic Constant Matrix: (Units=GPa)
#
#
# Indices 1 2 3 4 5 6 
#
# 1 47.5509 78.2409 33.5252 0.0000 0.0000 0.0000
# 2 78.2409 47.5509 33.5252 0.0000 0.0000 0.0000
# 3 33.5252 33.5252 52.9185 0.0000 0.0000 0.0000
# 4 0.0000 0.0000 0.0000 28.3649 0.0000 0.0000
# 5 0.0000 0.0000 0.0000 0.0000 28.3649 0.0000
# 6 0.0000 0.0000 0.0000 0.0000 0.0000 -15.3450
#
#
#
# Elastic Compliance Matrix: (Units=1/GPa)
#
#
# Indices 1 2 3 4 5 6 
#
# 1 -0.010291 0.022293 -0.007604 0.000000 0.000000 0.000000
# 2 0.022293 -0.010291 -0.007604 0.000000 0.000000 0.000000
# 3 -0.007604 -0.007604 0.028532 0.000000 0.000000 0.000000
# 4 0.000000 0.000000 0.000000 0.035255 0.000000 0.000000
# 5 0.000000 0.000000 0.000000 0.000000 0.035255 0.000000
# 6 0.000000 0.000000 0.000000 0.000000 0.000000 -0.065168
#
#
# Mechanical properties :
#
#
# Convention : Reuss Voigt Hill
#
# Bulk Modulus (GPa) = 45.20580 48.73362 46.96971
# Shear Modulus (GPa) = 769.73855 8.45891 389.09873
#
# Velocity S-wave (km/s) = 19.77640 2.07316 14.06066
# Velocity P-wave (km/s) = 23.33332 5.52199 16.95489
#
# Compressibility (1/GPa) = 0.02212106
#
# Stress axis : x y z
#
# Youngs Moduli (GPa) = -97.17656 -97.17656 35.04867
#
# Poissons Ratio (x) = 2.16639 0.26651
# Poissons Ratio (y) = 2.16639 0.26651
# Poissons Ratio (z) = -0.73894 -0.73894
#
# Static dielectric constant tensor:
#      x y z
#    x 1.704010 0.000000 0.000000 
#    y 0.000000 1.704010 0.000000 
#    z 0.000000 0.000000 1.695250 
# 
# From -- ./inp_files/1441.got.cif
#   From: 2010.05.17/outbox.cif.g08.bks.cpg/sg182_1_cif.got.tgz:1441.got - 2010.05.20 11:58:53.
