data_PCOD9584015
_publ_section_title
;
Structure prediction by ZEFSAII (Michael W. Deem and Ramdas Pophale) SiO2 
 PCOD9584015
Probable space group: P 62 2 2
;
_chemical_formula_sum "Si O2"
_cell_formula_units_Z 48
_cell_length_a 14.298511
_cell_length_b 14.298511
_cell_length_c 11.644059
_cell_angle_alpha 90.000000
_cell_angle_beta 90.000000
_cell_angle_gamma 120.000000
_cell_volume 2061.658157
_symmetry_space_group_name_H-M "P 62 2 2"
_symmetry_group_IT_number 180
_symmetry_cell_setting 'hexagonal'
loop_
_space_group_symop_operation_xyz
x,y,z
x-y,x,1/3+z
-y,x-y,2/3+z
-x,-y,z
-x+y,-x,1/3+z
y,-x+y,2/3+z
x-y,-y,-z
-x,-x+y,1/3-z
y,x,2/3-z
-y,-x,2/3-z
-x+y,y,-z
x,x-y,1/3-z
loop_
_atom_site_type_symbol
_atom_site_label
_atom_site_fract_x
_atom_site_fract_y
_atom_site_fract_z
Si Si1 0.064277 0.298529 0.434549
Si Si2 0.171895 0.828106 0.333334
Si Si3 0.890055 0.481481 0.535138
Si Si4 0.301039 0.650520 0.166667
Si Si5 0.880128 0.320011 0.121009
O O1 0.120785 0.241569 0.500000
O O2 0.091562 0.398665 0.520975
O O3 0.110954 0.360142 0.313711
O O4 0.941531 0.216796 0.399374
O O5 0.166782 0.749147 0.234976
O O6 0.890082 0.445041 0.666667
O O7 0.777931 0.386129 0.487232
O O8 0.000000 0.500000 0.475041
O O9 0.208943 0.648444 0.082281
O O10 0.000000 0.406275 0.166667
#
# Coordination Sequence:
#
# PCOD9584015 Si02
#       5
#    12   6  12   6  12
#     4  11  23  45  70 106 146 194 255 321 386 460
#     4  10  24  46  72 101 145 204 246 318 392 456
#     4  11  25  42  64 103 147 191 246 302 378 452
#     4  12  23  38  68  98 144 196 241 302 370 460
#     4  10  24  41  66 103 146 198 252 307 389 463
#
# _framework density 23.282229000000001
#
# number of rings (size 3 to 8) (size 9 to 14) (size 15 to 20)
#    0.000    1.250    1.250    3.375    1.750    7.000 
#    0.000    0.000    0.000   20.250    0.000    0.000 
#    0.000    0.000    0.000    0.000    0.000    0.000 
#
# Total GULP energy -267429.843031 kJ/mol
# GULP energy per Si atom -5571.455063 kJ/mol
# Density = 2.322924 g / cm^3
# Si number density = 23.282229 Si / 1000 Ang^3
#
#
#
# Elastic Constant Matrix: (Units=GPa)
#
#
# Indices 1 2 3 4 5 6 
#
# 1 70.3942 175.2339 50.9391 0.0000 0.0000 0.0000
# 2 175.2339 70.3942 50.9391 0.0000 0.0000 0.0000
# 3 50.9391 50.9391 149.5263 0.0000 0.0000 0.0000
# 4 0.0000 0.0000 0.0000 22.8177 0.0000 0.0000
# 5 0.0000 0.0000 0.0000 0.0000 22.8177 0.0000
# 6 0.0000 0.0000 0.0000 0.0000 0.0000 -52.4198
#
#
#
# Elastic Compliance Matrix: (Units=1/GPa)
#
#
# Indices 1 2 3 4 5 6 
#
# 1 -0.002399 0.007140 -0.001615 0.000000 0.000000 0.000000
# 2 0.007140 -0.002399 -0.001615 0.000000 0.000000 0.000000
# 3 -0.001615 -0.001615 0.007788 0.000000 0.000000 0.000000
# 4 0.000000 0.000000 0.000000 0.043826 0.000000 0.000000
# 5 0.000000 0.000000 0.000000 0.000000 0.043826 0.000000
# 6 0.000000 0.000000 0.000000 0.000000 0.000000 -0.019077
#
#
# Mechanical properties :
#
#
# Convention : Reuss Voigt Hill
#
# Bulk Modulus (GPa) = 92.50814 93.83765 93.17289
# Shear Modulus (GPa) = 74.23909 -0.47671 36.88119
#
# Velocity S-wave (km/s) = 5.65295 -0.45299 3.98438
# Velocity P-wave (km/s) = 9.07895 6.33390 7.82770
#
# Compressibility (1/GPa) = 0.01080986
#
# Stress axis : x y z
#
# Youngs Moduli (GPa) = -416.90378 -416.90378 128.39851
#
# Poissons Ratio (x) = 2.97658 0.20738
# Poissons Ratio (y) = 2.97658 0.20738
# Poissons Ratio (z) = -0.67336 -0.67336
#
# Static dielectric constant tensor:
#      x y z
#    x 1.976500 0.000000 0.000000 
#    y 0.000000 1.976500 0.000000 
#    z 0.000000 0.000000 1.567140 
# 
# From -- ./inp_files/4498.got.cif
#   From: 2010.05.17/outbox.cif.g08.bks.cpg/sg180_3_cif.got.tgz:4498.got - 2010.05.20 11:43:55.
