data_PCOD9584546
_publ_section_title
;
Structure prediction by ZEFSAII (Michael W. Deem and Ramdas Pophale) SiO2 
 PCOD9584546
Probable space group: P 64 2 2
;
_chemical_formula_sum "Si O2"
_cell_formula_units_Z 60
_cell_length_a 11.601919
_cell_length_b 11.601919
_cell_length_c 25.578086
_cell_angle_alpha 90.000000
_cell_angle_beta 90.000000
_cell_angle_gamma 120.000000
_cell_volume 2981.661469
_symmetry_space_group_name_H-M "P 64 2 2"
_symmetry_group_IT_number 181
_symmetry_cell_setting 'hexagonal'
loop_
_space_group_symop_operation_xyz
x,y,z
x-y,x,2/3+z
-y,x-y,1/3+z
-x,-y,z
-x+y,-x,2/3+z
y,-x+y,1/3+z
x-y,-y,-z
-x,-x+y,2/3-z
y,x,1/3-z
-y,-x,1/3-z
-x+y,y,-z
x,x-y,2/3-z
loop_
_atom_site_type_symbol
_atom_site_label
_atom_site_fract_x
_atom_site_fract_y
_atom_site_fract_z
Si Si1 0.505336 0.176281 0.244140
Si Si2 0.850800 0.220669 0.856371
Si Si3 0.034506 0.886191 0.227140
Si Si4 0.463029 0.615186 0.048575
Si Si5 0.891727 0.289627 0.057531
O O1 0.433331 0.180384 0.191092
O O2 0.549362 0.306529 0.278051
O O3 0.636320 0.161612 0.236718
O O4 0.395723 0.048988 0.275931
O O5 0.825656 0.307184 0.897597
O O6 0.000000 0.303237 0.833334
O O7 0.843284 0.098242 0.888558
O O8 0.079152 0.920849 0.166667
O O9 0.149891 0.876603 0.258374
O O10 0.000000 0.000000 0.245830
O O11 0.500000 0.500000 0.047104
O O12 0.535224 0.706574 0.998180
#
# Coordination Sequence:
#
# PCOD9584546 Si02
#       5
#    12  12  12  12  12
#     4  11  23  43  67 101 138 181 234 287 350 421
#     4  12  23  41  69 101 135 180 235 291 345 412
#     4  11  22  44  71  99 137 181 236 289 339 423
#     4  12  25  40  69 102 142 174 231 295 347 420
#     4  11  25  45  71 100 139 182 234 290 357 420
#
# _framework density 20.123007999999999
#
# number of rings (size 3 to 8) (size 9 to 14) (size 15 to 20)
#    0.000    0.600    8.000    1.200    0.000    2.400 
#    0.000    1.000    0.000    2.400    0.000    0.000 
#    0.000    0.000    0.000    0.000    0.000    0.000 
#
# Total GULP energy -335076.612540 kJ/mol
# GULP energy per Si atom -5584.610209 kJ/mol
# Density = 2.007721 g / cm^3
# Si number density = 20.123008 Si / 1000 Ang^3
#
#
#
# Elastic Constant Matrix: (Units=GPa)
#
#
# Indices 1 2 3 4 5 6 
#
# 1 120.6227 54.9460 50.4137 0.0000 0.0000 0.0000
# 2 54.9460 120.6227 50.4137 0.0000 0.0000 0.0000
# 3 50.4137 50.4137 79.3474 0.0000 0.0000 0.0000
# 4 0.0000 0.0000 0.0000 19.3307 0.0000 0.0000
# 5 0.0000 0.0000 0.0000 0.0000 19.3307 0.0000
# 6 0.0000 0.0000 0.0000 0.0000 0.0000 32.8384
#
#
#
# Elastic Compliance Matrix: (Units=1/GPa)
#
#
# Indices 1 2 3 4 5 6 
#
# 1 0.012097 -0.003129 -0.005698 0.000000 0.000000 0.000000
# 2 -0.003129 0.012097 -0.005698 0.000000 0.000000 0.000000
# 3 -0.005698 -0.005698 0.019843 0.000000 0.000000 0.000000
# 4 0.000000 0.000000 0.000000 0.051731 0.000000 0.000000
# 5 0.000000 0.000000 0.000000 0.000000 0.051731 0.000000
# 6 0.000000 0.000000 0.000000 0.000000 0.000000 0.030452
#
#
# Mechanical properties :
#
#
# Convention : Reuss Voigt Hill
#
# Bulk Modulus (GPa) = 66.72138 70.23772 68.47955
# Shear Modulus (GPa) = 23.58526 25.28795 24.43660
#
# Velocity S-wave (km/s) = 3.42724 3.54880 3.48855
# Velocity P-wave (km/s) = 6.99214 7.19527 7.09443
#
# Compressibility (1/GPa) = 0.01498770
#
# Stress axis : x y z
#
# Youngs Moduli (GPa) = 82.66488 82.66488 50.39537
#
# Poissons Ratio (x) = 0.25866 0.28714
# Poissons Ratio (y) = 0.25866 0.28714
# Poissons Ratio (z) = 0.47101 0.47101
#
# Static dielectric constant tensor:
#      x y z
#    x 1.655590 0.000000 0.000000 
#    y 0.000000 1.655590 0.000000 
#    z 0.000000 0.000000 1.728180 
# 
# From -- ./inp_files/11175.got.cif
#   From: 2010.05.17/outbox.cif.g08.bks.cpg/sg181_6_cif.got.tgz:11175.got - 2010.05.20 11:51:17.
