data_PCOD9584703
_publ_section_title
;
Structure prediction by ZEFSAII (Michael W. Deem and Ramdas Pophale) SiO2 
 PCOD9584703
Probable space group: P 63 2 2
;
_chemical_formula_sum "Si O2"
_cell_formula_units_Z 52
_cell_length_a 11.446908
_cell_length_b 11.446908
_cell_length_c 20.503764
_cell_angle_alpha 90.000000
_cell_angle_beta 90.000000
_cell_angle_gamma 120.000000
_cell_volume 2326.701184
_symmetry_space_group_name_H-M "P 63 2 2"
_symmetry_group_IT_number 182
_symmetry_cell_setting 'hexagonal'
loop_
_space_group_symop_operation_xyz
x,y,z
x-y,x,1/2+z
-y,x-y,z
-x,-y,1/2+z
-x+y,-x,z
y,-x+y,1/2+z
x-y,-y,-z
-x,-x+y,-z
y,x,-z
-y,-x,1/2-z
-x+y,y,1/2-z
x,x-y,1/2-z
loop_
_atom_site_type_symbol
_atom_site_label
_atom_site_fract_x
_atom_site_fract_y
_atom_site_fract_z
Si Si1 0.928630 0.344125 0.879295
Si Si2 0.000000 0.000000 0.919126
Si Si3 0.825809 0.712114 0.058192
Si Si4 0.941909 0.326448 0.600558
Si Si5 0.336187 0.397764 0.755387
O O1 0.815527 0.197097 0.904553
O O2 0.901593 0.459684 0.905688
O O3 0.078024 0.387686 0.905616
O O4 0.948430 0.338791 0.801813
O O5 0.063434 0.152571 0.898915
O O6 0.000000 0.000000 0.000000
O O7 0.933489 0.661037 0.056688
O O8 0.769061 0.769061 0.000000
O O9 0.994503 0.345342 0.674630
O O10 0.442099 0.557902 0.750000
O O11 0.184304 0.368607 0.750000
#
# Coordination Sequence:
#
# PCOD9584703 Si02
#       5
#    12   4  12  12  12
#     4  11  23  41  64  95 136 178 222 285 343 412
#     4   9  18  36  66  88 116 166 216 270 322 398
#     4  11  22  41  66  93 128 176 226 278 343 405
#     4  11  23  41  67  98 136 176 228 280 348 419
#     4  10  20  36  62  95 133 177 222 280 343 410
#
# _framework density 22.349239000000001
#
# number of rings (size 3 to 8) (size 9 to 14) (size 15 to 20)
#    0.000    1.385    4.615    1.385    0.000    0.000 
#    5.538    2.308    0.000    0.000    0.000    0.000 
#    0.000    0.000    0.000    0.000    0.000    0.000 
#
# Total GULP energy -289487.522312 kJ/mol
# GULP energy per Si atom -5567.067737 kJ/mol
# Density = 2.229837 g / cm^3
# Si number density = 22.349239 Si / 1000 Ang^3
#
#
#
# Elastic Constant Matrix: (Units=GPa)
#
#
# Indices 1 2 3 4 5 6 
#
# 1 99.1175 28.6203 21.4908 0.0000 0.0000 0.0000
# 2 28.6203 99.1175 21.4908 0.0000 0.0000 0.0000
# 3 21.4908 21.4908 68.9153 0.0000 0.0000 0.0000
# 4 0.0000 0.0000 0.0000 21.5582 0.0000 0.0000
# 5 0.0000 0.0000 0.0000 0.0000 21.5582 0.0000
# 6 0.0000 0.0000 0.0000 0.0000 0.0000 35.2486
#
#
#
# Elastic Compliance Matrix: (Units=1/GPa)
#
#
# Indices 1 2 3 4 5 6 
#
# 1 0.011466 -0.002719 -0.002727 0.000000 0.000000 0.000000
# 2 -0.002719 0.011466 -0.002727 0.000000 0.000000 0.000000
# 3 -0.002727 -0.002727 0.016212 0.000000 0.000000 0.000000
# 4 0.000000 0.000000 0.000000 0.046386 0.000000 0.000000
# 5 0.000000 0.000000 0.000000 0.000000 0.046386 0.000000
# 6 0.000000 0.000000 0.000000 0.000000 0.000000 0.028370
#
#
# Mechanical properties :
#
#
# Convention : Reuss Voigt Hill
#
# Bulk Modulus (GPa) = 43.87057 45.59492 44.73274
# Shear Modulus (GPa) = 27.13976 28.70958 27.92467
#
# Velocity S-wave (km/s) = 3.48853 3.58800 3.53862
# Velocity P-wave (km/s) = 5.99155 6.13273 6.06255
#
# Compressibility (1/GPa) = 0.02279432
#
# Stress axis : x y z
#
# Youngs Moduli (GPa) = 87.21728 87.21728 61.68399
#
# Poissons Ratio (x) = 0.23717 0.16824
# Poissons Ratio (y) = 0.23717 0.16824
# Poissons Ratio (z) = 0.23788 0.23788
#
# Static dielectric constant tensor:
#      x y z
#    x 1.856120 0.000000 0.000000 
#    y 0.000000 1.856120 0.000000 
#    z 0.000000 0.000000 1.859490 
# 
# From -- ./inp_files/4796.got.cif
#   From: 2010.05.17/outbox.cif.g08.bks.cpg/sg182_3_cif.got.tgz:4796.got - 2010.05.20 11:58:53.
