data_PCOD9584527
_publ_section_title
;
Structure prediction by ZEFSAII (Michael W. Deem and Ramdas Pophale) SiO2 
 PCOD9584527
Probable space group: P 64 2 2
;
_chemical_formula_sum "Si O2"
_cell_formula_units_Z 57
_cell_length_a 14.401060
_cell_length_b 14.401060
_cell_length_c 14.850167
_cell_angle_alpha 90.000000
_cell_angle_beta 90.000000
_cell_angle_gamma 120.000000
_cell_volume 2667.171175
_symmetry_space_group_name_H-M "P 64 2 2"
_symmetry_group_IT_number 181
_symmetry_cell_setting 'hexagonal'
loop_
_space_group_symop_operation_xyz
x,y,z
x-y,x,2/3+z
-y,x-y,1/3+z
-x,-y,z
-x+y,-x,2/3+z
y,-x+y,1/3+z
x-y,-y,-z
-x,-x+y,2/3-z
y,x,1/3-z
-y,-x,1/3-z
-x+y,y,-z
x,x-y,2/3-z
loop_
_atom_site_type_symbol
_atom_site_label
_atom_site_fract_x
_atom_site_fract_y
_atom_site_fract_z
Si Si1 0.538135 0.269068 0.833334
Si Si2 0.644042 0.680969 0.895071
Si Si3 0.500000 0.500000 0.666667
Si Si4 0.160159 0.488988 0.203608
Si Si5 0.666961 0.916665 0.568902
Si Si6 0.009088 0.843058 0.441609
O O1 0.460277 0.305144 0.882764
O O2 0.619229 0.235636 0.876341
O O3 0.643094 0.567973 0.880001
O O4 0.725004 0.756533 0.817071
O O5 0.681592 0.722552 0.995909
O O6 0.532473 0.606637 0.612949
O O7 0.228697 0.431777 0.222362
O O8 0.767372 0.902447 0.542781
O O9 0.663712 0.000000 0.500000
O O10 0.941213 0.882426 0.500000
O O11 0.000000 0.846373 0.333334
#
# Coordination Sequence:
#
# PCOD9584527 Si02
#       6
#     6  12   3  12  12  12
#     4  12  20  46  71 116 137 186 248 310 384 450
#     4  11  22  42  72 103 148 190 235 310 377 443
#     4  12  20  44  72 120 130 170 248 324 392 426
#     4  11  26  40  77 106 149 188 243 312 375 451
#     4  11  26  46  66  98 146 202 245 292 367 451
#     4  11  21  39  69 105 139 188 238 307 373 429
#
# _framework density 21.370958000000002
#
# number of rings (size 3 to 8) (size 9 to 14) (size 15 to 20)
#    0.000    0.842    5.263    1.263    5.895    3.789 
#    0.000   10.000    0.000    0.000    0.000    0.000 
#    0.000    0.000    0.000    0.000    0.000    0.000 
#
# Total GULP energy -317511.117412 kJ/mol
# GULP energy per Si atom -5570.370481 kJ/mol
# Density = 2.132232 g / cm^3
# Si number density = 21.370958 Si / 1000 Ang^3
#
#
#
# Elastic Constant Matrix: (Units=GPa)
#
#
# Indices 1 2 3 4 5 6 
#
# 1 56.8516 73.7771 52.4076 0.0000 0.0000 0.0000
# 2 73.7771 56.8516 52.4076 0.0000 0.0000 0.0000
# 3 52.4076 52.4076 119.7787 0.0000 0.0000 0.0000
# 4 0.0000 0.0000 0.0000 15.9633 0.0000 0.0000
# 5 0.0000 0.0000 0.0000 0.0000 15.9633 0.0000
# 6 0.0000 0.0000 0.0000 0.0000 0.0000 -8.4627
#
#
#
# Elastic Compliance Matrix: (Units=1/GPa)
#
#
# Indices 1 2 3 4 5 6 
#
# 1 -0.023643 0.035440 -0.005162 0.000000 0.000000 0.000000
# 2 0.035440 -0.023643 -0.005162 0.000000 0.000000 0.000000
# 3 -0.005162 -0.005162 0.012865 0.000000 0.000000 0.000000
# 4 0.000000 0.000000 0.000000 0.062644 0.000000 0.000000
# 5 0.000000 0.000000 0.000000 0.000000 0.062644 0.000000
# 6 0.000000 0.000000 0.000000 0.000000 0.000000 -0.118165
#
#
# Mechanical properties :
#
#
# Convention : Reuss Voigt Hill
#
# Bulk Modulus (GPa) = 63.23925 65.62959 64.43442
# Shear Modulus (GPa) = -69.19431 8.35210 -30.42110
#
# Velocity S-wave (km/s) = -5.69632 1.97905 -3.77699
# Velocity P-wave (km/s) = 3.68898 5.99988 3.34589
#
# Compressibility (1/GPa) = 0.01581297
#
# Stress axis : x y z
#
# Youngs Moduli (GPa) = -42.29612 -42.29612 77.72739
#
# Poissons Ratio (x) = 1.49896 0.40119
# Poissons Ratio (y) = 1.49896 0.40119
# Poissons Ratio (z) = -0.21831 -0.21831
#
# Static dielectric constant tensor:
#      x y z
#    x 1.834880 0.000000 0.000000 
#    y 0.000000 1.834880 0.000000 
#    z 0.000000 0.000000 1.805980 
# 
# From -- ./inp_files/6216.got.cif
#   From: 2010.05.17/outbox.cif.g08.bks.cpg/sg181_4_cif.got.tgz:6216.got - 2010.05.20 11:51:17.
