data_PCOD9584603
_publ_section_title
;
Structure prediction by ZEFSAII (Michael W. Deem and Ramdas Pophale) SiO2 
 PCOD9584603
Probable space group: P 63 2 2
;
_chemical_formula_sum "Si O2"
_cell_formula_units_Z 66
_cell_length_a 29.988104
_cell_length_b 29.988104
_cell_length_c 5.563455
_cell_angle_alpha 90.000000
_cell_angle_beta 90.000000
_cell_angle_gamma 120.000000
_cell_volume 4332.845746
_symmetry_space_group_name_H-M "P 63 2 2"
_symmetry_group_IT_number 182
_symmetry_cell_setting 'hexagonal'
loop_
_space_group_symop_operation_xyz
x,y,z
x-y,x,1/2+z
-y,x-y,z
-x,-y,1/2+z
-x+y,-x,z
y,-x+y,1/2+z
x-y,-y,-z
-x,-x+y,-z
y,x,-z
-y,-x,1/2-z
-x+y,y,1/2-z
x,x-y,1/2-z
loop_
_atom_site_type_symbol
_atom_site_label
_atom_site_fract_x
_atom_site_fract_y
_atom_site_fract_z
Si Si1 0.186923 0.909898 0.149987
Si Si2 0.111950 0.939171 0.990605
Si Si3 0.249334 0.000000 0.500000
Si Si4 0.525961 0.579517 0.250800
Si Si5 0.380307 0.444010 0.748736
Si Si6 0.287035 0.946553 0.870213
O O1 0.146083 0.853918 0.250000
O O2 0.155139 0.922271 0.954928
O O3 0.203741 0.958037 0.334690
O O4 0.239243 0.914416 0.049248
O O5 0.084836 0.915165 0.250000
O O6 0.078284 0.921717 0.750000
O O7 0.139308 0.000000 0.000000
O O8 0.263402 0.964405 0.660024
O O9 0.478377 0.521624 0.250000
O O10 0.578787 0.576981 0.251382
O O11 0.526716 0.607945 0.497351
O O12 0.524952 0.605996 0.001374
O O13 0.321985 0.397573 0.727862
O O14 0.326435 0.000000 0.000000
#
# Coordination Sequence:
#
# PCOD9584603 Si02
#       6
#    12  12   6  12  12  12
#     4  10  24  34  54  71  99 122 157 192 245 300
#     4  11  24  40  62  82 103 121 146 177 226 293
#     4  10  20  34  52  68  96 116 154 190 242 298
#     4  10  17  26  40  61  89 119 156 194 235 278
#     4  10  17  26  41  59  86 117 155 189 232 279
#     4  10  19  31  46  67  89 123 155 194 240 297
#
# _framework density 15.232483999999999
#
# number of rings (size 3 to 8) (size 9 to 14) (size 15 to 20)
#    0.000    1.818    1.818    6.000   12.727    0.000 
#    0.000    0.000    0.000    3.636    0.000    0.000 
#    0.000    0.000    0.000    0.000    0.000    0.000 
#
# Total GULP energy -367521.680225 kJ/mol
# GULP energy per Si atom -5568.510306 kJ/mol
# Density = 1.519781 g / cm^3
# Si number density = 15.232484 Si / 1000 Ang^3
#
#
#
# Elastic Constant Matrix: (Units=GPa)
#
#
# Indices 1 2 3 4 5 6 
#
# 1 71.3789 36.9699 28.5514 0.0000 0.0000 0.0000
# 2 36.9699 71.3789 28.5514 0.0000 0.0000 0.0000
# 3 28.5514 28.5514 111.9455 0.0000 0.0000 0.0000
# 4 0.0000 0.0000 0.0000 -123.4969 0.0000 0.0000
# 5 0.0000 0.0000 0.0000 0.0000 -123.4969 0.0000
# 6 0.0000 0.0000 0.0000 0.0000 0.0000 17.2045
#
#
#
# Elastic Compliance Matrix: (Units=1/GPa)
#
#
# Indices 1 2 3 4 5 6 
#
# 1 0.019862 -0.009200 -0.002719 0.000000 0.000000 0.000000
# 2 -0.009200 0.019862 -0.002719 0.000000 0.000000 0.000000
# 3 -0.002719 -0.002719 0.010320 0.000000 0.000000 0.000000
# 4 0.000000 0.000000 0.000000 -0.008097 0.000000 0.000000
# 5 0.000000 0.000000 0.000000 0.000000 -0.008097 0.000000
# 6 0.000000 0.000000 0.000000 0.000000 0.000000 0.058124
#
#
# Mechanical properties :
#
#
# Convention : Reuss Voigt Hill
#
# Bulk Modulus (GPa) = 48.15206 49.20542 48.67874
# Shear Modulus (GPa) = 39.00924 -35.24917 1.88003
#
# Velocity S-wave (km/s) = 5.06605 -4.81571 1.11216
# Velocity P-wave (km/s) = 8.11787 1.20487 5.80308
#
# Compressibility (1/GPa) = 0.02076754
#
# Stress axis : x y z
#
# Youngs Moduli (GPa) = 50.34622 50.34622 96.89813
#
# Poissons Ratio (x) = 0.46317 0.26351
# Poissons Ratio (y) = 0.46317 0.26351
# Poissons Ratio (z) = 0.13692 0.13692
#
# Static dielectric constant tensor:
#      x y z
#    x 1.553520 0.000000 0.000000 
#    y 0.000000 1.553520 0.000000 
#    z 0.000000 0.000000 1.689910 
# 
# From -- ./inp_files/792.got.cif
#   From: 2010.05.17/outbox.cif.g08.bks.cpg/sg182_1_cif.got.tgz:792.got - 2010.05.20 11:58:53.
