data_PCOD9584276
_publ_section_title
;
Structure prediction by ZEFSAII (Michael W. Deem and Ramdas Pophale) SiO2 
 PCOD9584276
Probable space group: P 64 2 2
;
_chemical_formula_sum "Si O2"
_cell_formula_units_Z 72
_cell_length_a 15.325234
_cell_length_b 15.325234
_cell_length_c 19.301373
_cell_angle_alpha 90.000000
_cell_angle_beta 90.000000
_cell_angle_gamma 120.000000
_cell_volume 3925.844235
_symmetry_space_group_name_H-M "P 64 2 2"
_symmetry_group_IT_number 181
_symmetry_cell_setting 'hexagonal'
loop_
_space_group_symop_operation_xyz
x,y,z
x-y,x,2/3+z
-y,x-y,1/3+z
-x,-y,z
-x+y,-x,2/3+z
y,-x+y,1/3+z
x-y,-y,-z
-x,-x+y,2/3-z
y,x,1/3-z
-y,-x,1/3-z
-x+y,y,-z
x,x-y,2/3-z
loop_
_atom_site_type_symbol
_atom_site_label
_atom_site_fract_x
_atom_site_fract_y
_atom_site_fract_z
Si Si1 0.000000 0.500000 0.717369
Si Si2 0.722965 0.237234 0.088007
Si Si3 0.662904 0.777067 0.644398
Si Si4 0.497338 0.400894 0.555910
Si Si5 0.813574 0.627147 0.000000
Si Si6 0.691857 0.982947 0.580567
Si Si7 0.470792 0.845415 0.265904
O O1 0.028244 0.421005 0.752701
O O2 0.088943 0.572171 0.666169
O O3 0.760488 0.239513 0.166667
O O4 0.603187 0.189266 0.087949
O O5 0.767252 0.353124 0.068856
O O6 0.755960 0.173155 0.039895
O O7 0.748688 0.748688 0.666667
O O8 0.597213 0.696092 0.585752
O O9 0.692337 0.885949 0.613111
O O10 0.500000 0.500000 0.583142
O O11 0.499385 0.403649 0.472966
O O12 0.764442 0.687493 0.035704
O O13 0.807581 0.549848 0.058879
O O14 0.725355 0.000000 0.500000
#
# Coordination Sequence:
#
# PCOD9584276 Si02
#       7
#     6  12  12  12   6  12  12
#     4  10  19  36  66  88 131 166 210 266 322 389
#     4  10  22  36  56  91 131 168 207 253 322 399
#     4  12  24  40  64  95 128 174 214 273 323 393
#     4  11  21  34  59  90 131 162 208 253 328 384
#     4  10  24  40  65  86 125 174 220 270 328 372
#     4  11  24  44  65  97 129 171 226 276 326 385
#     4  10  20  37  57  89 124 172 206 259 318 391
#
# _framework density 18.340004
#
# number of rings (size 3 to 8) (size 9 to 14) (size 15 to 20)
#    0.000    1.333    4.167    1.750    2.333    0.000 
#    3.000    3.750    0.000    1.000    0.000    0.000 
#    0.000    0.000    0.000    0.000    0.000    0.000 
#
# Total GULP energy -401306.501980 kJ/mol
# GULP energy per Si atom -5573.701416 kJ/mol
# Density = 1.829826 g / cm^3
# Si number density = 18.340004 Si / 1000 Ang^3
#
#
#
# Elastic Constant Matrix: (Units=GPa)
#
#
# Indices 1 2 3 4 5 6 
#
# 1 119.0400 68.8738 39.9216 0.0000 0.0000 0.0000
# 2 68.8738 119.0400 39.9216 0.0000 0.0000 0.0000
# 3 39.9216 39.9216 79.8811 0.0000 0.0000 0.0000
# 4 0.0000 0.0000 0.0000 11.6151 0.0000 0.0000
# 5 0.0000 0.0000 0.0000 0.0000 11.6151 0.0000
# 6 0.0000 0.0000 0.0000 0.0000 0.0000 25.0831
#
#
#
# Elastic Compliance Matrix: (Units=1/GPa)
#
#
# Indices 1 2 3 4 5 6 
#
# 1 0.013345 -0.006589 -0.003377 0.000000 0.000000 0.000000
# 2 -0.006589 0.013345 -0.003377 0.000000 0.000000 0.000000
# 3 -0.003377 -0.003377 0.015894 0.000000 0.000000 0.000000
# 4 0.000000 0.000000 0.000000 0.086095 0.000000 0.000000
# 5 0.000000 0.000000 0.000000 0.000000 0.086095 0.000000
# 6 0.000000 0.000000 0.000000 0.000000 0.000000 0.039868
#
#
# Mechanical properties :
#
#
# Convention : Reuss Voigt Hill
#
# Bulk Modulus (GPa) = 62.89333 68.37723 65.63528
# Shear Modulus (GPa) = 17.44446 20.94560 19.19503
#
# Velocity S-wave (km/s) = 3.08745 3.38312 3.23866
# Velocity P-wave (km/s) = 6.86128 7.25429 7.06052
#
# Compressibility (1/GPa) = 0.01589994
#
# Stress axis : x y z
#
# Youngs Moduli (GPa) = 74.93443 74.93443 62.91872
#
# Poissons Ratio (x) = 0.49372 0.21245
# Poissons Ratio (y) = 0.49372 0.21245
# Poissons Ratio (z) = 0.25302 0.25302
#
# Static dielectric constant tensor:
#      x y z
#    x 1.786730 0.000000 0.000000 
#    y 0.000000 1.786730 0.000000 
#    z 0.000000 0.000000 1.628910 
# 
# From -- ./inp_files/9115.got.cif
#   From: 2010.05.17/outbox.cif.g08.bks.cpg/sg181_5_cif.got.tgz:9115.got - 2010.05.20 11:51:17.
