data_PCOD9584371
_publ_section_title
;
Structure prediction by ZEFSAII (Michael W. Deem and Ramdas Pophale) SiO2 
 PCOD9584371
Probable space group: P 64 2 2
;
_chemical_formula_sum "Si O2"
_cell_formula_units_Z 54
_cell_length_a 14.011898
_cell_length_b 14.011898
_cell_length_c 13.681587
_cell_angle_alpha 90.000000
_cell_angle_beta 90.000000
_cell_angle_gamma 120.000000
_cell_volume 2326.274942
_symmetry_space_group_name_H-M "P 64 2 2"
_symmetry_group_IT_number 181
_symmetry_cell_setting 'hexagonal'
loop_
_space_group_symop_operation_xyz
x,y,z
x-y,x,2/3+z
-y,x-y,1/3+z
-x,-y,z
-x+y,-x,2/3+z
y,-x+y,1/3+z
x-y,-y,-z
-x,-x+y,2/3-z
y,x,1/3-z
-y,-x,1/3-z
-x+y,y,-z
x,x-y,2/3-z
loop_
_atom_site_type_symbol
_atom_site_label
_atom_site_fract_x
_atom_site_fract_y
_atom_site_fract_z
Si Si1 0.213209 0.827815 0.968569
Si Si2 0.091088 0.210985 0.150080
Si Si3 0.312244 0.024345 0.336090
Si Si4 0.510976 0.116764 0.190265
Si Si5 0.758012 0.516023 0.500000
O O1 0.177561 0.909167 0.917227
O O2 0.308455 0.836136 0.898913
O O3 0.250710 0.839760 0.080313
O O4 0.096067 0.713683 0.966397
O O5 0.105345 0.105345 0.166667
O O6 0.005218 0.215385 0.075792
O O7 0.205644 0.293346 0.091418
O O8 0.426988 0.090436 0.280168
O O9 0.638099 0.198787 0.211846
O O10 0.500000 0.000000 0.162648
#
# Coordination Sequence:
#
# PCOD9584371 Si02
#       5
#    12  12  12  12   6
#     4  10  21  38  59  90 122 173 221 257 331 401
#     4   8  16  33  63  94 125 162 212 269 328 386
#     4   9  17  38  62  90 129 169 214 268 329 397
#     4  11  23  43  63  88 133 170 217 282 331 394
#     4  12  24  40  58  88 126 174 226 264 324 390
#
# _framework density 23.213076999999998
#
# number of rings (size 3 to 8) (size 9 to 14) (size 15 to 20)
#    0.000    2.222    2.222    0.667    0.000    1.778 
#   16.000    0.000    0.000    0.000    0.000    0.778 
#    6.667    0.000    0.000    0.000    0.000    0.000 
#
# Total GULP energy -301272.051183 kJ/mol
# GULP energy per Si atom -5579.112059 kJ/mol
# Density = 2.316024 g / cm^3
# Si number density = 23.213077 Si / 1000 Ang^3
#
#
#
# Elastic Constant Matrix: (Units=GPa)
#
#
# Indices 1 2 3 4 5 6 
#
# 1 93.9358 50.5307 35.1523 0.0000 0.0000 0.0000
# 2 50.5307 93.9358 35.1523 0.0000 0.0000 0.0000
# 3 35.1523 35.1523 133.2937 0.0000 0.0000 0.0000
# 4 0.0000 0.0000 0.0000 32.9355 0.0000 0.0000
# 5 0.0000 0.0000 0.0000 0.0000 32.9355 0.0000
# 6 0.0000 0.0000 0.0000 0.0000 0.0000 21.7026
#
#
#
# Elastic Compliance Matrix: (Units=1/GPa)
#
#
# Indices 1 2 3 4 5 6 
#
# 1 0.015490 -0.007549 -0.002094 0.000000 0.000000 0.000000
# 2 -0.007549 0.015490 -0.002094 0.000000 0.000000 0.000000
# 3 -0.002094 -0.002094 0.008607 0.000000 0.000000 0.000000
# 4 0.000000 0.000000 0.000000 0.030362 0.000000 0.000000
# 5 0.000000 0.000000 0.000000 0.000000 0.030362 0.000000
# 6 0.000000 0.000000 0.000000 0.000000 0.000000 0.046077
#
#
# Mechanical properties :
#
#
# Convention : Reuss Voigt Hill
#
# Bulk Modulus (GPa) = 62.06484 62.53733 62.30109
# Shear Modulus (GPa) = 28.53324 30.87006 29.70165
#
# Velocity S-wave (km/s) = 3.50978 3.65068 3.58092
# Velocity P-wave (km/s) = 6.57418 6.69096 6.63283
#
# Compressibility (1/GPa) = 0.01611218
#
# Stress axis : x y z
#
# Youngs Moduli (GPa) = 64.55796 64.55796 116.18685
#
# Poissons Ratio (x) = 0.48733 0.24332
# Poissons Ratio (y) = 0.48733 0.24332
# Poissons Ratio (z) = 0.13520 0.13520
#
# Static dielectric constant tensor:
#      x y z
#    x 1.887780 0.000000 0.000000 
#    y 0.000000 1.887780 0.000000 
#    z 0.000000 0.000000 1.894050 
# 
# From -- ./inp_files/5970.got.cif
#   From: 2010.05.17/outbox.cif.g08.bks.cpg/sg181_3_cif.got.tgz:5970.got - 2010.05.20 11:51:17.
