data_PCOD9584508
_publ_section_title
;
Structure prediction by ZEFSAII (Michael W. Deem and Ramdas Pophale) SiO2 
 PCOD9584508
Probable space group: P 64 2 2
;
_chemical_formula_sum "Si O2"
_cell_formula_units_Z 54
_cell_length_a 10.610670
_cell_length_b 10.610670
_cell_length_c 27.569569
_cell_angle_alpha 90.000000
_cell_angle_beta 90.000000
_cell_angle_gamma 120.000000
_cell_volume 2688.104972
_symmetry_space_group_name_H-M "P 64 2 2"
_symmetry_group_IT_number 181
_symmetry_cell_setting 'hexagonal'
loop_
_space_group_symop_operation_xyz
x,y,z
x-y,x,2/3+z
-y,x-y,1/3+z
-x,-y,z
-x+y,-x,2/3+z
y,-x+y,1/3+z
x-y,-y,-z
-x,-x+y,2/3-z
y,x,1/3-z
-y,-x,1/3-z
-x+y,y,-z
x,x-y,2/3-z
loop_
_atom_site_type_symbol
_atom_site_label
_atom_site_fract_x
_atom_site_fract_y
_atom_site_fract_z
Si Si1 0.307301 0.514712 0.901192
Si Si2 0.220168 0.485753 0.720055
Si Si3 0.500000 0.500000 0.982104
Si Si4 0.500000 0.500000 0.666667
Si Si5 0.768774 0.231227 0.166667
Si Si6 0.222482 0.913063 0.856464
Si Si7 0.000000 0.000000 0.500000
O O1 0.236363 0.600204 0.926241
O O2 0.368712 0.466467 0.945788
O O3 0.438851 0.645126 0.871345
O O4 0.224924 0.386221 0.861686
O O5 0.097028 0.450540 0.679898
O O6 0.359456 0.479377 0.697500
O O7 0.193224 0.393328 0.768308
O O8 0.927840 0.295607 0.190887
O O9 0.100976 0.957813 0.862655
#
# Coordination Sequence:
#
# PCOD9584508 Si02
#       7
#    12  12   6   3   6  12   3
#     4  12  22  43  69 105 134 188 240 313 374 453
#     4  12  26  42  69 107 143 191 240 318 384 465
#     4  12  26  43  65 106 154 183 231 302 406 454
#     4  12  24  42  72 106 144 174 246 312 374 436
#     4  11  20  39  74 105 126 177 258 314 374 421
#     4  11  24  43  71  92 144 182 255 298 367 452
#     4  10  28  44  62 102 128 198 240 302 348 458
#
# _framework density 20.0885
#
# number of rings (size 3 to 8) (size 9 to 14) (size 15 to 20)
#    0.000    0.444    6.667    1.333    3.111    0.000 
#    0.000    0.000    0.000    0.000    0.000    0.000 
#    0.000    0.000    0.000    0.000    0.000    0.000 
#
# Total GULP energy -300910.434984 kJ/mol
# GULP energy per Si atom -5572.415463 kJ/mol
# Density = 2.004278 g / cm^3
# Si number density = 20.088500 Si / 1000 Ang^3
#
#
#
# Elastic Constant Matrix: (Units=GPa)
#
#
# Indices 1 2 3 4 5 6 
#
# 1 27.4919 125.9296 69.0776 0.0000 0.0000 0.0000
# 2 125.9296 27.4919 69.0776 0.0000 0.0000 0.0000
# 3 69.0776 69.0776 146.5563 0.0000 0.0000 0.0000
# 4 0.0000 0.0000 0.0000 54.9750 0.0000 0.0000
# 5 0.0000 0.0000 0.0000 0.0000 54.9750 0.0000
# 6 0.0000 0.0000 0.0000 0.0000 0.0000 -49.2188
#
#
#
# Elastic Compliance Matrix: (Units=1/GPa)
#
#
# Indices 1 2 3 4 5 6 
#
# 1 0.000583 0.010742 -0.005338 0.000000 0.000000 0.000000
# 2 0.010742 0.000583 -0.005338 0.000000 0.000000 0.000000
# 3 -0.005338 -0.005338 0.011855 0.000000 0.000000 0.000000
# 4 0.000000 0.000000 0.000000 0.018190 0.000000 0.000000
# 5 0.000000 0.000000 0.000000 0.000000 0.018190 0.000000
# 6 0.000000 0.000000 0.000000 0.000000 0.000000 -0.020317
#
#
# Mechanical properties :
#
#
# Convention : Reuss Voigt Hill
#
# Bulk Modulus (GPa) = 76.02622 81.07889 78.55256
# Shear Modulus (GPa) = 149.98963 7.97658 78.98310
#
# Velocity S-wave (km/s) = 8.65023 1.99483 6.27718
# Velocity P-wave (km/s) = 11.73441 6.76419 9.57734
#
# Compressibility (1/GPa) = 0.01315336
#
# Stress axis : x y z
#
# Youngs Moduli (GPa) = 1715.48923 1715.48908 84.35229
#
# Poissons Ratio (x) = -18.42716 0.45025
# Poissons Ratio (y) = -18.42716 0.45025
# Poissons Ratio (z) = 9.15677 9.15677
#
# Static dielectric constant tensor:
#      x y z
#    x 1.788510 0.000000 0.000000 
#    y 0.000000 1.788510 0.000000 
#    z 0.000000 0.000000 1.762230 
# 
# From -- ./inp_files/11135.got.cif
#   From: 2010.05.17/outbox.cif.g08.bks.cpg/sg181_6_cif.got.tgz:11135.got - 2010.05.20 11:51:17.
