data_PCOD9584096
_publ_section_title
;
Structure prediction by ZEFSAII (Michael W. Deem and Ramdas Pophale) SiO2 
 PCOD9584096
Probable space group: P 62 2 2
;
_chemical_formula_sum "Si O2"
_cell_formula_units_Z 51
_cell_length_a 11.590013
_cell_length_b 11.590013
_cell_length_c 19.442102
_cell_angle_alpha 90.000000
_cell_angle_beta 90.000000
_cell_angle_gamma 120.000000
_cell_volume 2261.734877
_symmetry_space_group_name_H-M "P 62 2 2"
_symmetry_group_IT_number 180
_symmetry_cell_setting 'hexagonal'
loop_
_space_group_symop_operation_xyz
x,y,z
x-y,x,1/3+z
-y,x-y,2/3+z
-x,-y,z
-x+y,-x,1/3+z
y,-x+y,2/3+z
x-y,-y,-z
-x,-x+y,1/3-z
y,x,2/3-z
-y,-x,2/3-z
-x+y,y,-z
x,x-y,1/3-z
loop_
_atom_site_type_symbol
_atom_site_label
_atom_site_fract_x
_atom_site_fract_y
_atom_site_fract_z
Si Si1 0.766231 0.210565 0.914716
Si Si2 0.500000 0.500000 0.333334
Si Si3 0.713375 0.577371 0.794258
Si Si4 0.266154 0.543465 0.074412
Si Si5 0.212977 0.054993 0.341428
O O1 0.787728 0.212273 0.833334
O O2 0.762154 0.343932 0.928541
O O3 0.893678 0.217542 0.949744
O O4 0.629466 0.092673 0.951234
O O5 0.620868 0.620868 0.833334
O O6 0.625526 0.438235 0.753915
O O7 0.783387 0.544970 0.857309
O O8 0.801208 0.699883 0.744498
O O9 0.237928 0.475855 0.000000
O O10 0.140226 0.140226 0.333334
O O11 0.096463 0.903538 0.333334
#
# Coordination Sequence:
#
# PCOD9584096 Si02
#       5
#    12   3  12  12  12
#     4  12  24  44  81 118 154 208 267 345 412 489
#     4  12  24  48  78 116 172 196 270 352 416 500
#     4  11  24  45  75 109 160 208 254 337 410 483
#     4  11  21  42  75 117 155 200 256 333 424 491
#     4  11  26  50  76 107 154 217 274 328 396 491
#
# _framework density 22.549063
#
# number of rings (size 3 to 8) (size 9 to 14) (size 15 to 20)
#    0.000    0.706    7.059    1.412    0.000    2.824 
#    0.000    4.706    0.000    0.000    0.000    0.000 
#    0.000    0.000    0.000    0.000    0.000    0.000 
#
# Total GULP energy -285014.601736 kJ/mol
# GULP energy per Si atom -5588.521603 kJ/mol
# Density = 2.249774 g / cm^3
# Si number density = 22.549063 Si / 1000 Ang^3
#
#
#
# Elastic Constant Matrix: (Units=GPa)
#
#
# Indices 1 2 3 4 5 6 
#
# 1 -24.6529 232.2136 75.0196 0.0000 0.0000 0.0000
# 2 232.2136 -24.6529 75.0196 0.0000 0.0000 0.0000
# 3 75.0196 75.0196 226.4725 0.0000 0.0000 0.0000
# 4 0.0000 0.0000 0.0000 39.0198 0.0000 0.0000
# 5 0.0000 0.0000 0.0000 0.0000 39.0198 0.0000
# 6 0.0000 0.0000 0.0000 0.0000 0.0000 -128.4333
#
#
#
# Elastic Compliance Matrix: (Units=1/GPa)
#
#
# Indices 1 2 3 4 5 6 
#
# 1 0.001221 0.005114 -0.002098 0.000000 0.000000 0.000000
# 2 0.005114 0.001221 -0.002098 0.000000 0.000000 0.000000
# 3 -0.002098 -0.002098 0.005806 0.000000 0.000000 0.000000
# 4 0.000000 0.000000 0.000000 0.025628 0.000000 0.000000
# 5 0.000000 0.000000 0.000000 0.000000 0.025628 0.000000
# 6 0.000000 0.000000 0.000000 0.000000 0.000000 -0.007786
#
#
# Mechanical properties :
#
#
# Convention : Reuss Voigt Hill
#
# Bulk Modulus (GPa) = 99.19033 104.63025 101.91029
# Shear Modulus (GPa) = 93.90788 -23.75116 35.07836
#
# Velocity S-wave (km/s) = 6.46037 -3.24900 3.94845
# Velocity P-wave (km/s) = 9.98663 5.69449 8.12896
#
# Compressibility (1/GPa) = 0.01008163
#
# Stress axis : x y z
#
# Youngs Moduli (GPa) = 819.11340 819.11341 172.24309
#
# Poissons Ratio (x) = -4.18887 0.36143
# Poissons Ratio (y) = -4.18887 0.36143
# Poissons Ratio (z) = 1.71883 1.71883
#
# Static dielectric constant tensor:
#      x y z
#    x 1.883300 0.000000 0.000000 
#    y 0.000000 1.883300 0.000000 
#    z 0.000000 0.000000 1.912660 
# 
# From -- ./inp_files/8894.got.cif
#   From: 2010.05.17/outbox.cif.g08.bks.cpg/sg180_5_cif.got.tgz:8894.got - 2010.05.20 11:43:55.
