data_PCOD9584131
_publ_section_title
;
Structure prediction by ZEFSAII (Michael W. Deem and Ramdas Pophale) SiO2 
 PCOD9584131
Probable space group: P 62 2 2
;
_chemical_formula_sum "Si O2"
_cell_formula_units_Z 48
_cell_length_a 14.597399
_cell_length_b 14.597399
_cell_length_c 12.127130
_cell_angle_alpha 90.000000
_cell_angle_beta 90.000000
_cell_angle_gamma 120.000000
_cell_volume 2237.894572
_symmetry_space_group_name_H-M "P 62 2 2"
_symmetry_group_IT_number 180
_symmetry_cell_setting 'hexagonal'
loop_
_space_group_symop_operation_xyz
x,y,z
x-y,x,1/3+z
-y,x-y,2/3+z
-x,-y,z
-x+y,-x,1/3+z
y,-x+y,2/3+z
x-y,-y,-z
-x,-x+y,1/3-z
y,x,2/3-z
-y,-x,2/3-z
-x+y,y,-z
x,x-y,1/3-z
loop_
_atom_site_type_symbol
_atom_site_label
_atom_site_fract_x
_atom_site_fract_y
_atom_site_fract_z
Si Si1 0.970288 0.850474 0.792004
Si Si2 0.861198 0.623938 0.883632
Si Si3 0.445920 0.373868 0.140897
Si Si4 0.275074 0.510984 0.331287
O O1 0.914173 0.914173 0.833334
O O2 0.887230 0.733000 0.826356
O O3 0.000000 0.868801 0.666667
O O4 0.091667 0.908334 0.833334
O O5 0.797435 0.533791 0.792302
O O6 0.980866 0.648164 0.900079
O O7 0.802375 0.604750 0.000000
O O8 0.500000 0.500000 0.158987
O O9 0.495672 0.328955 0.051020
O O10 0.450486 0.317667 0.254514
O O11 0.367101 0.632900 0.333334
#
# Coordination Sequence:
#
# PCOD9584131 Si02
#       4
#    12  12  12  12
#     4  11  23  40  63 100 147 196 243 301 373 453
#     4  12  27  44  73 109 153 192 256 319 390 467
#     4  11  25  48  78 112 143 200 260 318 390 470
#     4  11  25  49  82 108 151 204 263 325 395 471
#
# _framework density 21.448732
#
# number of rings (size 3 to 8) (size 9 to 14) (size 15 to 20)
#    0.000    0.750    2.500    5.250   10.500    1.000 
#    0.000    1.250    0.000    0.000    0.000    0.000 
#    0.000    0.000    0.000    0.000    0.000    0.000 
#
# Total GULP energy -267739.283360 kJ/mol
# GULP energy per Si atom -5577.901737 kJ/mol
# Density = 2.139991 g / cm^3
# Si number density = 21.448732 Si / 1000 Ang^3
#
#
#
# Elastic Constant Matrix: (Units=GPa)
#
#
# Indices 1 2 3 4 5 6 
#
# 1 101.8665 41.6470 58.5718 0.0000 0.0000 0.0000
# 2 41.6470 101.8665 58.5718 0.0000 0.0000 0.0000
# 3 58.5718 58.5718 203.8532 0.0000 0.0000 0.0000
# 4 0.0000 0.0000 0.0000 33.7680 0.0000 0.0000
# 5 0.0000 0.0000 0.0000 0.0000 33.7680 0.0000
# 6 0.0000 0.0000 0.0000 0.0000 0.0000 30.1098
#
#
#
# Elastic Compliance Matrix: (Units=1/GPa)
#
#
# Indices 1 2 3 4 5 6 
#
# 1 0.012854 -0.003752 -0.002615 0.000000 0.000000 0.000000
# 2 -0.003752 0.012854 -0.002615 0.000000 0.000000 0.000000
# 3 -0.002615 -0.002615 0.006408 0.000000 0.000000 0.000000
# 4 0.000000 0.000000 0.000000 0.029614 0.000000 0.000000
# 5 0.000000 0.000000 0.000000 0.000000 0.029614 0.000000
# 6 0.000000 0.000000 0.000000 0.000000 0.000000 0.033212
#
#
# Mechanical properties :
#
#
# Convention : Reuss Voigt Hill
#
# Bulk Modulus (GPa) = 70.65974 80.57419 75.61697
# Shear Modulus (GPa) = 33.95837 36.11552 35.03694
#
# Velocity S-wave (km/s) = 3.98330 4.10787 4.04607
# Velocity P-wave (km/s) = 7.36007 7.75545 7.56035
#
# Compressibility (1/GPa) = 0.01415233
#
# Stress axis : x y z
#
# Youngs Moduli (GPa) = 77.79441 77.79441 156.04363
#
# Poissons Ratio (x) = 0.29185 0.40813
# Poissons Ratio (y) = 0.29185 0.40813
# Poissons Ratio (z) = 0.20347 0.20347
#
# Static dielectric constant tensor:
#      x y z
#    x 1.870520 0.000000 0.000000 
#    y 0.000000 1.870520 0.000000 
#    z 0.000000 0.000000 1.721470 
# 
# From -- ./inp_files/4412.got.cif
#   From: 2010.05.17/outbox.cif.g08.bks.cpg/sg180_3_cif.got.tgz:4412.got - 2010.05.20 11:43:55.
