data_PCOD9584741
_publ_section_title
;
Structure prediction by ZEFSAII (Michael W. Deem and Ramdas Pophale) SiO2 
 PCOD9584741
Probable space group: P 63 2 2
;
_chemical_formula_sum "Si O2"
_cell_formula_units_Z 70
_cell_length_a 14.792880
_cell_length_b 14.792880
_cell_length_c 17.995353
_cell_angle_alpha 90.000000
_cell_angle_beta 90.000000
_cell_angle_gamma 120.000000
_cell_volume 3410.330511
_symmetry_space_group_name_H-M "P 63 2 2"
_symmetry_group_IT_number 182
_symmetry_cell_setting 'hexagonal'
loop_
_space_group_symop_operation_xyz
x,y,z
x-y,x,1/2+z
-y,x-y,z
-x,-y,1/2+z
-x+y,-x,z
y,-x+y,1/2+z
x-y,-y,-z
-x,-x+y,-z
y,x,-z
-y,-x,1/2-z
-x+y,y,1/2-z
x,x-y,1/2-z
loop_
_atom_site_type_symbol
_atom_site_label
_atom_site_fract_x
_atom_site_fract_y
_atom_site_fract_z
Si Si1 0.186626 0.764741 0.453266
Si Si2 0.781390 0.216916 0.119450
Si Si3 0.426816 0.910856 0.440042
Si Si4 0.144231 0.288462 0.750000
Si Si5 0.666668 0.333334 0.159246
Si Si6 0.534231 0.571647 0.815712
Si Si7 0.232666 0.305534 0.307829
O O1 0.196316 0.807969 0.537193
O O2 0.307859 0.821935 0.430370
O O3 0.138164 0.639297 0.458335
O O4 0.118209 0.784991 0.392218
O O5 0.778444 0.141778 0.184922
O O6 0.688760 0.243811 0.126800
O O7 0.881585 0.328366 0.138970
O O8 0.447171 0.000000 0.500000
O O9 0.471147 0.975835 0.365404
O O10 0.195625 0.228498 0.709002
O O11 0.666668 0.333334 0.250000
O O12 0.454198 0.545803 0.750000
O O13 0.649810 0.604964 0.788804
O O14 0.156270 0.312539 0.250000
#
# Coordination Sequence:
#
# PCOD9584741 Si02
#       7
#    12  12  12   6   4  12  12
#     4  11  23  39  64  91 136 176 226 274 335 415
#     4  11  22  36  58  93 132 176 212 267 333 401
#     4  11  22  39  61  93 131 176 223 274 330 399
#     4  10  24  40  64  86 124 158 220 280 342 398
#     4  12  21  33  57  96 145 185 220 261 324 414
#     4  10  21  36  60  86 129 167 207 265 320 382
#     4  10  23  43  64  90 121 164 219 276 337 401
#
# _framework density 20.525870000000001
#
# number of rings (size 3 to 8) (size 9 to 14) (size 15 to 20)
#    0.000    1.371    2.571    2.914    2.400    1.371 
#    0.514    0.000    0.000    5.486    0.000    0.000 
#    0.000    0.000    0.000    0.000    0.000    0.000 
#
# Total GULP energy -390708.316842 kJ/mol
# GULP energy per Si atom -5581.547383 kJ/mol
# Density = 2.047915 g / cm^3
# Si number density = 20.525870 Si / 1000 Ang^3
#
#
#
# Elastic Constant Matrix: (Units=GPa)
#
#
# Indices 1 2 3 4 5 6 
#
# 1 75.0037 20.1408 39.8052 0.0000 0.0000 0.0001
# 2 20.1408 75.0040 39.8053 0.0000 0.0000 0.0001
# 3 39.8052 39.8053 130.1967 0.0000 0.0000 0.0001
# 4 0.0000 0.0000 0.0000 30.3317 0.0000 0.0000
# 5 0.0000 0.0000 0.0000 0.0000 30.3316 0.0000
# 6 0.0001 0.0001 0.0001 0.0000 0.0000 27.4316
#
#
#
# Elastic Compliance Matrix: (Units=1/GPa)
#
#
# Indices 1 2 3 4 5 6 
#
# 1 0.016175 -0.002052 -0.004318 0.000000 0.000000 0.000000
# 2 -0.002052 0.016175 -0.004318 0.000000 0.000000 0.000000
# 3 -0.004318 -0.004318 0.010321 0.000000 0.000000 0.000000
# 4 0.000000 0.000000 0.000000 0.032969 0.000000 0.000000
# 5 0.000000 0.000000 0.000000 0.000000 0.032969 0.000000
# 6 0.000000 0.000000 0.000000 0.000000 0.000000 0.036454
#
#
# Mechanical properties :
#
#
# Convention : Reuss Voigt Hill
#
# Bulk Modulus (GPa) = 46.95772 53.30076 50.12924
# Shear Modulus (GPa) = 28.81218 29.64918 29.23068
#
# Velocity S-wave (km/s) = 3.75066 3.80475 3.77781
# Velocity P-wave (km/s) = 6.45629 6.73242 6.59580
#
# Compressibility (1/GPa) = 0.02129575
#
# Stress axis : x y z
#
# Youngs Moduli (GPa) = 61.82284 61.82305 96.89041
#
# Poissons Ratio (x) = 0.12686 0.41837
# Poissons Ratio (y) = 0.12686 0.41837
# Poissons Ratio (z) = 0.26695 0.26695
#
# Static dielectric constant tensor:
#      x y z
#    x 1.763300 0.000000 0.000000 
#    y 0.000000 1.763300 0.000000 
#    z 0.000000 0.000000 1.777590 
# 
# From -- ./inp_files/4386.got.cif
#   From: 2010.05.17/outbox.cif.g08.bks.cpg/sg182_3_cif.got.tgz:4386.got - 2010.05.20 11:58:53.
