data_PCOD9584262
_publ_section_title
;
Structure prediction by ZEFSAII (Michael W. Deem and Ramdas Pophale) SiO2 
 PCOD9584262
Probable space group: P 64 2 2
;
_chemical_formula_sum "Si O2"
_cell_formula_units_Z 96
_cell_length_a 14.850491
_cell_length_b 14.850491
_cell_length_c 26.462558
_cell_angle_alpha 90.000000
_cell_angle_beta 90.000000
_cell_angle_gamma 120.000000
_cell_volume 5054.102908
_symmetry_space_group_name_H-M "P 64 2 2"
_symmetry_group_IT_number 181
_symmetry_cell_setting 'hexagonal'
loop_
_space_group_symop_operation_xyz
x,y,z
x-y,x,2/3+z
-y,x-y,1/3+z
-x,-y,z
-x+y,-x,2/3+z
y,-x+y,1/3+z
x-y,-y,-z
-x,-x+y,2/3-z
y,x,1/3-z
-y,-x,1/3-z
-x+y,y,-z
x,x-y,2/3-z
loop_
_atom_site_type_symbol
_atom_site_label
_atom_site_fract_x
_atom_site_fract_y
_atom_site_fract_z
Si Si1 0.670291 0.759770 0.698541
Si Si2 0.277678 0.397647 0.287515
Si Si3 0.799724 0.406116 0.647573
Si Si4 0.541345 0.751744 0.887781
Si Si5 0.246313 0.245960 0.883081
Si Si6 0.367897 0.080898 0.319137
Si Si7 0.830848 0.108923 0.474162
Si Si8 0.091654 0.981406 0.082507
O O1 0.665864 0.665864 0.666667
O O2 0.639708 0.822089 0.659699
O O3 0.598207 0.736450 0.747939
O O4 0.789869 0.835445 0.714810
O O5 0.355048 0.513971 0.305499
O O6 0.332076 0.330764 0.301267
O O7 0.231164 0.370956 0.231876
O O8 0.691050 0.308951 0.666667
O O9 0.793581 0.465133 0.597094
O O10 0.881514 0.367457 0.637454
O O11 0.489857 0.744929 0.833334
O O12 0.640081 0.738067 0.872166
O O13 0.261116 0.290703 0.939275
O O14 0.201017 0.299156 0.846238
O O15 0.159444 0.123905 0.884186
O O16 0.363948 0.181974 0.333334
O O17 0.914176 0.088474 0.444133
O O18 0.751914 0.000000 0.500000
O O19 0.000000 0.000000 0.061543
#
# Coordination Sequence:
#
# PCOD9584262 Si02
#       8
#    12  12  12  12  12  12  12  12
#     4  10  19  34  52  86 119 168 205 242 299 371
#     4  11  22  39  62  87 125 163 206 270 310 384
#     4  10  23  46  72  87 111 161 216 281 351 391
#     4  10  21  39  65  92 121 161 209 267 324 389
#     4  11  21  36  55  90 129 172 207 245 301 374
#     4  11  22  39  66  92 119 160 218 263 312 389
#     4  12  23  34  52  90 137 175 207 239 306 374
#     4  11  20  32  50  78 130 180 207 227 275 363
#
# _framework density 18.994468000000001
#
# number of rings (size 3 to 8) (size 9 to 14) (size 15 to 20)
#    0.000    1.250    6.250    3.000    0.000    0.250 
#    2.250    0.000    0.000    9.750    0.000    0.000 
#    0.000    0.000    0.000    0.000    0.000    0.000 
#
# Total GULP energy -535245.593279 kJ/mol
# GULP energy per Si atom -5575.474930 kJ/mol
# Density = 1.895124 g / cm^3
# Si number density = 18.994468 Si / 1000 Ang^3
#
#
#
# Elastic Constant Matrix: (Units=GPa)
#
#
# Indices 1 2 3 4 5 6 
#
# 1 51.8154 7.5384 11.0555 0.0000 0.0000 0.0000
# 2 7.5384 51.8154 11.0555 0.0000 0.0000 0.0000
# 3 11.0555 11.0555 79.5338 0.0000 0.0000 0.0000
# 4 0.0000 0.0000 0.0000 14.5065 0.0000 0.0000
# 5 0.0000 0.0000 0.0000 0.0000 14.5065 0.0000
# 6 0.0000 0.0000 0.0000 0.0000 0.0000 22.1385
#
#
#
# Elastic Compliance Matrix: (Units=1/GPa)
#
#
# Indices 1 2 3 4 5 6 
#
# 1 0.020177 -0.002408 -0.002470 0.000000 0.000000 0.000000
# 2 -0.002408 0.020177 -0.002470 0.000000 0.000000 0.000000
# 3 -0.002470 -0.002470 0.013260 0.000000 0.000000 0.000000
# 4 0.000000 0.000000 0.000000 0.068935 0.000000 0.000000
# 5 0.000000 0.000000 0.000000 0.000000 0.068935 0.000000
# 6 0.000000 0.000000 0.000000 0.000000 0.000000 0.045170
#
#
# Mechanical properties :
#
#
# Convention : Reuss Voigt Hill
#
# Bulk Modulus (GPa) = 25.69576 26.94039 26.31807
# Shear Modulus (GPa) = 18.91637 20.46465 19.69051
#
# Velocity S-wave (km/s) = 3.15919 3.28594 3.22319
# Velocity P-wave (km/s) = 5.18312 5.34889 5.26666
#
# Compressibility (1/GPa) = 0.03891693
#
# Stress axis : x y z
#
# Youngs Moduli (GPa) = 49.56226 49.56226 75.41533
#
# Poissons Ratio (x) = 0.11937 0.18626
# Poissons Ratio (y) = 0.11937 0.18626
# Poissons Ratio (z) = 0.12241 0.12241
#
# Static dielectric constant tensor:
#      x y z
#    x 1.728430 0.000000 0.000000 
#    y 0.000000 1.728430 0.000000 
#    z 0.000000 0.000000 1.712430 
# 
# From -- ./inp_files/11401.got.cif
#   From: 2010.05.17/outbox.cif.g08.bks.cpg/sg181_6_cif.got.tgz:11401.got - 2010.05.20 11:51:17.
