data_PCOD9584367
_publ_section_title
;
Structure prediction by ZEFSAII (Michael W. Deem and Ramdas Pophale) SiO2 
 PCOD9584367
Probable space group: P 64 2 2
;
_chemical_formula_sum "Si O2"
_cell_formula_units_Z 69
_cell_length_a 19.940522
_cell_length_b 19.940522
_cell_length_c 9.195910
_cell_angle_alpha 90.000000
_cell_angle_beta 90.000000
_cell_angle_gamma 120.000000
_cell_volume 3166.637788
_symmetry_space_group_name_H-M "P 64 2 2"
_symmetry_group_IT_number 181
_symmetry_cell_setting 'hexagonal'
loop_
_space_group_symop_operation_xyz
x,y,z
x-y,x,2/3+z
-y,x-y,1/3+z
-x,-y,z
-x+y,-x,2/3+z
y,-x+y,1/3+z
x-y,-y,-z
-x,-x+y,2/3-z
y,x,1/3-z
-y,-x,1/3-z
-x+y,y,-z
x,x-y,2/3-z
loop_
_atom_site_type_symbol
_atom_site_label
_atom_site_fract_x
_atom_site_fract_y
_atom_site_fract_z
Si Si1 0.669768 0.586667 0.463625
Si Si2 0.587069 0.449799 0.964421
Si Si3 0.087641 0.824610 0.529350
Si Si4 0.366236 0.683118 0.333334
Si Si5 0.729957 0.944025 0.642451
Si Si6 0.500000 0.500000 0.166667
Si Si7 0.902019 0.314367 0.450394
O O1 0.615595 0.499375 0.411717
O O2 0.730156 0.639842 0.342412
O O3 0.709567 0.590830 0.616905
O O4 0.620279 0.627596 0.511640
O O5 0.636497 0.499685 0.828885
O O6 0.638860 0.414888 0.021677
O O7 0.570865 0.507376 0.067713
O O8 0.119490 0.880511 0.666667
O O9 0.127496 0.878244 0.392093
O O10 0.117301 0.762763 0.536865
O O11 0.996319 0.774682 0.551807
O O12 0.327519 0.655038 0.500000
O O13 0.752598 0.000000 0.500000
#
# Coordination Sequence:
#
# PCOD9584367 Si02
#       7
#    12  12  12   6  12   3  12
#     4  10  21  37  62  90 129 167 220 292 346 424
#     4  12  25  45  70  97 132 178 244 305 371 444
#     4   9  19  35  57  88 130 171 218 275 341 424
#     4  12  32  54  68  99 148 200 246 306 386 473
#     4   9  19  36  60  93 130 178 228 280 353 425
#     4  12  24  44  74 104 124 180 250 320 368 432
#     4  10  21  37  59  97 124 163 224 291 350 413
#
# _framework density 21.789673000000001
#
# number of rings (size 3 to 8) (size 9 to 14) (size 15 to 20)
#    0.000    1.739    2.609    0.522    4.870    4.870 
#    0.000    0.000    0.000    0.000    0.000    0.000 
#    0.000    0.000    0.000 1402.435    0.000    0.000 
#
# Total GULP energy -384184.576879 kJ/mol
# GULP energy per Si atom -5567.892419 kJ/mol
# Density = 2.174008 g / cm^3
# Si number density = 21.789673 Si / 1000 Ang^3
#
#
#
# Elastic Constant Matrix: (Units=GPa)
#
#
# Indices 1 2 3 4 5 6 
#
# 1 84.2461 51.4321 32.5992 0.0000 0.0000 0.0000
# 2 51.4321 84.2461 32.5992 0.0000 0.0000 0.0000
# 3 32.5992 32.5992 83.8855 0.0000 0.0000 0.0000
# 4 0.0000 0.0000 0.0000 23.6914 0.0000 0.0000
# 5 0.0000 0.0000 0.0000 0.0000 23.6914 0.0000
# 6 0.0000 0.0000 0.0000 0.0000 0.0000 16.4070
#
#
#
# Elastic Compliance Matrix: (Units=1/GPa)
#
#
# Indices 1 2 3 4 5 6 
#
# 1 0.019769 -0.010706 -0.003522 0.000000 0.000000 0.000000
# 2 -0.010706 0.019769 -0.003522 0.000000 0.000000 0.000000
# 3 -0.003522 -0.003522 0.014658 0.000000 0.000000 0.000000
# 4 0.000000 0.000000 0.000000 0.042209 0.000000 0.000000
# 5 0.000000 0.000000 0.000000 0.000000 0.042209 0.000000
# 6 0.000000 0.000000 0.000000 0.000000 0.000000 0.060950
#
#
# Mechanical properties :
#
#
# Convention : Reuss Voigt Hill
#
# Bulk Modulus (GPa) = 53.48679 53.95985 53.72332
# Shear Modulus (GPa) = 20.72141 21.80777 21.26459
#
# Velocity S-wave (km/s) = 3.08713 3.16702 3.12733
# Velocity P-wave (km/s) = 6.10797 6.17989 6.14404
#
# Compressibility (1/GPa) = 0.01869621
#
# Stress axis : x y z
#
# Youngs Moduli (GPa) = 50.58470 50.58470 68.22043
#
# Poissons Ratio (x) = 0.54156 0.24027
# Poissons Ratio (y) = 0.54156 0.24027
# Poissons Ratio (z) = 0.17816 0.17816
#
# Static dielectric constant tensor:
#      x y z
#    x 1.797810 0.000000 0.000000 
#    y 0.000000 1.797810 0.000000 
#    z 0.000000 0.000000 1.881470 
# 
# From -- ./inp_files/3224.got.cif
#   From: 2010.05.17/outbox.cif.g08.bks.cpg/sg181_2_cif.got.tgz:3224.got - 2010.05.20 11:51:17.
