data_PCOD9584827
_publ_section_title
;
Structure prediction by ZEFSAII (Michael W. Deem and Ramdas Pophale) SiO2 
 PCOD9584827
Probable space group: P 63 2 2
;
_chemical_formula_sum "Si O2"
_cell_formula_units_Z 30
_cell_length_a 8.312613
_cell_length_b 8.312613
_cell_length_c 24.506399
_cell_angle_alpha 90.000000
_cell_angle_beta 90.000000
_cell_angle_gamma 120.000000
_cell_volume 1466.510767
_symmetry_space_group_name_H-M "P 63 2 2"
_symmetry_group_IT_number 182
_symmetry_cell_setting 'hexagonal'
loop_
_space_group_symop_operation_xyz
x,y,z
x-y,x,1/2+z
-y,x-y,z
-x,-y,1/2+z
-x+y,-x,z
y,-x+y,1/2+z
x-y,-y,-z
-x,-x+y,-z
y,x,-z
-y,-x,1/2-z
-x+y,y,1/2-z
x,x-y,1/2-z
loop_
_atom_site_type_symbol
_atom_site_label
_atom_site_fract_x
_atom_site_fract_y
_atom_site_fract_z
Si Si1 0.670528 0.122475 0.893987
Si Si2 0.787621 0.787621 0.500000
Si Si3 0.666685 0.666919 0.725759
O O1 0.841697 0.337222 0.893754
O O2 0.669743 0.018224 0.839144
O O3 0.687548 0.019644 0.946755
O O4 0.827133 0.000000 0.500000
O O5 0.464134 0.535866 0.750000
O O6 0.796693 0.593386 0.750000
O O7 0.737715 0.868858 0.750000
#
# Coordination Sequence:
#
# PCOD9584827 Si02
#       3
#    12   6  12
#     4  10  23  44  70  90 135 183 223 279 355 418
#     4  10  26  40  66 100 134 170 240 290 340 412
#     4  12  24  44  69 103 137 180 233 293 357 429
#
# _framework density 20.456721000000002
#
# number of rings (size 3 to 8) (size 9 to 14) (size 15 to 20)
#    1.200    0.000    4.000    1.200    8.400    0.000 
#    0.000    0.000    0.000    0.000    0.000    0.000 
#    0.000    0.000    0.000    0.000    0.000    0.000 
#
# Total GULP energy -167329.629723 kJ/mol
# GULP energy per Si atom -5577.654324 kJ/mol
# Density = 2.041016 g / cm^3
# Si number density = 20.456721 Si / 1000 Ang^3
#
#
#
# Elastic Constant Matrix: (Units=GPa)
#
#
# Indices 1 2 3 4 5 6 
#
# 1 73.3366 31.8737 60.6248 0.0000 0.0000 0.0000
# 2 31.8737 73.3366 60.6248 0.0000 0.0000 0.0000
# 3 60.6248 60.6248 261.1818 0.0000 0.0000 0.0000
# 4 0.0000 0.0000 0.0000 63.7755 0.0000 0.0000
# 5 0.0000 0.0000 0.0000 0.0000 63.7755 0.0000
# 6 0.0000 0.0000 0.0000 0.0000 0.0000 20.7315
#
#
#
# Elastic Compliance Matrix: (Units=1/GPa)
#
#
# Indices 1 2 3 4 5 6 
#
# 1 0.018547 -0.005571 -0.003012 0.000000 0.000000 0.000000
# 2 -0.005571 0.018547 -0.003012 0.000000 0.000000 0.000000
# 3 -0.003012 -0.003012 0.005227 0.000000 0.000000 0.000000
# 4 0.000000 0.000000 0.000000 0.015680 0.000000 0.000000
# 5 0.000000 0.000000 0.000000 0.000000 0.015680 0.000000
# 6 0.000000 0.000000 0.000000 0.000000 0.000000 0.048236
#
#
# Mechanical properties :
#
#
# Convention : Reuss Voigt Hill
#
# Bulk Modulus (GPa) = 52.27115 79.34463 65.80789
# Shear Modulus (GPa) = 33.00691 46.63859 39.82275
#
# Velocity S-wave (km/s) = 4.02120 4.77997 4.41691
# Velocity P-wave (km/s) = 6.86786 8.32676 7.63225
#
# Compressibility (1/GPa) = 0.01913101
#
# Stress axis : x y z
#
# Youngs Moduli (GPa) = 53.91740 53.91740 191.31475
#
# Poissons Ratio (x) = 0.30038 0.57622
# Poissons Ratio (y) = 0.30038 0.57622
# Poissons Ratio (z) = 0.16239 0.16239
#
# Static dielectric constant tensor:
#      x y z
#    x 1.683890 0.000000 0.000000 
#    y 0.000000 1.683890 0.000000 
#    z 0.000000 0.000000 1.681110 
# 
# From -- ./inp_files/5064.got.cif
#   From: 2010.05.17/outbox.cif.g08.bks.cpg/sg182_3_cif.got.tgz:5064.got - 2010.05.20 11:58:53.
