data_PCOD9584919
_publ_section_title
;
Structure prediction by ZEFSAII (Michael W. Deem and Ramdas Pophale) SiO2 
 PCOD9584919
Probable space group: P 6 M M
;
_chemical_formula_sum "Si O2"
_cell_formula_units_Z 96
_cell_length_a 19.525917
_cell_length_b 19.525917
_cell_length_c 20.269315
_cell_angle_alpha 90.000000
_cell_angle_beta 90.000000
_cell_angle_gamma 120.000000
_cell_volume 6692.564748
_symmetry_space_group_name_H-M "P 6 M M"
_symmetry_group_IT_number 183
_symmetry_cell_setting 'hexagonal'
loop_
_space_group_symop_operation_xyz
x,y,z
x-y,x,z
-y,x-y,z
-x,-y,z
-x+y,-x,z
y,-x+y,z
-x+y,y,z
x,x-y,z
-y,-x,z
y,x,z
x-y,-y,z
-x,-x+y,z
loop_
_atom_site_type_symbol
_atom_site_label
_atom_site_fract_x
_atom_site_fract_y
_atom_site_fract_z
Si Si1 0.538140 0.909477 0.482830
Si Si2 0.245328 0.336745 0.842581
Si Si3 0.470630 0.094717 0.759763
Si Si4 0.828461 0.495670 0.619089
Si Si5 0.627440 0.538181 0.212733
Si Si6 0.908498 0.658262 0.001192
Si Si7 0.331524 0.503433 0.346841
Si Si8 0.332096 0.827178 0.076117
O O1 0.454661 0.909322 0.482816
O O2 0.539756 0.870025 0.551505
O O3 0.537371 0.864499 0.416674
O O4 0.605849 0.000000 0.480154
O O5 0.155058 0.310116 0.825314
O O6 0.276539 0.276539 0.823480
O O7 0.302616 0.420807 0.807890
O O8 0.253437 0.346106 0.921646
O O9 0.562442 0.124883 0.776957
O O10 0.468195 0.120384 0.684881
O O11 0.426132 0.000000 0.762366
O O12 0.746247 0.492493 0.627013
O O13 0.815229 0.407615 0.613100
O O14 0.542943 0.457058 0.216209
O O15 0.607708 0.607708 0.200864
O O16 0.667323 0.545165 0.283271
O O17 0.670525 0.525105 0.151009
O O18 0.839386 0.678771 0.020359
O O19 0.000000 0.719159 0.020790
O O20 0.880230 0.571186 0.030504
O O21 0.259929 0.519857 0.340646
O O22 0.414004 0.585997 0.346554
O O23 0.418896 0.837792 0.064597
O O24 0.263660 0.736341 0.067437
#
# Coordination Sequence:
#
# PCOD9584919 Si02
#       8
#    12  12  12  12  12  12  12  12
#     4   9  17  28  40  52  68  93 124 157 193 235
#     4   9  17  30  47  66  87 111 141 175 212 254
#     4   9  17  28  42  60  82 109 140 172 204 241
#     4  10  18  27  39  55  76 100 128 163 203 243
#     4   9  17  28  41  56  75 102 136 171 204 240
#     4   9  18  31  47  66  87 112 141 175 214 256
#     4  10  18  27  39  55  75  97 123 157 199 244
#     4  10  19  30  44  63  88 116 146 179 215 252
#
# _framework density 14.344277
#
# number of rings (size 3 to 8) (size 9 to 14) (size 15 to 20)
#    0.000    2.625    0.000    2.625    0.000    4.250 
#    0.000    3.750    0.000    0.500    0.000    1.750 
#    0.000    0.000    0.000    0.000    0.000    0.000 
#
# Total GULP energy -534410.649592 kJ/mol
# GULP energy per Si atom -5566.777600 kJ/mol
# Density = 1.431163 g / cm^3
# Si number density = 14.344277 Si / 1000 Ang^3
#
#
#
# Elastic Constant Matrix: (Units=GPa)
#
#
# Indices 1 2 3 4 5 6 
#
# 1 59.3812 35.5935 21.8977 0.0000 0.0000 0.0000
# 2 35.5935 59.3812 21.8977 0.0000 0.0000 0.0000
# 3 21.8977 21.8977 33.4776 0.0000 0.0000 0.0000
# 4 0.0000 0.0000 0.0000 17.2544 0.0000 0.0000
# 5 0.0000 0.0000 0.0000 0.0000 17.2544 0.0000
# 6 0.0000 0.0000 0.0000 0.0000 0.0000 11.8938
#
#
#
# Elastic Compliance Matrix: (Units=1/GPa)
#
#
# Indices 1 2 3 4 5 6 
#
# 1 0.028558 -0.013481 -0.009862 0.000000 0.000000 0.000000
# 2 -0.013481 0.028558 -0.009862 0.000000 0.000000 0.000000
# 3 -0.009862 -0.009862 0.042772 0.000000 0.000000 0.000000
# 4 0.000000 0.000000 0.000000 0.057956 0.000000 0.000000
# 5 0.000000 0.000000 0.000000 0.000000 0.057956 0.000000
# 6 0.000000 0.000000 0.000000 0.000000 0.000000 0.084077
#
#
# Mechanical properties :
#
#
# Convention : Reuss Voigt Hill
#
# Bulk Modulus (GPa) = 29.86995 34.55752 32.21374
# Shear Modulus (GPa) = 13.24698 14.13726 13.69212
#
# Velocity S-wave (km/s) = 3.04222 3.14278 3.09291
# Velocity P-wave (km/s) = 5.76272 6.10846 5.93810
#
# Compressibility (1/GPa) = 0.03347846
#
# Stress axis : x y z
#
# Youngs Moduli (GPa) = 35.01699 35.01699 23.37994
#
# Poissons Ratio (x) = 0.47206 0.23056
# Poissons Ratio (y) = 0.47206 0.23056
# Poissons Ratio (z) = 0.34532 0.34532
#
# Static dielectric constant tensor:
#      x y z
#    x 1.468040 0.000000 0.000000 
#    y 0.000000 1.468040 0.000000 
#    z 0.000000 0.000000 1.487260 
# 
# From -- ./inp_files/2753.got.cif
#   From: 2010.05.17/outbox.cif.g08.bks.cpg/sg183_2_cif.got.tgz:2753.got - 2010.05.20 12:02:58.
