data_PCOD9584496
_publ_section_title
;
Structure prediction by ZEFSAII (Michael W. Deem and Ramdas Pophale) SiO2 
 PCOD9584496
Probable space group: P 64 2 2
;
_chemical_formula_sum "Si O2"
_cell_formula_units_Z 57
_cell_length_a 13.744304
_cell_length_b 13.744304
_cell_length_c 15.360626
_cell_angle_alpha 90.000000
_cell_angle_beta 90.000000
_cell_angle_gamma 120.000000
_cell_volume 2512.956967
_symmetry_space_group_name_H-M "P 64 2 2"
_symmetry_group_IT_number 181
_symmetry_cell_setting 'hexagonal'
loop_
_space_group_symop_operation_xyz
x,y,z
x-y,x,2/3+z
-y,x-y,1/3+z
-x,-y,z
-x+y,-x,2/3+z
y,-x+y,1/3+z
x-y,-y,-z
-x,-x+y,2/3-z
y,x,1/3-z
-y,-x,1/3-z
-x+y,y,-z
x,x-y,2/3-z
loop_
_atom_site_type_symbol
_atom_site_label
_atom_site_fract_x
_atom_site_fract_y
_atom_site_fract_z
Si Si1 0.000000 0.000000 0.666667
Si Si2 0.704024 0.000000 0.000000
Si Si3 0.687209 0.343605 0.833334
Si Si4 0.512764 0.618830 0.789608
Si Si5 0.748189 0.496378 0.000000
Si Si6 0.925443 0.761242 0.749768
Si Si7 0.614316 0.608742 0.358480
O O1 0.024587 0.111108 0.717506
O O2 0.696715 0.097991 0.050703
O O3 0.725933 0.931380 0.076161
O O4 0.603388 0.382904 0.793920
O O5 0.748490 0.325879 0.749751
O O6 0.500000 0.500000 0.767218
O O7 0.565357 0.641808 0.886032
O O8 0.873751 0.572850 0.036432
O O9 0.000000 0.776378 0.833334
O O10 0.942357 0.671498 0.694529
O O11 0.500000 0.500000 0.322144
#
# Coordination Sequence:
#
# PCOD9584496 Si02
#       7
#     3   6   6  12   6  12  12
#     4  10  24  48  70 106 142 192 246 308 376 446
#     4  11  27  41  75 108 128 198 249 299 371 439
#     4  12  26  46  73 102 147 190 244 300 370 448
#     4  11  24  46  70 100 143 184 240 306 357 435
#     4  12  27  44  75 107 140 195 238 304 372 452
#     4  11  26  45  72 103 146 187 243 306 370 452
#     4  11  25  48  69 104 149 192 239 305 376 445
#
# _framework density 22.68244
#
# number of rings (size 3 to 8) (size 9 to 14) (size 15 to 20)
#    0.000    0.842    4.211    2.526    8.842    2.105 
#    0.000    0.000    0.000    0.000    0.000    0.000 
#    0.000    0.000    0.000    0.000    0.000    0.000 
#
# Total GULP energy -317945.697125 kJ/mol
# GULP energy per Si atom -5577.994686 kJ/mol
# Density = 2.263081 g / cm^3
# Si number density = 22.682440 Si / 1000 Ang^3
#
#
#
# Elastic Constant Matrix: (Units=GPa)
#
#
# Indices 1 2 3 4 5 6 
#
# 1 -2.0114 71.7198 10.0144 0.0000 0.0000 0.0000
# 2 71.7198 -2.0114 10.0144 0.0000 0.0000 0.0000
# 3 10.0144 10.0144 83.8144 0.0000 0.0000 0.0000
# 4 0.0000 0.0000 0.0000 34.5741 0.0000 0.0000
# 5 0.0000 0.0000 0.0000 0.0000 34.5741 0.0000
# 6 0.0000 0.0000 0.0000 0.0000 0.0000 -36.8656
#
#
#
# Elastic Compliance Matrix: (Units=1/GPa)
#
#
# Indices 1 2 3 4 5 6 
#
# 1 0.000646 0.014209 -0.001775 0.000000 0.000000 0.000000
# 2 0.014209 0.000646 -0.001775 0.000000 0.000000 0.000000
# 3 -0.001775 -0.001775 0.012355 0.000000 0.000000 0.000000
# 4 0.000000 0.000000 0.000000 0.028923 0.000000 0.000000
# 5 0.000000 0.000000 0.000000 0.000000 0.028923 0.000000
# 6 0.000000 0.000000 0.000000 0.000000 0.000000 -0.027126
#
#
# Mechanical properties :
#
#
# Convention : Reuss Voigt Hill
#
# Bulk Modulus (GPa) = 28.59900 29.25435 28.92667
# Shear Modulus (GPa) = 144.06634 5.65940 74.86287
#
# Velocity S-wave (km/s) = 7.97824 1.58129 5.75121
# Velocity P-wave (km/s) = 9.87449 4.03228 7.54205
#
# Compressibility (1/GPa) = 0.03496626
#
# Stress axis : x y z
#
# Youngs Moduli (GPa) = 1547.18617 1547.18612 80.93701
#
# Poissons Ratio (x) = -21.98415 0.14366
# Poissons Ratio (y) = -21.98415 0.14366
# Poissons Ratio (z) = 2.74623 2.74623
#
# Static dielectric constant tensor:
#      x y z
#    x 1.820820 0.000000 0.000000 
#    y 0.000000 1.820820 0.000000 
#    z 0.000000 0.000000 1.852320 
# 
# From -- ./inp_files/6237.got.cif
#   From: 2010.05.17/outbox.cif.g08.bks.cpg/sg181_4_cif.got.tgz:6237.got - 2010.05.20 11:51:17.
