data_PCOD9584483
_publ_section_title
;
Structure prediction by ZEFSAII (Michael W. Deem and Ramdas Pophale) SiO2 
 PCOD9584483
Probable space group: P 64 2 2
;
_chemical_formula_sum "Si O2"
_cell_formula_units_Z 84
_cell_length_a 19.837020
_cell_length_b 19.837020
_cell_length_c 12.175637
_cell_angle_alpha 90.000000
_cell_angle_beta 90.000000
_cell_angle_gamma 120.000000
_cell_volume 4149.303342
_symmetry_space_group_name_H-M "P 64 2 2"
_symmetry_group_IT_number 181
_symmetry_cell_setting 'hexagonal'
loop_
_space_group_symop_operation_xyz
x,y,z
x-y,x,2/3+z
-y,x-y,1/3+z
-x,-y,z
-x+y,-x,2/3+z
y,-x+y,1/3+z
x-y,-y,-z
-x,-x+y,2/3-z
y,x,1/3-z
-y,-x,1/3-z
-x+y,y,-z
x,x-y,2/3-z
loop_
_atom_site_type_symbol
_atom_site_label
_atom_site_fract_x
_atom_site_fract_y
_atom_site_fract_z
Si Si1 0.594889 0.909301 0.994897
Si Si2 0.909419 0.023298 0.874351
Si Si3 0.515597 0.826256 0.784232
Si Si4 0.285068 0.893833 0.430788
Si Si5 0.703302 0.816612 0.502604
Si Si6 0.511115 0.425917 0.508771
Si Si7 0.681282 0.067267 0.662702
O O1 0.658706 0.901339 0.064185
O O2 0.512244 0.876670 0.057587
O O3 0.584199 0.877630 0.872219
O O4 0.626250 0.000000 0.000000
O O5 0.859169 0.063000 0.841541
O O6 0.000000 0.075356 0.833334
O O7 0.870943 0.935472 0.833334
O O8 0.904765 0.000000 0.000000
O O9 0.480415 0.740208 0.833334
O O10 0.551438 0.835928 0.662454
O O11 0.458776 0.861359 0.795469
O O12 0.202203 0.879887 0.472388
O O13 0.318539 0.889538 0.549840
O O14 0.332107 0.978341 0.375568
O O15 0.665823 0.763323 0.393734
O O16 0.500000 0.500000 0.534346
O O17 0.448301 0.376360 0.416066
#
# Coordination Sequence:
#
# PCOD9584483 Si02
#       7
#    12  12  12  12  12  12  12
#     4  11  21  39  66 100 133 166 224 281 340 395
#     4  11  26  45  66  91 129 182 233 278 336 417
#     4  12  23  40  64 100 145 174 220 276 349 413
#     4  11  23  40  64  99 137 173 220 295 345 406
#     4  11  24  42  66  95 133 177 223 291 347 401
#     4  11  21  40  69  99 132 178 220 279 334 410
#     4  10  24  42  65 101 132 173 234 271 356 410
#
# _framework density 20.244363
#
# number of rings (size 3 to 8) (size 9 to 14) (size 15 to 20)
#    0.000    1.000    4.286    3.000    4.000    1.714 
#    0.000    0.000    0.000    6.857    0.000    0.000 
#    0.000    0.000    0.000    0.000    0.000    0.000 
#
# Total GULP energy -468339.111566 kJ/mol
# GULP energy per Si atom -5575.465614 kJ/mol
# Density = 2.019829 g / cm^3
# Si number density = 20.244363 Si / 1000 Ang^3
#
#
#
# Elastic Constant Matrix: (Units=GPa)
#
#
# Indices 1 2 3 4 5 6 
#
# 1 91.1180 29.5651 24.9229 0.0000 0.0000 0.0000
# 2 29.5651 91.1180 24.9229 0.0000 0.0000 0.0000
# 3 24.9229 24.9229 142.3215 0.0000 0.0000 0.0000
# 4 0.0000 0.0000 0.0000 16.8314 0.0000 0.0000
# 5 0.0000 0.0000 0.0000 0.0000 16.8314 0.0000
# 6 0.0000 0.0000 0.0000 0.0000 0.0000 30.7765
#
#
#
# Elastic Compliance Matrix: (Units=1/GPa)
#
#
# Indices 1 2 3 4 5 6 
#
# 1 0.012589 -0.003657 -0.001564 0.000000 0.000000 0.000000
# 2 -0.003657 0.012589 -0.001564 0.000000 0.000000 0.000000
# 3 -0.001564 -0.001564 0.007574 0.000000 0.000000 0.000000
# 4 0.000000 0.000000 0.000000 0.059413 0.000000 0.000000
# 5 0.000000 0.000000 0.000000 0.000000 0.059413 0.000000
# 6 0.000000 0.000000 0.000000 0.000000 0.000000 0.032492
#
#
# Mechanical properties :
#
#
# Convention : Reuss Voigt Hill
#
# Bulk Modulus (GPa) = 52.13253 53.70881 52.92067
# Shear Modulus (GPa) = 24.50561 29.23098 26.86829
#
# Velocity S-wave (km/s) = 3.48298 3.80400 3.64703
# Velocity P-wave (km/s) = 6.47939 6.77361 6.62813
#
# Compressibility (1/GPa) = 0.01918188
#
# Stress axis : x y z
#
# Youngs Moduli (GPa) = 79.43318 79.43318 132.02763
#
# Poissons Ratio (x) = 0.29049 0.20651
# Poissons Ratio (y) = 0.29049 0.20651
# Poissons Ratio (z) = 0.12425 0.12425
#
# Static dielectric constant tensor:
#      x y z
#    x 1.772620 0.000000 0.000000 
#    y 0.000000 1.772620 0.000000 
#    z 0.000000 0.000000 1.780950 
# 
# From -- ./inp_files/5089.got.cif
#   From: 2010.05.17/outbox.cif.g08.bks.cpg/sg181_3_cif.got.tgz:5089.got - 2010.05.20 11:51:17.
