data_PCOD9584239
_publ_section_title
;
Structure prediction by ZEFSAII (Michael W. Deem and Ramdas Pophale) SiO2 
 PCOD9584239
Probable space group: P 64 2 2
;
_chemical_formula_sum "Si O2"
_cell_formula_units_Z 51
_cell_length_a 14.182437
_cell_length_b 14.182437
_cell_length_c 13.975948
_cell_angle_alpha 90.000000
_cell_angle_beta 90.000000
_cell_angle_gamma 120.000000
_cell_volume 2434.521610
_symmetry_space_group_name_H-M "P 64 2 2"
_symmetry_group_IT_number 181
_symmetry_cell_setting 'hexagonal'
loop_
_space_group_symop_operation_xyz
x,y,z
x-y,x,2/3+z
-y,x-y,1/3+z
-x,-y,z
-x+y,-x,2/3+z
y,-x+y,1/3+z
x-y,-y,-z
-x,-x+y,2/3-z
y,x,1/3-z
-y,-x,1/3-z
-x+y,y,-z
x,x-y,2/3-z
loop_
_atom_site_type_symbol
_atom_site_label
_atom_site_fract_x
_atom_site_fract_y
_atom_site_fract_z
Si Si1 0.397484 0.309073 0.811242
Si Si2 0.000000 0.000000 0.500000
Si Si3 0.149825 0.234830 0.785935
Si Si4 0.689956 0.844978 0.333334
Si Si5 0.500000 0.000000 0.000000
Si Si6 0.500000 0.000000 0.500000
Si Si7 0.958005 0.630960 0.693360
O O1 0.408385 0.204193 0.833334
O O2 0.276007 0.273091 0.773732
O O3 0.474912 0.398794 0.735625
O O4 0.410226 0.352225 0.918970
O O5 0.106634 0.076165 0.562207
O O6 0.104571 0.303647 0.727647
O O7 0.142407 0.246380 0.901449
O O8 0.631665 0.718874 0.305548
O O9 0.396208 0.931564 0.433080
#
# Coordination Sequence:
#
# PCOD9584239 Si02
#       7
#    12   3  12   6   3   3  12
#     4  11  25  45  75 102 137 189 234 299 367 431
#     4  12  18  34  60 110 164 214 218 262 340 450
#     4  11  21  38  61 112 154 192 234 273 344 446
#     4  10  18  35  54  93 148 179 230 287 324 402
#     4  12  26  52  76 102 144 182 250 320 356 438
#     4  12  20  40  64  92 126 188 236 288 336 416
#     4  11  22  38  64  98 139 187 233 281 354 413
#
# _framework density 20.948675999999999
#
# number of rings (size 3 to 8) (size 9 to 14) (size 15 to 20)
#    0.000    0.941    5.882    2.118    0.000    0.471 
#    0.000    0.000   10.353    1.412    0.000    0.000 
#    0.000    0.000    0.000    0.000    0.000    0.000 
#
# Total GULP energy -284394.911606 kJ/mol
# GULP energy per Si atom -5576.370816 kJ/mol
# Density = 2.090100 g / cm^3
# Si number density = 20.948676 Si / 1000 Ang^3
#
#
#
# Elastic Constant Matrix: (Units=GPa)
#
#
# Indices 1 2 3 4 5 6 
#
# 1 109.0522 60.9296 61.7960 0.0000 0.0000 0.0000
# 2 60.9296 109.0522 61.7960 0.0000 0.0000 0.0000
# 3 61.7960 61.7960 182.0555 0.0000 0.0000 0.0000
# 4 0.0000 0.0000 0.0000 20.7070 0.0000 0.0000
# 5 0.0000 0.0000 0.0000 0.0000 20.7070 0.0000
# 6 0.0000 0.0000 0.0000 0.0000 0.0000 24.0613
#
#
#
# Elastic Compliance Matrix: (Units=1/GPa)
#
#
# Indices 1 2 3 4 5 6 
#
# 1 0.014295 -0.006485 -0.002651 0.000000 0.000000 0.000000
# 2 -0.006485 0.014295 -0.002651 0.000000 0.000000 0.000000
# 3 -0.002651 -0.002651 0.007293 0.000000 0.000000 0.000000
# 4 0.000000 0.000000 0.000000 0.048293 0.000000 0.000000
# 5 0.000000 0.000000 0.000000 0.000000 0.048293 0.000000
# 6 0.000000 0.000000 0.000000 0.000000 0.000000 0.041561
#
#
# Mechanical properties :
#
#
# Convention : Reuss Voigt Hill
#
# Bulk Modulus (GPa) = 81.24057 85.46703 83.35380
# Shear Modulus (GPa) = 24.78838 27.47093 26.12965
#
# Velocity S-wave (km/s) = 3.44363 3.62518 3.53557
# Velocity P-wave (km/s) = 7.39435 7.64261 7.51950
#
# Compressibility (1/GPa) = 0.01230912
#
# Stress axis : x y z
#
# Youngs Moduli (GPa) = 69.95228 69.95228 137.12431
#
# Poissons Ratio (x) = 0.45363 0.36354
# Poissons Ratio (y) = 0.45363 0.36354
# Poissons Ratio (z) = 0.18546 0.18546
#
# Static dielectric constant tensor:
#      x y z
#    x 1.806920 0.000000 0.000000 
#    y 0.000000 1.806920 0.000000 
#    z 0.000000 0.000000 1.854170 
# 
# From -- ./inp_files/6081.got.cif
#   From: 2010.05.17/outbox.cif.g08.bks.cpg/sg181_4_cif.got.tgz:6081.got - 2010.05.20 11:51:17.
