data_PCOD9584179
_publ_section_title
;
Structure prediction by ZEFSAII (Michael W. Deem and Ramdas Pophale) SiO2 
 PCOD9584179
Probable space group: P 62 2 2
;
_chemical_formula_sum "Si O2"
_cell_formula_units_Z 30
_cell_length_a 10.086124
_cell_length_b 10.086124
_cell_length_c 13.398854
_cell_angle_alpha 90.000000
_cell_angle_beta 90.000000
_cell_angle_gamma 120.000000
_cell_volume 1180.448087
_symmetry_space_group_name_H-M "P 62 2 2"
_symmetry_group_IT_number 180
_symmetry_cell_setting 'hexagonal'
loop_
_space_group_symop_operation_xyz
x,y,z
x-y,x,1/3+z
-y,x-y,2/3+z
-x,-y,z
-x+y,-x,1/3+z
y,-x+y,2/3+z
x-y,-y,-z
-x,-x+y,1/3-z
y,x,2/3-z
-y,-x,2/3-z
-x+y,y,-z
x,x-y,1/3-z
loop_
_atom_site_type_symbol
_atom_site_label
_atom_site_fract_x
_atom_site_fract_y
_atom_site_fract_z
Si Si1 0.252943 0.024405 0.881463
Si Si2 0.500000 0.000000 0.253320
Si Si3 0.249832 0.543344 0.263240
O O1 0.084690 0.915311 0.833334
O O2 0.362243 0.982513 0.816213
O O3 0.369895 0.207639 0.887866
O O4 0.238014 0.000000 0.000000
O O5 0.431370 0.859398 0.329560
O O6 0.400722 0.599279 0.333334
O O7 0.294867 0.647433 0.166667
#
# Coordination Sequence:
#
# PCOD9584179 Si02
#       3
#    12   6  12
#     4  12  25  43  70 112 166 219 263 329 427 508
#     4  12  24  44  72 110 160 210 270 346 418 496
#     4  12  25  45  74 115 159 210 276 350 415 491
#
# _framework density 25.414076999999999
#
# number of rings (size 3 to 8) (size 9 to 14) (size 15 to 20)
#    0.000    0.000    8.000    3.600    0.000    0.000 
#    0.000    0.000    0.000    4.800    0.000    0.000 
#    0.000    0.000    0.000    0.000    0.000    0.000 
#
# Total GULP energy -167113.717890 kJ/mol
# GULP energy per Si atom -5570.457263 kJ/mol
# Density = 2.535623 g / cm^3
# Si number density = 25.414077 Si / 1000 Ang^3
#
#
#
# Elastic Constant Matrix: (Units=GPa)
#
#
# Indices 1 2 3 4 5 6 
#
# 1 97.7607 64.3031 71.4485 0.0000 0.0000 0.0000
# 2 64.3031 97.7607 71.4485 0.0000 0.0000 0.0000
# 3 71.4485 71.4485 230.1510 0.0000 0.0000 0.0000
# 4 0.0000 0.0000 0.0000 -1.9727 0.0000 0.0000
# 5 0.0000 0.0000 0.0000 0.0000 -1.9727 0.0000
# 6 0.0000 0.0000 0.0000 0.0000 0.0000 16.7288
#
#
#
# Elastic Compliance Matrix: (Units=1/GPa)
#
#
# Indices 1 2 3 4 5 6 
#
# 1 0.019192 -0.010696 -0.002638 0.000000 0.000000 0.000000
# 2 -0.010696 0.019192 -0.002638 0.000000 0.000000 0.000000
# 3 -0.002638 -0.002638 0.005983 0.000000 0.000000 0.000000
# 4 0.000000 0.000000 0.000000 -0.506922 0.000000 0.000000
# 5 0.000000 0.000000 0.000000 0.000000 -0.506922 0.000000
# 6 0.000000 0.000000 0.000000 0.000000 0.000000 0.059777
#
#
# Mechanical properties :
#
#
# Convention : Reuss Voigt Hill
#
# Bulk Modulus (GPa) = 80.48615 93.34141 86.91378
# Shear Modulus (GPa) = -5.72334 17.12151 5.69908
#
# Velocity S-wave (km/s) = -1.50231 2.59839 1.49912
# Velocity P-wave (km/s) = 5.35998 6.76832 6.10490
#
# Compressibility (1/GPa) = 0.01242450
#
# Stress axis : x y z
#
# Youngs Moduli (GPa) = 52.10435 52.10435 167.15239
#
# Poissons Ratio (x) = 0.55732 0.44087
# Poissons Ratio (y) = 0.55732 0.44087
# Poissons Ratio (z) = 0.13743 0.13743
#
# Static dielectric constant tensor:
#      x y z
#    x 2.225410 0.000000 0.000000 
#    y 0.000000 2.225410 0.000000 
#    z 0.000000 0.000000 1.993730 
# 
# From -- ./inp_files/5349.got.cif
#   From: 2010.05.17/outbox.cif.g08.bks.cpg/sg180_3_cif.got.tgz:5349.got - 2010.05.20 11:43:55.
