data_PCOD9584043
_publ_section_title
;
Structure prediction by ZEFSAII (Michael W. Deem and Ramdas Pophale) SiO2 
 PCOD9584043
Probable space group: P 62 2 2
;
_chemical_formula_sum "Si O2"
_cell_formula_units_Z 60
_cell_length_a 14.079686
_cell_length_b 14.079686
_cell_length_c 13.987279
_cell_angle_alpha 90.000000
_cell_angle_beta 90.000000
_cell_angle_gamma 120.000000
_cell_volume 2401.318730
_symmetry_space_group_name_H-M "P 62 2 2"
_symmetry_group_IT_number 180
_symmetry_cell_setting 'hexagonal'
loop_
_space_group_symop_operation_xyz
x,y,z
x-y,x,1/3+z
-y,x-y,2/3+z
-x,-y,z
-x+y,-x,1/3+z
y,-x+y,2/3+z
x-y,-y,-z
-x,-x+y,1/3-z
y,x,2/3-z
-y,-x,2/3-z
-x+y,y,-z
x,x-y,1/3-z
loop_
_atom_site_type_symbol
_atom_site_label
_atom_site_fract_x
_atom_site_fract_y
_atom_site_fract_z
Si Si1 0.085059 0.223942 0.247680
Si Si2 0.315728 0.657864 0.166667
Si Si3 0.892059 0.386067 0.798218
Si Si4 0.648951 0.017095 0.675225
Si Si5 0.755424 0.510847 0.000000
Si Si6 0.000000 0.500000 0.166667
Si Si7 0.000000 0.000000 0.833334
Si Si8 0.695622 0.695622 0.333334
O O1 0.215697 0.286535 0.251118
O O2 0.000000 0.219369 0.166667
O O3 0.049193 0.273418 0.333606
O O4 0.063750 0.102126 0.235666
O O5 0.396359 0.777456 0.122325
O O6 0.250167 0.683449 0.246139
O O7 0.904201 0.308582 0.723581
O O8 0.000000 0.500000 0.775668
O O9 0.913678 0.362322 0.906040
O O10 0.582010 0.884868 0.691547
O O11 0.599923 0.044030 0.579649
#
# Coordination Sequence:
#
# PCOD9584043 Si02
#       8
#    12   6  12  12   6   3   3   6
#     4  10  25  48  75 111 154 203 256 327 406 490
#     4  12  27  51  74 111 153 210 251 329 392 482
#     4  12  27  50  74 113 157 209 272 326 402 480
#     4  12  25  45  78 114 151 203 259 337 401 483
#     4  12  28  44  77 109 152 192 266 314 400 460
#     4  12  20  44  68 104 146 180 246 318 396 448
#     4   8  22  48  72 112 158 202 252 314 404 500
#     4  12  29  47  76 110 154 214 264 329 391 492
#
# _framework density 24.986270000000001
#
# number of rings (size 3 to 8) (size 9 to 14) (size 15 to 20)
#    0.600    0.000    4.000    2.100    5.600    4.400 
#    0.000    0.000    0.000    0.000    0.000    0.000 
#    0.000    0.000    0.000    0.000    0.000    0.000 
#
# Total GULP energy -334704.955684 kJ/mol
# GULP energy per Si atom -5578.415928 kJ/mol
# Density = 2.492940 g / cm^3
# Si number density = 24.986270 Si / 1000 Ang^3
#
#
#
# Elastic Constant Matrix: (Units=GPa)
#
#
# Indices 1 2 3 4 5 6 
#
# 1 103.4526 23.3957 9.5229 0.0000 0.0000 0.0000
# 2 23.3957 103.4526 9.5229 0.0000 0.0000 0.0000
# 3 9.5229 9.5229 110.4549 0.0000 0.0000 0.0000
# 4 0.0000 0.0000 0.0000 22.6290 0.0000 0.0000
# 5 0.0000 0.0000 0.0000 0.0000 22.6290 0.0000
# 6 0.0000 0.0000 0.0000 0.0000 0.0000 40.0284
#
#
#
# Elastic Compliance Matrix: (Units=1/GPa)
#
#
# Indices 1 2 3 4 5 6 
#
# 1 0.010239 -0.002252 -0.000689 0.000000 0.000000 0.000000
# 2 -0.002252 0.010239 -0.000689 0.000000 0.000000 0.000000
# 3 -0.000689 -0.000689 0.009172 0.000000 0.000000 0.000000
# 4 0.000000 0.000000 0.000000 0.044191 0.000000 0.000000
# 5 0.000000 0.000000 0.000000 0.000000 0.044191 0.000000
# 6 0.000000 0.000000 0.000000 0.000000 0.000000 0.024982
#
#
# Mechanical properties :
#
#
# Convention : Reuss Voigt Hill
#
# Bulk Modulus (GPa) = 44.65980 44.69368 44.67674
# Shear Modulus (GPa) = 31.69835 35.38521 33.54178
#
# Velocity S-wave (km/s) = 3.56565 3.76731 3.66786
# Velocity P-wave (km/s) = 5.90460 6.07039 5.98807
#
# Compressibility (1/GPa) = 0.02239150
#
# Stress axis : x y z
#
# Youngs Moduli (GPa) = 97.66609 97.66609 109.02512
#
# Poissons Ratio (x) = 0.21996 0.07507
# Poissons Ratio (y) = 0.21996 0.07507
# Poissons Ratio (z) = 0.06725 0.06725
#
# Static dielectric constant tensor:
#      x y z
#    x 2.075350 0.000000 0.000000 
#    y 0.000000 2.075350 0.000000 
#    z 0.000000 0.000000 2.053160 
# 
# From -- ./inp_files/6242.got.cif
#   From: 2010.05.17/outbox.cif.g08.bks.cpg/sg180_4_cif.got.tgz:6242.got - 2010.05.20 11:43:55.
