data_PCOD9584159
_publ_section_title
;
Structure prediction by ZEFSAII (Michael W. Deem and Ramdas Pophale) SiO2 
 PCOD9584159
Probable space group: P 62 2 2
;
_chemical_formula_sum "Si O2"
_cell_formula_units_Z 39
_cell_length_a 8.418992
_cell_length_b 8.418992
_cell_length_c 24.804659
_cell_angle_alpha 90.000000
_cell_angle_beta 90.000000
_cell_angle_gamma 120.000000
_cell_volume 1522.593903
_symmetry_space_group_name_H-M "P 62 2 2"
_symmetry_group_IT_number 180
_symmetry_cell_setting 'hexagonal'
loop_
_space_group_symop_operation_xyz
x,y,z
x-y,x,1/3+z
-y,x-y,2/3+z
-x,-y,z
-x+y,-x,1/3+z
y,-x+y,2/3+z
x-y,-y,-z
-x,-x+y,1/3-z
y,x,2/3-z
-y,-x,2/3-z
-x+y,y,-z
x,x-y,1/3-z
loop_
_atom_site_type_symbol
_atom_site_label
_atom_site_fract_x
_atom_site_fract_y
_atom_site_fract_z
Si Si1 0.989502 0.326164 0.477775
Si Si2 0.281363 0.750018 0.083581
Si Si3 0.500000 0.000000 0.000000
Si Si4 0.768304 0.678048 0.941194
O O1 0.846877 0.297593 0.525905
O O2 0.921963 0.156334 0.437758
O O3 0.000000 0.500000 0.446895
O O4 0.185847 0.371694 0.500000
O O5 0.182869 0.530554 0.082360
O O6 0.127785 0.779998 0.053813
O O7 0.463388 0.846918 0.047080
O O8 0.833545 0.667089 0.000000
#
# Coordination Sequence:
#
# PCOD9584159 Si02
#       4
#    12  12   3  12
#     4  12  27  46  74 104 143 191 240 297 363 433
#     4  11  25  46  71 104 145 190 237 297 357 435
#     4  12  24  44  70 108 140 190 242 288 358 424
#     4  11  26  45  72 105 145 188 237 296 364 430
#
# _framework density 25.614180999999999
#
# number of rings (size 3 to 8) (size 9 to 14) (size 15 to 20)
#    0.000    0.615    3.077    3.692    8.615    4.923 
#    0.000    0.000    0.000    0.000    0.000    0.000 
#    0.000    0.000    0.000    0.000    0.000    0.000 
#
# Total GULP energy -217471.418759 kJ/mol
# GULP energy per Si atom -5576.190225 kJ/mol
# Density = 2.555588 g / cm^3
# Si number density = 25.614181 Si / 1000 Ang^3
#
#
#
# Elastic Constant Matrix: (Units=GPa)
#
#
# Indices 1 2 3 4 5 6 
#
# 1 73.0420 24.3226 24.5156 0.0000 0.0000 0.0000
# 2 24.3226 73.0420 24.5156 0.0000 0.0000 0.0000
# 3 24.5156 24.5156 149.6689 0.0000 0.0000 0.0000
# 4 0.0000 0.0000 0.0000 26.2577 0.0000 0.0000
# 5 0.0000 0.0000 0.0000 0.0000 26.2577 0.0000
# 6 0.0000 0.0000 0.0000 0.0000 0.0000 24.3597
#
#
#
# Elastic Compliance Matrix: (Units=1/GPa)
#
#
# Indices 1 2 3 4 5 6 
#
# 1 0.015860 -0.004666 -0.001834 0.000000 0.000000 0.000000
# 2 -0.004666 0.015860 -0.001834 0.000000 0.000000 0.000000
# 3 -0.001834 -0.001834 0.007282 0.000000 0.000000 0.000000
# 4 0.000000 0.000000 0.000000 0.038084 0.000000 0.000000
# 5 0.000000 0.000000 0.000000 0.000000 0.038084 0.000000
# 6 0.000000 0.000000 0.000000 0.000000 0.000000 0.041051
#
#
# Mechanical properties :
#
#
# Convention : Reuss Voigt Hill
#
# Bulk Modulus (GPa) = 44.77107 49.16231 46.96669
# Shear Modulus (GPa) = 27.72654 30.20162 28.96408
#
# Velocity S-wave (km/s) = 3.29366 3.43752 3.36636
# Velocity P-wave (km/s) = 5.65519 5.91528 5.78670
#
# Compressibility (1/GPa) = 0.02233585
#
# Stress axis : x y z
#
# Youngs Moduli (GPa) = 63.05224 63.05224 137.32324
#
# Poissons Ratio (x) = 0.29419 0.25179
# Poissons Ratio (y) = 0.29419 0.25179
# Poissons Ratio (z) = 0.11561 0.11561
#
# Static dielectric constant tensor:
#      x y z
#    x 2.120450 0.000000 0.000000 
#    y 0.000000 2.120450 0.000000 
#    z 0.000000 0.000000 1.935700 
# 
# From -- ./inp_files/11855.got.cif
#   From: 2010.05.17/outbox.cif.g08.bks.cpg/sg180_6_cif.got.tgz:11855.got - 2010.05.20 11:43:55.
