data_PCOD9584965
_publ_section_title
;
Structure prediction by ZEFSAII (Michael W. Deem and Ramdas Pophale) SiO2 
 PCOD9584965
Probable space group: P 6 M M
;
_chemical_formula_sum "Si O2"
_cell_formula_units_Z 96
_cell_length_a 23.952035
_cell_length_b 23.952035
_cell_length_c 11.872751
_cell_angle_alpha 90.000000
_cell_angle_beta 90.000000
_cell_angle_gamma 120.000000
_cell_volume 5898.842854
_symmetry_space_group_name_H-M "P 6 M M"
_symmetry_group_IT_number 183
_symmetry_cell_setting 'hexagonal'
loop_
_space_group_symop_operation_xyz
x,y,z
x-y,x,z
-y,x-y,z
-x,-y,z
-x+y,-x,z
y,-x+y,z
-x+y,y,z
x,x-y,z
-y,-x,z
y,x,z
x-y,-y,z
-x,-x+y,z
loop_
_atom_site_type_symbol
_atom_site_label
_atom_site_fract_x
_atom_site_fract_y
_atom_site_fract_z
Si Si1 0.798215 0.334242 0.263860
Si Si2 0.617135 0.692742 0.643409
Si Si3 0.929055 0.725650 0.285461
Si Si4 0.602324 0.527919 0.839072
Si Si5 0.695729 0.171054 0.022310
Si Si6 0.861840 0.272129 0.404519
Si Si7 0.725120 0.927738 0.796546
Si Si8 0.098364 0.769402 0.041743
O O1 0.801623 0.400812 0.293414
O O2 0.726928 0.273073 0.285254
O O3 0.811792 0.332146 0.131040
O O4 0.848778 0.321127 0.332150
O O5 0.656719 0.656719 0.613884
O O6 0.563154 0.647772 0.732935
O O7 0.589211 0.704875 0.530639
O O8 0.667831 0.758274 0.707422
O O9 0.869520 0.739039 0.302565
O O10 0.910059 0.658425 0.347350
O O11 0.932372 0.712232 0.152822
O O12 0.000000 0.780723 0.322398
O O13 0.538083 0.461918 0.808569
O O14 0.576522 0.576522 0.881219
O O15 0.643922 0.511496 0.925731
O O16 0.761987 0.238014 0.988650
O O17 0.715562 0.118205 0.059208
O O18 0.793756 0.206245 0.406177
O O19 0.743373 0.871687 0.798157
O O20 0.782194 0.000000 0.770968
O O21 0.697273 0.931142 0.919560
O O22 0.165964 0.834037 0.033924
#
# Coordination Sequence:
#
# PCOD9584965 Si02
#       8
#    12  12  12  12  12  12  12  12
#     4  10  20  35  54  76 101 131 167 209 256 304
#     4  10  20  33  50  72  97 132 169 205 251 300
#     4  10  19  32  51  75 104 134 165 205 251 297
#     4  10  21  35  51  74 104 135 165 200 247 303
#     4  10  18  32  54  77 102 131 167 205 246 298
#     4  10  20  34  51  73  98 128 169 213 253 296
#     4  10  19  31  50  76 103 131 166 207 250 296
#     4   9  16  28  48  75 100 125 161 203 245 290
#
# _framework density 16.274377999999999
#
# number of rings (size 3 to 8) (size 9 to 14) (size 15 to 20)
#    0.000    2.125    2.500    1.625    0.000    1.500 
#    0.000    0.000    0.000    2.375    0.000    0.875 
#    0.000    3.000    0.000    4.000    0.000    0.000 
#
# Total GULP energy -534578.333041 kJ/mol
# GULP energy per Si atom -5568.524303 kJ/mol
# Density = 1.623734 g / cm^3
# Si number density = 16.274378 Si / 1000 Ang^3
#
#
#
# Elastic Constant Matrix: (Units=GPa)
#
#
# Indices 1 2 3 4 5 6 
#
# 1 87.3049 47.2790 30.2492 0.0000 0.0000 0.0000
# 2 47.2790 87.3049 30.2492 0.0000 0.0000 0.0000
# 3 30.2492 30.2492 73.9107 0.0000 0.0000 0.0000
# 4 0.0000 0.0000 0.0000 11.1829 0.0000 0.0000
# 5 0.0000 0.0000 0.0000 0.0000 11.1829 0.0000
# 6 0.0000 0.0000 0.0000 0.0000 0.0000 20.0129
#
#
#
# Elastic Compliance Matrix: (Units=1/GPa)
#
#
# Indices 1 2 3 4 5 6 
#
# 1 0.017045 -0.007939 -0.003727 0.000000 0.000000 0.000000
# 2 -0.007939 0.017045 -0.003727 0.000000 0.000000 0.000000
# 3 -0.003727 -0.003727 0.016580 0.000000 0.000000 0.000000
# 4 0.000000 0.000000 0.000000 0.089422 0.000000 0.000000
# 5 0.000000 0.000000 0.000000 0.000000 0.089422 0.000000
# 6 0.000000 0.000000 0.000000 0.000000 0.000000 0.049968
#
#
# Mechanical properties :
#
#
# Convention : Reuss Voigt Hill
#
# Bulk Modulus (GPa) = 50.28959 51.56396 50.92677
# Shear Modulus (GPa) = 15.77813 17.85862 16.81838
#
# Velocity S-wave (km/s) = 3.11707 3.31621 3.21818
# Velocity P-wave (km/s) = 6.62744 6.81293 6.72082
#
# Compressibility (1/GPa) = 0.01988483
#
# Stress axis : x y z
#
# Youngs Moduli (GPa) = 58.66938 58.66938 60.31299
#
# Poissons Ratio (x) = 0.46579 0.22476
# Poissons Ratio (y) = 0.46579 0.22476
# Poissons Ratio (z) = 0.21864 0.21864
#
# Static dielectric constant tensor:
#      x y z
#    x 1.556550 0.000000 0.000000 
#    y 0.000000 1.556550 0.000000 
#    z 0.000000 0.000000 1.548610 
# 
# From -- ./inp_files/2018.got.cif
#   From: 2010.05.17/outbox.cif.g08.bks.cpg/sg183_2_cif.got.tgz:2018.got - 2010.05.20 12:02:58.
