data_PCOD9584534
_publ_section_title
;
Structure prediction by ZEFSAII (Michael W. Deem and Ramdas Pophale) SiO2 
 PCOD9584534
Probable space group: P 64 2 2
;
_chemical_formula_sum "Si O2"
_cell_formula_units_Z 24
_cell_length_a 11.733266
_cell_length_b 11.733266
_cell_length_c 9.143728
_cell_angle_alpha 90.000000
_cell_angle_beta 90.000000
_cell_angle_gamma 120.000000
_cell_volume 1090.163816
_symmetry_space_group_name_H-M "P 64 2 2"
_symmetry_group_IT_number 181
_symmetry_cell_setting 'hexagonal'
loop_
_space_group_symop_operation_xyz
x,y,z
x-y,x,2/3+z
-y,x-y,1/3+z
-x,-y,z
-x+y,-x,2/3+z
y,-x+y,1/3+z
x-y,-y,-z
-x,-x+y,2/3-z
y,x,1/3-z
-y,-x,1/3-z
-x+y,y,-z
x,x-y,2/3-z
loop_
_atom_site_type_symbol
_atom_site_label
_atom_site_fract_x
_atom_site_fract_y
_atom_site_fract_z
Si Si1 0.687803 0.181160 0.303971
Si Si2 0.594189 0.889192 0.238725
O O1 0.723601 0.276400 0.166667
O O2 0.537564 0.144828 0.334191
O O3 0.804335 0.249715 0.422662
O O4 0.672197 0.046139 0.236862
O O5 0.671576 0.835788 0.333334
#
# Coordination Sequence:
#
# PCOD9584534 Si02
#       2
#    12  12
#     4  11  22  37  59  87 120 157 198 250 307 367
#     4  11  22  37  59  87 120 157 198 250 307 367
#
# _framework density 22.015038000000001
#
# number of rings (size 3 to 8) (size 9 to 14) (size 15 to 20)
#    0.000    1.000    0.000    9.000    0.000    8.000 
#    0.000    0.000    0.000   15.000    0.000    0.000 
#    0.000    0.000    0.000    0.000    0.000    0.000 
#
# Total GULP energy -133650.639695 kJ/mol
# GULP energy per Si atom -5568.776654 kJ/mol
# Density = 2.196493 g / cm^3
# Si number density = 22.015038 Si / 1000 Ang^3
#
#
#
# Elastic Constant Matrix: (Units=GPa)
#
#
# Indices 1 2 3 4 5 6 
#
# 1 99.7480 22.1050 17.2383 0.0000 0.0000 0.0000
# 2 22.1050 99.7480 17.2383 0.0000 0.0000 0.0000
# 3 17.2383 17.2383 91.2999 0.0000 0.0000 0.0000
# 4 0.0000 0.0000 0.0000 30.4729 0.0000 0.0000
# 5 0.0000 0.0000 0.0000 0.0000 30.4729 0.0000
# 6 0.0000 0.0000 0.0000 0.0000 0.0000 38.8215
#
#
#
# Elastic Compliance Matrix: (Units=1/GPa)
#
#
# Indices 1 2 3 4 5 6 
#
# 1 0.010775 -0.002105 -0.001637 0.000000 0.000000 0.000000
# 2 -0.002105 0.010775 -0.001637 0.000000 0.000000 0.000000
# 3 -0.001637 -0.001637 0.011571 0.000000 0.000000 0.000000
# 4 0.000000 0.000000 0.000000 0.032816 0.000000 0.000000
# 5 0.000000 0.000000 0.000000 0.000000 0.032816 0.000000
# 6 0.000000 0.000000 0.000000 0.000000 0.000000 0.025759
#
#
# Mechanical properties :
#
#
# Convention : Reuss Voigt Hill
#
# Bulk Modulus (GPa) = 44.71705 44.88434 44.80070
# Shear Modulus (GPa) = 35.03290 35.56775 35.30033
#
# Velocity S-wave (km/s) = 3.99346 4.02383 4.00867
# Velocity P-wave (km/s) = 6.45134 6.48233 6.46685
#
# Compressibility (1/GPa) = 0.02236283
#
# Stress axis : x y z
#
# Youngs Moduli (GPa) = 92.81079 92.81079 86.42262
#
# Poissons Ratio (x) = 0.19535 0.14147
# Poissons Ratio (y) = 0.19535 0.14147
# Poissons Ratio (z) = 0.15192 0.15192
#
# Static dielectric constant tensor:
#      x y z
#    x 1.857780 0.000000 0.000000 
#    y 0.000000 1.857780 0.000000 
#    z 0.000000 0.000000 1.880120 
# 
# From -- ./inp_files/69.got.cif
#   From: 2010.05.17/outbox.cif.g08.bks.cpg/sg181_1_cif.got.tgz:69.got - 2010.05.20 11:51:17.
