data_PCOD9584522
_publ_section_title
;
Structure prediction by ZEFSAII (Michael W. Deem and Ramdas Pophale) SiO2 
 PCOD9584522
Probable space group: P 64 2 2
;
_chemical_formula_sum "Si O2"
_cell_formula_units_Z 84
_cell_length_a 20.368015
_cell_length_b 20.368015
_cell_length_c 12.084963
_cell_angle_alpha 90.000000
_cell_angle_beta 90.000000
_cell_angle_gamma 120.000000
_cell_volume 4341.835538
_symmetry_space_group_name_H-M "P 64 2 2"
_symmetry_group_IT_number 181
_symmetry_cell_setting 'hexagonal'
loop_
_space_group_symop_operation_xyz
x,y,z
x-y,x,2/3+z
-y,x-y,1/3+z
-x,-y,z
-x+y,-x,2/3+z
y,-x+y,1/3+z
x-y,-y,-z
-x,-x+y,2/3-z
y,x,1/3-z
-y,-x,1/3-z
-x+y,y,-z
x,x-y,2/3-z
loop_
_atom_site_type_symbol
_atom_site_label
_atom_site_fract_x
_atom_site_fract_y
_atom_site_fract_z
Si Si1 0.481444 0.914532 0.887850
Si Si2 0.681208 0.930062 0.221127
Si Si3 0.503308 0.845407 0.261842
Si Si4 0.468101 0.780308 0.492697
Si Si5 0.771746 0.166876 0.347257
Si Si6 0.200819 0.921366 0.530306
Si Si7 0.085113 0.364307 0.446683
O O1 0.426974 0.878095 0.782684
O O2 0.562659 0.922971 0.901973
O O3 0.500000 0.000000 0.885670
O O4 0.436996 0.873991 0.000000
O O5 0.589081 0.886904 0.213199
O O6 0.720448 0.878476 0.202112
O O7 0.694638 0.940217 0.353821
O O8 0.714657 0.004842 0.144135
O O9 0.508872 0.842097 0.394418
O O10 0.464112 0.759583 0.219177
O O11 0.385926 0.771851 0.500000
O O12 0.520767 0.799603 0.601720
O O13 0.761055 0.103024 0.434495
O O14 0.745321 0.130228 0.228465
O O15 0.860946 0.226657 0.319604
O O16 0.204230 0.000000 0.500000
#
# Coordination Sequence:
#
# PCOD9584522 Si02
#       7
#    12  12  12  12  12  12  12
#     4  11  23  37  57  84 121 164 210 270 326 393
#     4  11  21  39  68  93 125 168 208 272 327 402
#     4  11  21  41  61  85 116 164 227 267 324 399
#     4  11  22  40  62  82 121 168 221 272 324 383
#     4  11  22  40  62  93 128 163 211 275 327 403
#     4  11  21  38  65  94 126 161 208 260 325 400
#     4  11  24  39  61  93 133 163 211 271 346 398
#
# _framework density 19.346655999999999
#
# number of rings (size 3 to 8) (size 9 to 14) (size 15 to 20)
#    0.000    1.000    5.714    2.571    0.000    0.571 
#   10.286    0.000    0.000    0.000    0.000    2.000 
#    0.000    0.000    0.000    0.000    0.000    0.000 
#
# Total GULP energy -467623.416987 kJ/mol
# GULP energy per Si atom -5566.945440 kJ/mol
# Density = 1.930262 g / cm^3
# Si number density = 19.346656 Si / 1000 Ang^3
#
#
#
# Elastic Constant Matrix: (Units=GPa)
#
#
# Indices 1 2 3 4 5 6 
#
# 1 94.4275 50.1638 22.9213 0.0000 0.0000 0.0000
# 2 50.1638 94.4275 22.9213 0.0000 0.0000 0.0000
# 3 22.9213 22.9213 80.2034 0.0000 0.0000 0.0000
# 4 0.0000 0.0000 0.0000 21.3625 0.0000 0.0000
# 5 0.0000 0.0000 0.0000 0.0000 21.3625 0.0000
# 6 0.0000 0.0000 0.0000 0.0000 0.0000 22.1319
#
#
#
# Elastic Compliance Matrix: (Units=1/GPa)
#
#
# Indices 1 2 3 4 5 6 
#
# 1 0.015098 -0.007493 -0.002173 0.000000 0.000000 0.000000
# 2 -0.007493 0.015098 -0.002173 0.000000 0.000000 0.000000
# 3 -0.002173 -0.002173 0.013711 0.000000 0.000000 0.000000
# 4 0.000000 0.000000 0.000000 0.046811 0.000000 0.000000
# 5 0.000000 0.000000 0.000000 0.000000 0.046811 0.000000
# 6 0.000000 0.000000 0.000000 0.000000 0.000000 0.045184
#
#
# Mechanical properties :
#
#
# Convention : Reuss Voigt Hill
#
# Bulk Modulus (GPa) = 49.43883 51.23013 50.33448
# Shear Modulus (GPa) = 23.45918 24.50819 23.98369
#
# Velocity S-wave (km/s) = 3.48598 3.56306 3.52473
# Velocity P-wave (km/s) = 6.46625 6.59278 6.52982
#
# Compressibility (1/GPa) = 0.02022701
#
# Stress axis : x y z
#
# Youngs Moduli (GPa) = 66.23175 66.23175 72.93627
#
# Poissons Ratio (x) = 0.49630 0.15852
# Poissons Ratio (y) = 0.49630 0.15852
# Poissons Ratio (z) = 0.14395 0.14395
#
# Static dielectric constant tensor:
#      x y z
#    x 1.705010 0.000000 0.000000 
#    y 0.000000 1.705010 0.000000 
#    z 0.000000 0.000000 1.864210 
# 
# From -- ./inp_files/5053.got.cif
#   From: 2010.05.17/outbox.cif.g08.bks.cpg/sg181_3_cif.got.tgz:5053.got - 2010.05.20 11:51:17.
