data_PCOD9584696
_publ_section_title
;
Structure prediction by ZEFSAII (Michael W. Deem and Ramdas Pophale) SiO2 
 PCOD9584696
Probable space group: P 63 2 2
;
_chemical_formula_sum "Si O2"
_cell_formula_units_Z 54
_cell_length_a 14.763377
_cell_length_b 14.763377
_cell_length_c 14.186619
_cell_angle_alpha 90.000000
_cell_angle_beta 90.000000
_cell_angle_gamma 120.000000
_cell_volume 2677.817388
_symmetry_space_group_name_H-M "P 63 2 2"
_symmetry_group_IT_number 182
_symmetry_cell_setting 'hexagonal'
loop_
_space_group_symop_operation_xyz
x,y,z
x-y,x,1/2+z
-y,x-y,z
-x,-y,1/2+z
-x+y,-x,z
y,-x+y,1/2+z
x-y,-y,-z
-x,-x+y,-z
y,x,-z
-y,-x,1/2-z
-x+y,y,1/2-z
x,x-y,1/2-z
loop_
_atom_site_type_symbol
_atom_site_label
_atom_site_fract_x
_atom_site_fract_y
_atom_site_fract_z
Si Si1 0.529190 0.667902 0.718121
Si Si2 0.880780 0.000000 0.500000
Si Si3 0.497730 0.620890 0.501482
Si Si4 0.834444 0.276377 0.959155
Si Si5 0.728514 0.699938 0.133425
O O1 0.451037 0.548964 0.750000
O O2 0.485082 0.742541 0.750000
O O3 0.523209 0.664743 0.606733
O O4 0.643789 0.718903 0.766863
O O5 0.812146 0.992406 0.592703
O O6 0.902136 0.902136 0.500000
O O7 0.542526 0.542526 0.500000
O O8 0.552765 0.725372 0.439618
O O9 0.376027 0.555268 0.476181
O O10 0.890202 0.268589 0.054950
O O11 0.919697 0.298025 0.880147
#
# Coordination Sequence:
#
# PCOD9584696 Si02
#       5
#    12   6  12  12  12
#     4  12  21  36  58  92 125 157 198 252 307 365
#     4   8  18  38  68  86 108 164 202 258 318 362
#     4  12  21  37  62  88 119 164 201 239 312 372
#     4  10  20  36  56  86 123 154 197 246 293 371
#     4  10  20  38  58  86 125 150 197 262 305 358
#
# _framework density 20.165676999999999
#
# number of rings (size 3 to 8) (size 9 to 14) (size 15 to 20)
#    0.222    1.333    6.667    0.667    0.000    3.556 
#    0.000    1.111    0.000    0.000    0.000    3.111 
#    0.000    0.000    0.000    0.000    0.000    0.000 
#
# Total GULP energy -300724.578781 kJ/mol
# GULP energy per Si atom -5568.973681 kJ/mol
# Density = 2.011978 g / cm^3
# Si number density = 20.165677 Si / 1000 Ang^3
#
#
#
# Elastic Constant Matrix: (Units=GPa)
#
#
# Indices 1 2 3 4 5 6 
#
# 1 108.8097 12.5289 13.3179 0.0000 0.0000 0.0000
# 2 12.5289 108.8097 13.3179 0.0000 0.0000 0.0000
# 3 13.3179 13.3179 31.4966 0.0000 0.0000 0.0000
# 4 0.0000 0.0000 0.0000 40.4739 0.0000 0.0000
# 5 0.0000 0.0000 0.0000 0.0000 40.4739 0.0000
# 6 0.0000 0.0000 0.0000 0.0000 0.0000 48.1404
#
#
#
# Elastic Compliance Matrix: (Units=1/GPa)
#
#
# Indices 1 2 3 4 5 6 
#
# 1 0.009735 -0.000651 -0.003841 0.000000 0.000000 0.000000
# 2 -0.000651 0.009735 -0.003841 0.000000 0.000000 0.000000
# 3 -0.003841 -0.003841 0.034998 0.000000 0.000000 0.000000
# 4 0.000000 0.000000 0.000000 0.024707 0.000000 0.000000
# 5 0.000000 0.000000 0.000000 0.000000 0.024707 0.000000
# 6 0.000000 0.000000 0.000000 0.000000 0.000000 0.020773
#
#
# Mechanical properties :
#
#
# Convention : Reuss Voigt Hill
#
# Bulk Modulus (GPa) = 26.45366 36.38282 31.41824
# Shear Modulus (GPa) = 32.48367 39.81437 36.14902
#
# Velocity S-wave (km/s) = 4.01788 4.44820 4.23851
# Velocity P-wave (km/s) = 5.88822 6.66807 6.29024
#
# Compressibility (1/GPa) = 0.03780196
#
# Stress axis : x y z
#
# Youngs Moduli (GPa) = 102.71729 102.71729 28.57315
#
# Poissons Ratio (x) = 0.06685 0.10976
# Poissons Ratio (y) = 0.06685 0.10976
# Poissons Ratio (z) = 0.39457 0.39457
#
# Static dielectric constant tensor:
#      x y z
#    x 1.704570 0.000000 0.000000 
#    y 0.000000 1.704570 0.000000 
#    z 0.000000 0.000000 1.739880 
# 
# From -- ./inp_files/4213.got.cif
#   From: 2010.05.17/outbox.cif.g08.bks.cpg/sg182_3_cif.got.tgz:4213.got - 2010.05.20 11:58:53.
