data_PCOD9584674
_publ_section_title
;
Structure prediction by ZEFSAII (Michael W. Deem and Ramdas Pophale) SiO2 
 PCOD9584674
Probable space group: P 63 2 2
;
_chemical_formula_sum "Si O2"
_cell_formula_units_Z 48
_cell_length_a 18.000748
_cell_length_b 18.000748
_cell_length_c 8.252394
_cell_angle_alpha 90.000000
_cell_angle_beta 90.000000
_cell_angle_gamma 120.000000
_cell_volume 2315.750095
_symmetry_space_group_name_H-M "P 63 2 2"
_symmetry_group_IT_number 182
_symmetry_cell_setting 'hexagonal'
loop_
_space_group_symop_operation_xyz
x,y,z
x-y,x,1/2+z
-y,x-y,z
-x,-y,1/2+z
-x+y,-x,z
y,-x+y,1/2+z
x-y,-y,-z
-x,-x+y,-z
y,x,-z
-y,-x,1/2-z
-x+y,y,1/2-z
x,x-y,1/2-z
loop_
_atom_site_type_symbol
_atom_site_label
_atom_site_fract_x
_atom_site_fract_y
_atom_site_fract_z
Si Si1 0.347930 0.094587 0.662347
Si Si2 0.234829 0.191960 0.328180
Si Si3 0.920781 0.396508 0.878854
Si Si4 0.426606 0.234048 0.416925
O O1 0.357399 0.178700 0.750000
O O2 0.395455 0.054507 0.761159
O O3 0.396631 0.140886 0.498750
O O4 0.250105 0.023859 0.689588
O O5 0.194204 0.194204 0.500000
O O6 0.200309 0.100155 0.250000
O O7 0.334920 0.227152 0.375703
O O8 0.898319 0.449160 0.750000
O O9 0.841133 0.320801 0.979208
O O10 0.000000 0.454314 0.000000
O O11 0.471561 0.235781 0.250000
#
# Coordination Sequence:
#
# PCOD9584674 Si02
#       4
#    12  12  12  12
#     4  10  19  40  64  92 130 171 221 273 334 407
#     4  11  20  37  61  95 134 167 225 285 329 398
#     4  11  22  40  60  95 140 164 209 274 344 399
#     4  10  21  38  67  92 129 173 220 277 327 415
#
# _framework density 20.727626000000001
#
# number of rings (size 3 to 8) (size 9 to 14) (size 15 to 20)
#    0.000    1.500    7.500    0.000    0.000    6.000 
#    0.000    0.000    0.000   14.000    6.500   15.750 
#    0.000    0.000    0.000    0.000    0.000    0.000 
#
# Total GULP energy -267269.204795 kJ/mol
# GULP energy per Si atom -5568.108433 kJ/mol
# Density = 2.068045 g / cm^3
# Si number density = 20.727626 Si / 1000 Ang^3
#
#
#
# Elastic Constant Matrix: (Units=GPa)
#
#
# Indices 1 2 3 4 5 6 
#
# 1 63.2594 22.6470 52.4452 0.0000 0.0000 0.0000
# 2 22.6470 63.2594 52.4452 0.0000 0.0000 0.0000
# 3 52.4452 52.4452 148.5595 0.0000 0.0000 0.0000
# 4 0.0000 0.0000 0.0000 42.9375 0.0000 0.0000
# 5 0.0000 0.0000 0.0000 0.0000 42.9375 0.0000
# 6 0.0000 0.0000 0.0000 0.0000 0.0000 20.3062
#
#
#
# Elastic Compliance Matrix: (Units=1/GPa)
#
#
# Indices 1 2 3 4 5 6 
#
# 1 0.022541 -0.002082 -0.007223 0.000000 0.000000 0.000000
# 2 -0.002082 0.022541 -0.007223 0.000000 0.000000 0.000000
# 3 -0.007223 -0.007223 0.011831 0.000000 0.000000 0.000000
# 4 0.000000 0.000000 0.000000 0.023290 0.000000 0.000000
# 5 0.000000 0.000000 0.000000 0.000000 0.023290 0.000000
# 6 0.000000 0.000000 0.000000 0.000000 0.000000 0.049246
#
#
# Mechanical properties :
#
#
# Convention : Reuss Voigt Hill
#
# Bulk Modulus (GPa) = 41.91307 58.90590 50.40949
# Shear Modulus (GPa) = 25.80699 31.07229 28.43964
#
# Velocity S-wave (km/s) = 3.53236 3.87599 3.70816
# Velocity P-wave (km/s) = 6.07466 6.96504 6.53503
#
# Compressibility (1/GPa) = 0.02385890
#
# Stress axis : x y z
#
# Youngs Moduli (GPa) = 44.36323 44.36323 84.52467
#
# Poissons Ratio (x) = 0.09236 0.61049
# Poissons Ratio (y) = 0.09236 0.61049
# Poissons Ratio (z) = 0.32042 0.32042
#
# Static dielectric constant tensor:
#      x y z
#    x 1.773670 0.000000 0.000000 
#    y 0.000000 1.773670 0.000000 
#    z 0.000000 0.000000 1.942840 
# 
# From -- ./inp_files/1434.got.cif
#   From: 2010.05.17/outbox.cif.g08.bks.cpg/sg182_1_cif.got.tgz:1434.got - 2010.05.20 11:58:53.
