data_PCOD9584636
_publ_section_title
;
Structure prediction by ZEFSAII (Michael W. Deem and Ramdas Pophale) SiO2 
 PCOD9584636
Probable space group: P 63 2 2
;
_chemical_formula_sum "Si O2"
_cell_formula_units_Z 84
_cell_length_a 30.481667
_cell_length_b 30.481667
_cell_length_c 5.483712
_cell_angle_alpha 90.000000
_cell_angle_beta 90.000000
_cell_angle_gamma 120.000000
_cell_volume 4412.479474
_symmetry_space_group_name_H-M "P 63 2 2"
_symmetry_group_IT_number 182
_symmetry_cell_setting 'hexagonal'
loop_
_space_group_symop_operation_xyz
x,y,z
x-y,x,1/2+z
-y,x-y,z
-x,-y,1/2+z
-x+y,-x,z
y,-x+y,1/2+z
x-y,-y,-z
-x,-x+y,-z
y,x,-z
-y,-x,1/2-z
-x+y,y,1/2-z
x,x-y,1/2-z
loop_
_atom_site_type_symbol
_atom_site_label
_atom_site_fract_x
_atom_site_fract_y
_atom_site_fract_z
Si Si1 0.060231 0.172824 1.000000
Si Si2 0.514689 0.674099 1.000000
Si Si3 0.120601 0.293622 1.000000
Si Si4 0.353000 0.841473 0.500000
Si Si5 0.944948 0.597554 1.000000
Si Si6 0.626616 0.711483 1.000000
Si Si7 0.468774 0.557224 0.000000
O O1 0.080535 0.161070 0.750000
O O2 0.080535 0.161070 0.250000
O O3 0.082523 0.233369 1.000000
O O4 0.000000 0.143106 0.000000
O O5 0.488777 0.674270 0.251829
O O6 0.574156 0.713439 1.000000
O O7 0.488777 0.674270 0.748171
O O8 0.508306 0.616932 1.000000
O O9 0.152923 0.305846 0.250000
O O10 0.091976 0.325293 0.000000
O O11 0.152923 0.305846 0.750000
O O12 0.353060 0.895200 0.500000
O O13 0.412572 0.860795 0.500000
O O14 0.940967 0.623646 0.248910
O O15 0.940967 0.623646 0.751089
O O16 0.000000 0.602349 0.000000
O O17 0.469113 0.530888 0.750000
O O18 0.469113 0.530888 0.250000
#
# Coordination Sequence:
#
# PCOD9584636 Si02
#       7
#    12  12  12  12  12  12  12
#     4  10  21  38  61  86 111 137 161 184 212 253
#     4   8  14  23  38  55  74 103 142 184 230 272
#     4  10  21  37  55  77 101 125 156 189 226 270
#     4   8  14  23  35  50  74 105 140 182 226 269
#     4  10  19  29  42  62  87 116 151 189 232 277
#     4  10  19  32  47  64  88 117 148 189 233 266
#     4   8  12  20  34  50  69  99 139 183 227 269
#
# _framework density 19.036916999999999
#
# number of rings (size 3 to 8) (size 9 to 14) (size 15 to 20)
#    0.000    2.857    0.000    1.714    0.000    1.143 
#    0.000    0.000    0.000   24.286    0.000    0.000 
#    0.000    0.000    0.000    0.000    0.000    0.000 
#
# Total GULP energy -467817.239138 kJ/mol
# GULP energy per Si atom -5569.252847 kJ/mol
# Density = 1.899359 g / cm^3
# Si number density = 19.036917 Si / 1000 Ang^3
#
#
#
# Elastic Constant Matrix: (Units=GPa)
#
#
# Indices 1 2 3 4 5 6 
#
# 1 32.0449 9.4876 18.4509 0.0000 0.0000 0.0000
# 2 9.4876 32.0449 18.4509 0.0000 0.0000 0.0000
# 3 18.4509 18.4509 206.4530 0.0000 0.0000 0.0000
# 4 0.0000 0.0000 0.0000 15.4396 0.0000 0.0000
# 5 0.0000 0.0000 0.0000 0.0000 15.4396 0.0000
# 6 0.0000 0.0000 0.0000 0.0000 0.0000 11.2786
#
#
#
# Elastic Compliance Matrix: (Units=1/GPa)
#
#
# Indices 1 2 3 4 5 6 
#
# 1 0.035243 -0.009089 -0.002337 0.000000 0.000000 0.000000
# 2 -0.009089 0.035243 -0.002337 0.000000 0.000000 0.000000
# 3 -0.002337 -0.002337 0.005262 0.000000 0.000000 0.000000
# 4 0.000000 0.000000 0.000000 0.064769 0.000000 0.000000
# 5 0.000000 0.000000 0.000000 0.000000 0.064769 0.000000
# 6 0.000000 0.000000 0.000000 0.000000 0.000000 0.088663
#
#
# Mechanical properties :
#
#
# Convention : Reuss Voigt Hill
#
# Bulk Modulus (GPa) = 20.73809 40.36906 30.55358
# Shear Modulus (GPa) = 14.81268 23.37511 19.09389
#
# Velocity S-wave (km/s) = 2.79248 3.50792 3.17044
# Velocity P-wave (km/s) = 4.61676 6.13669 5.43017
#
# Compressibility (1/GPa) = 0.04822044
#
# Stress axis : x y z
#
# Youngs Moduli (GPa) = 28.37444 28.37444 190.05934
#
# Poissons Ratio (x) = 0.25789 0.44425
# Poissons Ratio (y) = 0.25789 0.44425
# Poissons Ratio (z) = 0.06632 0.06632
#
# Static dielectric constant tensor:
#      x y z
#    x 1.643270 0.000000 0.000000 
#    y 0.000000 1.643270 0.000000 
#    z 0.000000 0.000000 1.790330 
# 
# From -- ./inp_files/837.got.cif
#   From: 2010.05.17/outbox.cif.g08.bks.cpg/sg182_1_cif.got.tgz:837.got - 2010.05.20 11:58:53.
