data_PCOD9584549
_publ_section_title
;
Structure prediction by ZEFSAII (Michael W. Deem and Ramdas Pophale) SiO2 
 PCOD9584549
Probable space group: P 64 2 2
;
_chemical_formula_sum "Si O2"
_cell_formula_units_Z 54
_cell_length_a 11.185832
_cell_length_b 11.185832
_cell_length_c 23.167825
_cell_angle_alpha 90.000000
_cell_angle_beta 90.000000
_cell_angle_gamma 120.000000
_cell_volume 2510.455228
_symmetry_space_group_name_H-M "P 64 2 2"
_symmetry_group_IT_number 181
_symmetry_cell_setting 'hexagonal'
loop_
_space_group_symop_operation_xyz
x,y,z
x-y,x,2/3+z
-y,x-y,1/3+z
-x,-y,z
-x+y,-x,2/3+z
y,-x+y,1/3+z
x-y,-y,-z
-x,-x+y,2/3-z
y,x,1/3-z
-y,-x,1/3-z
-x+y,y,-z
x,x-y,2/3-z
loop_
_atom_site_type_symbol
_atom_site_label
_atom_site_fract_x
_atom_site_fract_y
_atom_site_fract_z
Si Si1 0.625425 0.312713 0.333334
Si Si2 0.000000 0.500000 0.419134
Si Si3 0.298294 0.000000 0.000000
Si Si4 0.230134 0.998829 0.624285
Si Si5 0.000000 0.500000 0.999598
Si Si6 0.266032 0.540881 0.210573
Si Si7 0.281195 0.281195 0.166667
O O1 0.555779 0.401355 0.360129
O O2 0.693509 0.406217 0.276399
O O3 0.937384 0.574847 0.378939
O O4 0.895043 0.375992 0.457529
O O5 0.153928 0.887079 0.972785
O O6 0.374236 0.999777 0.631934
O O7 0.188731 0.964387 0.557404
O O8 0.113159 0.886842 0.666667
O O9 0.335109 0.664892 0.166667
O O10 0.298882 0.426563 0.186457
#
# Coordination Sequence:
#
# PCOD9584549 Si02
#       7
#     6   6   6  12   6  12   6
#     4  12  24  45  72 113 152 210 264 328 412 474
#     4  11  22  47  74 105 141 203 261 318 394 497
#     4  11  23  50  78 100 151 205 264 312 408 486
#     4  12  26  46  76 112 153 209 260 333 410 495
#     4  12  22  42  72 115 153 202 266 330 396 490
#     4  12  26  44  76 110 153 201 255 334 402 482
#     4  12  25  48  73 110 152 198 265 319 414 486
#
# _framework density 21.510045000000002
#
# number of rings (size 3 to 8) (size 9 to 14) (size 15 to 20)
#    0.000    0.222    5.556    4.667    0.000    0.889 
#    4.000    2.222    0.000    0.000    0.000    0.000 
#    0.000    0.000    0.000    0.000    0.000    0.000 
#
# Total GULP energy -300638.484872 kJ/mol
# GULP energy per Si atom -5567.379349 kJ/mol
# Density = 2.146109 g / cm^3
# Si number density = 21.510045 Si / 1000 Ang^3
#
#
#
# Elastic Constant Matrix: (Units=GPa)
#
#
# Indices 1 2 3 4 5 6 
#
# 1 112.5092 55.9181 54.4494 0.0000 0.0000 0.0000
# 2 55.9181 112.5092 54.4494 0.0000 0.0000 0.0000
# 3 54.4494 54.4494 138.9435 0.0000 0.0000 0.0000
# 4 0.0000 0.0000 0.0000 29.3309 0.0000 0.0000
# 5 0.0000 0.0000 0.0000 0.0000 29.3309 0.0000
# 6 0.0000 0.0000 0.0000 0.0000 0.0000 28.2956
#
#
#
# Elastic Compliance Matrix: (Units=1/GPa)
#
#
# Indices 1 2 3 4 5 6 
#
# 1 0.012811 -0.004859 -0.003116 0.000000 0.000000 0.000000
# 2 -0.004859 0.012811 -0.003116 0.000000 0.000000 0.000000
# 3 -0.003116 -0.003116 0.009640 0.000000 0.000000 0.000000
# 4 0.000000 0.000000 0.000000 0.034094 0.000000 0.000000
# 5 0.000000 0.000000 0.000000 0.000000 0.034094 0.000000
# 6 0.000000 0.000000 0.000000 0.000000 0.000000 0.035341
#
#
# Mechanical properties :
#
#
# Convention : Reuss Voigt Hill
#
# Bulk Modulus (GPa) = 76.46007 77.06618 76.76313
# Shear Modulus (GPa) = 30.24176 30.66782 30.45479
#
# Velocity S-wave (km/s) = 3.75365 3.78000 3.76685
# Velocity P-wave (km/s) = 7.37631 7.41330 7.39482
#
# Compressibility (1/GPa) = 0.01307872
#
# Stress axis : x y z
#
# Youngs Moduli (GPa) = 78.05557 78.05557 103.73854
#
# Poissons Ratio (x) = 0.37929 0.32328
# Poissons Ratio (y) = 0.37929 0.32328
# Poissons Ratio (z) = 0.24325 0.24325
#
# Static dielectric constant tensor:
#      x y z
#    x 1.842250 0.000000 0.000000 
#    y 0.000000 1.842250 0.000000 
#    z 0.000000 0.000000 1.836330 
# 
# From -- ./inp_files/10094.got.cif
#   From: 2010.05.17/outbox.cif.g08.bks.cpg/sg181_6_cif.got.tgz:10094.got - 2010.05.20 11:51:17.
