data_PCOD9584677
_publ_section_title
;
Structure prediction by ZEFSAII (Michael W. Deem and Ramdas Pophale) SiO2 
 PCOD9584677
Probable space group: P 63 2 2
;
_chemical_formula_sum "Si O2"
_cell_formula_units_Z 66
_cell_length_a 30.515669
_cell_length_b 30.515669
_cell_length_c 5.463427
_cell_angle_alpha 90.000000
_cell_angle_beta 90.000000
_cell_angle_gamma 120.000000
_cell_volume 4405.970320
_symmetry_space_group_name_H-M "P 63 2 2"
_symmetry_group_IT_number 182
_symmetry_cell_setting 'hexagonal'
loop_
_space_group_symop_operation_xyz
x,y,z
x-y,x,1/2+z
-y,x-y,z
-x,-y,1/2+z
-x+y,-x,z
y,-x+y,1/2+z
x-y,-y,-z
-x,-x+y,-z
y,x,-z
-y,-x,1/2-z
-x+y,y,1/2-z
x,x-y,1/2-z
loop_
_atom_site_type_symbol
_atom_site_label
_atom_site_fract_x
_atom_site_fract_y
_atom_site_fract_z
Si Si1 0.594969 0.656256 0.990949
Si Si2 0.094285 0.809270 0.814672
Si Si3 0.355334 0.061441 0.511195
Si Si4 0.938325 0.444838 0.000245
Si Si5 0.226678 0.000000 0.000000
Si Si6 0.184259 0.136363 0.886620
O O1 0.611094 0.687039 0.736438
O O2 0.625403 0.625403 0.000000
O O3 0.612340 0.688331 0.240528
O O4 0.536094 0.613903 0.996072
O O5 0.152976 0.847025 0.750000
O O6 0.086981 0.766465 0.005058
O O7 0.049949 0.775223 0.614358
O O8 0.077511 0.847802 0.923213
O O9 0.319404 0.000000 0.500000
O O10 0.922490 0.461245 0.750000
O O11 0.922445 0.461223 0.250000
O O12 0.000000 0.476050 0.000000
O O13 0.183922 0.976552 0.205186
O O14 0.172725 0.086363 0.750000
O O15 0.135976 0.135976 0.000000
#
# Coordination Sequence:
#
# PCOD9584677 Si02
#       6
#    12  12  12  12   6  12
#     4   9  18  29  42  63  86 117 153 181 225 275
#     4  11  22  33  49  67  88 119 145 186 229 290
#     4  10  20  31  46  62  89 120 149 185 229 283
#     4   9  15  24  40  59  84 112 146 189 225 255
#     4  10  20  34  50  64  94 102 138 174 226 280
#     4  10  20  33  50  71  93 108 131 167 218 278
#
# _framework density 14.979675
#
# number of rings (size 3 to 8) (size 9 to 14) (size 15 to 20)
#    0.000    2.182    1.818    2.727    6.364    4.364 
#    0.000    0.000    0.000    0.000    0.000    0.000 
#    9.091    0.000    0.000    0.000    0.000    0.000 
#
# Total GULP energy -367586.579554 kJ/mol
# GULP energy per Si atom -5569.493630 kJ/mol
# Density = 1.494558 g / cm^3
# Si number density = 14.979675 Si / 1000 Ang^3
#
#
#
# Elastic Constant Matrix: (Units=GPa)
#
#
# Indices 1 2 3 4 5 6 
#
# 1 63.8918 41.7518 41.2589 0.0000 0.0000 0.0000
# 2 41.7518 63.8918 41.2589 0.0000 0.0000 0.0000
# 3 41.2589 41.2589 107.4877 0.0000 0.0000 0.0000
# 4 0.0000 0.0000 0.0000 19.9623 0.0000 0.0000
# 5 0.0000 0.0000 0.0000 0.0000 19.9623 0.0000
# 6 0.0000 0.0000 0.0000 0.0000 0.0000 11.0700
#
#
#
# Elastic Compliance Matrix: (Units=1/GPa)
#
#
# Indices 1 2 3 4 5 6 
#
# 1 0.029343 -0.015824 -0.005189 0.000000 0.000000 0.000000
# 2 -0.015824 0.029343 -0.005189 0.000000 0.000000 0.000000
# 3 -0.005189 -0.005189 0.013287 0.000000 0.000000 0.000000
# 4 0.000000 0.000000 0.000000 0.050094 0.000000 0.000000
# 5 0.000000 0.000000 0.000000 0.000000 0.050094 0.000000
# 6 0.000000 0.000000 0.000000 0.000000 0.000000 0.090334
#
#
# Mechanical properties :
#
#
# Convention : Reuss Voigt Hill
#
# Bulk Modulus (GPa) = 51.10309 53.75670 52.42990
# Shear Modulus (GPa) = 15.55573 17.59902 16.57738
#
# Velocity S-wave (km/s) = 3.22600 3.43134 3.33026
# Velocity P-wave (km/s) = 6.93290 7.18771 7.06146
#
# Compressibility (1/GPa) = 0.01956829
#
# Stress axis : x y z
#
# Youngs Moduli (GPa) = 34.07947 34.07947 75.26057
#
# Poissons Ratio (x) = 0.53928 0.39055
# Poissons Ratio (y) = 0.53928 0.39055
# Poissons Ratio (z) = 0.17685 0.17685
#
# Static dielectric constant tensor:
#      x y z
#    x 1.496480 0.000000 0.000000 
#    y 0.000000 1.496480 0.000000 
#    z 0.000000 0.000000 1.559500 
# 
# From -- ./inp_files/816.got.cif
#   From: 2010.05.17/outbox.cif.g08.bks.cpg/sg182_1_cif.got.tgz:816.got - 2010.05.20 11:58:53.
