data_PCOD9584381
_publ_section_title
;
Structure prediction by ZEFSAII (Michael W. Deem and Ramdas Pophale) SiO2 
 PCOD9584381
Probable space group: P 64 2 2
;
_chemical_formula_sum "Si O2"
_cell_formula_units_Z 66
_cell_length_a 20.323103
_cell_length_b 20.323103
_cell_length_c 9.176831
_cell_angle_alpha 90.000000
_cell_angle_beta 90.000000
_cell_angle_gamma 120.000000
_cell_volume 3282.489927
_symmetry_space_group_name_H-M "P 64 2 2"
_symmetry_group_IT_number 181
_symmetry_cell_setting 'hexagonal'
loop_
_space_group_symop_operation_xyz
x,y,z
x-y,x,2/3+z
-y,x-y,1/3+z
-x,-y,z
-x+y,-x,2/3+z
y,-x+y,1/3+z
x-y,-y,-z
-x,-x+y,2/3-z
y,x,1/3-z
-y,-x,1/3-z
-x+y,y,-z
x,x-y,2/3-z
loop_
_atom_site_type_symbol
_atom_site_label
_atom_site_fract_x
_atom_site_fract_y
_atom_site_fract_z
Si Si1 0.523264 0.870635 0.682436
Si Si2 0.590980 0.108584 0.856135
Si Si3 0.000000 0.662206 0.833334
Si Si4 0.719555 0.435611 0.167535
Si Si5 0.708557 0.654095 0.868933
Si Si6 0.113198 0.756097 0.241821
O O1 0.461502 0.893808 0.724609
O O2 0.481202 0.791244 0.597210
O O3 0.561600 0.861775 0.831551
O O4 0.589259 0.936496 0.586945
O O5 0.651419 0.197591 0.881740
O O6 0.634001 0.063270 0.816457
O O7 0.540252 0.080504 0.000000
O O8 0.048754 0.722598 0.706036
O O9 0.653256 0.346745 0.166667
O O10 0.731067 0.462133 0.000000
O O11 0.762533 0.645585 0.750307
O O12 0.691056 0.717325 0.806639
O O13 0.164121 0.835880 0.166667
#
# Coordination Sequence:
#
# PCOD9584381 Si02
#       6
#    12  12   6  12  12  12
#     4  11  24  39  60  79 110 152 195 259 330 382
#     4  12  24  38  59  82 114 153 204 267 329 399
#     4  10  24  41  58  84 114 150 198 256 321 404
#     4  12  24  39  55  82 115 158 208 267 342 401
#     4  10  22  40  60  85 114 152 196 251 318 389
#     4  10  21  40  61  86 113 147 196 252 314 382
#
# _framework density 20.106687999999998
#
# number of rings (size 3 to 8) (size 9 to 14) (size 15 to 20)
#    0.000    1.091    3.636    2.727    0.000    3.636 
#    0.000    2.727    0.000    0.000    0.000    0.000 
#    0.000    0.000    0.000    0.000    0.000    0.000 
#
# Total GULP energy -368739.639761 kJ/mol
# GULP energy per Si atom -5586.964239 kJ/mol
# Density = 2.006092 g / cm^3
# Si number density = 20.106688 Si / 1000 Ang^3
#
#
#
# Elastic Constant Matrix: (Units=GPa)
#
#
# Indices 1 2 3 4 5 6 
#
# 1 73.3792 23.5421 27.8633 0.0000 0.0000 0.0000
# 2 23.5421 73.3792 27.8633 0.0000 0.0000 0.0000
# 3 27.8633 27.8633 156.7707 0.0000 0.0000 0.0000
# 4 0.0000 0.0000 0.0000 27.8764 0.0000 0.0000
# 5 0.0000 0.0000 0.0000 0.0000 27.8764 0.0000
# 6 0.0000 0.0000 0.0000 0.0000 0.0000 24.9185
#
#
#
# Elastic Compliance Matrix: (Units=1/GPa)
#
#
# Indices 1 2 3 4 5 6 
#
# 1 0.015779 -0.004287 -0.002043 0.000000 0.000000 0.000000
# 2 -0.004287 0.015779 -0.002043 0.000000 0.000000 0.000000
# 3 -0.002043 -0.002043 0.007105 0.000000 0.000000 0.000000
# 4 0.000000 0.000000 0.000000 0.035873 0.000000 0.000000
# 5 0.000000 0.000000 0.000000 0.000000 0.035873 0.000000
# 6 0.000000 0.000000 0.000000 0.000000 0.000000 0.040131
#
#
# Mechanical properties :
#
#
# Convention : Reuss Voigt Hill
#
# Bulk Modulus (GPa) = 45.62294 51.34073 48.48183
# Shear Modulus (GPa) = 28.63883 31.08493 29.86188
#
# Velocity S-wave (km/s) = 3.77814 3.93619 3.85797
# Velocity P-wave (km/s) = 6.46314 6.80056 6.63400
#
# Compressibility (1/GPa) = 0.02191880
#
# Stress axis : x y z
#
# Youngs Moduli (GPa) = 63.37651 63.37651 140.75020
#
# Poissons Ratio (x) = 0.27168 0.28748
# Poissons Ratio (y) = 0.27168 0.28748
# Poissons Ratio (z) = 0.12945 0.12945
#
# Static dielectric constant tensor:
#      x y z
#    x 1.808750 0.000000 0.000000 
#    y 0.000000 1.808750 0.000000 
#    z 0.000000 0.000000 2.696400 
# 
# From -- ./inp_files/3188.got.cif
#   From: 2010.05.17/outbox.cif.g08.bks.cpg/sg181_2_cif.got.tgz:3188.got - 2010.05.20 11:51:17.
