data_PCOD9584724
_publ_section_title
;
Structure prediction by ZEFSAII (Michael W. Deem and Ramdas Pophale) SiO2 
 PCOD9584724
Probable space group: P 63 2 2
;
_chemical_formula_sum "Si O2"
_cell_formula_units_Z 76
_cell_length_a 17.657349
_cell_length_b 17.657349
_cell_length_c 13.221736
_cell_angle_alpha 90.000000
_cell_angle_beta 90.000000
_cell_angle_gamma 120.000000
_cell_volume 3570.015609
_symmetry_space_group_name_H-M "P 63 2 2"
_symmetry_group_IT_number 182
_symmetry_cell_setting 'hexagonal'
loop_
_space_group_symop_operation_xyz
x,y,z
x-y,x,1/2+z
-y,x-y,z
-x,-y,1/2+z
-x+y,-x,z
y,-x+y,1/2+z
x-y,-y,-z
-x,-x+y,-z
y,x,-z
-y,-x,1/2-z
-x+y,y,1/2-z
x,x-y,1/2-z
loop_
_atom_site_type_symbol
_atom_site_label
_atom_site_fract_x
_atom_site_fract_y
_atom_site_fract_z
Si Si1 0.030334 0.705811 0.887920
Si Si2 0.000000 0.000000 0.873206
Si Si3 0.198914 0.724854 0.948202
Si Si4 0.801092 0.921744 0.132726
Si Si5 0.566009 0.970290 0.292536
Si Si6 0.162920 0.777189 0.365585
Si Si7 0.548676 0.390420 0.361825
O O1 0.134077 0.747675 0.886783
O O2 0.996824 0.774787 0.876543
O O3 0.990937 0.632624 0.801393
O O4 0.000000 0.665402 0.000000
O O5 0.101828 0.054609 0.904815
O O6 0.000000 0.000000 0.750000
O O7 0.160787 0.622106 0.935078
O O8 0.294627 0.775637 0.900778
O O9 0.202107 0.756787 0.062036
O O10 0.804081 0.902041 0.250000
O O11 0.714402 0.834347 0.094054
O O12 0.468930 0.937860 0.250000
O O13 0.577898 0.903570 0.362639
O O14 0.593937 0.061174 0.348797
O O15 0.193467 0.806534 0.250000
O O16 0.591541 0.408460 0.250000
#
# Coordination Sequence:
#
# PCOD9584724 Si02
#       7
#    12   4  12  12  12  12  12
#     4  12  22  41  73  99 135 190 242 290 360 435
#     4   9  21  39  64  98 133 195 238 299 364 427
#     4  12  25  45  73 102 140 191 236 297 368 433
#     4  10  20  41  66  96 140 185 240 299 358 431
#     4  11  23  44  69 103 140 186 233 302 359 433
#     4  11  23  44  71 102 142 188 239 298 354 436
#     4  11  25  45  68 104 141 180 237 299 364 432
#
# _framework density 21.288423000000002
#
# number of rings (size 3 to 8) (size 9 to 14) (size 15 to 20)
#    0.000    0.947    7.895    0.789    0.000    4.421 
#    2.842    0.789    0.000    0.316    0.000    0.000 
#    0.000    0.000    0.000    0.000    0.000    0.000 
#
# Total GULP energy -424830.943655 kJ/mol
# GULP energy per Si atom -5589.880838 kJ/mol
# Density = 2.123997 g / cm^3
# Si number density = 21.288423 Si / 1000 Ang^3
#
#
#
# Elastic Constant Matrix: (Units=GPa)
#
#
# Indices 1 2 3 4 5 6 
#
# 1 144.5840 69.4822 38.7478 0.0000 0.0000 0.0000
# 2 69.4822 144.5840 38.7478 0.0000 0.0000 0.0000
# 3 38.7478 38.7478 88.6055 0.0000 0.0000 0.0000
# 4 0.0000 0.0000 0.0000 28.3395 0.0000 0.0000
# 5 0.0000 0.0000 0.0000 0.0000 28.3395 0.0000
# 6 0.0000 0.0000 0.0000 0.0000 0.0000 37.5509
#
#
#
# Elastic Compliance Matrix: (Units=1/GPa)
#
#
# Indices 1 2 3 4 5 6 
#
# 1 0.009433 -0.003883 -0.002427 0.000000 0.000000 0.000000
# 2 -0.003883 0.009433 -0.002427 0.000000 0.000000 0.000000
# 3 -0.002427 -0.002427 0.013409 0.000000 0.000000 0.000000
# 4 0.000000 0.000000 0.000000 0.035286 0.000000 0.000000
# 5 0.000000 0.000000 0.000000 0.000000 0.035286 0.000000
# 6 0.000000 0.000000 0.000000 0.000000 0.000000 0.026631
#
#
# Mechanical properties :
#
#
# Convention : Reuss Voigt Hill
#
# Bulk Modulus (GPa) = 67.56495 74.63654 71.10075
# Shear Modulus (GPa) = 32.91977 34.23239 33.57608
#
# Velocity S-wave (km/s) = 3.93666 4.01437 3.97571
# Velocity P-wave (km/s) = 7.24360 7.52481 7.38554
#
# Compressibility (1/GPa) = 0.01480057
#
# Stress axis : x y z
#
# Youngs Moduli (GPa) = 106.01445 106.01445 74.57815
#
# Poissons Ratio (x) = 0.41161 0.18101
# Poissons Ratio (y) = 0.41161 0.18101
# Poissons Ratio (z) = 0.25731 0.25731
#
# Static dielectric constant tensor:
#      x y z
#    x 1.774920 0.000000 0.000000 
#    y 0.000000 1.774920 0.000000 
#    z 0.000000 0.000000 1.822960 
# 
# From -- ./inp_files/3657.got.cif
#   From: 2010.05.17/outbox.cif.g08.bks.cpg/sg182_2_cif.got.tgz:3657.got - 2010.05.20 11:58:53.
