data_PCOD9584799
_publ_section_title
;
Structure prediction by ZEFSAII (Michael W. Deem and Ramdas Pophale) SiO2 
 PCOD9584799
Probable space group: P 63 2 2
;
_chemical_formula_sum "Si O2"
_cell_formula_units_Z 58
_cell_length_a 14.125635
_cell_length_b 14.125635
_cell_length_c 15.101688
_cell_angle_alpha 90.000000
_cell_angle_beta 90.000000
_cell_angle_gamma 120.000000
_cell_volume 2609.588834
_symmetry_space_group_name_H-M "P 63 2 2"
_symmetry_group_IT_number 182
_symmetry_cell_setting 'hexagonal'
loop_
_space_group_symop_operation_xyz
x,y,z
x-y,x,1/2+z
-y,x-y,z
-x,-y,1/2+z
-x+y,-x,z
y,-x+y,1/2+z
x-y,-y,-z
-x,-x+y,-z
y,x,-z
-y,-x,1/2-z
-x+y,y,1/2-z
x,x-y,1/2-z
loop_
_atom_site_type_symbol
_atom_site_label
_atom_site_fract_x
_atom_site_fract_y
_atom_site_fract_z
Si Si1 0.104174 0.505815 0.049877
Si Si2 0.765770 0.000000 0.000000
Si Si3 0.332634 0.440981 0.263580
Si Si4 0.666668 0.333334 0.146525
Si Si5 0.200952 0.999487 0.700357
Si Si6 0.476381 0.194993 0.474694
O O1 0.080359 0.428494 0.132739
O O2 0.166200 0.467986 0.985006
O O3 0.180766 0.637426 0.057347
O O4 0.000000 0.493524 0.000000
O O5 0.744349 0.099110 0.020898
O O6 0.815228 0.991218 0.094542
O O7 0.449755 0.550246 0.250000
O O8 0.230993 0.461985 0.250000
O O9 0.299400 0.327922 0.213157
O O10 0.666668 0.333334 0.250000
O O11 0.773716 0.441428 0.108036
O O12 0.194516 0.097258 0.750000
O O13 0.112731 0.887270 0.750000
#
# Coordination Sequence:
#
# PCOD9584799 Si02
#       6
#    12   6  12   4  12  12
#     4  11  22  40  67  96 137 182 233 283 355 432
#     4  12  24  46  72  98 148 180 234 308 362 422
#     4  11  23  42  69 108 141 177 234 296 363 442
#     4   9  21  42  66  99 151 188 244 297 372 459
#     4  11  27  49  73 106 140 187 249 299 364 437
#     4  10  22  41  65 101 134 191 234 287 367 437
#
# _framework density 22.225724
#
# number of rings (size 3 to 8) (size 9 to 14) (size 15 to 20)
#    0.000    1.241    1.034    5.793    2.897    1.655 
#    3.724    0.000    0.000    0.414    0.000    0.000 
#    0.000    0.000    0.000    0.000    0.000    0.000 
#
# Total GULP energy -323010.570483 kJ/mol
# GULP energy per Si atom -5569.147767 kJ/mol
# Density = 2.217514 g / cm^3
# Si number density = 22.225724 Si / 1000 Ang^3
#
#
#
# Elastic Constant Matrix: (Units=GPa)
#
#
# Indices 1 2 3 4 5 6 
#
# 1 87.9451 46.0359 27.0436 0.0000 0.0000 0.0001
# 2 46.0359 87.9453 27.0437 0.0000 0.0002 0.0000
# 3 27.0436 27.0437 161.4935 -0.0002 -0.0001 0.0000
# 4 0.0000 0.0000 -0.0002 -0.3681 0.0003 -0.0001
# 5 0.0000 0.0002 -0.0001 0.0003 -0.3688 0.0000
# 6 0.0001 0.0000 0.0000 -0.0001 0.0000 20.9546
#
#
#
# Elastic Compliance Matrix: (Units=1/GPa)
#
#
# Indices 1 2 3 4 5 6 
#
# 1 0.015933 -0.007928 -0.001340 -0.000002 -0.000003 0.000000
# 2 -0.007928 0.015933 -0.001341 0.000004 0.000007 0.000000
# 3 -0.001340 -0.001341 0.006641 -0.000004 -0.000003 0.000000
# 4 -0.000002 0.000004 -0.000004 -2.716372 -0.002472 -0.000010
# 5 -0.000003 0.000007 -0.000003 -0.002472 -2.711541 0.000005
# 6 0.000000 0.000000 0.000000 -0.000010 0.000005 0.047722
#
#
# Mechanical properties :
#
#
# Convention : Reuss Voigt Hill
#
# Bulk Modulus (GPa) = 57.84042 59.73672 58.78857
# Shear Modulus (GPa) = -0.94079 19.86092 9.46007
#
# Velocity S-wave (km/s) = -0.65131 2.99256 2.06533
# Velocity P-wave (km/s) = 5.05124 6.23508 5.67411
#
# Compressibility (1/GPa) = 0.01728895
#
# Stress axis : x y z
#
# Youngs Moduli (GPa) = 62.76290 62.76305 150.57611
#
# Poissons Ratio (x) = 0.49759 0.20185
# Poissons Ratio (y) = 0.49759 0.20185
# Poissons Ratio (z) = 0.08413 0.08413
#
# Static dielectric constant tensor:
#      x y z
#    x 1.905670 0.000000 0.000000 
#    y 0.000000 1.905670 0.000000 
#    z 0.000000 0.000000 1.702440 
# 
# From -- ./inp_files/3514.got.cif
#   From: 2010.05.17/outbox.cif.g08.bks.cpg/sg182_2_cif.got.tgz:3514.got - 2010.05.20 11:58:53.
