data_PCOD9584954
_publ_section_title
;
Structure prediction by ZEFSAII (Michael W. Deem and Ramdas Pophale) SiO2 
 PCOD9584954
Probable space group: P 6 M M
;
_chemical_formula_sum "Si O2"
_cell_formula_units_Z 84
_cell_length_a 22.556253
_cell_length_b 22.556253
_cell_length_c 13.123808
_cell_angle_alpha 90.000000
_cell_angle_beta 90.000000
_cell_angle_gamma 120.000000
_cell_volume 5782.616806
_symmetry_space_group_name_H-M "P 6 M M"
_symmetry_group_IT_number 183
_symmetry_cell_setting 'hexagonal'
loop_
_space_group_symop_operation_xyz
x,y,z
x-y,x,z
-y,x-y,z
-x,-y,z
-x+y,-x,z
y,-x+y,z
-x+y,y,z
x,x-y,z
-y,-x,z
y,x,z
x-y,-y,z
-x,-x+y,z
loop_
_atom_site_type_symbol
_atom_site_label
_atom_site_fract_x
_atom_site_fract_y
_atom_site_fract_z
Si Si1 0.665861 0.191836 0.464800
Si Si2 0.846632 0.553987 0.675139
Si Si3 0.526586 0.917068 0.087539
Si Si4 0.922507 0.711301 0.613891
Si Si5 0.080767 0.657211 0.306138
Si Si6 0.388548 0.468309 0.863586
Si Si7 0.924415 0.209059 0.367433
O O1 0.603651 0.207301 0.464474
O O2 0.739094 0.260907 0.445880
O O3 0.671734 0.162860 0.574903
O O4 0.650963 0.133034 0.382091
O O5 0.772693 0.545386 0.697709
O O6 0.896468 0.633823 0.648389
O O7 0.876326 0.534416 0.771224
O O8 0.446897 0.893793 0.099808
O O9 0.552959 0.899674 0.189477
O O10 0.566749 0.000000 0.082052
O O11 0.538583 0.895237 0.976330
O O12 0.864997 0.729993 0.646922
O O13 0.922330 0.710952 0.490581
O O14 0.000000 0.761843 0.648081
O O15 0.085602 0.729423 0.327946
O O16 0.000000 0.599543 0.321221
O O17 0.459218 0.540783 0.864191
O O18 0.410878 0.410878 0.850572
O O19 0.863468 0.136533 0.332914
O O20 0.000000 0.226079 0.337233
#
# Coordination Sequence:
#
# PCOD9584954 Si02
#       7
#    12  12  12  12  12  12  12
#     4  11  22  34  46  62  88 120 150 182 221 265
#     4  10  19  30  44  63  89 115 146 185 220 259
#     4   8  15  28  44  64  89 114 140 174 219 266
#     4   9  16  27  43  63  89 118 145 177 218 263
#     4  10  18  29  48  70  90 112 143 184 226 266
#     4   9  17  30  48  66  85 110 141 179 221 264
#     4   9  16  27  43  64  90 118 146 176 216 262
#
# _framework density 14.526294999999999
#
# number of rings (size 3 to 8) (size 9 to 14) (size 15 to 20)
#    0.000    2.571    1.429    2.714    0.000    1.429 
#    0.000    1.429    0.000    0.571    0.000    2.000 
#    0.000    0.000    0.000    0.000    0.000    0.000 
#
# Total GULP energy -467777.699653 kJ/mol
# GULP energy per Si atom -5568.782139 kJ/mol
# Density = 1.449323 g / cm^3
# Si number density = 14.526295 Si / 1000 Ang^3
#
#
#
# Elastic Constant Matrix: (Units=GPa)
#
#
# Indices 1 2 3 4 5 6 
#
# 1 69.8956 36.5117 41.9995 0.0000 0.0000 0.0000
# 2 36.5117 69.8956 41.9995 0.0000 0.0000 0.0000
# 3 41.9995 41.9995 95.0329 0.0000 0.0000 0.0000
# 4 0.0000 0.0000 0.0000 14.6942 0.0000 0.0000
# 5 0.0000 0.0000 0.0000 0.0000 14.6942 0.0000
# 6 0.0000 0.0000 0.0000 0.0000 0.0000 16.6920
#
#
#
# Elastic Compliance Matrix: (Units=1/GPa)
#
#
# Indices 1 2 3 4 5 6 
#
# 1 0.022194 -0.007761 -0.006379 0.000000 0.000000 0.000000
# 2 -0.007761 0.022194 -0.006379 0.000000 0.000000 0.000000
# 3 -0.006379 -0.006379 0.016161 0.000000 0.000000 0.000000
# 4 0.000000 0.000000 0.000000 0.068054 0.000000 0.000000
# 5 0.000000 0.000000 0.000000 0.000000 0.068054 0.000000
# 6 0.000000 0.000000 0.000000 0.000000 0.000000 0.059909
#
#
# Mechanical properties :
#
#
# Convention : Reuss Voigt Hill
#
# Bulk Modulus (GPa) = 51.24944 52.87172 52.06058
# Shear Modulus (GPa) = 16.44162 16.83696 16.63929
#
# Velocity S-wave (km/s) = 3.36795 3.40820 3.38814
# Velocity P-wave (km/s) = 7.10501 7.20861 7.15700
#
# Compressibility (1/GPa) = 0.01951241
#
# Stress axis : x y z
#
# Youngs Moduli (GPa) = 45.05737 45.05737 61.87806
#
# Poissons Ratio (x) = 0.34967 0.39471
# Poissons Ratio (y) = 0.34967 0.39471
# Poissons Ratio (z) = 0.28741 0.28741
#
# Static dielectric constant tensor:
#      x y z
#    x 1.477930 0.000000 0.000000 
#    y 0.000000 1.477930 0.000000 
#    z 0.000000 0.000000 1.475820 
# 
# From -- ./inp_files/1775.got.cif
#   From: 2010.05.17/outbox.cif.g08.bks.cpg/sg183_1_cif.got.tgz:1775.got - 2010.05.20 12:02:58.
