data_PCOD9584698
_publ_section_title
;
Structure prediction by ZEFSAII (Michael W. Deem and Ramdas Pophale) SiO2 
 PCOD9584698
Probable space group: P 63 2 2
;
_chemical_formula_sum "Si O2"
_cell_formula_units_Z 30
_cell_length_a 16.658072
_cell_length_b 16.658072
_cell_length_c 6.037183
_cell_angle_alpha 90.000000
_cell_angle_beta 90.000000
_cell_angle_gamma 120.000000
_cell_volume 1450.823034
_symmetry_space_group_name_H-M "P 63 2 2"
_symmetry_group_IT_number 182
_symmetry_cell_setting 'hexagonal'
loop_
_space_group_symop_operation_xyz
x,y,z
x-y,x,1/2+z
-y,x-y,z
-x,-y,1/2+z
-x+y,-x,z
y,-x+y,1/2+z
x-y,-y,-z
-x,-x+y,-z
y,x,-z
-y,-x,1/2-z
-x+y,y,1/2-z
x,x-y,1/2-z
loop_
_atom_site_type_symbol
_atom_site_label
_atom_site_fract_x
_atom_site_fract_y
_atom_site_fract_z
Si Si1 0.897845 0.509496 0.068477
Si Si2 0.332356 0.240169 0.375588
Si Si3 0.232225 0.767776 0.250000
O O1 0.857141 0.428571 0.250000
O O2 0.921778 0.604303 0.195768
O O3 0.821838 0.490618 0.878911
O O4 0.000000 0.527857 0.000000
O O5 0.263473 0.263473 0.500000
O O6 0.286470 0.143235 0.250000
O O7 0.402404 0.241455 0.559782
#
# Coordination Sequence:
#
# PCOD9584698 Si02
#       3
#    12  12   6
#     4  11  22  36  63  94 120 169 218 263 322 379
#     4  10  20  36  58  89 125 158 203 264 318 373
#     4  10  22  38  58  92 132 148 214 274 308 376
#
# _framework density 20.677918999999999
#
# number of rings (size 3 to 8) (size 9 to 14) (size 15 to 20)
#    0.000    1.600    4.000    1.200    0.000    0.000 
#    0.000    0.000    0.000   36.000    0.000    0.000 
#   20.000    0.000    0.000    0.000    0.000    0.000 
#
# Total GULP energy -167427.864617 kJ/mol
# GULP energy per Si atom -5580.928821 kJ/mol
# Density = 2.063085 g / cm^3
# Si number density = 20.677919 Si / 1000 Ang^3
#
#
#
# Elastic Constant Matrix: (Units=GPa)
#
#
# Indices 1 2 3 4 5 6 
#
# 1 86.4096 45.0781 52.0195 0.0000 0.0000 0.0000
# 2 45.0781 86.4096 52.0195 0.0000 0.0000 0.0000
# 3 52.0195 52.0195 127.5764 0.0000 0.0000 0.0000
# 4 0.0000 0.0000 0.0000 41.2816 0.0000 0.0000
# 5 0.0000 0.0000 0.0000 0.0000 41.2816 0.0000
# 6 0.0000 0.0000 0.0000 0.0000 0.0000 20.6657
#
#
#
# Elastic Compliance Matrix: (Units=1/GPa)
#
#
# Indices 1 2 3 4 5 6 
#
# 1 0.017711 -0.006483 -0.004578 0.000000 0.000000 0.000000
# 2 -0.006483 0.017711 -0.004578 0.000000 0.000000 0.000000
# 3 -0.004578 -0.004578 0.011572 0.000000 0.000000 0.000000
# 4 0.000000 0.000000 0.000000 0.024224 0.000000 0.000000
# 5 0.000000 0.000000 0.000000 0.000000 0.024224 0.000000
# 6 0.000000 0.000000 0.000000 0.000000 0.000000 0.048389
#
#
# Mechanical properties :
#
#
# Convention : Reuss Voigt Hill
#
# Bulk Modulus (GPa) = 63.63417 66.51444 65.07430
# Shear Modulus (GPa) = 27.72404 30.73101 29.22753
#
# Velocity S-wave (km/s) = 3.66561 3.85928 3.76369
# Velocity P-wave (km/s) = 6.98257 7.21772 7.10112
#
# Compressibility (1/GPa) = 0.01571483
#
# Stress axis : x y z
#
# Youngs Moduli (GPa) = 56.46161 56.46161 86.41621
#
# Poissons Ratio (x) = 0.36607 0.39562
# Poissons Ratio (y) = 0.36607 0.39562
# Poissons Ratio (z) = 0.25849 0.25849
#
# Static dielectric constant tensor:
#      x y z
#    x 1.761180 0.000000 0.000000 
#    y 0.000000 1.761180 0.000000 
#    z 0.000000 0.000000 1.793020 
# 
# From -- ./inp_files/158.got.cif
#   From: 2010.05.17/outbox.cif.g08.bks.cpg/sg182_1_cif.got.tgz:158.got - 2010.05.20 11:58:53.
