data_PCOD9584042
_publ_section_title
;
Structure prediction by ZEFSAII (Michael W. Deem and Ramdas Pophale) SiO2 
 PCOD9584042
Probable space group: P 62 2 2
;
_chemical_formula_sum "Si O2"
_cell_formula_units_Z 72
_cell_length_a 15.318346
_cell_length_b 15.318346
_cell_length_c 16.420973
_cell_angle_alpha 90.000000
_cell_angle_beta 90.000000
_cell_angle_gamma 120.000000
_cell_volume 3336.977423
_symmetry_space_group_name_H-M "P 62 2 2"
_symmetry_group_IT_number 180
_symmetry_cell_setting 'hexagonal'
loop_
_space_group_symop_operation_xyz
x,y,z
x-y,x,1/3+z
-y,x-y,2/3+z
-x,-y,z
-x+y,-x,1/3+z
y,-x+y,2/3+z
x-y,-y,-z
-x,-x+y,1/3-z
y,x,2/3-z
-y,-x,2/3-z
-x+y,y,-z
x,x-y,1/3-z
loop_
_atom_site_type_symbol
_atom_site_label
_atom_site_fract_x
_atom_site_fract_y
_atom_site_fract_z
Si Si1 0.614510 0.334802 0.416391
Si Si2 0.418840 0.389227 0.568792
Si Si3 0.296635 0.862679 0.896217
Si Si4 0.160157 0.894796 0.031354
Si Si5 0.585464 0.797254 0.838161
Si Si6 0.702709 0.756236 0.707201
O O1 0.668738 0.331263 0.333334
O O2 0.665845 0.331690 0.500000
O O3 0.633039 0.449289 0.410549
O O4 0.500973 0.241030 0.427469
O O5 0.500000 0.500000 0.593947
O O6 0.366005 0.403639 0.489153
O O7 0.460217 0.313529 0.548262
O O8 0.346723 0.335458 0.644134
O O9 0.216797 0.783204 0.833334
O O10 0.229763 0.875746 0.966030
O O11 0.204442 0.887465 0.118110
O O12 0.043691 0.812746 0.047153
O O13 0.175087 0.000000 0.000000
O O14 0.629246 0.739617 0.784467
O O15 0.711652 0.855826 0.666667
#
# Coordination Sequence:
#
# PCOD9584042 Si02
#       6
#    12  12  12  12  12  12
#     4  11  24  41  66 102 145 189 240 296 366 451
#     4  11  21  39  69  98 130 182 235 290 372 451
#     4  11  21  38  64  97 130 169 230 298 364 429
#     4  12  23  39  71  96 130 179 236 308 376 426
#     4  11  23  42  63  97 139 181 226 307 364 442
#     4  10  25  45  63  93 142 190 239 289 369 462
#
# _framework density 21.576412000000001
#
# number of rings (size 3 to 8) (size 9 to 14) (size 15 to 20)
#    0.000    1.000    6.667    0.500    0.000    2.333 
#    3.000    2.500    0.000    2.000    0.000    0.000 
#    0.000    0.000    0.000    0.000    0.000    0.000 
#
# Total GULP energy -401098.218321 kJ/mol
# GULP energy per Si atom -5570.808588 kJ/mol
# Density = 2.152730 g / cm^3
# Si number density = 21.576412 Si / 1000 Ang^3
#
#
#
# Elastic Constant Matrix: (Units=GPa)
#
#
# Indices 1 2 3 4 5 6 
#
# 1 91.7370 32.3758 18.5307 0.0000 0.0000 0.0000
# 2 32.3758 91.7370 18.5307 0.0000 0.0000 0.0000
# 3 18.5307 18.5307 83.7495 0.0000 0.0000 0.0000
# 4 0.0000 0.0000 0.0000 39.8950 0.0000 0.0000
# 5 0.0000 0.0000 0.0000 0.0000 39.8950 0.0000
# 6 0.0000 0.0000 0.0000 0.0000 0.0000 29.6806
#
#
#
# Elastic Compliance Matrix: (Units=1/GPa)
#
#
# Indices 1 2 3 4 5 6 
#
# 1 0.012737 -0.004109 -0.001909 0.000000 0.000000 0.000000
# 2 -0.004109 0.012737 -0.001909 0.000000 0.000000 0.000000
# 3 -0.001909 -0.001909 0.012785 0.000000 0.000000 0.000000
# 4 0.000000 0.000000 0.000000 0.025066 0.000000 0.000000
# 5 0.000000 0.000000 0.000000 0.000000 0.025066 0.000000
# 6 0.000000 0.000000 0.000000 0.000000 0.000000 0.033692
#
#
# Mechanical properties :
#
#
# Convention : Reuss Voigt Hill
#
# Bulk Modulus (GPa) = 44.63494 45.12198 44.87846
# Shear Modulus (GPa) = 34.38689 35.07989 34.73339
#
# Velocity S-wave (km/s) = 3.99648 4.03655 4.01657
# Velocity P-wave (km/s) = 6.48287 6.53323 6.50810
#
# Compressibility (1/GPa) = 0.02240397
#
# Stress axis : x y z
#
# Youngs Moduli (GPa) = 78.51388 78.51388 78.21606
#
# Poissons Ratio (x) = 0.32265 0.14930
# Poissons Ratio (y) = 0.32265 0.14930
# Poissons Ratio (z) = 0.14987 0.14987
#
# Static dielectric constant tensor:
#      x y z
#    x 1.832420 0.000000 0.000000 
#    y 0.000000 1.832420 0.000000 
#    z 0.000000 0.000000 1.862220 
# 
# From -- ./inp_files/7810.got.cif
#   From: 2010.05.17/outbox.cif.g08.bks.cpg/sg180_4_cif.got.tgz:7810.got - 2010.05.20 11:43:55.
