data_PCOD9584899
_publ_section_title
;
Structure prediction by ZEFSAII (Michael W. Deem and Ramdas Pophale) SiO2 
 PCOD9584899
Probable space group: P 63 2 2
;
_chemical_formula_sum "Si O2"
_cell_formula_units_Z 52
_cell_length_a 14.117106
_cell_length_b 14.117106
_cell_length_c 12.256386
_cell_angle_alpha 90.000000
_cell_angle_beta 90.000000
_cell_angle_gamma 120.000000
_cell_volume 2115.360610
_symmetry_space_group_name_H-M "P 63 2 2"
_symmetry_group_IT_number 182
_symmetry_cell_setting 'hexagonal'
loop_
_space_group_symop_operation_xyz
x,y,z
x-y,x,1/2+z
-y,x-y,z
-x,-y,1/2+z
-x+y,-x,z
y,-x+y,1/2+z
x-y,-y,-z
-x,-x+y,-z
y,x,-z
-y,-x,1/2-z
-x+y,y,1/2-z
x,x-y,1/2-z
loop_
_atom_site_type_symbol
_atom_site_label
_atom_site_fract_x
_atom_site_fract_y
_atom_site_fract_z
Si Si1 0.716745 0.606673 0.815708
Si Si2 0.420451 0.293277 0.326870
Si Si3 0.333334 0.666667 0.384004
Si Si4 0.878961 0.125418 0.995720
Si Si5 0.433767 0.551422 0.009299
O O1 0.777519 0.555037 0.750000
O O2 0.648602 0.659403 0.763519
O O3 0.625732 0.524403 0.900023
O O4 0.818740 0.697838 0.882430
O O5 0.458558 0.229279 0.250000
O O6 0.332728 0.203484 0.412234
O O7 0.520900 0.386062 0.395320
O O8 0.333334 0.666667 0.250000
O O9 0.437625 0.665787 0.442350
O O10 0.000000 0.141973 0.000000
O O11 0.789315 0.000000 0.000000
O O12 0.440932 0.440932 0.000000
#
# Coordination Sequence:
#
# PCOD9584899 Si02
#       5
#    12  12   4  12  12
#     4   9  16  29  50  75 107 150 200 255 312 372
#     4   9  17  31  51  74 109 155 196 246 313 380
#     4  12  24  45  76 101 127 174 225 270 325 395
#     4   9  16  24  37  62  99 144 197 255 311 370
#     4   9  21  41  61  90 128 157 199 264 320 373
#
# _framework density 24.582097000000001
#
# number of rings (size 3 to 8) (size 9 to 14) (size 15 to 20)
#    0.000    2.769    0.000    5.077    0.000    0.000 
#    0.000   12.692    0.000    7.385    0.000    0.000 
#    0.000    0.000    0.000    0.692    0.000    0.000 
#
# Total GULP energy -290179.682750 kJ/mol
# GULP energy per Si atom -5580.378514 kJ/mol
# Density = 2.452615 g / cm^3
# Si number density = 24.582097 Si / 1000 Ang^3
#
#
#
# Elastic Constant Matrix: (Units=GPa)
#
#
# Indices 1 2 3 4 5 6 
#
# 1 83.2064 35.3427 26.6829 0.0000 0.0000 0.0000
# 2 35.3427 83.2056 26.6828 0.0001 0.0000 0.0000
# 3 26.6829 26.6828 76.0964 0.0001 0.0000 0.0000
# 4 0.0000 0.0001 0.0001 24.9910 0.0000 0.0000
# 5 0.0000 0.0000 0.0000 0.0000 24.9910 0.0000
# 6 0.0000 0.0000 0.0000 0.0000 0.0000 23.9317
#
#
#
# Elastic Compliance Matrix: (Units=1/GPa)
#
#
# Indices 1 2 3 4 5 6 
#
# 1 0.015455 -0.005438 -0.003512 0.000000 0.000000 0.000000
# 2 -0.005438 0.015455 -0.003512 0.000000 0.000000 0.000000
# 3 -0.003512 -0.003512 0.015604 0.000000 0.000000 0.000000
# 4 0.000000 0.000000 0.000000 0.040014 0.000000 0.000000
# 5 0.000000 0.000000 0.000000 0.000000 0.040014 0.000000
# 6 0.000000 0.000000 0.000000 0.000000 0.000000 0.041786
#
#
# Mechanical properties :
#
#
# Convention : Reuss Voigt Hill
#
# Bulk Modulus (GPa) = 46.32142 46.65835 46.48988
# Shear Modulus (GPa) = 24.94396 25.03606 24.99001
#
# Velocity S-wave (km/s) = 3.18892 3.19481 3.19187
# Velocity P-wave (km/s) = 5.69591 5.71234 5.70414
#
# Compressibility (1/GPa) = 0.02158829
#
# Stress axis : x y z
#
# Youngs Moduli (GPa) = 64.70589 64.70526 64.08483
#
# Poissons Ratio (x) = 0.35188 0.22508
# Poissons Ratio (y) = 0.35188 0.22508
# Poissons Ratio (z) = 0.22726 0.22726
#
# Static dielectric constant tensor:
#      x y z
#    x 2.054340 0.000000 0.000000 
#    y 0.000000 2.054350 0.000000 
#    z 0.000000 0.000000 2.002170 
# 
# From -- ./inp_files/3349.got.cif
#   From: 2010.05.17/outbox.cif.g08.bks.cpg/sg182_2_cif.got.tgz:3349.got - 2010.05.20 11:58:53.
