data_PCOD9584846
_publ_section_title
;
Structure prediction by ZEFSAII (Michael W. Deem and Ramdas Pophale) SiO2 
 PCOD9584846
Probable space group: P 63 2 2
;
_chemical_formula_sum "Si O2"
_cell_formula_units_Z 46
_cell_length_a 14.661489
_cell_length_b 14.661489
_cell_length_c 11.891255
_cell_angle_alpha 90.000000
_cell_angle_beta 90.000000
_cell_angle_gamma 120.000000
_cell_volume 2213.678167
_symmetry_space_group_name_H-M "P 63 2 2"
_symmetry_group_IT_number 182
_symmetry_cell_setting 'hexagonal'
loop_
_space_group_symop_operation_xyz
x,y,z
x-y,x,1/2+z
-y,x-y,z
-x,-y,1/2+z
-x+y,-x,z
y,-x+y,1/2+z
x-y,-y,-z
-x,-x+y,-z
y,x,-z
-y,-x,1/2-z
-x+y,y,1/2-z
x,x-y,1/2-z
loop_
_atom_site_type_symbol
_atom_site_label
_atom_site_fract_x
_atom_site_fract_y
_atom_site_fract_z
Si Si1 0.666667 0.333334 0.610791
Si Si2 0.421954 0.363269 0.730052
Si Si3 0.318137 0.213719 0.363689
Si Si4 0.434167 0.244667 0.924023
Si Si5 0.119653 0.000000 0.000000
O O1 0.666668 0.333334 0.750000
O O2 0.674928 0.440705 0.565185
O O3 0.529587 0.470414 0.750000
O O4 0.336797 0.380889 0.665362
O O5 0.386162 0.303029 0.850239
O O6 0.435931 0.281559 0.652248
O O7 0.314298 0.157149 0.250000
O O8 0.371730 0.183614 0.463868
O O9 0.198364 0.179681 0.398210
O O10 0.000000 0.902156 0.000000
#
# Coordination Sequence:
#
# PCOD9584846 Si02
#       5
#     4  12  12  12   6
#     4  12  18  39  76 107 130 183 240 283 356 421
#     4  11  22  42  75  99 133 180 237 282 346 424
#     4  12  28  45  65 106 144 181 232 295 361 418
#     4  11  21  41  69 105 134 179 227 291 339 428
#     4  10  26  46  70  94 130 184 242 292 358 398
#
# _framework density 20.779895
#
# number of rings (size 3 to 8) (size 9 to 14) (size 15 to 20)
#    0.261    0.522    7.826    0.000    3.652    3.130 
#    4.696    0.000    0.000    0.522    0.000    0.000 
#    0.000    0.000    0.000    0.000    0.000    0.000 
#
# Total GULP energy -256712.447156 kJ/mol
# GULP energy per Si atom -5580.705373 kJ/mol
# Density = 2.073260 g / cm^3
# Si number density = 20.779895 Si / 1000 Ang^3
#
#
#
# Elastic Constant Matrix: (Units=GPa)
#
#
# Indices 1 2 3 4 5 6 
#
# 1 70.8842 24.8460 50.6354 0.0000 -0.0001 -0.0001
# 2 24.8460 70.8837 50.6351 0.0000 0.0000 -0.0002
# 3 50.6354 50.6351 145.2563 0.0000 0.0000 -0.0001
# 4 0.0000 0.0000 0.0000 16.8863 0.0000 -0.0001
# 5 -0.0001 0.0000 0.0000 0.0000 16.8864 0.0000
# 6 -0.0001 -0.0002 -0.0001 -0.0001 0.0000 23.0188
#
#
#
# Elastic Compliance Matrix: (Units=1/GPa)
#
#
# Indices 1 2 3 4 5 6 
#
# 1 0.019135 -0.002586 -0.005769 0.000000 0.000000 0.000000
# 2 -0.002586 0.019135 -0.005769 0.000000 0.000000 0.000000
# 3 -0.005769 -0.005769 0.010906 0.000000 0.000000 0.000000
# 4 0.000000 0.000000 0.000000 0.059220 0.000000 0.000000
# 5 0.000000 0.000000 0.000000 0.000000 0.059219 0.000000
# 6 0.000000 0.000000 0.000000 0.000000 0.000000 0.043443
#
#
# Mechanical properties :
#
#
# Convention : Reuss Voigt Hill
#
# Bulk Modulus (GPa) = 47.78145 59.91747 53.84946
# Shear Modulus (GPa) = 20.30195 22.08546 21.19371
#
# Velocity S-wave (km/s) = 3.12909 3.26364 3.19707
# Velocity P-wave (km/s) = 6.00824 6.56496 6.29276
#
# Compressibility (1/GPa) = 0.02092863
#
# Stress axis : x y z
#
# Youngs Moduli (GPa) = 52.26053 52.26029 91.69045
#
# Poissons Ratio (x) = 0.13516 0.52894
# Poissons Ratio (y) = 0.13516 0.52894
# Poissons Ratio (z) = 0.30148 0.30148
#
# Static dielectric constant tensor:
#      x y z
#    x 1.798060 0.000000 0.000000 
#    y 0.000000 1.798060 0.000000 
#    z 0.000000 0.000000 1.735360 
# 
# From -- ./inp_files/2413.got.cif
#   From: 2010.05.17/outbox.cif.g08.bks.cpg/sg182_2_cif.got.tgz:2413.got - 2010.05.20 11:58:53.
