data_PCOD9584093
_publ_section_title
;
Structure prediction by ZEFSAII (Michael W. Deem and Ramdas Pophale) SiO2 
 PCOD9584093
Probable space group: P 62 2 2
;
_chemical_formula_sum "Si O2"
_cell_formula_units_Z 48
_cell_length_a 16.487635
_cell_length_b 16.487635
_cell_length_c 10.459122
_cell_angle_alpha 90.000000
_cell_angle_beta 90.000000
_cell_angle_gamma 120.000000
_cell_volume 2462.309211
_symmetry_space_group_name_H-M "P 62 2 2"
_symmetry_group_IT_number 180
_symmetry_cell_setting 'hexagonal'
loop_
_space_group_symop_operation_xyz
x,y,z
x-y,x,1/3+z
-y,x-y,2/3+z
-x,-y,z
-x+y,-x,1/3+z
y,-x+y,2/3+z
x-y,-y,-z
-x,-x+y,1/3-z
y,x,2/3-z
-y,-x,2/3-z
-x+y,y,-z
x,x-y,1/3-z
loop_
_atom_site_type_symbol
_atom_site_label
_atom_site_fract_x
_atom_site_fract_y
_atom_site_fract_z
Si Si1 0.938801 0.694229 0.042364
Si Si2 0.823403 0.363207 0.796520
Si Si3 0.935733 0.253442 0.792015
Si Si4 0.895525 0.486824 0.042903
O O1 0.899065 0.584213 0.067111
O O2 0.000000 0.749358 0.166667
O O3 0.856656 0.713311 0.000000
O O4 0.001734 0.715849 0.917828
O O5 0.726044 0.273957 0.833334
O O6 0.817533 0.408767 0.666667
O O7 0.895368 0.324296 0.777580
O O8 0.851211 0.437398 0.910640
O O9 0.848262 0.151739 0.833334
O O10 0.000000 0.264701 0.666667
O O11 0.846725 0.423363 0.166667
O O12 0.000000 0.500000 0.038176
#
# Coordination Sequence:
#
# PCOD9584093 Si02
#       4
#    12  12  12  12
#     4  12  24  41  67  98 128 174 223 275 335 400
#     4  11  25  40  62  94 132 177 221 270 324 384
#     4  11  23  41  64  92 125 164 216 270 324 390
#     4  11  21  41  66  92 135 174 222 275 327 389
#
# _framework density 19.493894999999998
#
# number of rings (size 3 to 8) (size 9 to 14) (size 15 to 20)
#    0.000    0.750    5.000    3.000    0.000    8.000 
#    0.000    0.000    0.000    7.500    0.000    0.000 
#    0.000    0.000    0.000    0.000    0.000    0.000 
#
# Total GULP energy -268153.239436 kJ/mol
# GULP energy per Si atom -5586.525822 kJ/mol
# Density = 1.944953 g / cm^3
# Si number density = 19.493895 Si / 1000 Ang^3
#
#
#
# Elastic Constant Matrix: (Units=GPa)
#
#
# Indices 1 2 3 4 5 6 
#
# 1 79.3454 66.3273 64.6026 0.0000 0.0000 0.0000
# 2 66.3273 79.3454 64.6026 0.0000 0.0000 0.0000
# 3 64.6026 64.6026 210.8672 0.0000 0.0000 0.0000
# 4 0.0000 0.0000 0.0000 -149.7082 0.0000 0.0000
# 5 0.0000 0.0000 0.0000 0.0000 -149.7082 0.0000
# 6 0.0000 0.0000 0.0000 0.0000 0.0000 6.5090
#
#
#
# Elastic Compliance Matrix: (Units=1/GPa)
#
#
# Indices 1 2 3 4 5 6 
#
# 1 0.043121 -0.033695 -0.002888 0.000000 0.000000 0.000000
# 2 -0.033695 0.043121 -0.002888 0.000000 0.000000 0.000000
# 3 -0.002888 -0.002888 0.006512 0.000000 0.000000 0.000000
# 4 0.000000 0.000000 0.000000 -0.006680 0.000000 0.000000
# 5 0.000000 0.000000 0.000000 0.000000 -0.006680 0.000000
# 6 0.000000 0.000000 0.000000 0.000000 0.000000 0.153633
#
#
# Mechanical properties :
#
#
# Convention : Reuss Voigt Hill
#
# Bulk Modulus (GPa) = 72.39755 84.51367 78.45561
# Shear Modulus (GPa) = 15.79408 -46.97978 -15.59285
#
# Velocity S-wave (km/s) = 2.84950 -4.91447 -2.83129
# Velocity P-wave (km/s) = 6.93148 3.35340 5.44475
#
# Compressibility (1/GPa) = 0.01381262
#
# Stress axis : x y z
#
# Youngs Moduli (GPa) = 23.19037 23.19037 153.56764
#
# Poissons Ratio (x) = 0.78141 0.44348
# Poissons Ratio (y) = 0.78141 0.44348
# Poissons Ratio (z) = 0.06697 0.06697
#
# Static dielectric constant tensor:
#      x y z
#    x 1.809040 0.000000 0.000000 
#    y 0.000000 1.809040 0.000000 
#    z 0.000000 0.000000 1.680900 
# 
# From -- ./inp_files/2608.got.cif
#   From: 2010.05.17/outbox.cif.g08.bks.cpg/sg180_2_cif.got.tgz:2608.got - 2010.05.20 11:43:55.
