data_PCOD9584475
_publ_section_title
;
Structure prediction by ZEFSAII (Michael W. Deem and Ramdas Pophale) SiO2 
 PCOD9584475
Probable space group: P 64 2 2
;
_chemical_formula_sum "Si O2"
_cell_formula_units_Z 54
_cell_length_a 11.853246
_cell_length_b 11.853246
_cell_length_c 19.503134
_cell_angle_alpha 90.000000
_cell_angle_beta 90.000000
_cell_angle_gamma 120.000000
_cell_volume 2373.064988
_symmetry_space_group_name_H-M "P 64 2 2"
_symmetry_group_IT_number 181
_symmetry_cell_setting 'hexagonal'
loop_
_space_group_symop_operation_xyz
x,y,z
x-y,x,2/3+z
-y,x-y,1/3+z
-x,-y,z
-x+y,-x,2/3+z
y,-x+y,1/3+z
x-y,-y,-z
-x,-x+y,2/3-z
y,x,1/3-z
-y,-x,1/3-z
-x+y,y,-z
x,x-y,2/3-z
loop_
_atom_site_type_symbol
_atom_site_label
_atom_site_fract_x
_atom_site_fract_y
_atom_site_fract_z
Si Si1 0.613801 0.227602 0.000000
Si Si2 0.193520 0.641446 0.486208
Si Si3 0.188995 0.092763 0.935528
Si Si4 0.120162 0.261335 0.155312
Si Si5 0.357377 0.463923 0.389919
O O1 0.549237 0.158857 0.072400
O O2 0.763307 0.318973 0.016551
O O3 0.346966 0.693932 0.500000
O O4 0.155929 0.745272 0.515867
O O5 0.127311 0.509625 0.530743
O O6 0.109312 0.159943 0.907229
O O7 0.325384 0.226031 0.948733
O O8 0.192567 0.995484 0.878544
O O9 0.133366 0.000000 0.000000
O O10 0.246301 0.246301 0.166667
O O11 0.500000 0.500000 0.364190
#
# Coordination Sequence:
#
# PCOD9584475 Si02
#       5
#     6  12  12  12  12
#     4  10  24  42  67 112 139 192 272 300 412 470
#     4  10  23  45  71 107 154 205 254 331 397 468
#     4  11  24  45  74 106 143 202 255 321 392 468
#     4  11  25  45  68 109 155 199 265 314 388 475
#     4  11  23  47  73 103 151 196 255 330 395 465
#
# _framework density 22.755381
#
# number of rings (size 3 to 8) (size 9 to 14) (size 15 to 20)
#    0.000    1.333    2.222    2.667    9.333    2.222 
#   16.000    6.667    0.000    0.000    0.000    0.000 
#    0.000    0.000    0.000    0.000    0.000    0.000 
#
# Total GULP energy -301256.305257 kJ/mol
# GULP energy per Si atom -5578.820468 kJ/mol
# Density = 2.270359 g / cm^3
# Si number density = 22.755381 Si / 1000 Ang^3
#
#
#
# Elastic Constant Matrix: (Units=GPa)
#
#
# Indices 1 2 3 4 5 6 
#
# 1 300.2870 -112.8722 28.0486 0.0000 0.0000 0.0000
# 2 -112.8722 300.2870 28.0486 0.0000 0.0000 0.0000
# 3 28.0486 28.0486 115.8053 0.0000 0.0000 0.0000
# 4 0.0000 0.0000 0.0000 74.3505 0.0000 0.0000
# 5 0.0000 0.0000 0.0000 0.0000 74.3505 0.0000
# 6 0.0000 0.0000 0.0000 0.0000 0.0000 206.5796
#
#
#
# Elastic Compliance Matrix: (Units=1/GPa)
#
#
# Indices 1 2 3 4 5 6 
#
# 1 0.004087 0.001666 -0.001393 0.000000 0.000000 0.000000
# 2 0.001666 0.004087 -0.001393 0.000000 0.000000 0.000000
# 3 -0.001393 -0.001393 0.009310 0.000000 0.000000 0.000000
# 4 0.000000 0.000000 0.000000 0.013450 0.000000 0.000000
# 5 0.000000 0.000000 0.000000 0.000000 0.013450 0.000000
# 6 0.000000 0.000000 0.000000 0.000000 0.000000 0.004841
#
#
# Mechanical properties :
#
#
# Convention : Reuss Voigt Hill
#
# Bulk Modulus (GPa) = 65.60671 66.98101 66.29386
# Shear Modulus (GPa) = 88.42443 122.59976 105.51209
#
# Velocity S-wave (km/s) = 6.24044 7.34808 6.81679
# Velocity P-wave (km/s) = 8.98988 10.07430 9.54750
#
# Compressibility (1/GPa) = 0.01524234
#
# Stress axis : x y z
#
# Youngs Moduli (GPa) = 244.70240 244.70240 107.40980
#
# Poissons Ratio (x) = -0.40773 0.14966
# Poissons Ratio (y) = -0.40773 0.14966
# Poissons Ratio (z) = 0.34096 0.34096
#
# Static dielectric constant tensor:
#      x y z
#    x 1.509240 0.000000 0.000000 
#    y 0.000000 1.509240 0.000000 
#    z 0.000000 0.000000 2.081650 
# 
# From -- ./inp_files/8823.got.cif
#   From: 2010.05.17/outbox.cif.g08.bks.cpg/sg181_5_cif.got.tgz:8823.got - 2010.05.20 11:51:17.
