data_PCOD9584706
_publ_section_title
;
Structure prediction by ZEFSAII (Michael W. Deem and Ramdas Pophale) SiO2 
 PCOD9584706
Probable space group: P 63 2 2
;
_chemical_formula_sum "Si O2"
_cell_formula_units_Z 96
_cell_length_a 14.722335
_cell_length_b 14.722335
_cell_length_c 26.637342
_cell_angle_alpha 90.000000
_cell_angle_beta 90.000000
_cell_angle_gamma 120.000000
_cell_volume 5000.056476
_symmetry_space_group_name_H-M "P 63 2 2"
_symmetry_group_IT_number 182
_symmetry_cell_setting 'hexagonal'
loop_
_space_group_symop_operation_xyz
x,y,z
x-y,x,1/2+z
-y,x-y,z
-x,-y,1/2+z
-x+y,-x,z
y,-x+y,1/2+z
x-y,-y,-z
-x,-x+y,-z
y,x,-z
-y,-x,1/2-z
-x+y,y,1/2-z
x,x-y,1/2-z
loop_
_atom_site_type_symbol
_atom_site_label
_atom_site_fract_x
_atom_site_fract_y
_atom_site_fract_z
Si Si1 0.279379 0.444208 0.017436
Si Si2 0.059966 0.240315 0.417136
Si Si3 0.515154 0.605736 0.042086
Si Si4 0.837613 0.794293 0.056576
Si Si5 0.050438 0.580498 0.632372
Si Si6 0.673960 0.633933 0.341261
Si Si7 0.772233 0.206211 0.412599
Si Si8 0.450734 0.332946 0.260420
O O1 0.232769 0.326425 0.038351
O O2 0.392953 0.517549 0.040411
O O3 0.192120 0.475128 0.031403
O O4 0.288652 0.459652 0.957246
O O5 0.149516 0.210132 0.409762
O O6 0.957162 0.130804 0.431984
O O7 0.034180 0.292116 0.369882
O O8 0.564151 0.606323 0.095752
O O9 0.572437 0.572437 0.000000
O O10 0.777454 0.670915 0.066072
O O11 0.823060 0.823060 0.000000
O O12 0.025184 0.463583 0.643968
O O13 0.160880 0.651762 0.602439
O O14 0.069166 0.644735 0.683842
O O15 0.752445 0.597263 0.363921
O O16 0.675481 0.632527 0.281262
O O17 0.564685 0.435316 0.250000
O O18 0.460435 0.230218 0.250000
#
# Coordination Sequence:
#
# PCOD9584706 Si02
#       8
#    12  12  12  12  12  12  12  12
#     4  12  25  40  60  89 136 178 219 264 327 409
#     4  11  23  39  59  87 130 164 221 268 327 380
#     4  12  25  42  62  93 134 182 224 269 332 411
#     4  11  22  34  53  84 120 167 210 261 312 380
#     4  11  21  39  60  90 128 164 214 271 327 402
#     4  10  22  39  60  90 121 171 205 268 338 395
#     4  11  22  35  55  86 123 167 207 250 330 392
#     4  10  20  37  62  94 125 161 212 273 341 405
#
# _framework density 19.199784000000001
#
# number of rings (size 3 to 8) (size 9 to 14) (size 15 to 20)
#    0.000    1.000    5.000    2.500    3.500    0.000 
#    0.750    0.000    0.000    3.000    0.000    0.000 
#    0.000    0.000    0.000    0.000    0.000    0.000 
#
# Total GULP energy -535853.254885 kJ/mol
# GULP energy per Si atom -5581.804738 kJ/mol
# Density = 1.915608 g / cm^3
# Si number density = 19.199784 Si / 1000 Ang^3
#
#
#
# Elastic Constant Matrix: (Units=GPa)
#
#
# Indices 1 2 3 4 5 6 
#
# 1 73.0026 16.5860 38.7060 0.0000 0.0000 0.0000
# 2 16.5860 73.0026 38.7060 0.0000 0.0000 0.0000
# 3 38.7060 38.7060 137.4301 0.0000 0.0000 0.0000
# 4 0.0000 0.0000 0.0000 24.9700 0.0000 0.0000
# 5 0.0000 0.0000 0.0000 0.0000 24.9700 0.0000
# 6 0.0000 0.0000 0.0000 0.0000 0.0000 28.2083
#
#
#
# Elastic Compliance Matrix: (Units=1/GPa)
#
#
# Indices 1 2 3 4 5 6 
#
# 1 0.016239 -0.001486 -0.004155 0.000000 0.000000 0.000000
# 2 -0.001486 0.016239 -0.004155 0.000000 0.000000 0.000000
# 3 -0.004155 -0.004155 0.009617 0.000000 0.000000 0.000000
# 4 0.000000 0.000000 0.000000 0.040048 0.000000 0.000000
# 5 0.000000 0.000000 0.000000 0.000000 0.040048 0.000000
# 6 0.000000 0.000000 0.000000 0.000000 0.000000 0.035451
#
#
# Mechanical properties :
#
#
# Convention : Reuss Voigt Hill
#
# Bulk Modulus (GPa) = 44.44064 52.38127 48.41095
# Shear Modulus (GPa) = 27.06594 28.25882 27.66238
#
# Velocity S-wave (km/s) = 3.75867 3.84061 3.79986
# Velocity P-wave (km/s) = 6.48332 6.85627 6.67240
#
# Compressibility (1/GPa) = 0.02250193
#
# Stress axis : x y z
#
# Youngs Moduli (GPa) = 61.58101 61.58101 103.98481
#
# Poissons Ratio (x) = 0.09154 0.43204
# Poissons Ratio (y) = 0.09154 0.43204
# Poissons Ratio (z) = 0.25586 0.25586
#
# Static dielectric constant tensor:
#      x y z
#    x 1.689840 0.000000 0.000000 
#    y 0.000000 1.689840 0.000000 
#    z 0.000000 0.000000 1.714490 
# 
# From -- ./inp_files/5585.got.cif
#   From: 2010.05.17/outbox.cif.g08.bks.cpg/sg182_3_cif.got.tgz:5585.got - 2010.05.20 11:58:53.
