data_PCOD9584438
_publ_section_title
;
Structure prediction by ZEFSAII (Michael W. Deem and Ramdas Pophale) SiO2 
 PCOD9584438
Probable space group: P 64 2 2
;
_chemical_formula_sum "Si O2"
_cell_formula_units_Z 48
_cell_length_a 16.144040
_cell_length_b 16.144040
_cell_length_c 10.868083
_cell_angle_alpha 90.000000
_cell_angle_beta 90.000000
_cell_angle_gamma 120.000000
_cell_volume 2453.059193
_symmetry_space_group_name_H-M "P 64 2 2"
_symmetry_group_IT_number 181
_symmetry_cell_setting 'hexagonal'
loop_
_space_group_symop_operation_xyz
x,y,z
x-y,x,2/3+z
-y,x-y,1/3+z
-x,-y,z
-x+y,-x,2/3+z
y,-x+y,1/3+z
x-y,-y,-z
-x,-x+y,2/3-z
y,x,1/3-z
-y,-x,1/3-z
-x+y,y,-z
x,x-y,2/3-z
loop_
_atom_site_type_symbol
_atom_site_label
_atom_site_fract_x
_atom_site_fract_y
_atom_site_fract_z
Si Si1 0.420782 0.210391 0.333334
Si Si2 0.708090 0.108286 0.220949
Si Si3 0.115419 0.548091 0.976659
Si Si4 0.902242 0.181696 0.889267
Si Si5 0.277315 0.000000 0.000000
O O1 0.484348 0.324253 0.354898
O O2 0.354129 0.155951 0.448812
O O3 0.801693 0.198308 0.166667
O O4 0.637178 0.143643 0.267462
O O5 0.736487 0.069279 0.341087
O O6 0.679572 0.031765 0.112333
O O7 0.145163 0.572582 0.833334
O O8 0.000000 0.500000 0.978000
O O9 0.000000 0.193804 0.833334
O O10 0.825609 0.083781 0.953594
#
# Coordination Sequence:
#
# PCOD9584438 Si02
#       5
#     6  12  12  12   6
#     4  12  24  38  70  99 126 181 226 274 342 404
#     4  10  22  41  62  93 133 168 212 272 331 403
#     4  11  22  40  65  96 129 169 225 277 328 400
#     4  11  21  39  65  95 129 170 228 273 331 409
#     4  10  22  40  67  95 130 180 214 278 358 398
#
# _framework density 19.567402999999999
#
# number of rings (size 3 to 8) (size 9 to 14) (size 15 to 20)
#    0.000    1.250    2.500    4.500    0.000    1.000 
#    0.000   10.625    0.000   34.500    0.000    0.000 
#    0.000    0.000    0.000    0.000    0.000    0.000 
#
# Total GULP energy -267932.212475 kJ/mol
# GULP energy per Si atom -5581.921093 kJ/mol
# Density = 1.952287 g / cm^3
# Si number density = 19.567403 Si / 1000 Ang^3
#
#
#
# Elastic Constant Matrix: (Units=GPa)
#
#
# Indices 1 2 3 4 5 6 
#
# 1 93.6373 37.8626 45.3906 0.0000 0.0000 0.0000
# 2 37.8626 93.6373 45.3906 0.0000 0.0000 0.0000
# 3 45.3906 45.3906 143.4498 0.0000 0.0000 0.0000
# 4 0.0000 0.0000 0.0000 27.8598 0.0000 0.0000
# 5 0.0000 0.0000 0.0000 0.0000 27.8598 0.0000
# 6 0.0000 0.0000 0.0000 0.0000 0.0000 27.8874
#
#
#
# Elastic Compliance Matrix: (Units=1/GPa)
#
#
# Indices 1 2 3 4 5 6 
#
# 1 0.013830 -0.004100 -0.003079 0.000000 0.000000 0.000000
# 2 -0.004100 0.013830 -0.003079 0.000000 0.000000 0.000000
# 3 -0.003079 -0.003079 0.008919 0.000000 0.000000 0.000000
# 4 0.000000 0.000000 0.000000 0.035894 0.000000 0.000000
# 5 0.000000 0.000000 0.000000 0.000000 0.035894 0.000000
# 6 0.000000 0.000000 0.000000 0.000000 0.000000 0.035859
#
#
# Mechanical properties :
#
#
# Convention : Reuss Voigt Hill
#
# Bulk Modulus (GPa) = 62.24964 65.33468 63.79216
# Shear Modulus (GPa) = 29.39544 30.19344 29.79444
#
# Velocity S-wave (km/s) = 3.88011 3.93243 3.90636
# Velocity P-wave (km/s) = 7.20803 7.35396 7.28136
#
# Compressibility (1/GPa) = 0.01606435
#
# Stress axis : x y z
#
# Youngs Moduli (GPa) = 72.30845 72.30845 112.11423
#
# Poissons Ratio (x) = 0.29644 0.34518
# Poissons Ratio (y) = 0.29644 0.34518
# Poissons Ratio (z) = 0.22262 0.22262
#
# Static dielectric constant tensor:
#      x y z
#    x 1.718650 0.000000 0.000000 
#    y 0.000000 1.718650 0.000000 
#    z 0.000000 0.000000 1.687740 
# 
# From -- ./inp_files/4468.got.cif
#   From: 2010.05.17/outbox.cif.g08.bks.cpg/sg181_3_cif.got.tgz:4468.got - 2010.05.20 11:51:17.
