data_PCOD9584961
_publ_section_title
;
Structure prediction by ZEFSAII (Michael W. Deem and Ramdas Pophale) SiO2 
 PCOD9584961
Probable space group: P 6 M M
;
_chemical_formula_sum "Si O2"
_cell_formula_units_Z 60
_cell_length_a 20.460234
_cell_length_b 20.460234
_cell_length_c 10.412101
_cell_angle_alpha 90.000000
_cell_angle_beta 90.000000
_cell_angle_gamma 120.000000
_cell_volume 3774.767408
_symmetry_space_group_name_H-M "P 6 M M"
_symmetry_group_IT_number 183
_symmetry_cell_setting 'hexagonal'
loop_
_space_group_symop_operation_xyz
x,y,z
x-y,x,z
-y,x-y,z
-x,-y,z
-x+y,-x,z
y,-x+y,z
-x+y,y,z
x,x-y,z
-y,-x,z
y,x,z
x-y,-y,z
-x,-x+y,z
loop_
_atom_site_type_symbol
_atom_site_label
_atom_site_fract_x
_atom_site_fract_y
_atom_site_fract_z
Si Si1 0.911007 0.672188 0.112280
Si Si2 0.316654 0.407393 0.367559
Si Si3 0.545602 0.091204 0.775991
Si Si4 0.573089 0.862821 0.857761
Si Si5 0.913331 0.231804 0.615195
Si Si6 0.907833 0.453917 0.472376
O O1 0.850870 0.701739 0.106545
O O2 0.888340 0.615989 0.234216
O O3 0.000000 0.734770 0.123615
O O4 0.898841 0.622925 0.984702
O O5 0.367891 0.367891 0.363075
O O6 0.261177 0.368593 0.486959
O O7 0.374515 0.494144 0.401725
O O8 0.495930 0.122296 0.842467
O O9 0.555857 0.111714 0.623832
O O10 0.500000 0.000000 0.783642
O O11 0.549642 0.774821 0.856965
O O12 0.626892 0.900558 0.734750
O O13 0.856279 0.143722 0.630755
O O14 0.000000 0.255457 0.607778
O O15 0.000000 0.500000 0.469250
#
# Coordination Sequence:
#
# PCOD9584961 Si02
#       6
#    12  12   6  12  12   6
#     4  10  20  34  51  74 105 136 170 212 261 309
#     4   9  17  29  46  70  97 127 160 202 249 295
#     4  11  18  31  55  77  99 131 173 213 247 295
#     4  10  21  34  50  76 104 132 165 208 256 303
#     4  10  18  30  48  70  97 127 164 208 256 305
#     4   9  16  27  47  73 101 127 159 205 251 289
#
# _framework density 15.895019
#
# number of rings (size 3 to 8) (size 9 to 14) (size 15 to 20)
#    0.000    2.200    2.000    2.400    0.000    0.800 
#    0.600    2.000    0.000    0.400    0.000    0.000 
#    1.000    9.600    0.000    0.000    0.000    1.600 
#
# Total GULP energy -334390.527414 kJ/mol
# GULP energy per Si atom -5573.175457 kJ/mol
# Density = 1.585884 g / cm^3
# Si number density = 15.895019 Si / 1000 Ang^3
#
#
#
# Elastic Constant Matrix: (Units=GPa)
#
#
# Indices 1 2 3 4 5 6 
#
# 1 91.1843 66.9350 27.8423 0.0000 0.0000 0.0000
# 2 66.9350 91.1843 27.8423 0.0000 0.0000 0.0000
# 3 27.8423 27.8423 109.6531 0.0000 0.0000 0.0000
# 4 0.0000 0.0000 0.0000 23.1402 0.0000 0.0000
# 5 0.0000 0.0000 0.0000 0.0000 23.1402 0.0000
# 6 0.0000 0.0000 0.0000 0.0000 0.0000 12.1246
#
#
#
# Elastic Compliance Matrix: (Units=1/GPa)
#
#
# Indices 1 2 3 4 5 6 
#
# 1 0.024092 -0.017147 -0.001764 0.000000 0.000000 0.000000
# 2 -0.017147 0.024092 -0.001764 0.000000 0.000000 0.000000
# 3 -0.001764 -0.001764 0.010015 0.000000 0.000000 0.000000
# 4 0.000000 0.000000 0.000000 0.043215 0.000000 0.000000
# 5 0.000000 0.000000 0.000000 0.000000 0.043215 0.000000
# 6 0.000000 0.000000 0.000000 0.000000 0.000000 0.082477
#
#
# Mechanical properties :
#
#
# Convention : Reuss Voigt Hill
#
# Bulk Modulus (GPa) = 59.34037 59.69564 59.51800
# Shear Modulus (GPa) = 18.24351 22.97446 20.60898
#
# Velocity S-wave (km/s) = 3.39152 3.80595 3.60470
# Velocity P-wave (km/s) = 7.26294 7.54661 7.40614
#
# Compressibility (1/GPa) = 0.01685193
#
# Stress axis : x y z
#
# Youngs Moduli (GPa) = 41.50770 41.50770 99.84798
#
# Poissons Ratio (x) = 0.71171 0.17608
# Poissons Ratio (y) = 0.71171 0.17608
# Poissons Ratio (z) = 0.07320 0.07320
#
# Static dielectric constant tensor:
#      x y z
#    x 1.522600 0.000000 0.000000 
#    y 0.000000 1.522600 0.000000 
#    z 0.000000 0.000000 1.538310 
# 
# From -- ./inp_files/947.got.cif
#   From: 2010.05.17/outbox.cif.g08.bks.cpg/sg183_1_cif.got.tgz:947.got - 2010.05.20 12:02:58.
