data_PCOD9584936
_publ_section_title
;
Structure prediction by ZEFSAII (Michael W. Deem and Ramdas Pophale) SiO2 
 PCOD9584936
Probable space group: P 6 M M
;
_chemical_formula_sum "Si O2"
_cell_formula_units_Z 96
_cell_length_a 22.495566
_cell_length_b 22.495566
_cell_length_c 15.641405
_cell_angle_alpha 90.000000
_cell_angle_beta 90.000000
_cell_angle_gamma 120.000000
_cell_volume 6854.886090
_symmetry_space_group_name_H-M "P 6 M M"
_symmetry_group_IT_number 183
_symmetry_cell_setting 'hexagonal'
loop_
_space_group_symop_operation_xyz
x,y,z
x-y,x,z
-y,x-y,z
-x,-y,z
-x+y,-x,z
y,-x+y,z
-x+y,y,z
x,x-y,z
-y,-x,z
y,x,z
x-y,-y,z
-x,-x+y,z
loop_
_atom_site_type_symbol
_atom_site_label
_atom_site_fract_x
_atom_site_fract_y
_atom_site_fract_z
Si Si1 0.610555 0.082222 0.762560
Si Si2 0.212273 0.289761 0.006451
Si Si3 0.147208 0.435649 0.919194
Si Si4 0.665629 0.474791 0.083796
Si Si5 0.921692 0.388686 0.567517
Si Si6 0.215229 0.292686 0.211249
Si Si7 0.293982 0.444196 0.252696
Si Si8 0.523817 0.190250 0.425977
O O1 0.551187 0.102374 0.770339
O O2 0.667446 0.118926 0.834205
O O3 0.637344 0.095809 0.664985
O O4 0.572404 0.000000 0.774330
O O5 0.134187 0.268373 0.987089
O O6 0.233118 0.233118 0.987402
O O7 0.260469 0.359115 0.955041
O O8 0.222289 0.304858 0.108391
O O9 0.221492 0.442983 0.904745
O O10 0.155761 0.487014 0.995967
O O11 0.734994 0.469987 0.087071
O O12 0.599659 0.400342 0.087571
O O13 0.667531 0.519190 0.165572
O O14 0.923774 0.461887 0.567265
O O15 0.863280 0.342296 0.500287
O O16 0.000000 0.407943 0.547344
O O17 0.138714 0.277427 0.233866
O O18 0.233705 0.233705 0.230221
O O19 0.271123 0.364305 0.253740
O O20 0.221616 0.443232 0.248886
O O21 0.331942 0.487999 0.335843
O O22 0.600425 0.200850 0.428719
O O23 0.526107 0.263053 0.433858
#
# Coordination Sequence:
#
# PCOD9584936 Si02
#       8
#    12  12  12  12  12  12  12  12
#     4   9  17  30  46  61  78 104 139 177 218 261
#     4   9  16  27  43  61  82 108 136 165 200 242
#     4  10  18  27  41  61  84 110 137 171 209 248
#     4  10  18  28  40  55  79 110 144 176 210 250
#     4   8  16  31  47  60  77 105 139 174 216 266
#     4   9  16  28  45  63  85 112 142 174 209 250
#     4   9  17  29  42  59  83 112 143 174 206 244
#     4  10  19  30  46  66  88 112 142 180 222 264
#
# _framework density 14.004609
#
# number of rings (size 3 to 8) (size 9 to 14) (size 15 to 20)
#    0.000    2.750    1.250    2.125    0.000    1.000 
#    0.000    1.250    0.000    2.375    0.000    1.750 
#    0.000    0.000    0.000    0.000    0.000    0.000 
#
# Total GULP energy -534534.402967 kJ/mol
# GULP energy per Si atom -5568.066698 kJ/mol
# Density = 1.397273 g / cm^3
# Si number density = 14.004609 Si / 1000 Ang^3
#
#
#
# Elastic Constant Matrix: (Units=GPa)
#
#
# Indices 1 2 3 4 5 6 
#
# 1 66.7390 39.5836 39.5369 0.0000 0.0000 0.0000
# 2 39.5836 66.7390 39.5369 0.0000 0.0000 0.0000
# 3 39.5369 39.5369 82.3892 0.0000 0.0000 0.0000
# 4 0.0000 0.0000 0.0000 19.6458 0.0000 0.0000
# 5 0.0000 0.0000 0.0000 0.0000 19.6458 0.0000
# 6 0.0000 0.0000 0.0000 0.0000 0.0000 13.5777
#
#
#
# Elastic Compliance Matrix: (Units=1/GPa)
#
#
# Indices 1 2 3 4 5 6 
#
# 1 0.025725 -0.011100 -0.007018 0.000000 0.000000 0.000000
# 2 -0.011100 0.025725 -0.007018 0.000000 0.000000 0.000000
# 3 -0.007018 -0.007018 0.018873 0.000000 0.000000 0.000000
# 4 0.000000 0.000000 0.000000 0.050902 0.000000 0.000000
# 5 0.000000 0.000000 0.000000 0.000000 0.050902 0.000000
# 6 0.000000 0.000000 0.000000 0.000000 0.000000 0.073650
#
#
# Mechanical properties :
#
#
# Convention : Reuss Voigt Hill
#
# Bulk Modulus (GPa) = 49.87455 50.35354 50.11405
# Shear Modulus (GPa) = 16.51622 17.05451 16.78537
#
# Velocity S-wave (km/s) = 3.43788 3.49345 3.46578
# Velocity P-wave (km/s) = 7.17279 7.23224 7.20258
#
# Compressibility (1/GPa) = 0.02005031
#
# Stress axis : x y z
#
# Youngs Moduli (GPa) = 38.87276 38.87276 52.98506
#
# Poissons Ratio (x) = 0.43149 0.37186
# Poissons Ratio (y) = 0.43149 0.37186
# Poissons Ratio (z) = 0.27282 0.27282
#
# Static dielectric constant tensor:
#      x y z
#    x 1.454030 0.000000 0.000000 
#    y 0.000000 1.454030 0.000000 
#    z 0.000000 0.000000 1.456560 
# 
# From -- ./inp_files/2014.got.cif
#   From: 2010.05.17/outbox.cif.g08.bks.cpg/sg183_2_cif.got.tgz:2014.got - 2010.05.20 12:02:58.
