data_PCOD9584649
_publ_section_title
;
Structure prediction by ZEFSAII (Michael W. Deem and Ramdas Pophale) SiO2 
 PCOD9584649
Probable space group: P 63 2 2
;
_chemical_formula_sum "Si O2"
_cell_formula_units_Z 76
_cell_length_a 17.247602
_cell_length_b 17.247602
_cell_length_c 16.010139
_cell_angle_alpha 90.000000
_cell_angle_beta 90.000000
_cell_angle_gamma 120.000000
_cell_volume 4124.612733
_symmetry_space_group_name_H-M "P 63 2 2"
_symmetry_group_IT_number 182
_symmetry_cell_setting 'hexagonal'
loop_
_space_group_symop_operation_xyz
x,y,z
x-y,x,1/2+z
-y,x-y,z
-x,-y,1/2+z
-x+y,-x,z
y,-x+y,1/2+z
x-y,-y,-z
-x,-x+y,-z
y,x,-z
-y,-x,1/2-z
-x+y,y,1/2-z
x,x-y,1/2-z
loop_
_atom_site_type_symbol
_atom_site_label
_atom_site_fract_x
_atom_site_fract_y
_atom_site_fract_z
Si Si1 0.775302 0.650545 0.667249
Si Si2 0.179940 0.518831 0.442309
Si Si3 0.940915 0.701683 0.256268
Si Si4 0.051513 0.302885 0.074202
Si Si5 0.666668 0.333334 0.654231
Si Si6 0.333225 0.499133 0.720481
Si Si7 0.490984 0.154540 0.020915
O O1 0.809167 0.618333 0.750000
O O2 0.696939 0.570242 0.613419
O O3 0.750753 0.723798 0.697415
O O4 0.860867 0.695057 0.607709
O O5 0.235277 0.598757 0.377699
O O6 0.256907 0.511252 0.494128
O O7 0.135835 0.563870 0.498453
O O8 0.865630 0.731260 0.250000
O O9 0.889510 0.596680 0.235474
O O10 0.983685 0.710983 0.348230
O O11 0.088866 0.401969 0.032601
O O12 0.000000 0.235251 0.000000
O O13 0.666668 0.333334 0.750000
O O14 0.432178 0.567823 0.750000
O O15 0.267701 0.535402 0.750000
O O16 0.330290 0.483536 0.620981
#
# Coordination Sequence:
#
# PCOD9584649 Si02
#       7
#    12  12  12  12   4  12  12
#     4   9  19  36  60  87 111 150 192 240 303 362
#     4   9  18  30  51  82 116 152 203 244 277 331
#     4  10  22  40  59  84 117 146 196 242 299 366
#     4  10  19  38  64  83 114 157 188 236 306 364
#     4   9  15  24  42  75 115 155 181 237 285 318
#     4  11  22  35  55  79 117 167 211 245 282 340
#     4  10  19  34  55  81 119 164 204 245 288 332
#
# _framework density 18.425972000000002
#
# number of rings (size 3 to 8) (size 9 to 14) (size 15 to 20)
#    0.000    2.211    1.579    1.895    0.000    2.526 
#    0.000    0.789    0.000    8.526    0.000    0.000 
#    0.000    0.000    0.000    0.000    0.000    0.000 
#
# Total GULP energy -423120.675300 kJ/mol
# GULP energy per Si atom -5567.377307 kJ/mol
# Density = 1.838403 g / cm^3
# Si number density = 18.425972 Si / 1000 Ang^3
#
#
#
# Elastic Constant Matrix: (Units=GPa)
#
#
# Indices 1 2 3 4 5 6 
#
# 1 92.1649 47.3777 46.5458 -0.0002 -0.0001 0.0006
# 2 47.3777 92.1657 46.5460 0.0000 0.0000 -0.0002
# 3 46.5458 46.5460 94.6097 0.0000 0.0001 0.0000
# 4 -0.0002 0.0000 0.0000 27.7206 0.0000 -0.0001
# 5 -0.0001 0.0000 0.0001 0.0000 27.7207 0.0001
# 6 0.0006 -0.0002 0.0000 -0.0001 0.0001 22.3929
#
#
#
# Elastic Compliance Matrix: (Units=1/GPa)
#
#
# Indices 1 2 3 4 5 6 
#
# 1 0.016498 -0.005830 -0.005248 0.000000 0.000000 -0.000001
# 2 -0.005830 0.016497 -0.005248 0.000000 0.000000 0.000000
# 3 -0.005248 -0.005248 0.015734 0.000000 0.000000 0.000000
# 4 0.000000 0.000000 0.000000 0.036074 0.000000 0.000000
# 5 0.000000 0.000000 0.000000 0.000000 0.036074 0.000000
# 6 -0.000001 0.000000 0.000000 0.000000 0.000000 0.044657
#
#
# Mechanical properties :
#
#
# Convention : Reuss Voigt Hill
#
# Bulk Modulus (GPa) = 62.20478 62.20883 62.20680
# Shear Modulus (GPa) = 24.56456 24.79824 24.68140
#
# Velocity S-wave (km/s) = 3.65519 3.67254 3.66387
# Velocity P-wave (km/s) = 7.18655 7.19848 7.19252
#
# Compressibility (1/GPa) = 0.01607594
#
# Stress axis : x y z
#
# Youngs Moduli (GPa) = 60.61507 60.61556 63.55801
#
# Poissons Ratio (x) = 0.35340 0.33356
# Poissons Ratio (y) = 0.35339 0.33356
# Poissons Ratio (z) = 0.31811 0.31812
#
# Static dielectric constant tensor:
#      x y z
#    x 1.634710 0.000000 0.000000 
#    y 0.000000 1.634700 0.000000 
#    z 0.000000 0.000000 1.664460 
# 
# From -- ./inp_files/3684.got.cif
#   From: 2010.05.17/outbox.cif.g08.bks.cpg/sg182_2_cif.got.tgz:3684.got - 2010.05.20 11:58:53.
