data_PCOD9584942
_publ_section_title
;
Structure prediction by ZEFSAII (Michael W. Deem and Ramdas Pophale) SiO2 
 PCOD9584942
Probable space group: P 6 M M
;
_chemical_formula_sum "Si O2"
_cell_formula_units_Z 72
_cell_length_a 23.265710
_cell_length_b 23.265710
_cell_length_c 10.463937
_cell_angle_alpha 90.000000
_cell_angle_beta 90.000000
_cell_angle_gamma 120.000000
_cell_volume 4905.218628
_symmetry_space_group_name_H-M "P 6 M M"
_symmetry_group_IT_number 183
_symmetry_cell_setting 'hexagonal'
loop_
_space_group_symop_operation_xyz
x,y,z
x-y,x,z
-y,x-y,z
-x,-y,z
-x+y,-x,z
y,-x+y,z
-x+y,y,z
x,x-y,z
-y,-x,z
y,x,z
x-y,-y,z
-x,-x+y,z
loop_
_atom_site_type_symbol
_atom_site_label
_atom_site_fract_x
_atom_site_fract_y
_atom_site_fract_z
Si Si1 0.080738 0.604424 0.393500
Si Si2 0.791349 0.077737 0.034627
Si Si3 0.920175 0.277535 0.287656
Si Si4 0.605250 0.079920 0.693738
Si Si5 0.283257 0.076799 0.541768
Si Si6 0.121040 0.376461 0.786633
O O1 0.102978 0.551489 0.354976
O O2 0.105629 0.670801 0.311460
O O3 0.097073 0.621409 0.543378
O O4 0.000000 0.563776 0.387896
O O5 0.869884 0.130117 0.023814
O O6 0.764227 0.098275 0.158535
O O7 0.768970 0.000000 0.045939
O O8 0.756352 0.087619 0.910483
O O9 0.905933 0.232480 0.412775
O O10 0.000000 0.322227 0.282376
O O11 0.548952 0.097903 0.730295
O O12 0.671854 0.111433 0.775228
O O13 0.570295 0.000000 0.702914
O O14 0.257544 0.128772 0.556080
O O15 0.331180 0.087846 0.661367
O O16 0.227385 0.000000 0.536024
O O17 0.197548 0.395095 0.786883
#
# Coordination Sequence:
#
# PCOD9584942 Si02
#       6
#    12  12  12  12  12  12
#     4   8  13  22  39  62  87 115 142 170 208 254
#     4  10  20  32  46  64  90 122 152 189 238 287
#     4   9  16  27  42  61  86 113 144 181 219 266
#     4   9  15  25  44  67  90 115 143 177 215 255
#     4  10  18  28  44  63  84 111 146 187 228 276
#     4  10  19  30  45  66  92 119 148 184 224 270
#
# _framework density 14.678243999999999
#
# number of rings (size 3 to 8) (size 9 to 14) (size 15 to 20)
#    0.000    2.667    1.667    3.000    0.000    0.000 
#    0.000    0.833    0.000    3.667    0.000    0.000 
#    0.000    8.000    0.000    9.333    0.000    2.667 
#
# Total GULP energy -400831.205358 kJ/mol
# GULP energy per Si atom -5567.100074 kJ/mol
# Density = 1.464484 g / cm^3
# Si number density = 14.678244 Si / 1000 Ang^3
#
#
#
# Elastic Constant Matrix: (Units=GPa)
#
#
# Indices 1 2 3 4 5 6 
#
# 1 85.4426 47.5784 26.6846 0.0000 0.0000 0.0000
# 2 47.5784 85.4426 26.6846 0.0000 0.0000 0.0000
# 3 26.6846 26.6846 87.2203 0.0000 0.0000 0.0000
# 4 0.0000 0.0000 0.0000 13.1598 0.0000 0.0000
# 5 0.0000 0.0000 0.0000 0.0000 13.1598 0.0000
# 6 0.0000 0.0000 0.0000 0.0000 0.0000 18.9321
#
#
#
# Elastic Compliance Matrix: (Units=1/GPa)
#
#
# Indices 1 2 3 4 5 6 
#
# 1 0.017490 -0.008920 -0.002622 0.000000 0.000000 0.000000
# 2 -0.008920 0.017490 -0.002622 0.000000 0.000000 0.000000
# 3 -0.002622 -0.002622 0.013069 0.000000 0.000000 0.000000
# 4 0.000000 0.000000 0.000000 0.075989 0.000000 0.000000
# 5 0.000000 0.000000 0.000000 0.000000 0.075989 0.000000
# 6 0.000000 0.000000 0.000000 0.000000 0.000000 0.052820
#
#
# Mechanical properties :
#
#
# Convention : Reuss Voigt Hill
#
# Bulk Modulus (GPa) = 50.70663 51.11119 50.90891
# Shear Modulus (GPa) = 17.37629 19.52757 18.45193
#
# Velocity S-wave (km/s) = 3.44439 3.65139 3.54940
# Velocity P-wave (km/s) = 7.10203 7.25765 7.18026
#
# Compressibility (1/GPa) = 0.01972129
#
# Stress axis : x y z
#
# Youngs Moduli (GPa) = 57.17615 57.17615 76.51422
#
# Poissons Ratio (x) = 0.51003 0.20060
# Poissons Ratio (y) = 0.51003 0.20060
# Poissons Ratio (z) = 0.14990 0.14990
#
# Static dielectric constant tensor:
#      x y z
#    x 1.487480 0.000000 0.000000 
#    y 0.000000 1.487480 0.000000 
#    z 0.000000 0.000000 1.493860 
# 
# From -- ./inp_files/1151.got.cif
#   From: 2010.05.17/outbox.cif.g08.bks.cpg/sg183_1_cif.got.tgz:1151.got - 2010.05.20 12:02:58.
