data_PCOD9584791
_publ_section_title
;
Structure prediction by ZEFSAII (Michael W. Deem and Ramdas Pophale) SiO2 
 PCOD9584791
Probable space group: P 63 2 2
;
_chemical_formula_sum "Si O2"
_cell_formula_units_Z 84
_cell_length_a 17.645898
_cell_length_b 17.645898
_cell_length_c 15.353380
_cell_angle_alpha 90.000000
_cell_angle_beta 90.000000
_cell_angle_gamma 120.000000
_cell_volume 4140.207995
_symmetry_space_group_name_H-M "P 63 2 2"
_symmetry_group_IT_number 182
_symmetry_cell_setting 'hexagonal'
loop_
_space_group_symop_operation_xyz
x,y,z
x-y,x,1/2+z
-y,x-y,z
-x,-y,1/2+z
-x+y,-x,z
y,-x+y,1/2+z
x-y,-y,-z
-x,-x+y,-z
y,x,-z
-y,-x,1/2-z
-x+y,y,1/2-z
x,x-y,1/2-z
loop_
_atom_site_type_symbol
_atom_site_label
_atom_site_fract_x
_atom_site_fract_y
_atom_site_fract_z
Si Si1 0.959083 0.567957 0.731138
Si Si2 0.383797 0.603387 0.930610
Si Si3 0.686927 0.792204 0.999488
Si Si4 0.215513 0.318317 0.169372
Si Si5 0.526075 0.847046 0.788612
Si Si6 0.708890 0.901369 0.839989
Si Si7 0.472835 0.093451 0.963660
O O1 0.946135 0.473068 0.750000
O O2 0.914562 0.602102 0.801719
O O3 0.918148 0.558740 0.635708
O O4 0.064474 0.634796 0.730286
O O5 0.426254 0.708059 0.930305
O O6 0.391795 0.557564 0.843461
O O7 0.426603 0.585882 0.013728
O O8 0.678841 0.843934 0.082950
O O9 0.589527 0.710038 0.984689
O O10 0.744704 0.744704 0.000000
O O11 0.728419 0.859288 0.921079
O O12 0.154043 0.308086 0.250000
O O13 0.232074 0.236915 0.163701
O O14 0.507451 0.753726 0.750000
O O15 0.607552 0.874646 0.853857
O O16 0.712344 0.856172 0.750000
O O17 0.451040 0.000000 0.000000
#
# Coordination Sequence:
#
# PCOD9584791 Si02
#       7
#    12  12  12  12  12  12  12
#     4  11  25  41  66  98 135 186 237 293 345 418
#     4  10  24  41  62  96 135 180 220 289 362 411
#     4  11  23  40  72  99 135 181 230 286 354 415
#     4  11  22  44  67 100 136 180 238 291 345 418
#     4  10  23  38  65  96 138 172 234 287 357 412
#     4  10  22  39  68 101 135 176 229 288 346 419
#     4  11  24  41  65  90 135 177 237 279 342 419
#
# _framework density 20.288834999999999
#
# number of rings (size 3 to 8) (size 9 to 14) (size 15 to 20)
#    0.286    1.143    1.429    3.000   14.000    2.286 
#    0.000    1.429    0.000    8.857    0.000    0.000 
#    0.000    0.000    0.000    0.000    0.000    0.000 
#
# Total GULP energy -468154.917099 kJ/mol
# GULP energy per Si atom -5573.272823 kJ/mol
# Density = 2.024266 g / cm^3
# Si number density = 20.288835 Si / 1000 Ang^3
#
#
#
# Elastic Constant Matrix: (Units=GPa)
#
#
# Indices 1 2 3 4 5 6 
#
# 1 108.6205 52.5102 40.7486 0.0000 0.0000 0.0000
# 2 52.5102 108.6205 40.7486 0.0000 0.0000 0.0000
# 3 40.7486 40.7486 100.9217 0.0000 0.0000 0.0000
# 4 0.0000 0.0000 0.0000 25.9938 0.0000 0.0000
# 5 0.0000 0.0000 0.0000 0.0000 25.9938 0.0000
# 6 0.0000 0.0000 0.0000 0.0000 0.0000 28.0551
#
#
#
# Elastic Compliance Matrix: (Units=1/GPa)
#
#
# Indices 1 2 3 4 5 6 
#
# 1 0.012810 -0.005012 -0.003149 0.000000 0.000000 0.000000
# 2 -0.005012 0.012810 -0.003149 0.000000 0.000000 0.000000
# 3 -0.003149 -0.003149 0.012451 0.000000 0.000000 0.000000
# 4 0.000000 0.000000 0.000000 0.038471 0.000000 0.000000
# 5 0.000000 0.000000 0.000000 0.000000 0.038471 0.000000
# 6 0.000000 0.000000 0.000000 0.000000 0.000000 0.035644
#
#
# Mechanical properties :
#
#
# Convention : Reuss Voigt Hill
#
# Bulk Modulus (GPa) = 64.71000 65.13083 64.92042
# Shear Modulus (GPa) = 28.02255 28.28557 28.15406
#
# Velocity S-wave (km/s) = 3.72046 3.73788 3.72918
# Velocity P-wave (km/s) = 7.10066 7.12744 7.11406
#
# Compressibility (1/GPa) = 0.01545356
#
# Stress axis : x y z
#
# Youngs Moduli (GPa) = 78.06143 78.06143 80.31171
#
# Poissons Ratio (x) = 0.39122 0.25289
# Poissons Ratio (y) = 0.39122 0.25289
# Poissons Ratio (z) = 0.24581 0.24581
#
# Static dielectric constant tensor:
#      x y z
#    x 1.771460 0.000000 0.000000 
#    y 0.000000 1.771460 0.000000 
#    z 0.000000 0.000000 1.791170 
# 
# From -- ./inp_files/3732.got.cif
#   From: 2010.05.17/outbox.cif.g08.bks.cpg/sg182_2_cif.got.tgz:3732.got - 2010.05.20 11:58:53.
