data_PCOD9584960
_publ_section_title
;
Structure prediction by ZEFSAII (Michael W. Deem and Ramdas Pophale) SiO2 
 PCOD9584960
Probable space group: P 6 M M
;
_chemical_formula_sum "Si O2"
_cell_formula_units_Z 96
_cell_length_a 22.187738
_cell_length_b 22.187738
_cell_length_c 15.424480
_cell_angle_alpha 90.000000
_cell_angle_beta 90.000000
_cell_angle_gamma 120.000000
_cell_volume 6576.082021
_symmetry_space_group_name_H-M "P 6 M M"
_symmetry_group_IT_number 183
_symmetry_cell_setting 'hexagonal'
loop_
_space_group_symop_operation_xyz
x,y,z
x-y,x,z
-y,x-y,z
-x,-y,z
-x+y,-x,z
y,-x+y,z
-x+y,y,z
x,x-y,z
-y,-x,z
y,x,z
x-y,-y,z
-x,-x+y,z
loop_
_atom_site_type_symbol
_atom_site_label
_atom_site_fract_x
_atom_site_fract_y
_atom_site_fract_z
Si Si1 0.810294 0.333794 0.951400
Si Si2 0.918872 0.531894 0.293532
Si Si3 0.151021 0.708865 0.128192
Si Si4 0.557848 0.708866 0.774615
Si Si5 0.289083 0.078474 0.054378
Si Si6 0.921527 0.210609 0.848443
Si Si7 0.468106 0.081128 0.609273
Si Si8 0.479705 0.813296 0.451402
O O1 0.807520 0.403760 0.951403
O O2 0.733352 0.266649 0.951397
O O3 0.845703 0.327739 0.863377
O O4 0.845700 0.327734 0.039424
O O5 0.920284 0.460142 0.287792
O O6 0.887437 0.543069 0.205350
O O7 0.863406 0.518917 0.369353
O O8 0.000000 0.591554 0.308704
O O9 0.230191 0.769810 0.149773
O O10 0.108721 0.747862 0.105125
O O11 0.539626 0.769813 0.753036
O O12 0.639143 0.747860 0.797692
O O13 0.543076 0.655638 0.697453
O O14 0.259138 0.129569 0.069503
O O15 0.237297 0.000000 0.078103
O O16 0.305251 0.081972 0.951410
O O17 0.870431 0.129570 0.833318
O O18 0.000000 0.237295 0.824719
O O19 0.539859 0.079717 0.615023
O O20 0.481087 0.136593 0.533451
O O21 0.408449 0.000000 0.594098
O O22 0.399637 0.799273 0.451400
O O23 0.480506 0.740253 0.451403
#
# Coordination Sequence:
#
# PCOD9584960 Si02
#       8
#    12  12  12  12  12  12  12  12
#     4  10  19  30  43  61  88 121 156 192 229 265
#     4  10  20  33  48  67  91 117 145 181 227 273
#     4  10  18  30  46  65  89 119 153 188 221 260
#     4  10  18  30  46  65  89 119 153 188 221 260
#     4   9  16  27  43  62  84 111 142 176 212 252
#     4   9  16  27  43  62  84 111 142 176 212 252
#     4  10  20  33  48  67  91 117 145 181 227 273
#     4  10  20  35  53  71  88 111 144 184 225 270
#
# _framework density 14.598357999999999
#
# number of rings (size 3 to 8) (size 9 to 14) (size 15 to 20)
#    0.000    2.250    1.250    2.875    0.000    1.500 
#    0.000    0.000    0.000   11.250    0.000    1.750 
#    0.000    0.000    0.000    0.000    0.000    0.000 
#
# Total GULP energy -534749.634223 kJ/mol
# GULP energy per Si atom -5570.308690 kJ/mol
# Density = 1.456513 g / cm^3
# Si number density = 14.598358 Si / 1000 Ang^3
#
#
#
# Elastic Constant Matrix: (Units=GPa)
#
#
# Indices 1 2 3 4 5 6 
#
# 1 86.7119 44.3574 59.8876 0.0000 0.0000 0.0000
# 2 44.3574 86.7119 59.8876 0.0000 0.0000 0.0000
# 3 59.8876 59.8876 90.6646 0.0000 0.0000 0.0000
# 4 0.0000 0.0000 0.0000 17.4741 0.0000 0.0000
# 5 0.0000 0.0000 0.0000 0.0000 17.4741 0.0000
# 6 0.0000 0.0000 0.0000 0.0000 0.0000 21.1772
#
#
#
# Elastic Compliance Matrix: (Units=1/GPa)
#
#
# Indices 1 2 3 4 5 6 
#
# 1 0.021429 -0.002181 -0.012714 0.000000 0.000000 0.000000
# 2 -0.002181 0.021429 -0.012714 0.000000 0.000000 0.000000
# 3 -0.012714 -0.012714 0.027826 0.000000 0.000000 0.000000
# 4 0.000000 0.000000 0.000000 0.057227 0.000000 0.000000
# 5 0.000000 0.000000 0.000000 0.000000 0.057227 0.000000
# 6 0.000000 0.000000 0.000000 0.000000 0.000000 0.047221
#
#
# Mechanical properties :
#
#
# Convention : Reuss Voigt Hill
#
# Bulk Modulus (GPa) = 64.65914 65.81706 65.23810
# Shear Modulus (GPa) = 17.08034 17.88881 17.48457
#
# Velocity S-wave (km/s) = 3.42426 3.50437 3.46455
# Velocity P-wave (km/s) = 7.74741 7.84584 7.79678
#
# Compressibility (1/GPa) = 0.01546572
#
# Stress axis : x y z
#
# Youngs Moduli (GPa) = 46.66522 46.66522 35.93738
#
# Poissons Ratio (x) = 0.10178 0.45692
# Poissons Ratio (y) = 0.10178 0.45692
# Poissons Ratio (z) = 0.59331 0.59331
#
# Static dielectric constant tensor:
#      x y z
#    x 1.474710 0.000000 0.000000 
#    y 0.000000 1.474710 0.000000 
#    z 0.000000 0.000000 1.485160 
# 
# From -- ./inp_files/1968.got.cif
#   From: 2010.05.17/outbox.cif.g08.bks.cpg/sg183_1_cif.got.tgz:1968.got - 2010.05.20 12:02:58.
