data_PCOD9584457
_publ_section_title
;
Structure prediction by ZEFSAII (Michael W. Deem and Ramdas Pophale) SiO2 
 PCOD9584457
Probable space group: P 64 2 2
;
_chemical_formula_sum "Si O2"
_cell_formula_units_Z 33
_cell_length_a 8.654853
_cell_length_b 8.654853
_cell_length_c 21.850118
_cell_angle_alpha 90.000000
_cell_angle_beta 90.000000
_cell_angle_gamma 120.000000
_cell_volume 1417.437147
_symmetry_space_group_name_H-M "P 64 2 2"
_symmetry_group_IT_number 181
_symmetry_cell_setting 'hexagonal'
loop_
_space_group_symop_operation_xyz
x,y,z
x-y,x,2/3+z
-y,x-y,1/3+z
-x,-y,z
-x+y,-x,2/3+z
y,-x+y,1/3+z
x-y,-y,-z
-x,-x+y,2/3-z
y,x,1/3-z
-y,-x,1/3-z
-x+y,y,-z
x,x-y,2/3-z
loop_
_atom_site_type_symbol
_atom_site_label
_atom_site_fract_x
_atom_site_fract_y
_atom_site_fract_z
Si Si1 0.132686 0.265371 0.000000
Si Si2 0.784994 0.569989 0.500000
Si Si3 0.500000 0.000000 0.740119
Si Si4 0.126936 0.858994 0.888811
Si Si5 0.000000 0.500000 0.833334
O O1 0.318689 0.386742 0.964335
O O2 0.975243 0.156627 0.951283
O O3 0.629450 0.470118 0.451706
O O4 0.730109 0.691590 0.541645
O O5 0.000000 0.845317 0.833334
O O6 0.119719 0.670632 0.876516
#
# Coordination Sequence:
#
# PCOD9584457 Si02
#       5
#     6   6   6  12   3
#     4  12  26  43  76 109 140 184 256 293 366 439
#     4  12  27  49  72 104 150 198 238 299 384 427
#     4  12  29  46  73 109 144 191 240 308 366 444
#     4  10  22  45  74 102 137 192 240 302 353 441
#     4   8  18  36  72  94 136 176 240 306 362 396
#
# _framework density 23.281458000000001
#
# number of rings (size 3 to 8) (size 9 to 14) (size 15 to 20)
#    1.091    0.000    3.636    1.636    0.000   11.636 
#    0.000    0.000    0.000    2.182    0.000    0.000 
#    0.000    0.000    0.000    0.000    0.000    0.000 
#
# Total GULP energy -184421.193647 kJ/mol
# GULP energy per Si atom -5588.521020 kJ/mol
# Density = 2.322847 g / cm^3
# Si number density = 23.281458 Si / 1000 Ang^3
#
#
#
# Elastic Constant Matrix: (Units=GPa)
#
#
# Indices 1 2 3 4 5 6 
#
# 1 367.5063 -235.4223 52.7483 0.0000 0.0000 0.0000
# 2 -235.4223 367.5063 52.7483 0.0000 0.0000 0.0000
# 3 52.7483 52.7483 175.3345 0.0000 0.0000 0.0000
# 4 0.0000 0.0000 0.0000 184.2481 0.0000 0.0000
# 5 0.0000 0.0000 0.0000 0.0000 184.2481 0.0000
# 6 0.0000 0.0000 0.0000 0.0000 0.0000 301.4643
#
#
#
# Elastic Compliance Matrix: (Units=1/GPa)
#
#
# Indices 1 2 3 4 5 6 
#
# 1 0.005812 0.004153 -0.002998 0.000000 0.000000 0.000000
# 2 0.004153 0.005812 -0.002998 0.000000 0.000000 0.000000
# 3 -0.002998 -0.002998 0.007507 0.000000 0.000000 0.000000
# 4 0.000000 0.000000 0.000000 0.005427 0.000000 0.000000
# 5 0.000000 0.000000 0.000000 0.000000 0.005427 0.000000
# 6 0.000000 0.000000 0.000000 0.000000 0.000000 0.003317
#
#
# Mechanical properties :
#
#
# Convention : Reuss Voigt Hill
#
# Bulk Modulus (GPa) = 64.74143 72.27729 68.50936
# Shear Modulus (GPa) = 118.65937 203.34362 161.00150
#
# Velocity S-wave (km/s) = 7.14689 9.35580 8.32493
# Velocity P-wave (km/s) = 9.79655 12.15814 11.04067
#
# Compressibility (1/GPa) = 0.01544606
#
# Stress axis : x y z
#
# Youngs Moduli (GPa) = 172.05659 172.05659 133.20406
#
# Poissons Ratio (x) = -0.71463 0.39935
# Poissons Ratio (y) = -0.71463 0.39935
# Poissons Ratio (z) = 0.51584 0.51584
#
# Static dielectric constant tensor:
#      x y z
#    x 1.801500 0.000000 0.000000 
#    y 0.000000 1.801500 0.000000 
#    z 0.000000 0.000000 1.944790 
# 
# From -- ./inp_files/9619.got.cif
#   From: 2010.05.17/outbox.cif.g08.bks.cpg/sg181_5_cif.got.tgz:9619.got - 2010.05.20 11:51:17.
