data_PCOD9584580
_publ_section_title
;
Structure prediction by ZEFSAII (Michael W. Deem and Ramdas Pophale) SiO2 
 PCOD9584580
Probable space group: P 64 2 2
;
_chemical_formula_sum "Si O2"
_cell_formula_units_Z 51
_cell_length_a 11.633381
_cell_length_b 11.633381
_cell_length_c 19.867433
_cell_angle_alpha 90.000000
_cell_angle_beta 90.000000
_cell_angle_gamma 120.000000
_cell_volume 2328.543161
_symmetry_space_group_name_H-M "P 64 2 2"
_symmetry_group_IT_number 181
_symmetry_cell_setting 'hexagonal'
loop_
_space_group_symop_operation_xyz
x,y,z
x-y,x,2/3+z
-y,x-y,1/3+z
-x,-y,z
-x+y,-x,2/3+z
y,-x+y,1/3+z
x-y,-y,-z
-x,-x+y,2/3-z
y,x,1/3-z
-y,-x,1/3-z
-x+y,y,-z
x,x-y,2/3-z
loop_
_atom_site_type_symbol
_atom_site_label
_atom_site_fract_x
_atom_site_fract_y
_atom_site_fract_z
Si Si1 0.782391 0.573527 0.221242
Si Si2 0.365740 0.182870 0.833334
Si Si3 0.735620 0.367810 0.333334
Si Si4 0.500000 0.000000 0.500000
Si Si5 0.577361 0.140856 0.773848
Si Si6 0.134592 0.133186 0.587377
O O1 0.805187 0.499625 0.285714
O O2 0.628581 0.531989 0.211787
O O3 0.822552 0.527036 0.152591
O O4 0.873063 0.731361 0.227511
O O5 0.465241 0.127142 0.826717
O O6 0.265706 0.127453 0.895036
O O7 0.646796 0.390990 0.387778
O O8 0.500000 0.000000 0.737200
O O9 0.139047 0.139047 0.666667
O O10 0.000000 0.000000 0.568858
#
# Coordination Sequence:
#
# PCOD9584580 Si02
#       6
#    12   6   6   3  12  12
#     4  12  26  47  75 105 151 196 246 309 373 451
#     4  12  22  46  72 104 146 186 248 304 364 440
#     4  12  24  46  71 116 145 188 256 308 374 456
#     4  12  26  48  66 110 152 196 238 300 384 434
#     4  12  25  44  70 108 146 190 247 307 375 439
#     4  11  27  48  73 112 147 198 250 302 382 456
#
# _framework density 21.902107000000001
#
# number of rings (size 3 to 8) (size 9 to 14) (size 15 to 20)
#    0.000    0.235    7.059    1.765    4.941    0.000 
#    0.000    0.000    0.000    0.000    0.000    0.000 
#    0.000    0.000    0.000    0.000    0.000    0.000 
#
# Total GULP energy -284995.229835 kJ/mol
# GULP energy per Si atom -5588.141761 kJ/mol
# Density = 2.185226 g / cm^3
# Si number density = 21.902107 Si / 1000 Ang^3
#
#
#
# Elastic Constant Matrix: (Units=GPa)
#
#
# Indices 1 2 3 4 5 6 
#
# 1 131.0324 52.5014 20.3920 0.0000 0.0000 0.0000
# 2 52.5014 131.0324 20.3920 0.0000 0.0000 0.0000
# 3 20.3920 20.3920 107.5029 0.0000 0.0000 0.0000
# 4 0.0000 0.0000 0.0000 27.8108 0.0000 0.0000
# 5 0.0000 0.0000 0.0000 0.0000 27.8108 0.0000
# 6 0.0000 0.0000 0.0000 0.0000 0.0000 39.2655
#
#
#
# Elastic Compliance Matrix: (Units=1/GPa)
#
#
# Indices 1 2 3 4 5 6 
#
# 1 0.009211 -0.003523 -0.001079 0.000000 0.000000 0.000000
# 2 -0.003523 0.009211 -0.001079 0.000000 0.000000 0.000000
# 3 -0.001079 -0.001079 0.009711 0.000000 0.000000 0.000000
# 4 0.000000 0.000000 0.000000 0.035957 0.000000 0.000000
# 5 0.000000 0.000000 0.000000 0.000000 0.035957 0.000000
# 6 0.000000 0.000000 0.000000 0.000000 0.000000 0.025468
#
#
# Mechanical properties :
#
#
# Convention : Reuss Voigt Hill
#
# Bulk Modulus (GPa) = 59.62284 61.79316 60.70800
# Shear Modulus (GPa) = 35.09563 37.39625 36.24594
#
# Velocity S-wave (km/s) = 4.00732 4.13659 4.07247
# Velocity P-wave (km/s) = 6.97804 7.14771 7.06338
#
# Compressibility (1/GPa) = 0.01677210
#
# Stress axis : x y z
#
# Youngs Moduli (GPa) = 108.56474 108.56474 102.97145
#
# Poissons Ratio (x) = 0.38244 0.11111
# Poissons Ratio (y) = 0.38244 0.11111
# Poissons Ratio (z) = 0.11714 0.11714
#
# Static dielectric constant tensor:
#      x y z
#    x 1.857410 0.000000 0.000000 
#    y 0.000000 1.857410 0.000000 
#    z 0.000000 0.000000 1.784970 
# 
# From -- ./inp_files/8848.got.cif
#   From: 2010.05.17/outbox.cif.g08.bks.cpg/sg181_5_cif.got.tgz:8848.got - 2010.05.20 11:51:17.
