data_PCOD9584661
_publ_section_title
;
Structure prediction by ZEFSAII (Michael W. Deem and Ramdas Pophale) SiO2 
 PCOD9584661
Probable space group: P 63 2 2
;
_chemical_formula_sum "Si O2"
_cell_formula_units_Z 40
_cell_length_a 13.342314
_cell_length_b 13.342314
_cell_length_c 12.556027
_cell_angle_alpha 90.000000
_cell_angle_beta 90.000000
_cell_angle_gamma 120.000000
_cell_volume 1935.731810
_symmetry_space_group_name_H-M "P 63 2 2"
_symmetry_group_IT_number 182
_symmetry_cell_setting 'hexagonal'
loop_
_space_group_symop_operation_xyz
x,y,z
x-y,x,1/2+z
-y,x-y,z
-x,-y,1/2+z
-x+y,-x,z
y,-x+y,1/2+z
x-y,-y,-z
-x,-x+y,-z
y,x,-z
-y,-x,1/2-z
-x+y,y,1/2-z
x,x-y,1/2-z
loop_
_atom_site_type_symbol
_atom_site_label
_atom_site_fract_x
_atom_site_fract_y
_atom_site_fract_z
Si Si1 0.333335 0.666667 0.876696
Si Si2 0.322881 0.872140 0.540865
Si Si3 0.753286 0.979622 0.797784
Si Si4 0.794249 0.693141 0.912322
O O1 0.333334 0.666667 0.750000
O O2 0.205970 0.625715 0.920720
O O3 0.262483 0.898641 0.639502
O O4 0.218195 0.801643 0.456674
O O5 0.415964 0.000000 0.500000
O O6 0.797801 0.898901 0.750000
O O7 0.846212 0.071372 0.879366
O O8 0.732628 0.046685 0.700343
O O9 0.744897 0.744897 0.000000
#
# Coordination Sequence:
#
# PCOD9584661 Si02
#       4
#     4  12  12  12
#     4  12  27  45  72 106 122 163 225 270 324 388
#     4  10  23  45  65  93 133 169 217 270 329 389
#     4  10  19  36  57  92 128 170 220 265 315 388
#     4  10  20  34  61  86 131 181 209 260 329 382
#
# _framework density 20.664021999999999
#
# number of rings (size 3 to 8) (size 9 to 14) (size 15 to 20)
#    0.000    1.800    3.000    0.900    0.000    1.200 
#    7.200    7.500    0.000    0.000    0.000    0.000 
#    0.000    0.000    0.000    0.000    0.000    0.000 
#
# Total GULP energy -223094.947356 kJ/mol
# GULP energy per Si atom -5577.373684 kJ/mol
# Density = 2.061699 g / cm^3
# Si number density = 20.664022 Si / 1000 Ang^3
#
#
#
# Elastic Constant Matrix: (Units=GPa)
#
#
# Indices 1 2 3 4 5 6 
#
# 1 47.1123 19.5777 7.8872 -0.0002 0.0001 0.0002
# 2 19.5777 47.1128 7.8874 0.0002 -0.0002 0.0000
# 3 7.8872 7.8874 72.3347 0.0000 0.0002 0.0001
# 4 -0.0002 0.0002 0.0000 13.1709 -0.0003 0.0002
# 5 0.0001 -0.0002 0.0002 -0.0003 13.1707 0.0002
# 6 0.0002 0.0000 0.0001 0.0002 0.0002 13.7676
#
#
#
# Elastic Compliance Matrix: (Units=1/GPa)
#
#
# Indices 1 2 3 4 5 6 
#
# 1 0.025855 -0.010463 -0.001678 0.000000 0.000000 0.000000
# 2 -0.010463 0.025855 -0.001678 0.000000 0.000001 0.000000
# 3 -0.001678 -0.001678 0.014191 0.000000 0.000000 0.000000
# 4 0.000000 0.000000 0.000000 0.075925 0.000002 -0.000001
# 5 0.000000 0.000001 0.000000 0.000002 0.075926 -0.000001
# 6 0.000000 0.000000 0.000000 -0.000001 -0.000001 0.072634
#
#
# Mechanical properties :
#
#
# Convention : Reuss Voigt Hill
#
# Bulk Modulus (GPa) = 26.13642 26.36272 26.24957
# Shear Modulus (GPa) = 15.11588 16.76901 15.94245
#
# Velocity S-wave (km/s) = 2.70757 2.85179 2.78062
# Velocity P-wave (km/s) = 4.73818 4.86097 4.79997
#
# Compressibility (1/GPa) = 0.03826078
#
# Stress axis : x y z
#
# Youngs Moduli (GPa) = 38.67761 38.67796 70.46904
#
# Poissons Ratio (x) = 0.40469 0.11826
# Poissons Ratio (y) = 0.40468 0.11827
# Poissons Ratio (z) = 0.06491 0.06491
#
# Static dielectric constant tensor:
#      x y z
#    x 1.760290 0.000000 0.000010 
#    y 0.000000 1.760290 0.000000 
#    z 0.000010 0.000000 2.193720 
# 
# From -- ./inp_files/2248.got.cif
#   From: 2010.05.17/outbox.cif.g08.bks.cpg/sg182_2_cif.got.tgz:2248.got - 2010.05.20 11:58:53.
