data_PCOD9584925
_publ_section_title
;
Structure prediction by ZEFSAII (Michael W. Deem and Ramdas Pophale) SiO2 
 PCOD9584925
Probable space group: P 6 M M
;
_chemical_formula_sum "Si O2"
_cell_formula_units_Z 96
_cell_length_a 18.538700
_cell_length_b 18.538700
_cell_length_c 20.741313
_cell_angle_alpha 90.000000
_cell_angle_beta 90.000000
_cell_angle_gamma 120.000000
_cell_volume 6173.414394
_symmetry_space_group_name_H-M "P 6 M M"
_symmetry_group_IT_number 183
_symmetry_cell_setting 'hexagonal'
loop_
_space_group_symop_operation_xyz
x,y,z
x-y,x,z
-y,x-y,z
-x,-y,z
-x+y,-x,z
y,-x+y,z
-x+y,y,z
x,x-y,z
-y,-x,z
y,x,z
x-y,-y,z
-x,-x+y,z
loop_
_atom_site_type_symbol
_atom_site_label
_atom_site_fract_x
_atom_site_fract_y
_atom_site_fract_z
Si Si1 0.467703 0.368858 0.519500
Si Si2 0.167263 0.500094 0.377328
Si Si3 0.167819 0.668747 0.165828
Si Si4 0.900174 0.533097 0.757013
Si Si5 0.638796 0.900790 0.637960
Si Si6 0.264263 0.359464 0.272632
Si Si7 0.832116 0.330862 0.893906
Si Si8 0.634743 0.540192 0.028498
O O1 0.558590 0.441411 0.543198
O O2 0.415938 0.415938 0.505246
O O3 0.480384 0.333631 0.452768
O O4 0.416860 0.301748 0.573958
O O5 0.262800 0.525600 0.365185
O O6 0.151897 0.575949 0.360467
O O7 0.112516 0.418372 0.334903
O O8 0.151225 0.575613 0.175556
O O9 0.263748 0.736253 0.179574
O O10 0.113534 0.691847 0.212394
O O11 0.147953 0.678055 0.091609
O O12 0.870240 0.435120 0.746468
O O13 0.880698 0.576278 0.698258
O O14 0.867039 0.545023 0.825534
O O15 0.000000 0.579454 0.761263
O O16 0.673023 0.836512 0.638879
O O17 0.705998 0.000000 0.640112
O O18 0.167024 0.334047 0.271802
O O19 0.286336 0.286336 0.271797
O O20 0.847922 0.423961 0.893194
O O21 0.735083 0.264918 0.896926
O O22 0.872790 0.321783 0.959558
O O23 0.547326 0.452675 0.024639
O O24 0.611260 0.611260 0.038847
#
# Coordination Sequence:
#
# PCOD9584925 Si02
#       8
#    12  12  12  12  12  12  12  12
#     4   9  17  29  46  67  90 118 152 188 223 260
#     4  10  19  30  45  67  97 130 161 189 217 251
#     4  10  19  30  45  66  93 123 154 186 220 259
#     4   9  17  29  45  63  83 109 140 174 213 260
#     4  10  19  31  47  66  88 114 147 185 225 269
#     4  10  21  35  51  70  91 117 149 187 229 271
#     4  10  18  27  39  56  80 108 139 175 216 260
#     4   9  17  28  41  56  76 107 148 190 225 256
#
# _framework density 15.550552
#
# number of rings (size 3 to 8) (size 9 to 14) (size 15 to 20)
#    0.000    2.375    0.000    3.375    0.000    5.000 
#    0.000    2.500    0.000    3.750    0.000    0.000 
#    0.000    0.000    0.000    4.000    0.000    0.000 
#
# Total GULP energy -534920.282684 kJ/mol
# GULP energy per Si atom -5572.086278 kJ/mol
# Density = 1.551516 g / cm^3
# Si number density = 15.550552 Si / 1000 Ang^3
#
#
#
# Elastic Constant Matrix: (Units=GPa)
#
#
# Indices 1 2 3 4 5 6 
#
# 1 63.4798 39.1382 29.5320 0.0000 0.0000 0.0000
# 2 39.1382 63.4798 29.5320 0.0000 0.0000 0.0000
# 3 29.5320 29.5320 72.4179 0.0000 0.0000 0.0000
# 4 0.0000 0.0000 0.0000 16.1704 0.0000 0.0000
# 5 0.0000 0.0000 0.0000 0.0000 16.1704 0.0000
# 6 0.0000 0.0000 0.0000 0.0000 0.0000 12.1708
#
#
#
# Elastic Compliance Matrix: (Units=1/GPa)
#
#
# Indices 1 2 3 4 5 6 
#
# 1 0.026908 -0.014174 -0.005193 0.000000 0.000000 0.000000
# 2 -0.014174 0.026908 -0.005193 0.000000 0.000000 0.000000
# 3 -0.005193 -0.005193 0.018044 0.000000 0.000000 0.000000
# 4 0.000000 0.000000 0.000000 0.061841 0.000000 0.000000
# 5 0.000000 0.000000 0.000000 0.000000 0.061841 0.000000
# 6 0.000000 0.000000 0.000000 0.000000 0.000000 0.082164
#
#
# Mechanical properties :
#
#
# Convention : Reuss Voigt Hill
#
# Bulk Modulus (GPa) = 43.97499 43.97576 43.97537
# Shear Modulus (GPa) = 14.95188 15.64733 15.29960
#
# Velocity S-wave (km/s) = 3.10417 3.17554 3.14006
# Velocity P-wave (km/s) = 6.41779 6.46421 6.44104
#
# Compressibility (1/GPa) = 0.02274020
#
# Stress axis : x y z
#
# Youngs Moduli (GPa) = 37.16388 37.16388 55.42017
#
# Poissons Ratio (x) = 0.52677 0.28779
# Poissons Ratio (y) = 0.52677 0.28779
# Poissons Ratio (z) = 0.19298 0.19298
#
# Static dielectric constant tensor:
#      x y z
#    x 1.508460 0.000000 0.000000 
#    y 0.000000 1.508460 0.000000 
#    z 0.000000 0.000000 1.542020 
# 
# From -- ./inp_files/2996.got.cif
#   From: 2010.05.17/outbox.cif.g08.bks.cpg/sg183_2_cif.got.tgz:2996.got - 2010.05.20 12:02:58.
