data_PCOD9584747
_publ_section_title
;
Structure prediction by ZEFSAII (Michael W. Deem and Ramdas Pophale) SiO2 
 PCOD9584747
Probable space group: P 63 2 2
;
_chemical_formula_sum "Si O2"
_cell_formula_units_Z 40
_cell_length_a 16.766170
_cell_length_b 16.766170
_cell_length_c 7.929556
_cell_angle_alpha 90.000000
_cell_angle_beta 90.000000
_cell_angle_gamma 120.000000
_cell_volume 1930.399662
_symmetry_space_group_name_H-M "P 63 2 2"
_symmetry_group_IT_number 182
_symmetry_cell_setting 'hexagonal'
loop_
_space_group_symop_operation_xyz
x,y,z
x-y,x,1/2+z
-y,x-y,z
-x,-y,1/2+z
-x+y,-x,z
y,-x+y,1/2+z
x-y,-y,-z
-x,-x+y,-z
y,x,-z
-y,-x,1/2-z
-x+y,y,1/2-z
x,x-y,1/2-z
loop_
_atom_site_type_symbol
_atom_site_label
_atom_site_fract_x
_atom_site_fract_y
_atom_site_fract_z
Si Si1 0.666666 0.333333 0.950834
Si Si2 0.454298 0.070141 0.855254
Si Si3 0.245175 0.771067 0.552708
Si Si4 0.232659 0.304764 0.139391
O O1 0.666668 0.333334 0.750000
O O2 0.575585 0.329735 0.021874
O O3 0.541943 0.083886 0.750000
O O4 0.354441 0.032189 0.762304
O O5 0.472722 0.164003 0.942486
O O6 0.441564 0.000000 0.000000
O O7 0.229725 0.770276 0.750000
O O8 0.253894 0.861413 0.473464
O O9 0.138923 0.277845 0.250000
O O10 0.233691 0.233691 0.000000
#
# Coordination Sequence:
#
# PCOD9584747 Si02
#       4
#     4  12  12  12
#     4  12  22  35  49  72 109 155 214 264 304 347
#     4  11  22  35  54  80 115 160 207 256 304 355
#     4  11  22  36  55  78 109 155 207 256 302 353
#     4  10  21  38  58  82 114 154 199 252 309 367
#
# _framework density 20.721095999999999
#
# number of rings (size 3 to 8) (size 9 to 14) (size 15 to 20)
#    0.000    1.200    0.000    9.000    0.000    2.400 
#    0.000    0.000    0.000    0.000    0.000    0.000 
#    0.000    0.000    0.000  933.300    0.000    4.200 
#
# Total GULP energy -223214.276216 kJ/mol
# GULP energy per Si atom -5580.356905 kJ/mol
# Density = 2.067393 g / cm^3
# Si number density = 20.721096 Si / 1000 Ang^3
#
#
#
# Elastic Constant Matrix: (Units=GPa)
#
#
# Indices 1 2 3 4 5 6 
#
# 1 -159.9241 232.8701 22.1374 0.0036 0.0016 0.1649
# 2 232.8701 -159.9021 22.1392 -0.0034 -0.0017 -0.1674
# 3 22.1374 22.1392 119.4767 0.0000 0.0001 -0.0029
# 4 0.0036 -0.0034 0.0000 33.8327 -0.0006 0.0016
# 5 0.0016 -0.0017 0.0001 -0.0006 33.8325 -0.0035
# 6 0.1649 -0.1674 -0.0029 0.0016 -0.0035 -196.3950
#
#
#
# Elastic Compliance Matrix: (Units=1/GPa)
#
#
# Indices 1 2 3 4 5 6 
#
# 1 0.006448 0.008995 -0.002862 0.000000 0.000000 -0.000002
# 2 0.008995 0.006449 -0.002862 0.000000 0.000000 0.000002
# 3 -0.002862 -0.002862 0.009430 0.000000 0.000000 0.000000
# 4 0.000000 0.000000 0.000000 0.029557 0.000001 0.000000
# 5 0.000000 0.000000 0.000000 0.000001 0.029557 -0.000001
# 6 -0.000002 0.000002 0.000000 0.000000 -0.000001 -0.005092
#
#
# Mechanical properties :
#
#
# Convention : Reuss Voigt Hill
#
# Bulk Modulus (GPa) = 34.63713 39.32711 36.98212
# Shear Modulus (GPa) = 62.94769 -57.57904 2.68433
#
# Velocity S-wave (km/s) = 5.51765 -5.27712 1.13942
# Velocity P-wave (km/s) = 7.57264 4.25560 4.42915
#
# Compressibility (1/GPa) = 0.02887075
#
# Stress axis : x y z
#
# Youngs Moduli (GPa) = 155.07991 155.05979 106.04124
#
# Poissons Ratio (x) = -1.39471 0.30344
# Poissons Ratio (y) = -1.39489 0.30345
# Poissons Ratio (z) = 0.44376 0.44372
#
# Static dielectric constant tensor:
#      x y z
#    x 2.195750 -0.000060 0.000000 
#    y -0.000060 2.195790 0.000000 
#    z 0.000000 0.000000 1.797120 
# 
# From -- ./inp_files/1362.got.cif
#   From: 2010.05.17/outbox.cif.g08.bks.cpg/sg182_1_cif.got.tgz:1362.got - 2010.05.20 11:58:53.
