data_PCOD9584266
_publ_section_title
;
Structure prediction by ZEFSAII (Michael W. Deem and Ramdas Pophale) SiO2 
 PCOD9584266
Probable space group: P 64 2 2
;
_chemical_formula_sum "Si O2"
_cell_formula_units_Z 42
_cell_length_a 18.266579
_cell_length_b 18.266579
_cell_length_c 8.980648
_cell_angle_alpha 90.000000
_cell_angle_beta 90.000000
_cell_angle_gamma 120.000000
_cell_volume 2595.091917
_symmetry_space_group_name_H-M "P 64 2 2"
_symmetry_group_IT_number 181
_symmetry_cell_setting 'hexagonal'
loop_
_space_group_symop_operation_xyz
x,y,z
x-y,x,2/3+z
-y,x-y,1/3+z
-x,-y,z
-x+y,-x,2/3+z
y,-x+y,1/3+z
x-y,-y,-z
-x,-x+y,2/3-z
y,x,1/3-z
-y,-x,1/3-z
-x+y,y,-z
x,x-y,2/3-z
loop_
_atom_site_type_symbol
_atom_site_label
_atom_site_fract_x
_atom_site_fract_y
_atom_site_fract_z
Si Si1 0.567741 0.432260 0.166667
Si Si2 0.032279 0.437888 0.580246
Si Si3 0.679064 0.489039 0.614854
Si Si4 0.450286 0.296436 0.393635
O O1 0.594510 0.515201 0.267282
O O2 0.534374 0.356840 0.290125
O O3 0.103622 0.446343 0.469233
O O4 0.000000 0.500000 0.518287
O O5 0.947846 0.348969 0.602040
O O6 0.595148 0.404853 0.666667
O O7 0.735278 0.470556 0.500000
O O8 0.717282 0.527141 0.773572
O O9 0.403933 0.201967 0.333334
#
# Coordination Sequence:
#
# PCOD9584266 Si02
#       4
#     6  12  12  12
#     4  10  19  34  56  72  96 136 174 216 284 344
#     4  10  19  37  56  70  94 141 176 220 278 357
#     4  12  24  37  53  72 103 139 183 231 286 324
#     4  11  22  33  53  74  98 125 180 224 277 326
#
# _framework density 16.184398000000002
#
# number of rings (size 3 to 8) (size 9 to 14) (size 15 to 20)
#    0.000    1.143    5.714    6.429    0.000    1.143 
#    2.571    0.000    0.000    0.000    0.000    0.000 
#    0.000    0.000    0.000    0.000    0.000   68.571 
#
# Total GULP energy -233890.279390 kJ/mol
# GULP energy per Si atom -5568.816176 kJ/mol
# Density = 1.614756 g / cm^3
# Si number density = 16.184398 Si / 1000 Ang^3
#
#
#
# Elastic Constant Matrix: (Units=GPa)
#
#
# Indices 1 2 3 4 5 6 
#
# 1 72.3132 30.6680 28.6323 0.0000 0.0000 0.0000
# 2 30.6680 72.3132 28.6323 0.0000 0.0000 0.0000
# 3 28.6323 28.6323 127.3975 0.0000 0.0000 0.0000
# 4 0.0000 0.0000 0.0000 14.8405 0.0000 0.0000
# 5 0.0000 0.0000 0.0000 0.0000 14.8405 0.0000
# 6 0.0000 0.0000 0.0000 0.0000 0.0000 20.8226
#
#
#
# Elastic Compliance Matrix: (Units=1/GPa)
#
#
# Indices 1 2 3 4 5 6 
#
# 1 0.017555 -0.006457 -0.002494 0.000000 0.000000 0.000000
# 2 -0.006457 0.017555 -0.002494 0.000000 0.000000 0.000000
# 3 -0.002494 -0.002494 0.008971 0.000000 0.000000 0.000000
# 4 0.000000 0.000000 0.000000 0.067383 0.000000 0.000000
# 5 0.000000 0.000000 0.000000 0.000000 0.067383 0.000000
# 6 0.000000 0.000000 0.000000 0.000000 0.000000 0.048025
#
#
# Mechanical properties :
#
#
# Convention : Reuss Voigt Hill
#
# Bulk Modulus (GPa) = 47.19454 49.76546 48.48000
# Shear Modulus (GPa) = 19.46841 22.37344 20.92092
#
# Velocity S-wave (km/s) = 3.47206 3.72211 3.59926
# Velocity P-wave (km/s) = 6.73034 7.02053 6.87697
#
# Compressibility (1/GPa) = 0.02118889
#
# Stress axis : x y z
#
# Youngs Moduli (GPa) = 56.96413 56.96413 111.47595
#
# Poissons Ratio (x) = 0.36785 0.27803
# Poissons Ratio (y) = 0.36785 0.27803
# Poissons Ratio (z) = 0.14208 0.14208
#
# Static dielectric constant tensor:
#      x y z
#    x 1.601760 0.000000 0.000000 
#    y 0.000000 1.601760 0.000000 
#    z 0.000000 0.000000 1.669930 
# 
# From -- ./inp_files/2472.got.cif
#   From: 2010.05.17/outbox.cif.g08.bks.cpg/sg181_2_cif.got.tgz:2472.got - 2010.05.20 11:51:17.
