data_PCOD9584766
_publ_section_title
;
Structure prediction by ZEFSAII (Michael W. Deem and Ramdas Pophale) SiO2 
 PCOD9584766
Probable space group: P 63 2 2
;
_chemical_formula_sum "Si O2"
_cell_formula_units_Z 84
_cell_length_a 18.281184
_cell_length_b 18.281184
_cell_length_c 14.698067
_cell_angle_alpha 90.000000
_cell_angle_beta 90.000000
_cell_angle_gamma 120.000000
_cell_volume 4254.019674
_symmetry_space_group_name_H-M "P 63 2 2"
_symmetry_group_IT_number 182
_symmetry_cell_setting 'hexagonal'
loop_
_space_group_symop_operation_xyz
x,y,z
x-y,x,1/2+z
-y,x-y,z
-x,-y,1/2+z
-x+y,-x,z
y,-x+y,1/2+z
x-y,-y,-z
-x,-x+y,-z
y,x,-z
-y,-x,1/2-z
-x+y,y,1/2-z
x,x-y,1/2-z
loop_
_atom_site_type_symbol
_atom_site_label
_atom_site_fract_x
_atom_site_fract_y
_atom_site_fract_z
Si Si1 0.365640 0.937510 0.422002
Si Si2 0.923458 0.398695 0.931432
Si Si3 0.777414 0.139011 0.340736
Si Si4 0.108305 0.202027 0.138711
Si Si5 0.183147 0.383966 0.046258
Si Si6 0.910013 0.076618 0.352231
Si Si7 0.439059 0.032481 0.236386
O O1 0.430662 0.905665 0.452782
O O2 0.274724 0.856810 0.411659
O O3 0.368319 0.000000 0.500000
O O4 0.394585 0.995228 0.331867
O O5 0.857256 0.299996 0.933892
O O6 0.954892 0.419566 0.828489
O O7 0.000000 0.416616 0.000000
O O8 0.805991 0.194010 0.250000
O O9 0.801184 0.186866 0.436345
O O10 0.829430 0.089466 0.344047
O O11 0.678734 0.080378 0.321292
O O12 0.108083 0.216166 0.250000
O O13 0.130477 0.288146 0.086048
O O14 0.167565 0.161416 0.116064
O O15 0.015944 0.128145 0.106607
O O16 0.934362 0.065639 0.250000
O O17 0.540505 0.081009 0.250000
#
# Coordination Sequence:
#
# PCOD9584766 Si02
#       7
#    12  12  12  12  12  12  12
#     4  10  24  41  64  95 129 164 210 268 327 395
#     4  10  21  43  64  91 124 164 212 261 334 390
#     4  11  23  39  61  91 125 164 212 269 319 375
#     4  10  22  37  60  92 131 179 228 266 324 387
#     4  12  25  37  67  97 125 168 216 275 326 396
#     4   9  20  36  55  82 127 174 210 266 312 364
#     4  10  21  40  68  90 122 166 212 258 322 391
#
# _framework density 19.746030000000001
#
# number of rings (size 3 to 8) (size 9 to 14) (size 15 to 20)
#    0.000    1.714    1.429    2.000   10.000    1.143 
#    0.857    0.000    0.000    2.000    0.000    0.000 
#    0.000    0.000    0.000    0.000    0.000    0.000 
#
# Total GULP energy -468015.221780 kJ/mol
# GULP energy per Si atom -5571.609783 kJ/mol
# Density = 1.970109 g / cm^3
# Si number density = 19.746030 Si / 1000 Ang^3
#
#
#
# Elastic Constant Matrix: (Units=GPa)
#
#
# Indices 1 2 3 4 5 6 
#
# 1 73.4269 29.6195 -10.4385 0.0000 0.0000 0.0000
# 2 29.6195 73.4269 -10.4385 0.0000 0.0000 0.0000
# 3 -10.4385 -10.4385 93.1764 0.0000 0.0000 0.0000
# 4 0.0000 0.0000 0.0000 72.8859 0.0000 0.0000
# 5 0.0000 0.0000 0.0000 0.0000 72.8859 0.0000
# 6 0.0000 0.0000 0.0000 0.0000 0.0000 21.9037
#
#
#
# Elastic Compliance Matrix: (Units=1/GPa)
#
#
# Indices 1 2 3 4 5 6 
#
# 1 0.016378 -0.006449 0.001112 0.000000 0.000000 0.000000
# 2 -0.006449 0.016378 0.001112 0.000000 0.000000 0.000000
# 3 0.001112 0.001112 0.010982 0.000000 0.000000 0.000000
# 4 0.000000 0.000000 0.000000 0.013720 0.000000 0.000000
# 5 0.000000 0.000000 0.000000 0.000000 0.013720 0.000000
# 6 0.000000 0.000000 0.000000 0.000000 0.000000 0.045654
#
#
# Mechanical properties :
#
#
# Convention : Reuss Voigt Hill
#
# Bulk Modulus (GPa) = 28.33605 28.61281 28.47443
# Shear Modulus (GPa) = 36.48455 48.95429 42.71942
#
# Velocity S-wave (km/s) = 4.30314 4.98456 4.65633
# Velocity P-wave (km/s) = 6.25066 6.90287 6.58484
#
# Compressibility (1/GPa) = 0.03529074
#
# Stress axis : x y z
#
# Youngs Moduli (GPa) = 61.05581 61.05581 91.06162
#
# Poissons Ratio (x) = 0.39373 -0.10130
# Poissons Ratio (y) = 0.39373 -0.10130
# Poissons Ratio (z) = -0.06792 -0.06792
#
# Static dielectric constant tensor:
#      x y z
#    x 1.743760 0.000000 0.000000 
#    y 0.000000 1.743760 0.000000 
#    z 0.000000 0.000000 1.753620 
# 
# From -- ./inp_files/3716.got.cif
#   From: 2010.05.17/outbox.cif.g08.bks.cpg/sg182_2_cif.got.tgz:3716.got - 2010.05.20 11:58:53.
