data_PCOD9584394
_publ_section_title
;
Structure prediction by ZEFSAII (Michael W. Deem and Ramdas Pophale) SiO2 
 PCOD9584394
Probable space group: P 64 2 2
;
_chemical_formula_sum "Si O2"
_cell_formula_units_Z 42
_cell_length_a 10.297080
_cell_length_b 10.297080
_cell_length_c 23.225357
_cell_angle_alpha 90.000000
_cell_angle_beta 90.000000
_cell_angle_gamma 120.000000
_cell_volume 2132.657939
_symmetry_space_group_name_H-M "P 64 2 2"
_symmetry_group_IT_number 181
_symmetry_cell_setting 'hexagonal'
loop_
_space_group_symop_operation_xyz
x,y,z
x-y,x,2/3+z
-y,x-y,1/3+z
-x,-y,z
-x+y,-x,2/3+z
y,-x+y,1/3+z
x-y,-y,-z
-x,-x+y,2/3-z
y,x,1/3-z
-y,-x,1/3-z
-x+y,y,-z
x,x-y,2/3-z
loop_
_atom_site_type_symbol
_atom_site_label
_atom_site_fract_x
_atom_site_fract_y
_atom_site_fract_z
Si Si1 0.534235 0.242698 0.620442
Si Si2 0.674388 0.348775 0.500000
Si Si3 0.713086 0.998221 0.690951
Si Si4 0.500000 0.000000 0.213363
Si Si5 0.710021 0.000000 0.000000
O O1 0.667966 0.332035 0.666667
O O2 0.599974 0.255757 0.557769
O O3 0.428869 0.318980 0.626384
O O4 0.416808 0.077522 0.642563
O O5 0.599513 0.450447 0.489105
O O6 0.857977 0.142024 0.666667
O O7 0.638528 0.028055 0.745674
O O8 0.743106 0.859284 0.701600
#
# Coordination Sequence:
#
# PCOD9584394 Si02
#       5
#    12   6  12   6   6
#     4  10  21  41  68 103 140 184 244 283 362 422
#     4  12  26  42  69 108 141 194 230 320 344 458
#     4  10  23  42  71  96 140 186 239 299 360 434
#     4  12  28  40  71 103 150 184 258 284 382 416
#     4   8  20  38  72  98 132 182 240 284 364 428
#
# _framework density 19.693733999999999
#
# number of rings (size 3 to 8) (size 9 to 14) (size 15 to 20)
#    1.714    0.000    2.857    0.857   12.000    0.000 
#    0.000    2.857    0.000    0.000    0.000    0.000 
#    0.000    0.000    0.000    0.000    0.000    0.000 
#
# Total GULP energy -234068.720755 kJ/mol
# GULP energy per Si atom -5573.064780 kJ/mol
# Density = 1.964891 g / cm^3
# Si number density = 19.693734 Si / 1000 Ang^3
#
#
#
# Elastic Constant Matrix: (Units=GPa)
#
#
# Indices 1 2 3 4 5 6 
#
# 1 72.0152 34.1611 32.7629 0.0000 0.0000 0.0000
# 2 34.1611 72.0152 32.7629 0.0000 0.0000 0.0000
# 3 32.7629 32.7629 111.0379 0.0000 0.0000 0.0000
# 4 0.0000 0.0000 0.0000 18.2181 0.0000 0.0000
# 5 0.0000 0.0000 0.0000 0.0000 18.2181 0.0000
# 6 0.0000 0.0000 0.0000 0.0000 0.0000 18.9271
#
#
#
# Elastic Compliance Matrix: (Units=1/GPa)
#
#
# Indices 1 2 3 4 5 6 
#
# 1 0.018966 -0.007451 -0.003398 0.000000 0.000000 0.000000
# 2 -0.007451 0.018966 -0.003398 0.000000 0.000000 0.000000
# 3 -0.003398 -0.003398 0.011011 0.000000 0.000000 0.000000
# 4 0.000000 0.000000 0.000000 0.054891 0.000000 0.000000
# 5 0.000000 0.000000 0.000000 0.000000 0.054891 0.000000
# 6 0.000000 0.000000 0.000000 0.000000 0.000000 0.052834
#
#
# Mechanical properties :
#
#
# Convention : Reuss Voigt Hill
#
# Bulk Modulus (GPa) = 48.89834 50.49356 49.69595
# Shear Modulus (GPa) = 20.25372 21.43142 20.84257
#
# Velocity S-wave (km/s) = 3.21040 3.30242 3.25674
# Velocity P-wave (km/s) = 6.21494 6.34321 6.27941
#
# Compressibility (1/GPa) = 0.02045059
#
# Stress axis : x y z
#
# Youngs Moduli (GPa) = 52.72552 52.72552 90.81857
#
# Poissons Ratio (x) = 0.39286 0.30857
# Poissons Ratio (y) = 0.39286 0.30857
# Poissons Ratio (z) = 0.17914 0.17914
#
# Static dielectric constant tensor:
#      x y z
#    x 1.741930 0.000000 0.000000 
#    y 0.000000 1.741930 0.000000 
#    z 0.000000 0.000000 1.674250 
# 
# From -- ./inp_files/9809.got.cif
#   From: 2010.05.17/outbox.cif.g08.bks.cpg/sg181_5_cif.got.tgz:9809.got - 2010.05.20 11:51:17.
