data_PCOD9584619
_publ_section_title
;
Structure prediction by ZEFSAII (Michael W. Deem and Ramdas Pophale) SiO2 
 PCOD9584619
Probable space group: P 63 2 2
;
_chemical_formula_sum "Si O2"
_cell_formula_units_Z 84
_cell_length_a 18.831794
_cell_length_b 18.831794
_cell_length_c 15.502182
_cell_angle_alpha 90.000000
_cell_angle_beta 90.000000
_cell_angle_gamma 120.000000
_cell_volume 4761.095059
_symmetry_space_group_name_H-M "P 63 2 2"
_symmetry_group_IT_number 182
_symmetry_cell_setting 'hexagonal'
loop_
_space_group_symop_operation_xyz
x,y,z
x-y,x,1/2+z
-y,x-y,z
-x,-y,1/2+z
-x+y,-x,z
y,-x+y,1/2+z
x-y,-y,-z
-x,-x+y,-z
y,x,-z
-y,-x,1/2-z
-x+y,y,1/2-z
x,x-y,1/2-z
loop_
_atom_site_type_symbol
_atom_site_label
_atom_site_fract_x
_atom_site_fract_y
_atom_site_fract_z
Si Si1 0.526404 0.903221 0.762732
Si Si2 0.222806 0.904689 0.695410
Si Si3 0.467704 0.379542 0.717052
Si Si4 0.650242 0.096921 0.518606
Si Si5 0.380706 0.162978 0.494190
Si Si6 0.491304 0.400657 0.037831
Si Si7 0.770411 0.670458 0.685306
O O1 0.427622 0.855243 0.750000
O O2 0.593661 0.875232 0.756259
O O3 0.531803 0.923208 0.862988
O O4 0.565277 0.988733 0.711741
O O5 0.139642 0.860359 0.750000
O O6 0.213277 0.880039 0.594328
O O7 0.267873 0.003092 0.697824
O O8 0.558877 0.441124 0.750000
O O9 0.462155 0.348048 0.620605
O O10 0.416893 0.305421 0.782646
O O11 0.741939 0.150780 0.485699
O O12 0.585943 0.119952 0.477216
O O13 0.612856 0.000000 0.500000
O O14 0.458711 0.148748 0.497557
O O15 0.334458 0.126597 0.585283
O O16 0.439678 0.439678 0.000000
O O17 0.844935 0.689870 0.750000
#
# Coordination Sequence:
#
# PCOD9584619 Si02
#       7
#    12  12  12  12  12  12  12
#     4   9  17  30  53  76 105 140 185 232 282 339
#     4  10  23  36  60  85 114 154 199 251 302 365
#     4  10  18  32  55  81 109 146 188 235 285 353
#     4  11  22  33  57  87 117 147 197 251 301 349
#     4  11  22  37  57  85 119 156 198 247 306 364
#     4  10  19  35  53  74 109 159 195 228 289 360
#     4  11  21  38  57  84 119 154 198 246 308 357
#
# _framework density 17.642999
#
# number of rings (size 3 to 8) (size 9 to 14) (size 15 to 20)
#    0.000    1.714    1.429    7.286    6.000    0.000 
#    0.857    0.000    0.000    0.857    0.000    0.000 
#    0.000    0.000    0.000    0.000    0.000    0.000 
#
# Total GULP energy -468063.992146 kJ/mol
# GULP energy per Si atom -5572.190383 kJ/mol
# Density = 1.760284 g / cm^3
# Si number density = 17.642999 Si / 1000 Ang^3
#
#
#
# Elastic Constant Matrix: (Units=GPa)
#
#
# Indices 1 2 3 4 5 6 
#
# 1 89.9273 55.0651 28.0298 0.0000 0.0000 0.0000
# 2 55.0651 89.9273 28.0298 0.0000 0.0000 0.0000
# 3 28.0298 28.0298 65.2756 0.0000 0.0000 0.0000
# 4 0.0000 0.0000 0.0000 6.9339 0.0000 0.0000
# 5 0.0000 0.0000 0.0000 0.0000 6.9339 0.0000
# 6 0.0000 0.0000 0.0000 0.0000 0.0000 17.4311
#
#
#
# Elastic Compliance Matrix: (Units=1/GPa)
#
#
# Indices 1 2 3 4 5 6 
#
# 1 0.018477 -0.010207 -0.003551 0.000000 0.000000 0.000000
# 2 -0.010207 0.018477 -0.003551 0.000000 0.000000 0.000000
# 3 -0.003551 -0.003551 0.018369 0.000000 0.000000 0.000000
# 4 0.000000 0.000000 0.000000 0.144218 0.000000 0.000000
# 5 0.000000 0.000000 0.000000 0.000000 0.144218 0.000000
# 6 0.000000 0.000000 0.000000 0.000000 0.000000 0.057369
#
#
# Mechanical properties :
#
#
# Convention : Reuss Voigt Hill
#
# Bulk Modulus (GPa) = 48.29837 51.93109 50.11473
# Shear Modulus (GPa) = 11.29562 15.19348 13.24455
#
# Velocity S-wave (km/s) = 2.53303 2.93774 2.74286
# Velocity P-wave (km/s) = 5.99915 6.40354 6.20464
#
# Compressibility (1/GPa) = 0.02070463
#
# Stress axis : x y z
#
# Youngs Moduli (GPa) = 54.12084 54.12084 54.43823
#
# Poissons Ratio (x) = 0.55242 0.19332
# Poissons Ratio (y) = 0.55242 0.19332
# Poissons Ratio (z) = 0.19219 0.19219
#
# Static dielectric constant tensor:
#      x y z
#    x 1.622480 0.000000 0.000000 
#    y 0.000000 1.622480 0.000000 
#    z 0.000000 0.000000 1.619760 
# 
# From -- ./inp_files/3730.got.cif
#   From: 2010.05.17/outbox.cif.g08.bks.cpg/sg182_2_cif.got.tgz:3730.got - 2010.05.20 11:58:53.
