data_PCOD9584031
_publ_section_title
;
Structure prediction by ZEFSAII (Michael W. Deem and Ramdas Pophale) SiO2 
 PCOD9584031
Probable space group: P 62 2 2
;
_chemical_formula_sum "Si O2"
_cell_formula_units_Z 51
_cell_length_a 13.653899
_cell_length_b 13.653899
_cell_length_c 14.583036
_cell_angle_alpha 90.000000
_cell_angle_beta 90.000000
_cell_angle_gamma 120.000000
_cell_volume 2354.463442
_symmetry_space_group_name_H-M "P 62 2 2"
_symmetry_group_IT_number 180
_symmetry_cell_setting 'hexagonal'
loop_
_space_group_symop_operation_xyz
x,y,z
x-y,x,1/3+z
-y,x-y,2/3+z
-x,-y,z
-x+y,-x,1/3+z
y,-x+y,2/3+z
x-y,-y,-z
-x,-x+y,1/3-z
y,x,2/3-z
-y,-x,2/3-z
-x+y,y,-z
x,x-y,1/3-z
loop_
_atom_site_type_symbol
_atom_site_label
_atom_site_fract_x
_atom_site_fract_y
_atom_site_fract_z
Si Si1 0.851672 0.148329 0.333334
Si Si2 0.698296 0.301705 0.833334
Si Si3 0.101401 0.187232 0.600018
Si Si4 0.125881 0.703745 0.689850
Si Si5 0.801771 0.260919 0.162733
Si Si6 0.500000 0.500000 0.833334
O O1 0.845041 0.215613 0.245428
O O2 0.980442 0.196460 0.364578
O O3 0.789378 0.315212 0.755728
O O4 0.732476 0.426650 0.869649
O O5 0.068179 0.136358 0.500000
O O6 0.110239 0.308986 0.596453
O O7 0.000000 0.111922 0.666667
O O8 0.181797 0.753076 0.591748
O O9 0.000000 0.602662 0.666667
O O10 0.906449 0.379222 0.124665
#
# Coordination Sequence:
#
# PCOD9584031 Si02
#       6
#     6   6  12  12  12   3
#     4  12  25  44  68 112 141 192 244 298 380 450
#     4  11  26  45  72 102 143 192 251 302 364 446
#     4  11  24  44  74 106 146 192 245 306 375 448
#     4  11  24  48  72 104 143 190 246 304 369 436
#     4  11  26  43  71 102 144 191 243 297 378 435
#     4  10  24  48  64  96 146 190 222 304 354 452
#
# _framework density 21.660985
#
# number of rings (size 3 to 8) (size 9 to 14) (size 15 to 20)
#    0.000    0.941    1.176    5.294    6.588    5.647 
#    0.000    0.000    0.000    0.000    0.000    0.000 
#    0.000    0.000    0.000    0.000    0.000    0.000 
#
# Total GULP energy -284726.727665 kJ/mol
# GULP energy per Si atom -5582.877013 kJ/mol
# Density = 2.161168 g / cm^3
# Si number density = 21.660985 Si / 1000 Ang^3
#
#
#
# Elastic Constant Matrix: (Units=GPa)
#
#
# Indices 1 2 3 4 5 6 
#
# 1 122.9320 78.6377 63.9362 0.0000 0.0000 0.0000
# 2 78.6377 122.9320 63.9362 0.0000 0.0000 0.0000
# 3 63.9362 63.9362 155.8011 0.0000 0.0000 0.0000
# 4 0.0000 0.0000 0.0000 30.0124 0.0000 0.0000
# 5 0.0000 0.0000 0.0000 0.0000 30.0124 0.0000
# 6 0.0000 0.0000 0.0000 0.0000 0.0000 22.1472
#
#
#
# Elastic Compliance Matrix: (Units=1/GPa)
#
#
# Indices 1 2 3 4 5 6 
#
# 1 0.014642 -0.007935 -0.002752 0.000000 0.000000 0.000000
# 2 -0.007935 0.014642 -0.002752 0.000000 0.000000 0.000000
# 3 -0.002752 -0.002752 0.008677 0.000000 0.000000 0.000000
# 4 0.000000 0.000000 0.000000 0.033320 0.000000 0.000000
# 5 0.000000 0.000000 0.000000 0.000000 0.033320 0.000000
# 6 0.000000 0.000000 0.000000 0.000000 0.000000 0.045153
#
#
# Mechanical properties :
#
#
# Convention : Reuss Voigt Hill
#
# Bulk Modulus (GPa) = 90.23565 90.52057 90.37811
# Shear Modulus (GPa) = 27.72767 29.44473 28.58620
#
# Velocity S-wave (km/s) = 3.58169 3.69093 3.63672
# Velocity P-wave (km/s) = 7.67159 7.74883 7.71031
#
# Compressibility (1/GPa) = 0.01108209
#
# Stress axis : x y z
#
# Youngs Moduli (GPa) = 68.29808 68.29808 115.24116
#
# Poissons Ratio (x) = 0.54191 0.31719
# Poissons Ratio (y) = 0.54191 0.31719
# Poissons Ratio (z) = 0.18798 0.18798
#
# Static dielectric constant tensor:
#      x y z
#    x 1.804310 0.000000 0.000000 
#    y 0.000000 1.804310 0.000000 
#    z 0.000000 0.000000 1.580580 
# 
# From -- ./inp_files/6047.got.cif
#   From: 2010.05.17/outbox.cif.g08.bks.cpg/sg180_4_cif.got.tgz:6047.got - 2010.05.20 11:43:55.
