data_PCOD9584937
_publ_section_title
;
Structure prediction by ZEFSAII (Michael W. Deem and Ramdas Pophale) SiO2 
 PCOD9584937
Probable space group: P 6 M M
;
_chemical_formula_sum "Si O2"
_cell_formula_units_Z 72
_cell_length_a 23.790971
_cell_length_b 23.790971
_cell_length_c 7.493384
_cell_angle_alpha 90.000000
_cell_angle_beta 90.000000
_cell_angle_gamma 120.000000
_cell_volume 3673.101721
_symmetry_space_group_name_H-M "P 6 M M"
_symmetry_group_IT_number 183
_symmetry_cell_setting 'hexagonal'
loop_
_space_group_symop_operation_xyz
x,y,z
x-y,x,z
-y,x-y,z
-x,-y,z
-x+y,-x,z
y,-x+y,z
-x+y,y,z
x,x-y,z
-y,-x,z
y,x,z
x-y,-y,z
-x,-x+y,z
loop_
_atom_site_type_symbol
_atom_site_label
_atom_site_fract_x
_atom_site_fract_y
_atom_site_fract_z
Si Si1 0.791963 0.457723 0.337180
Si Si2 0.072045 0.270306 0.842940
Si Si3 0.191092 0.261952 0.421896
Si Si4 0.333705 0.797682 0.900658
Si Si5 0.075533 0.672550 0.916153
Si Si6 0.595755 0.732725 0.282411
O O1 0.718577 0.437154 0.385305
O O2 0.809990 0.404995 0.397515
O O3 0.795828 0.461496 0.119452
O O4 0.838515 0.531090 0.397939
O O5 0.133690 0.267380 0.919778
O O6 0.067950 0.253285 0.634255
O O7 0.000000 0.223859 0.920952
O O8 0.084081 0.343233 0.849555
O O9 0.121395 0.242789 0.346590
O O10 0.221932 0.221932 0.344545
O O11 0.237852 0.337747 0.386806
O O12 0.396400 0.792799 0.842561
O O13 0.265390 0.734611 0.845491
O O14 0.339104 0.866401 0.850501
O O15 0.090845 0.687236 0.126872
O O16 0.000000 0.617974 0.885000
O O17 0.591405 0.795703 0.211274
#
# Coordination Sequence:
#
# PCOD9584937 Si02
#       6
#    12  12  12  12  12  12
#     4   8  13  21  35  56  81 108 137 170 207 244
#     4   9  17  29  45  64  85 110 138 166 199 241
#     4   9  17  29  45  63  83 108 137 167 199 240
#     4   9  16  26  40  58  81 109 141 175 210 248
#     4  10  18  27  42  64  89 112 134 168 211 251
#     4   9  16  26  41  62  86 109 136 171 206 241
#
# _framework density 19.601960999999999
#
# number of rings (size 3 to 8) (size 9 to 14) (size 15 to 20)
#    0.000    3.000    0.000    3.333    0.000    1.667 
#    0.000    0.000    0.000    2.833    0.000    4.667 
#    0.000    2.667    0.000    5.333    0.000    7.333 
#
# Total GULP energy -401095.653215 kJ/mol
# GULP energy per Si atom -5570.772961 kJ/mol
# Density = 1.955735 g / cm^3
# Si number density = 19.601961 Si / 1000 Ang^3
#
#
#
# Elastic Constant Matrix: (Units=GPa)
#
#
# Indices 1 2 3 4 5 6 
#
# 1 160.3012 110.5524 3.3516 0.0000 0.0000 0.0000
# 2 110.5524 160.3012 3.3516 0.0000 0.0000 0.0000
# 3 3.3516 3.3516 33.9211 0.0000 0.0000 0.0000
# 4 0.0000 0.0000 0.0000 13.0820 0.0000 0.0000
# 5 0.0000 0.0000 0.0000 0.0000 13.0820 0.0000
# 6 0.0000 0.0000 0.0000 0.0000 0.0000 24.8744
#
#
#
# Elastic Compliance Matrix: (Units=1/GPa)
#
#
# Indices 1 2 3 4 5 6 
#
# 1 0.011901 -0.008200 -0.000366 0.000000 0.000000 0.000000
# 2 -0.008200 0.011901 -0.000366 0.000000 0.000000 0.000000
# 3 -0.000366 -0.000366 0.029552 0.000000 0.000000 0.000000
# 4 0.000000 0.000000 0.000000 0.076441 0.000000 0.000000
# 5 0.000000 0.000000 0.000000 0.000000 0.076441 0.000000
# 6 0.000000 0.000000 0.000000 0.000000 0.000000 0.040202
#
#
# Mechanical properties :
#
#
# Convention : Reuss Voigt Hill
#
# Bulk Modulus (GPa) = 28.17546 65.44831 46.81188
# Shear Modulus (GPa) = 18.10730 26.02553 22.06642
#
# Velocity S-wave (km/s) = 3.04262 3.64772 3.35882
# Velocity P-wave (km/s) = 5.17189 7.15557 6.24302
#
# Compressibility (1/GPa) = 0.03549188
#
# Stress axis : x y z
#
# Youngs Moduli (GPa) = 84.02626 84.02626 33.83812
#
# Poissons Ratio (x) = 0.68901 0.01237
# Poissons Ratio (y) = 0.68901 0.01237
# Poissons Ratio (z) = 0.03073 0.03073
#
# Static dielectric constant tensor:
#      x y z
#    x 1.647790 0.000000 0.000000 
#    y 0.000000 1.647790 0.000000 
#    z 0.000000 0.000000 1.757450 
# 
# From -- ./inp_files/1146.got.cif
#   From: 2010.05.17/outbox.cif.g08.bks.cpg/sg183_1_cif.got.tgz:1146.got - 2010.05.20 12:02:58.
