data_PCOD9584361
_publ_section_title
;
Structure prediction by ZEFSAII (Michael W. Deem and Ramdas Pophale) SiO2 
 PCOD9584361
Probable space group: P 64 2 2
;
_chemical_formula_sum "Si O2"
_cell_formula_units_Z 42
_cell_length_a 22.489973
_cell_length_b 22.489973
_cell_length_c 5.055714
_cell_angle_alpha 90.000000
_cell_angle_beta 90.000000
_cell_angle_gamma 120.000000
_cell_volume 2214.578085
_symmetry_space_group_name_H-M "P 64 2 2"
_symmetry_group_IT_number 181
_symmetry_cell_setting 'hexagonal'
loop_
_space_group_symop_operation_xyz
x,y,z
x-y,x,2/3+z
-y,x-y,1/3+z
-x,-y,z
-x+y,-x,2/3+z
y,-x+y,1/3+z
x-y,-y,-z
-x,-x+y,2/3-z
y,x,1/3-z
-y,-x,1/3-z
-x+y,y,-z
x,x-y,2/3-z
loop_
_atom_site_type_symbol
_atom_site_label
_atom_site_fract_x
_atom_site_fract_y
_atom_site_fract_z
Si Si1 0.230753 0.115376 0.333334
Si Si2 0.602441 0.684636 0.637451
Si Si3 0.607927 0.525488 0.198022
Si Si4 0.679762 0.839881 0.833334
Si Si5 0.119397 0.000000 0.000000
O O1 0.275139 0.115846 0.582591
O O2 0.180712 0.041780 0.204200
O O3 0.656800 0.656800 0.666667
O O4 0.565751 0.666831 0.353032
O O5 0.637389 0.763579 0.717718
O O6 0.543178 0.640208 0.847269
O O7 0.562339 0.562339 0.166667
O O8 0.555231 0.444770 0.166667
O O9 0.053249 0.946752 0.166667
#
# Coordination Sequence:
#
# PCOD9584361 Si02
#       5
#     6  12  12   6   6
#     4  12  28  45  62  84 110 158 204 276 344 424
#     4  10  21  35  56  85 120 164 200 247 298 359
#     4   9  17  33  57  87 118 148 188 231 288 349
#     4  12  26  42  62  85 130 166 214 252 318 404
#     4  12  28  47  66  88 104 140 213 304 376 424
#
# _framework density 18.965236999999998
#
# number of rings (size 3 to 8) (size 9 to 14) (size 15 to 20)
#    0.000    1.429    1.429    3.429    2.000    6.286 
#    0.000    0.000    0.000    0.000    0.000    0.000 
#   21.429    0.000    0.000    0.000    0.000    0.000 
#
# Total GULP energy -234607.542795 kJ/mol
# GULP energy per Si atom -5585.893876 kJ/mol
# Density = 1.892207 g / cm^3
# Si number density = 18.965237 Si / 1000 Ang^3
#
#
#
# Elastic Constant Matrix: (Units=GPa)
#
#
# Indices 1 2 3 4 5 6 
#
# 1 36.2935 82.3687 13.4422 0.0000 0.0000 0.0000
# 2 82.3687 36.2935 13.4422 0.0000 0.0000 0.0000
# 3 13.4422 13.4422 71.6592 0.0000 0.0000 0.0000
# 4 0.0000 0.0000 0.0000 -12.1236 0.0000 0.0000
# 5 0.0000 0.0000 0.0000 0.0000 -12.1236 0.0000
# 6 0.0000 0.0000 0.0000 0.0000 0.0000 -23.0376
#
#
#
# Elastic Compliance Matrix: (Units=1/GPa)
#
#
# Indices 1 2 3 4 5 6 
#
# 1 -0.006451 0.015252 -0.001651 0.000000 0.000000 0.000000
# 2 0.015252 -0.006451 -0.001651 0.000000 0.000000 0.000000
# 3 -0.001651 -0.001651 0.014574 0.000000 0.000000 0.000000
# 4 0.000000 0.000000 0.000000 -0.082484 0.000000 0.000000
# 5 0.000000 0.000000 0.000000 0.000000 -0.082484 0.000000
# 6 0.000000 0.000000 0.000000 0.000000 0.000000 -0.043407
#
#
# Mechanical properties :
#
#
# Convention : Reuss Voigt Hill
#
# Bulk Modulus (GPa) = 39.10371 40.30582 39.70476
# Shear Modulus (GPa) = -22.51442 -7.12408 -14.81925
#
# Velocity S-wave (km/s) = -3.44923 -1.94024 -2.79837
# Velocity P-wave (km/s) = 2.19100 4.03475 3.24651
#
# Compressibility (1/GPa) = 0.02557302
#
# Stress axis : x y z
#
# Youngs Moduli (GPa) = -155.01116 -155.01116 68.61370
#
# Poissons Ratio (x) = 2.36431 0.11328
# Poissons Ratio (y) = 2.36431 0.11328
# Poissons Ratio (z) = -0.25592 -0.25592
#
# Static dielectric constant tensor:
#      x y z
#    x 1.677570 0.000000 0.000000 
#    y 0.000000 1.677570 0.000000 
#    z 0.000000 0.000000 1.750090 
# 
# From -- ./inp_files/859.got.cif
#   From: 2010.05.17/outbox.cif.g08.bks.cpg/sg181_1_cif.got.tgz:859.got - 2010.05.20 11:51:17.
