data_PCOD9584863
_publ_section_title
;
Structure prediction by ZEFSAII (Michael W. Deem and Ramdas Pophale) SiO2 
 PCOD9584863
Probable space group: P 63 2 2
;
_chemical_formula_sum "Si O2"
_cell_formula_units_Z 36
_cell_length_a 20.654773
_cell_length_b 20.654773
_cell_length_c 4.972120
_cell_angle_alpha 90.000000
_cell_angle_beta 90.000000
_cell_angle_gamma 120.000000
_cell_volume 1837.016622
_symmetry_space_group_name_H-M "P 63 2 2"
_symmetry_group_IT_number 182
_symmetry_cell_setting 'hexagonal'
loop_
_space_group_symop_operation_xyz
x,y,z
x-y,x,1/2+z
-y,x-y,z
-x,-y,1/2+z
-x+y,-x,z
y,-x+y,1/2+z
x-y,-y,-z
-x,-x+y,-z
y,x,-z
-y,-x,1/2-z
-x+y,y,1/2-z
x,x-y,1/2-z
loop_
_atom_site_type_symbol
_atom_site_label
_atom_site_fract_x
_atom_site_fract_y
_atom_site_fract_z
Si Si1 0.562214 0.707616 0.153845
Si Si2 0.945986 0.739156 0.747494
Si Si3 0.081148 0.611122 0.879991
O O1 0.547179 0.773590 0.250000
O O2 0.649596 0.741187 0.224376
O O3 0.553961 0.675379 0.850150
O O4 0.510385 0.640145 0.351694
O O5 0.877487 0.754973 0.750000
O O6 0.000000 0.777680 0.500000
O O7 0.000000 0.769669 0.000000
O O8 0.072640 0.536320 0.750000
O O9 0.000000 0.590553 0.000000
#
# Coordination Sequence:
#
# PCOD9584863 Si02
#       3
#    12  12  12
#     4  11  23  39  61  88 121 158 197 245 301 362
#     4  11  22  37  59  85 114 148 186 233 285 340
#     4  12  23  38  61  91 123 156 197 250 307 362
#
# _framework density 19.596993999999999
#
# number of rings (size 3 to 8) (size 9 to 14) (size 15 to 20)
#    0.000    0.667    0.000   11.000    0.000    5.333 
#    0.000    0.000    0.000   20.000    0.000    0.000 
#    0.000    0.000    0.000    0.000    0.000    0.000 
#
# Total GULP energy -200815.396572 kJ/mol
# GULP energy per Si atom -5578.205460 kJ/mol
# Density = 1.955239 g / cm^3
# Si number density = 19.596994 Si / 1000 Ang^3
#
#
#
# Elastic Constant Matrix: (Units=GPa)
#
#
# Indices 1 2 3 4 5 6 
#
# 1 78.9070 45.9858 32.8919 0.0000 0.0000 0.0000
# 2 45.9858 78.9070 32.8919 0.0000 0.0000 0.0000
# 3 32.8919 32.8919 149.6560 0.0000 0.0000 0.0000
# 4 0.0000 0.0000 0.0000 80.5191 0.0000 0.0000
# 5 0.0000 0.0000 0.0000 0.0000 80.5191 0.0000
# 6 0.0000 0.0000 0.0000 0.0000 0.0000 16.4606
#
#
#
# Elastic Compliance Matrix: (Units=1/GPa)
#
#
# Indices 1 2 3 4 5 6 
#
# 1 0.019715 -0.010660 -0.001990 0.000000 0.000000 0.000000
# 2 -0.010660 0.019715 -0.001990 0.000000 0.000000 0.000000
# 3 -0.001990 -0.001990 0.007557 0.000000 0.000000 0.000000
# 4 0.000000 0.000000 0.000000 0.012419 0.000000 0.000000
# 5 0.000000 0.000000 0.000000 0.000000 0.012419 0.000000
# 6 0.000000 0.000000 0.000000 0.000000 0.000000 0.060751
#
#
# Mechanical properties :
#
#
# Convention : Reuss Voigt Hill
#
# Bulk Modulus (GPa) = 56.47675 59.00100 57.73888
# Shear Modulus (GPa) = 29.80436 48.54645 39.17540
#
# Velocity S-wave (km/s) = 3.90406 4.98259 4.47593
# Velocity P-wave (km/s) = 7.01455 7.95450 7.49927
#
# Compressibility (1/GPa) = 0.01770640
#
# Stress axis : x y z
#
# Youngs Moduli (GPa) = 50.72190 50.72190 132.33116
#
# Poissons Ratio (x) = 0.54071 0.26336
# Poissons Ratio (y) = 0.54071 0.26336
# Poissons Ratio (z) = 0.10094 0.10094
#
# Static dielectric constant tensor:
#      x y z
#    x 1.696200 0.000000 0.000000 
#    y 0.000000 1.696200 0.000000 
#    z 0.000000 0.000000 1.690280 
# 
# From -- ./inp_files/283.got.cif
#   From: 2010.05.17/outbox.cif.g08.bks.cpg/sg182_1_cif.got.tgz:283.got - 2010.05.20 11:58:53.
