data_PCOD9584765
_publ_section_title
;
Structure prediction by ZEFSAII (Michael W. Deem and Ramdas Pophale) SiO2 
 PCOD9584765
Probable space group: P 63 2 2
;
_chemical_formula_sum "Si O2"
_cell_formula_units_Z 58
_cell_length_a 15.487090
_cell_length_b 15.487090
_cell_length_c 13.549956
_cell_angle_alpha 90.000000
_cell_angle_beta 90.000000
_cell_angle_gamma 120.000000
_cell_volume 2814.544768
_symmetry_space_group_name_H-M "P 63 2 2"
_symmetry_group_IT_number 182
_symmetry_cell_setting 'hexagonal'
loop_
_space_group_symop_operation_xyz
x,y,z
x-y,x,1/2+z
-y,x-y,z
-x,-y,1/2+z
-x+y,-x,z
y,-x+y,1/2+z
x-y,-y,-z
-x,-x+y,-z
y,x,-z
-y,-x,1/2-z
-x+y,y,1/2-z
x,x-y,1/2-z
loop_
_atom_site_type_symbol
_atom_site_label
_atom_site_fract_x
_atom_site_fract_y
_atom_site_fract_z
Si Si1 0.666668 0.333334 0.870681
Si Si2 0.660051 0.505707 0.506914
Si Si3 0.949124 0.684306 0.631655
Si Si4 0.165725 0.823060 0.867060
Si Si5 0.753662 0.692533 0.634404
Si Si6 0.000000 0.445351 0.000000
O O1 0.666668 0.333334 0.750000
O O2 0.570284 0.330242 0.919871
O O3 0.749097 0.557416 0.427192
O O4 0.674682 0.595712 0.576888
O O5 0.550094 0.459860 0.460631
O O6 0.860760 0.706406 0.605112
O O7 0.937790 0.672330 0.749320
O O8 0.947265 0.590182 0.580291
O O9 0.060768 0.770943 0.606767
O O10 0.182257 0.817744 0.750000
O O11 0.048889 0.782658 0.885946
#
# Coordination Sequence:
#
# PCOD9584765 Si02
#       6
#     4  12  12  12  12   6
#     4  12  30  42  67  98 130 162 222 291 331 389
#     4  12  24  44  62  95 132 173 223 277 331 393
#     4  10  22  38  65  96 128 175 224 271 328 402
#     4  10  21  43  66  97 135 177 218 268 334 403
#     4  10  21  40  66  94 133 170 219 273 330 392
#     4  12  24  40  66  90 128 180 220 266 336 392
#
# _framework density 20.607239
#
# number of rings (size 3 to 8) (size 9 to 14) (size 15 to 20)
#    0.000    1.241    2.069    3.724    5.793    0.000 
#    1.241    3.103    0.000    0.000    0.000    0.000 
#    0.000    0.000    0.000    0.000    0.000    0.000 
#
# Total GULP energy -323889.839845 kJ/mol
# GULP energy per Si atom -5584.307584 kJ/mol
# Density = 2.056034 g / cm^3
# Si number density = 20.607239 Si / 1000 Ang^3
#
#
#
# Elastic Constant Matrix: (Units=GPa)
#
#
# Indices 1 2 3 4 5 6 
#
# 1 145.8787 69.3497 57.9676 0.0001 0.0000 0.0000
# 2 69.3497 145.8790 57.9676 0.0001 0.0001 0.0001
# 3 57.9676 57.9676 105.2574 0.0000 -0.0001 0.0001
# 4 0.0001 0.0001 0.0000 36.6430 0.0000 0.0000
# 5 0.0000 0.0001 -0.0001 0.0000 36.6430 0.0000
# 6 0.0000 0.0001 0.0001 0.0000 0.0000 38.2646
#
#
#
# Elastic Compliance Matrix: (Units=1/GPa)
#
#
# Indices 1 2 3 4 5 6 
#
# 1 0.009836 -0.003231 -0.003638 0.000000 0.000000 0.000000
# 2 -0.003231 0.009836 -0.003638 0.000000 0.000000 0.000000
# 3 -0.003638 -0.003638 0.013508 0.000000 0.000000 0.000000
# 4 0.000000 0.000000 0.000000 0.027290 0.000000 0.000000
# 5 0.000000 0.000000 0.000000 0.000000 0.027290 0.000000
# 6 0.000000 0.000000 0.000000 0.000000 0.000000 0.026134
#
#
# Mechanical properties :
#
#
# Convention : Reuss Voigt Hill
#
# Bulk Modulus (GPa) = 82.18739 85.28721 83.73730
# Shear Modulus (GPa) = 35.98065 36.42549 36.20307
#
# Velocity S-wave (km/s) = 4.18307 4.20885 4.19598
# Velocity P-wave (km/s) = 7.95614 8.06822 8.01237
#
# Compressibility (1/GPa) = 0.01216732
#
# Stress axis : x y z
#
# Youngs Moduli (GPa) = 101.66319 101.66346 74.03257
#
# Poissons Ratio (x) = 0.32843 0.26933
# Poissons Ratio (y) = 0.32842 0.26933
# Poissons Ratio (z) = 0.36985 0.36985
#
# Static dielectric constant tensor:
#      x y z
#    x 1.753090 0.000000 0.000000 
#    y 0.000000 1.753090 0.000000 
#    z 0.000000 0.000000 1.778470 
# 
# From -- ./inp_files/3475.got.cif
#   From: 2010.05.17/outbox.cif.g08.bks.cpg/sg182_2_cif.got.tgz:3475.got - 2010.05.20 11:58:53.
