data_PCOD9584252
_publ_section_title
;
Structure prediction by ZEFSAII (Michael W. Deem and Ramdas Pophale) SiO2 
 PCOD9584252
Probable space group: P 64 2 2
;
_chemical_formula_sum "Si O2"
_cell_formula_units_Z 60
_cell_length_a 29.215253
_cell_length_b 29.215253
_cell_length_c 5.109714
_cell_angle_alpha 90.000000
_cell_angle_beta 90.000000
_cell_angle_gamma 120.000000
_cell_volume 3776.996022
_symmetry_space_group_name_H-M "P 64 2 2"
_symmetry_group_IT_number 181
_symmetry_cell_setting 'hexagonal'
loop_
_space_group_symop_operation_xyz
x,y,z
x-y,x,2/3+z
-y,x-y,1/3+z
-x,-y,z
-x+y,-x,2/3+z
y,-x+y,1/3+z
x-y,-y,-z
-x,-x+y,2/3-z
y,x,1/3-z
-y,-x,1/3-z
-x+y,y,-z
x,x-y,2/3-z
loop_
_atom_site_type_symbol
_atom_site_label
_atom_site_fract_x
_atom_site_fract_y
_atom_site_fract_z
Si Si1 0.599289 0.563729 0.928175
Si Si2 0.541981 0.147749 0.248650
Si Si3 0.328642 0.292877 0.411757
Si Si4 0.788581 0.273676 0.411528
Si Si5 0.786217 0.150896 0.921714
O O1 0.576921 0.576921 0.666667
O O2 0.599884 0.509689 0.937554
O O3 0.659395 0.611575 0.972559
O O4 0.565096 0.565096 0.166667
O O5 0.580104 0.160208 0.500000
O O6 0.521309 0.187739 0.170262
O O7 0.573048 0.146095 0.000000
O O8 0.308993 0.308993 0.666667
O O9 0.331809 0.241506 0.495477
O O10 0.294112 0.294112 0.166667
O O11 0.759675 0.240326 0.666667
O O12 0.834416 0.259418 0.341219
O O13 0.748079 0.251922 0.166667
O O14 0.816395 0.183606 0.666667
O O15 0.826934 0.173067 0.166667
#
# Coordination Sequence:
#
# PCOD9584252 Si02
#       5
#    12  12  12  12  12
#     4  10  21  35  50  71 106 140 164 189 230 293
#     4  12  24  37  56  79 101 125 163 196 236 301
#     4  10  19  32  50  72 105 139 166 202 256 306
#     4  10  21  38  57  74  96 120 152 200 254 294
#     4  10  19  32  53  76  97 127 173 214 246 290
#
# _framework density 15.885641
#
# number of rings (size 3 to 8) (size 9 to 14) (size 15 to 20)
#    0.000    1.600    2.000    3.600    0.000    2.400 
#    0.000    0.000    0.000    6.000    0.000    0.000 
#    0.000    0.000    0.000    0.000    0.000    0.000 
#
# Total GULP energy -334529.286908 kJ/mol
# GULP energy per Si atom -5575.488115 kJ/mol
# Density = 1.584948 g / cm^3
# Si number density = 15.885641 Si / 1000 Ang^3
#
#
#
# Elastic Constant Matrix: (Units=GPa)
#
#
# Indices 1 2 3 4 5 6 
#
# 1 101.8914 30.5921 36.9179 0.0000 0.0000 0.0000
# 2 30.5921 101.8914 36.9179 0.0000 0.0000 0.0000
# 3 36.9179 36.9179 121.7163 0.0000 0.0000 0.0000
# 4 0.0000 0.0000 0.0000 30.4213 0.0000 0.0000
# 5 0.0000 0.0000 0.0000 0.0000 30.4213 0.0000
# 6 0.0000 0.0000 0.0000 0.0000 0.0000 35.6497
#
#
#
# Elastic Compliance Matrix: (Units=1/GPa)
#
#
# Indices 1 2 3 4 5 6 
#
# 1 0.011555 -0.002471 -0.002755 0.000000 0.000000 0.000000
# 2 -0.002471 0.011555 -0.002755 0.000000 0.000000 0.000000
# 3 -0.002755 -0.002755 0.009887 0.000000 0.000000 0.000000
# 4 0.000000 0.000000 0.000000 0.032872 0.000000 0.000000
# 5 0.000000 0.000000 0.000000 0.000000 0.032872 0.000000
# 6 0.000000 0.000000 0.000000 0.000000 0.000000 0.028051
#
#
# Mechanical properties :
#
#
# Convention : Reuss Voigt Hill
#
# Bulk Modulus (GPa) = 58.70697 59.37279 59.03988
# Shear Modulus (GPa) = 33.68574 34.03651 33.86113
#
# Velocity S-wave (km/s) = 4.60990 4.63384 4.62189
# Velocity P-wave (km/s) = 8.08524 8.12934 8.10732
#
# Compressibility (1/GPa) = 0.01703375
#
# Stress axis : x y z
#
# Youngs Moduli (GPa) = 86.54636 86.54636 101.14114
#
# Poissons Ratio (x) = 0.21385 0.27866
# Poissons Ratio (y) = 0.21385 0.27866
# Poissons Ratio (z) = 0.23845 0.23845
#
# Static dielectric constant tensor:
#      x y z
#    x 1.471270 0.000000 0.000000 
#    y 0.000000 1.471270 0.000000 
#    z 0.000000 0.000000 1.535530 
# 
# From -- ./inp_files/1452.got.cif
#   From: 2010.05.17/outbox.cif.g08.bks.cpg/sg181_1_cif.got.tgz:1452.got - 2010.05.20 11:51:17.
