data_PCOD9584587
_publ_section_title
;
Structure prediction by ZEFSAII (Michael W. Deem and Ramdas Pophale) SiO2 
 PCOD9584587
Probable space group: P 64 2 2
;
_chemical_formula_sum "Si O2"
_cell_formula_units_Z 60
_cell_length_a 21.065684
_cell_length_b 21.065684
_cell_length_c 7.466133
_cell_angle_alpha 90.000000
_cell_angle_beta 90.000000
_cell_angle_gamma 120.000000
_cell_volume 2869.310081
_symmetry_space_group_name_H-M "P 64 2 2"
_symmetry_group_IT_number 181
_symmetry_cell_setting 'hexagonal'
loop_
_space_group_symop_operation_xyz
x,y,z
x-y,x,2/3+z
-y,x-y,1/3+z
-x,-y,z
-x+y,-x,2/3+z
y,-x+y,1/3+z
x-y,-y,-z
-x,-x+y,2/3-z
y,x,1/3-z
-y,-x,1/3-z
-x+y,y,-z
x,x-y,2/3-z
loop_
_atom_site_type_symbol
_atom_site_label
_atom_site_fract_x
_atom_site_fract_y
_atom_site_fract_z
Si Si1 0.299851 0.350937 0.889146
Si Si2 0.364022 0.728044 0.000000
Si Si3 0.087390 0.000000 0.000000
Si Si4 0.264846 0.473043 0.797014
Si Si5 0.635436 0.898333 0.637862
Si Si6 0.247607 0.108092 0.123671
O O1 0.304321 0.423889 0.806459
O O2 0.227114 0.288864 0.791959
O O3 0.285116 0.360101 0.098874
O O4 0.358518 0.322335 0.902942
O O5 0.322797 0.677204 0.166667
O O6 0.449617 0.772124 0.047908
O O7 0.034444 0.965556 0.166667
O O8 0.164839 0.064612 0.067365
O O9 0.186047 0.430901 0.692372
O O10 0.240582 0.481164 0.000000
O O11 0.708211 0.891434 0.653741
O O12 0.251429 0.125715 0.333334
#
# Coordination Sequence:
#
# PCOD9584587 Si02
#       6
#    12   6   6  12  12  12
#     4   8  14  29  58  92 124 156 197 261 315 373
#     4  12  24  42  66  91 124 174 218 278 322 393
#     4  12  26  40  53  72 104 155 216 264 312 378
#     4   9  18  34  59  95 124 165 224 264 322 391
#     4   8  14  29  59  92 123 159 203 255 321 378
#     4   9  18  35  57  82 113 152 200 251 310 381
#
# _framework density 20.91095
#
# number of rings (size 3 to 8) (size 9 to 14) (size 15 to 20)
#    0.000    2.800    1.000    3.600    0.000    2.400 
#    0.000   10.500    0.000    2.400    0.000    0.000 
#    0.000    0.000    0.000    0.000    0.000    1.200 
#
# Total GULP energy -334655.053574 kJ/mol
# GULP energy per Si atom -5577.584226 kJ/mol
# Density = 2.086336 g / cm^3
# Si number density = 20.910950 Si / 1000 Ang^3
#
#
#
# Elastic Constant Matrix: (Units=GPa)
#
#
# Indices 1 2 3 4 5 6 
#
# 1 271.7339 -18.9264 54.6327 0.0000 0.0000 0.0000
# 2 -18.9264 271.7339 54.6327 0.0000 0.0000 0.0000
# 3 54.6327 54.6327 87.7373 0.0000 0.0000 0.0000
# 4 0.0000 0.0000 0.0000 28.7441 0.0000 0.0000
# 5 0.0000 0.0000 0.0000 0.0000 28.7441 0.0000
# 6 0.0000 0.0000 0.0000 0.0000 0.0000 145.3301
#
#
#
# Elastic Compliance Matrix: (Units=1/GPa)
#
#
# Indices 1 2 3 4 5 6 
#
# 1 0.004426 0.000986 -0.003370 0.000000 0.000000 0.000000
# 2 0.000986 0.004426 -0.003370 0.000000 0.000000 0.000000
# 3 -0.003370 -0.003370 0.015595 0.000000 0.000000 0.000000
# 4 0.000000 0.000000 0.000000 0.034790 0.000000 0.000000
# 5 0.000000 0.000000 0.000000 0.000000 0.034790 0.000000
# 6 0.000000 0.000000 0.000000 0.000000 0.000000 0.006881
#
#
# Mechanical properties :
#
#
# Convention : Reuss Voigt Hill
#
# Bulk Modulus (GPa) = 77.28764 90.20923 83.74844
# Shear Modulus (GPa) = 42.83424 76.62140 59.72782
#
# Velocity S-wave (km/s) = 4.53085 6.05981 5.35023
# Velocity P-wave (km/s) = 8.02571 9.60183 8.84893
#
# Compressibility (1/GPa) = 0.01293868
#
# Stress axis : x y z
#
# Youngs Moduli (GPa) = 225.92260 225.92260 64.12461
#
# Poissons Ratio (x) = -0.22273 0.21610
# Poissons Ratio (y) = -0.22273 0.21610
# Poissons Ratio (z) = 0.76137 0.76137
#
# Static dielectric constant tensor:
#      x y z
#    x 1.751700 0.000000 0.000000 
#    y 0.000000 1.751700 0.000000 
#    z 0.000000 0.000000 1.814690 
# 
# From -- ./inp_files/3093.got.cif
#   From: 2010.05.17/outbox.cif.g08.bks.cpg/sg181_2_cif.got.tgz:3093.got - 2010.05.20 11:51:17.
