data_PCOD9584558
_publ_section_title
;
Structure prediction by ZEFSAII (Michael W. Deem and Ramdas Pophale) SiO2 
 PCOD9584558
Probable space group: P 64 2 2
;
_chemical_formula_sum "Si O2"
_cell_formula_units_Z 48
_cell_length_a 10.702869
_cell_length_b 10.702869
_cell_length_c 23.024651
_cell_angle_alpha 90.000000
_cell_angle_beta 90.000000
_cell_angle_gamma 120.000000
_cell_volume 2284.147301
_symmetry_space_group_name_H-M "P 64 2 2"
_symmetry_group_IT_number 181
_symmetry_cell_setting 'hexagonal'
loop_
_space_group_symop_operation_xyz
x,y,z
x-y,x,2/3+z
-y,x-y,1/3+z
-x,-y,z
-x+y,-x,2/3+z
y,-x+y,1/3+z
x-y,-y,-z
-x,-x+y,2/3-z
y,x,1/3-z
-y,-x,1/3-z
-x+y,y,-z
x,x-y,2/3-z
loop_
_atom_site_type_symbol
_atom_site_label
_atom_site_fract_x
_atom_site_fract_y
_atom_site_fract_z
Si Si1 0.741958 0.996428 0.900572
Si Si2 0.000000 0.000000 0.500000
Si Si3 0.796886 0.285156 0.934539
Si Si4 0.500000 0.000000 0.500000
Si Si5 0.486739 0.787005 0.729241
Si Si6 0.500000 0.500000 0.486654
O O1 0.785955 0.131038 0.942239
O O2 0.632201 0.008721 0.855667
O O3 0.889065 0.023991 0.871758
O O4 0.644728 0.835537 0.924927
O O5 0.632531 0.252004 0.929510
O O6 0.895657 0.372350 0.879092
O O7 0.840817 0.359178 0.997813
O O8 0.444906 0.864865 0.777686
#
# Coordination Sequence:
#
# PCOD9584558 Si02
#       6
#    12   3  12   3  12   6
#     4  12  23  42  70  98 140 180 233 285 354 433
#     4  12  26  42  66 110 140 190 228 288 370 436
#     4  11  24  42  68  97 136 177 236 295 352 423
#     4  12  24  42  64 102 136 178 220 292 372 414
#     4  11  23  42  68 101 130 181 241 291 348 424
#     4  12  21  40  71  99 132 183 234 288 344 432
#
# _framework density 21.014405
#
# number of rings (size 3 to 8) (size 9 to 14) (size 15 to 20)
#    0.000    0.500    5.000    3.750    0.000    2.000 
#    0.000    2.500    0.000    0.000    0.000    0.000 
#    0.000    0.000    0.000    0.000    0.000    0.000 
#
# Total GULP energy -267855.778226 kJ/mol
# GULP energy per Si atom -5580.328713 kJ/mol
# Density = 2.096658 g / cm^3
# Si number density = 21.014405 Si / 1000 Ang^3
#
#
#
# Elastic Constant Matrix: (Units=GPa)
#
#
# Indices 1 2 3 4 5 6 
#
# 1 93.8746 19.1722 26.8515 0.0000 0.0000 0.0000
# 2 19.1722 93.8746 26.8515 0.0000 0.0000 0.0000
# 3 26.8515 26.8515 118.5806 0.0000 0.0000 0.0000
# 4 0.0000 0.0000 0.0000 12.4470 0.0000 0.0000
# 5 0.0000 0.0000 0.0000 0.0000 12.4470 0.0000
# 6 0.0000 0.0000 0.0000 0.0000 0.0000 37.3512
#
#
#
# Elastic Compliance Matrix: (Units=1/GPa)
#
#
# Indices 1 2 3 4 5 6 
#
# 1 0.011649 -0.001737 -0.002245 0.000000 0.000000 0.000000
# 2 -0.001737 0.011649 -0.002245 0.000000 0.000000 0.000000
# 3 -0.002245 -0.002245 0.009450 0.000000 0.000000 0.000000
# 4 0.000000 0.000000 0.000000 0.080340 0.000000 0.000000
# 5 0.000000 0.000000 0.000000 0.000000 0.080340 0.000000
# 6 0.000000 0.000000 0.000000 0.000000 0.000000 0.026773
#
#
# Mechanical properties :
#
#
# Convention : Reuss Voigt Hill
#
# Bulk Modulus (GPa) = 49.27120 50.23111 49.75115
# Shear Modulus (GPa) = 20.88383 28.01268 24.44826
#
# Velocity S-wave (km/s) = 3.15586 3.65502 3.41457
# Velocity P-wave (km/s) = 6.06437 6.46276 6.26673
#
# Compressibility (1/GPa) = 0.02029583
#
# Stress axis : x y z
#
# Youngs Moduli (GPa) = 85.84202 85.84202 105.82478
#
# Poissons Ratio (x) = 0.14912 0.23753
# Poissons Ratio (y) = 0.14912 0.23753
# Poissons Ratio (z) = 0.19267 0.19267
#
# Static dielectric constant tensor:
#      x y z
#    x 1.811750 0.000000 0.000000 
#    y 0.000000 1.811750 0.000000 
#    z 0.000000 0.000000 1.802440 
# 
# From -- ./inp_files/9973.got.cif
#   From: 2010.05.17/outbox.cif.g08.bks.cpg/sg181_5_cif.got.tgz:9973.got - 2010.05.20 11:51:17.
