data_PCOD9584079
_publ_section_title
;
Structure prediction by ZEFSAII (Michael W. Deem and Ramdas Pophale) SiO2 
 PCOD9584079
Probable space group: P 62 2 2
;
_chemical_formula_sum "Si O2"
_cell_formula_units_Z 48
_cell_length_a 18.753088
_cell_length_b 18.753088
_cell_length_c 10.651772
_cell_angle_alpha 90.000000
_cell_angle_beta 90.000000
_cell_angle_gamma 120.000000
_cell_volume 3244.128712
_symmetry_space_group_name_H-M "P 62 2 2"
_symmetry_group_IT_number 180
_symmetry_cell_setting 'hexagonal'
loop_
_space_group_symop_operation_xyz
x,y,z
x-y,x,1/3+z
-y,x-y,2/3+z
-x,-y,z
-x+y,-x,1/3+z
y,-x+y,2/3+z
x-y,-y,-z
-x,-x+y,1/3-z
y,x,2/3-z
-y,-x,2/3-z
-x+y,y,-z
x,x-y,1/3-z
loop_
_atom_site_type_symbol
_atom_site_label
_atom_site_fract_x
_atom_site_fract_y
_atom_site_fract_z
Si Si1 0.785536 0.571072 0.000000
Si Si2 0.578049 0.156097 0.000000
Si Si3 0.484780 0.587225 0.061406
Si Si4 0.405258 0.363404 0.697568
Si Si5 0.742524 0.446840 0.230907
O O1 0.886024 0.614544 0.993478
O O2 0.768785 0.512667 0.119706
O O3 0.566941 0.108009 0.872005
O O4 0.546228 0.218844 0.970590
O O5 0.424395 0.504731 0.980529
O O6 0.582029 0.619932 0.054697
O O7 0.466467 0.652901 0.996967
O O8 0.371193 0.371193 0.833334
O O9 0.716254 0.358127 0.166667
#
# Coordination Sequence:
#
# PCOD9584079 Si02
#       5
#     6   6  12  12  12
#     4  12  21  34  54  71  84 126 181 213 268 313
#     4  12  23  31  48  75 106 140 176 214 266 311
#     4  11  21  34  49  69 101 138 169 219 270 309
#     4  11  21  36  54  68  92 127 172 225 266 305
#     4  12  19  33  48  73 101 133 179 228 263 297
#
# _framework density 14.795961
#
# number of rings (size 3 to 8) (size 9 to 14) (size 15 to 20)
#    0.000    0.500    7.500    4.500    0.000    2.000 
#    0.000    0.000    0.000    0.000    0.000    0.000 
#    0.000    0.000    0.000    0.000    0.000   15.000 
#
# Total GULP energy -267238.197100 kJ/mol
# GULP energy per Si atom -5567.462440 kJ/mol
# Density = 1.476228 g / cm^3
# Si number density = 14.795961 Si / 1000 Ang^3
#
#
#
# Elastic Constant Matrix: (Units=GPa)
#
#
# Indices 1 2 3 4 5 6 
#
# 1 60.3484 12.3798 20.6467 0.0000 0.0000 0.0000
# 2 12.3798 60.3484 20.6467 0.0000 0.0000 0.0000
# 3 20.6467 20.6467 76.8559 0.0000 0.0000 0.0000
# 4 0.0000 0.0000 0.0000 12.7953 0.0000 0.0000
# 5 0.0000 0.0000 0.0000 0.0000 12.7953 0.0000
# 6 0.0000 0.0000 0.0000 0.0000 0.0000 23.9843
#
#
#
# Elastic Compliance Matrix: (Units=1/GPa)
#
#
# Indices 1 2 3 4 5 6 
#
# 1 0.018536 -0.002311 -0.004359 0.000000 0.000000 0.000000
# 2 -0.002311 0.018536 -0.004359 0.000000 0.000000 0.000000
# 3 -0.004359 -0.004359 0.015353 0.000000 0.000000 0.000000
# 4 0.000000 0.000000 0.000000 0.078154 0.000000 0.000000
# 5 0.000000 0.000000 0.000000 0.000000 0.078154 0.000000
# 6 0.000000 0.000000 0.000000 0.000000 0.000000 0.041694
#
#
# Mechanical properties :
#
#
# Convention : Reuss Voigt Hill
#
# Bulk Modulus (GPa) = 32.92953 33.87767 33.40360
# Shear Modulus (GPa) = 17.69249 19.50695 18.59972
#
# Velocity S-wave (km/s) = 3.46173 3.63491 3.54938
# Velocity P-wave (km/s) = 6.18726 6.36891 6.27874
#
# Compressibility (1/GPa) = 0.03036788
#
# Stress axis : x y z
#
# Youngs Moduli (GPa) = 53.94986 53.94986 65.13317
#
# Poissons Ratio (x) = 0.12469 0.28389
# Poissons Ratio (y) = 0.12469 0.28389
# Poissons Ratio (z) = 0.23514 0.23514
#
# Static dielectric constant tensor:
#      x y z
#    x 1.554880 0.000000 0.000000 
#    y 0.000000 1.554880 0.000000 
#    z 0.000000 0.000000 1.508230 
# 
# From -- ./inp_files/4637.got.cif
#   From: 2010.05.17/outbox.cif.g08.bks.cpg/sg180_3_cif.got.tgz:4637.got - 2010.05.20 11:43:55.
