data_PCOD9584933
_publ_section_title
;
Structure prediction by ZEFSAII (Michael W. Deem and Ramdas Pophale) SiO2 
 PCOD9584933
Probable space group: P 6 M M
;
_chemical_formula_sum "Si O2"
_cell_formula_units_Z 96
_cell_length_a 17.942656
_cell_length_b 17.942656
_cell_length_c 21.206131
_cell_angle_alpha 90.000000
_cell_angle_beta 90.000000
_cell_angle_gamma 120.000000
_cell_volume 5912.423483
_symmetry_space_group_name_H-M "P 6 M M"
_symmetry_group_IT_number 183
_symmetry_cell_setting 'hexagonal'
loop_
_space_group_symop_operation_xyz
x,y,z
x-y,x,z
-y,x-y,z
-x,-y,z
-x+y,-x,z
y,-x+y,z
-x+y,y,z
x,x-y,z
-y,-x,z
y,x,z
x-y,-y,z
-x,-x+y,z
loop_
_atom_site_type_symbol
_atom_site_label
_atom_site_fract_x
_atom_site_fract_y
_atom_site_fract_z
Si Si1 0.509753 0.667420 0.647780
Si Si2 0.363337 0.897051 0.403695
Si Si3 0.669402 0.166873 0.270046
Si Si4 0.269202 0.369658 0.527124
Si Si5 0.842333 0.509753 0.892311
Si Si6 0.630341 0.899544 0.012968
Si Si7 0.098457 0.727735 0.770046
Si Si8 0.363337 0.466286 0.136397
O O1 0.483762 0.741881 0.647662
O O2 0.426144 0.573857 0.649089
O O3 0.567040 0.682770 0.585692
O O4 0.569667 0.685574 0.708735
O O5 0.431563 0.863125 0.411071
O O6 0.316622 0.866935 0.336327
O O7 0.302314 0.875930 0.463488
O O8 0.419471 0.000000 0.401588
O O9 0.569701 0.139402 0.270046
O O10 0.731193 0.268807 0.270046
O O11 0.683378 0.133064 0.203765
O O12 0.168108 0.336215 0.534579
O O13 0.297992 0.297992 0.524596
O O14 0.741883 0.483765 0.892428
O O15 0.852287 0.426144 0.891003
O O16 0.884272 0.567040 0.954399
O O17 0.884095 0.569668 0.831356
O O18 0.663784 0.831892 0.005512
O O19 0.702008 0.000000 0.015496
O O20 0.573616 0.875931 0.076603
O O21 0.171476 0.828525 0.770046
O O22 0.000000 0.705091 0.770045
O O23 0.431562 0.568439 0.129022
O O24 0.419471 0.419471 0.138504
#
# Coordination Sequence:
#
# PCOD9584933 Si02
#       8
#    12  12  12  12  12  12  12  12
#     4  10  20  33  50  73 101 131 160 190 225 267
#     4   9  17  29  45  64  86 114 148 185 225 269
#     4  10  18  27  39  57  84 117 151 183 215 254
#     4  10  20  33  49  69  92 119 152 191 234 277
#     4  10  20  33  50  73 101 131 160 190 225 267
#     4  10  20  33  49  69  92 119 152 191 234 277
#     4  10  21  35  51  72  97 127 162 200 241 281
#     4   9  17  29  45  64  86 114 148 185 225 269
#
# _framework density 16.236996000000001
#
# number of rings (size 3 to 8) (size 9 to 14) (size 15 to 20)
#    0.000    2.250    0.000    3.375    0.000    5.000 
#    0.000    1.250    0.000    8.375    0.000    0.000 
#    0.000    6.000    0.000    0.000    0.000   26.500 
#
# Total GULP energy -535142.521191 kJ/mol
# GULP energy per Si atom -5574.401262 kJ/mol
# Density = 1.620004 g / cm^3
# Si number density = 16.236996 Si / 1000 Ang^3
#
#
#
# Elastic Constant Matrix: (Units=GPa)
#
#
# Indices 1 2 3 4 5 6 
#
# 1 79.7880 60.8032 39.4867 0.0000 0.0000 0.0000
# 2 60.8032 79.7880 39.4867 0.0000 0.0000 0.0000
# 3 39.4867 39.4867 145.3656 0.0000 0.0000 0.0000
# 4 0.0000 0.0000 0.0000 18.0297 0.0000 0.0000
# 5 0.0000 0.0000 0.0000 0.0000 18.0297 0.0000
# 6 0.0000 0.0000 0.0000 0.0000 0.0000 9.4924
#
#
#
# Elastic Compliance Matrix: (Units=1/GPa)
#
#
# Indices 1 2 3 4 5 6 
#
# 1 0.030534 -0.022140 -0.002280 0.000000 0.000000 0.000000
# 2 -0.022140 0.030534 -0.002280 0.000000 0.000000 0.000000
# 3 -0.002280 -0.002280 0.008118 0.000000 0.000000 0.000000
# 4 0.000000 0.000000 0.000000 0.055464 0.000000 0.000000
# 5 0.000000 0.000000 0.000000 0.000000 0.055464 0.000000
# 6 0.000000 0.000000 0.000000 0.000000 0.000000 0.105348
#
#
# Mechanical properties :
#
#
# Convention : Reuss Voigt Hill
#
# Bulk Modulus (GPa) = 63.35141 64.94387 64.14764
# Shear Modulus (GPa) = 14.52970 20.12135 17.32553
#
# Velocity S-wave (km/s) = 2.99465 3.52409 3.27010
# Velocity P-wave (km/s) = 7.14553 7.52617 7.33832
#
# Compressibility (1/GPa) = 0.01578497
#
# Stress axis : x y z
#
# Youngs Moduli (GPa) = 32.75075 32.75075 123.18498
#
# Poissons Ratio (x) = 0.72511 0.28086
# Poissons Ratio (y) = 0.72511 0.28086
# Poissons Ratio (z) = 0.07467 0.07467
#
# Static dielectric constant tensor:
#      x y z
#    x 1.532210 0.000000 0.000000 
#    y 0.000000 1.532210 0.000000 
#    z 0.000000 0.000000 1.564040 
# 
# From -- ./inp_files/3023.got.cif
#   From: 2010.05.17/outbox.cif.g08.bks.cpg/sg183_2_cif.got.tgz:3023.got - 2010.05.20 12:02:58.
