data_PCOD9584392
_publ_section_title
;
Structure prediction by ZEFSAII (Michael W. Deem and Ramdas Pophale) SiO2 
 PCOD9584392
Probable space group: P 64 2 2
;
_chemical_formula_sum "Si O2"
_cell_formula_units_Z 39
_cell_length_a 7.252254
_cell_length_b 7.252254
_cell_length_c 37.456867
_cell_angle_alpha 90.000000
_cell_angle_beta 90.000000
_cell_angle_gamma 120.000000
_cell_volume 1706.114182
_symmetry_space_group_name_H-M "P 64 2 2"
_symmetry_group_IT_number 181
_symmetry_cell_setting 'hexagonal'
loop_
_space_group_symop_operation_xyz
x,y,z
x-y,x,2/3+z
-y,x-y,1/3+z
-x,-y,z
-x+y,-x,2/3+z
y,-x+y,1/3+z
x-y,-y,-z
-x,-x+y,2/3-z
y,x,1/3-z
-y,-x,1/3-z
-x+y,y,-z
x,x-y,2/3-z
loop_
_atom_site_type_symbol
_atom_site_label
_atom_site_fract_x
_atom_site_fract_y
_atom_site_fract_z
Si Si1 0.000000 0.500000 0.833334
Si Si2 0.846082 0.199291 0.896988
Si Si3 0.722254 0.041565 0.239352
Si Si4 0.653533 0.251182 0.038940
O O1 0.142417 0.691564 0.859680
O O2 0.762790 0.291200 0.928685
O O3 0.912991 0.748392 0.905241
O O4 0.706952 0.944299 0.892157
O O5 0.717212 0.126069 0.279073
O O6 0.500000 0.000000 0.222446
O O7 0.500000 0.000000 0.034586
O O8 0.676416 0.352832 0.000000
#
# Coordination Sequence:
#
# PCOD9584392 Si02
#       4
#     3  12  12  12
#     4  12  24  46  72  96 144 192 244 310 356 428
#     4  10  23  42  67  96 136 182 233 296 358 422
#     4  10  21  41  65  99 136 177 234 282 363 429
#     4   9  19  40  67  96 133 176 231 290 348 427
#
# _framework density 22.858961000000001
#
# number of rings (size 3 to 8) (size 9 to 14) (size 15 to 20)
#    0.000    2.154    0.000    1.846    0.000    3.692 
#    8.308   29.231    0.000    0.000    0.000    0.000 
#    0.000    0.000    0.000    0.000    0.000    0.000 
#
# Total GULP energy -217526.525559 kJ/mol
# GULP energy per Si atom -5577.603219 kJ/mol
# Density = 2.280693 g / cm^3
# Si number density = 22.858961 Si / 1000 Ang^3
#
#
#
# Elastic Constant Matrix: (Units=GPa)
#
#
# Indices 1 2 3 4 5 6 
#
# 1 112.8622 23.9241 58.0482 0.0000 0.0000 0.0000
# 2 23.9241 112.8622 58.0482 0.0000 0.0000 0.0000
# 3 58.0482 58.0482 185.2200 0.0000 0.0000 0.0000
# 4 0.0000 0.0000 0.0000 47.5906 0.0000 0.0000
# 5 0.0000 0.0000 0.0000 0.0000 47.5906 0.0000
# 6 0.0000 0.0000 0.0000 0.0000 0.0000 44.4691
#
#
#
# Elastic Compliance Matrix: (Units=1/GPa)
#
#
# Indices 1 2 3 4 5 6 
#
# 1 0.010602 -0.000642 -0.003121 0.000000 0.000000 0.000000
# 2 -0.000642 0.010602 -0.003121 0.000000 0.000000 0.000000
# 3 -0.003121 -0.003121 0.007356 0.000000 0.000000 0.000000
# 4 0.000000 0.000000 0.000000 0.021013 0.000000 0.000000
# 5 0.000000 0.000000 0.000000 0.000000 0.021013 0.000000
# 6 0.000000 0.000000 0.000000 0.000000 0.000000 0.022488
#
#
# Mechanical properties :
#
#
# Convention : Reuss Voigt Hill
#
# Bulk Modulus (GPa) = 67.61495 76.77617 72.19556
# Shear Modulus (GPa) = 44.73413 45.99167 45.36290
#
# Velocity S-wave (km/s) = 4.42856 4.49037 4.45957
# Velocity P-wave (km/s) = 7.46946 7.78103 7.62684
#
# Compressibility (1/GPa) = 0.01478963
#
# Stress axis : x y z
#
# Youngs Moduli (GPa) = 94.32282 94.32282 135.95192
#
# Poissons Ratio (x) = 0.06054 0.42437
# Poissons Ratio (y) = 0.06054 0.42437
# Poissons Ratio (z) = 0.29443 0.29443
#
# Static dielectric constant tensor:
#      x y z
#    x 1.884130 0.000000 0.000000 
#    y 0.000000 1.884130 0.000000 
#    z 0.000000 0.000000 1.846620 
# 
# From -- ./inp_files/11810.got.cif
#   From: 2010.05.17/outbox.cif.g08.bks.cpg/sg181_6_cif.got.tgz:11810.got - 2010.05.20 11:51:17.
