data_PCOD9584865
_publ_section_title
;
Structure prediction by ZEFSAII (Michael W. Deem and Ramdas Pophale) SiO2 
 PCOD9584865
Probable space group: P 63 2 2
;
_chemical_formula_sum "Si O2"
_cell_formula_units_Z 60
_cell_length_a 14.034127
_cell_length_b 14.034127
_cell_length_c 16.275531
_cell_angle_alpha 90.000000
_cell_angle_beta 90.000000
_cell_angle_gamma 120.000000
_cell_volume 2776.109568
_symmetry_space_group_name_H-M "P 63 2 2"
_symmetry_group_IT_number 182
_symmetry_cell_setting 'hexagonal'
loop_
_space_group_symop_operation_xyz
x,y,z
x-y,x,1/2+z
-y,x-y,z
-x,-y,1/2+z
-x+y,-x,z
y,-x+y,1/2+z
x-y,-y,-z
-x,-x+y,-z
y,x,-z
-y,-x,1/2-z
-x+y,y,1/2-z
x,x-y,1/2-z
loop_
_atom_site_type_symbol
_atom_site_label
_atom_site_fract_x
_atom_site_fract_y
_atom_site_fract_z
Si Si1 0.144832 0.661885 0.299485
Si Si2 0.914976 0.151866 0.342154
Si Si3 0.528852 0.123392 0.983523
Si Si4 0.911175 0.169716 0.876316
Si Si5 0.589017 0.824861 0.972331
O O1 0.254652 0.745349 0.250000
O O2 0.091981 0.545991 0.250000
O O3 0.164551 0.634473 0.391358
O O4 0.085791 0.734580 0.317321
O O5 0.871347 0.128654 0.250000
O O6 0.888307 0.232987 0.392576
O O7 0.045358 0.200559 0.342668
O O8 0.841575 0.034499 0.388038
O O9 0.641889 0.126419 0.996207
O O10 0.498213 0.194930 0.042589
O O11 0.432692 0.000000 0.000000
O O12 0.843983 0.170424 0.957304
#
# Coordination Sequence:
#
# PCOD9584865 Si02
#       5
#    12  12  12  12  12
#     4  11  22  39  66 100 130 164 225 299 356 403
#     4  12  24  41  65  98 136 177 226 279 341 423
#     4  11  23  40  63  91 127 169 213 274 344 411
#     4  11  24  42  66  97 137 181 225 282 351 421
#     4  11  24  44  65  92 129 175 225 274 347 426
#
# _framework density 21.612978999999999
#
# number of rings (size 3 to 8) (size 9 to 14) (size 15 to 20)
#    0.000    0.800    0.000   10.000    0.000    3.200 
#    0.000    3.000    0.000    0.000    0.000    0.000 
#    0.000    0.000    0.000    0.000    0.000    0.000 
#
# Total GULP energy -335137.580370 kJ/mol
# GULP energy per Si atom -5585.626339 kJ/mol
# Density = 2.156379 g / cm^3
# Si number density = 21.612979 Si / 1000 Ang^3
#
#
#
# Elastic Constant Matrix: (Units=GPa)
#
#
# Indices 1 2 3 4 5 6 
#
# 1 117.6274 45.0860 32.0351 0.0000 0.0000 0.0000
# 2 45.0860 117.6274 32.0351 0.0000 0.0000 0.0000
# 3 32.0351 32.0351 64.3759 0.0000 0.0000 0.0000
# 4 0.0000 0.0000 0.0000 20.3315 0.0000 0.0000
# 5 0.0000 0.0000 0.0000 0.0000 20.3315 0.0000
# 6 0.0000 0.0000 0.0000 0.0000 0.0000 36.2707
#
#
#
# Elastic Compliance Matrix: (Units=1/GPa)
#
#
# Indices 1 2 3 4 5 6 
#
# 1 0.010714 -0.003071 -0.003804 0.000000 0.000000 0.000000
# 2 -0.003071 0.010714 -0.003804 0.000000 0.000000 0.000000
# 3 -0.003804 -0.003804 0.019319 0.000000 0.000000 0.000000
# 4 0.000000 0.000000 0.000000 0.049185 0.000000 0.000000
# 5 0.000000 0.000000 0.000000 0.000000 0.049185 0.000000
# 6 0.000000 0.000000 0.000000 0.000000 0.000000 0.027570
#
#
# Mechanical properties :
#
#
# Convention : Reuss Voigt Hill
#
# Bulk Modulus (GPa) = 51.56793 57.54922 54.55858
# Shear Modulus (GPa) = 25.70590 28.08506 26.89548
#
# Velocity S-wave (km/s) = 3.45247 3.60870 3.53145
# Velocity P-wave (km/s) = 6.30906 6.63691 6.47506
#
# Compressibility (1/GPa) = 0.01939190
#
# Stress axis : x y z
#
# Youngs Moduli (GPa) = 93.33273 93.33273 51.76171
#
# Poissons Ratio (x) = 0.28661 0.19688
# Poissons Ratio (y) = 0.28661 0.19688
# Poissons Ratio (z) = 0.35500 0.35500
#
# Static dielectric constant tensor:
#      x y z
#    x 1.819490 0.000000 0.000000 
#    y 0.000000 1.819490 0.000000 
#    z 0.000000 0.000000 1.804020 
# 
# From -- ./inp_files/3458.got.cif
#   From: 2010.05.17/outbox.cif.g08.bks.cpg/sg182_2_cif.got.tgz:3458.got - 2010.05.20 11:58:53.
