data_PCOD9584735
_publ_section_title
;
Structure prediction by ZEFSAII (Michael W. Deem and Ramdas Pophale) SiO2 
 PCOD9584735
Probable space group: P 63 2 2
;
_chemical_formula_sum "Si O2"
_cell_formula_units_Z 30
_cell_length_a 8.473016
_cell_length_b 8.473016
_cell_length_c 21.166587
_cell_angle_alpha 90.000000
_cell_angle_beta 90.000000
_cell_angle_gamma 120.000000
_cell_volume 1316.004944
_symmetry_space_group_name_H-M "P 63 2 2"
_symmetry_group_IT_number 182
_symmetry_cell_setting 'hexagonal'
loop_
_space_group_symop_operation_xyz
x,y,z
x-y,x,1/2+z
-y,x-y,z
-x,-y,1/2+z
-x+y,-x,z
y,-x+y,1/2+z
x-y,-y,-z
-x,-x+y,-z
y,x,-z
-y,-x,1/2-z
-x+y,y,1/2-z
x,x-y,1/2-z
loop_
_atom_site_type_symbol
_atom_site_label
_atom_site_fract_x
_atom_site_fract_y
_atom_site_fract_z
Si Si1 0.635838 0.628786 0.379696
Si Si2 0.689674 0.691661 0.071551
Si Si3 0.453553 0.907106 0.250000
O O1 0.518015 0.469714 0.429120
O O2 0.848072 0.701323 0.387769
O O3 0.549007 0.532214 0.312897
O O4 0.611284 0.800780 0.396383
O O5 0.752774 0.752774 0.000000
O O6 0.235539 0.764462 0.250000
#
# Coordination Sequence:
#
# PCOD9584735 Si02
#       3
#    12  12   6
#     4  12  25  45  73 106 146 196 247 306 376 450
#     4  12  24  43  70 106 147 191 244 308 379 451
#     4  10  20  48  72  94 138 186 242 300 364 434
#
# _framework density 22.796267
#
# number of rings (size 3 to 8) (size 9 to 14) (size 15 to 20)
#    0.400    0.000    4.000    6.000    0.000    1.600 
#    0.000    0.000    0.000    0.000    0.000    0.000 
#    0.000    0.000    0.000    0.000    0.000    0.000 
#
# Total GULP energy -167536.456087 kJ/mol
# GULP energy per Si atom -5584.548536 kJ/mol
# Density = 2.274438 g / cm^3
# Si number density = 22.796267 Si / 1000 Ang^3
#
#
#
# Elastic Constant Matrix: (Units=GPa)
#
#
# Indices 1 2 3 4 5 6 
#
# 1 75.5761 4.3426 22.0929 0.0000 0.0000 0.0000
# 2 4.3426 75.5761 22.0929 0.0000 0.0000 0.0000
# 3 22.0929 22.0929 187.5685 0.0000 0.0000 0.0000
# 4 0.0000 0.0000 0.0000 25.0475 0.0000 0.0000
# 5 0.0000 0.0000 0.0000 0.0000 25.0475 0.0000
# 6 0.0000 0.0000 0.0000 0.0000 0.0000 35.6167
#
#
#
# Elastic Compliance Matrix: (Units=1/GPa)
#
#
# Indices 1 2 3 4 5 6 
#
# 1 0.013711 -0.000327 -0.001576 0.000000 0.000000 0.000000
# 2 -0.000327 0.013711 -0.001576 0.000000 0.000000 0.000000
# 3 -0.001576 -0.001576 0.005703 0.000000 0.000000 0.000000
# 4 0.000000 0.000000 0.000000 0.039924 0.000000 0.000000
# 5 0.000000 0.000000 0.000000 0.000000 0.039924 0.000000
# 6 0.000000 0.000000 0.000000 0.000000 0.000000 0.028077
#
#
# Mechanical properties :
#
#
# Convention : Reuss Voigt Hill
#
# Bulk Modulus (GPa) = 38.21829 48.41973 43.31901
# Shear Modulus (GPa) = 31.90156 36.48850 34.19503
#
# Velocity S-wave (km/s) = 3.74494 4.00513 3.87722
# Velocity P-wave (km/s) = 5.95827 6.53257 6.25202
#
# Compressibility (1/GPa) = 0.02616548
#
# Stress axis : x y z
#
# Youngs Moduli (GPa) = 72.93233 72.93233 175.35364
#
# Poissons Ratio (x) = 0.02385 0.27644
# Poissons Ratio (y) = 0.02385 0.27644
# Poissons Ratio (z) = 0.11498 0.11498
#
# Static dielectric constant tensor:
#      x y z
#    x 1.850670 0.000000 0.000000 
#    y 0.000000 1.850670 0.000000 
#    z 0.000000 0.000000 1.924040 
# 
# From -- ./inp_files/5061.got.cif
#   From: 2010.05.17/outbox.cif.g08.bks.cpg/sg182_3_cif.got.tgz:5061.got - 2010.05.20 11:58:53.
