data_PCOD9584016
_publ_section_title
;
Structure prediction by ZEFSAII (Michael W. Deem and Ramdas Pophale) SiO2 
 PCOD9584016
Probable space group: P 62 2 2
;
_chemical_formula_sum "Si O2"
_cell_formula_units_Z 78
_cell_length_a 24.107032
_cell_length_b 24.107032
_cell_length_c 8.946735
_cell_angle_alpha 90.000000
_cell_angle_beta 90.000000
_cell_angle_gamma 120.000000
_cell_volume 4502.800382
_symmetry_space_group_name_H-M "P 62 2 2"
_symmetry_group_IT_number 180
_symmetry_cell_setting 'hexagonal'
loop_
_space_group_symop_operation_xyz
x,y,z
x-y,x,1/3+z
-y,x-y,2/3+z
-x,-y,z
-x+y,-x,1/3+z
y,-x+y,2/3+z
x-y,-y,-z
-x,-x+y,1/3-z
y,x,2/3-z
-y,-x,2/3-z
-x+y,y,-z
x,x-y,1/3-z
loop_
_atom_site_type_symbol
_atom_site_label
_atom_site_fract_x
_atom_site_fract_y
_atom_site_fract_z
Si Si1 0.540231 0.659889 0.009235
Si Si2 0.766637 0.233364 0.833334
Si Si3 0.392203 0.196102 0.666667
Si Si4 0.299984 0.933509 0.410514
Si Si5 0.865410 0.421777 0.487619
Si Si6 0.516105 0.236159 0.857905
Si Si7 0.350877 0.649124 0.833334
Si Si8 0.402515 0.419664 0.159886
O O1 0.565970 0.728715 0.090841
O O2 0.465729 0.616588 0.049481
O O3 0.563695 0.614628 0.081370
O O4 0.568068 0.670576 0.842771
O O5 0.770679 0.279503 0.701600
O O6 0.350134 0.227682 0.716058
O O7 0.444554 0.210244 0.796787
O O8 0.332673 0.949490 0.248256
O O9 0.319613 0.000000 0.500000
O O10 0.865128 0.432564 0.666667
O O11 0.811379 0.349406 0.462542
O O12 0.935192 0.429517 0.459811
O O13 0.571786 0.308527 0.827112
O O14 0.331543 0.665772 0.666667
O O15 0.408406 0.408406 0.333334
#
# Coordination Sequence:
#
# PCOD9584016 Si02
#       8
#    12   6   6  12  12  12   6  12
#     4  11  24  36  57  78 112 137 181 238 286 360
#     4  12  23  40  58  80 106 142 189 236 296 360
#     4  12  22  44  60  78 114 144 184 236 296 360
#     4  10  24  42  60  86 111 144 183 237 299 352
#     4  12  22  36  57  79 102 135 186 233 297 357
#     4  12  25  39  56  78 101 148 190 235 305 355
#     4  12  27  40  54  74 109 142 195 246 298 380
#     4  11  21  38  58  80 104 138 183 232 290 354
#
# _framework density 17.322555000000001
#
# number of rings (size 3 to 8) (size 9 to 14) (size 15 to 20)
#    0.000    0.615    6.923    1.385    2.154    0.615 
#    0.000    2.308    0.000    0.000    0.000    0.000 
#    0.000    0.000    0.000    0.000    0.000    0.000 
#
# Total GULP energy -434584.126027 kJ/mol
# GULP energy per Si atom -5571.591359 kJ/mol
# Density = 1.728313 g / cm^3
# Si number density = 17.322555 Si / 1000 Ang^3
#
#
#
# Elastic Constant Matrix: (Units=GPa)
#
#
# Indices 1 2 3 4 5 6 
#
# 1 82.5906 35.5779 14.6367 0.0000 0.0000 0.0000
# 2 35.5779 82.5906 14.6367 0.0000 0.0000 0.0000
# 3 14.6367 14.6367 84.6734 0.0000 0.0000 0.0000
# 4 0.0000 0.0000 0.0000 13.5372 0.0000 0.0000
# 5 0.0000 0.0000 0.0000 0.0000 13.5372 0.0000
# 6 0.0000 0.0000 0.0000 0.0000 0.0000 23.5064
#
#
#
# Elastic Compliance Matrix: (Units=1/GPa)
#
#
# Indices 1 2 3 4 5 6 
#
# 1 0.015056 -0.006215 -0.001528 0.000000 0.000000 0.000000
# 2 -0.006215 0.015056 -0.001528 0.000000 0.000000 0.000000
# 3 -0.001528 -0.001528 0.012338 0.000000 0.000000 0.000000
# 4 0.000000 0.000000 0.000000 0.073871 0.000000 0.000000
# 5 0.000000 0.000000 0.000000 0.000000 0.073871 0.000000
# 6 0.000000 0.000000 0.000000 0.000000 0.000000 0.042542
#
#
# Mechanical properties :
#
#
# Convention : Reuss Voigt Hill
#
# Bulk Modulus (GPa) = 41.82784 42.17300 42.00042
# Shear Modulus (GPa) = 19.28675 22.44970 20.86822
#
# Velocity S-wave (km/s) = 3.34037 3.60388 3.47462
# Velocity P-wave (km/s) = 6.25110 6.45878 6.35579
#
# Compressibility (1/GPa) = 0.02390752
#
# Stress axis : x y z
#
# Youngs Moduli (GPa) = 66.41885 66.41885 81.04754
#
# Poissons Ratio (x) = 0.41278 0.12386
# Poissons Ratio (y) = 0.41278 0.12386
# Poissons Ratio (z) = 0.10151 0.10151
#
# Static dielectric constant tensor:
#      x y z
#    x 1.635430 0.000000 0.000000 
#    y 0.000000 1.635430 0.000000 
#    z 0.000000 0.000000 2.605980 
# 
# From -- ./inp_files/3464.got.cif
#   From: 2010.05.17/outbox.cif.g08.bks.cpg/sg180_2_cif.got.tgz:3464.got - 2010.05.20 11:43:55.
