data_PCOD9584825
_publ_section_title
;
Structure prediction by ZEFSAII (Michael W. Deem and Ramdas Pophale) SiO2 
 PCOD9584825
Probable space group: P 63 2 2
;
_chemical_formula_sum "Si O2"
_cell_formula_units_Z 36
_cell_length_a 8.218730
_cell_length_b 8.218730
_cell_length_c 26.499173
_cell_angle_alpha 90.000000
_cell_angle_beta 90.000000
_cell_angle_gamma 120.000000
_cell_volume 1550.145196
_symmetry_space_group_name_H-M "P 63 2 2"
_symmetry_group_IT_number 182
_symmetry_cell_setting 'hexagonal'
loop_
_space_group_symop_operation_xyz
x,y,z
x-y,x,1/2+z
-y,x-y,z
-x,-y,1/2+z
-x+y,-x,z
y,-x+y,1/2+z
x-y,-y,-z
-x,-x+y,-z
y,x,-z
-y,-x,1/2-z
-x+y,y,1/2-z
x,x-y,1/2-z
loop_
_atom_site_type_symbol
_atom_site_label
_atom_site_fract_x
_atom_site_fract_y
_atom_site_fract_z
Si Si1 0.348225 0.366458 0.841300
Si Si2 0.288079 0.327004 0.298408
Si Si3 0.903623 0.392179 0.553595
O O1 0.490107 0.528288 0.803379
O O2 0.400915 0.203883 0.838877
O O3 0.384783 0.428325 0.899362
O O4 0.139043 0.276951 0.818578
O O5 0.159009 0.318018 0.250000
O O6 0.813379 0.528203 0.555611
O O7 0.000000 0.415901 0.500000
#
# Coordination Sequence:
#
# PCOD9584825 Si02
#       3
#    12  12  12
#     4  12  25  49  71 113 157 200 257 324 391 461
#     4  12  26  46  78 109 152 208 259 318 388 471
#     4  10  23  43  73 112 150 202 251 314 389 465
#
# _framework density 23.223633
#
# number of rings (size 3 to 8) (size 9 to 14) (size 15 to 20)
#    0.667    0.000    3.333    4.000    4.667    0.000 
#    0.000    3.333    0.000    0.667    0.000    0.000 
#    0.000    0.000    0.000    0.000    0.000    0.000 
#
# Total GULP energy -200413.975038 kJ/mol
# GULP energy per Si atom -5567.054862 kJ/mol
# Density = 2.317077 g / cm^3
# Si number density = 23.223633 Si / 1000 Ang^3
#
#
#
# Elastic Constant Matrix: (Units=GPa)
#
#
# Indices 1 2 3 4 5 6 
#
# 1 91.7501 16.5777 55.6938 0.0000 0.0000 0.0000
# 2 16.5777 91.7501 55.6938 0.0000 0.0000 0.0000
# 3 55.6938 55.6938 260.3046 0.0000 0.0000 0.0000
# 4 0.0000 0.0000 0.0000 25.3045 0.0000 0.0000
# 5 0.0000 0.0000 0.0000 0.0000 25.3045 0.0000
# 6 0.0000 0.0000 0.0000 0.0000 0.0000 37.5862
#
#
#
# Elastic Compliance Matrix: (Units=1/GPa)
#
#
# Indices 1 2 3 4 5 6 
#
# 1 0.012569 -0.000734 -0.002532 0.000000 0.000000 0.000000
# 2 -0.000734 0.012569 -0.002532 0.000000 0.000000 0.000000
# 3 -0.002532 -0.002532 0.004925 0.000000 0.000000 0.000000
# 4 0.000000 0.000000 0.000000 0.039519 0.000000 0.000000
# 5 0.000000 0.000000 0.000000 0.000000 0.039519 0.000000
# 6 0.000000 0.000000 0.000000 0.000000 0.000000 0.026606
#
#
# Mechanical properties :
#
#
# Convention : Reuss Voigt Hill
#
# Bulk Modulus (GPa) = 54.15237 77.74838 65.95037
# Shear Modulus (GPa) = 32.58231 38.69502 35.63866
#
# Velocity S-wave (km/s) = 3.74970 4.08633 3.92163
# Velocity P-wave (km/s) = 6.48964 7.47094 6.99751
#
# Compressibility (1/GPa) = 0.01846641
#
# Stress axis : x y z
#
# Youngs Moduli (GPa) = 79.56184 79.56184 203.03770
#
# Poissons Ratio (x) = 0.05839 0.51412
# Poissons Ratio (y) = 0.05839 0.51412
# Poissons Ratio (z) = 0.20146 0.20146
#
# Static dielectric constant tensor:
#      x y z
#    x 1.919630 0.000000 0.000000 
#    y 0.000000 1.919630 0.000000 
#    z 0.000000 0.000000 1.927760 
# 
# From -- ./inp_files/5390.got.cif
#   From: 2010.05.17/outbox.cif.g08.bks.cpg/sg182_3_cif.got.tgz:5390.got - 2010.05.20 11:58:53.
