data_PCOD9584831
_publ_section_title
;
Structure prediction by ZEFSAII (Michael W. Deem and Ramdas Pophale) SiO2 
 PCOD9584831
Probable space group: P 63 2 2
;
_chemical_formula_sum "Si O2"
_cell_formula_units_Z 40
_cell_length_a 8.177338
_cell_length_b 8.177338
_cell_length_c 32.937768
_cell_angle_alpha 90.000000
_cell_angle_beta 90.000000
_cell_angle_gamma 120.000000
_cell_volume 1907.430383
_symmetry_space_group_name_H-M "P 63 2 2"
_symmetry_group_IT_number 182
_symmetry_cell_setting 'hexagonal'
loop_
_space_group_symop_operation_xyz
x,y,z
x-y,x,1/2+z
-y,x-y,z
-x,-y,1/2+z
-x+y,-x,z
y,-x+y,1/2+z
x-y,-y,-z
-x,-x+y,-z
y,x,-z
-y,-x,1/2-z
-x+y,y,1/2-z
x,x-y,1/2-z
loop_
_atom_site_type_symbol
_atom_site_label
_atom_site_fract_x
_atom_site_fract_y
_atom_site_fract_z
Si Si1 0.666668 0.333334 0.798414
Si Si2 0.632040 0.994338 0.954671
Si Si3 0.702035 0.018517 0.577918
Si Si4 0.847944 0.760466 0.830786
O O1 0.666668 0.333334 0.750000
O O2 0.740335 0.549634 0.813090
O O3 0.853387 0.139639 0.954157
O O4 0.531492 0.067780 0.923914
O O5 0.605272 0.801181 0.937098
O O6 0.565187 0.000000 0.000000
O O7 0.804781 0.064631 0.621032
O O8 0.798552 0.926744 0.819985
#
# Coordination Sequence:
#
# PCOD9584831 Si02
#       4
#     4  12  12  12
#     4  12  27  48  81 117 150 189 228 294 384 456
#     4  12  23  37  58  89 131 178 235 302 355 410
#     4  12  23  42  62  90 131 182 240 288 365 428
#     4  10  23  49  75 108 147 193 243 303 356 444
#
# _framework density 20.970621999999999
#
# number of rings (size 3 to 8) (size 9 to 14) (size 15 to 20)
#    0.600    0.000    3.000    6.300    0.000    1.200 
#    1.800    0.000    0.000    0.000    0.000    0.000 
#    0.000    0.000    0.000    0.000    0.000    0.000 
#
# Total GULP energy -222954.053537 kJ/mol
# GULP energy per Si atom -5573.851338 kJ/mol
# Density = 2.092289 g / cm^3
# Si number density = 20.970622 Si / 1000 Ang^3
#
#
#
# Elastic Constant Matrix: (Units=GPa)
#
#
# Indices 1 2 3 4 5 6 
#
# 1 113.8686 50.7086 35.9343 0.0001 0.0000 -0.0004
# 2 50.7086 113.8688 35.9339 -0.0001 0.0001 -0.0001
# 3 35.9343 35.9339 78.8823 0.0001 0.0000 -0.0002
# 4 0.0001 -0.0001 0.0001 14.5397 0.0000 0.0000
# 5 0.0000 0.0001 0.0000 0.0000 14.5395 -0.0001
# 6 -0.0004 -0.0001 -0.0002 0.0000 -0.0001 31.5797
#
#
#
# Elastic Compliance Matrix: (Units=1/GPa)
#
#
# Indices 1 2 3 4 5 6 
#
# 1 0.011709 -0.004124 -0.003455 0.000000 0.000000 0.000000
# 2 -0.004124 0.011709 -0.003455 0.000000 0.000000 0.000000
# 3 -0.003455 -0.003455 0.015825 0.000000 0.000000 0.000000
# 4 0.000000 0.000000 0.000000 0.068777 0.000000 0.000000
# 5 0.000000 0.000000 0.000000 0.000000 0.068778 0.000000
# 6 0.000000 0.000000 0.000000 0.000000 0.000000 0.031666
#
#
# Mechanical properties :
#
#
# Convention : Reuss Voigt Hill
#
# Bulk Modulus (GPa) = 58.22732 61.30815 59.76774
# Shear Modulus (GPa) = 21.16335 24.40132 22.78233
#
# Velocity S-wave (km/s) = 3.18022 3.41485 3.29962
# Velocity P-wave (km/s) = 6.42740 6.69679 6.56348
#
# Compressibility (1/GPa) = 0.01717407
#
# Stress axis : x y z
#
# Youngs Moduli (GPa) = 85.40480 85.40525 63.19048
#
# Poissons Ratio (x) = 0.35220 0.21835
# Poissons Ratio (y) = 0.35220 0.21834
# Poissons Ratio (z) = 0.29510 0.29510
#
# Static dielectric constant tensor:
#      x y z
#    x 1.800440 0.000000 0.000000 
#    y 0.000000 1.800440 0.000000 
#    z 0.000000 0.000000 1.713850 
# 
# From -- ./inp_files/5616.got.cif
#   From: 2010.05.17/outbox.cif.g08.bks.cpg/sg182_3_cif.got.tgz:5616.got - 2010.05.20 11:58:53.
