data_PCOD9584290
_publ_section_title
;
Structure prediction by ZEFSAII (Michael W. Deem and Ramdas Pophale) SiO2 
 PCOD9584290
Probable space group: P 64 2 2
;
_chemical_formula_sum "Si O2"
_cell_formula_units_Z 60
_cell_length_a 10.241066
_cell_length_b 10.241066
_cell_length_c 32.906358
_cell_angle_alpha 90.000000
_cell_angle_beta 90.000000
_cell_angle_gamma 120.000000
_cell_volume 2988.827015
_symmetry_space_group_name_H-M "P 64 2 2"
_symmetry_group_IT_number 181
_symmetry_cell_setting 'hexagonal'
loop_
_space_group_symop_operation_xyz
x,y,z
x-y,x,2/3+z
-y,x-y,1/3+z
-x,-y,z
-x+y,-x,2/3+z
y,-x+y,1/3+z
x-y,-y,-z
-x,-x+y,2/3-z
y,x,1/3-z
-y,-x,1/3-z
-x+y,y,-z
x,x-y,2/3-z
loop_
_atom_site_type_symbol
_atom_site_label
_atom_site_fract_x
_atom_site_fract_y
_atom_site_fract_z
Si Si1 0.500000 0.500000 0.166667
Si Si2 0.500000 0.000000 0.152278
Si Si3 0.234808 0.246436 0.392614
Si Si4 0.500000 0.000000 0.672046
Si Si5 0.000000 0.000000 0.000000
Si Si6 0.345035 0.690070 0.000000
Si Si7 0.708899 0.234079 0.086293
Si Si8 0.758481 0.560799 0.878905
O O1 0.463314 0.351009 0.192421
O O2 0.399304 0.863497 0.122165
O O3 0.581958 0.932599 0.180375
O O4 0.373962 0.366364 0.365586
O O5 0.191870 0.352251 0.418038
O O6 0.301272 0.171813 0.422866
O O7 0.105708 0.136273 0.362762
O O8 0.420336 0.831745 0.653048
O O9 0.352722 0.783368 0.040197
O O10 0.769582 0.408040 0.097794
#
# Coordination Sequence:
#
# PCOD9584290 Si02
#       8
#     3   6  12   6   3   6  12  12
#     4  12  28  42  72 124 132 178 276 316 348 440
#     4  12  23  43  74 101 143 192 231 305 361 454
#     4  11  23  46  71  97 145 201 231 300 374 456
#     4  10  19  41  70  96 136 192 231 275 384 436
#     4  12  30  44  68 118 156 186 268 316 390 444
#     4  10  21  37  64 104 130 178 240 288 349 443
#     4  11  23  42  73 102 136 192 237 293 367 452
#     4  12  23  46  70 106 143 190 246 298 378 438
#
# _framework density 20.074763999999998
#
# number of rings (size 3 to 8) (size 9 to 14) (size 15 to 20)
#    0.000    0.800    8.000    0.600    0.000    6.000 
#    3.600    0.000    0.000    0.000    0.000    0.000 
#    0.000    0.000    0.000    0.000    0.000    0.000 
#
# Total GULP energy -334769.537626 kJ/mol
# GULP energy per Si atom -5579.492294 kJ/mol
# Density = 2.002907 g / cm^3
# Si number density = 20.074764 Si / 1000 Ang^3
#
#
#
# Elastic Constant Matrix: (Units=GPa)
#
#
# Indices 1 2 3 4 5 6 
#
# 1 95.5812 35.3275 49.9194 0.0000 0.0000 0.0000
# 2 35.3275 95.5812 49.9194 0.0000 0.0000 0.0000
# 3 49.9194 49.9194 110.4540 0.0000 0.0000 0.0000
# 4 0.0000 0.0000 0.0000 53.0248 0.0000 0.0000
# 5 0.0000 0.0000 0.0000 0.0000 53.0248 0.0000
# 6 0.0000 0.0000 0.0000 0.0000 0.0000 30.1268
#
#
#
# Elastic Compliance Matrix: (Units=1/GPa)
#
#
# Indices 1 2 3 4 5 6 
#
# 1 0.014127 -0.002470 -0.005268 0.000000 0.000000 0.000000
# 2 -0.002470 0.014127 -0.005268 0.000000 0.000000 0.000000
# 3 -0.005268 -0.005268 0.013815 0.000000 0.000000 0.000000
# 4 0.000000 0.000000 0.000000 0.018859 0.000000 0.000000
# 5 0.000000 0.000000 0.000000 0.000000 0.018859 0.000000
# 6 0.000000 0.000000 0.000000 0.000000 0.000000 0.033193
#
#
# Mechanical properties :
#
#
# Convention : Reuss Voigt Hill
#
# Bulk Modulus (GPa) = 62.28178 63.54986 62.91582
# Shear Modulus (GPa) = 34.63930 38.33198 36.48564
#
# Velocity S-wave (km/s) = 4.15844 4.37448 4.26783
# Velocity P-wave (km/s) = 7.35861 7.56572 7.46288
#
# Compressibility (1/GPa) = 0.01605606
#
# Stress axis : x y z
#
# Youngs Moduli (GPa) = 70.78820 70.78820 72.38250
#
# Poissons Ratio (x) = 0.17484 0.38133
# Poissons Ratio (y) = 0.17484 0.38133
# Poissons Ratio (z) = 0.37293 0.37293
#
# Static dielectric constant tensor:
#      x y z
#    x 1.736070 0.000000 0.000000 
#    y 0.000000 1.736070 0.000000 
#    z 0.000000 0.000000 1.738460 
# 
# From -- ./inp_files/11283.got.cif
#   From: 2010.05.17/outbox.cif.g08.bks.cpg/sg181_6_cif.got.tgz:11283.got - 2010.05.20 11:51:17.
