data_PCOD9584436
_publ_section_title
;
Structure prediction by ZEFSAII (Michael W. Deem and Ramdas Pophale) SiO2 
 PCOD9584436
Probable space group: P 64 2 2
;
_chemical_formula_sum "Si O2"
_cell_formula_units_Z 48
_cell_length_a 11.201964
_cell_length_b 11.201964
_cell_length_c 20.796814
_cell_angle_alpha 90.000000
_cell_angle_beta 90.000000
_cell_angle_gamma 120.000000
_cell_volume 2260.038225
_symmetry_space_group_name_H-M "P 64 2 2"
_symmetry_group_IT_number 181
_symmetry_cell_setting 'hexagonal'
loop_
_space_group_symop_operation_xyz
x,y,z
x-y,x,2/3+z
-y,x-y,1/3+z
-x,-y,z
-x+y,-x,2/3+z
y,-x+y,1/3+z
x-y,-y,-z
-x,-x+y,2/3-z
y,x,1/3-z
-y,-x,1/3-z
-x+y,y,-z
x,x-y,2/3-z
loop_
_atom_site_type_symbol
_atom_site_label
_atom_site_fract_x
_atom_site_fract_y
_atom_site_fract_z
Si Si1 0.138785 0.277570 0.000000
Si Si2 0.568612 0.903235 0.097635
Si Si3 0.361128 0.722255 0.000000
Si Si4 0.143356 0.643120 0.572003
Si Si5 0.900574 0.065689 0.434036
O O1 0.124568 0.370422 0.054289
O O2 0.193578 0.189103 0.036905
O O3 0.511375 0.822002 0.164824
O O4 0.733492 0.964133 0.101495
O O5 0.500000 0.000000 0.094538
O O6 0.507702 0.811598 0.034351
O O7 0.371891 0.630394 0.943785
O O8 0.000000 0.500000 0.572070
O O9 0.815083 0.000000 0.500000
O O10 0.000000 0.000000 0.431609
#
# Coordination Sequence:
#
# PCOD9584436 Si02
#       5
#     6  12   6  12  12
#     4  11  21  40  68  92 137 179 236 296 358 437
#     4  11  24  44  67  99 142 181 241 299 367 446
#     4  11  23  40  66  96 133 187 234 290 368 435
#     4  10  22  40  63  95 131 182 233 294 361 435
#     4  11  24  43  67 103 137 185 237 300 367 435
#
# _framework density 21.238581
#
# number of rings (size 3 to 8) (size 9 to 14) (size 15 to 20)
#    0.000    1.250    2.500    3.000    0.000    6.000 
#    4.500    0.000    0.000    0.000    0.000    0.000 
#    0.000    0.000    0.000    0.000    0.000    0.000 
#
# Total GULP energy -267856.890814 kJ/mol
# GULP energy per Si atom -5580.351892 kJ/mol
# Density = 2.119024 g / cm^3
# Si number density = 21.238581 Si / 1000 Ang^3
#
#
#
# Elastic Constant Matrix: (Units=GPa)
#
#
# Indices 1 2 3 4 5 6 
#
# 1 94.4907 47.9317 30.3002 0.0000 0.0000 0.0000
# 2 47.9317 94.4907 30.3002 0.0000 0.0000 0.0000
# 3 30.3002 30.3002 134.4318 0.0000 0.0000 0.0000
# 4 0.0000 0.0000 0.0000 29.8647 0.0000 0.0000
# 5 0.0000 0.0000 0.0000 0.0000 29.8647 0.0000
# 6 0.0000 0.0000 0.0000 0.0000 0.0000 23.2795
#
#
#
# Elastic Compliance Matrix: (Units=1/GPa)
#
#
# Indices 1 2 3 4 5 6 
#
# 1 0.014622 -0.006856 -0.001750 0.000000 0.000000 0.000000
# 2 -0.006856 0.014622 -0.001750 0.000000 0.000000 0.000000
# 3 -0.001750 -0.001750 0.008228 0.000000 0.000000 0.000000
# 4 0.000000 0.000000 0.000000 0.033484 0.000000 0.000000
# 5 0.000000 0.000000 0.000000 0.000000 0.033484 0.000000
# 6 0.000000 0.000000 0.000000 0.000000 0.000000 0.042956
#
#
# Mechanical properties :
#
#
# Convention : Reuss Voigt Hill
#
# Bulk Modulus (GPa) = 59.67178 60.05307 59.86242
# Shear Modulus (GPa) = 28.78576 30.92717 29.85647
#
# Velocity S-wave (km/s) = 3.68551 3.82013 3.75342
# Velocity P-wave (km/s) = 6.80202 6.91337 6.85792
#
# Compressibility (1/GPa) = 0.01675834
#
# Stress axis : x y z
#
# Youngs Moduli (GPa) = 68.38939 68.38939 121.53909
#
# Poissons Ratio (x) = 0.46888 0.21275
# Poissons Ratio (y) = 0.46888 0.21275
# Poissons Ratio (z) = 0.11971 0.11971
#
# Static dielectric constant tensor:
#      x y z
#    x 1.798530 0.000000 0.000000 
#    y 0.000000 1.798530 0.000000 
#    z 0.000000 0.000000 1.762110 
# 
# From -- ./inp_files/8679.got.cif
#   From: 2010.05.17/outbox.cif.g08.bks.cpg/sg181_5_cif.got.tgz:8679.got - 2010.05.20 11:51:17.
