data_PCOD9584596
_publ_section_title
;
Structure prediction by ZEFSAII (Michael W. Deem and Ramdas Pophale) SiO2 
 PCOD9584596
Probable space group: P 64 2 2
;
_chemical_formula_sum "Si O2"
_cell_formula_units_Z 54
_cell_length_a 12.000000
_cell_length_b 12.000000
_cell_length_c 21.000000
_cell_angle_alpha 90.000000
_cell_angle_beta 90.000000
_cell_angle_gamma 120.000000
_cell_volume 2618.860821
_symmetry_space_group_name_H-M "P 64 2 2"
_symmetry_group_IT_number 181
_symmetry_cell_setting 'hexagonal'
loop_
_space_group_symop_operation_xyz
x,y,z
x-y,x,2/3+z
-y,x-y,1/3+z
-x,-y,z
-x+y,-x,2/3+z
y,-x+y,1/3+z
x-y,-y,-z
-x,-x+y,2/3-z
y,x,1/3-z
-y,-x,1/3-z
-x+y,y,-z
x,x-y,2/3-z
loop_
_atom_site_type_symbol
_atom_site_label
_atom_site_fract_x
_atom_site_fract_y
_atom_site_fract_z
Si Si1 0.629284 0.425993 0.946057
Si Si2 0.230732 0.330541 0.222589
Si Si3 0.974041 0.114892 0.257570
Si Si4 0.767247 0.383624 0.833334
Si Si5 0.671676 0.699839 0.965394
O O1 0.677353 0.405093 0.880210
O O2 0.687628 0.578152 0.952723
O O3 0.477460 0.350873 0.952767
O O4 0.689719 0.379437 0.000000
O O5 0.260144 0.260144 0.166667
O O6 0.325221 0.481464 0.205447
O O7 0.269146 0.305795 0.292614
O O8 0.074258 0.253179 0.226981
O O9 0.822852 0.064615 0.255129
O O10 0.000000 0.131551 0.333334
O O11 0.000000 0.000000 0.237372
#
# Coordination Sequence:
#
# PCOD9584596 Si02
#       5
#    12  12  12   6  12
#     4  11  23  43  69  96 134 183 226 283 346 413
#     4  11  23  40  68 105 133 171 229 293 342 407
#     4   9  21  41  65  94 131 173 217 274 347 410
#     4  12  25  42  66 102 137 178 236 280 336 414
#     4  10  23  45  69  96 135 181 225 282 352 418
#
# _framework density 20.619651999999999
#
# number of rings (size 3 to 8) (size 9 to 14) (size 15 to 20)
#    0.000    1.556    2.222    1.667   12.444    0.444 
#    8.000    0.000    0.000    0.000    0.000    0.000 
#    0.000    0.000    0.000    0.000    0.000    0.000 
#
# Total GULP energy -301262.103177 kJ/mol
# GULP energy per Si atom -5578.927837 kJ/mol
# Density = 2.057272 g / cm^3
# Si number density = 20.619652 Si / 1000 Ang^3
#
#
#
# Elastic Constant Matrix: (Units=GPa)
#
#
# Indices 1 2 3 4 5 6 
#
# 1 99.5494 80.3972 44.0603 0.0000 0.0000 0.0000
# 2 80.3972 99.5494 44.0603 0.0000 0.0000 0.0000
# 3 44.0603 44.0603 107.3215 0.0000 0.0000 0.0000
# 4 0.0000 0.0000 0.0000 42.0615 0.0000 0.0000
# 5 0.0000 0.0000 0.0000 0.0000 42.0615 0.0000
# 6 0.0000 0.0000 0.0000 0.0000 0.0000 9.5761
#
#
#
# Elastic Compliance Matrix: (Units=1/GPa)
#
#
# Indices 1 2 3 4 5 6 
#
# 1 0.029584 -0.022629 -0.002856 0.000000 0.000000 0.000000
# 2 -0.022629 0.029584 -0.002856 0.000000 0.000000 0.000000
# 3 -0.002856 -0.002856 0.011662 0.000000 0.000000 0.000000
# 4 0.000000 0.000000 0.000000 0.023775 0.000000 0.000000
# 5 0.000000 0.000000 0.000000 0.000000 0.023775 0.000000
# 6 0.000000 0.000000 0.000000 0.000000 0.000000 0.104426
#
#
# Mechanical properties :
#
#
# Convention : Reuss Voigt Hill
#
# Bulk Modulus (GPa) = 70.66468 71.49510 71.07989
# Shear Modulus (GPa) = 17.59299 27.93334 22.76316
#
# Velocity S-wave (km/s) = 2.92415 3.68461 3.32619
# Velocity P-wave (km/s) = 6.76357 7.26983 7.02126
#
# Compressibility (1/GPa) = 0.01415134
#
# Stress axis : x y z
#
# Youngs Moduli (GPa) = 33.80160 33.80160 85.74499
#
# Poissons Ratio (x) = 0.76489 0.24485
# Poissons Ratio (y) = 0.76489 0.24485
# Poissons Ratio (z) = 0.09652 0.09652
#
# Static dielectric constant tensor:
#      x y z
#    x 1.818960 0.000000 0.000000 
#    y 0.000000 1.818960 0.000000 
#    z 0.000000 0.000000 1.736690 
# 
# From -- ./inp_files/8758.got.cif
#   From: 2010.05.17/outbox.ucp.g08.bks.cvg/sg181_5_cif.got.tgz:8758.got - 2010.06.11 15:20:36.
