data_PCOD9584073
_publ_section_title
;
Structure prediction by ZEFSAII (Michael W. Deem and Ramdas Pophale) SiO2 
 PCOD9584073
Probable space group: P 62 2 2
;
_chemical_formula_sum "Si O2"
_cell_formula_units_Z 48
_cell_length_a 13.874702
_cell_length_b 13.874702
_cell_length_c 13.940388
_cell_angle_alpha 90.000000
_cell_angle_beta 90.000000
_cell_angle_gamma 120.000000
_cell_volume 2324.089355
_symmetry_space_group_name_H-M "P 62 2 2"
_symmetry_group_IT_number 180
_symmetry_cell_setting 'hexagonal'
loop_
_space_group_symop_operation_xyz
x,y,z
x-y,x,1/3+z
-y,x-y,2/3+z
-x,-y,z
-x+y,-x,1/3+z
y,-x+y,2/3+z
x-y,-y,-z
-x,-x+y,1/3-z
y,x,2/3-z
-y,-x,2/3-z
-x+y,y,-z
x,x-y,1/3-z
loop_
_atom_site_type_symbol
_atom_site_label
_atom_site_fract_x
_atom_site_fract_y
_atom_site_fract_z
Si Si1 0.288672 0.539963 0.893520
Si Si2 0.884529 0.166312 0.226594
Si Si3 0.471640 0.879533 0.110192
Si Si4 0.230488 0.957636 0.892032
O O1 0.400489 0.599512 0.833334
O O2 0.256073 0.411795 0.903614
O O3 0.207677 0.573255 0.836658
O O4 0.292158 0.584315 0.000000
O O5 0.881861 0.118140 0.333334
O O6 0.000000 0.213566 0.166667
O O7 0.781863 0.070438 0.167981
O O8 0.592406 0.888883 0.108651
O O9 0.500000 0.000000 0.147334
O O10 0.434597 0.869194 0.000000
O O11 0.117192 0.882809 0.833334
O O12 0.229621 0.000000 0.000000
#
# Coordination Sequence:
#
# PCOD9584073 Si02
#       4
#    12  12  12  12
#     4  11  24  41  64  98 134 174 220 274 344 411
#     4  11  25  44  62  90 132 174 220 276 331 409
#     4  11  20  41  70  99 135 168 223 286 348 415
#     4  12  24  42  70 100 127 175 226 285 347 404
#
# _framework density 20.653251000000001
#
# number of rings (size 3 to 8) (size 9 to 14) (size 15 to 20)
#    0.000    0.750    5.000    3.000    0.000    5.000 
#    0.000    2.500    0.000    0.000    0.000    0.000 
#    0.000    0.000    0.000    0.000    0.000    0.000 
#
# Total GULP energy -267611.833826 kJ/mol
# GULP energy per Si atom -5575.246538 kJ/mol
# Density = 2.060624 g / cm^3
# Si number density = 20.653251 Si / 1000 Ang^3
#
#
#
# Elastic Constant Matrix: (Units=GPa)
#
#
# Indices 1 2 3 4 5 6 
#
# 1 58.4615 26.4357 34.3254 0.0000 0.0000 0.0000
# 2 26.4357 58.4615 34.3254 0.0000 0.0000 0.0000
# 3 34.3254 34.3254 140.3696 0.0000 0.0000 0.0000
# 4 0.0000 0.0000 0.0000 24.0139 0.0000 0.0000
# 5 0.0000 0.0000 0.0000 0.0000 24.0139 0.0000
# 6 0.0000 0.0000 0.0000 0.0000 0.0000 16.0129
#
#
#
# Elastic Compliance Matrix: (Units=1/GPa)
#
#
# Indices 1 2 3 4 5 6 
#
# 1 0.022954 -0.008271 -0.003590 0.000000 0.000000 0.000000
# 2 -0.008271 0.022954 -0.003590 0.000000 0.000000 0.000000
# 3 -0.003590 -0.003590 0.008880 0.000000 0.000000 0.000000
# 4 0.000000 0.000000 0.000000 0.041643 0.000000 0.000000
# 5 0.000000 0.000000 0.000000 0.000000 0.041643 0.000000
# 6 0.000000 0.000000 0.000000 0.000000 0.000000 0.062450
#
#
# Mechanical properties :
#
#
# Convention : Reuss Voigt Hill
#
# Bulk Modulus (GPa) = 41.87058 49.71836 45.79447
# Shear Modulus (GPa) = 20.88669 23.62186 22.25428
#
# Velocity S-wave (km/s) = 3.18355 3.38559 3.28612
# Velocity P-wave (km/s) = 5.81639 6.27758 6.05138
#
# Compressibility (1/GPa) = 0.02388312
#
# Stress axis : x y z
#
# Youngs Moduli (GPa) = 43.56629 43.56629 112.61289
#
# Poissons Ratio (x) = 0.36035 0.40432
# Poissons Ratio (y) = 0.36035 0.40432
# Poissons Ratio (z) = 0.15642 0.15642
#
# Static dielectric constant tensor:
#      x y z
#    x 1.792850 0.000000 0.000000 
#    y 0.000000 1.792850 0.000000 
#    z 0.000000 0.000000 1.729690 
# 
# From -- ./inp_files/4377.got.cif
#   From: 2010.05.17/outbox.cif.g08.bks.cpg/sg180_3_cif.got.tgz:4377.got - 2010.05.20 11:43:55.
