data_PCOD9584196
_publ_section_title
;
Structure prediction by ZEFSAII (Michael W. Deem and Ramdas Pophale) SiO2 
 PCOD9584196
Probable space group: P 62 2 2
;
_chemical_formula_sum "Si O2"
_cell_formula_units_Z 72
_cell_length_a 15.000000
_cell_length_b 15.000000
_cell_length_c 18.000000
_cell_angle_alpha 90.000000
_cell_angle_beta 90.000000
_cell_angle_gamma 120.000000
_cell_volume 3507.402885
_symmetry_space_group_name_H-M "P 62 2 2"
_symmetry_group_IT_number 180
_symmetry_cell_setting 'hexagonal'
loop_
_space_group_symop_operation_xyz
x,y,z
x-y,x,1/3+z
-y,x-y,2/3+z
-x,-y,z
-x+y,-x,1/3+z
y,-x+y,2/3+z
x-y,-y,-z
-x,-x+y,1/3-z
y,x,2/3-z
-y,-x,2/3-z
-x+y,y,-z
x,x-y,1/3-z
loop_
_atom_site_type_symbol
_atom_site_label
_atom_site_fract_x
_atom_site_fract_y
_atom_site_fract_z
Si Si1 0.639225 0.485232 0.506436
Si Si2 0.780181 0.308758 0.605933
Si Si3 0.386086 0.916662 0.658222
Si Si4 0.096860 0.154272 0.412944
Si Si5 0.295772 0.239597 0.620686
Si Si6 0.336565 0.030753 0.880812
O O1 0.758870 0.517740 0.500000
O O2 0.576890 0.372773 0.469916
O O3 0.606868 0.486665 0.591247
O O4 0.629360 0.574180 0.463288
O O5 0.777311 0.388656 0.666667
O O6 0.683499 0.192556 0.615534
O O7 0.881937 0.296726 0.604321
O O8 0.500000 0.000000 0.629672
O O9 0.332793 0.986537 0.668650
O O10 0.099500 0.099500 0.333334
O O11 0.056299 0.112598 0.500000
O O12 0.217373 0.238848 0.427212
O O13 0.020836 0.195872 0.391570
O O14 0.314576 0.157288 0.666667
O O15 0.342213 0.265727 0.536348
#
# Coordination Sequence:
#
# PCOD9584196 Si02
#       6
#    12  12  12  12  12  12
#     4  11  21  41  66 104 145 176 232 298 376 454
#     4  12  25  41  69 109 140 180 243 306 367 460
#     4  11  24  46  67  95 138 193 235 297 377 443
#     4  10  21  39  66 100 143 188 242 309 383 462
#     4  10  22  45  72  95 135 194 247 299 369 459
#     4  10  22  40  68 106 145 184 229 309 392 454
#
# _framework density 20.528009999999998
#
# number of rings (size 3 to 8) (size 9 to 14) (size 15 to 20)
#    0.000    1.333    1.667    6.000    2.333    1.667 
#    3.000   10.000    0.000    0.000    0.000    0.000 
#    0.000    0.000    0.000    0.000    0.000    0.000 
#
# Total GULP energy -401667.221526 kJ/mol
# GULP energy per Si atom -5578.711410 kJ/mol
# Density = 2.048129 g / cm^3
# Si number density = 20.528010 Si / 1000 Ang^3
#
#
#
# Elastic Constant Matrix: (Units=GPa)
#
#
# Indices 1 2 3 4 5 6 
#
# 1 145.3692 61.2234 45.2050 0.0000 0.0000 0.0000
# 2 61.2234 145.3692 45.2050 0.0000 0.0000 0.0000
# 3 45.2050 45.2050 87.0055 0.0000 0.0000 0.0000
# 4 0.0000 0.0000 0.0000 39.2015 0.0000 0.0000
# 5 0.0000 0.0000 0.0000 0.0000 39.2015 0.0000
# 6 0.0000 0.0000 0.0000 0.0000 0.0000 42.0729
#
#
#
# Elastic Compliance Matrix: (Units=1/GPa)
#
#
# Indices 1 2 3 4 5 6 
#
# 1 0.009075 -0.002810 -0.003255 0.000000 0.000000 0.000000
# 2 -0.002810 0.009075 -0.003255 0.000000 0.000000 0.000000
# 3 -0.003255 -0.003255 0.014876 0.000000 0.000000 0.000000
# 4 0.000000 0.000000 0.000000 0.025509 0.000000 0.000000
# 5 0.000000 0.000000 0.000000 0.000000 0.025509 0.000000
# 6 0.000000 0.000000 0.000000 0.000000 0.000000 0.023768
#
#
# Mechanical properties :
#
#
# Convention : Reuss Voigt Hill
#
# Bulk Modulus (GPa) = 69.51376 75.66786 72.59081
# Shear Modulus (GPa) = 38.09633 39.16922 38.63278
#
# Velocity S-wave (km/s) = 4.31260 4.37290 4.34286
# Velocity P-wave (km/s) = 7.66384 7.90172 7.78369
#
# Compressibility (1/GPa) = 0.01438564
#
# Stress axis : x y z
#
# Youngs Moduli (GPa) = 110.19850 110.19850 67.22273
#
# Poissons Ratio (x) = 0.30961 0.21881
# Poissons Ratio (y) = 0.30961 0.21881
# Poissons Ratio (z) = 0.35870 0.35870
#
# Static dielectric constant tensor:
#      x y z
#    x 1.760240 0.000000 0.000000 
#    y 0.000000 1.760240 0.000000 
#    z 0.000000 0.000000 1.789030 
# 
# From -- ./inp_files/7774.got.cif
#   From: 2010.05.17/outbox.ucp.g08.bks.cvg/sg180_4_cif.got.tgz:7774.got - 2010.06.11 15:20:15.
