data_PCOD9584711
_publ_section_title
;
Structure prediction by ZEFSAII (Michael W. Deem and Ramdas Pophale) SiO2 
 PCOD9584711
Probable space group: P 63 2 2
;
_chemical_formula_sum "Si O2"
_cell_formula_units_Z 58
_cell_length_a 15.463079
_cell_length_b 15.463079
_cell_length_c 14.386154
_cell_angle_alpha 90.000000
_cell_angle_beta 90.000000
_cell_angle_gamma 120.000000
_cell_volume 2978.977932
_symmetry_space_group_name_H-M "P 63 2 2"
_symmetry_group_IT_number 182
_symmetry_cell_setting 'hexagonal'
loop_
_space_group_symop_operation_xyz
x,y,z
x-y,x,1/2+z
-y,x-y,z
-x,-y,1/2+z
-x+y,-x,z
y,-x+y,1/2+z
x-y,-y,-z
-x,-x+y,-z
y,x,-z
-y,-x,1/2-z
-x+y,y,1/2-z
x,x-y,1/2-z
loop_
_atom_site_type_symbol
_atom_site_label
_atom_site_fract_x
_atom_site_fract_y
_atom_site_fract_z
Si Si1 0.601808 0.203615 0.250000
Si Si2 0.333334 0.666668 0.360877
Si Si3 0.235198 0.035829 0.308221
Si Si4 0.351071 0.911997 0.616391
Si Si5 0.351949 0.175975 0.750000
Si Si6 0.000000 0.115018 0.500000
Si Si7 0.147929 0.472556 0.409955
O O1 0.720109 0.279892 0.250000
O O2 0.588743 0.136119 0.162431
O O3 0.333334 0.666667 0.250000
O O4 0.222163 0.589564 0.395534
O O5 0.200133 0.100067 0.250000
O O6 0.352990 0.096010 0.328807
O O7 0.218585 0.941927 0.247217
O O8 0.175797 0.003031 0.407164
O O9 0.306771 0.859568 0.518217
O O10 0.428006 0.031084 0.612571
O O11 0.419044 0.230053 0.840288
O O12 0.093183 0.093183 0.500000
#
# Coordination Sequence:
#
# PCOD9584711 Si02
#       7
#     6   4  12  12   6   6  12
#     4  10  24  40  65  90 119 162 222 268 316 394
#     4  12  24  39  69 103 125 169 213 267 324 406
#     4  11  21  37  63  91 127 177 219 267 329 393
#     4  10  23  43  63  90 130 174 210 272 334 390
#     4  10  20  38  59  86 131 166 210 266 322 396
#     4  10  22  36  58  94 138 172 220 276 314 394
#     4  10  23  40  64  93 130 167 211 263 334 394
#
# _framework density 19.469767000000001
#
# number of rings (size 3 to 8) (size 9 to 14) (size 15 to 20)
#    0.414    1.241    1.034    4.345    4.345    0.000 
#    0.621    0.000    0.000    0.000    0.000    0.000 
#    0.000    0.000    0.000    0.000    0.000    0.000 
#
# Total GULP energy -323001.544129 kJ/mol
# GULP energy per Si atom -5568.992140 kJ/mol
# Density = 1.942545 g / cm^3
# Si number density = 19.469767 Si / 1000 Ang^3
#
#
#
# Elastic Constant Matrix: (Units=GPa)
#
#
# Indices 1 2 3 4 5 6 
#
# 1 49.9951 44.1268 51.0402 -0.0003 0.0004 0.0003
# 2 44.1268 49.9967 51.0402 0.0000 -0.0001 0.0000
# 3 51.0402 51.0402 119.5046 0.0000 -0.0002 0.0000
# 4 -0.0003 0.0000 0.0000 20.7006 -0.0001 0.0003
# 5 0.0004 -0.0001 -0.0002 -0.0001 20.6982 0.0002
# 6 0.0003 0.0000 0.0000 0.0003 0.0002 2.9344
#
#
#
# Elastic Compliance Matrix: (Units=1/GPa)
#
#
# Indices 1 2 3 4 5 6 
#
# 1 0.095091 -0.075296 -0.008454 0.000002 -0.000003 -0.000009
# 2 -0.075296 0.095086 -0.008452 -0.000001 0.000002 0.000008
# 3 -0.008454 -0.008452 0.015589 0.000000 0.000000 0.000000
# 4 0.000002 -0.000001 0.000000 0.048308 0.000000 -0.000005
# 5 -0.000003 0.000002 0.000000 0.000000 0.048313 -0.000003
# 6 -0.000009 0.000008 0.000000 -0.000005 -0.000003 0.340786
#
#
# Mechanical properties :
#
#
# Convention : Reuss Voigt Hill
#
# Bulk Modulus (GPa) = 46.81585 56.87897 51.84741
# Shear Modulus (GPa) = 5.99020 13.75260 9.87140
#
# Velocity S-wave (km/s) = 1.75595 2.66062 2.25413
# Velocity P-wave (km/s) = 5.31119 6.22221 5.78466
#
# Compressibility (1/GPa) = 0.02136029
#
# Stress axis : x y z
#
# Youngs Moduli (GPa) = 10.51622 10.51684 64.14924
#
# Poissons Ratio (x) = 0.79188 0.54235
# Poissons Ratio (y) = 0.79183 0.54220
# Poissons Ratio (z) = 0.08891 0.08889
#
# Static dielectric constant tensor:
#      x y z
#    x 1.703220 0.000000 0.000000 
#    y 0.000000 1.703220 0.000000 
#    z 0.000000 0.000000 1.701190 
# 
# From -- ./inp_files/3525.got.cif
#   From: 2010.05.17/outbox.cif.g08.bks.cpg/sg182_2_cif.got.tgz:3525.got - 2010.05.20 11:58:53.
