data_PCOD9584505
_publ_section_title
;
Structure prediction by ZEFSAII (Michael W. Deem and Ramdas Pophale) SiO2 
 PCOD9584505
Probable space group: P 64 2 2
;
_chemical_formula_sum "Si O2"
_cell_formula_units_Z 60
_cell_length_a 13.861308
_cell_length_b 13.861308
_cell_length_c 16.706983
_cell_angle_alpha 90.000000
_cell_angle_beta 90.000000
_cell_angle_gamma 120.000000
_cell_volume 2779.950672
_symmetry_space_group_name_H-M "P 64 2 2"
_symmetry_group_IT_number 181
_symmetry_cell_setting 'hexagonal'
loop_
_space_group_symop_operation_xyz
x,y,z
x-y,x,2/3+z
-y,x-y,1/3+z
-x,-y,z
-x+y,-x,2/3+z
y,-x+y,1/3+z
x-y,-y,-z
-x,-x+y,2/3-z
y,x,1/3-z
-y,-x,1/3-z
-x+y,y,-z
x,x-y,2/3-z
loop_
_atom_site_type_symbol
_atom_site_label
_atom_site_fract_x
_atom_site_fract_y
_atom_site_fract_z
Si Si1 0.794670 0.186692 0.016185
Si Si2 0.689720 0.893071 0.155181
Si Si3 0.695236 0.347618 0.333334
Si Si4 0.387397 0.402033 0.954681
Si Si5 0.334520 0.503553 0.106311
Si Si6 0.887613 0.775225 0.500000
O O1 0.702160 0.224426 0.021573
O O2 0.827086 0.136621 0.091949
O O3 0.906113 0.305380 0.003869
O O4 0.774496 0.112411 0.938056
O O5 0.646371 0.954465 0.213242
O O6 0.606013 0.766138 0.185084
O O7 0.822865 0.976527 0.169780
O O8 0.610766 0.285440 0.408160
O O9 0.500000 0.500000 0.920993
O O10 0.351222 0.456468 0.023506
O O11 0.438013 0.561988 0.166667
#
# Coordination Sequence:
#
# PCOD9584505 Si02
#       6
#    12  12   6  12  12   6
#     4  11  24  39  63  91 130 172 222 272 337 417
#     4  11  22  41  62  90 124 176 221 281 339 411
#     4  12  22  38  57  98 132 167 208 272 338 426
#     4  11  21  39  61  96 133 171 217 280 347 415
#     4  12  22  38  65  97 136 169 217 282 352 419
#     4  10  26  44  64  83 128 177 232 276 334 418
#
# _framework density 21.583117999999999
#
# number of rings (size 3 to 8) (size 9 to 14) (size 15 to 20)
#    0.000    0.800    6.000    0.600    1.400    6.000 
#    0.000    1.000    0.000    2.400    0.000   11.200 
#    0.000    0.000    0.000    0.000    0.000    0.000 
#
# Total GULP energy -334198.988070 kJ/mol
# GULP energy per Si atom -5569.983135 kJ/mol
# Density = 2.153399 g / cm^3
# Si number density = 21.583118 Si / 1000 Ang^3
#
#
#
# Elastic Constant Matrix: (Units=GPa)
#
#
# Indices 1 2 3 4 5 6 
#
# 1 25.0091 80.9003 6.8587 0.0000 0.0000 0.0000
# 2 80.9003 25.0091 6.8587 0.0000 0.0000 0.0000
# 3 6.8587 6.8587 106.2916 0.0000 0.0000 0.0000
# 4 0.0000 0.0000 0.0000 636.1071 0.0000 0.0000
# 5 0.0000 0.0000 0.0000 0.0000 636.1071 0.0000
# 6 0.0000 0.0000 0.0000 0.0000 0.0000 -27.9456
#
#
#
# Elastic Compliance Matrix: (Units=1/GPa)
#
#
# Indices 1 2 3 4 5 6 
#
# 1 -0.004185 0.013707 -0.000614 0.000000 0.000000 0.000000
# 2 0.013707 -0.004185 -0.000614 0.000000 0.000000 0.000000
# 3 -0.000614 -0.000614 0.009487 0.000000 0.000000 0.000000
# 4 0.000000 0.000000 0.000000 0.001572 0.000000 0.000000
# 5 0.000000 0.000000 0.000000 0.000000 0.001572 0.000000
# 6 0.000000 0.000000 0.000000 0.000000 0.000000 -0.035784
#
#
# Mechanical properties :
#
#
# Convention : Reuss Voigt Hill
#
# Bulk Modulus (GPa) = 38.35388 38.39391 38.37390
# Shear Modulus (GPa) = -104.62986 252.96653 74.16834
#
# Velocity S-wave (km/s) = -6.97014 10.83790 5.86845
# Velocity P-wave (km/s) = 6.85334 13.20761 7.98351
#
# Compressibility (1/GPa) = 0.02607298
#
# Stress axis : x y z
#
# Youngs Moduli (GPa) = -238.94032 -238.94032 105.40326
#
# Poissons Ratio (x) = 3.27510 0.06476
# Poissons Ratio (y) = 3.27510 0.06476
# Poissons Ratio (z) = -0.14681 -0.14681
#
# Static dielectric constant tensor:
#      x y z
#    x 1.929170 0.000000 0.000000 
#    y 0.000000 1.929170 0.000000 
#    z 0.000000 0.000000 1.756260 
# 
# From -- ./inp_files/6176.got.cif
#   From: 2010.05.17/outbox.cif.g08.bks.cpg/sg181_4_cif.got.tgz:6176.got - 2010.05.20 11:51:17.
