data_PCOD9584247
_publ_section_title
;
Structure prediction by ZEFSAII (Michael W. Deem and Ramdas Pophale) SiO2 
 PCOD9584247
Probable space group: P 64 2 2
;
_chemical_formula_sum "Si O2"
_cell_formula_units_Z 84
_cell_length_a 14.670279
_cell_length_b 14.670279
_cell_length_c 25.569475
_cell_angle_alpha 90.000000
_cell_angle_beta 90.000000
_cell_angle_gamma 120.000000
_cell_volume 4765.727317
_symmetry_space_group_name_H-M "P 64 2 2"
_symmetry_group_IT_number 181
_symmetry_cell_setting 'hexagonal'
loop_
_space_group_symop_operation_xyz
x,y,z
x-y,x,2/3+z
-y,x-y,1/3+z
-x,-y,z
-x+y,-x,2/3+z
y,-x+y,1/3+z
x-y,-y,-z
-x,-x+y,2/3-z
y,x,1/3-z
-y,-x,1/3-z
-x+y,y,-z
x,x-y,2/3-z
loop_
_atom_site_type_symbol
_atom_site_label
_atom_site_fract_x
_atom_site_fract_y
_atom_site_fract_z
Si Si1 0.301760 0.297111 0.571868
Si Si2 0.197549 0.278299 0.423895
Si Si3 0.808027 0.317472 0.114268
Si Si4 0.377380 0.846698 0.055789
Si Si5 0.899583 0.787000 0.689118
Si Si6 0.895386 0.508479 0.176236
Si Si7 0.917912 0.873794 0.111538
O O1 0.186363 0.277097 0.557145
O O2 0.356161 0.412910 0.598870
O O3 0.286868 0.207427 0.612265
O O4 0.372305 0.302471 0.522813
O O5 0.295822 0.390895 0.439330
O O6 0.184121 0.268590 0.360802
O O7 0.186750 0.169737 0.442744
O O8 0.749358 0.250643 0.166667
O O9 0.732654 0.259890 0.065436
O O10 0.830715 0.434170 0.127905
O O11 0.450099 0.844489 0.102323
O O12 0.428095 0.856189 0.000000
O O13 0.878039 0.878039 0.666667
O O14 0.994602 0.839273 0.729649
O O15 0.000000 0.500000 0.172083
O O16 0.860608 0.860608 0.166667
O O17 0.000000 0.000000 0.107312
#
# Coordination Sequence:
#
# PCOD9584247 Si02
#       7
#    12  12  12  12  12  12  12
#     4   9  18  27  42  69  94 130 164 205 246 301
#     4  10  20  29  49  64 101 138 178 204 240 291
#     4   9  19  33  42  66  97 129 158 202 253 305
#     4   9  18  27  44  64  93 122 160 200 247 308
#     4  10  19  30  43  67 100 133 178 211 236 283
#     4   9  18  29  43  63  93 123 159 197 249 307
#     4  11  21  29  43  67  99 147 181 206 233 283
#
# _framework density 17.625851999999998
#
# number of rings (size 3 to 8) (size 9 to 14) (size 15 to 20)
#    0.000    2.429    2.857    1.286   10.000    4.286 
#    0.000    0.000    0.000    0.000    0.000    4.000 
#    0.000    0.000    0.000    0.000    0.000   16.286 
#
# Total GULP energy -468227.965799 kJ/mol
# GULP energy per Si atom -5574.142450 kJ/mol
# Density = 1.758573 g / cm^3
# Si number density = 17.625852 Si / 1000 Ang^3
#
#
#
# Elastic Constant Matrix: (Units=GPa)
#
#
# Indices 1 2 3 4 5 6 
#
# 1 63.3636 29.9116 41.4716 0.0000 0.0000 0.0000
# 2 29.9116 63.3636 41.4716 0.0000 0.0000 0.0000
# 3 41.4716 41.4716 79.7367 0.0000 0.0000 0.0000
# 4 0.0000 0.0000 0.0000 28.5371 0.0000 0.0000
# 5 0.0000 0.0000 0.0000 0.0000 28.5371 0.0000
# 6 0.0000 0.0000 0.0000 0.0000 0.0000 16.7260
#
#
#
# Elastic Compliance Matrix: (Units=1/GPa)
#
#
# Indices 1 2 3 4 5 6 
#
# 1 0.024920 -0.004974 -0.010374 0.000000 0.000000 0.000000
# 2 -0.004974 0.024920 -0.010374 0.000000 0.000000 0.000000
# 3 -0.010374 -0.010374 0.023332 0.000000 0.000000 0.000000
# 4 0.000000 0.000000 0.000000 0.035042 0.000000 0.000000
# 5 0.000000 0.000000 0.000000 0.000000 0.035042 0.000000
# 6 0.000000 0.000000 0.000000 0.000000 0.000000 0.059787
#
#
# Mechanical properties :
#
#
# Convention : Reuss Voigt Hill
#
# Bulk Modulus (GPa) = 46.02313 48.01930 47.02121
# Shear Modulus (GPa) = 19.10371 21.00066 20.05219
#
# Velocity S-wave (km/s) = 3.29575 3.45551 3.37658
# Velocity P-wave (km/s) = 6.37577 6.57446 6.47588
#
# Compressibility (1/GPa) = 0.02172821
#
# Stress axis : x y z
#
# Youngs Moduli (GPa) = 40.12896 40.12896 42.85883
#
# Poissons Ratio (x) = 0.19960 0.44462
# Poissons Ratio (y) = 0.19960 0.44462
# Poissons Ratio (z) = 0.41630 0.41630
#
# Static dielectric constant tensor:
#      x y z
#    x 1.654040 0.000000 0.000000 
#    y 0.000000 1.654040 0.000000 
#    z 0.000000 0.000000 1.663050 
# 
# From -- ./inp_files/11357.got.cif
#   From: 2010.05.17/outbox.cif.g08.bks.cpg/sg181_6_cif.got.tgz:11357.got - 2010.05.20 11:51:17.
