data_PCOD9584301
_publ_section_title
;
Structure prediction by ZEFSAII (Michael W. Deem and Ramdas Pophale) SiO2 
 PCOD9584301
Probable space group: P 64 2 2
;
_chemical_formula_sum "Si O2"
_cell_formula_units_Z 63
_cell_length_a 13.815267
_cell_length_b 13.815267
_cell_length_c 18.035384
_cell_angle_alpha 90.000000
_cell_angle_beta 90.000000
_cell_angle_gamma 120.000000
_cell_volume 2981.086588
_symmetry_space_group_name_H-M "P 64 2 2"
_symmetry_group_IT_number 181
_symmetry_cell_setting 'hexagonal'
loop_
_space_group_symop_operation_xyz
x,y,z
x-y,x,2/3+z
-y,x-y,1/3+z
-x,-y,z
-x+y,-x,2/3+z
y,-x+y,1/3+z
x-y,-y,-z
-x,-x+y,2/3-z
y,x,1/3-z
-y,-x,1/3-z
-x+y,y,-z
x,x-y,2/3-z
loop_
_atom_site_type_symbol
_atom_site_label
_atom_site_fract_x
_atom_site_fract_y
_atom_site_fract_z
Si Si1 0.337492 0.373849 0.085013
Si Si2 0.794330 0.996581 0.915334
Si Si3 0.386429 0.818744 0.700448
Si Si4 0.000000 0.000000 0.166667
Si Si5 0.750040 0.110566 0.287299
Si Si6 0.881350 0.630819 0.134708
O O1 0.391863 0.391863 0.166667
O O2 0.211467 0.342937 0.103437
O O3 0.385701 0.481469 0.029388
O O4 0.338429 0.274429 0.038997
O O5 0.756575 0.081707 0.884288
O O6 0.815368 0.128754 0.082386
O O7 0.908439 0.021496 0.874605
O O8 0.824261 0.000000 0.000000
O O9 0.301994 0.698007 0.666667
O O10 0.507146 0.837759 0.718127
O O11 0.333862 0.838540 0.775157
O O12 0.703145 0.995880 0.242316
#
# Coordination Sequence:
#
# PCOD9584301 Si02
#       6
#    12  12  12   3  12  12
#     4  10  20  33  62 100 135 160 217 286 341 398
#     4  12  26  40  66  98 135 175 226 274 338 407
#     4   9  21  41  69  95 126 174 228 276 343 409
#     4  12  26  44  64  94 136 182 218 264 332 412
#     4  11  21  39  66  92 131 180 218 268 341 411
#     4  10  20  38  62  95 128 176 220 271 339 406
#
# _framework density 21.133234000000002
#
# number of rings (size 3 to 8) (size 9 to 14) (size 15 to 20)
#    0.000    1.524    1.905    5.429    4.000    3.048 
#    0.000    0.000   33.524    0.000    0.000    0.000 
#    0.000    0.000    0.000    0.000    0.000    0.000 
#
# Total GULP energy -350959.458984 kJ/mol
# GULP energy per Si atom -5570.785063 kJ/mol
# Density = 2.108513 g / cm^3
# Si number density = 21.133234 Si / 1000 Ang^3
#
#
#
# Elastic Constant Matrix: (Units=GPa)
#
#
# Indices 1 2 3 4 5 6 
#
# 1 103.2774 93.3903 33.0946 0.0000 0.0000 0.0000
# 2 93.3903 103.2774 33.0946 0.0000 0.0000 0.0000
# 3 33.0946 33.0946 73.8575 0.0000 0.0000 0.0000
# 4 0.0000 0.0000 0.0000 80.1989 0.0000 0.0000
# 5 0.0000 0.0000 0.0000 0.0000 80.1989 0.0000
# 6 0.0000 0.0000 0.0000 0.0000 0.0000 4.9436
#
#
#
# Elastic Compliance Matrix: (Units=1/GPa)
#
#
# Indices 1 2 3 4 5 6 
#
# 1 0.053565 -0.047577 -0.002683 0.000000 0.000000 0.000000
# 2 -0.047577 0.053565 -0.002683 0.000000 0.000000 0.000000
# 3 -0.002683 -0.002683 0.015944 0.000000 0.000000 0.000000
# 4 0.000000 0.000000 0.000000 0.012469 0.000000 0.000000
# 5 0.000000 0.000000 0.000000 0.000000 0.012469 0.000000
# 6 0.000000 0.000000 0.000000 0.000000 0.000000 0.202283
#
#
# Mechanical properties :
#
#
# Convention : Reuss Voigt Hill
#
# Bulk Modulus (GPa) = 58.18223 66.61906 62.40064
# Shear Modulus (GPa) = 10.82462 41.12380 25.97421
#
# Velocity S-wave (km/s) = 2.26566 4.41606 3.50961
# Velocity P-wave (km/s) = 5.86815 7.58906 6.78340
#
# Compressibility (1/GPa) = 0.01718738
#
# Stress axis : x y z
#
# Youngs Moduli (GPa) = 18.66901 18.66901 62.71933
#
# Poissons Ratio (x) = 0.88822 0.16828
# Poissons Ratio (y) = 0.88822 0.16828
# Poissons Ratio (z) = 0.05009 0.05009
#
# Static dielectric constant tensor:
#      x y z
#    x 1.120260 0.000000 0.000000 
#    y 0.000000 1.120260 0.000000 
#    z 0.000000 0.000000 1.962260 
# 
# From -- ./inp_files/7694.got.cif
#   From: 2010.05.17/outbox.cif.g08.bks.cpg/sg181_4_cif.got.tgz:7694.got - 2010.05.20 11:51:17.
