data_PCOD9584386
_publ_section_title
;
Structure prediction by ZEFSAII (Michael W. Deem and Ramdas Pophale) SiO2 
 PCOD9584386
Probable space group: P 64 2 2
;
_chemical_formula_sum "Si O2"
_cell_formula_units_Z 54
_cell_length_a 13.948369
_cell_length_b 13.948369
_cell_length_c 12.633328
_cell_angle_alpha 90.000000
_cell_angle_beta 90.000000
_cell_angle_gamma 120.000000
_cell_volume 2128.605890
_symmetry_space_group_name_H-M "P 64 2 2"
_symmetry_group_IT_number 181
_symmetry_cell_setting 'hexagonal'
loop_
_space_group_symop_operation_xyz
x,y,z
x-y,x,2/3+z
-y,x-y,1/3+z
-x,-y,z
-x+y,-x,2/3+z
y,-x+y,1/3+z
x-y,-y,-z
-x,-x+y,2/3-z
y,x,1/3-z
-y,-x,1/3-z
-x+y,y,-z
x,x-y,2/3-z
loop_
_atom_site_type_symbol
_atom_site_label
_atom_site_fract_x
_atom_site_fract_y
_atom_site_fract_z
Si Si1 0.157906 0.885669 0.447985
Si Si2 0.590578 0.464304 0.544399
Si Si3 0.636375 0.363626 0.166667
Si Si4 0.724553 0.043677 0.235192
Si Si5 0.317004 0.440347 0.058112
O O1 0.047900 0.780481 0.494784
O O2 0.265163 0.882493 0.495933
O O3 0.175271 0.000000 0.500000
O O4 0.174797 0.899227 0.320921
O O5 0.500000 0.500000 0.523128
O O6 0.571439 0.428562 0.666667
O O7 0.588277 0.356287 0.496795
O O8 0.695736 0.577466 0.506399
O O9 0.613735 0.428280 0.072884
O O10 0.620710 0.982121 0.317419
O O11 0.205038 0.410075 0.000000
#
# Coordination Sequence:
#
# PCOD9584386 Si02
#       5
#    12  12   6  12  12
#     4   9  18  36  65 100 141 186 236 300 370 441
#     4  11  26  43  62  93 137 190 244 295 358 443
#     4  12  24  42  67  92 135 190 238 290 356 426
#     4  10  21  40  64  99 145 190 241 306 371 441
#     4   9  19  36  59  89 126 176 234 288 351 424
#
# _framework density 25.368718000000001
#
# number of rings (size 3 to 8) (size 9 to 14) (size 15 to 20)
#    0.000    2.000    0.000    5.333    0.000    8.889 
#    0.000    8.333    0.000    0.000    0.000    0.778 
#    0.000   35.556    0.000    4.889    0.000    0.000 
#
# Total GULP energy -300853.926708 kJ/mol
# GULP energy per Si atom -5571.369013 kJ/mol
# Density = 2.531098 g / cm^3
# Si number density = 25.368718 Si / 1000 Ang^3
#
#
#
# Elastic Constant Matrix: (Units=GPa)
#
#
# Indices 1 2 3 4 5 6 
#
# 1 130.5010 59.7120 66.1042 0.0000 0.0000 0.0000
# 2 59.7120 130.5010 66.1042 0.0000 0.0000 0.0000
# 3 66.1042 66.1042 160.7025 0.0000 0.0000 0.0000
# 4 0.0000 0.0000 0.0000 29.6882 0.0000 0.0000
# 5 0.0000 0.0000 0.0000 0.0000 29.6882 0.0000
# 6 0.0000 0.0000 0.0000 0.0000 0.0000 35.3945
#
#
#
# Elastic Compliance Matrix: (Units=1/GPa)
#
#
# Indices 1 2 3 4 5 6 
#
# 1 0.010744 -0.003382 -0.003028 0.000000 0.000000 0.000000
# 2 -0.003382 0.010744 -0.003028 0.000000 0.000000 0.000000
# 3 -0.003028 -0.003028 0.008714 0.000000 0.000000 0.000000
# 4 0.000000 0.000000 0.000000 0.033683 0.000000 0.000000
# 5 0.000000 0.000000 0.000000 0.000000 0.033683 0.000000
# 6 0.000000 0.000000 0.000000 0.000000 0.000000 0.028253
#
#
# Mechanical properties :
#
#
# Convention : Reuss Voigt Hill
#
# Bulk Modulus (GPa) = 88.30125 89.50504 88.90314
# Shear Modulus (GPa) = 33.67561 34.27312 33.97437
#
# Velocity S-wave (km/s) = 3.64737 3.67958 3.66351
# Velocity P-wave (km/s) = 7.25399 7.30826 7.28118
#
# Compressibility (1/GPa) = 0.01132487
#
# Stress axis : x y z
#
# Youngs Moduli (GPa) = 93.07237 93.07237 114.75648
#
# Poissons Ratio (x) = 0.31479 0.34753
# Poissons Ratio (y) = 0.31479 0.34753
# Poissons Ratio (z) = 0.28186 0.28186
#
# Static dielectric constant tensor:
#      x y z
#    x 2.094740 0.000000 0.000000 
#    y 0.000000 2.094740 0.000000 
#    z 0.000000 0.000000 2.162320 
# 
# From -- ./inp_files/5992.got.cif
#   From: 2010.05.17/outbox.cif.g08.bks.cpg/sg181_3_cif.got.tgz:5992.got - 2010.05.20 11:51:17.
