data_PCOD9584498
_publ_section_title
;
Structure prediction by ZEFSAII (Michael W. Deem and Ramdas Pophale) SiO2 
 PCOD9584498
Probable space group: P 64 2 2
;
_chemical_formula_sum "Si O2"
_cell_formula_units_Z 51
_cell_length_a 17.091132
_cell_length_b 17.091132
_cell_length_c 8.197029
_cell_angle_alpha 90.000000
_cell_angle_beta 90.000000
_cell_angle_gamma 120.000000
_cell_volume 2073.618028
_symmetry_space_group_name_H-M "P 64 2 2"
_symmetry_group_IT_number 181
_symmetry_cell_setting 'hexagonal'
loop_
_space_group_symop_operation_xyz
x,y,z
x-y,x,2/3+z
-y,x-y,1/3+z
-x,-y,z
-x+y,-x,2/3+z
y,-x+y,1/3+z
x-y,-y,-z
-x,-x+y,2/3-z
y,x,1/3-z
-y,-x,1/3-z
-x+y,y,-z
x,x-y,2/3-z
loop_
_atom_site_type_symbol
_atom_site_label
_atom_site_fract_x
_atom_site_fract_y
_atom_site_fract_z
Si Si1 0.420745 0.366663 0.937876
Si Si2 0.713702 0.475845 0.178433
Si Si3 0.739565 0.814314 0.980754
Si Si4 0.111312 0.222623 0.000000
Si Si5 0.142283 0.571142 0.333334
Si Si6 0.000000 0.500000 0.833334
O O1 0.317907 0.291356 0.936538
O O2 0.485651 0.403368 0.783443
O O3 0.465996 0.318194 0.045720
O O4 0.422947 0.451302 0.031471
O O5 0.620904 0.379097 0.166667
O O6 0.789238 0.458243 0.257511
O O7 0.755462 0.510923 0.000000
O O8 0.714259 0.857130 0.833334
O O9 0.725780 0.841681 0.162947
O O10 0.841973 0.837044 0.968962
#
# Coordination Sequence:
#
# PCOD9584498 Si02
#       6
#    12  12  12   6   6   3
#     4  12  26  44  68 102 147 196 254 311 373 449
#     4  12  20  37  63  96 139 189 244 299 349 419
#     4  11  24  49  76 116 150 196 252 320 394 482
#     4  10  24  48  78 110 152 192 250 312 397 487
#     4  12  22  41  65 102 142 188 248 304 371 433
#     4  12  24  50  60  92 144 198 258 308 380 450
#
# _framework density 24.594695000000002
#
# number of rings (size 3 to 8) (size 9 to 14) (size 15 to 20)
#    0.000    0.471    4.706    4.235    1.647    0.471 
#   16.941    7.059    0.000    0.000    0.000    0.000 
#    0.000    0.000    0.000    0.000    0.000    0.000 
#
# Total GULP energy -284127.591050 kJ/mol
# GULP energy per Si atom -5571.129236 kJ/mol
# Density = 2.453872 g / cm^3
# Si number density = 24.594695 Si / 1000 Ang^3
#
#
#
# Elastic Constant Matrix: (Units=GPa)
#
#
# Indices 1 2 3 4 5 6 
#
# 1 70.4286 3.8816 20.6470 0.0000 0.0000 0.0000
# 2 3.8816 70.4286 20.6470 0.0000 0.0000 0.0000
# 3 20.6470 20.6470 112.7549 0.0000 0.0000 0.0000
# 4 0.0000 0.0000 0.0000 30.9049 0.0000 0.0000
# 5 0.0000 0.0000 0.0000 0.0000 30.9049 0.0000
# 6 0.0000 0.0000 0.0000 0.0000 0.0000 33.2735
#
#
#
# Elastic Compliance Matrix: (Units=1/GPa)
#
#
# Indices 1 2 3 4 5 6 
#
# 1 0.015004 -0.000023 -0.002743 0.000000 0.000000 0.000000
# 2 -0.000023 0.015004 -0.002743 0.000000 0.000000 0.000000
# 3 -0.002743 -0.002743 0.009873 0.000000 0.000000 0.000000
# 4 0.000000 0.000000 0.000000 0.032357 0.000000 0.000000
# 5 0.000000 0.000000 0.000000 0.000000 0.032357 0.000000
# 6 0.000000 0.000000 0.000000 0.000000 0.000000 0.030054
#
#
# Mechanical properties :
#
#
# Convention : Reuss Voigt Hill
#
# Bulk Modulus (GPa) = 34.64611 38.21816 36.43213
# Shear Modulus (GPa) = 32.19771 32.91241 32.55506
#
# Velocity S-wave (km/s) = 3.62212 3.66210 3.64216
# Velocity P-wave (km/s) = 5.62231 5.78396 5.70371
#
# Compressibility (1/GPa) = 0.02886327
#
# Stress axis : x y z
#
# Youngs Moduli (GPa) = 66.64768 66.64768 101.28133
#
# Poissons Ratio (x) = 0.00151 0.27785
# Poissons Ratio (y) = 0.00151 0.27785
# Poissons Ratio (z) = 0.18284 0.18284
#
# Static dielectric constant tensor:
#      x y z
#    x 2.006280 0.000000 0.000000 
#    y 0.000000 2.006280 0.000000 
#    z 0.000000 0.000000 2.019130 
# 
# From -- ./inp_files/2840.got.cif
#   From: 2010.05.17/outbox.cif.g08.bks.cpg/sg181_2_cif.got.tgz:2840.got - 2010.05.20 11:51:17.
