data_PCOD9584592
_publ_section_title
;
Structure prediction by ZEFSAII (Michael W. Deem and Ramdas Pophale) SiO2 
 PCOD9584592
Probable space group: P 64 2 2
;
_chemical_formula_sum "Si O2"
_cell_formula_units_Z 51
_cell_length_a 17.457967
_cell_length_b 17.457967
_cell_length_c 8.374544
_cell_angle_alpha 90.000000
_cell_angle_beta 90.000000
_cell_angle_gamma 120.000000
_cell_volume 2210.442066
_symmetry_space_group_name_H-M "P 64 2 2"
_symmetry_group_IT_number 181
_symmetry_cell_setting 'hexagonal'
loop_
_space_group_symop_operation_xyz
x,y,z
x-y,x,2/3+z
-y,x-y,1/3+z
-x,-y,z
-x+y,-x,2/3+z
y,-x+y,1/3+z
x-y,-y,-z
-x,-x+y,2/3-z
y,x,1/3-z
-y,-x,1/3-z
-x+y,y,-z
x,x-y,2/3-z
loop_
_atom_site_type_symbol
_atom_site_label
_atom_site_fract_x
_atom_site_fract_y
_atom_site_fract_z
Si Si1 0.436824 0.335073 0.940837
Si Si2 0.459445 0.201193 0.156402
Si Si3 0.760068 0.734122 0.846851
Si Si4 0.060302 0.120603 0.000000
Si Si5 0.130802 0.565401 0.333334
Si Si6 0.000000 0.500000 0.833334
O O1 0.331661 0.286092 0.926158
O O2 0.477018 0.387633 0.774436
O O3 0.460847 0.264213 0.013443
O O4 0.474205 0.414269 0.064542
O O5 0.476133 0.238067 0.333334
O O6 0.360352 0.116507 0.168562
O O7 0.538219 0.181511 0.124240
O O8 0.764773 0.764773 0.666667
O O9 0.840984 0.812907 0.938654
O O10 0.000000 0.074540 0.833334
#
# Coordination Sequence:
#
# PCOD9584592 Si02
#       6
#    12  12  12   6   6   3
#     4  12  26  48  74 117 159 218 281 339 416 503
#     4  12  26  48  76 115 165 213 276 346 411 498
#     4  12  26  48  88 118 161 217 287 346 419 513
#     4  12  30  56  91 133 174 222 278 355 450 533
#     4  12  26  47  74 113 160 212 268 347 412 478
#     4  12  28  42  76 112 156 214 274 352 416 498
#
# _framework density 23.072306999999999
#
# number of rings (size 3 to 8) (size 9 to 14) (size 15 to 20)
#    0.000    0.000    3.529    6.353    1.647    3.765 
#   12.706    2.941    0.000    0.000    0.000    0.000 
#    0.000    0.000    0.000    0.000    0.000    0.000 
#
# Total GULP energy -284929.975193 kJ/mol
# GULP energy per Si atom -5586.862259 kJ/mol
# Density = 2.301979 g / cm^3
# Si number density = 23.072307 Si / 1000 Ang^3
#
#
#
# Elastic Constant Matrix: (Units=GPa)
#
#
# Indices 1 2 3 4 5 6 
#
# 1 129.8877 44.6558 47.9417 0.0000 0.0000 0.0000
# 2 44.6558 129.8877 47.9417 0.0000 0.0000 0.0000
# 3 47.9417 47.9417 148.3547 0.0000 0.0000 0.0000
# 4 0.0000 0.0000 0.0000 62.9658 0.0000 0.0000
# 5 0.0000 0.0000 0.0000 0.0000 62.9658 0.0000
# 6 0.0000 0.0000 0.0000 0.0000 0.0000 42.6159
#
#
#
# Elastic Compliance Matrix: (Units=1/GPa)
#
#
# Indices 1 2 3 4 5 6 
#
# 1 0.009349 -0.002383 -0.002251 0.000000 0.000000 0.000000
# 2 -0.002383 0.009349 -0.002251 0.000000 0.000000 0.000000
# 3 -0.002251 -0.002251 0.008195 0.000000 0.000000 0.000000
# 4 0.000000 0.000000 0.000000 0.015882 0.000000 0.000000
# 5 0.000000 0.000000 0.000000 0.000000 0.015882 0.000000
# 6 0.000000 0.000000 0.000000 0.000000 0.000000 0.023465
#
#
# Mechanical properties :
#
#
# Convention : Reuss Voigt Hill
#
# Bulk Modulus (GPa) = 76.20248 76.57871 76.39060
# Shear Modulus (GPa) = 49.86634 51.54891 50.70762
#
# Velocity S-wave (km/s) = 4.65403 4.73190 4.69312
# Velocity P-wave (km/s) = 7.87270 7.94464 7.90875
#
# Compressibility (1/GPa) = 0.01312293
#
# Stress axis : x y z
#
# Youngs Moduli (GPa) = 106.96036 106.96036 122.01847
#
# Poissons Ratio (x) = 0.25493 0.27467
# Poissons Ratio (y) = 0.25493 0.27467
# Poissons Ratio (z) = 0.24077 0.24077
#
# Static dielectric constant tensor:
#      x y z
#    x 1.912470 0.000000 0.000000 
#    y 0.000000 1.912470 0.000000 
#    z 0.000000 0.000000 1.587080 
# 
# From -- ./inp_files/2839.got.cif
#   From: 2010.05.17/outbox.cif.g08.bks.cpg/sg181_2_cif.got.tgz:2839.got - 2010.05.20 11:51:17.
