data_PCOD9584727
_publ_section_title
;
Structure prediction by ZEFSAII (Michael W. Deem and Ramdas Pophale) SiO2 
 PCOD9584727
Probable space group: P 63 2 2
;
_chemical_formula_sum "Si O2"
_cell_formula_units_Z 16
_cell_length_a 7.887862
_cell_length_b 7.887862
_cell_length_c 10.650657
_cell_angle_alpha 90.000000
_cell_angle_beta 90.000000
_cell_angle_gamma 120.000000
_cell_volume 573.886010
_symmetry_space_group_name_H-M "P 63 2 2"
_symmetry_group_IT_number 182
_symmetry_cell_setting 'hexagonal'
loop_
_space_group_symop_operation_xyz
x,y,z
x-y,x,1/2+z
-y,x-y,z
-x,-y,1/2+z
-x+y,-x,z
y,-x+y,1/2+z
x-y,-y,-z
-x,-x+y,-z
y,x,-z
-y,-x,1/2-z
-x+y,y,1/2-z
x,x-y,1/2-z
loop_
_atom_site_type_symbol
_atom_site_label
_atom_site_fract_x
_atom_site_fract_y
_atom_site_fract_z
Si Si1 0.666668 0.333333 0.104745
Si Si2 0.736610 0.000000 0.000000
Si Si3 0.600284 0.800142 0.250000
O O1 0.666668 0.333334 0.250000
O O2 0.460579 0.290095 0.056227
O O3 0.738784 0.881143 0.126284
O O4 0.437152 0.874303 0.250000
#
# Coordination Sequence:
#
# PCOD9584727 Si02
#       3
#     4   6   6
#     4  12  27  37  77 109 144 207 244 338 388 477
#     4  12  22  46  68 114 152 196 270 324 394 480
#     4  10  20  42  70 106 156 196 260 326 384 474
#
# _framework density 27.880099000000001
#
# number of rings (size 3 to 8) (size 9 to 14) (size 15 to 20)
#    0.750    0.000    7.500    2.250    0.000    0.000 
#    0.000    0.000    0.000    1.500   29.250    0.000 
#    0.000    0.000    0.000    0.000    0.000    0.000 
#
# Total GULP energy -89314.574284 kJ/mol
# GULP energy per Si atom -5582.160893 kJ/mol
# Density = 2.781664 g / cm^3
# Si number density = 27.880099 Si / 1000 Ang^3
#
#
#
# Elastic Constant Matrix: (Units=GPa)
#
#
# Indices 1 2 3 4 5 6 
#
# 1 115.3845 56.6140 47.5843 0.0001 -0.0002 0.0000
# 2 56.6140 115.3847 47.5841 -0.0001 0.0002 -0.0003
# 3 47.5843 47.5841 319.8020 -0.0007 -0.0001 -0.0001
# 4 0.0001 -0.0001 -0.0007 30.5459 -0.0003 -0.0002
# 5 -0.0002 0.0002 -0.0001 -0.0003 30.5447 -0.0001
# 6 0.0000 -0.0003 -0.0001 -0.0002 -0.0001 29.3858
#
#
#
# Elastic Compliance Matrix: (Units=1/GPa)
#
#
# Indices 1 2 3 4 5 6 
#
# 1 0.011675 -0.005340 -0.000943 0.000000 0.000000 0.000000
# 2 -0.005340 0.011675 -0.000943 0.000000 0.000000 0.000000
# 3 -0.000943 -0.000943 0.003407 0.000000 0.000000 0.000000
# 4 0.000000 0.000000 0.000000 0.032738 0.000000 0.000000
# 5 0.000000 0.000000 0.000000 0.000000 0.032739 0.000000
# 6 0.000000 0.000000 0.000000 0.000000 0.000000 0.034030
#
#
# Mechanical properties :
#
#
# Convention : Reuss Voigt Hill
#
# Bulk Modulus (GPa) = 81.24862 94.90401 88.07631
# Shear Modulus (GPa) = 34.52607 44.68118 39.60363
#
# Velocity S-wave (km/s) = 3.52288 4.00762 3.77304
# Velocity P-wave (km/s) = 6.76409 7.45175 7.11623
#
# Compressibility (1/GPa) = 0.01230790
#
# Stress axis : x y z
#
# Youngs Moduli (GPa) = 85.64971 85.64988 293.47317
#
# Poissons Ratio (x) = 0.45736 0.27666
# Poissons Ratio (y) = 0.45736 0.27665
# Poissons Ratio (z) = 0.08074 0.08074
#
# Static dielectric constant tensor:
#      x y z
#    x 2.178660 0.000000 0.000000 
#    y 0.000000 2.178660 0.000000 
#    z 0.000000 0.000000 2.192660 
# 
# From -- ./inp_files/2057.got.cif
#   From: 2010.05.17/outbox.cif.g08.bks.cpg/sg182_2_cif.got.tgz:2057.got - 2010.05.20 11:58:53.
