data_PCOD9584078
_publ_section_title
;
Structure prediction by ZEFSAII (Michael W. Deem and Ramdas Pophale) SiO2 
 PCOD9584078
Probable space group: P 62 2 2
;
_chemical_formula_sum "Si O2"
_cell_formula_units_Z 48
_cell_length_a 19.927547
_cell_length_b 19.927547
_cell_length_c 8.572779
_cell_angle_alpha 90.000000
_cell_angle_beta 90.000000
_cell_angle_gamma 120.000000
_cell_volume 2948.220380
_symmetry_space_group_name_H-M "P 62 2 2"
_symmetry_group_IT_number 180
_symmetry_cell_setting 'hexagonal'
loop_
_space_group_symop_operation_xyz
x,y,z
x-y,x,1/3+z
-y,x-y,2/3+z
-x,-y,z
-x+y,-x,1/3+z
y,-x+y,2/3+z
x-y,-y,-z
-x,-x+y,1/3-z
y,x,2/3-z
-y,-x,2/3-z
-x+y,y,-z
x,x-y,1/3-z
loop_
_atom_site_type_symbol
_atom_site_label
_atom_site_fract_x
_atom_site_fract_y
_atom_site_fract_z
Si Si1 0.557103 0.708939 0.680305
Si Si2 0.169637 0.464002 0.384838
Si Si3 0.391707 0.635667 0.508849
Si Si4 0.579376 0.577675 0.520397
O O1 0.604985 0.802493 0.666667
O O2 0.476313 0.680411 0.583373
O O3 0.585025 0.652769 0.605803
O O4 0.548384 0.704698 0.866332
O O5 0.219746 0.439492 0.500000
O O6 0.215280 0.556586 0.399369
O O7 0.083588 0.429628 0.446436
O O8 0.392887 0.607114 0.333334
O O9 0.337619 0.675237 0.500000
O O10 0.500000 0.500000 0.574028
O O11 0.577388 0.577388 0.333334
#
# Coordination Sequence:
#
# PCOD9584078 Si02
#       4
#    12  12  12  12
#     4  12  23  36  54  75 101 134 175 221 280 328
#     4  11  23  37  54  75  99 132 178 223 272 329
#     4  11  21  33  47  67  97 129 170 221 277 320
#     4  11  22  38  58  75 102 136 177 225 279 331
#
# _framework density 16.281006999999999
#
# number of rings (size 3 to 8) (size 9 to 14) (size 15 to 20)
#    0.000    0.750    2.500    8.250    0.000    1.000 
#    0.000    0.000    0.000    0.000    0.000    0.000 
#    0.000    0.000    0.000    0.000    0.000   33.750 
#
# Total GULP energy -267311.389105 kJ/mol
# GULP energy per Si atom -5568.987273 kJ/mol
# Density = 1.624395 g / cm^3
# Si number density = 16.281007 Si / 1000 Ang^3
#
#
#
# Elastic Constant Matrix: (Units=GPa)
#
#
# Indices 1 2 3 4 5 6 
#
# 1 96.4056 59.1980 37.0217 0.0000 0.0000 0.0000
# 2 59.1980 96.4056 37.0217 0.0000 0.0000 0.0000
# 3 37.0217 37.0217 131.3664 0.0000 0.0000 0.0000
# 4 0.0000 0.0000 0.0000 23.8926 0.0000 0.0000
# 5 0.0000 0.0000 0.0000 0.0000 23.8926 0.0000
# 6 0.0000 0.0000 0.0000 0.0000 0.0000 18.6038
#
#
#
# Elastic Compliance Matrix: (Units=1/GPa)
#
#
# Indices 1 2 3 4 5 6 
#
# 1 0.017149 -0.009727 -0.002092 0.000000 0.000000 0.000000
# 2 -0.009727 0.017149 -0.002092 0.000000 0.000000 0.000000
# 3 -0.002092 -0.002092 0.008791 0.000000 0.000000 0.000000
# 4 0.000000 0.000000 0.000000 0.041854 0.000000 0.000000
# 5 0.000000 0.000000 0.000000 0.000000 0.041854 0.000000
# 6 0.000000 0.000000 0.000000 0.000000 0.000000 0.053752
#
#
# Mechanical properties :
#
#
# Convention : Reuss Voigt Hill
#
# Bulk Modulus (GPa) = 65.49456 65.62895 65.56176
# Shear Modulus (GPa) = 23.42358 26.00687 24.71522
#
# Velocity S-wave (km/s) = 3.79714 4.00105 3.90043
# Velocity P-wave (km/s) = 7.71617 7.85762 7.78722
#
# Compressibility (1/GPa) = 0.01526844
#
# Stress axis : x y z
#
# Youngs Moduli (GPa) = 58.31228 58.31228 113.74968
#
# Poissons Ratio (x) = 0.56721 0.23792
# Poissons Ratio (y) = 0.56721 0.23792
# Poissons Ratio (z) = 0.12197 0.12197
#
# Static dielectric constant tensor:
#      x y z
#    x 1.593710 0.000000 0.000000 
#    y 0.000000 1.593710 0.000000 
#    z 0.000000 0.000000 1.805690 
# 
# From -- ./inp_files/2962.got.cif
#   From: 2010.05.17/outbox.cif.g08.bks.cpg/sg180_2_cif.got.tgz:2962.got - 2010.05.20 11:43:55.
