data_PCOD9584313
_publ_section_title
;
Structure prediction by ZEFSAII (Michael W. Deem and Ramdas Pophale) SiO2 
 PCOD9584313
Probable space group: P 64 2 2
;
_chemical_formula_sum "Si O2"
_cell_formula_units_Z 66
_cell_length_a 31.055697
_cell_length_b 31.055697
_cell_length_c 5.347702
_cell_angle_alpha 90.000000
_cell_angle_beta 90.000000
_cell_angle_gamma 120.000000
_cell_volume 4466.634248
_symmetry_space_group_name_H-M "P 64 2 2"
_symmetry_group_IT_number 181
_symmetry_cell_setting 'hexagonal'
loop_
_space_group_symop_operation_xyz
x,y,z
x-y,x,2/3+z
-y,x-y,1/3+z
-x,-y,z
-x+y,-x,2/3+z
y,-x+y,1/3+z
x-y,-y,-z
-x,-x+y,2/3-z
y,x,1/3-z
-y,-x,1/3-z
-x+y,y,-z
x,x-y,2/3-z
loop_
_atom_site_type_symbol
_atom_site_label
_atom_site_fract_x
_atom_site_fract_y
_atom_site_fract_z
Si Si1 0.398593 0.954661 0.309912
Si Si2 0.755080 0.611352 0.478450
Si Si3 0.277149 0.822355 0.688230
Si Si4 0.532432 0.467569 0.666667
Si Si5 0.307191 0.968230 0.237919
Si Si6 0.613277 0.476227 0.055309
O O1 0.352078 0.955978 0.190322
O O2 0.381240 0.900683 0.424125
O O3 0.419332 0.000000 0.500000
O O4 0.446496 0.963253 0.160804
O O5 0.813339 0.626678 0.500000
O O6 0.732163 0.577514 0.230543
O O7 0.741325 0.654671 0.440053
O O8 0.731122 0.579177 0.732611
O O9 0.234570 0.765431 0.666667
O O10 0.330988 0.827117 0.697522
O O11 0.521646 0.421027 0.494268
O O12 0.319217 0.000000 0.500000
O O13 0.308148 0.000000 0.000000
O O14 0.579124 0.420877 0.166667
#
# Coordination Sequence:
#
# PCOD9584313 Si02
#       6
#    12  12  12   6  12  12
#     4  10  22  32  42  60  90 125 153 182 216 269
#     4  10  20  35  55  74  96 122 162 196 228 272
#     4  10  20  35  55  73  89 115 151 195 235 280
#     4  10  22  33  44  58  88 120 156 180 212 272
#     4  11  22  34  50  71  99 129 153 192 237 278
#     4  10  21  34  47  67  89 115 148 187 226 279
#
# _framework density 14.776227
#
# number of rings (size 3 to 8) (size 9 to 14) (size 15 to 20)
#    0.000    1.818    1.818    2.182   10.182    4.000 
#    0.000    0.000    0.000    0.000    2.364    0.000 
#    0.000    0.000    0.000    0.000    0.000    0.000 
#
# Total GULP energy -367576.756210 kJ/mol
# GULP energy per Si atom -5569.344791 kJ/mol
# Density = 1.474260 g / cm^3
# Si number density = 14.776227 Si / 1000 Ang^3
#
#
#
# Elastic Constant Matrix: (Units=GPa)
#
#
# Indices 1 2 3 4 5 6 
#
# 1 82.9381 27.3190 20.9726 0.0000 0.0000 0.0000
# 2 27.3190 82.9381 20.9726 0.0000 0.0000 0.0000
# 3 20.9726 20.9726 67.4199 0.0000 0.0000 0.0000
# 4 0.0000 0.0000 0.0000 21.4490 0.0000 0.0000
# 5 0.0000 0.0000 0.0000 0.0000 21.4490 0.0000
# 6 0.0000 0.0000 0.0000 0.0000 0.0000 27.8096
#
#
#
# Elastic Compliance Matrix: (Units=1/GPa)
#
#
# Indices 1 2 3 4 5 6 
#
# 1 0.014133 -0.003846 -0.003200 0.000000 0.000000 0.000000
# 2 -0.003846 0.014133 -0.003200 0.000000 0.000000 0.000000
# 3 -0.003200 -0.003200 0.016823 0.000000 0.000000 0.000000
# 4 0.000000 0.000000 0.000000 0.046622 0.000000 0.000000
# 5 0.000000 0.000000 0.000000 0.000000 0.046622 0.000000
# 6 0.000000 0.000000 0.000000 0.000000 0.000000 0.035959
#
#
# Mechanical properties :
#
#
# Convention : Reuss Voigt Hill
#
# Bulk Modulus (GPa) = 40.65480 41.31380 40.98430
# Shear Modulus (GPa) = 24.63239 25.07698 24.85469
#
# Velocity S-wave (km/s) = 4.08736 4.12408 4.10576
# Velocity P-wave (km/s) = 7.06036 7.12023 7.09036
#
# Compressibility (1/GPa) = 0.02459734
#
# Stress axis : x y z
#
# Youngs Moduli (GPa) = 70.75504 70.75504 59.44129
#
# Poissons Ratio (x) = 0.27213 0.19022
# Poissons Ratio (y) = 0.27213 0.19022
# Poissons Ratio (z) = 0.22642 0.22642
#
# Static dielectric constant tensor:
#      x y z
#    x 1.490470 0.000000 0.000000 
#    y 0.000000 1.490470 0.000000 
#    z 0.000000 0.000000 1.171650 
# 
# From -- ./inp_files/1611.got.cif
#   From: 2010.05.17/outbox.cif.g08.bks.cpg/sg181_1_cif.got.tgz:1611.got - 2010.05.20 11:51:17.
