data_PCOD9584298
_publ_section_title
;
Structure prediction by ZEFSAII (Michael W. Deem and Ramdas Pophale) SiO2 
 PCOD9584298
Probable space group: P 64 2 2
;
_chemical_formula_sum "Si O2"
_cell_formula_units_Z 60
_cell_length_a 28.137436
_cell_length_b 28.137436
_cell_length_c 6.185542
_cell_angle_alpha 90.000000
_cell_angle_beta 90.000000
_cell_angle_gamma 120.000000
_cell_volume 4241.089448
_symmetry_space_group_name_H-M "P 64 2 2"
_symmetry_group_IT_number 181
_symmetry_cell_setting 'hexagonal'
loop_
_space_group_symop_operation_xyz
x,y,z
x-y,x,2/3+z
-y,x-y,1/3+z
-x,-y,z
-x+y,-x,2/3+z
y,-x+y,1/3+z
x-y,-y,-z
-x,-x+y,2/3-z
y,x,1/3-z
-y,-x,1/3-z
-x+y,y,-z
x,x-y,2/3-z
loop_
_atom_site_type_symbol
_atom_site_label
_atom_site_fract_x
_atom_site_fract_y
_atom_site_fract_z
Si Si1 0.053358 0.658811 0.460125
Si Si2 0.726927 0.172836 0.787280
Si Si3 0.748938 0.497875 0.500000
Si Si4 0.429666 0.429666 0.166667
Si Si5 0.349204 0.542548 0.204938
Si Si6 0.586801 0.500107 0.499887
O O1 0.110003 0.713348 0.526528
O O2 0.073812 0.627749 0.299138
O O3 0.000000 0.654059 0.333334
O O4 0.033463 0.621807 0.674559
O O5 0.783543 0.216458 0.666667
O O6 0.677222 0.175793 0.659671
O O7 0.731870 0.196969 0.026756
O O8 0.702709 0.462197 0.328369
O O9 0.439758 0.479121 0.321542
O O10 0.394736 0.605265 0.166667
O O11 0.380372 0.522596 0.366824
O O12 0.543699 0.456302 0.666667
#
# Coordination Sequence:
#
# PCOD9584298 Si02
#       6
#    12  12   6   6  12  12
#     4  10  20  33  49  70  94 118 143 177 218 262
#     4  10  20  36  55  72  86 118 148 179 219 272
#     4  10  22  38  56  66  84 106 150 178 226 267
#     4  10  22  35  44  68 102 118 144 168 214 260
#     4  11  22  36  56  66  86 110 143 181 226 269
#     4  11  22  33  48  68  93 121 142 170 215 272
#
# _framework density 14.147308000000001
#
# number of rings (size 3 to 8) (size 9 to 14) (size 15 to 20)
#    0.000    1.600    4.000    1.200    0.000    4.400 
#    0.000    0.000   22.000    0.000    0.000    0.000 
#    0.000    0.000    0.000    0.000    0.000    0.000 
#
# Total GULP energy -334506.944686 kJ/mol
# GULP energy per Si atom -5575.115745 kJ/mol
# Density = 1.411511 g / cm^3
# Si number density = 14.147308 Si / 1000 Ang^3
#
#
#
# Elastic Constant Matrix: (Units=GPa)
#
#
# Indices 1 2 3 4 5 6 
#
# 1 58.6859 29.4728 18.0689 0.0000 0.0000 0.0000
# 2 29.4728 58.6859 18.0689 0.0000 0.0000 0.0000
# 3 18.0689 18.0689 70.3032 0.0000 0.0000 0.0000
# 4 0.0000 0.0000 0.0000 23.9683 0.0000 0.0000
# 5 0.0000 0.0000 0.0000 0.0000 23.9683 0.0000
# 6 0.0000 0.0000 0.0000 0.0000 0.0000 14.6065
#
#
#
# Elastic Compliance Matrix: (Units=1/GPa)
#
#
# Indices 1 2 3 4 5 6 
#
# 1 0.023455 -0.010776 -0.003259 0.000000 0.000000 0.000000
# 2 -0.010776 0.023455 -0.003259 0.000000 0.000000 0.000000
# 3 -0.003259 -0.003259 0.015899 0.000000 0.000000 0.000000
# 4 0.000000 0.000000 0.000000 0.041722 0.000000 0.000000
# 5 0.000000 0.000000 0.000000 0.000000 0.041722 0.000000
# 6 0.000000 0.000000 0.000000 0.000000 0.000000 0.068462
#
#
# Mechanical properties :
#
#
# Convention : Reuss Voigt Hill
#
# Bulk Modulus (GPa) = 35.43283 35.43290 35.43286
# Shear Modulus (GPa) = 19.32668 20.64626 19.98647
#
# Velocity S-wave (km/s) = 3.70009 3.82432 3.76272
# Velocity P-wave (km/s) = 6.58439 6.67837 6.63155
#
# Compressibility (1/GPa) = 0.02822241
#
# Stress axis : x y z
#
# Youngs Moduli (GPa) = 42.63464 42.63464 62.89647
#
# Poissons Ratio (x) = 0.45944 0.20496
# Poissons Ratio (y) = 0.45944 0.20496
# Poissons Ratio (z) = 0.13893 0.13893
#
# Static dielectric constant tensor:
#      x y z
#    x 1.501890 0.000000 0.000000 
#    y 0.000000 1.501890 0.000000 
#    z 0.000000 0.000000 1.516220 
# 
# From -- ./inp_files/1472.got.cif
#   From: 2010.05.17/outbox.cif.g08.bks.cpg/sg181_1_cif.got.tgz:1472.got - 2010.05.20 11:51:17.
