data_PCOD9584742
_publ_section_title
;
Structure prediction by ZEFSAII (Michael W. Deem and Ramdas Pophale) SiO2 
 PCOD9584742
Probable space group: P 63 2 2
;
_chemical_formula_sum "Si O2"
_cell_formula_units_Z 96
_cell_length_a 17.927064
_cell_length_b 17.927064
_cell_length_c 20.869332
_cell_angle_alpha 90.000000
_cell_angle_beta 90.000000
_cell_angle_gamma 120.000000
_cell_volume 5808.413386
_symmetry_space_group_name_H-M "P 63 2 2"
_symmetry_group_IT_number 182
_symmetry_cell_setting 'hexagonal'
loop_
_space_group_symop_operation_xyz
x,y,z
x-y,x,1/2+z
-y,x-y,z
-x,-y,1/2+z
-x+y,-x,z
y,-x+y,1/2+z
x-y,-y,-z
-x,-x+y,-z
y,x,-z
-y,-x,1/2-z
-x+y,y,1/2-z
x,x-y,1/2-z
loop_
_atom_site_type_symbol
_atom_site_label
_atom_site_fract_x
_atom_site_fract_y
_atom_site_fract_z
Si Si1 0.698008 0.760649 0.823018
Si Si2 0.759847 0.697335 0.559654
Si Si3 0.760649 0.062641 0.176982
Si Si4 0.334218 0.839441 0.635550
Si Si5 0.159543 0.493862 0.481693
Si Si6 0.062512 0.759847 0.440346
Si Si7 0.159543 0.493862 0.018307
Si Si8 0.665782 0.160559 0.364450
O O1 0.724047 0.758764 0.750000
O O2 0.710118 0.855059 0.836330
O O3 0.746135 0.735223 0.875086
O O4 0.595742 0.695179 0.831099
O O5 0.743903 0.743903 0.500000
O O6 0.746135 0.735223 0.624914
O O7 0.691091 0.595542 0.552400
O O8 0.852969 0.705937 0.555576
O O9 0.695179 0.099437 0.168901
O O10 0.335069 0.853819 0.558633
O O11 0.426174 0.852349 0.654542
O O12 0.258763 0.741237 0.647501
O O13 0.256957 0.513914 0.469671
O O14 0.148172 0.574086 0.463171
O O15 0.095549 0.691091 0.447600
O O16 0.000000 0.743903 0.500000
O O17 0.146181 0.481250 0.941367
#
# Coordination Sequence:
#
# PCOD9584742 Si02
#       8
#    12  12  12  12  12  12  12  12
#     4  10  21  37  54  73 102 137 169 207 258 310
#     4  11  21  35  56  80 103 130 167 210 257 307
#     4  10  21  37  54  73 102 137 169 207 258 310
#     4   9  16  28  47  74 108 144 178 208 242 288
#     4   9  17  29  49  77 109 142 174 208 244 286
#     4  11  21  35  56  80 103 130 167 210 257 307
#     4   9  17  29  49  77 109 142 174 208 244 286
#     4   9  16  28  47  74 108 144 178 208 242 288
#
# _framework density 16.527747999999999
#
# number of rings (size 3 to 8) (size 9 to 14) (size 15 to 20)
#    0.000    2.250    2.500    1.250    0.000    4.500 
#    0.000    0.000    0.000    6.000    0.000    0.000 
#    0.000    2.000    0.000    0.000    0.000    0.000 
#
# Total GULP energy -535745.772743 kJ/mol
# GULP energy per Si atom -5580.685133 kJ/mol
# Density = 1.649013 g / cm^3
# Si number density = 16.527748 Si / 1000 Ang^3
#
#
#
# Elastic Constant Matrix: (Units=GPa)
#
#
# Indices 1 2 3 4 5 6 
#
# 1 82.7668 60.9325 56.5961 0.0000 0.0000 0.0000
# 2 60.9325 82.7668 56.5961 0.0000 0.0000 0.0000
# 3 56.5961 56.5961 83.0412 0.0000 0.0000 0.0000
# 4 0.0000 0.0000 0.0000 17.3384 0.0000 0.0000
# 5 0.0000 0.0000 0.0000 0.0000 17.3384 0.0000
# 6 0.0000 0.0000 0.0000 0.0000 0.0000 10.9171
#
#
#
# Elastic Compliance Matrix: (Units=1/GPa)
#
#
# Indices 1 2 3 4 5 6 
#
# 1 0.030413 -0.015387 -0.010240 0.000000 0.000000 0.000000
# 2 -0.015387 0.030413 -0.010240 0.000000 0.000000 0.000000
# 3 -0.010240 -0.010240 0.026001 0.000000 0.000000 0.000000
# 4 0.000000 0.000000 0.000000 0.057675 0.000000 0.000000
# 5 0.000000 0.000000 0.000000 0.000000 0.057675 0.000000
# 6 0.000000 0.000000 0.000000 0.000000 0.000000 0.091599
#
#
# Mechanical properties :
#
#
# Convention : Reuss Voigt Hill
#
# Bulk Modulus (GPa) = 66.26983 66.31379 66.29181
# Shear Modulus (GPa) = 13.49375 14.08212 13.78794
#
# Velocity S-wave (km/s) = 2.86042 2.92212 2.89144
# Velocity P-wave (km/s) = 7.14790 7.18296 7.16545
#
# Compressibility (1/GPa) = 0.01508982
#
# Stress axis : x y z
#
# Youngs Moduli (GPa) = 32.88119 32.88119 38.46032
#
# Poissons Ratio (x) = 0.50595 0.39385
# Poissons Ratio (y) = 0.50595 0.39385
# Poissons Ratio (z) = 0.33672 0.33672
#
# Static dielectric constant tensor:
#      x y z
#    x 1.546620 0.000000 0.000000 
#    y 0.000000 1.546620 0.000000 
#    z 0.000000 0.000000 1.550480 
# 
# From -- ./inp_files/5023.got.cif
#   From: 2010.05.17/outbox.cif.g08.bks.cpg/sg182_3_cif.got.tgz:5023.got - 2010.05.20 11:58:53.
