data_PCOD9584530
_publ_section_title
;
Structure prediction by ZEFSAII (Michael W. Deem and Ramdas Pophale) SiO2 
 PCOD9584530
Probable space group: P 64 2 2
;
_chemical_formula_sum "Si O2"
_cell_formula_units_Z 33
_cell_length_a 7.914252
_cell_length_b 7.914252
_cell_length_c 26.705749
_cell_angle_alpha 90.000000
_cell_angle_beta 90.000000
_cell_angle_gamma 120.000000
_cell_volume 1448.622225
_symmetry_space_group_name_H-M "P 64 2 2"
_symmetry_group_IT_number 181
_symmetry_cell_setting 'hexagonal'
loop_
_space_group_symop_operation_xyz
x,y,z
x-y,x,2/3+z
-y,x-y,1/3+z
-x,-y,z
-x+y,-x,2/3+z
y,-x+y,1/3+z
x-y,-y,-z
-x,-x+y,2/3-z
y,x,1/3-z
-y,-x,1/3-z
-x+y,y,-z
x,x-y,2/3-z
loop_
_atom_site_type_symbol
_atom_site_label
_atom_site_fract_x
_atom_site_fract_y
_atom_site_fract_z
Si Si1 0.621515 0.913345 0.727526
Si Si2 0.815773 0.585689 0.161426
Si Si3 0.000000 0.500000 0.418888
Si Si4 0.000000 0.000000 0.666667
O O1 0.487722 0.676681 0.727116
O O2 0.500000 0.000000 0.700612
O O3 0.689985 0.041912 0.779798
O O4 0.815520 0.954492 0.700017
O O5 0.710265 0.710265 0.166667
O O6 0.642838 0.357163 0.166667
O O7 0.941596 0.621901 0.210821
#
# Coordination Sequence:
#
# PCOD9584530 Si02
#       4
#    12  12   6   3
#     4  12  26  49  72 106 150 198 254 309 362 461
#     4  11  21  40  74 112 143 183 236 315 391 432
#     4  12  22  43  78 108 140 188 244 322 387 420
#     4  12  32  50  70 106 156 218 252 282 372 464
#
# _framework density 22.780269000000001
#
# number of rings (size 3 to 8) (size 9 to 14) (size 15 to 20)
#    0.000    0.364    5.455    3.273    0.000    5.091 
#    6.545    0.000    0.000    0.000    0.000    0.000 
#    0.000    0.000    0.000    0.000    0.000    0.000 
#
# Total GULP energy -184168.764126 kJ/mol
# GULP energy per Si atom -5580.871640 kJ/mol
# Density = 2.272842 g / cm^3
# Si number density = 22.780269 Si / 1000 Ang^3
#
#
#
# Elastic Constant Matrix: (Units=GPa)
#
#
# Indices 1 2 3 4 5 6 
#
# 1 157.6646 52.5337 44.6437 0.0000 0.0000 0.0000
# 2 52.5337 157.6646 44.6437 0.0000 0.0000 0.0000
# 3 44.6437 44.6437 66.7916 0.0000 0.0000 0.0000
# 4 0.0000 0.0000 0.0000 -46.3301 0.0000 0.0000
# 5 0.0000 0.0000 0.0000 0.0000 -46.3301 0.0000
# 6 0.0000 0.0000 0.0000 0.0000 0.0000 52.5655
#
#
#
# Elastic Compliance Matrix: (Units=1/GPa)
#
#
# Indices 1 2 3 4 5 6 
#
# 1 0.008078 -0.001434 -0.004441 0.000000 0.000000 0.000000
# 2 -0.001434 0.008078 -0.004441 0.000000 0.000000 0.000000
# 3 -0.004441 -0.004441 0.020908 0.000000 0.000000 0.000000
# 4 0.000000 0.000000 0.000000 -0.021584 0.000000 0.000000
# 5 0.000000 0.000000 0.000000 0.000000 -0.021584 0.000000
# 6 0.000000 0.000000 0.000000 0.000000 0.000000 0.019024
#
#
# Mechanical properties :
#
#
# Convention : Reuss Voigt Hill
#
# Bulk Modulus (GPa) = 60.85323 73.97368 67.41345
# Shear Modulus (GPa) = 128.11325 8.00105 68.05715
#
# Velocity S-wave (km/s) = 7.50738 1.87614 5.47178
# Velocity P-wave (km/s) = 10.09549 6.10216 8.34132
#
# Compressibility (1/GPa) = 0.01643298
#
# Stress axis : x y z
#
# Youngs Moduli (GPa) = 123.79560 123.79560 47.82792
#
# Poissons Ratio (x) = 0.17754 0.21239
# Poissons Ratio (y) = 0.17754 0.21239
# Poissons Ratio (z) = 0.54974 0.54974
#
# Static dielectric constant tensor:
#      x y z
#    x 1.891890 0.000000 0.000000 
#    y 0.000000 1.891890 0.000000 
#    z 0.000000 0.000000 1.887220 
# 
# From -- ./inp_files/11692.got.cif
#   From: 2010.05.17/outbox.cif.g08.bks.cpg/sg181_6_cif.got.tgz:11692.got - 2010.05.20 11:51:17.
