data_PCOD9584630
_publ_section_title
;
Structure prediction by ZEFSAII (Michael W. Deem and Ramdas Pophale) SiO2 
 PCOD9584630
Probable space group: P 63 2 2
;
_chemical_formula_sum "Si O2"
_cell_formula_units_Z 66
_cell_length_a 21.304963
_cell_length_b 21.304963
_cell_length_c 8.690142
_cell_angle_alpha 90.000000
_cell_angle_beta 90.000000
_cell_angle_gamma 120.000000
_cell_volume 3416.009528
_symmetry_space_group_name_H-M "P 63 2 2"
_symmetry_group_IT_number 182
_symmetry_cell_setting 'hexagonal'
loop_
_space_group_symop_operation_xyz
x,y,z
x-y,x,1/2+z
-y,x-y,z
-x,-y,1/2+z
-x+y,-x,z
y,-x+y,1/2+z
x-y,-y,-z
-x,-x+y,-z
y,x,-z
-y,-x,1/2-z
-x+y,y,1/2-z
x,x-y,1/2-z
loop_
_atom_site_type_symbol
_atom_site_label
_atom_site_fract_x
_atom_site_fract_y
_atom_site_fract_z
Si Si1 0.671355 0.083371 0.558659
Si Si2 0.310589 0.455447 0.096194
Si Si3 0.919357 0.080564 0.564443
Si Si4 0.541946 0.080512 0.431176
Si Si5 0.672246 0.834239 0.437575
Si Si6 0.715346 0.284654 0.750000
O O1 0.669871 0.100511 0.741066
O O2 0.625185 0.116200 0.482947
O O3 0.754833 0.119586 0.511688
O O4 0.632678 0.000000 0.500000
O O5 0.248742 0.382014 0.018993
O O6 0.279275 0.510171 0.125733
O O7 0.381612 0.500200 0.997671
O O8 0.920962 0.079039 0.750000
O O9 0.885807 0.130683 0.514545
O O10 0.000000 0.113689 0.500000
O O11 0.870012 0.000000 0.500000
O O12 0.538120 0.076240 0.250000
O O13 0.501476 0.000000 0.500000
O O14 0.671586 0.835793 0.250000
O O15 0.743609 0.371805 0.750000
#
# Coordination Sequence:
#
# PCOD9584630 Si02
#       6
#    12  12  12  12  12   6
#     4  10  18  35  61  87 116 157 198 250 306 371
#     4  11  20  39  63  91 125 154 217 257 307 387
#     4  11  23  42  65  94 127 165 209 258 314 379
#     4  11  23  38  57  86 118 160 206 259 313 374
#     4   9  20  37  62  92 122 157 201 254 310 376
#     4  10  20  32  64  96 114 172 214 252 300 380
#
# _framework density 19.320789000000001
#
# number of rings (size 3 to 8) (size 9 to 14) (size 15 to 20)
#    0.182    1.455    2.727    5.091    0.000    0.727 
#    0.000    8.182    0.000    0.000    0.000    0.000 
#    0.000    0.000    0.000    0.000    0.000    0.000 
#
# Total GULP energy -367807.765284 kJ/mol
# GULP energy per Si atom -5572.844929 kJ/mol
# Density = 1.927681 g / cm^3
# Si number density = 19.320789 Si / 1000 Ang^3
#
#
#
# Elastic Constant Matrix: (Units=GPa)
#
#
# Indices 1 2 3 4 5 6 
#
# 1 123.1937 45.4662 33.9979 0.0000 0.0000 0.0000
# 2 45.4662 123.1937 33.9979 0.0000 0.0000 0.0000
# 3 33.9979 33.9979 76.4108 0.0000 0.0000 0.0000
# 4 0.0000 0.0000 0.0000 16.1060 0.0000 0.0000
# 5 0.0000 0.0000 0.0000 0.0000 16.1060 0.0000
# 6 0.0000 0.0000 0.0000 0.0000 0.0000 38.8638
#
#
#
# Elastic Compliance Matrix: (Units=1/GPa)
#
#
# Indices 1 2 3 4 5 6 
#
# 1 0.010045 -0.002820 -0.003215 0.000000 0.000000 0.000000
# 2 -0.002820 0.010045 -0.003215 0.000000 0.000000 0.000000
# 3 -0.003215 -0.003215 0.015948 0.000000 0.000000 0.000000
# 4 0.000000 0.000000 0.000000 0.062089 0.000000 0.000000
# 5 0.000000 0.000000 0.000000 0.000000 0.062089 0.000000
# 6 0.000000 0.000000 0.000000 0.000000 0.000000 0.025731
#
#
# Mechanical properties :
#
#
# Convention : Reuss Voigt Hill
#
# Bulk Modulus (GPa) = 57.01510 61.08025 59.04767
# Shear Modulus (GPa) = 23.77640 28.17090 25.97365
#
# Velocity S-wave (km/s) = 3.51181 3.82260 3.67050
# Velocity P-wave (km/s) = 6.78362 7.15300 6.97076
#
# Compressibility (1/GPa) = 0.01753921
#
# Stress axis : x y z
#
# Youngs Moduli (GPa) = 99.54924 99.54924 62.70447
#
# Poissons Ratio (x) = 0.28075 0.20158
# Poissons Ratio (y) = 0.28075 0.20158
# Poissons Ratio (z) = 0.32002 0.32002
#
# Static dielectric constant tensor:
#      x y z
#    x 1.697100 0.000000 0.000000 
#    y 0.000000 1.697100 0.000000 
#    z 0.000000 0.000000 1.651550 
# 
# From -- ./inp_files/1826.got.cif
#   From: 2010.05.17/outbox.cif.g08.bks.cpg/sg182_1_cif.got.tgz:1826.got - 2010.05.20 11:58:53.
