data_PCOD9584932
_publ_section_title
;
Structure prediction by ZEFSAII (Michael W. Deem and Ramdas Pophale) SiO2 
 PCOD9584932
Probable space group: P 6 M M
;
_chemical_formula_sum "Si O2"
_cell_formula_units_Z 96
_cell_length_a 17.978822
_cell_length_b 17.978822
_cell_length_c 21.249316
_cell_angle_alpha 90.000000
_cell_angle_beta 90.000000
_cell_angle_gamma 120.000000
_cell_volume 5948.371060
_symmetry_space_group_name_H-M "P 6 M M"
_symmetry_group_IT_number 183
_symmetry_cell_setting 'hexagonal'
loop_
_space_group_symop_operation_xyz
x,y,z
x-y,x,z
-y,x-y,z
-x,-y,z
-x+y,-x,z
y,-x+y,z
-x+y,y,z
x,x-y,z
-y,-x,z
y,x,z
x-y,-y,z
-x,-x+y,z
loop_
_atom_site_type_symbol
_atom_site_label
_atom_site_fract_x
_atom_site_fract_y
_atom_site_fract_z
Si Si1 0.509662 0.667357 0.647780
Si Si2 0.363559 0.897262 0.404471
Si Si3 0.669392 0.167154 0.271176
Si Si4 0.269169 0.369561 0.527538
Si Si5 0.896405 0.532477 0.892438
Si Si6 0.630523 0.897476 0.014911
Si Si7 0.100565 0.729941 0.768979
Si Si8 0.363507 0.466249 0.137937
O O1 0.484628 0.742314 0.647832
O O2 0.425930 0.574071 0.648891
O O3 0.566969 0.682735 0.585830
O O4 0.569764 0.684795 0.708418
O O5 0.431779 0.863558 0.412049
O O6 0.316912 0.866883 0.337272
O O7 0.302393 0.876327 0.463983
O O8 0.419547 0.000000 0.402194
O O9 0.569940 0.139879 0.271084
O O10 0.731150 0.268850 0.271339
O O11 0.683364 0.133460 0.205011
O O12 0.168227 0.336454 0.534902
O O13 0.297945 0.297945 0.525264
O O14 0.861678 0.430839 0.891573
O O15 0.875312 0.566882 0.955558
O O16 0.875120 0.568854 0.830468
O O17 0.000000 0.578539 0.892347
O O18 0.670341 0.835171 0.012324
O O19 0.697489 0.000000 0.013372
O O20 0.574188 0.876971 0.078222
O O21 0.168598 0.831402 0.764205
O O22 0.000000 0.701018 0.773165
O O23 0.431960 0.568041 0.130236
O O24 0.419514 0.419514 0.140528
#
# Coordination Sequence:
#
# PCOD9584932 Si02
#       8
#    12  12  12  12  12  12  12  12
#     4  10  20  33  50  73 100 128 156 188 227 271
#     4   9  17  29  45  64  86 114 148 184 221 264
#     4  10  18  27  39  57  84 116 148 179 213 256
#     4  10  20  33  49  69  92 119 152 190 231 273
#     4   9  17  30  49  71  93 118 149 184 222 268
#     4  10  19  31  48  69  92 119 153 192 232 274
#     4  10  20  33  50  72  97 127 163 201 239 278
#     4   9  17  29  45  63  83 111 147 186 228 272
#
# _framework density 16.138871999999999
#
# number of rings (size 3 to 8) (size 9 to 14) (size 15 to 20)
#    0.000    2.375    0.000    3.250    0.000    5.000 
#    0.000    0.000    0.000   10.375    0.000    0.000 
#    0.000    6.000    0.000    0.000    0.000   26.500 
#
# Total GULP energy -534797.872529 kJ/mol
# GULP energy per Si atom -5570.811172 kJ/mol
# Density = 1.610214 g / cm^3
# Si number density = 16.138872 Si / 1000 Ang^3
#
#
#
# Elastic Constant Matrix: (Units=GPa)
#
#
# Indices 1 2 3 4 5 6 
#
# 1 73.6387 48.8605 37.0421 0.0000 0.0000 0.0000
# 2 48.8605 73.6387 37.0421 0.0000 0.0000 0.0000
# 3 37.0421 37.0421 145.7531 0.0000 0.0000 0.0000
# 4 0.0000 0.0000 0.0000 -26.0131 0.0000 0.0000
# 5 0.0000 0.0000 0.0000 0.0000 -26.0131 0.0000
# 6 0.0000 0.0000 0.0000 0.0000 0.0000 12.3891
#
#
#
# Elastic Compliance Matrix: (Units=1/GPa)
#
#
# Indices 1 2 3 4 5 6 
#
# 1 0.025002 -0.015356 -0.002451 0.000000 0.000000 0.000000
# 2 -0.015356 0.025002 -0.002451 0.000000 0.000000 0.000000
# 3 -0.002451 -0.002451 0.008107 0.000000 0.000000 0.000000
# 4 0.000000 0.000000 0.000000 -0.038442 0.000000 0.000000
# 5 0.000000 0.000000 0.000000 0.000000 -0.038442 0.000000
# 6 0.000000 0.000000 0.000000 0.000000 0.000000 0.080716
#
#
# Mechanical properties :
#
#
# Convention : Reuss Voigt Hill
#
# Bulk Modulus (GPa) = 56.84085 59.87998 58.36041
# Shear Modulus (GPa) = 46.15742 3.41165 24.78454
#
# Velocity S-wave (km/s) = 5.35371 1.45551 3.92306
# Velocity P-wave (km/s) = 8.57395 6.32520 7.53395
#
# Compressibility (1/GPa) = 0.01759298
#
# Stress axis : x y z
#
# Youngs Moduli (GPa) = 39.99681 39.99681 123.35109
#
# Poissons Ratio (x) = 0.61420 0.30239
# Poissons Ratio (y) = 0.61420 0.30239
# Poissons Ratio (z) = 0.09805 0.09805
#
# Static dielectric constant tensor:
#      x y z
#    x 1.534800 0.000000 0.000000 
#    y 0.000000 1.534800 0.000000 
#    z 0.000000 0.000000 1.561320 
# 
# From -- ./inp_files/3033.got.cif
#   From: 2010.05.17/outbox.cif.g08.bks.cpg/sg183_2_cif.got.tgz:3033.got - 2010.05.20 12:02:58.
