data_PCOD9584920
_publ_section_title
;
Structure prediction by ZEFSAII (Michael W. Deem and Ramdas Pophale) SiO2 
 PCOD9584920
Probable space group: P 6 M M
;
_chemical_formula_sum "Si O2"
_cell_formula_units_Z 96
_cell_length_a 18.331011
_cell_length_b 18.331011
_cell_length_c 21.101806
_cell_angle_alpha 90.000000
_cell_angle_beta 90.000000
_cell_angle_gamma 120.000000
_cell_volume 6140.773710
_symmetry_space_group_name_H-M "P 6 M M"
_symmetry_group_IT_number 183
_symmetry_cell_setting 'hexagonal'
loop_
_space_group_symop_operation_xyz
x,y,z
x-y,x,z
-y,x-y,z
-x,-y,z
-x+y,-x,z
y,-x+y,z
-x+y,y,z
x,x-y,z
-y,-x,z
y,x,z
x-y,-y,z
-x,-x+y,z
loop_
_atom_site_type_symbol
_atom_site_label
_atom_site_fract_x
_atom_site_fract_y
_atom_site_fract_z
Si Si1 0.096012 0.459516 0.877390
Si Si2 0.096012 0.636497 0.610573
Si Si3 0.166241 0.497383 0.474311
Si Si4 0.497383 0.166241 0.013651
Si Si5 0.733186 0.098671 0.123801
Si Si6 0.901329 0.266817 0.364159
Si Si7 0.330495 0.497530 0.743982
Si Si8 0.366092 0.898413 0.243979
O O1 0.097196 0.548598 0.873939
O O2 0.130110 0.449207 0.809878
O O3 0.000000 0.388030 0.885625
O O4 0.146822 0.467484 0.940764
O O5 0.097197 0.548599 0.614023
O O6 0.146820 0.679339 0.547198
O O7 0.130111 0.680903 0.678086
O O8 0.000000 0.611970 0.602340
O O9 0.263538 0.527076 0.461204
O O10 0.148227 0.574114 0.465253
O O11 0.112074 0.420162 0.427436
O O12 0.574114 0.148227 0.022711
O O13 0.527077 0.263539 0.026760
O O14 0.420161 0.112073 0.060525
O O15 0.832727 0.167274 0.123039
O O16 0.691284 0.122693 0.181834
O O17 0.704856 0.000000 0.130242
O O18 0.832725 0.167276 0.364920
O O19 0.877309 0.308721 0.306127
O O20 0.000000 0.295146 0.357718
O O21 0.265811 0.531622 0.743983
O O22 0.425141 0.574860 0.743982
O O23 0.432417 0.864834 0.243978
O O24 0.422546 0.000000 0.243978
#
# Coordination Sequence:
#
# PCOD9584920 Si02
#       8
#    12  12  12  12  12  12  12  12
#     4   9  17  28  41  56  76 106 143 179 215 260
#     4   9  17  28  41  56  76 106 143 179 215 260
#     4  10  19  30  45  66  92 120 150 185 225 269
#     4  10  19  30  45  66  92 120 150 185 225 269
#     4  10  20  33  50  71  94 122 156 194 234 276
#     4  10  20  33  50  71  94 122 156 194 234 276
#     4  10  18  27  39  55  76 101 132 174 223 270
#     4   9  17  30  49  72  96 122 152 183 217 262
#
# _framework density 15.633209000000001
#
# number of rings (size 3 to 8) (size 9 to 14) (size 15 to 20)
#    0.000    2.375    0.000    3.375    0.000    4.000 
#    0.000    2.500    0.000    3.750    0.000    0.000 
#    0.000    3.000    0.000    0.000    0.000    0.000 
#
# Total GULP energy -534618.447082 kJ/mol
# GULP energy per Si atom -5568.942157 kJ/mol
# Density = 1.559763 g / cm^3
# Si number density = 15.633209 Si / 1000 Ang^3
#
#
#
# Elastic Constant Matrix: (Units=GPa)
#
#
# Indices 1 2 3 4 5 6 
#
# 1 61.6181 38.4204 27.0218 0.0000 0.0000 0.0000
# 2 38.4204 61.6181 27.0218 0.0000 0.0000 0.0000
# 3 27.0218 27.0218 92.3256 0.0000 0.0000 0.0000
# 4 0.0000 0.0000 0.0000 16.2931 0.0000 0.0000
# 5 0.0000 0.0000 0.0000 0.0000 16.2931 0.0000
# 6 0.0000 0.0000 0.0000 0.0000 0.0000 11.5989
#
#
#
# Elastic Compliance Matrix: (Units=1/GPa)
#
#
# Indices 1 2 3 4 5 6 
#
# 1 0.027491 -0.015617 -0.003475 0.000000 0.000000 0.000000
# 2 -0.015617 0.027491 -0.003475 0.000000 0.000000 0.000000
# 3 -0.003475 -0.003475 0.012865 0.000000 0.000000 0.000000
# 4 0.000000 0.000000 0.000000 0.061376 0.000000 0.000000
# 5 0.000000 0.000000 0.000000 0.000000 0.061376 0.000000
# 6 0.000000 0.000000 0.000000 0.000000 0.000000 0.086215
#
#
# Mechanical properties :
#
#
# Convention : Reuss Voigt Hill
#
# Bulk Modulus (GPa) = 44.02974 44.49887 44.26430
# Shear Modulus (GPa) = 15.17365 17.04354 16.10860
#
# Velocity S-wave (km/s) = 3.11883 3.30542 3.21348
# Velocity P-wave (km/s) = 6.41832 6.56459 6.49187
#
# Compressibility (1/GPa) = 0.02271192
#
# Stress axis : x y z
#
# Youngs Moduli (GPa) = 36.37608 36.37608 77.72763
#
# Poissons Ratio (x) = 0.56809 0.27011
# Poissons Ratio (y) = 0.56809 0.27011
# Poissons Ratio (z) = 0.12641 0.12641
#
# Static dielectric constant tensor:
#      x y z
#    x 1.516990 0.000000 0.000000 
#    y 0.000000 1.516990 0.000000 
#    z 0.000000 0.000000 1.554610 
# 
# From -- ./inp_files/3068.got.cif
#   From: 2010.05.17/outbox.cif.g08.bks.cpg/sg183_2_cif.got.tgz:3068.got - 2010.05.20 12:02:58.
