data_PCOD9584174
_publ_section_title
;
Structure prediction by ZEFSAII (Michael W. Deem and Ramdas Pophale) SiO2 
 PCOD9584174
Probable space group: P 62 2 2
;
_chemical_formula_sum "Si O2"
_cell_formula_units_Z 45
_cell_length_a 12.652976
_cell_length_b 12.652976
_cell_length_c 16.233250
_cell_angle_alpha 90.000000
_cell_angle_beta 90.000000
_cell_angle_gamma 120.000000
_cell_volume 2250.720037
_symmetry_space_group_name_H-M "P 62 2 2"
_symmetry_group_IT_number 180
_symmetry_cell_setting 'hexagonal'
loop_
_space_group_symop_operation_xyz
x,y,z
x-y,x,1/3+z
-y,x-y,2/3+z
-x,-y,z
-x+y,-x,1/3+z
y,-x+y,2/3+z
x-y,-y,-z
-x,-x+y,1/3-z
y,x,2/3-z
-y,-x,2/3-z
-x+y,y,-z
x,x-y,1/3-z
loop_
_atom_site_type_symbol
_atom_site_label
_atom_site_fract_x
_atom_site_fract_y
_atom_site_fract_z
Si Si1 0.622933 0.768231 0.824004
Si Si2 0.729367 0.458733 0.000000
Si Si3 0.762056 0.798286 0.099852
Si Si4 0.529280 0.890403 0.346601
Si Si5 0.000000 0.000000 0.666667
O O1 0.706134 0.706134 0.833334
O O2 0.543179 0.733152 0.741668
O O3 0.539392 0.713280 0.903948
O O4 0.712853 0.911734 0.815561
O O5 0.788761 0.380380 0.968189
O O6 0.715655 0.857828 0.166667
O O7 0.655364 0.715522 0.035835
O O8 0.881303 0.907636 0.054217
O O9 0.500000 0.000000 0.362171
#
# Coordination Sequence:
#
# PCOD9584174 Si02
#       5
#    12   6  12  12   3
#     4  12  22  40  70 100 137 184 242 300 362 432
#     4  12  25  42  66 104 138 187 240 308 356 436
#     4  12  25  43  72 104 150 189 239 308 374 437
#     4  12  25  45  67 103 144 188 244 302 364 443
#     4  12  24  48  72 112 148 186 254 300 368 426
#
# _framework density 19.993600000000001
#
# number of rings (size 3 to 8) (size 9 to 14) (size 15 to 20)
#    0.000    0.000    5.333    6.800    0.000    2.133 
#    0.000    0.000    0.000    1.600    0.000    0.000 
#    0.000    0.000    0.000    0.000    0.000    0.000 
#
# Total GULP energy -251400.416985 kJ/mol
# GULP energy per Si atom -5586.675933 kJ/mol
# Density = 1.994809 g / cm^3
# Si number density = 19.993600 Si / 1000 Ang^3
#
#
#
# Elastic Constant Matrix: (Units=GPa)
#
#
# Indices 1 2 3 4 5 6 
#
# 1 115.5001 70.0835 55.2477 0.0000 0.0000 0.0000
# 2 70.0835 115.5001 55.2477 0.0000 0.0000 0.0000
# 3 55.2477 55.2477 124.3788 0.0000 0.0000 0.0000
# 4 0.0000 0.0000 0.0000 27.9028 0.0000 0.0000
# 5 0.0000 0.0000 0.0000 0.0000 27.9028 0.0000
# 6 0.0000 0.0000 0.0000 0.0000 0.0000 22.7083
#
#
#
# Elastic Compliance Matrix: (Units=1/GPa)
#
#
# Indices 1 2 3 4 5 6 
#
# 1 0.014672 -0.007346 -0.003254 0.000000 0.000000 0.000000
# 2 -0.007346 0.014672 -0.003254 0.000000 0.000000 0.000000
# 3 -0.003254 -0.003254 0.010931 0.000000 0.000000 0.000000
# 4 0.000000 0.000000 0.000000 0.035839 0.000000 0.000000
# 5 0.000000 0.000000 0.000000 0.000000 0.035839 0.000000
# 6 0.000000 0.000000 0.000000 0.000000 0.000000 0.044037
#
#
# Mechanical properties :
#
#
# Convention : Reuss Voigt Hill
#
# Bulk Modulus (GPa) = 79.57824 79.61520 79.59672
# Shear Modulus (GPa) = 26.61174 27.35609 26.98392
#
# Velocity S-wave (km/s) = 3.65226 3.70299 3.67771
# Velocity P-wave (km/s) = 7.59432 7.62821 7.61128
#
# Compressibility (1/GPa) = 0.01256625
#
# Stress axis : x y z
#
# Youngs Moduli (GPa) = 68.15640 68.15640 91.48467
#
# Poissons Ratio (x) = 0.50070 0.29770
# Poissons Ratio (y) = 0.50070 0.29770
# Poissons Ratio (z) = 0.22179 0.22179
#
# Static dielectric constant tensor:
#      x y z
#    x 1.766940 0.000000 0.000000 
#    y 0.000000 1.766940 0.000000 
#    z 0.000000 0.000000 1.730710 
# 
# From -- ./inp_files/7410.got.cif
#   From: 2010.05.17/outbox.cif.g08.bks.cpg/sg180_4_cif.got.tgz:7410.got - 2010.05.20 11:43:55.
