data_PCOD9584644
_publ_section_title
;
Structure prediction by ZEFSAII (Michael W. Deem and Ramdas Pophale) SiO2 
 PCOD9584644
Probable space group: P 63 2 2
;
_chemical_formula_sum "Si O2"
_cell_formula_units_Z 96
_cell_length_a 17.710290
_cell_length_b 17.710290
_cell_length_c 22.096245
_cell_angle_alpha 90.000000
_cell_angle_beta 90.000000
_cell_angle_gamma 120.000000
_cell_volume 6002.061674
_symmetry_space_group_name_H-M "P 63 2 2"
_symmetry_group_IT_number 182
_symmetry_cell_setting 'hexagonal'
loop_
_space_group_symop_operation_xyz
x,y,z
x-y,x,1/2+z
-y,x-y,z
-x,-y,1/2+z
-x+y,-x,z
y,-x+y,1/2+z
x-y,-y,-z
-x,-x+y,-z
y,x,-z
-y,-x,1/2-z
-x+y,y,1/2-z
x,x-y,1/2-z
loop_
_atom_site_type_symbol
_atom_site_label
_atom_site_fract_x
_atom_site_fract_y
_atom_site_fract_z
Si Si1 0.657330 0.502056 0.159794
Si Si2 0.527542 0.904750 0.992116
Si Si3 0.679253 0.509410 0.366255
Si Si4 0.359638 0.264306 0.235725
Si Si5 0.622293 0.898939 0.238381
Si Si6 0.974195 0.401850 0.060449
Si Si7 0.823841 0.508504 0.875886
Si Si8 0.500471 0.143646 0.852787
O O1 0.561833 0.417902 0.155114
O O2 0.730070 0.474876 0.150329
O O3 0.679077 0.556629 0.221016
O O4 0.665272 0.567520 0.106101
O O5 0.527649 0.846552 0.937299
O O6 0.454189 0.928351 0.968492
O O7 0.512298 0.858330 0.056331
O O8 0.612074 0.000000 0.000000
O O9 0.712548 0.599271 0.330822
O O10 0.328275 0.164138 0.250000
O O11 0.291539 0.296538 0.245716
O O12 0.642119 0.821060 0.250000
O O13 0.583619 0.887020 0.170758
O O14 0.549873 0.885836 0.288751
O O15 0.940001 0.399939 0.898230
O O16 0.000000 0.369463 0.000000
O O17 0.818287 0.421891 0.847822
O O18 0.734008 0.510241 0.876720
#
# Coordination Sequence:
#
# PCOD9584644 Si02
#       8
#    12  12  12  12  12  12  12  12
#     4  10  20  33  49  72 101 133 171 208 256 304
#     4  10  19  33  48  68  96 134 177 209 263 312
#     4  10  21  30  49  73 101 135 167 212 250 311
#     4  10  20  35  54  77  99 132 171 212 263 318
#     4  10  22  37  56  77 101 135 178 221 270 320
#     4  10  19  33  51  66  97 138 171 211 258 319
#     4  11  22  33  52  76 103 141 180 228 263 316
#     4  11  21  36  52  75 104 139 183 226 268 309
#
# _framework density 15.994503999999999
#
# number of rings (size 3 to 8) (size 9 to 14) (size 15 to 20)
#    0.000    1.750    3.750    2.000    3.500    1.000 
#    0.000    2.500    0.000    0.250    0.000    0.000 
#    0.000    0.000    0.000    0.000    0.000   17.750 
#
# Total GULP energy -534680.211358 kJ/mol
# GULP energy per Si atom -5569.585535 kJ/mol
# Density = 1.595810 g / cm^3
# Si number density = 15.994504 Si / 1000 Ang^3
#
#
#
# Elastic Constant Matrix: (Units=GPa)
#
#
# Indices 1 2 3 4 5 6 
#
# 1 50.7246 38.5789 30.6351 0.0000 0.0000 0.0000
# 2 38.5789 50.7246 30.6351 0.0000 0.0000 0.0000
# 3 30.6351 30.6351 103.7400 0.0000 0.0000 0.0000
# 4 0.0000 0.0000 0.0000 18.2740 0.0000 0.0000
# 5 0.0000 0.0000 0.0000 0.0000 18.2740 0.0000
# 6 0.0000 0.0000 0.0000 0.0000 0.0000 6.0729
#
#
#
# Elastic Compliance Matrix: (Units=1/GPa)
#
#
# Indices 1 2 3 4 5 6 
#
# 1 0.048188 -0.034145 -0.004147 0.000000 0.000000 0.000000
# 2 -0.034145 0.048188 -0.004147 0.000000 0.000000 0.000000
# 3 -0.004147 -0.004147 0.012089 0.000000 0.000000 0.000000
# 4 0.000000 0.000000 0.000000 0.054723 0.000000 0.000000
# 5 0.000000 0.000000 0.000000 0.000000 0.054723 0.000000
# 6 0.000000 0.000000 0.000000 0.000000 0.000000 0.164667
#
#
# Mechanical properties :
#
#
# Convention : Reuss Voigt Hill
#
# Bulk Modulus (GPa) = 42.39665 44.98748 43.69206
# Shear Modulus (GPa) = 10.51926 15.54684 13.03305
#
# Velocity S-wave (km/s) = 2.56731 3.12109 2.85765
# Velocity P-wave (km/s) = 5.94581 6.41687 6.18582
#
# Compressibility (1/GPa) = 0.02358677
#
# Stress axis : x y z
#
# Youngs Moduli (GPa) = 20.75192 20.75192 82.72155
#
# Poissons Ratio (x) = 0.70858 0.34304
# Poissons Ratio (y) = 0.70858 0.34304
# Poissons Ratio (z) = 0.08606 0.08606
#
# Static dielectric constant tensor:
#      x y z
#    x 1.541080 0.000000 0.000000 
#    y 0.000000 1.541080 0.000000 
#    z 0.000000 0.000000 1.584840 
# 
# From -- ./inp_files/5019.got.cif
#   From: 2010.05.17/outbox.cif.g08.bks.cpg/sg182_3_cif.got.tgz:5019.got - 2010.05.20 11:58:53.
