data_PCOD9584608
_publ_section_title
;
Structure prediction by ZEFSAII (Michael W. Deem and Ramdas Pophale) SiO2 
 PCOD9584608
Probable space group: P 63 2 2
;
_chemical_formula_sum "Si O2"
_cell_formula_units_Z 90
_cell_length_a 17.908633
_cell_length_b 17.908633
_cell_length_c 18.827841
_cell_angle_alpha 90.000000
_cell_angle_beta 90.000000
_cell_angle_gamma 120.000000
_cell_volume 5229.450144
_symmetry_space_group_name_H-M "P 63 2 2"
_symmetry_group_IT_number 182
_symmetry_cell_setting 'hexagonal'
loop_
_space_group_symop_operation_xyz
x,y,z
x-y,x,1/2+z
-y,x-y,z
-x,-y,1/2+z
-x+y,-x,z
y,-x+y,1/2+z
x-y,-y,-z
-x,-x+y,-z
y,x,-z
-y,-x,1/2-z
-x+y,y,1/2-z
x,x-y,1/2-z
loop_
_atom_site_type_symbol
_atom_site_label
_atom_site_fract_x
_atom_site_fract_y
_atom_site_fract_z
Si Si1 0.194586 0.106729 0.123160
Si Si2 0.949631 0.198243 0.703690
Si Si3 0.665171 0.503857 0.340551
Si Si4 0.858505 0.686580 0.572686
Si Si5 0.845231 0.511878 0.329164
Si Si6 0.913091 0.647688 0.043603
Si Si7 0.701190 0.990636 0.662369
Si Si8 0.867078 0.000000 0.500000
O O1 0.170979 0.150588 0.185575
O O2 0.269614 0.191489 0.084685
O O3 0.238945 0.052143 0.147505
O O4 0.121274 0.050172 0.065713
O O5 0.876607 0.123394 0.750000
O O6 0.900092 0.195821 0.631908
O O7 0.987296 0.282491 0.753571
O O8 0.750207 0.494678 0.347459
O O9 0.572754 0.419866 0.353322
O O10 0.664825 0.522023 0.256480
O O11 0.682070 0.577137 0.397134
O O12 0.790774 0.626870 0.512909
O O13 0.925393 0.777350 0.534567
O O14 0.922631 0.663128 0.614869
O O15 0.920780 0.603746 0.357058
O O16 0.000000 0.676185 0.000000
#
# Coordination Sequence:
#
# PCOD9584608 Si02
#       8
#    12  12  12  12  12  12  12   6
#     4  10  17  31  49  72  93 137 183 224 263 316
#     4  10  19  29  48  75 101 130 181 239 272 306
#     4  10  21  35  55  82 107 140 173 214 277 333
#     4   9  19  32  47  76 102 134 182 229 259 314
#     4  10  20  36  57  80 110 137 177 221 269 338
#     4  11  19  32  54  78 105 139 180 217 268 326
#     4  10  19  32  54  78 100 140 186 224 268 318
#     4   8  18  28  46  66  94 132 184 222 264 304
#
# _framework density 17.210222999999999
#
# number of rings (size 3 to 8) (size 9 to 14) (size 15 to 20)
#    0.000    2.133    2.667    1.467    1.867    1.067 
#    0.000    1.333    0.000   44.800    0.000    0.000 
#    0.000    0.000    0.000    0.000    0.000    0.000 
#
# Total GULP energy -501225.082078 kJ/mol
# GULP energy per Si atom -5569.167579 kJ/mol
# Density = 1.717105 g / cm^3
# Si number density = 17.210223 Si / 1000 Ang^3
#
#
#
# Elastic Constant Matrix: (Units=GPa)
#
#
# Indices 1 2 3 4 5 6 
#
# 1 59.7225 36.4684 23.9568 0.0000 0.0000 0.0000
# 2 36.4684 59.7225 23.9568 0.0000 0.0000 0.0000
# 3 23.9568 23.9568 70.6459 0.0000 0.0000 0.0000
# 4 0.0000 0.0000 0.0000 21.3654 0.0000 0.0000
# 5 0.0000 0.0000 0.0000 0.0000 21.3654 0.0000
# 6 0.0000 0.0000 0.0000 0.0000 0.0000 11.6270
#
#
#
# Elastic Compliance Matrix: (Units=1/GPa)
#
#
# Indices 1 2 3 4 5 6 
#
# 1 0.027756 -0.015247 -0.004242 0.000000 0.000000 0.000000
# 2 -0.015247 0.027756 -0.004242 0.000000 0.000000 0.000000
# 3 -0.004242 -0.004242 0.017032 0.000000 0.000000 0.000000
# 4 0.000000 0.000000 0.000000 0.046805 0.000000 0.000000
# 5 0.000000 0.000000 0.000000 0.000000 0.046805 0.000000
# 6 0.000000 0.000000 0.000000 0.000000 0.000000 0.086006
#
#
# Mechanical properties :
#
#
# Convention : Reuss Voigt Hill
#
# Bulk Modulus (GPa) = 39.86882 39.87277 39.87080
# Shear Modulus (GPa) = 16.23468 17.91882 17.07675
#
# Velocity S-wave (km/s) = 3.07468 3.23022 3.15341
# Velocity P-wave (km/s) = 5.98506 6.09351 6.03953
#
# Compressibility (1/GPa) = 0.02508226
#
# Stress axis : x y z
#
# Youngs Moduli (GPa) = 36.02818 36.02818 58.71278
#
# Poissons Ratio (x) = 0.54933 0.24905
# Poissons Ratio (y) = 0.54933 0.24905
# Poissons Ratio (z) = 0.15283 0.15283
#
# Static dielectric constant tensor:
#      x y z
#    x 1.591160 0.000000 0.000000 
#    y 0.000000 1.591160 0.000000 
#    z 0.000000 0.000000 1.679100 
# 
# From -- ./inp_files/4522.got.cif
#   From: 2010.05.17/outbox.cif.g08.bks.cpg/sg182_3_cif.got.tgz:4522.got - 2010.05.20 11:58:53.
