data_PCOD9584511
_publ_section_title
;
Structure prediction by ZEFSAII (Michael W. Deem and Ramdas Pophale) SiO2 
 PCOD9584511
Probable space group: P 64 2 2
;
_chemical_formula_sum "Si O2"
_cell_formula_units_Z 51
_cell_length_a 11.804660
_cell_length_b 11.804660
_cell_length_c 20.165625
_cell_angle_alpha 90.000000
_cell_angle_beta 90.000000
_cell_angle_gamma 120.000000
_cell_volume 2433.600491
_symmetry_space_group_name_H-M "P 64 2 2"
_symmetry_group_IT_number 181
_symmetry_cell_setting 'hexagonal'
loop_
_space_group_symop_operation_xyz
x,y,z
x-y,x,2/3+z
-y,x-y,1/3+z
-x,-y,z
-x+y,-x,2/3+z
y,-x+y,1/3+z
x-y,-y,-z
-x,-x+y,2/3-z
y,x,1/3-z
-y,-x,1/3-z
-x+y,y,-z
x,x-y,2/3-z
loop_
_atom_site_type_symbol
_atom_site_label
_atom_site_fract_x
_atom_site_fract_y
_atom_site_fract_z
Si Si1 0.500000 0.500000 0.166667
Si Si2 0.095600 0.146590 0.091081
Si Si3 0.356386 0.259731 0.921851
Si Si4 0.630775 0.007641 0.113982
Si Si5 0.262790 0.389149 0.266965
O O1 0.376979 0.462778 0.214039
O O2 0.127772 0.127772 0.166667
O O3 0.237057 0.221131 0.059455
O O4 0.018844 0.224371 0.082937
O O5 0.000000 0.000000 0.067557
O O6 0.410101 0.352296 0.857379
O O7 0.351498 0.120531 0.914185
O O8 0.434545 0.309949 0.990919
O O9 0.500000 0.000000 0.086842
O O10 0.614816 0.867350 0.094966
#
# Coordination Sequence:
#
# PCOD9584511 Si02
#       5
#     3  12  12  12  12
#     4  12  28  44  62  96 148 184 218 280 320 416
#     4  11  18  37  69 105 134 154 209 290 348 392
#     4  11  23  40  70 100 126 175 221 283 343 387
#     4  11  24  44  65  95 133 171 229 278 319 400
#     4  12  24  42  67  99 137 177 220 271 342 401
#
# _framework density 20.956602
#
# number of rings (size 3 to 8) (size 9 to 14) (size 15 to 20)
#    0.000    0.706    5.882    2.824    1.647    4.706 
#    0.000    0.000    5.176    0.000    0.000    0.000 
#    0.000    0.000    0.000    0.000    0.000    0.000 
#
# Total GULP energy -284355.720665 kJ/mol
# GULP energy per Si atom -5575.602366 kJ/mol
# Density = 2.090890 g / cm^3
# Si number density = 20.956602 Si / 1000 Ang^3
#
#
#
# Elastic Constant Matrix: (Units=GPa)
#
#
# Indices 1 2 3 4 5 6 
#
# 1 86.5594 44.6987 4.5542 0.0000 0.0000 0.0000
# 2 44.6987 86.5594 4.5542 0.0000 0.0000 0.0000
# 3 4.5542 4.5542 155.4077 0.0000 0.0000 0.0000
# 4 0.0000 0.0000 0.0000 155.3232 0.0000 0.0000
# 5 0.0000 0.0000 0.0000 0.0000 155.3232 0.0000
# 6 0.0000 0.0000 0.0000 0.0000 0.0000 20.9304
#
#
#
# Elastic Compliance Matrix: (Units=1/GPa)
#
#
# Indices 1 2 3 4 5 6 
#
# 1 0.015761 -0.008127 -0.000224 0.000000 0.000000 0.000000
# 2 -0.008127 0.015761 -0.000224 0.000000 0.000000 0.000000
# 3 -0.000224 -0.000224 0.006448 0.000000 0.000000 0.000000
# 4 0.000000 0.000000 0.000000 0.006438 0.000000 0.000000
# 5 0.000000 0.000000 0.000000 0.000000 0.006438 0.000000
# 6 0.000000 0.000000 0.000000 0.000000 0.000000 0.047777
#
#
# Mechanical properties :
#
#
# Convention : Reuss Voigt Hill
#
# Bulk Modulus (GPa) = 48.02812 48.46008 48.24410
# Shear Modulus (GPa) = 40.74502 84.62998 62.68750
#
# Velocity S-wave (km/s) = 4.41416 6.36169 5.47521
# Velocity P-wave (km/s) = 6.99624 8.78269 7.93987
#
# Compressibility (1/GPa) = 0.02082114
#
# Stress axis : x y z
#
# Youngs Moduli (GPa) = 63.44606 63.44606 155.09170
#
# Poissons Ratio (x) = 0.51565 0.03470
# Poissons Ratio (y) = 0.51565 0.03470
# Poissons Ratio (z) = 0.01419 0.01419
#
# Static dielectric constant tensor:
#      x y z
#    x 1.682260 0.000000 0.000000 
#    y 0.000000 1.682260 0.000000 
#    z 0.000000 0.000000 2.006730 
# 
# From -- ./inp_files/8827.got.cif
#   From: 2010.05.17/outbox.cif.g08.bks.cpg/sg181_5_cif.got.tgz:8827.got - 2010.05.20 11:51:17.
