data_PCOD9584610
_publ_section_title
;
Structure prediction by ZEFSAII (Michael W. Deem and Ramdas Pophale) SiO2 
 PCOD9584610
Probable space group: P 63 2 2
;
_chemical_formula_sum "Si O2"
_cell_formula_units_Z 52
_cell_length_a 11.666660
_cell_length_b 11.666660
_cell_length_c 20.747272
_cell_angle_alpha 90.000000
_cell_angle_beta 90.000000
_cell_angle_gamma 120.000000
_cell_volume 2445.595999
_symmetry_space_group_name_H-M "P 63 2 2"
_symmetry_group_IT_number 182
_symmetry_cell_setting 'hexagonal'
loop_
_space_group_symop_operation_xyz
x,y,z
x-y,x,1/2+z
-y,x-y,z
-x,-y,1/2+z
-x+y,-x,z
y,-x+y,1/2+z
x-y,-y,-z
-x,-x+y,-z
y,x,-z
-y,-x,1/2-z
-x+y,y,1/2-z
x,x-y,1/2-z
loop_
_atom_site_type_symbol
_atom_site_label
_atom_site_fract_x
_atom_site_fract_y
_atom_site_fract_z
Si Si1 0.437430 0.053507 0.066379
Si Si2 0.591055 0.879526 0.889474
Si Si3 0.694972 0.843741 0.388449
Si Si4 0.695377 0.847689 0.250000
Si Si5 0.157123 0.314245 0.750000
Si Si6 0.000000 0.000000 0.921062
O O1 0.565101 0.099257 0.110650
O O2 0.420423 0.182885 0.064689
O O3 0.296576 0.928721 0.085828
O O4 0.462617 0.000000 0.000000
O O5 0.612858 0.839521 0.816899
O O6 0.712849 0.019344 0.913623
O O7 0.628221 0.793852 0.317942
O O8 0.853031 0.946910 0.393866
O O9 0.781617 0.778805 0.236824
O O10 0.000000 0.000000 0.000000
#
# Coordination Sequence:
#
# PCOD9584610 Si02
#       6
#    12  12  12   6   6   4
#     4  12  27  45  70  99 148 196 245 304 369 446
#     4  11  26  45  70 107 137 194 252 302 378 441
#     4  11  22  42  69 102 132 176 238 313 368 432
#     4  10  17  36  66 102 128 161 218 292 370 417
#     4  10  19  40  72 102 142 171 230 306 360 439
#     4  12  21  34  68  97 129 165 232 308 367 417
#
# _framework density 21.262710999999999
#
# number of rings (size 3 to 8) (size 9 to 14) (size 15 to 20)
#    0.000    0.923    4.615    2.769    3.231    0.923 
#    1.385    0.000    0.000    0.000    0.000    0.000 
#    0.000    0.000    0.000    0.000    0.000    0.000 
#
# Total GULP energy -289594.309821 kJ/mol
# GULP energy per Si atom -5569.121343 kJ/mol
# Density = 2.121432 g / cm^3
# Si number density = 21.262711 Si / 1000 Ang^3
#
#
#
# Elastic Constant Matrix: (Units=GPa)
#
#
# Indices 1 2 3 4 5 6 
#
# 1 103.9001 45.5383 24.5085 0.0000 0.0000 0.0000
# 2 45.5383 103.9001 24.5085 0.0000 0.0000 0.0000
# 3 24.5085 24.5085 77.2827 0.0000 0.0000 0.0000
# 4 0.0000 0.0000 0.0000 31.5447 0.0000 0.0000
# 5 0.0000 0.0000 0.0000 0.0000 31.5447 0.0000
# 6 0.0000 0.0000 0.0000 0.0000 0.0000 29.1809
#
#
#
# Elastic Compliance Matrix: (Units=1/GPa)
#
#
# Indices 1 2 3 4 5 6 
#
# 1 0.012302 -0.004833 -0.002369 0.000000 0.000000 0.000000
# 2 -0.004833 0.012302 -0.002369 0.000000 0.000000 0.000000
# 3 -0.002369 -0.002369 0.014442 0.000000 0.000000 0.000000
# 4 0.000000 0.000000 0.000000 0.031701 0.000000 0.000000
# 5 0.000000 0.000000 0.000000 0.000000 0.031701 0.000000
# 6 0.000000 0.000000 0.000000 0.000000 0.000000 0.034269
#
#
# Mechanical properties :
#
#
# Convention : Reuss Voigt Hill
#
# Bulk Modulus (GPa) = 50.23878 52.68818 51.46348
# Shear Modulus (GPa) = 30.77097 31.15590 30.96343
#
# Velocity S-wave (km/s) = 3.80831 3.83205 3.82020
# Velocity P-wave (km/s) = 6.55870 6.66430 6.61171
#
# Compressibility (1/GPa) = 0.01990494
#
# Stress axis : x y z
#
# Youngs Moduli (GPa) = 81.29050 81.29050 69.24368
#
# Poissons Ratio (x) = 0.39287 0.16400
# Poissons Ratio (y) = 0.39287 0.16400
# Poissons Ratio (z) = 0.19254 0.19254
#
# Static dielectric constant tensor:
#      x y z
#    x 1.742590 0.000000 0.000000 
#    y 0.000000 1.742590 0.000000 
#    z 0.000000 0.000000 1.843290 
# 
# From -- ./inp_files/4841.got.cif
#   From: 2010.05.17/outbox.cif.g08.bks.cpg/sg182_3_cif.got.tgz:4841.got - 2010.05.20 11:58:53.
