data_PCOD9584797
_publ_section_title
;
Structure prediction by ZEFSAII (Michael W. Deem and Ramdas Pophale) SiO2 
 PCOD9584797
Probable space group: P 63 2 2
;
_chemical_formula_sum "Si O2"
_cell_formula_units_Z 54
_cell_length_a 11.592769
_cell_length_b 11.592769
_cell_length_c 22.358898
_cell_angle_alpha 90.000000
_cell_angle_beta 90.000000
_cell_angle_gamma 120.000000
_cell_volume 2602.288189
_symmetry_space_group_name_H-M "P 63 2 2"
_symmetry_group_IT_number 182
_symmetry_cell_setting 'hexagonal'
loop_
_space_group_symop_operation_xyz
x,y,z
x-y,x,1/2+z
-y,x-y,z
-x,-y,1/2+z
-x+y,-x,z
y,-x+y,1/2+z
x-y,-y,-z
-x,-x+y,-z
y,x,-z
-y,-x,1/2-z
-x+y,y,1/2-z
x,x-y,1/2-z
loop_
_atom_site_type_symbol
_atom_site_label
_atom_site_fract_x
_atom_site_fract_y
_atom_site_fract_z
Si Si1 0.266464 0.258808 0.135978
Si Si2 0.277061 0.009114 0.887283
Si Si3 0.398031 0.330938 0.258359
Si Si4 0.457895 0.829020 0.915257
Si Si5 0.443154 0.443154 0.500000
O O1 0.147416 0.277230 0.113530
O O2 0.283255 0.276915 0.207601
O O3 0.416248 0.366668 0.114732
O O4 0.242767 0.116816 0.111653
O O5 0.326957 0.989189 0.822941
O O6 0.370640 0.017371 0.942409
O O7 0.522315 0.477686 0.250000
O O8 0.449623 0.224812 0.250000
O O9 0.302080 0.769417 0.899971
O O10 0.461938 0.874705 0.983463
#
# Coordination Sequence:
#
# PCOD9584797 Si02
#       5
#    12  12  12  12   6
#     4  11  23  42  72  94 142 171 231 285 337 418
#     4  11  24  42  62 105 129 189 218 281 352 407
#     4  10  22  40  67 100 134 176 233 288 344 410
#     4  10  23  42  66 100 131 177 233 280 333 411
#     4  12  24  42  66  92 144 170 236 272 346 414
#
# _framework density 20.750968
#
# number of rings (size 3 to 8) (size 9 to 14) (size 15 to 20)
#    0.444    0.889    2.222    2.667    6.222    0.889 
#    0.000    2.222    0.000    6.222    0.000    0.000 
#    0.000    0.000    0.000    0.000    0.000    0.000 
#
# Total GULP energy -300742.729191 kJ/mol
# GULP energy per Si atom -5569.309800 kJ/mol
# Density = 2.070374 g / cm^3
# Si number density = 20.750968 Si / 1000 Ang^3
#
#
#
# Elastic Constant Matrix: (Units=GPa)
#
#
# Indices 1 2 3 4 5 6 
#
# 1 100.1040 47.9259 41.7863 0.0000 0.0000 0.0000
# 2 47.9259 100.1040 41.7863 0.0000 0.0000 0.0000
# 3 41.7863 41.7863 127.5704 0.0000 0.0000 0.0000
# 4 0.0000 0.0000 0.0000 23.4465 0.0000 0.0000
# 5 0.0000 0.0000 0.0000 0.0000 23.4465 0.0000
# 6 0.0000 0.0000 0.0000 0.0000 0.0000 26.0891
#
#
#
# Elastic Compliance Matrix: (Units=1/GPa)
#
#
# Indices 1 2 3 4 5 6 
#
# 1 0.013727 -0.005439 -0.002715 0.000000 0.000000 0.000000
# 2 -0.005439 0.013727 -0.002715 0.000000 0.000000 0.000000
# 3 -0.002715 -0.002715 0.009617 0.000000 0.000000 0.000000
# 4 0.000000 0.000000 0.000000 0.042650 0.000000 0.000000
# 5 0.000000 0.000000 0.000000 0.000000 0.042650 0.000000
# 6 0.000000 0.000000 0.000000 0.000000 0.000000 0.038330
#
#
# Mechanical properties :
#
#
# Convention : Reuss Voigt Hill
#
# Bulk Modulus (GPa) = 65.21346 65.64169 65.42758
# Shear Modulus (GPa) = 26.65970 27.68174 27.17072
#
# Velocity S-wave (km/s) = 3.58822 3.65636 3.62245
# Velocity P-wave (km/s) = 6.97582 7.03754 7.00675
#
# Compressibility (1/GPa) = 0.01533426
#
# Stress axis : x y z
#
# Youngs Moduli (GPa) = 72.85129 72.85129 103.97931
#
# Poissons Ratio (x) = 0.39620 0.28228
# Poissons Ratio (y) = 0.39620 0.28228
# Poissons Ratio (z) = 0.19778 0.19778
#
# Static dielectric constant tensor:
#      x y z
#    x 1.780610 0.000000 0.000000 
#    y 0.000000 1.780610 0.000000 
#    z 0.000000 0.000000 1.781270 
# 
# From -- ./inp_files/4802.got.cif
#   From: 2010.05.17/outbox.cif.g08.bks.cpg/sg182_3_cif.got.tgz:4802.got - 2010.05.20 11:58:53.
