data_PCOD9584467
_publ_section_title
;
Structure prediction by ZEFSAII (Michael W. Deem and Ramdas Pophale) SiO2 
 PCOD9584467
Probable space group: P 64 2 2
;
_chemical_formula_sum "Si O2"
_cell_formula_units_Z 72
_cell_length_a 15.076381
_cell_length_b 15.076381
_cell_length_c 17.310436
_cell_angle_alpha 90.000000
_cell_angle_beta 90.000000
_cell_angle_gamma 120.000000
_cell_volume 3407.476321
_symmetry_space_group_name_H-M "P 64 2 2"
_symmetry_group_IT_number 181
_symmetry_cell_setting 'hexagonal'
loop_
_space_group_symop_operation_xyz
x,y,z
x-y,x,2/3+z
-y,x-y,1/3+z
-x,-y,z
-x+y,-x,2/3+z
y,-x+y,1/3+z
x-y,-y,-z
-x,-x+y,2/3-z
y,x,1/3-z
-y,-x,1/3-z
-x+y,y,-z
x,x-y,2/3-z
loop_
_atom_site_type_symbol
_atom_site_label
_atom_site_fract_x
_atom_site_fract_y
_atom_site_fract_z
Si Si1 0.154082 0.593302 0.924630
Si Si2 0.086369 0.380869 0.002869
Si Si3 0.614883 0.911234 0.150656
Si Si4 0.392293 0.136920 0.911918
Si Si5 0.774469 0.110613 0.386887
Si Si6 0.758664 0.377354 0.431685
O O1 0.140162 0.570081 0.833334
O O2 0.113195 0.668639 0.947261
O O3 0.275190 0.665809 0.938630
O O4 0.101575 0.486479 0.968147
O O5 0.058263 0.372765 0.093057
O O6 0.198160 0.396319 0.000000
O O7 0.010197 0.276028 0.957562
O O8 0.663404 0.840008 0.126597
O O9 0.494344 0.841105 0.129641
O O10 0.672261 0.016964 0.104040
O O11 0.387729 0.193865 0.833334
O O12 0.510364 0.181234 0.939544
O O13 0.334729 0.161180 0.979232
O O14 0.697830 0.395660 0.500000
#
# Coordination Sequence:
#
# PCOD9584467 Si02
#       6
#    12  12  12  12  12  12
#     4  10  23  41  62  98 141 177 215 263 328 403
#     4  12  25  40  68  94 132 176 221 277 346 408
#     4  11  24  42  65  98 130 179 227 274 336 408
#     4  11  22  40  66  93 132 175 228 271 332 398
#     4  11  25  42  63  96 129 175 223 285 332 395
#     4   9  20  37  61  95 137 171 215 261 314 403
#
# _framework density 21.130008
#
# number of rings (size 3 to 8) (size 9 to 14) (size 15 to 20)
#    0.000    1.333    1.667    4.500    7.000    6.667 
#    0.000    3.333    0.000    2.000    0.000    0.000 
#    0.000    0.000    0.000    0.000    0.000    0.000 
#
# Total GULP energy -402140.383181 kJ/mol
# GULP energy per Si atom -5585.283100 kJ/mol
# Density = 2.108191 g / cm^3
# Si number density = 21.130008 Si / 1000 Ang^3
#
#
#
# Elastic Constant Matrix: (Units=GPa)
#
#
# Indices 1 2 3 4 5 6 
#
# 1 83.9065 47.5427 23.5082 0.0000 0.0000 0.0000
# 2 47.5427 83.9065 23.5082 0.0000 0.0000 0.0000
# 3 23.5082 23.5082 90.2496 0.0000 0.0000 0.0000
# 4 0.0000 0.0000 0.0000 122.5013 0.0000 0.0000
# 5 0.0000 0.0000 0.0000 0.0000 122.5013 0.0000
# 6 0.0000 0.0000 0.0000 0.0000 0.0000 18.1819
#
#
#
# Elastic Compliance Matrix: (Units=1/GPa)
#
#
# Indices 1 2 3 4 5 6 
#
# 1 0.017944 -0.009555 -0.002185 0.000000 0.000000 0.000000
# 2 -0.009555 0.017944 -0.002185 0.000000 0.000000 0.000000
# 3 -0.002185 -0.002185 0.012219 0.000000 0.000000 0.000000
# 4 0.000000 0.000000 0.000000 0.008163 0.000000 0.000000
# 5 0.000000 0.000000 0.000000 0.000000 0.008163 0.000000
# 6 0.000000 0.000000 0.000000 0.000000 0.000000 0.055000
#
#
# Mechanical properties :
#
#
# Convention : Reuss Voigt Hill
#
# Bulk Modulus (GPa) = 49.36759 49.68676 49.52718
# Shear Modulus (GPa) = 32.45964 63.53714 47.99839
#
# Velocity S-wave (km/s) = 3.92367 5.48953 4.77127
# Velocity P-wave (km/s) = 6.62883 7.98409 7.33782
#
# Compressibility (1/GPa) = 0.02025620
#
# Stress axis : x y z
#
# Youngs Moduli (GPa) = 55.72743 55.72743 81.84130
#
# Poissons Ratio (x) = 0.53250 0.17884
# Poissons Ratio (y) = 0.53250 0.17884
# Poissons Ratio (z) = 0.12177 0.12177
#
# Static dielectric constant tensor:
#      x y z
#    x 1.767750 0.000000 0.000000 
#    y 0.000000 1.767750 0.000000 
#    z 0.000000 0.000000 2.047210 
# 
# From -- ./inp_files/7784.got.cif
#   From: 2010.05.17/outbox.cif.g08.bks.cpg/sg181_4_cif.got.tgz:7784.got - 2010.05.20 11:51:17.
