data_PCOD9584736
_publ_section_title
;
Structure prediction by ZEFSAII (Michael W. Deem and Ramdas Pophale) SiO2 
 PCOD9584736
Probable space group: P 63 2 2
;
_chemical_formula_sum "Si O2"
_cell_formula_units_Z 52
_cell_length_a 12.970155
_cell_length_b 12.970155
_cell_length_c 20.740404
_cell_angle_alpha 90.000000
_cell_angle_beta 90.000000
_cell_angle_gamma 120.000000
_cell_volume 3021.608376
_symmetry_space_group_name_H-M "P 63 2 2"
_symmetry_group_IT_number 182
_symmetry_cell_setting 'hexagonal'
loop_
_space_group_symop_operation_xyz
x,y,z
x-y,x,1/2+z
-y,x-y,z
-x,-y,1/2+z
-x+y,-x,z
y,-x+y,1/2+z
x-y,-y,-z
-x,-x+y,-z
y,x,-z
-y,-x,1/2-z
-x+y,y,1/2-z
x,x-y,1/2-z
loop_
_atom_site_type_symbol
_atom_site_label
_atom_site_fract_x
_atom_site_fract_y
_atom_site_fract_z
Si Si1 0.331466 0.424110 0.325582
Si Si2 0.585866 0.914829 0.942923
Si Si3 0.333334 0.666668 0.674839
Si Si4 0.421911 0.334862 0.823738
Si Si5 0.334947 0.465960 0.590957
O O1 0.205240 0.414902 0.337282
O O2 0.440869 0.559751 0.330174
O O3 0.333802 0.386700 0.251136
O O4 0.364310 0.352586 0.376621
O O5 0.580211 0.788918 0.945019
O O6 0.451195 0.892541 0.948964
O O7 0.634151 0.981957 0.874456
O O8 0.662516 0.000000 0.000000
O O9 0.333334 0.666667 0.750000
O O10 0.332196 0.550659 0.647468
#
# Coordination Sequence:
#
# PCOD9584736 Si02
#       5
#    12  12   4  12  12
#     4   9  17  31  51  75 106 134 178 216 268 309
#     4  10  21  35  50  75 108 137 173 209 258 320
#     4   9  18  27  51  78 108 132 165 217 272 316
#     4   9  18  30  49  76 104 139 173 219 258 311
#     4   9  20  33  50  77 103 137 172 216 262 315
#
# _framework density 17.209378000000001
#
# number of rings (size 3 to 8) (size 9 to 14) (size 15 to 20)
#    0.000    2.769    0.000    0.923    9.692    5.538 
#    0.000    0.000    0.000    0.923    0.000    1.615 
#    0.000    0.000    0.000    0.000    0.000    0.000 
#
# Total GULP energy -289951.565083 kJ/mol
# GULP energy per Si atom -5575.991636 kJ/mol
# Density = 1.717021 g / cm^3
# Si number density = 17.209378 Si / 1000 Ang^3
#
#
#
# Elastic Constant Matrix: (Units=GPa)
#
#
# Indices 1 2 3 4 5 6 
#
# 1 81.7040 34.2999 29.2802 0.0000 0.0000 0.0002
# 2 34.2999 81.7038 29.2803 0.0000 -0.0001 -0.0002
# 3 29.2802 29.2803 36.1315 -0.0001 -0.0001 0.0001
# 4 0.0000 0.0000 -0.0001 14.7777 0.0001 0.0001
# 5 0.0000 -0.0001 -0.0001 0.0001 14.7777 0.0000
# 6 0.0002 -0.0002 0.0001 0.0001 0.0000 23.7016
#
#
#
# Elastic Compliance Matrix: (Units=1/GPa)
#
#
# Indices 1 2 3 4 5 6 
#
# 1 0.017842 -0.003253 -0.011822 0.000000 0.000000 0.000000
# 2 -0.003253 0.017842 -0.011822 0.000000 0.000000 0.000000
# 3 -0.011822 -0.011822 0.046838 0.000000 0.000000 0.000000
# 4 0.000000 0.000000 0.000000 0.067669 0.000000 0.000000
# 5 0.000000 0.000000 0.000000 0.000000 0.067670 0.000000
# 6 0.000000 0.000000 0.000000 0.000000 0.000000 0.042191
#
#
# Mechanical properties :
#
#
# Convention : Reuss Voigt Hill
#
# Bulk Modulus (GPa) = 34.81196 42.80668 38.80932
# Shear Modulus (GPa) = 15.45966 17.76334 16.61150
#
# Velocity S-wave (km/s) = 3.00046 3.21626 3.11023
# Velocity P-wave (km/s) = 5.68121 6.22258 5.95804
#
# Compressibility (1/GPa) = 0.02872576
#
# Stress axis : x y z
#
# Youngs Moduli (GPa) = 56.04821 56.04793 21.35036
#
# Poissons Ratio (x) = 0.18235 0.25241
# Poissons Ratio (y) = 0.18235 0.25241
# Poissons Ratio (z) = 0.66261 0.66261
#
# Static dielectric constant tensor:
#      x y z
#    x 1.573850 0.000000 0.000000 
#    y 0.000000 1.573850 0.000000 
#    z 0.000000 0.000000 1.600180 
# 
# From -- ./inp_files/4790.got.cif
#   From: 2010.05.17/outbox.cif.g08.bks.cpg/sg182_3_cif.got.tgz:4790.got - 2010.05.20 11:58:53.
