data_PCOD9584403
_publ_section_title
;
Structure prediction by ZEFSAII (Michael W. Deem and Ramdas Pophale) SiO2 
 PCOD9584403
Probable space group: P 64 2 2
;
_chemical_formula_sum "Si O2"
_cell_formula_units_Z 75
_cell_length_a 11.037005
_cell_length_b 11.037005
_cell_length_c 31.775533
_cell_angle_alpha 90.000000
_cell_angle_beta 90.000000
_cell_angle_gamma 120.000000
_cell_volume 3352.169377
_symmetry_space_group_name_H-M "P 64 2 2"
_symmetry_group_IT_number 181
_symmetry_cell_setting 'hexagonal'
loop_
_space_group_symop_operation_xyz
x,y,z
x-y,x,2/3+z
-y,x-y,1/3+z
-x,-y,z
-x+y,-x,2/3+z
y,-x+y,1/3+z
x-y,-y,-z
-x,-x+y,2/3-z
y,x,1/3-z
-y,-x,1/3-z
-x+y,y,-z
x,x-y,2/3-z
loop_
_atom_site_type_symbol
_atom_site_label
_atom_site_fract_x
_atom_site_fract_y
_atom_site_fract_z
Si Si1 0.159159 0.520971 0.536658
Si Si2 0.288901 0.817711 0.574967
Si Si3 0.857813 0.010117 0.872070
Si Si4 0.305725 0.305725 0.166667
Si Si5 0.000000 0.500000 0.333334
Si Si6 0.964399 0.248529 0.634916
Si Si7 0.500000 0.000000 0.643387
Si Si8 0.238180 0.874894 0.061878
O O1 0.248038 0.496075 0.500000
O O2 0.257840 0.679976 0.550851
O O3 0.168080 0.438075 0.577770
O O4 0.000000 0.500000 0.528791
O O5 0.138483 0.781672 0.595124
O O6 0.401238 0.870273 0.612833
O O7 0.341211 0.935547 0.539432
O O8 0.892887 0.156830 0.852772
O O9 0.803634 0.901817 0.833334
O O10 0.735777 0.985591 0.903996
O O11 0.000000 0.000000 0.885188
O O12 0.911387 0.543231 0.365009
O O13 0.868623 0.131378 0.666667
O O14 0.013092 0.394396 0.658721
O O15 0.105649 0.246991 0.629654
#
# Coordination Sequence:
#
# PCOD9584403 Si02
#       8
#    12  12  12   6   3  12   6  12
#     4  12  29  47  80 110 153 208 258 320 400 492
#     4  11  24  44  69 111 143 197 241 317 391 460
#     4   9  20  40  73 104 130 189 232 321 383 470
#     4  10  23  39  72 104 150 174 254 304 408 450
#     4  12  36  44  70 106 148 228 248 350 388 476
#     4  10  21  43  73  99 136 193 252 308 379 457
#     4  10  24  39  70 103 138 182 250 313 366 453
#     4  12  26  50  68 102 157 191 271 311 403 463
#
# _framework density 22.373570000000001
#
# number of rings (size 3 to 8) (size 9 to 14) (size 15 to 20)
#    0.000    1.440    1.600    3.360    7.840    3.840 
#    0.000    0.000    0.000    0.000    0.000    0.000 
#    0.000    0.000    0.000    0.000    0.000    0.000 
#
# Total GULP energy -417590.443393 kJ/mol
# GULP energy per Si atom -5567.872579 kJ/mol
# Density = 2.232265 g / cm^3
# Si number density = 22.373570 Si / 1000 Ang^3
#
#
#
# Elastic Constant Matrix: (Units=GPa)
#
#
# Indices 1 2 3 4 5 6 
#
# 1 80.0113 29.2813 56.9546 0.0000 0.0000 0.0000
# 2 29.2813 80.0113 56.9546 0.0000 0.0000 0.0000
# 3 56.9546 56.9546 120.2929 0.0000 0.0000 0.0000
# 4 0.0000 0.0000 0.0000 1.6412 0.0000 0.0000
# 5 0.0000 0.0000 0.0000 0.0000 1.6412 0.0000
# 6 0.0000 0.0000 0.0000 0.0000 0.0000 25.3650
#
#
#
# Elastic Compliance Matrix: (Units=1/GPa)
#
#
# Indices 1 2 3 4 5 6 
#
# 1 0.018888 -0.000824 -0.008552 0.000000 0.000000 0.000000
# 2 -0.000824 0.018888 -0.008552 0.000000 0.000000 0.000000
# 3 -0.008552 -0.008552 0.016412 0.000000 0.000000 0.000000
# 4 0.000000 0.000000 0.000000 0.609317 0.000000 0.000000
# 5 0.000000 0.000000 0.000000 0.000000 0.609317 0.000000
# 6 0.000000 0.000000 0.000000 0.000000 0.000000 0.039424
#
#
# Mechanical properties :
#
#
# Convention : Reuss Voigt Hill
#
# Bulk Modulus (GPa) = 54.55904 62.96630 58.76267
# Shear Modulus (GPa) = 3.69218 14.87114 9.28166
#
# Velocity S-wave (km/s) = 1.28601 2.58093 2.03899
# Velocity P-wave (km/s) = 5.16174 6.08981 5.64488
#
# Compressibility (1/GPa) = 0.01832877
#
# Stress axis : x y z
#
# Youngs Moduli (GPa) = 52.94422 52.94422 60.93253
#
# Poissons Ratio (x) = 0.04365 0.52112
# Poissons Ratio (y) = 0.04365 0.52112
# Poissons Ratio (z) = 0.45280 0.45280
#
# Static dielectric constant tensor:
#      x y z
#    x 1.718320 0.000000 0.000000 
#    y 0.000000 1.718320 0.000000 
#    z 0.000000 0.000000 1.644740 
# 
# From -- ./inp_files/12414.got.cif
#   From: 2010.05.17/outbox.cif.g08.bks.cpg/sg181_7_cif.got.tgz:12414.got - 2010.05.20 11:51:17.
