data_PCOD9584691
_publ_section_title
;
Structure prediction by ZEFSAII (Michael W. Deem and Ramdas Pophale) SiO2 
 PCOD9584691
Probable space group: P 63 2 2
;
_chemical_formula_sum "Si O2"
_cell_formula_units_Z 36
_cell_length_a 16.073006
_cell_length_b 16.073006
_cell_length_c 7.917271
_cell_angle_alpha 90.000000
_cell_angle_beta 90.000000
_cell_angle_gamma 120.000000
_cell_volume 1771.333581
_symmetry_space_group_name_H-M "P 63 2 2"
_symmetry_group_IT_number 182
_symmetry_cell_setting 'hexagonal'
loop_
_space_group_symop_operation_xyz
x,y,z
x-y,x,1/2+z
-y,x-y,z
-x,-y,1/2+z
-x+y,-x,z
y,-x+y,1/2+z
x-y,-y,-z
-x,-x+y,-z
y,x,-z
-y,-x,1/2-z
-x+y,y,1/2-z
x,x-y,1/2-z
loop_
_atom_site_type_symbol
_atom_site_label
_atom_site_fract_x
_atom_site_fract_y
_atom_site_fract_z
Si Si1 0.812886 0.710030 0.423151
Si Si2 0.410418 0.135858 0.875330
Si Si3 0.439090 0.074501 0.228132
O O1 0.778076 0.778076 0.500000
O O2 0.871994 0.743987 0.250000
O O3 0.871228 0.688313 0.562507
O O4 0.717416 0.607590 0.371596
O O5 0.455178 0.227589 0.750000
O O6 0.391824 0.036780 0.794183
O O7 0.455534 0.135515 0.056662
O O8 0.537779 0.075557 0.250000
#
# Coordination Sequence:
#
# PCOD9584691 Si02
#       3
#    12  12  12
#     4  10  20  36  59  90 128 160 223 280 320 396
#     4  10  20  34  58  90 122 158 226 269 316 381
#     4  10  22  37  60  87 129 177 214 276 323 390
#
# _framework density 20.32367
#
# number of rings (size 3 to 8) (size 9 to 14) (size 15 to 20)
#    0.000    2.000    3.333    0.000    4.667    0.000 
#    0.000    0.000    0.000   36.667    0.000    0.000 
#  436.667    0.000    0.000    0.000    0.000    0.333 
#
# Total GULP energy -200530.319320 kJ/mol
# GULP energy per Si atom -5570.286648 kJ/mol
# Density = 2.027741 g / cm^3
# Si number density = 20.323670 Si / 1000 Ang^3
#
#
#
# Elastic Constant Matrix: (Units=GPa)
#
#
# Indices 1 2 3 4 5 6 
#
# 1 111.6703 51.7410 45.0896 0.0000 0.0000 0.0000
# 2 51.7410 111.6703 45.0896 0.0000 0.0000 0.0000
# 3 45.0896 45.0896 102.9067 0.0000 0.0000 0.0000
# 4 0.0000 0.0000 0.0000 17.3179 0.0000 0.0000
# 5 0.0000 0.0000 0.0000 0.0000 17.3179 0.0000
# 6 0.0000 0.0000 0.0000 0.0000 0.0000 29.9646
#
#
#
# Elastic Compliance Matrix: (Units=1/GPa)
#
#
# Indices 1 2 3 4 5 6 
#
# 1 0.012379 -0.004308 -0.003536 0.000000 0.000000 0.000000
# 2 -0.004308 0.012379 -0.003536 0.000000 0.000000 0.000000
# 3 -0.003536 -0.003536 0.012817 0.000000 0.000000 0.000000
# 4 0.000000 0.000000 0.000000 0.057744 0.000000 0.000000
# 5 0.000000 0.000000 0.000000 0.000000 0.057744 0.000000
# 6 0.000000 0.000000 0.000000 0.000000 0.000000 0.033373
#
#
# Mechanical properties :
#
#
# Convention : Reuss Voigt Hill
#
# Bulk Modulus (GPa) = 67.50790 67.78749 67.64770
# Shear Modulus (GPa) = 23.35000 25.20856 24.27928
#
# Velocity S-wave (km/s) = 3.39323 3.52569 3.46009
# Velocity P-wave (km/s) = 6.97428 7.07109 7.02285
#
# Compressibility (1/GPa) = 0.01481308
#
# Stress axis : x y z
#
# Youngs Moduli (GPa) = 80.78370 80.78370 78.02382
#
# Poissons Ratio (x) = 0.34798 0.27593
# Poissons Ratio (y) = 0.34798 0.27593
# Poissons Ratio (z) = 0.28569 0.28569
#
# Static dielectric constant tensor:
#      x y z
#    x 1.732470 0.000000 0.000000 
#    y 0.000000 1.732470 0.000000 
#    z 0.000000 0.000000 1.832780 
# 
# From -- ./inp_files/1230.got.cif
#   From: 2010.05.17/outbox.cif.g08.bks.cpg/sg182_1_cif.got.tgz:1230.got - 2010.05.20 11:58:53.
