data_PCOD9584648
_publ_section_title
;
Structure prediction by ZEFSAII (Michael W. Deem and Ramdas Pophale) SiO2 
 PCOD9584648
Probable space group: P 63 2 2
;
_chemical_formula_sum "Si O2"
_cell_formula_units_Z 66
_cell_length_a 21.019263
_cell_length_b 21.019263
_cell_length_c 10.054365
_cell_angle_alpha 90.000000
_cell_angle_beta 90.000000
_cell_angle_gamma 120.000000
_cell_volume 3846.982825
_symmetry_space_group_name_H-M "P 63 2 2"
_symmetry_group_IT_number 182
_symmetry_cell_setting 'hexagonal'
loop_
_space_group_symop_operation_xyz
x,y,z
x-y,x,1/2+z
-y,x-y,z
-x,-y,1/2+z
-x+y,-x,z
y,-x+y,1/2+z
x-y,-y,-z
-x,-x+y,-z
y,x,-z
-y,-x,1/2-z
-x+y,y,1/2-z
x,x-y,1/2-z
loop_
_atom_site_type_symbol
_atom_site_label
_atom_site_fract_x
_atom_site_fract_y
_atom_site_fract_z
Si Si1 0.322330 0.932489 0.602879
Si Si2 0.071930 0.669192 0.589778
Si Si3 0.459891 0.530387 0.904927
Si Si4 0.248148 0.124074 0.750000
Si Si5 0.156375 0.029737 0.142273
Si Si6 0.315012 0.160807 0.465901
O O1 0.336417 0.954101 0.757674
O O2 0.372524 0.894518 0.575901
O O3 0.235532 0.882341 0.591378
O O4 0.350094 0.000000 0.500000
O O5 0.108496 0.617594 0.570809
O O6 0.123243 0.753161 0.551422
O O7 0.000000 0.636468 0.500000
O O8 0.476062 0.523939 0.750000
O O9 0.494596 0.494596 0.000000
O O10 0.195771 0.157537 0.713611
O O11 0.295764 0.137123 0.619149
O O12 0.123562 0.061781 0.250000
O O13 0.237693 0.095777 0.103176
O O14 0.115956 0.000000 0.000000
#
# Coordination Sequence:
#
# PCOD9584648 Si02
#       6
#    12  12  12   6  12  12
#     4  10  21  33  54  81 109 143 179 225 274 334
#     4  10  19  34  54  78 112 142 176 219 275 333
#     4   8  16  32  51  75 104 137 167 204 257 316
#     4  10  24  40  56  78 108 144 188 246 290 360
#     4  10  22  39  56  77 105 143 189 240 303 351
#     4  11  23  33  57  81 113 142 189 232 293 331
#
# _framework density 17.156300999999999
#
# number of rings (size 3 to 8) (size 9 to 14) (size 15 to 20)
#    0.000    2.182    0.000    3.273    7.636    2.182 
#    0.545    0.000    0.000    0.727    0.000    2.545 
#    0.000    0.000    0.000    0.000    0.000    0.000 
#
# Total GULP energy -367606.431431 kJ/mol
# GULP energy per Si atom -5569.794416 kJ/mol
# Density = 1.711725 g / cm^3
# Si number density = 17.156301 Si / 1000 Ang^3
#
#
#
# Elastic Constant Matrix: (Units=GPa)
#
#
# Indices 1 2 3 4 5 6 
#
# 1 86.7743 40.1610 46.1191 0.0000 0.0000 0.0000
# 2 40.1610 86.7743 46.1191 0.0000 0.0000 0.0000
# 3 46.1191 46.1191 105.4117 0.0000 0.0000 0.0000
# 4 0.0000 0.0000 0.0000 20.2507 0.0000 0.0000
# 5 0.0000 0.0000 0.0000 0.0000 20.2507 0.0000
# 6 0.0000 0.0000 0.0000 0.0000 0.0000 23.3066
#
#
#
# Elastic Compliance Matrix: (Units=1/GPa)
#
#
# Indices 1 2 3 4 5 6 
#
# 1 0.016502 -0.004952 -0.005053 0.000000 0.000000 0.000000
# 2 -0.004952 0.016502 -0.005053 0.000000 0.000000 0.000000
# 3 -0.005053 -0.005053 0.013908 0.000000 0.000000 0.000000
# 4 0.000000 0.000000 0.000000 0.049381 0.000000 0.000000
# 5 0.000000 0.000000 0.000000 0.000000 0.049381 0.000000
# 6 0.000000 0.000000 0.000000 0.000000 0.000000 0.042906
#
#
# Mechanical properties :
#
#
# Convention : Reuss Voigt Hill
#
# Bulk Modulus (GPa) = 59.54061 60.41763 59.97912
# Shear Modulus (GPa) = 22.29209 22.53232 22.41221
#
# Velocity S-wave (km/s) = 3.60856 3.62796 3.61827
# Velocity P-wave (km/s) = 7.22097 7.26924 7.24515
#
# Compressibility (1/GPa) = 0.01679526
#
# Stress axis : x y z
#
# Youngs Moduli (GPa) = 60.60025 60.60025 71.89894
#
# Poissons Ratio (x) = 0.30006 0.36333
# Poissons Ratio (y) = 0.30006 0.36333
# Poissons Ratio (z) = 0.30623 0.30623
#
# Static dielectric constant tensor:
#      x y z
#    x 1.600960 0.000000 0.000000 
#    y 0.000000 1.600960 0.000000 
#    z 0.000000 0.000000 1.591480 
# 
# From -- ./inp_files/1807.got.cif
#   From: 2010.05.17/outbox.cif.g08.bks.cpg/sg182_1_cif.got.tgz:1807.got - 2010.05.20 11:58:53.
