data_PCOD9584770
_publ_section_title
;
Structure prediction by ZEFSAII (Michael W. Deem and Ramdas Pophale) SiO2 
 PCOD9584770
Probable space group: P 63 2 2
;
_chemical_formula_sum "Si O2"
_cell_formula_units_Z 54
_cell_length_a 11.165475
_cell_length_b 11.165475
_cell_length_c 21.143131
_cell_angle_alpha 90.000000
_cell_angle_beta 90.000000
_cell_angle_gamma 120.000000
_cell_volume 2282.728911
_symmetry_space_group_name_H-M "P 63 2 2"
_symmetry_group_IT_number 182
_symmetry_cell_setting 'hexagonal'
loop_
_space_group_symop_operation_xyz
x,y,z
x-y,x,1/2+z
-y,x-y,z
-x,-y,1/2+z
-x+y,-x,z
y,-x+y,1/2+z
x-y,-y,-z
-x,-x+y,-z
y,x,-z
-y,-x,1/2-z
-x+y,y,1/2-z
x,x-y,1/2-z
loop_
_atom_site_type_symbol
_atom_site_label
_atom_site_fract_x
_atom_site_fract_y
_atom_site_fract_z
Si Si1 0.302551 0.866454 0.190579
Si Si2 0.579814 0.000000 0.500000
Si Si3 0.142089 0.985805 0.828951
Si Si4 0.164945 0.284076 0.946832
Si Si5 0.373731 0.444840 0.114223
O O1 0.235947 0.764054 0.250000
O O2 0.011222 0.877587 0.188481
O O3 0.276545 0.994431 0.197480
O O4 0.460200 0.927686 0.171594
O O5 0.729028 0.117531 0.473518
O O6 0.458450 0.931634 0.448018
O O7 0.142872 0.964928 0.904380
O O8 0.793463 0.566452 0.868745
O O9 0.059579 0.706024 0.898273
O O10 0.213468 0.213468 0.000000
#
# Coordination Sequence:
#
# PCOD9584770 Si02
#       5
#    12   6  12  12  12
#     4  12  26  47  75 101 144 197 253 308 365 450
#     4  12  26  42  74 106 154 198 236 310 384 468
#     4  10  21  42  68 106 134 177 236 300 369 426
#     4  12  23  43  68 106 150 186 231 304 371 452
#     4  12  25  47  67 109 147 195 252 298 385 449
#
# _framework density 23.655897
#
# number of rings (size 3 to 8) (size 9 to 14) (size 15 to 20)
#    0.444    0.000    5.556    3.778    0.000    0.889 
#    2.000    0.000    0.000    0.000    0.000    0.000 
#    0.000    0.000    0.000    0.000    0.000    0.000 
#
# Total GULP energy -301369.815240 kJ/mol
# GULP energy per Si atom -5580.922504 kJ/mol
# Density = 2.360206 g / cm^3
# Si number density = 23.655897 Si / 1000 Ang^3
#
#
#
# Elastic Constant Matrix: (Units=GPa)
#
#
# Indices 1 2 3 4 5 6 
#
# 1 112.0310 46.2575 39.6587 0.0000 0.0000 0.0000
# 2 46.2575 112.0310 39.6587 0.0000 0.0000 0.0000
# 3 39.6587 39.6587 121.0033 0.0000 0.0000 0.0000
# 4 0.0000 0.0000 0.0000 50.2842 0.0000 0.0000
# 5 0.0000 0.0000 0.0000 0.0000 50.2842 0.0000
# 6 0.0000 0.0000 0.0000 0.0000 0.0000 32.8868
#
#
#
# Elastic Compliance Matrix: (Units=1/GPa)
#
#
# Indices 1 2 3 4 5 6 
#
# 1 0.011381 -0.003822 -0.002477 0.000000 0.000000 0.000000
# 2 -0.003822 0.011381 -0.002477 0.000000 0.000000 0.000000
# 3 -0.002477 -0.002477 0.009888 0.000000 0.000000 0.000000
# 4 0.000000 0.000000 0.000000 0.019887 0.000000 0.000000
# 5 0.000000 0.000000 0.000000 0.000000 0.019887 0.000000
# 6 0.000000 0.000000 0.000000 0.000000 0.000000 0.030407
#
#
# Mechanical properties :
#
#
# Convention : Reuss Voigt Hill
#
# Bulk Modulus (GPa) = 66.24091 66.24609 66.24350
# Shear Modulus (GPa) = 39.86643 41.32374 40.59508
#
# Velocity S-wave (km/s) = 4.10965 4.18409 4.14704
# Velocity P-wave (km/s) = 7.11208 7.16987 7.14103
#
# Compressibility (1/GPa) = 0.01509641
#
# Stress axis : x y z
#
# Youngs Moduli (GPa) = 87.86301 87.86301 101.13065
#
# Poissons Ratio (x) = 0.33584 0.25055
# Poissons Ratio (y) = 0.33584 0.25055
# Poissons Ratio (z) = 0.21768 0.21768
#
# Static dielectric constant tensor:
#      x y z
#    x 1.881060 0.000000 0.000000 
#    y 0.000000 1.881060 0.000000 
#    z 0.000000 0.000000 2.026550 
# 
# From -- ./inp_files/5211.got.cif
#   From: 2010.05.17/outbox.cif.g08.bks.cpg/sg182_3_cif.got.tgz:5211.got - 2010.05.20 11:58:53.
