data_PCOD9584915
_publ_section_title
;
Structure prediction by ZEFSAII (Michael W. Deem and Ramdas Pophale) SiO2 
 PCOD9584915
Probable space group: P 6 M M
;
_chemical_formula_sum "Si O2"
_cell_formula_units_Z 96
_cell_length_a 18.195990
_cell_length_b 18.195990
_cell_length_c 21.327710
_cell_angle_alpha 90.000000
_cell_angle_beta 90.000000
_cell_angle_gamma 120.000000
_cell_volume 6115.419272
_symmetry_space_group_name_H-M "P 6 M M"
_symmetry_group_IT_number 183
_symmetry_cell_setting 'hexagonal'
loop_
_space_group_symop_operation_xyz
x,y,z
x-y,x,z
-y,x-y,z
-x,-y,z
-x+y,-x,z
y,-x+y,z
-x+y,y,z
x,x-y,z
-y,-x,z
y,x,z
x-y,-y,z
-x,-x+y,z
loop_
_atom_site_type_symbol
_atom_site_label
_atom_site_fract_x
_atom_site_fract_y
_atom_site_fract_z
Si Si1 0.540660 0.903036 0.589210
Si Si2 0.102976 0.467257 0.988591
Si Si3 0.099855 0.732193 0.109382
Si Si4 0.638678 0.539954 0.851474
Si Si5 0.159779 0.667504 0.226623
Si Si6 0.730951 0.097172 0.343632
Si Si7 0.496572 0.330904 0.454182
Si Si8 0.169228 0.499363 0.720061
O O1 0.450010 0.900020 0.592666
O O2 0.533558 0.852637 0.526277
O O3 0.552118 0.869686 0.656163
O O4 0.611509 0.000000 0.580895
O O5 0.132461 0.566231 0.999996
O O6 0.121399 0.422500 0.045575
O O7 0.000000 0.419457 0.984356
O O8 0.133132 0.455698 0.919957
O O9 0.167838 0.832163 0.116493
O O10 0.117030 0.684192 0.166236
O O11 0.000000 0.702889 0.108686
O O12 0.551995 0.448006 0.852514
O O13 0.609228 0.609228 0.847938
O O14 0.686378 0.545985 0.787153
O O15 0.150169 0.575085 0.226800
O O16 0.258786 0.741214 0.226194
O O17 0.118371 0.685031 0.287370
O O18 0.830254 0.169747 0.340980
O O19 0.692360 0.111625 0.407497
O O20 0.707816 0.000000 0.338770
O O21 0.527559 0.263780 0.440110
O O22 0.573543 0.426457 0.445783
O O23 0.269439 0.538877 0.715362
O O24 0.144867 0.572434 0.721390
#
# Coordination Sequence:
#
# PCOD9584915 Si02
#       8
#    12  12  12  12  12  12  12  12
#     4   9  17  28  41  55  72 100 140 182 219 255
#     4   8  14  26  44  64  84 107 137 172 211 258
#     4  10  20  32  47  67  90 117 149 187 228 268
#     4   8  14  25  40  56  75 101 133 167 201 243
#     4  10  20  33  50  73 101 130 157 184 216 256
#     4  10  21  35  51  71  94 122 155 192 231 268
#     4  10  19  30  45  66  93 122 150 180 216 261
#     4  10  18  26  36  51  73 100 131 169 213 257
#
# _framework density 15.698024
#
# number of rings (size 3 to 8) (size 9 to 14) (size 15 to 20)
#    0.000    2.625    0.000    3.375    0.000    4.750 
#    0.000    2.500    0.000    0.500    0.000    0.000 
#    0.000    3.000    0.000    0.000    0.000    0.000 
#
# Total GULP energy -534453.724470 kJ/mol
# GULP energy per Si atom -5567.226297 kJ/mol
# Density = 1.566229 g / cm^3
# Si number density = 15.698024 Si / 1000 Ang^3
#
#
#
# Elastic Constant Matrix: (Units=GPa)
#
#
# Indices 1 2 3 4 5 6 
#
# 1 63.7189 45.4741 32.6336 0.0000 0.0000 0.0000
# 2 45.4741 63.7189 32.6336 0.0000 0.0000 0.0000
# 3 32.6336 32.6336 108.7650 0.0000 0.0000 0.0000
# 4 0.0000 0.0000 0.0000 10.9091 0.0000 0.0000
# 5 0.0000 0.0000 0.0000 0.0000 10.9091 0.0000
# 6 0.0000 0.0000 0.0000 0.0000 0.0000 9.1224
#
#
#
# Elastic Compliance Matrix: (Units=1/GPa)
#
#
# Indices 1 2 3 4 5 6 
#
# 1 0.032985 -0.021825 -0.003348 0.000000 0.000000 0.000000
# 2 -0.021825 0.032985 -0.003348 0.000000 0.000000 0.000000
# 3 -0.003348 -0.003348 0.011203 0.000000 0.000000 0.000000
# 4 0.000000 0.000000 0.000000 0.091666 0.000000 0.000000
# 5 0.000000 0.000000 0.000000 0.000000 0.091666 0.000000
# 6 0.000000 0.000000 0.000000 0.000000 0.000000 0.109620
#
#
# Mechanical properties :
#
#
# Convention : Reuss Voigt Hill
#
# Bulk Modulus (GPa) = 49.67911 50.85394 50.26653
# Shear Modulus (GPa) = 11.52394 14.55223 13.03809
#
# Velocity S-wave (km/s) = 2.71237 3.04799 2.88506
# Velocity P-wave (km/s) = 6.44397 6.69720 6.57180
#
# Compressibility (1/GPa) = 0.02012918
#
# Stress axis : x y z
#
# Youngs Moduli (GPa) = 30.31701 30.31701 89.25914
#
# Poissons Ratio (x) = 0.66168 0.29886
# Poissons Ratio (y) = 0.66168 0.29886
# Poissons Ratio (z) = 0.10151 0.10151
#
# Static dielectric constant tensor:
#      x y z
#    x 1.514970 0.000000 0.000000 
#    y 0.000000 1.514970 0.000000 
#    z 0.000000 0.000000 1.571650 
# 
# From -- ./inp_files/3121.got.cif
#   From: 2010.05.17/outbox.cif.g08.bks.cpg/sg183_2_cif.got.tgz:3121.got - 2010.05.20 12:02:58.
