data_PCOD9584828
_publ_section_title
;
Structure prediction by ZEFSAII (Michael W. Deem and Ramdas Pophale) SiO2 
 PCOD9584828
Probable space group: P 63 2 2
;
_chemical_formula_sum "Si O2"
_cell_formula_units_Z 42
_cell_length_a 8.031470
_cell_length_b 8.031470
_cell_length_c 31.217920
_cell_angle_alpha 90.000000
_cell_angle_beta 90.000000
_cell_angle_gamma 120.000000
_cell_volume 1743.912449
_symmetry_space_group_name_H-M "P 63 2 2"
_symmetry_group_IT_number 182
_symmetry_cell_setting 'hexagonal'
loop_
_space_group_symop_operation_xyz
x,y,z
x-y,x,1/2+z
-y,x-y,z
-x,-y,1/2+z
-x+y,-x,z
y,-x+y,1/2+z
x-y,-y,-z
-x,-x+y,-z
y,x,-z
-y,-x,1/2-z
-x+y,y,1/2-z
x,x-y,1/2-z
loop_
_atom_site_type_symbol
_atom_site_label
_atom_site_fract_x
_atom_site_fract_y
_atom_site_fract_z
Si Si1 0.022608 0.361692 0.826912
Si Si2 0.468456 0.374863 0.582530
Si Si3 0.327540 0.040442 0.709556
Si Si4 0.000000 0.778478 0.500000
O O1 0.199740 0.385562 0.799165
O O2 0.040903 0.423908 0.875728
O O3 0.924567 0.461982 0.799783
O O4 0.865882 0.137754 0.828220
O O5 0.475891 0.174091 0.583643
O O6 0.340867 0.344598 0.540967
O O7 0.292707 0.146354 0.750000
O O8 0.821465 0.821465 0.500000
#
# Coordination Sequence:
#
# PCOD9584828 Si02
#       4
#    12  12  12   6
#     4  12  25  49  73 112 148 207 257 321 392 473
#     4  10  23  46  74 104 148 204 248 304 390 459
#     4  12  26  46  77 110 153 197 261 327 390 469
#     4  10  26  40  72 112 152 188 246 328 368 464
#
# _framework density 24.083776
#
# number of rings (size 3 to 8) (size 9 to 14) (size 15 to 20)
#    0.857    0.000    2.857    3.429    6.000    0.000 
#    0.000    2.857    0.000    0.000    0.000    0.000 
#    0.000    0.000    0.000    0.000    0.000    0.000 
#
# Total GULP energy -233853.361309 kJ/mol
# GULP energy per Si atom -5567.937174 kJ/mol
# Density = 2.402896 g / cm^3
# Si number density = 24.083776 Si / 1000 Ang^3
#
#
#
# Elastic Constant Matrix: (Units=GPa)
#
#
# Indices 1 2 3 4 5 6 
#
# 1 90.0951 24.8276 43.4324 0.0000 0.0000 0.0000
# 2 24.8276 90.0951 43.4324 0.0000 0.0000 0.0000
# 3 43.4324 43.4324 204.9519 0.0000 0.0000 0.0000
# 4 0.0000 0.0000 0.0000 33.9170 0.0000 0.0000
# 5 0.0000 0.0000 0.0000 0.0000 33.9170 0.0000
# 6 0.0000 0.0000 0.0000 0.0000 0.0000 32.6338
#
#
#
# Elastic Compliance Matrix: (Units=1/GPa)
#
#
# Indices 1 2 3 4 5 6 
#
# 1 0.012841 -0.002480 -0.002196 0.000000 0.000000 0.000000
# 2 -0.002480 0.012841 -0.002196 0.000000 0.000000 0.000000
# 3 -0.002196 -0.002196 0.005810 0.000000 0.000000 0.000000
# 4 0.000000 0.000000 0.000000 0.029484 0.000000 0.000000
# 5 0.000000 0.000000 0.000000 0.000000 0.029484 0.000000
# 6 0.000000 0.000000 0.000000 0.000000 0.000000 0.030643
#
#
# Mechanical properties :
#
#
# Convention : Reuss Voigt Hill
#
# Bulk Modulus (GPa) = 56.34024 67.61411 61.97718
# Shear Modulus (GPa) = 35.52078 38.32352 36.92215
#
# Velocity S-wave (km/s) = 3.84459 3.99339 3.91969
# Velocity P-wave (km/s) = 6.56902 7.02840 6.80259
#
# Compressibility (1/GPa) = 0.01774930
#
# Stress axis : x y z
#
# Youngs Moduli (GPa) = 77.87354 77.87354 172.12325
#
# Poissons Ratio (x) = 0.19314 0.37793
# Poissons Ratio (y) = 0.19314 0.37793
# Poissons Ratio (z) = 0.17099 0.17099
#
# Static dielectric constant tensor:
#      x y z
#    x 1.989140 0.000000 0.000000 
#    y 0.000000 1.989140 0.000000 
#    z 0.000000 0.000000 1.938770 
# 
# From -- ./inp_files/5665.got.cif
#   From: 2010.05.17/outbox.cif.g08.bks.cpg/sg182_3_cif.got.tgz:5665.got - 2010.05.20 11:58:53.
