data_PCOD9584614
_publ_section_title
;
Structure prediction by ZEFSAII (Michael W. Deem and Ramdas Pophale) SiO2 
 PCOD9584614
Probable space group: P 63 2 2
;
_chemical_formula_sum "Si O2"
_cell_formula_units_Z 46
_cell_length_a 13.253258
_cell_length_b 13.253258
_cell_length_c 13.412630
_cell_angle_alpha 90.000000
_cell_angle_beta 90.000000
_cell_angle_gamma 120.000000
_cell_volume 2040.280510
_symmetry_space_group_name_H-M "P 63 2 2"
_symmetry_group_IT_number 182
_symmetry_cell_setting 'hexagonal'
loop_
_space_group_symop_operation_xyz
x,y,z
x-y,x,1/2+z
-y,x-y,z
-x,-y,1/2+z
-x+y,-x,z
y,-x+y,1/2+z
x-y,-y,-z
-x,-x+y,-z
y,x,-z
-y,-x,1/2-z
-x+y,y,1/2-z
x,x-y,1/2-z
loop_
_atom_site_type_symbol
_atom_site_label
_atom_site_fract_x
_atom_site_fract_y
_atom_site_fract_z
Si Si1 0.246157 0.000000 0.000000
Si Si2 0.874757 0.495707 0.031576
Si Si3 0.801083 0.613699 0.637907
Si Si4 0.666667 0.333334 0.132980
Si Si5 0.079496 0.804288 0.854738
O O1 0.135257 0.905834 0.937121
O O2 0.344755 0.076814 0.918088
O O3 0.792517 0.375609 0.085853
O O4 0.890340 0.596251 0.109286
O O5 0.822542 0.521726 0.932961
O O6 0.000000 0.519677 0.000000
O O7 0.784327 0.568654 0.750000
O O8 0.792565 0.732134 0.646561
O O9 0.666668 0.333334 0.250000
O O10 0.137942 0.862059 0.750000
#
# Coordination Sequence:
#
# PCOD9584614 Si02
#       5
#     6  12  12   4  12
#     4  10  18  30  48  80 116 170 224 268 326 402
#     4   9  22  42  64  94 135 160 214 280 322 394
#     4  10  19  36  55  82 125 172 216 272 335 395
#     4  12  24  48  76 107 133 177 228 276 334 410
#     4  10  18  34  54  81 123 170 221 272 332 391
#
# _framework density 22.545916999999999
#
# number of rings (size 3 to 8) (size 9 to 14) (size 15 to 20)
#    0.000    2.087    2.609    3.130    0.000    0.000 
#   15.652    2.609    0.000    0.000    0.000    0.000 
#    0.000    0.000    0.000    0.000    0.000    0.000 
#
# Total GULP energy -257051.431354 kJ/mol
# GULP energy per Si atom -5588.074595 kJ/mol
# Density = 2.249460 g / cm^3
# Si number density = 22.545917 Si / 1000 Ang^3
#
#
#
# Elastic Constant Matrix: (Units=GPa)
#
#
# Indices 1 2 3 4 5 6 
#
# 1 65.8854 17.7182 34.9347 0.0002 0.0000 -0.0001
# 2 17.7182 65.8848 34.9345 0.0000 0.0000 -0.0001
# 3 34.9347 34.9345 189.9506 -0.0002 0.0002 -0.0001
# 4 0.0002 0.0000 -0.0002 13.6639 -0.0001 0.0000
# 5 0.0000 0.0000 0.0002 -0.0001 13.6642 -0.0001
# 6 -0.0001 -0.0001 -0.0001 0.0000 -0.0001 24.0835
#
#
#
# Elastic Compliance Matrix: (Units=1/GPa)
#
#
# Indices 1 2 3 4 5 6 
#
# 1 0.017447 -0.003314 -0.002599 0.000000 0.000000 0.000000
# 2 -0.003314 0.017447 -0.002599 0.000000 0.000000 0.000000
# 3 -0.002599 -0.002599 0.006221 0.000000 0.000000 0.000000
# 4 0.000000 0.000000 0.000000 0.073186 0.000001 0.000000
# 5 0.000000 0.000000 0.000000 0.000001 0.073184 0.000000
# 6 0.000000 0.000000 0.000000 0.000000 0.000000 0.041522
#
#
# Mechanical properties :
#
#
# Convention : Reuss Voigt Hill
#
# Bulk Modulus (GPa) = 41.51033 55.21061 48.36047
# Shear Modulus (GPa) = 19.68021 25.89122 22.78572
#
# Velocity S-wave (km/s) = 2.95768 3.39245 3.18250
# Velocity P-wave (km/s) = 5.48774 6.31555 5.91614
#
# Compressibility (1/GPa) = 0.02409039
#
# Stress axis : x y z
#
# Youngs Moduli (GPa) = 57.31547 57.31500 160.75500
#
# Poissons Ratio (x) = 0.18993 0.41786
# Poissons Ratio (y) = 0.18993 0.41786
# Poissons Ratio (z) = 0.14898 0.14898
#
# Static dielectric constant tensor:
#      x y z
#    x 1.860860 0.000000 0.000000 
#    y 0.000000 1.860860 0.000000 
#    z 0.000000 0.000000 1.815920 
# 
# From -- ./inp_files/3275.got.cif
#   From: 2010.05.17/outbox.cif.g08.bks.cpg/sg182_2_cif.got.tgz:3275.got - 2010.05.20 11:58:53.
