data_PCOD9584372
_publ_section_title
;
Structure prediction by ZEFSAII (Michael W. Deem and Ramdas Pophale) SiO2 
 PCOD9584372
Probable space group: P 64 2 2
;
_chemical_formula_sum "Si O2"
_cell_formula_units_Z 60
_cell_length_a 15.843949
_cell_length_b 15.843949
_cell_length_c 13.307013
_cell_angle_alpha 90.000000
_cell_angle_beta 90.000000
_cell_angle_gamma 120.000000
_cell_volume 2892.931061
_symmetry_space_group_name_H-M "P 64 2 2"
_symmetry_group_IT_number 181
_symmetry_cell_setting 'hexagonal'
loop_
_space_group_symop_operation_xyz
x,y,z
x-y,x,2/3+z
-y,x-y,1/3+z
-x,-y,z
-x+y,-x,2/3+z
y,-x+y,1/3+z
x-y,-y,-z
-x,-x+y,2/3-z
y,x,1/3-z
-y,-x,1/3-z
-x+y,y,-z
x,x-y,2/3-z
loop_
_atom_site_type_symbol
_atom_site_label
_atom_site_fract_x
_atom_site_fract_y
_atom_site_fract_z
Si Si1 0.871898 0.014266 0.762187
Si Si2 0.668810 0.190056 0.582801
Si Si3 0.140076 0.791391 0.482618
Si Si4 0.211284 0.858883 0.275753
Si Si5 0.405381 0.419902 0.933712
O O1 0.940259 0.059742 0.666667
O O2 0.864120 0.100246 0.820204
O O3 0.897051 0.948526 0.833334
O O4 0.761886 0.939744 0.726257
O O5 0.723010 0.276991 0.666667
O O6 0.602553 0.205105 0.500000
O O7 0.756544 0.181310 0.531037
O O8 0.609033 0.088714 0.643174
O O9 0.149771 0.786814 0.363989
O O10 0.065326 0.688229 0.529845
O O11 0.189556 0.810445 0.166667
O O12 0.325779 0.914699 0.300636
O O13 0.500000 0.500000 0.877101
#
# Coordination Sequence:
#
# PCOD9584372 Si02
#       5
#    12  12  12  12  12
#     4  10  22  40  61  87 120 161 210 260 313 377
#     4  10  21  39  66  97 128 159 204 264 322 387
#     4  10  21  41  62  87 125 162 203 262 320 375
#     4  10  22  40  61  85 123 166 203 255 321 375
#     4  10  21  38  63  94 118 154 212 257 307 385
#
# _framework density 20.740210000000001
#
# number of rings (size 3 to 8) (size 9 to 14) (size 15 to 20)
#    0.000    2.000    0.000    4.200    0.000   12.400 
#    0.000   19.000    0.000    0.000    0.000    0.000 
#    0.000    0.000    0.000    0.000    0.000    0.000 
#
# Total GULP energy -335143.789938 kJ/mol
# GULP energy per Si atom -5585.729832 kJ/mol
# Density = 2.069300 g / cm^3
# Si number density = 20.740210 Si / 1000 Ang^3
#
#
#
# Elastic Constant Matrix: (Units=GPa)
#
#
# Indices 1 2 3 4 5 6 
#
# 1 92.0346 58.6724 54.1379 0.0000 0.0000 0.0000
# 2 58.6724 92.0346 54.1379 0.0000 0.0000 0.0000
# 3 54.1379 54.1379 152.8176 0.0000 0.0000 0.0000
# 4 0.0000 0.0000 0.0000 16.4679 0.0000 0.0000
# 5 0.0000 0.0000 0.0000 0.0000 16.4679 0.0000
# 6 0.0000 0.0000 0.0000 0.0000 0.0000 16.6811
#
#
#
# Elastic Compliance Matrix: (Units=1/GPa)
#
#
# Indices 1 2 3 4 5 6 
#
# 1 0.019437 -0.010537 -0.003153 0.000000 0.000000 0.000000
# 2 -0.010537 0.019437 -0.003153 0.000000 0.000000 0.000000
# 3 -0.003153 -0.003153 0.008778 0.000000 0.000000 0.000000
# 4 0.000000 0.000000 0.000000 0.060724 0.000000 0.000000
# 5 0.000000 0.000000 0.000000 0.000000 0.060724 0.000000
# 6 0.000000 0.000000 0.000000 0.000000 0.000000 0.059948
#
#
# Mechanical properties :
#
#
# Convention : Reuss Voigt Hill
#
# Bulk Modulus (GPa) = 71.59938 74.53148 73.06543
# Shear Modulus (GPa) = 18.69919 21.25260 19.97590
#
# Velocity S-wave (km/s) = 3.00591 3.20457 3.10683
# Velocity P-wave (km/s) = 6.82966 7.05026 6.94084
#
# Compressibility (1/GPa) = 0.01396660
#
# Stress axis : x y z
#
# Youngs Moduli (GPa) = 51.44707 51.44707 113.92203
#
# Poissons Ratio (x) = 0.54208 0.35923
# Poissons Ratio (y) = 0.54208 0.35923
# Poissons Ratio (z) = 0.16223 0.16223
#
# Static dielectric constant tensor:
#      x y z
#    x 1.840220 0.000000 0.000000 
#    y 0.000000 1.840220 0.000000 
#    z 0.000000 0.000000 1.753150 
# 
# From -- ./inp_files/4875.got.cif
#   From: 2010.05.17/outbox.cif.g08.bks.cpg/sg181_3_cif.got.tgz:4875.got - 2010.05.20 11:51:17.
