data_PCOD9584341
_publ_section_title
;
Structure prediction by ZEFSAII (Michael W. Deem and Ramdas Pophale) SiO2 
 PCOD9584341
Probable space group: P 64 2 2
;
_chemical_formula_sum "Si O2"
_cell_formula_units_Z 66
_cell_length_a 19.597483
_cell_length_b 19.597483
_cell_length_c 8.878099
_cell_angle_alpha 90.000000
_cell_angle_beta 90.000000
_cell_angle_gamma 120.000000
_cell_volume 2952.916782
_symmetry_space_group_name_H-M "P 64 2 2"
_symmetry_group_IT_number 181
_symmetry_cell_setting 'hexagonal'
loop_
_space_group_symop_operation_xyz
x,y,z
x-y,x,2/3+z
-y,x-y,1/3+z
-x,-y,z
-x+y,-x,2/3+z
y,-x+y,1/3+z
x-y,-y,-z
-x,-x+y,2/3-z
y,x,1/3-z
-y,-x,1/3-z
-x+y,y,-z
x,x-y,2/3-z
loop_
_atom_site_type_symbol
_atom_site_label
_atom_site_fract_x
_atom_site_fract_y
_atom_site_fract_z
Si Si1 0.450782 0.835672 0.706092
Si Si2 0.347657 0.347657 0.666667
Si Si3 0.298539 0.212902 0.216039
Si Si4 0.341384 0.441139 0.930288
Si Si5 0.556209 0.256169 0.166585
Si Si6 0.617562 0.739491 0.902035
O O1 0.477543 0.885306 0.339982
O O2 0.394930 0.787460 0.848396
O O3 0.446250 0.767352 0.599771
O O4 0.542759 0.889432 0.734359
O O5 0.370348 0.418061 0.782193
O O6 0.332616 0.274741 0.773544
O O7 0.225740 0.225740 0.166667
O O8 0.283901 0.141951 0.333334
O O9 0.365698 0.292936 0.298846
O O10 0.336424 0.216865 0.052493
O O11 0.281786 0.467776 0.861716
O O12 0.583367 0.291684 0.333334
O O13 0.583507 0.791754 0.833334
#
# Coordination Sequence:
#
# PCOD9584341 Si02
#       6
#    12   6  12  12  12  12
#     4  10  24  40  60  91 132 188 254 327 383 437
#     4  12  24  49  64  98 128 188 241 308 386 448
#     4  12  25  49  77 109 146 194 241 304 371 458
#     4  10  24  43  68  94 139 184 251 316 386 443
#     4  10  20  39  61  87 129 172 253 317 384 446
#     4  12  27  44  72  96 145 188 250 311 378 455
#
# _framework density 22.350781000000001
#
# number of rings (size 3 to 8) (size 9 to 14) (size 15 to 20)
#    1.091    0.000    1.818    5.455    2.545    3.636 
#    0.000    0.909    0.000    0.000    0.000    0.000 
#    0.000    3.636    0.000    0.000    0.000    0.000 
#
# Total GULP energy -367713.872006 kJ/mol
# GULP energy per Si atom -5571.422303 kJ/mol
# Density = 2.229991 g / cm^3
# Si number density = 22.350781 Si / 1000 Ang^3
#
#
#
# Elastic Constant Matrix: (Units=GPa)
#
#
# Indices 1 2 3 4 5 6 
#
# 1 70.9697 41.7911 42.9540 0.0000 0.0000 0.0000
# 2 41.7911 70.9698 42.9540 0.0000 0.0000 0.0000
# 3 42.9540 42.9540 129.3302 0.0000 0.0000 0.0000
# 4 0.0000 0.0000 0.0000 32.5253 0.0000 0.0000
# 5 0.0000 0.0000 0.0000 0.0000 32.5253 0.0000
# 6 0.0000 0.0000 0.0000 0.0000 0.0000 14.5893
#
#
#
# Elastic Compliance Matrix: (Units=1/GPa)
#
#
# Indices 1 2 3 4 5 6 
#
# 1 0.023072 -0.011200 -0.003943 0.000000 0.000000 0.000000
# 2 -0.011200 0.023072 -0.003943 0.000000 0.000000 0.000000
# 3 -0.003943 -0.003943 0.010351 0.000000 0.000000 0.000000
# 4 0.000000 0.000000 0.000000 0.030745 0.000000 0.000000
# 5 0.000000 0.000000 0.000000 0.000000 0.030745 0.000000
# 6 0.000000 0.000000 0.000000 0.000000 0.000000 0.068543
#
#
# Mechanical properties :
#
#
# Convention : Reuss Voigt Hill
#
# Bulk Modulus (GPa) = 54.57416 58.51866 56.54641
# Shear Modulus (GPa) = 21.66295 25.49938 23.58117
#
# Velocity S-wave (km/s) = 3.11662 3.38134 3.25168
# Velocity P-wave (km/s) = 6.11729 6.44076 6.28111
#
# Compressibility (1/GPa) = 0.01832369
#
# Stress axis : x y z
#
# Youngs Moduli (GPa) = 43.34253 43.34253 96.60524
#
# Poissons Ratio (x) = 0.48542 0.38093
# Poissons Ratio (y) = 0.48542 0.38093
# Poissons Ratio (z) = 0.17091 0.17091
#
# Static dielectric constant tensor:
#      x y z
#    x 1.959470 0.000000 0.000000 
#    y 0.000000 1.959470 0.000000 
#    z 0.000000 0.000000 1.955270 
# 
# From -- ./inp_files/3162.got.cif
#   From: 2010.05.17/outbox.cif.g08.bks.cpg/sg181_2_cif.got.tgz:3162.got - 2010.05.20 11:51:17.
