data_PCOD9584214
_publ_section_title
;
Structure prediction by ZEFSAII (Michael W. Deem and Ramdas Pophale) SiO2 
 PCOD9584214
Probable space group: P 64 2 2
;
_chemical_formula_sum "Si O2"
_cell_formula_units_Z 84
_cell_length_a 18.026684
_cell_length_b 18.026684
_cell_length_c 20.628531
_cell_angle_alpha 90.000000
_cell_angle_beta 90.000000
_cell_angle_gamma 120.000000
_cell_volume 5805.379639
_symmetry_space_group_name_H-M "P 64 2 2"
_symmetry_group_IT_number 181
_symmetry_cell_setting 'hexagonal'
loop_
_space_group_symop_operation_xyz
x,y,z
x-y,x,2/3+z
-y,x-y,1/3+z
-x,-y,z
-x+y,-x,2/3+z
y,-x+y,1/3+z
x-y,-y,-z
-x,-x+y,2/3-z
y,x,1/3-z
-y,-x,1/3-z
-x+y,y,-z
x,x-y,2/3-z
loop_
_atom_site_type_symbol
_atom_site_label
_atom_site_fract_x
_atom_site_fract_y
_atom_site_fract_z
Si Si1 0.901554 0.324857 0.836392
Si Si2 0.817794 0.396863 0.588671
Si Si3 0.183873 0.463907 0.185428
Si Si4 0.686626 0.537165 0.510169
Si Si5 0.633457 0.365426 0.742344
Si Si6 0.902257 0.448278 0.725179
Si Si7 0.404792 0.416165 0.743286
O O1 0.821239 0.228850 0.839738
O O2 0.891108 0.373861 0.774287
O O3 0.894447 0.375889 0.898489
O O4 0.000000 0.345117 0.833334
O O5 0.841058 0.335641 0.547567
O O6 0.858776 0.490201 0.554033
O O7 0.715601 0.354421 0.581820
O O8 0.841545 0.409978 0.663651
O O9 0.254317 0.550460 0.222016
O O10 0.101986 0.430946 0.231895
O O11 0.787495 0.574989 0.500000
O O12 0.658636 0.455906 0.557418
O O13 0.657556 0.596245 0.545842
O O14 0.623940 0.376061 0.666667
O O15 0.000000 0.500000 0.700284
O O16 0.500000 0.500000 0.753632
O O17 0.397700 0.397700 0.666667
#
# Coordination Sequence:
#
# PCOD9584214 Si02
#       7
#    12  12  12  12  12  12  12
#     4   9  20  37  46  62  87 123 167 208 241 281
#     4  10  20  26  42  66  93 120 162 199 245 284
#     4  11  21  29  49  66  94 123 164 201 247 282
#     4   9  19  33  43  64  95 126 155 200 241 292
#     4  10  18  27  41  65  91 126 163 200 239 281
#     4   9  19  32  49  61  87 126 164 207 248 280
#     4  11  20  33  50  70 100 131 164 201 245 302
#
# _framework density 14.469338
#
# number of rings (size 3 to 8) (size 9 to 14) (size 15 to 20)
#    0.000    2.143    2.857    3.857    8.000    1.143 
#    0.000    0.000    0.000    0.000    0.000    0.000 
#    0.000    0.571    0.000    1.286    0.000    0.000 
#
# Total GULP energy -468201.277382 kJ/mol
# GULP energy per Si atom -5573.824731 kJ/mol
# Density = 1.443641 g / cm^3
# Si number density = 14.469338 Si / 1000 Ang^3
#
#
#
# Elastic Constant Matrix: (Units=GPa)
#
#
# Indices 1 2 3 4 5 6 
#
# 1 66.9508 38.8367 22.9204 0.0000 0.0000 0.0000
# 2 38.8367 66.9508 22.9204 0.0000 0.0000 0.0000
# 3 22.9204 22.9204 87.6125 0.0000 0.0000 0.0000
# 4 0.0000 0.0000 0.0000 10.4690 0.0000 0.0000
# 5 0.0000 0.0000 0.0000 0.0000 10.4690 0.0000
# 6 0.0000 0.0000 0.0000 0.0000 0.0000 14.0571
#
#
#
# Elastic Compliance Matrix: (Units=1/GPa)
#
#
# Indices 1 2 3 4 5 6 
#
# 1 0.023115 -0.012454 -0.002789 0.000000 0.000000 0.000000
# 2 -0.012454 0.023115 -0.002789 0.000000 0.000000 0.000000
# 3 -0.002789 -0.002789 0.012873 0.000000 0.000000 0.000000
# 4 0.000000 0.000000 0.000000 0.095520 0.000000 0.000000
# 5 0.000000 0.000000 0.000000 0.000000 0.095520 0.000000
# 6 0.000000 0.000000 0.000000 0.000000 0.000000 0.071139
#
#
# Mechanical properties :
#
#
# Convention : Reuss Voigt Hill
#
# Bulk Modulus (GPa) = 43.40351 43.42994 43.41672
# Shear Modulus (GPa) = 13.69762 16.12146 14.90954
#
# Velocity S-wave (km/s) = 3.08013 3.34156 3.21350
# Velocity P-wave (km/s) = 6.53541 6.70584 6.62117
#
# Compressibility (1/GPa) = 0.02303961
#
# Stress axis : x y z
#
# Youngs Moduli (GPa) = 43.26116 43.26116 77.68042
#
# Poissons Ratio (x) = 0.53877 0.21666
# Poissons Ratio (y) = 0.53877 0.21666
# Poissons Ratio (z) = 0.12066 0.12066
#
# Static dielectric constant tensor:
#      x y z
#    x 1.497510 0.000000 0.000000 
#    y 0.000000 1.497510 0.000000 
#    z 0.000000 0.000000 1.501990 
# 
# From -- ./inp_files/9175.got.cif
#   From: 2010.05.17/outbox.cif.g08.bks.cpg/sg181_5_cif.got.tgz:9175.got - 2010.05.20 11:51:17.
