data_PCOD9584061
_publ_section_title
;
Structure prediction by ZEFSAII (Michael W. Deem and Ramdas Pophale) SiO2 
 PCOD9584061
Probable space group: P 62 2 2
;
_chemical_formula_sum "Si O2"
_cell_formula_units_Z 51
_cell_length_a 12.040252
_cell_length_b 12.040252
_cell_length_c 20.127483
_cell_angle_alpha 90.000000
_cell_angle_beta 90.000000
_cell_angle_gamma 120.000000
_cell_volume 2526.918609
_symmetry_space_group_name_H-M "P 62 2 2"
_symmetry_group_IT_number 180
_symmetry_cell_setting 'hexagonal'
loop_
_space_group_symop_operation_xyz
x,y,z
x-y,x,1/3+z
-y,x-y,2/3+z
-x,-y,z
-x+y,-x,1/3+z
y,-x+y,2/3+z
x-y,-y,-z
-x,-x+y,1/3-z
y,x,2/3-z
-y,-x,2/3-z
-x+y,y,-z
x,x-y,1/3-z
loop_
_atom_site_type_symbol
_atom_site_label
_atom_site_fract_x
_atom_site_fract_y
_atom_site_fract_z
Si Si1 0.000000 0.000000 0.166667
Si Si2 0.115632 0.247833 0.077385
Si Si3 0.364149 0.943043 0.574044
Si Si4 0.357076 0.756334 0.073935
Si Si5 0.866297 0.486600 0.883137
O O1 0.087300 0.960916 0.211081
O O2 0.245164 0.380104 0.101236
O O3 0.995372 0.270735 0.077491
O O4 0.110202 0.220403 0.000000
O O5 0.298458 0.793752 0.583910
O O6 0.500000 0.000000 0.610797
O O7 0.400511 0.000000 0.500000
O O8 0.405911 0.847036 0.138740
O O9 0.375913 0.632624 0.082232
O O10 0.405280 0.810560 0.000000
O O11 0.000000 0.500000 0.904816
#
# Coordination Sequence:
#
# PCOD9584061 Si02
#       5
#     3  12  12  12  12
#     4  12  26  48  62  98 144 180 230 288 332 422
#     4  12  25  43  72  99 132 183 233 282 346 409
#     4  11  19  40  71  96 125 165 228 292 325 382
#     4  11  23  40  66  99 133 175 224 284 348 407
#     4  11  24  43  63  99 139 172 222 284 340 414
#
# _framework density 20.182684999999999
#
# number of rings (size 3 to 8) (size 9 to 14) (size 15 to 20)
#    0.000    0.706    5.882    2.471    3.294    2.353 
#    0.000    0.000    0.000    0.000    0.000    0.000 
#    0.000    0.000    0.000    0.000    0.000    0.000 
#
# Total GULP energy -283976.380557 kJ/mol
# GULP energy per Si atom -5568.164325 kJ/mol
# Density = 2.013675 g / cm^3
# Si number density = 20.182685 Si / 1000 Ang^3
#
#
#
# Elastic Constant Matrix: (Units=GPa)
#
#
# Indices 1 2 3 4 5 6 
#
# 1 105.0502 57.0561 30.7852 0.0000 0.0000 0.0000
# 2 57.0561 105.0502 30.7852 0.0000 0.0000 0.0000
# 3 30.7852 30.7852 159.5467 0.0000 0.0000 0.0000
# 4 0.0000 0.0000 0.0000 6.8430 0.0000 0.0000
# 5 0.0000 0.0000 0.0000 0.0000 6.8430 0.0000
# 6 0.0000 0.0000 0.0000 0.0000 0.0000 23.9971
#
#
#
# Elastic Compliance Matrix: (Units=1/GPa)
#
#
# Indices 1 2 3 4 5 6 
#
# 1 0.013746 -0.007090 -0.001284 0.000000 0.000000 0.000000
# 2 -0.007090 0.013746 -0.001284 0.000000 0.000000 0.000000
# 3 -0.001284 -0.001284 0.006763 0.000000 0.000000 0.000000
# 4 0.000000 0.000000 0.000000 0.146134 0.000000 0.000000
# 5 0.000000 0.000000 0.000000 0.000000 0.146134 0.000000
# 6 0.000000 0.000000 0.000000 0.000000 0.000000 0.041672
#
#
# Mechanical properties :
#
#
# Convention : Reuss Voigt Hill
#
# Bulk Modulus (GPa) = 66.93889 67.43334 67.18612
# Shear Modulus (GPa) = 12.73909 24.27133 18.50521
#
# Velocity S-wave (km/s) = 2.51507 3.47159 3.03130
# Velocity P-wave (km/s) = 6.45543 7.03941 6.75373
#
# Compressibility (1/GPa) = 0.01493900
#
# Stress axis : x y z
#
# Youngs Moduli (GPa) = 72.74707 72.74707 147.85403
#
# Poissons Ratio (x) = 0.51575 0.18991
# Poissons Ratio (y) = 0.51575 0.18991
# Poissons Ratio (z) = 0.09344 0.09344
#
# Static dielectric constant tensor:
#      x y z
#    x 1.867460 0.000000 0.000000 
#    y 0.000000 1.867460 0.000000 
#    z 0.000000 0.000000 1.595960 
# 
# From -- ./inp_files/8822.got.cif
#   From: 2010.05.17/outbox.cif.g08.bks.cpg/sg180_5_cif.got.tgz:8822.got - 2010.05.20 11:43:55.
