data_PCOD9584613
_publ_section_title
;
Structure prediction by ZEFSAII (Michael W. Deem and Ramdas Pophale) SiO2 
 PCOD9584613
Probable space group: P 63 2 2
;
_chemical_formula_sum "Si O2"
_cell_formula_units_Z 42
_cell_length_a 19.426099
_cell_length_b 19.426099
_cell_length_c 7.505305
_cell_angle_alpha 90.000000
_cell_angle_beta 90.000000
_cell_angle_gamma 120.000000
_cell_volume 2452.845382
_symmetry_space_group_name_H-M "P 63 2 2"
_symmetry_group_IT_number 182
_symmetry_cell_setting 'hexagonal'
loop_
_space_group_symop_operation_xyz
x,y,z
x-y,x,1/2+z
-y,x-y,z
-x,-y,1/2+z
-x+y,-x,z
y,-x+y,1/2+z
x-y,-y,-z
-x,-x+y,-z
y,x,-z
-y,-x,1/2-z
-x+y,y,1/2-z
x,x-y,1/2-z
loop_
_atom_site_type_symbol
_atom_site_label
_atom_site_fract_x
_atom_site_fract_y
_atom_site_fract_z
Si Si1 0.256172 0.415880 0.403782
Si Si2 0.835549 0.164452 0.250000
Si Si3 0.407795 0.483010 0.608764
Si Si4 0.309822 0.305519 0.211911
O O1 0.224064 0.448127 0.250000
O O2 0.196559 0.382865 0.571887
O O3 0.343018 0.480242 0.473477
O O4 0.263096 0.342995 0.313087
O O5 0.931049 0.213595 0.249552
O O6 0.475434 0.475434 0.500000
O O7 0.447004 0.552997 0.750000
O O8 0.356968 0.399190 0.711802
O O9 0.312841 0.312841 0.000000
#
# Coordination Sequence:
#
# PCOD9584613 Si02
#       4
#    12   6  12  12
#     4  10  19  32  50  74 107 144 172 212 274 323
#     4  10  18  30  48  70 106 136 174 210 258 318
#     4   9  18  30  47  73 107 140 172 215 264 320
#     4  10  18  30  50  73 106 141 169 216 263 322
#
# _framework density 17.122969999999999
#
# number of rings (size 3 to 8) (size 9 to 14) (size 15 to 20)
#    0.000    2.286    2.857    3.429    0.000    0.000 
#    0.000    0.000    0.000    0.000    0.000    0.000 
#   92.857  151.429    0.000    0.000    0.000    0.000 
#
# Total GULP energy -233914.944747 kJ/mol
# GULP energy per Si atom -5569.403446 kJ/mol
# Density = 1.708400 g / cm^3
# Si number density = 17.122970 Si / 1000 Ang^3
#
#
#
# Elastic Constant Matrix: (Units=GPa)
#
#
# Indices 1 2 3 4 5 6 
#
# 1 50.3869 31.3113 30.8038 0.0000 0.0000 0.0000
# 2 31.3113 50.3869 30.8038 0.0000 0.0000 0.0000
# 3 30.8038 30.8038 133.8669 0.0000 0.0000 0.0000
# 4 0.0000 0.0000 0.0000 35.0649 0.0000 0.0000
# 5 0.0000 0.0000 0.0000 0.0000 35.0649 0.0000
# 6 0.0000 0.0000 0.0000 0.0000 0.0000 9.5378
#
#
#
# Elastic Compliance Matrix: (Units=1/GPa)
#
#
# Indices 1 2 3 4 5 6 
#
# 1 0.033617 -0.018807 -0.003408 0.000000 0.000000 0.000000
# 2 -0.018807 0.033617 -0.003408 0.000000 0.000000 0.000000
# 3 -0.003408 -0.003408 0.009038 0.000000 0.000000 0.000000
# 4 0.000000 0.000000 0.000000 0.028519 0.000000 0.000000
# 5 0.000000 0.000000 0.000000 0.000000 0.028519 0.000000
# 6 0.000000 0.000000 0.000000 0.000000 0.000000 0.104846
#
#
# Mechanical properties :
#
#
# Convention : Reuss Voigt Hill
#
# Bulk Modulus (GPa) = 39.95694 46.71983 43.33839
# Shear Modulus (GPa) = 16.79307 25.38162 21.08734
#
# Velocity S-wave (km/s) = 3.13506 3.85426 3.51311
# Velocity P-wave (km/s) = 6.04076 6.86667 6.46692
#
# Compressibility (1/GPa) = 0.02502694
#
# Stress axis : x y z
#
# Youngs Moduli (GPa) = 29.74725 29.74725 110.63812
#
# Poissons Ratio (x) = 0.55944 0.37704
# Poissons Ratio (y) = 0.55944 0.37704
# Poissons Ratio (z) = 0.10138 0.10138
#
# Static dielectric constant tensor:
#      x y z
#    x 1.593840 0.000000 0.000000 
#    y 0.000000 1.593840 0.000000 
#    z 0.000000 0.000000 1.623370 
# 
# From -- ./inp_files/1318.got.cif
#   From: 2010.05.17/outbox.cif.g08.bks.cpg/sg182_1_cif.got.tgz:1318.got - 2010.05.20 11:58:53.
