data_PCOD9584256
_publ_section_title
;
Structure prediction by ZEFSAII (Michael W. Deem and Ramdas Pophale) SiO2 
 PCOD9584256
Probable space group: P 64 2 2
;
_chemical_formula_sum "Si O2"
_cell_formula_units_Z 54
_cell_length_a 26.327200
_cell_length_b 26.327200
_cell_length_c 5.344238
_cell_angle_alpha 90.000000
_cell_angle_beta 90.000000
_cell_angle_gamma 120.000000
_cell_volume 3207.936535
_symmetry_space_group_name_H-M "P 64 2 2"
_symmetry_group_IT_number 181
_symmetry_cell_setting 'hexagonal'
loop_
_space_group_symop_operation_xyz
x,y,z
x-y,x,2/3+z
-y,x-y,1/3+z
-x,-y,z
-x+y,-x,2/3+z
y,-x+y,1/3+z
x-y,-y,-z
-x,-x+y,2/3-z
y,x,1/3-z
-y,-x,1/3-z
-x+y,y,-z
x,x-y,2/3-z
loop_
_atom_site_type_symbol
_atom_site_label
_atom_site_fract_x
_atom_site_fract_y
_atom_site_fract_z
Si Si1 0.477454 0.070974 0.496519
Si Si2 0.782743 0.846089 0.625987
Si Si3 0.344804 0.929084 0.000786
Si Si4 0.944201 0.888402 0.000000
Si Si5 0.144699 0.351195 0.239899
O O1 0.546358 0.092716 0.500000
O O2 0.458805 0.086384 0.235503
O O3 0.444281 0.000000 0.500000
O O4 0.452046 0.087157 0.739414
O O5 0.788986 0.788986 0.666667
O O6 0.841612 0.884541 0.467159
O O7 0.718007 0.820101 0.517810
O O8 0.786718 0.893359 0.833334
O O9 0.275435 0.894807 0.956954
O O10 0.372331 0.000000 0.000000
O O11 0.000000 0.928659 0.833334
O O12 0.177888 0.355775 0.500000
O O13 0.187745 0.375490 0.000000
#
# Coordination Sequence:
#
# PCOD9584256 Si02
#       5
#    12  12  12   6  12
#     4   9  17  30  51  78 110 143 172 206 247 290
#     4  11  22  38  56  75  97 123 166 222 285 361
#     4  10  19  33  51  78 108 142 185 220 257 310
#     4  12  24  42  63  78  94 118 162 230 324 394
#     4  11  23  37  54  77 106 144 184 225 271 321
#
# _framework density 16.833251000000001
#
# number of rings (size 3 to 8) (size 9 to 14) (size 15 to 20)
#    0.000    1.556    3.333    2.667    0.000    2.667 
#    0.000    6.111    0.000    0.000    0.000    0.000 
#    0.000    0.000    0.000   84.000    0.000    0.000 
#
# Total GULP energy -300731.461072 kJ/mol
# GULP energy per Si atom -5569.101131 kJ/mol
# Density = 1.679494 g / cm^3
# Si number density = 16.833251 Si / 1000 Ang^3
#
#
#
# Elastic Constant Matrix: (Units=GPa)
#
#
# Indices 1 2 3 4 5 6 
#
# 1 93.5932 59.5151 53.5857 0.0000 0.0000 0.0000
# 2 59.5151 93.5932 53.5857 0.0000 0.0000 0.0000
# 3 53.5857 53.5857 117.2971 0.0000 0.0000 0.0000
# 4 0.0000 0.0000 0.0000 -0.2203 0.0000 0.0000
# 5 0.0000 0.0000 0.0000 0.0000 -0.2203 0.0000
# 6 0.0000 0.0000 0.0000 0.0000 0.0000 17.0391
#
#
#
# Elastic Compliance Matrix: (Units=1/GPa)
#
#
# Indices 1 2 3 4 5 6 
#
# 1 0.019473 -0.009871 -0.004386 0.000000 0.000000 0.000000
# 2 -0.009871 0.019473 -0.004386 0.000000 0.000000 0.000000
# 3 -0.004386 -0.004386 0.012533 0.000000 0.000000 0.000000
# 4 0.000000 0.000000 0.000000 -4.539892 0.000001 0.000000
# 5 0.000000 0.000000 0.000000 0.000001 -4.539893 0.000000
# 6 0.000000 0.000000 0.000000 0.000000 0.000000 0.058689
#
#
# Mechanical properties :
#
#
# Convention : Reuss Voigt Hill
#
# Bulk Modulus (GPa) = 70.46795 70.87294 70.67045
# Shear Modulus (GPa) = -0.56006 12.50617 5.97305
#
# Velocity S-wave (km/s) = -0.57744 2.72866 1.88575
# Velocity P-wave (km/s) = 6.44272 7.21954 6.84216
#
# Compressibility (1/GPa) = 0.01419085
#
# Stress axis : x y z
#
# Youngs Moduli (GPa) = 51.35311 51.35311 79.78862
#
# Poissons Ratio (x) = 0.50692 0.34999
# Poissons Ratio (y) = 0.50692 0.34999
# Poissons Ratio (z) = 0.22526 0.22526
#
# Static dielectric constant tensor:
#      x y z
#    x 1.642690 0.000000 0.000000 
#    y 0.000000 1.642690 0.000000 
#    z 0.000000 0.000000 1.643200 
# 
# From -- ./inp_files/1239.got.cif
#   From: 2010.05.17/outbox.cif.g08.bks.cpg/sg181_1_cif.got.tgz:1239.got - 2010.05.20 11:51:17.
