data_PCOD9584869
_publ_section_title
;
Structure prediction by ZEFSAII (Michael W. Deem and Ramdas Pophale) SiO2 
 PCOD9584869
Probable space group: P 63 2 2
;
_chemical_formula_sum "Si O2"
_cell_formula_units_Z 72
_cell_length_a 15.423160
_cell_length_b 15.423160
_cell_length_c 15.888797
_cell_angle_alpha 90.000000
_cell_angle_beta 90.000000
_cell_angle_gamma 120.000000
_cell_volume 3273.168598
_symmetry_space_group_name_H-M "P 63 2 2"
_symmetry_group_IT_number 182
_symmetry_cell_setting 'hexagonal'
loop_
_space_group_symop_operation_xyz
x,y,z
x-y,x,1/2+z
-y,x-y,z
-x,-y,1/2+z
-x+y,-x,z
y,-x+y,1/2+z
x-y,-y,-z
-x,-x+y,-z
y,x,-z
-y,-x,1/2-z
-x+y,y,1/2-z
x,x-y,1/2-z
loop_
_atom_site_type_symbol
_atom_site_label
_atom_site_fract_x
_atom_site_fract_y
_atom_site_fract_z
Si Si1 0.188243 0.014413 0.094507
Si Si2 0.647573 0.627688 0.859630
Si Si3 0.479162 0.122129 0.516725
Si Si4 0.687921 0.528251 0.020105
Si Si5 0.409858 0.293811 0.800427
Si Si6 0.151246 0.975317 0.330699
O O1 0.203767 0.112713 0.142423
O O2 0.247102 0.975898 0.152410
O O3 0.073600 0.929431 0.094985
O O4 0.217232 0.000000 0.000000
O O5 0.576654 0.663704 0.900387
O O6 0.625192 0.578572 0.768884
O O7 0.667101 0.567578 0.932042
O O8 0.442081 0.196069 0.479715
O O9 0.593069 0.176401 0.482870
O O10 0.475219 0.133423 0.617207
O O11 0.416782 0.000000 0.500000
O O12 0.433243 0.216622 0.750000
O O13 0.293849 0.230520 0.831139
O O14 0.074581 0.925420 0.250000
#
# Coordination Sequence:
#
# PCOD9584869 Si02
#       6
#    12  12  12  12  12  12
#     4  12  22  36  58  84 129 191 230 289 347 415
#     4  11  22  44  65  96 149 183 222 299 363 418
#     4  12  26  47  78 110 141 192 244 303 370 457
#     4  11  24  48  72 105 144 182 233 301 373 428
#     4  11  23  43  66 103 140 180 243 299 359 436
#     4  11  23  37  54  88 133 178 240 293 342 410
#
# _framework density 21.997032999999998
#
# number of rings (size 3 to 8) (size 9 to 14) (size 15 to 20)
#    0.000    0.667    8.333    1.667    2.333    0.667 
#    0.000    0.000    0.000    0.000    0.000    2.333 
#    0.000    0.000    0.000    0.000    0.000    0.000 
#
# Total GULP energy -400905.149711 kJ/mol
# GULP energy per Si atom -5568.127079 kJ/mol
# Density = 2.194697 g / cm^3
# Si number density = 21.997033 Si / 1000 Ang^3
#
#
#
# Elastic Constant Matrix: (Units=GPa)
#
#
# Indices 1 2 3 4 5 6 
#
# 1 70.9892 19.0506 22.5746 0.0000 0.0000 0.0000
# 2 19.0506 70.9892 22.5746 0.0000 0.0000 0.0000
# 3 22.5746 22.5746 84.8627 0.0000 0.0000 0.0000
# 4 0.0000 0.0000 0.0000 18.1241 0.0000 0.0000
# 5 0.0000 0.0000 0.0000 0.0000 18.1241 0.0000
# 6 0.0000 0.0000 0.0000 0.0000 0.0000 25.9693
#
#
#
# Elastic Compliance Matrix: (Units=1/GPa)
#
#
# Indices 1 2 3 4 5 6 
#
# 1 0.016035 -0.003219 -0.003409 0.000000 0.000000 0.000000
# 2 -0.003219 0.016035 -0.003409 0.000000 0.000000 0.000000
# 3 -0.003409 -0.003409 0.013597 0.000000 0.000000 0.000000
# 4 0.000000 0.000000 0.000000 0.055175 0.000000 0.000000
# 5 0.000000 0.000000 0.000000 0.000000 0.055175 0.000000
# 6 0.000000 0.000000 0.000000 0.000000 0.000000 0.038507
#
#
# Mechanical properties :
#
#
# Convention : Reuss Voigt Hill
#
# Bulk Modulus (GPa) = 39.07430 39.47120 39.27275
# Shear Modulus (GPa) = 22.40854 23.28624 22.84739
#
# Velocity S-wave (km/s) = 3.19518 3.25716 3.22632
# Velocity P-wave (km/s) = 5.60484 5.66818 5.63660
#
# Compressibility (1/GPa) = 0.02559227
#
# Stress axis : x y z
#
# Youngs Moduli (GPa) = 62.36515 62.36515 73.54295
#
# Poissons Ratio (x) = 0.20075 0.25072
# Poissons Ratio (y) = 0.20075 0.25072
# Poissons Ratio (z) = 0.21261 0.21261
#
# Static dielectric constant tensor:
#      x y z
#    x 1.918220 0.000000 0.000000 
#    y 0.000000 1.918220 0.000000 
#    z 0.000000 0.000000 1.858520 
# 
# From -- ./inp_files/4351.got.cif
#   From: 2010.05.17/outbox.cif.g08.bks.cpg/sg182_3_cif.got.tgz:4351.got - 2010.05.20 11:58:53.
