data_PCOD9584584
_publ_section_title
;
Structure prediction by ZEFSAII (Michael W. Deem and Ramdas Pophale) SiO2 
 PCOD9584584
Probable space group: P 64 2 2
;
_chemical_formula_sum "Si O2"
_cell_formula_units_Z 51
_cell_length_a 15.966890
_cell_length_b 15.966890
_cell_length_c 10.672628
_cell_angle_alpha 90.000000
_cell_angle_beta 90.000000
_cell_angle_gamma 120.000000
_cell_volume 2356.365581
_symmetry_space_group_name_H-M "P 64 2 2"
_symmetry_group_IT_number 181
_symmetry_cell_setting 'hexagonal'
loop_
_space_group_symop_operation_xyz
x,y,z
x-y,x,2/3+z
-y,x-y,1/3+z
-x,-y,z
-x+y,-x,2/3+z
y,-x+y,1/3+z
x-y,-y,-z
-x,-x+y,2/3-z
y,x,1/3-z
-y,-x,1/3-z
-x+y,y,-z
x,x-y,2/3-z
loop_
_atom_site_type_symbol
_atom_site_label
_atom_site_fract_x
_atom_site_fract_y
_atom_site_fract_z
Si Si1 0.679750 0.556098 0.349936
Si Si2 0.772577 0.032928 0.144143
Si Si3 0.627686 0.401558 0.812748
Si Si4 0.000000 0.500000 0.833334
Si Si5 0.389129 0.162255 0.196463
O O1 0.709584 0.633830 0.461224
O O2 0.655613 0.459419 0.423525
O O3 0.589705 0.530699 0.260346
O O4 0.769489 0.601226 0.253339
O O5 0.884682 0.115319 0.166667
O O6 0.719390 0.927276 0.206579
O O7 0.748952 0.000000 0.000000
O O8 0.605048 0.394953 0.666667
O O9 0.688876 0.344438 0.833334
O O10 0.669906 0.514881 0.840607
O O11 0.411740 0.205870 0.333334
#
# Coordination Sequence:
#
# PCOD9584584 Si02
#       5
#    12  12  12   3  12
#     4  12  24  45  66 108 153 201 269 319 391 491
#     4  12  25  49  77 107 146 200 267 343 409 471
#     4  12  23  40  68 108 158 208 255 307 385 483
#     4  12  28  44  70 108 158 200 256 322 392 488
#     4  12  26  43  73 108 153 208 258 328 403 482
#
# _framework density 21.6435
#
# number of rings (size 3 to 8) (size 9 to 14) (size 15 to 20)
#    0.000    0.000    4.706    7.059    1.647    0.000 
#    0.000    2.353    0.000    2.118    0.000    0.000 
#    0.000    0.000    0.000    0.000    0.000    0.000 
#
# Total GULP energy -284120.402798 kJ/mol
# GULP energy per Si atom -5570.988290 kJ/mol
# Density = 2.159424 g / cm^3
# Si number density = 21.643500 Si / 1000 Ang^3
#
#
#
# Elastic Constant Matrix: (Units=GPa)
#
#
# Indices 1 2 3 4 5 6 
#
# 1 103.2848 55.8097 51.3315 0.0000 0.0000 0.0000
# 2 55.8097 103.2848 51.3315 0.0000 0.0000 0.0000
# 3 51.3315 51.3315 167.1487 0.0000 0.0000 0.0000
# 4 0.0000 0.0000 0.0000 56.1428 0.0000 0.0000
# 5 0.0000 0.0000 0.0000 0.0000 56.1428 0.0000
# 6 0.0000 0.0000 0.0000 0.0000 0.0000 23.7376
#
#
#
# Elastic Compliance Matrix: (Units=1/GPa)
#
#
# Indices 1 2 3 4 5 6 
#
# 1 0.014451 -0.006612 -0.002407 0.000000 0.000000 0.000000
# 2 -0.006612 0.014451 -0.002407 0.000000 0.000000 0.000000
# 3 -0.002407 -0.002407 0.007461 0.000000 0.000000 0.000000
# 4 0.000000 0.000000 0.000000 0.017812 0.000000 0.000000
# 5 0.000000 0.000000 0.000000 0.000000 0.017812 0.000000
# 6 0.000000 0.000000 0.000000 0.000000 0.000000 0.042127
#
#
# Mechanical properties :
#
#
# Convention : Reuss Voigt Hill
#
# Bulk Modulus (GPa) = 74.01985 76.74043 75.38014
# Shear Modulus (GPa) = 35.34262 41.55434 38.44848
#
# Velocity S-wave (km/s) = 4.04535 4.38647 4.21936
# Velocity P-wave (km/s) = 7.48957 7.82230 7.65774
#
# Compressibility (1/GPa) = 0.01350989
#
# Stress axis : x y z
#
# Youngs Moduli (GPa) = 69.19765 69.19765 134.02470
#
# Poissons Ratio (x) = 0.45756 0.32265
# Poissons Ratio (y) = 0.45756 0.32265
# Poissons Ratio (z) = 0.16658 0.16658
#
# Static dielectric constant tensor:
#      x y z
#    x 1.881250 0.000000 0.000000 
#    y 0.000000 1.881250 0.000000 
#    z 0.000000 0.000000 1.769950 
# 
# From -- ./inp_files/2785.got.cif
#   From: 2010.05.17/outbox.cif.g08.bks.cpg/sg181_2_cif.got.tgz:2785.got - 2010.05.20 11:51:17.
