data_PCOD9584108
_publ_section_title
;
Structure prediction by ZEFSAII (Michael W. Deem and Ramdas Pophale) SiO2 
 PCOD9584108
Probable space group: P 62 2 2
;
_chemical_formula_sum "Si O2"
_cell_formula_units_Z 24
_cell_length_a 13.051419
_cell_length_b 13.051419
_cell_length_c 8.285490
_cell_angle_alpha 90.000000
_cell_angle_beta 90.000000
_cell_angle_gamma 120.000000
_cell_volume 1222.261955
_symmetry_space_group_name_H-M "P 62 2 2"
_symmetry_group_IT_number 180
_symmetry_cell_setting 'hexagonal'
loop_
_space_group_symop_operation_xyz
x,y,z
x-y,x,1/3+z
-y,x-y,2/3+z
-x,-y,z
-x+y,-x,1/3+z
y,-x+y,2/3+z
x-y,-y,-z
-x,-x+y,1/3-z
y,x,2/3-z
-y,-x,2/3-z
-x+y,y,-z
x,x-y,1/3-z
loop_
_atom_site_type_symbol
_atom_site_label
_atom_site_fract_x
_atom_site_fract_y
_atom_site_fract_z
Si Si1 0.919856 0.322972 0.326485
Si Si2 0.628492 0.131427 0.834012
O O1 0.810918 0.189083 0.333334
O O2 0.866925 0.410645 0.358035
O O3 0.019059 0.373750 0.467615
O O4 0.000000 0.352434 0.166667
O O5 0.752112 0.247889 0.833334
O O6 0.563569 0.127138 0.000000
#
# Coordination Sequence:
#
# PCOD9584108 Si02
#       2
#    12  12
#     4  11  23  40  62  92 128 171 215 264 324 385
#     4  11  22  38  62  94 129 167 214 270 329 391
#
# _framework density 19.635725999999998
#
# number of rings (size 3 to 8) (size 9 to 14) (size 15 to 20)
#    0.000    1.000    0.000   10.500    0.000    4.000 
#    0.000    0.000    0.000    4.500    0.000    0.000 
#    0.000    0.000    0.000    0.000    0.000    0.000 
#
# Total GULP energy -133792.134217 kJ/mol
# GULP energy per Si atom -5574.672259 kJ/mol
# Density = 1.959103 g / cm^3
# Si number density = 19.635726 Si / 1000 Ang^3
#
#
#
# Elastic Constant Matrix: (Units=GPa)
#
#
# Indices 1 2 3 4 5 6 
#
# 1 186.1082 97.5541 66.6791 0.0000 0.0000 0.0000
# 2 97.5541 186.1082 66.6791 0.0000 0.0000 0.0000
# 3 66.6791 66.6791 131.4590 0.0000 0.0000 0.0000
# 4 0.0000 0.0000 0.0000 28.4995 0.0000 0.0000
# 5 0.0000 0.0000 0.0000 0.0000 28.4995 0.0000
# 6 0.0000 0.0000 0.0000 0.0000 0.0000 44.2770
#
#
#
# Elastic Compliance Matrix: (Units=1/GPa)
#
#
# Indices 1 2 3 4 5 6 
#
# 1 0.007961 -0.003332 -0.002348 0.000000 0.000000 0.000000
# 2 -0.003332 0.007961 -0.002348 0.000000 0.000000 0.000000
# 3 -0.002348 -0.002348 0.009989 0.000000 0.000000 0.000000
# 4 0.000000 0.000000 0.000000 0.035088 0.000000 0.000000
# 5 0.000000 0.000000 0.000000 0.000000 0.035088 0.000000
# 6 0.000000 0.000000 0.000000 0.000000 0.000000 0.022585
#
#
# Mechanical properties :
#
#
# Convention : Reuss Voigt Hill
#
# Bulk Modulus (GPa) = 101.46989 107.27779 104.37384
# Shear Modulus (GPa) = 36.22850 38.43942 37.33396
#
# Velocity S-wave (km/s) = 4.30004 4.42931 4.36515
# Velocity P-wave (km/s) = 8.74312 8.99505 8.86998
#
# Compressibility (1/GPa) = 0.00985514
#
# Stress axis : x y z
#
# Youngs Moduli (GPa) = 125.61440 125.61440 100.11112
#
# Poissons Ratio (x) = 0.41851 0.23507
# Poissons Ratio (y) = 0.41851 0.23507
# Poissons Ratio (z) = 0.29495 0.29495
#
# Static dielectric constant tensor:
#      x y z
#    x 1.701850 0.000000 0.000000 
#    y 0.000000 1.701850 0.000000 
#    z 0.000000 0.000000 1.818990 
# 
# From -- ./inp_files/1917.got.cif
#   From: 2010.05.17/outbox.cif.g08.bks.cpg/sg180_1_cif.got.tgz:1917.got - 2010.05.20 11:43:55.
