data_PCOD9584872
_publ_section_title
;
Structure prediction by ZEFSAII (Michael W. Deem and Ramdas Pophale) SiO2 
 PCOD9584872
Probable space group: P 63 2 2
;
_chemical_formula_sum "Si O2"
_cell_formula_units_Z 42
_cell_length_a 21.437554
_cell_length_b 21.437554
_cell_length_c 5.528689
_cell_angle_alpha 90.000000
_cell_angle_beta 90.000000
_cell_angle_gamma 120.000000
_cell_volume 2200.408202
_symmetry_space_group_name_H-M "P 63 2 2"
_symmetry_group_IT_number 182
_symmetry_cell_setting 'hexagonal'
loop_
_space_group_symop_operation_xyz
x,y,z
x-y,x,1/2+z
-y,x-y,z
-x,-y,1/2+z
-x+y,-x,z
y,-x+y,1/2+z
x-y,-y,-z
-x,-x+y,-z
y,x,-z
-y,-x,1/2-z
-x+y,y,1/2-z
x,x-y,1/2-z
loop_
_atom_site_type_symbol
_atom_site_label
_atom_site_fract_x
_atom_site_fract_y
_atom_site_fract_z
Si Si1 0.201554 0.928276 0.134684
Si Si2 0.530098 0.602807 0.849656
Si Si3 0.335526 0.000000 0.500000
Si Si4 0.821195 0.573048 0.494298
O O1 0.123436 0.876565 0.250000
O O2 0.217578 0.876586 0.966535
O O3 0.266866 0.955658 0.327641
O O4 0.214379 0.000000 0.000000
O O5 0.451901 0.548100 0.750000
O O6 0.591903 0.643836 0.647198
O O7 0.555971 0.555971 0.000000
O O8 0.533315 0.665974 0.009491
O O9 0.782181 0.564361 0.750000
O O10 0.774300 0.548599 0.250000
#
# Coordination Sequence:
#
# PCOD9584872 Si02
#       4
#    12  12   6  12
#     4  11  23  35  59  86 129 163 205 263 320 388
#     4  12  23  36  59  94 132 174 213 276 339 403
#     4  12  20  40  56  90 138 162 220 254 336 398
#     4  11  23  40  62  88 126 172 215 266 324 390
#
# _framework density 19.087367
#
# number of rings (size 3 to 8) (size 9 to 14) (size 15 to 20)
#    0.000    0.571    7.143    3.429    0.000    0.000 
#    0.000    0.000    0.000    0.571    0.000   10.000 
#   14.286    0.000    0.000    0.000    0.000    0.000 
#
# Total GULP energy -234641.987668 kJ/mol
# GULP energy per Si atom -5586.713992 kJ/mol
# Density = 1.904392 g / cm^3
# Si number density = 19.087367 Si / 1000 Ang^3
#
#
#
# Elastic Constant Matrix: (Units=GPa)
#
#
# Indices 1 2 3 4 5 6 
#
# 1 107.7640 66.8588 43.9443 0.0000 0.0000 0.0000
# 2 66.8588 107.7640 43.9443 0.0000 0.0000 0.0000
# 3 43.9443 43.9443 78.9212 0.0000 0.0000 0.0000
# 4 0.0000 0.0000 0.0000 29.5213 0.0000 0.0000
# 5 0.0000 0.0000 0.0000 0.0000 29.5213 0.0000
# 6 0.0000 0.0000 0.0000 0.0000 0.0000 20.4526
#
#
#
# Elastic Compliance Matrix: (Units=1/GPa)
#
#
# Indices 1 2 3 4 5 6 
#
# 1 0.016202 -0.008245 -0.004430 0.000000 0.000000 0.000000
# 2 -0.008245 0.016202 -0.004430 0.000000 0.000000 0.000000
# 3 -0.004430 -0.004430 0.017604 0.000000 0.000000 0.000000
# 4 0.000000 0.000000 0.000000 0.033874 0.000000 0.000000
# 5 0.000000 0.000000 0.000000 0.000000 0.033874 0.000000
# 6 0.000000 0.000000 0.000000 0.000000 0.000000 0.048894
#
#
# Mechanical properties :
#
#
# Convention : Reuss Voigt Hill
#
# Bulk Modulus (GPa) = 63.30564 67.10488 65.20526
# Shear Modulus (GPa) = 24.25706 25.21250 24.73478
#
# Velocity S-wave (km/s) = 3.56876 3.63836 3.60373
# Velocity P-wave (km/s) = 7.08658 7.27209 7.17993
#
# Compressibility (1/GPa) = 0.01579638
#
# Stress axis : x y z
#
# Youngs Moduli (GPa) = 61.72238 61.72238 56.80378
#
# Poissons Ratio (x) = 0.50891 0.25165
# Poissons Ratio (y) = 0.50891 0.25165
# Poissons Ratio (z) = 0.27344 0.27344
#
# Static dielectric constant tensor:
#      x y z
#    x 1.672180 0.000000 0.000000 
#    y 0.000000 1.672180 0.000000 
#    z 0.000000 0.000000 1.751530 
# 
# From -- ./inp_files/341.got.cif
#   From: 2010.05.17/outbox.cif.g08.bks.cpg/sg182_1_cif.got.tgz:341.got - 2010.05.20 11:58:53.
