data_PCOD9584267
_publ_section_title
;
Structure prediction by ZEFSAII (Michael W. Deem and Ramdas Pophale) SiO2 
 PCOD9584267
Probable space group: P 64 2 2
;
_chemical_formula_sum "Si O2"
_cell_formula_units_Z 60
_cell_length_a 11.642785
_cell_length_b 11.642785
_cell_length_c 20.574933
_cell_angle_alpha 90.000000
_cell_angle_beta 90.000000
_cell_angle_gamma 120.000000
_cell_volume 2415.365266
_symmetry_space_group_name_H-M "P 64 2 2"
_symmetry_group_IT_number 181
_symmetry_cell_setting 'hexagonal'
loop_
_space_group_symop_operation_xyz
x,y,z
x-y,x,2/3+z
-y,x-y,1/3+z
-x,-y,z
-x+y,-x,2/3+z
y,-x+y,1/3+z
x-y,-y,-z
-x,-x+y,2/3-z
y,x,1/3-z
-y,-x,1/3-z
-x+y,y,-z
x,x-y,2/3-z
loop_
_atom_site_type_symbol
_atom_site_label
_atom_site_fract_x
_atom_site_fract_y
_atom_site_fract_z
Si Si1 0.602915 0.218073 0.571449
Si Si2 0.818019 0.660119 0.902158
Si Si3 0.518869 0.137002 0.926613
Si Si4 0.889936 0.762671 0.422622
Si Si5 0.869403 0.185956 0.910507
O O1 0.575861 0.151722 0.500000
O O2 0.734781 0.219339 0.596220
O O3 0.638295 0.368044 0.563306
O O4 0.458676 0.158721 0.606532
O O5 0.775917 0.762497 0.932589
O O6 0.787788 0.642350 0.824514
O O7 0.975409 0.739186 0.902591
O O8 0.385778 0.142167 0.922459
O O9 0.500000 0.000000 0.897438
O O10 0.568308 0.136616 0.000000
O O11 0.898091 0.796181 0.500000
O O12 0.042450 0.839913 0.396759
#
# Coordination Sequence:
#
# PCOD9584267 Si02
#       5
#    12  12  12  12  12
#     4  10  19  34  58  87 116 150 196 242 294 356
#     4   9  18  29  55  89 120 148 185 247 300 350
#     4  11  23  39  58  76 110 159 204 241 302 374
#     4  10  19  34  58  88 117 148 195 252 298 351
#     4   9  16  31  53  88 123 151 185 231 303 365
#
# _framework density 24.840962999999999
#
# number of rings (size 3 to 8) (size 9 to 14) (size 15 to 20)
#    0.000    2.200    2.000    1.800    0.000    5.600 
#    0.000    0.000    8.800    0.000    0.000    0.000 
#    0.000    0.000    0.000    0.000    0.000    0.000 
#
# Total GULP energy -334113.745260 kJ/mol
# GULP energy per Si atom -5568.562421 kJ/mol
# Density = 2.478442 g / cm^3
# Si number density = 24.840963 Si / 1000 Ang^3
#
#
#
# Elastic Constant Matrix: (Units=GPa)
#
#
# Indices 1 2 3 4 5 6 
#
# 1 235.7386 116.2271 5.7410 0.0000 0.0000 0.0000
# 2 116.2271 235.7386 5.7410 0.0000 0.0000 0.0000
# 3 5.7410 5.7410 63.3542 0.0000 0.0000 0.0000
# 4 0.0000 0.0000 0.0000 -96.6253 0.0000 0.0000
# 5 0.0000 0.0000 0.0000 0.0000 -96.6253 0.0000
# 6 0.0000 0.0000 0.0000 0.0000 0.0000 59.7557
#
#
#
# Elastic Compliance Matrix: (Units=1/GPa)
#
#
# Indices 1 2 3 4 5 6 
#
# 1 0.005609 -0.002759 -0.000258 0.000000 0.000000 0.000000
# 2 -0.002759 0.005609 -0.000258 0.000000 0.000000 0.000000
# 3 -0.000258 -0.000258 0.015831 0.000000 0.000000 0.000000
# 4 0.000000 0.000000 0.000000 -0.010349 0.000000 0.000000
# 5 0.000000 0.000000 0.000000 0.000000 -0.010349 0.000000
# 6 0.000000 0.000000 0.000000 0.000000 0.000000 0.016735
#
#
# Mechanical properties :
#
#
# Convention : Reuss Voigt Hill
#
# Bulk Modulus (GPa) = 48.78670 87.80550 68.29610
# Shear Modulus (GPa) = 137.10836 0.44251 68.77544
#
# Velocity S-wave (km/s) = 7.43736 0.42252 5.26749
# Velocity P-wave (km/s) = 9.66616 5.97175 8.03419
#
# Compressibility (1/GPa) = 0.02049739
#
# Stress axis : x y z
#
# Youngs Moduli (GPa) = 178.30065 178.30065 63.16693
#
# Poissons Ratio (x) = 0.49191 0.01631
# Poissons Ratio (y) = 0.49191 0.01631
# Poissons Ratio (z) = 0.04604 0.04604
#
# Static dielectric constant tensor:
#      x y z
#    x 2.132770 0.000000 0.000000 
#    y 0.000000 2.132770 0.000000 
#    z 0.000000 0.000000 2.151410 
# 
# From -- ./inp_files/12154.got.cif
#   From: 2010.05.17/outbox.cif.g08.bks.cpg/sg181_7_cif.got.tgz:12154.got - 2010.05.20 11:51:17.
