data_PCOD9584149
_publ_section_title
;
Structure prediction by ZEFSAII (Michael W. Deem and Ramdas Pophale) SiO2 
 PCOD9584149
Probable space group: P 62 2 2
;
_chemical_formula_sum "Si O2"
_cell_formula_units_Z 66
_cell_length_a 20.057195
_cell_length_b 20.057195
_cell_length_c 9.078571
_cell_angle_alpha 90.000000
_cell_angle_beta 90.000000
_cell_angle_gamma 120.000000
_cell_volume 3162.922274
_symmetry_space_group_name_H-M "P 62 2 2"
_symmetry_group_IT_number 180
_symmetry_cell_setting 'hexagonal'
loop_
_space_group_symop_operation_xyz
x,y,z
x-y,x,1/3+z
-y,x-y,2/3+z
-x,-y,z
-x+y,-x,1/3+z
y,-x+y,2/3+z
x-y,-y,-z
-x,-x+y,1/3-z
y,x,2/3-z
-y,-x,2/3-z
-x+y,y,-z
x,x-y,1/3-z
loop_
_atom_site_type_symbol
_atom_site_label
_atom_site_fract_x
_atom_site_fract_y
_atom_site_fract_z
Si Si1 0.539925 0.327516 0.930734
Si Si2 0.774936 0.000000 0.500000
Si Si3 0.369055 0.081317 0.923923
Si Si4 0.132368 0.908985 0.998390
Si Si5 0.395210 0.122340 0.611079
Si Si6 0.344960 0.524933 0.391874
O O1 0.607516 0.392485 0.833334
O O2 0.459844 0.308836 0.849658
O O3 0.553225 0.254707 0.952194
O O4 0.539707 0.348317 0.101513
O O5 0.798952 0.949482 0.400403
O O6 0.692049 0.937231 0.564963
O O7 0.405486 0.086613 0.763284
O O8 0.297361 0.096582 0.918685
O O9 0.434641 0.140003 0.031236
O O10 0.335974 0.000000 0.000000
O O11 0.123058 0.876943 0.833334
O O12 0.159357 0.000000 0.000000
O O13 0.401966 0.200983 0.666667
O O14 0.431784 0.568217 0.333334
#
# Coordination Sequence:
#
# PCOD9584149 Si02
#       6
#    12   6  12  12  12  12
#     4  11  26  43  69 100 142 178 235 287 348 422
#     4  12  24  42  72  98 140 182 240 288 360 424
#     4  11  24  43  70  98 136 178 231 285 349 421
#     4  11  25  42  69 100 137 181 235 293 358 432
#     4  12  24  44  71 101 137 185 236 295 351 431
#     4  11  25  42  68 101 136 185 225 286 355 417
#
# _framework density 20.866778
#
# number of rings (size 3 to 8) (size 9 to 14) (size 15 to 20)
#    0.000    0.727    3.636    3.273   10.182    0.364 
#    0.000    1.818    0.000    0.000    0.000    0.000 
#    0.000    0.000    0.000    0.000    0.000    0.000 
#
# Total GULP energy -368101.071730 kJ/mol
# GULP energy per Si atom -5577.288966 kJ/mol
# Density = 2.081928 g / cm^3
# Si number density = 20.866778 Si / 1000 Ang^3
#
#
#
# Elastic Constant Matrix: (Units=GPa)
#
#
# Indices 1 2 3 4 5 6 
#
# 1 94.4957 41.9238 44.6348 0.0000 0.0000 0.0000
# 2 41.9238 94.4957 44.6348 0.0000 0.0000 0.0000
# 3 44.6348 44.6348 131.9226 0.0000 0.0000 0.0000
# 4 0.0000 0.0000 0.0000 24.6280 0.0000 0.0000
# 5 0.0000 0.0000 0.0000 0.0000 24.6280 0.0000
# 6 0.0000 0.0000 0.0000 0.0000 0.0000 26.2859
#
#
#
# Elastic Compliance Matrix: (Units=1/GPa)
#
#
# Indices 1 2 3 4 5 6 
#
# 1 0.014218 -0.004803 -0.003185 0.000000 0.000000 0.000000
# 2 -0.004803 0.014218 -0.003185 0.000000 0.000000 0.000000
# 3 -0.003185 -0.003185 0.009736 0.000000 0.000000 0.000000
# 4 0.000000 0.000000 0.000000 0.040604 0.000000 0.000000
# 5 0.000000 0.000000 0.000000 0.000000 0.040604 0.000000
# 6 0.000000 0.000000 0.000000 0.000000 0.000000 0.038043
#
#
# Mechanical properties :
#
#
# Convention : Reuss Voigt Hill
#
# Bulk Modulus (GPa) = 63.19657 64.81124 64.00391
# Shear Modulus (GPa) = 27.02021 27.75641 27.38831
#
# Velocity S-wave (km/s) = 3.60236 3.65111 3.62682
# Velocity P-wave (km/s) = 6.90320 6.99293 6.94821
#
# Compressibility (1/GPa) = 0.01582364
#
# Stress axis : x y z
#
# Youngs Moduli (GPa) = 70.33248 70.33248 102.71463
#
# Poissons Ratio (x) = 0.33783 0.32719
# Poissons Ratio (y) = 0.33783 0.32719
# Poissons Ratio (z) = 0.22404 0.22404
#
# Static dielectric constant tensor:
#      x y z
#    x 1.773450 0.000000 0.000000 
#    y 0.000000 1.773450 0.000000 
#    z 0.000000 0.000000 1.780290 
# 
# From -- ./inp_files/3231.got.cif
#   From: 2010.05.17/outbox.cif.g08.bks.cpg/sg180_2_cif.got.tgz:3231.got - 2010.05.20 11:43:55.
