data_PCOD9584284
_publ_section_title
;
Structure prediction by ZEFSAII (Michael W. Deem and Ramdas Pophale) SiO2 
 PCOD9584284
Probable space group: P 64 2 2
;
_chemical_formula_sum "Si O2"
_cell_formula_units_Z 96
_cell_length_a 14.494831
_cell_length_b 14.494831
_cell_length_c 26.096193
_cell_angle_alpha 90.000000
_cell_angle_beta 90.000000
_cell_angle_gamma 120.000000
_cell_volume 4748.255715
_symmetry_space_group_name_H-M "P 64 2 2"
_symmetry_group_IT_number 181
_symmetry_cell_setting 'hexagonal'
loop_
_space_group_symop_operation_xyz
x,y,z
x-y,x,2/3+z
-y,x-y,1/3+z
-x,-y,z
-x+y,-x,2/3+z
y,-x+y,1/3+z
x-y,-y,-z
-x,-x+y,2/3-z
y,x,1/3-z
-y,-x,1/3-z
-x+y,y,-z
x,x-y,2/3-z
loop_
_atom_site_type_symbol
_atom_site_label
_atom_site_fract_x
_atom_site_fract_y
_atom_site_fract_z
Si Si1 0.208224 0.518085 0.568276
Si Si2 0.244860 0.258903 0.607146
Si Si3 0.497920 0.603799 0.112267
Si Si4 0.280372 0.215150 0.081825
Si Si5 0.245956 0.928463 0.295079
Si Si6 0.461898 0.087015 0.869646
Si Si7 0.258899 0.702110 0.726030
Si Si8 0.840683 0.688648 0.939415
O O1 0.149413 0.439773 0.614876
O O2 0.325055 0.529656 0.562400
O O3 0.128598 0.460482 0.520820
O O4 0.227078 0.634782 0.575328
O O5 0.284366 0.284366 0.666667
O O6 0.246492 0.154661 0.587652
O O7 0.130830 0.252748 0.611346
O O8 0.315827 0.352258 0.567708
O O9 0.500000 0.500000 0.091288
O O10 0.438185 0.561816 0.166667
O O11 0.614925 0.706863 0.114634
O O12 0.419039 0.622013 0.077055
O O13 0.182703 0.235996 0.092256
O O14 0.312147 0.254590 0.022823
O O15 0.304176 0.039297 0.264315
O O16 0.500000 0.000000 0.870005
O O17 0.287563 0.712438 0.666667
O O18 0.182251 0.751404 0.733632
O O19 0.859173 0.718345 0.000000
#
# Coordination Sequence:
#
# PCOD9584284 Si02
#       8
#    12  12  12  12  12  12  12  12
#     4  10  23  40  58  86 121 156 199 248 304 367
#     4   9  20  38  63  87 118 159 200 245 309 366
#     4  11  24  40  58  84 126 163 201 254 307 369
#     4  10  19  38  62  87 119 160 197 248 307 359
#     4   9  19  38  59  90 121 153 199 251 299 369
#     4  10  23  40  57  87 117 154 200 248 303 365
#     4  11  23  39  61  91 119 161 210 253 308 374
#     4   9  19  34  58  90 122 151 199 251 298 359
#
# _framework density 20.217950999999999
#
# number of rings (size 3 to 8) (size 9 to 14) (size 15 to 20)
#    0.000    2.125    1.250    0.750    5.250    0.750 
#    0.000    2.500    0.000    0.000    0.000    3.500 
#    0.000    0.000    0.000    0.000    0.000    0.000 
#
# Total GULP energy -534983.412322 kJ/mol
# GULP energy per Si atom -5572.743878 kJ/mol
# Density = 2.017193 g / cm^3
# Si number density = 20.217951 Si / 1000 Ang^3
#
#
#
# Elastic Constant Matrix: (Units=GPa)
#
#
# Indices 1 2 3 4 5 6 
#
# 1 53.6071 23.3621 14.3649 0.0000 0.0000 0.0000
# 2 23.3621 53.6071 14.3649 0.0000 0.0000 0.0000
# 3 14.3649 14.3649 22.3523 0.0000 0.0000 0.0000
# 4 0.0000 0.0000 0.0000 15.2887 0.0000 0.0000
# 5 0.0000 0.0000 0.0000 0.0000 15.2887 0.0000
# 6 0.0000 0.0000 0.0000 0.0000 0.0000 15.1225
#
#
#
# Elastic Compliance Matrix: (Units=1/GPa)
#
#
# Indices 1 2 3 4 5 6 
#
# 1 0.025078 -0.007985 -0.010985 0.000000 0.000000 0.000000
# 2 -0.007985 0.025078 -0.010985 0.000000 0.000000 0.000000
# 3 -0.010985 -0.010985 0.058857 0.000000 0.000000 0.000000
# 4 0.000000 0.000000 0.000000 0.065408 0.000000 0.000000
# 5 0.000000 0.000000 0.000000 0.000000 0.065408 0.000000
# 6 0.000000 0.000000 0.000000 0.000000 0.000000 0.066127
#
#
# Mechanical properties :
#
#
# Convention : Reuss Voigt Hill
#
# Bulk Modulus (GPa) = 20.36524 25.97226 23.16875
# Shear Modulus (GPa) = 13.08107 14.30495 13.69301
#
# Velocity S-wave (km/s) = 2.54638 2.66284 2.60526
# Velocity P-wave (km/s) = 4.32899 4.72529 4.53147
#
# Compressibility (1/GPa) = 0.04910328
#
# Stress axis : x y z
#
# Youngs Moduli (GPa) = 39.87582 39.87582 16.99034
#
# Poissons Ratio (x) = 0.31843 0.18663
# Poissons Ratio (y) = 0.31843 0.18663
# Poissons Ratio (z) = 0.43802 0.43802
#
# Static dielectric constant tensor:
#      x y z
#    x 1.725090 0.000000 0.000000 
#    y 0.000000 1.725090 0.000000 
#    z 0.000000 0.000000 1.748700 
# 
# From -- ./inp_files/12487.got.cif
#   From: 2010.05.17/outbox.cif.g08.bks.cpg/sg181_7_cif.got.tgz:12487.got - 2010.05.20 11:51:17.
