data_PCOD9584422
_publ_section_title
;
Structure prediction by ZEFSAII (Michael W. Deem and Ramdas Pophale) SiO2 
 PCOD9584422
Probable space group: P 64 2 2
;
_chemical_formula_sum "Si O2"
_cell_formula_units_Z 72
_cell_length_a 13.956910
_cell_length_b 13.956910
_cell_length_c 20.347616
_cell_angle_alpha 90.000000
_cell_angle_beta 90.000000
_cell_angle_gamma 120.000000
_cell_volume 3432.596226
_symmetry_space_group_name_H-M "P 64 2 2"
_symmetry_group_IT_number 181
_symmetry_cell_setting 'hexagonal'
loop_
_space_group_symop_operation_xyz
x,y,z
x-y,x,2/3+z
-y,x-y,1/3+z
-x,-y,z
-x+y,-x,2/3+z
y,-x+y,1/3+z
x-y,-y,-z
-x,-x+y,2/3-z
y,x,1/3-z
-y,-x,1/3-z
-x+y,y,-z
x,x-y,2/3-z
loop_
_atom_site_type_symbol
_atom_site_label
_atom_site_fract_x
_atom_site_fract_y
_atom_site_fract_z
Si Si1 0.864647 0.125758 0.503324
Si Si2 0.290909 0.496337 0.184735
Si Si3 0.827394 0.116058 0.978590
Si Si4 0.052509 0.749020 0.629179
Si Si5 0.467543 0.586929 0.433964
Si Si6 0.261046 0.744637 0.328858
O O1 0.751119 0.128549 0.515396
O O2 0.896577 0.183157 0.432867
O O3 0.950514 0.199707 0.558533
O O4 0.836531 0.000000 0.500000
O O5 0.413623 0.586378 0.166667
O O6 0.205633 0.532391 0.153583
O O7 0.290051 0.496320 0.263792
O O8 0.741218 0.144583 0.014344
O O9 0.943607 0.222617 0.997506
O O10 0.812645 0.000000 0.000000
O O11 0.154171 0.845830 0.666667
O O12 0.082985 0.654150 0.615737
O O13 0.500000 0.500000 0.464289
O O14 0.353916 0.534438 0.391773
O O15 0.253286 0.626643 0.333334
#
# Coordination Sequence:
#
# PCOD9584422 Si02
#       6
#    12  12  12  12  12  12
#     4  10  22  41  62  92 127 162 214 270 320 376
#     4  10  22  38  60  96 129 160 210 265 316 385
#     4  11  25  44  62  92 128 169 220 262 321 391
#     4  11  22  40  67  94 127 167 212 273 324 384
#     4  11  22  41  68  95 130 174 216 261 326 396
#     4  11  22  43  66  93 129 169 213 263 320 386
#
# _framework density 20.975376000000001
#
# number of rings (size 3 to 8) (size 9 to 14) (size 15 to 20)
#    0.000    1.333    5.000    0.500    2.333    1.667 
#    9.000    2.500    0.000    0.000    0.000    0.000 
#    0.000    0.000    0.000    0.000    0.000    0.000 
#
# Total GULP energy -401521.645286 kJ/mol
# GULP energy per Si atom -5576.689518 kJ/mol
# Density = 2.092764 g / cm^3
# Si number density = 20.975376 Si / 1000 Ang^3
#
#
#
# Elastic Constant Matrix: (Units=GPa)
#
#
# Indices 1 2 3 4 5 6 
#
# 1 39.9803 -3.5599 -0.0812 0.0000 0.0000 0.0000
# 2 -3.5599 39.9803 -0.0812 0.0000 0.0000 0.0000
# 3 -0.0812 -0.0812 77.6563 0.0000 0.0000 0.0000
# 4 0.0000 0.0000 0.0000 21.1626 0.0000 0.0000
# 5 0.0000 0.0000 0.0000 0.0000 21.1626 0.0000
# 6 0.0000 0.0000 0.0000 0.0000 0.0000 21.7701
#
#
#
# Elastic Compliance Matrix: (Units=1/GPa)
#
#
# Indices 1 2 3 4 5 6 
#
# 1 0.025212 0.002245 0.000029 0.000000 0.000000 0.000000
# 2 0.002245 0.025212 0.000029 0.000000 0.000000 0.000000
# 3 0.000029 0.000029 0.012877 0.000000 0.000000 0.000000
# 4 0.000000 0.000000 0.000000 0.047253 0.000000 0.000000
# 5 0.000000 0.000000 0.000000 0.000000 0.047253 0.000000
# 6 0.000000 0.000000 0.000000 0.000000 0.000000 0.045935
#
#
# Mechanical properties :
#
#
# Convention : Reuss Voigt Hill
#
# Bulk Modulus (GPa) = 14.72607 16.68580 15.70593
# Shear Modulus (GPa) = 22.54553 23.57501 23.06027
#
# Velocity S-wave (km/s) = 3.28206 3.35615 3.31931
# Velocity P-wave (km/s) = 4.62584 4.79485 4.71110
#
# Compressibility (1/GPa) = 0.06790677
#
# Stress axis : x y z
#
# Youngs Moduli (GPa) = 39.66319 39.66319 77.65593
#
# Poissons Ratio (x) = -0.08904 -0.00223
# Poissons Ratio (y) = -0.08904 -0.00223
# Poissons Ratio (z) = -0.00114 -0.00114
#
# Static dielectric constant tensor:
#      x y z
#    x 1.800760 0.000000 0.000000 
#    y 0.000000 1.800760 0.000000 
#    z 0.000000 0.000000 1.794270 
# 
# From -- ./inp_files/7797.got.cif
#   From: 2010.05.17/outbox.cif.g08.bks.cpg/sg181_4_cif.got.tgz:7797.got - 2010.05.20 11:51:17.
