data_PCOD9584738
_publ_section_title
;
Structure prediction by ZEFSAII (Michael W. Deem and Ramdas Pophale) SiO2 
 PCOD9584738
Probable space group: P 63 2 2
;
_chemical_formula_sum "Si O2"
_cell_formula_units_Z 52
_cell_length_a 12.815272
_cell_length_b 12.815272
_cell_length_c 21.322893
_cell_angle_alpha 90.000000
_cell_angle_beta 90.000000
_cell_angle_gamma 120.000000
_cell_volume 3032.720703
_symmetry_space_group_name_H-M "P 63 2 2"
_symmetry_group_IT_number 182
_symmetry_cell_setting 'hexagonal'
loop_
_space_group_symop_operation_xyz
x,y,z
x-y,x,1/2+z
-y,x-y,z
-x,-y,1/2+z
-x+y,-x,z
y,-x+y,1/2+z
x-y,-y,-z
-x,-x+y,-z
y,x,-z
-y,-x,1/2-z
-x+y,y,1/2-z
x,x-y,1/2-z
loop_
_atom_site_type_symbol
_atom_site_label
_atom_site_fract_x
_atom_site_fract_y
_atom_site_fract_z
Si Si1 0.410720 0.082886 0.557537
Si Si2 0.002663 0.249811 0.821264
Si Si3 0.333334 0.666668 0.176533
Si Si4 0.997760 0.751049 0.821972
Si Si5 0.129288 0.665187 0.405836
O O1 0.426184 0.215702 0.553167
O O2 0.541973 0.095009 0.559607
O O3 0.336482 0.000000 0.500000
O O4 0.345049 0.027363 0.623798
O O5 0.977949 0.326469 0.872405
O O6 0.126886 0.250945 0.831103
O O7 0.998630 0.289378 0.749478
O O8 0.890252 0.113459 0.826127
O O9 0.333334 0.666667 0.250000
O O10 0.324035 0.778182 0.149056
#
# Coordination Sequence:
#
# PCOD9584738 Si02
#       5
#    12  12   4  12  12
#     4  10  21  36  51  73 104 135 175 211 255 312
#     4   9  17  31  52  77 103 127 167 204 263 307
#     4   9  18  27  51  78 105 126 168 226 269 301
#     4   9  18  31  51  76 103 132 160 208 253 309
#     4   9  20  33  51  77 100 135 172 218 261 306
#
# _framework density 17.146321
#
# number of rings (size 3 to 8) (size 9 to 14) (size 15 to 20)
#    0.000    2.769    0.000    0.923    9.692    3.692 
#    0.000    3.462    0.000    0.923    0.000    0.000 
#    0.000    0.000    0.000    0.000    0.000    0.000 
#
# Total GULP energy -289868.287148 kJ/mol
# GULP energy per Si atom -5574.390137 kJ/mol
# Density = 1.710729 g / cm^3
# Si number density = 17.146321 Si / 1000 Ang^3
#
#
#
# Elastic Constant Matrix: (Units=GPa)
#
#
# Indices 1 2 3 4 5 6 
#
# 1 57.7516 22.9058 33.7898 -0.0001 0.0001 0.0002
# 2 22.9058 57.7522 33.7896 0.0000 0.0000 0.0000
# 3 33.7898 33.7896 67.9972 -0.0001 0.0000 0.0000
# 4 -0.0001 0.0000 -0.0001 14.0285 0.0000 0.0000
# 5 0.0001 0.0000 0.0000 0.0000 14.0286 0.0000
# 6 0.0002 0.0000 0.0000 0.0000 0.0000 17.4219
#
#
#
# Elastic Compliance Matrix: (Units=1/GPa)
#
#
# Indices 1 2 3 4 5 6 
#
# 1 0.024970 -0.003728 -0.010556 0.000000 0.000000 0.000000
# 2 -0.003728 0.024970 -0.010556 0.000000 0.000000 0.000000
# 3 -0.010556 -0.010556 0.025198 0.000000 0.000000 0.000000
# 4 0.000000 0.000000 0.000000 0.071283 0.000000 0.000000
# 5 0.000000 0.000000 0.000000 0.000000 0.071283 0.000000
# 6 0.000000 0.000000 0.000000 0.000000 0.000000 0.057399
#
#
# Mechanical properties :
#
#
# Convention : Reuss Voigt Hill
#
# Bulk Modulus (GPa) = 39.27942 40.49682 39.88812
# Shear Modulus (GPa) = 15.00292 15.29685 15.14989
#
# Velocity S-wave (km/s) = 2.96124 2.99011 2.97571
# Velocity P-wave (km/s) = 5.88643 5.96579 5.92624
#
# Compressibility (1/GPa) = 0.02545862
#
# Stress axis : x y z
#
# Youngs Moduli (GPa) = 40.04764 40.04849 39.68632
#
# Poissons Ratio (x) = 0.14928 0.41893
# Poissons Ratio (y) = 0.14928 0.41892
# Poissons Ratio (z) = 0.42275 0.42274
#
# Static dielectric constant tensor:
#      x y z
#    x 1.579020 0.000000 0.000000 
#    y 0.000000 1.579020 0.000000 
#    z 0.000000 0.000000 1.576420 
# 
# From -- ./inp_files/4797.got.cif
#   From: 2010.05.17/outbox.cif.g08.bks.cpg/sg182_3_cif.got.tgz:4797.got - 2010.05.20 11:58:53.
