data_PCOD9584590
_publ_section_title
;
Structure prediction by ZEFSAII (Michael W. Deem and Ramdas Pophale) SiO2 
 PCOD9584590
Probable space group: P 64 2 2
;
_chemical_formula_sum "Si O2"
_cell_formula_units_Z 51
_cell_length_a 15.892867
_cell_length_b 15.892867
_cell_length_c 9.660003
_cell_angle_alpha 90.000000
_cell_angle_beta 90.000000
_cell_angle_gamma 120.000000
_cell_volume 2113.062735
_symmetry_space_group_name_H-M "P 64 2 2"
_symmetry_group_IT_number 181
_symmetry_cell_setting 'hexagonal'
loop_
_space_group_symop_operation_xyz
x,y,z
x-y,x,2/3+z
-y,x-y,1/3+z
-x,-y,z
-x+y,-x,2/3+z
y,-x+y,1/3+z
x-y,-y,-z
-x,-x+y,2/3-z
y,x,1/3-z
-y,-x,1/3-z
-x+y,y,-z
x,x-y,2/3-z
loop_
_atom_site_type_symbol
_atom_site_label
_atom_site_fract_x
_atom_site_fract_y
_atom_site_fract_z
Si Si1 0.000000 0.300617 0.833334
Si Si2 0.598690 0.374545 0.008312
Si Si3 0.826026 0.722974 0.716216
Si Si4 0.576236 0.665701 0.432154
Si Si5 0.000000 0.500000 0.333334
Si Si6 0.784695 0.569389 0.500000
O O1 0.072958 0.273158 0.751151
O O2 0.959219 0.344131 0.716805
O O3 0.661869 0.474659 0.926667
O O4 0.497780 0.306632 0.931194
O O5 0.596990 0.403011 0.166667
O O6 0.658948 0.317896 0.000000
O O7 0.814518 0.814518 0.666667
O O8 0.763694 0.668520 0.849778
O O9 0.771376 0.642850 0.596725
O O10 0.542138 0.587323 0.554608
#
# Coordination Sequence:
#
# PCOD9584590 Si02
#       6
#     6  12  12  12   3   6
#     4  12  28  51  84 117 158 206 270 348 413 495
#     4  12  25  43  70 108 158 208 258 313 380 469
#     4  12  27  51  79 113 154 207 266 339 418 489
#     4  12  27  47  74 116 158 207 264 319 407 482
#     4  12  28  46  76 120 156 212 260 328 388 502
#     4  12  26  46  76 113 156 209 264 324 390 478
#
# _framework density 24.135580999999998
#
# number of rings (size 3 to 8) (size 9 to 14) (size 15 to 20)
#    0.000    0.000    2.353    7.765    6.588    0.000 
#    0.000    0.000    0.000   19.059    0.000    0.000 
#    0.000    0.000    0.000    0.000    0.000    0.000 
#
# Total GULP energy -284755.584834 kJ/mol
# GULP energy per Si atom -5583.442840 kJ/mol
# Density = 2.408065 g / cm^3
# Si number density = 24.135581 Si / 1000 Ang^3
#
#
#
# Elastic Constant Matrix: (Units=GPa)
#
#
# Indices 1 2 3 4 5 6 
#
# 1 99.0717 43.4244 34.7393 0.0000 0.0000 0.0000
# 2 43.4244 99.0717 34.7393 0.0000 0.0000 0.0000
# 3 34.7393 34.7393 152.5982 0.0000 0.0000 0.0000
# 4 0.0000 0.0000 0.0000 44.2099 0.0000 0.0000
# 5 0.0000 0.0000 0.0000 0.0000 44.2099 0.0000
# 6 0.0000 0.0000 0.0000 0.0000 0.0000 27.8237
#
#
#
# Elastic Compliance Matrix: (Units=1/GPa)
#
#
# Indices 1 2 3 4 5 6 
#
# 1 0.012932 -0.005038 -0.001797 0.000000 0.000000 0.000000
# 2 -0.005038 0.012932 -0.001797 0.000000 0.000000 0.000000
# 3 -0.001797 -0.001797 0.007371 0.000000 0.000000 0.000000
# 4 0.000000 0.000000 0.000000 0.022619 0.000000 0.000000
# 5 0.000000 0.000000 0.000000 0.000000 0.022619 0.000000
# 6 0.000000 0.000000 0.000000 0.000000 0.000000 0.035941
#
#
# Mechanical properties :
#
#
# Convention : Reuss Voigt Hill
#
# Bulk Modulus (GPa) = 62.61352 64.06082 63.33717
# Shear Modulus (GPa) = 36.49545 39.10459 37.80002
#
# Velocity S-wave (km/s) = 3.89279 4.02954 3.96176
# Velocity P-wave (km/s) = 6.79734 6.94617 6.87216
#
# Compressibility (1/GPa) = 0.01597099
#
# Stress axis : x y z
#
# Youngs Moduli (GPa) = 77.32673 77.32673 135.65991
#
# Poissons Ratio (x) = 0.38959 0.24379
# Poissons Ratio (y) = 0.38959 0.24379
# Poissons Ratio (z) = 0.13896 0.13896
#
# Static dielectric constant tensor:
#      x y z
#    x 2.045370 0.000000 0.000000 
#    y 0.000000 2.045370 0.000000 
#    z 0.000000 0.000000 1.851400 
# 
# From -- ./inp_files/2825.got.cif
#   From: 2010.05.17/outbox.cif.g08.bks.cpg/sg181_2_cif.got.tgz:2825.got - 2010.05.20 11:51:17.
