data_PCOD9584091
_publ_section_title
;
Structure prediction by ZEFSAII (Michael W. Deem and Ramdas Pophale) SiO2 
 PCOD9584091
Probable space group: P 62 2 2
;
_chemical_formula_sum "Si O2"
_cell_formula_units_Z 84
_cell_length_a 14.823780
_cell_length_b 14.823780
_cell_length_c 25.581109
_cell_angle_alpha 90.000000
_cell_angle_beta 90.000000
_cell_angle_gamma 120.000000
_cell_volume 4868.194506
_symmetry_space_group_name_H-M "P 62 2 2"
_symmetry_group_IT_number 180
_symmetry_cell_setting 'hexagonal'
loop_
_space_group_symop_operation_xyz
x,y,z
x-y,x,1/3+z
-y,x-y,2/3+z
-x,-y,z
-x+y,-x,1/3+z
y,-x+y,2/3+z
x-y,-y,-z
-x,-x+y,1/3-z
y,x,2/3-z
-y,-x,2/3-z
-x+y,y,-z
x,x-y,1/3-z
loop_
_atom_site_type_symbol
_atom_site_label
_atom_site_fract_x
_atom_site_fract_y
_atom_site_fract_z
Si Si1 0.836506 0.164626 0.976351
Si Si2 0.237898 0.946256 0.079636
Si Si3 0.165993 0.044414 0.821843
Si Si4 0.922490 0.708410 0.950100
Si Si5 0.393823 0.887369 0.236638
Si Si6 0.289421 0.569655 0.379719
Si Si7 0.401173 0.515745 0.220538
O O1 0.771754 0.224344 0.975833
O O2 0.955551 0.241909 0.962978
O O3 0.774205 0.067783 0.936477
O O4 0.837260 0.114486 0.031859
O O5 0.184653 0.931694 0.135117
O O6 0.313280 0.898419 0.083379
O O7 0.112785 0.112785 0.833334
O O8 0.217860 0.072375 0.764708
O O9 0.074896 0.925104 0.833334
O O10 0.886156 0.592286 0.929085
O O11 0.854574 0.709148 0.000000
O O12 0.409100 0.796129 0.260648
O O13 0.377734 0.868529 0.174391
O O14 0.500000 0.000000 0.244146
O O15 0.349961 0.650040 0.333334
O O16 0.377283 0.579338 0.420589
O O17 0.500000 0.500000 0.226139
#
# Coordination Sequence:
#
# PCOD9584091 Si02
#       7
#    12  12  12  12  12  12  12
#     4  11  23  37  62  94 128 161 206 257 314 386
#     4  11  21  39  60  91 128 163 200 252 318 381
#     4  11  23  41  63  91 125 167 213 261 318 378
#     4  12  24  43  65  90 126 173 216 260 316 376
#     4  11  24  41  62  89 124 164 215 260 312 375
#     4  12  23  39  61  91 127 161 206 259 318 376
#     4  11  22  36  62  92 121 161 198 251 316 386
#
# _framework density 17.254856
#
# number of rings (size 3 to 8) (size 9 to 14) (size 15 to 20)
#    0.000    0.714    7.143    1.714    0.000    0.286 
#    2.571    0.000    0.000    0.000    0.000    1.000 
#    0.000    0.000    0.000    0.000    0.000    0.000 
#
# Total GULP energy -468739.833344 kJ/mol
# GULP energy per Si atom -5580.236111 kJ/mol
# Density = 1.721558 g / cm^3
# Si number density = 17.254856 Si / 1000 Ang^3
#
#
#
# Elastic Constant Matrix: (Units=GPa)
#
#
# Indices 1 2 3 4 5 6 
#
# 1 101.9457 47.7517 51.2121 0.0000 0.0000 0.0000
# 2 47.7517 101.9457 51.2121 0.0000 0.0000 0.0000
# 3 51.2121 51.2121 120.3887 0.0000 0.0000 0.0000
# 4 0.0000 0.0000 0.0000 115.0869 0.0000 0.0000
# 5 0.0000 0.0000 0.0000 0.0000 115.0868 0.0000
# 6 0.0000 0.0000 0.0000 0.0000 0.0000 27.0970
#
#
#
# Elastic Compliance Matrix: (Units=1/GPa)
#
#
# Indices 1 2 3 4 5 6 
#
# 1 0.013937 -0.004515 -0.004008 0.000000 0.000000 0.000000
# 2 -0.004515 0.013937 -0.004008 0.000000 0.000000 0.000000
# 3 -0.004008 -0.004008 0.011717 0.000000 0.000000 0.000000
# 4 0.000000 0.000000 0.000000 0.008689 0.000000 0.000000
# 5 0.000000 0.000000 0.000000 0.000000 0.008689 0.000000
# 6 0.000000 0.000000 0.000000 0.000000 0.000000 0.036905
#
#
# Mechanical properties :
#
#
# Convention : Reuss Voigt Hill
#
# Bulk Modulus (GPa) = 68.82923 69.40357 69.11640
# Shear Modulus (GPa) = 40.39428 63.06107 51.72767
#
# Velocity S-wave (km/s) = 4.84368 6.05196 5.48121
# Velocity P-wave (km/s) = 8.44144 9.44166 8.95552
#
# Compressibility (1/GPa) = 0.01452871
#
# Stress axis : x y z
#
# Youngs Moduli (GPa) = 71.74911 71.74911 85.34893
#
# Poissons Ratio (x) = 0.32393 0.34210
# Poissons Ratio (y) = 0.32393 0.34210
# Poissons Ratio (z) = 0.28759 0.28759
#
# Static dielectric constant tensor:
#      x y z
#    x 1.217900 0.000000 0.000000 
#    y 0.000000 1.217900 0.000000 
#    z 0.000000 0.000000 1.583350 
# 
# From -- ./inp_files/10253.got.cif
#   From: 2010.05.17/outbox.cif.g08.bks.cpg/sg180_6_cif.got.tgz:10253.got - 2010.05.20 11:43:55.
