data_PCOD9584355
_publ_section_title
;
Structure prediction by ZEFSAII (Michael W. Deem and Ramdas Pophale) SiO2 
 PCOD9584355
Probable space group: P 64 2 2
;
_chemical_formula_sum "Si O2"
_cell_formula_units_Z 45
_cell_length_a 15.007088
_cell_length_b 15.007088
_cell_length_c 11.263881
_cell_angle_alpha 90.000000
_cell_angle_beta 90.000000
_cell_angle_gamma 120.000000
_cell_volume 2196.906348
_symmetry_space_group_name_H-M "P 64 2 2"
_symmetry_group_IT_number 181
_symmetry_cell_setting 'hexagonal'
loop_
_space_group_symop_operation_xyz
x,y,z
x-y,x,2/3+z
-y,x-y,1/3+z
-x,-y,z
-x+y,-x,2/3+z
y,-x+y,1/3+z
x-y,-y,-z
-x,-x+y,2/3-z
y,x,1/3-z
-y,-x,1/3-z
-x+y,y,-z
x,x-y,2/3-z
loop_
_atom_site_type_symbol
_atom_site_label
_atom_site_fract_x
_atom_site_fract_y
_atom_site_fract_z
Si Si1 0.377275 0.953493 0.120059
Si Si2 0.000000 0.000000 0.500000
Si Si3 0.546805 0.273403 0.333334
Si Si4 0.679129 0.633060 0.040961
Si Si5 0.279761 0.559522 0.500000
Si Si6 0.906291 0.093710 0.666667
O O1 0.316445 0.830205 0.106077
O O2 0.500000 0.000000 0.120780
O O3 0.358550 0.986677 0.250574
O O4 0.355948 0.000000 0.000000
O O5 0.971812 0.077438 0.566000
O O6 0.467954 0.158469 0.375823
O O7 0.624239 0.261472 0.246197
O O8 0.627459 0.627459 0.166667
O O9 0.790399 0.735840 0.039531
#
# Coordination Sequence:
#
# PCOD9584355 Si02
#       6
#    12   3   6  12   6   6
#     4  11  25  48  69 102 147 182 241 297 358 436
#     4  10  20  44  72  98 138 190 232 292 354 442
#     4  11  26  43  71 101 141 182 245 290 366 448
#     4  11  25  45  69 106 143 182 231 304 363 425
#     4  12  26  45  75 102 136 201 239 298 368 442
#     4  10  22  43  70 104 143 180 238 292 360 432
#
# _framework density 20.483350000000002
#
# number of rings (size 3 to 8) (size 9 to 14) (size 15 to 20)
#    0.000    1.067    4.000    1.600    3.733    3.733 
#    4.800    0.000    0.000    0.000    0.000    0.000 
#    0.000    0.000    0.000    0.000    0.000    0.000 
#
# Total GULP energy -250793.332439 kJ/mol
# GULP energy per Si atom -5573.185165 kJ/mol
# Density = 2.043673 g / cm^3
# Si number density = 20.483350 Si / 1000 Ang^3
#
#
#
# Elastic Constant Matrix: (Units=GPa)
#
#
# Indices 1 2 3 4 5 6 
#
# 1 21.8859 182.3527 65.9635 0.0000 0.0000 0.0000
# 2 182.3527 21.8859 65.9635 0.0000 0.0000 0.0000
# 3 65.9635 65.9635 160.6971 0.0000 0.0000 0.0000
# 4 0.0000 0.0000 0.0000 27.1565 0.0000 0.0000
# 5 0.0000 0.0000 0.0000 0.0000 27.1565 0.0000
# 6 0.0000 0.0000 0.0000 0.0000 0.0000 -80.2334
#
#
#
# Elastic Compliance Matrix: (Units=1/GPa)
#
#
# Indices 1 2 3 4 5 6 
#
# 1 0.000216 0.006447 -0.002735 0.000000 0.000000 0.000000
# 2 0.006447 0.000216 -0.002735 0.000000 0.000000 0.000000
# 3 -0.002735 -0.002735 0.008468 0.000000 0.000000 0.000000
# 4 0.000000 0.000000 0.000000 0.036824 0.000000 0.000000
# 5 0.000000 0.000000 0.000000 0.000000 0.036824 0.000000
# 6 0.000000 0.000000 0.000000 0.000000 0.000000 -0.012464
#
#
# Mechanical properties :
#
#
# Convention : Reuss Voigt Hill
#
# Bulk Modulus (GPa) = 92.13191 92.55869 92.34530
# Shear Modulus (GPa) = 69.69014 -12.50479 28.59268
#
# Velocity S-wave (km/s) = 5.83924 -2.47348 3.74023
# Velocity P-wave (km/s) = 9.51519 6.09327 7.98958
#
# Compressibility (1/GPa) = 0.01085400
#
# Stress axis : x y z
#
# Youngs Moduli (GPa) = 4639.48730 4639.48727 118.08833
#
# Poissons Ratio (x) = -29.91245 0.32297
# Poissons Ratio (y) = -29.91245 0.32297
# Poissons Ratio (z) = 12.68904 12.68904
#
# Static dielectric constant tensor:
#      x y z
#    x 1.491370 0.000000 0.000000 
#    y 0.000000 1.491370 0.000000 
#    z 0.000000 0.000000 1.842450 
# 
# From -- ./inp_files/4532.got.cif
#   From: 2010.05.17/outbox.cif.g08.bks.cpg/sg181_3_cif.got.tgz:4532.got - 2010.05.20 11:51:17.
