data_PCOD9584594
_publ_section_title
;
Structure prediction by ZEFSAII (Michael W. Deem and Ramdas Pophale) SiO2 
 PCOD9584594
Probable space group: P 64 2 2
;
_chemical_formula_sum "Si O2"
_cell_formula_units_Z 69
_cell_length_a 21.000000
_cell_length_b 21.000000
_cell_length_c 9.000000
_cell_angle_alpha 90.000000
_cell_angle_beta 90.000000
_cell_angle_gamma 120.000000
_cell_volume 3437.254828
_symmetry_space_group_name_H-M "P 64 2 2"
_symmetry_group_IT_number 181
_symmetry_cell_setting 'hexagonal'
loop_
_space_group_symop_operation_xyz
x,y,z
x-y,x,2/3+z
-y,x-y,1/3+z
-x,-y,z
-x+y,-x,2/3+z
y,-x+y,1/3+z
x-y,-y,-z
-x,-x+y,2/3-z
y,x,1/3-z
-y,-x,1/3-z
-x+y,y,-z
x,x-y,2/3-z
loop_
_atom_site_type_symbol
_atom_site_label
_atom_site_fract_x
_atom_site_fract_y
_atom_site_fract_z
Si Si1 0.792016 0.222167 0.835221
Si Si2 0.980092 0.687396 0.491071
Si Si3 0.500000 0.500000 0.166667
Si Si4 0.256355 0.107375 0.168151
Si Si5 0.865946 0.731892 0.500000
Si Si6 0.911916 0.358286 0.012336
Si Si7 0.469621 0.797831 0.933049
O O1 0.772362 0.227639 0.666667
O O2 0.826796 0.168957 0.836703
O O3 0.854488 0.298144 0.900993
O O4 0.721149 0.195698 0.937712
O O5 0.900263 0.679112 0.492000
O O6 0.978339 0.635732 0.619135
O O7 0.000000 0.667854 0.333334
O O8 0.031682 0.774301 0.507786
O O9 0.564770 0.512069 0.271950
O O10 0.226705 0.113353 0.333334
O O11 0.228553 0.113785 0.999306
O O12 0.868239 0.354457 0.160824
O O13 0.452835 0.726418 0.833334
O O14 0.396094 0.792187 0.000000
#
# Coordination Sequence:
#
# PCOD9584594 Si02
#       7
#    12  12   3  12   6  12  12
#     4  10  22  40  66  85 116 155 204 256 320 374
#     4  10  21  36  63  89 122 160 203 248 307 373
#     4  12  32  40  58  96 126 172 206 250 344 360
#     4  10  21  34  59  92 115 160 203 239 310 366
#     4  10  18  36  54  86 129 151 188 250 298 360
#     4  11  25  43  62  83 129 161 206 262 315 398
#     4  10  23  42  64  88 113 157 207 262 322 375
#
# _framework density 20.074159000000002
#
# number of rings (size 3 to 8) (size 9 to 14) (size 15 to 20)
#    0.000    1.739    1.739    2.087    9.739    2.783 
#    3.130    0.000    0.000    0.000    0.000    0.000 
#    0.000   18.783    0.000    0.000    0.000    0.000 
#
# Total GULP energy -384496.649052 kJ/mol
# GULP energy per Si atom -5572.415204 kJ/mol
# Density = 2.002847 g / cm^3
# Si number density = 20.074159 Si / 1000 Ang^3
#
#
#
# Elastic Constant Matrix: (Units=GPa)
#
#
# Indices 1 2 3 4 5 6 
#
# 1 230.3053 -133.1039 43.0229 0.0000 0.0000 0.0000
# 2 -133.1039 230.3053 43.0229 0.0000 0.0000 0.0000
# 3 43.0229 43.0229 186.9532 0.0000 0.0000 0.0000
# 4 0.0000 0.0000 0.0000 26.5483 0.0000 0.0000
# 5 0.0000 0.0000 0.0000 0.0000 26.5483 0.0000
# 6 0.0000 0.0000 0.0000 0.0000 0.0000 181.7046
#
#
#
# Elastic Compliance Matrix: (Units=1/GPa)
#
#
# Indices 1 2 3 4 5 6 
#
# 1 0.007836 0.005084 -0.002973 0.000000 0.000000 0.000000
# 2 0.005084 0.007836 -0.002973 0.000000 0.000000 0.000000
# 3 -0.002973 -0.002973 0.006717 0.000000 0.000000 0.000000
# 4 0.000000 0.000000 0.000000 0.037667 0.000000 0.000000
# 5 0.000000 0.000000 0.000000 0.000000 0.037667 0.000000
# 6 0.000000 0.000000 0.000000 0.000000 0.000000 0.005503
#
#
# Mechanical properties :
#
#
# Convention : Reuss Voigt Hill
#
# Bulk Modulus (GPa) = 48.39261 61.49419 54.94340
# Shear Modulus (GPa) = 44.70683 93.26834 68.98759
#
# Velocity S-wave (km/s) = 4.72432 6.82369 5.86864
# Velocity P-wave (km/s) = 7.34290 9.63243 8.56452
#
# Compressibility (1/GPa) = 0.02066431
#
# Stress axis : x y z
#
# Youngs Moduli (GPa) = 127.61921 127.61921 148.86792
#
# Poissons Ratio (x) = -0.64883 0.44262
# Poissons Ratio (y) = -0.64883 0.44262
# Poissons Ratio (z) = 0.37944 0.37944
#
# Static dielectric constant tensor:
#      x y z
#    x 1.676850 0.000000 0.000000 
#    y 0.000000 1.676850 0.000000 
#    z 0.000000 0.000000 1.752630 
# 
# From -- ./inp_files/3231.got.cif
#   From: 2010.05.17/outbox.ucp.g08.bks.cvg/sg181_2_cif.got.tgz:3231.got - 2010.06.11 15:20:36.
