data_PCOD9584343
_publ_section_title
;
Structure prediction by ZEFSAII (Michael W. Deem and Ramdas Pophale) SiO2 
 PCOD9584343
Probable space group: P 64 2 2
;
_chemical_formula_sum "Si O2"
_cell_formula_units_Z 84
_cell_length_a 20.511809
_cell_length_b 20.511809
_cell_length_c 12.005132
_cell_angle_alpha 90.000000
_cell_angle_beta 90.000000
_cell_angle_gamma 120.000000
_cell_volume 4374.269122
_symmetry_space_group_name_H-M "P 64 2 2"
_symmetry_group_IT_number 181
_symmetry_cell_setting 'hexagonal'
loop_
_space_group_symop_operation_xyz
x,y,z
x-y,x,2/3+z
-y,x-y,1/3+z
-x,-y,z
-x+y,-x,2/3+z
y,-x+y,1/3+z
x-y,-y,-z
-x,-x+y,2/3-z
y,x,1/3-z
-y,-x,1/3-z
-x+y,y,-z
x,x-y,2/3-z
loop_
_atom_site_type_symbol
_atom_site_label
_atom_site_fract_x
_atom_site_fract_y
_atom_site_fract_z
Si Si1 0.283432 0.576289 0.764832
Si Si2 0.574270 0.384362 0.888173
Si Si3 0.091400 0.441270 0.063434
Si Si4 0.769548 0.096525 0.894152
Si Si5 0.842713 0.582655 0.841196
Si Si6 0.583965 0.662516 0.952617
Si Si7 0.213699 0.281236 0.519727
O O1 0.267314 0.633657 0.833334
O O2 0.250563 0.577240 0.643903
O O3 0.370526 0.603349 0.786485
O O4 0.236476 0.494276 0.821857
O O5 0.608090 0.468898 0.935206
O O6 0.485953 0.352319 0.874583
O O7 0.090130 0.396181 0.174914
O O8 0.003563 0.409651 0.044328
O O9 0.124837 0.414488 0.962876
O O10 0.832323 0.178514 0.851986
O O11 0.773957 0.022895 0.856458
O O12 0.768166 0.091346 0.027348
O O13 0.892617 0.574226 0.745487
O O14 0.657096 0.735548 0.904948
O O15 0.125273 0.250546 0.500000
#
# Coordination Sequence:
#
# PCOD9584343 Si02
#       7
#    12  12  12  12  12  12  12
#     4  11  22  37  54  77 108 153 199 244 300 352
#     4  11  23  39  55  78 114 148 203 252 304 361
#     4  11  21  38  60  83 116 149 191 246 314 363
#     4  10  21  35  63  83 110 161 185 238 303 348
#     4  11  20  37  60  84 117 145 187 249 302 354
#     4  10  23  37  59  86 109 154 195 251 298 355
#     4  10  20  40  58  84 118 149 199 234 288 358
#
# _framework density 19.203209000000001
#
# number of rings (size 3 to 8) (size 9 to 14) (size 15 to 20)
#    0.000    1.429    4.286    1.714    0.000    0.571 
#    2.571    2.143    0.000    3.429    0.000    0.000 
#    0.000    2.286    2.857    0.571    0.000    0.000 
#
# Total GULP energy -468517.251425 kJ/mol
# GULP energy per Si atom -5577.586326 kJ/mol
# Density = 1.915950 g / cm^3
# Si number density = 19.203209 Si / 1000 Ang^3
#
#
#
# Elastic Constant Matrix: (Units=GPa)
#
#
# Indices 1 2 3 4 5 6 
#
# 1 81.4004 57.7953 16.4360 0.0000 0.0000 0.0000
# 2 57.7953 81.4004 16.4360 0.0000 0.0000 0.0000
# 3 16.4360 16.4360 53.2694 0.0000 0.0000 0.0000
# 4 0.0000 0.0000 0.0000 22.1614 0.0000 0.0000
# 5 0.0000 0.0000 0.0000 0.0000 22.1614 0.0000
# 6 0.0000 0.0000 0.0000 0.0000 0.0000 11.8025
#
#
#
# Elastic Compliance Matrix: (Units=1/GPa)
#
#
# Indices 1 2 3 4 5 6 
#
# 1 0.025056 -0.017308 -0.002391 0.000000 0.000000 0.000000
# 2 -0.017308 0.025056 -0.002391 0.000000 0.000000 0.000000
# 3 -0.002391 -0.002391 0.020248 0.000000 0.000000 0.000000
# 4 0.000000 0.000000 0.000000 0.045124 0.000000 0.000000
# 5 0.000000 0.000000 0.000000 0.000000 0.045124 0.000000
# 6 0.000000 0.000000 0.000000 0.000000 0.000000 0.084728
#
#
# Mechanical properties :
#
#
# Convention : Reuss Voigt Hill
#
# Bulk Modulus (GPa) = 38.19414 44.15607 41.17510
# Shear Modulus (GPa) = 16.76496 19.58524 18.17510
#
# Velocity S-wave (km/s) = 2.95791 3.19704 3.07980
# Velocity P-wave (km/s) = 5.62124 6.05575 5.84253
#
# Compressibility (1/GPa) = 0.02618203
#
# Stress axis : x y z
#
# Youngs Moduli (GPa) = 39.91013 39.91013 49.38793
#
# Poissons Ratio (x) = 0.69075 0.11808
# Poissons Ratio (y) = 0.69075 0.11808
# Poissons Ratio (z) = 0.09542 0.09542
#
# Static dielectric constant tensor:
#      x y z
#    x 1.693230 0.000000 0.000000 
#    y 0.000000 1.693230 0.000000 
#    z 0.000000 0.000000 1.686040 
# 
# From -- ./inp_files/5086.got.cif
#   From: 2010.05.17/outbox.cif.g08.bks.cpg/sg181_3_cif.got.tgz:5086.got - 2010.05.20 11:51:17.
