data_PCOD9584862
_publ_section_title
;
Structure prediction by ZEFSAII (Michael W. Deem and Ramdas Pophale) SiO2 
 PCOD9584862
Probable space group: P 63 2 2
;
_chemical_formula_sum "Si O2"
_cell_formula_units_Z 60
_cell_length_a 12.004948
_cell_length_b 12.004948
_cell_length_c 28.270160
_cell_angle_alpha 90.000000
_cell_angle_beta 90.000000
_cell_angle_gamma 120.000000
_cell_volume 3528.413415
_symmetry_space_group_name_H-M "P 63 2 2"
_symmetry_group_IT_number 182
_symmetry_cell_setting 'hexagonal'
loop_
_space_group_symop_operation_xyz
x,y,z
x-y,x,1/2+z
-y,x-y,z
-x,-y,1/2+z
-x+y,-x,z
y,-x+y,1/2+z
x-y,-y,-z
-x,-x+y,-z
y,x,-z
-y,-x,1/2-z
-x+y,y,1/2-z
x,x-y,1/2-z
loop_
_atom_site_type_symbol
_atom_site_label
_atom_site_fract_x
_atom_site_fract_y
_atom_site_fract_z
Si Si1 0.680175 0.586259 0.041461
Si Si2 0.592832 0.426769 0.304827
Si Si3 0.333334 0.666668 0.386014
Si Si4 0.000000 0.000000 0.942909
Si Si5 0.958118 0.508989 0.885667
Si Si6 0.975473 0.240859 0.443546
Si Si7 0.333334 0.666668 0.499863
O O1 0.568871 0.558266 0.078337
O O2 0.821748 0.653051 0.063057
O O3 0.651494 0.450822 0.019184
O O4 0.675177 0.675177 0.000000
O O5 0.528690 0.272470 0.312456
O O6 0.563310 0.436691 0.250000
O O7 0.553529 0.500339 0.341277
O O8 0.402034 0.813689 0.370734
O O9 0.333334 0.666667 0.443469
O O10 0.980089 0.861108 0.929215
O O11 0.000000 0.000000 0.000000
O O12 0.962363 0.628515 0.913816
O O13 0.000000 0.269454 0.500000
#
# Coordination Sequence:
#
# PCOD9584862 Si02
#       7
#    12  12   4   4  12  12   4
#     4  12  22  33  55  76 113 154 199 239 277 328
#     4   8  18  39  66  90 105 127 181 247 285 323
#     4  12  27  36  49  82 132 160 184 219 291 346
#     4   9  21  36  54  72 108 157 200 244 285 315
#     4  12  23  36  55  84 114 152 190 229 282 349
#     4  11  22  37  53  77 111 152 203 241 277 326
#     4  12  21  36  45  82 116 163 195 234 276 325
#
# _framework density 17.004809000000002
#
# number of rings (size 3 to 8) (size 9 to 14) (size 15 to 20)
#    0.400    0.800    4.000    4.800    2.800    0.000 
#    0.000    1.000    0.000    0.000    0.000    0.000 
#    0.000    0.000    0.000    0.000    0.000    0.000 
#
# Total GULP energy -335033.922523 kJ/mol
# GULP energy per Si atom -5583.898709 kJ/mol
# Density = 1.696611 g / cm^3
# Si number density = 17.004809 Si / 1000 Ang^3
#
#
#
# Elastic Constant Matrix: (Units=GPa)
#
#
# Indices 1 2 3 4 5 6 
#
# 1 65.8247 18.6953 27.7471 0.0001 -0.0003 0.0004
# 2 18.6953 65.8263 27.7475 -0.0002 -0.0004 0.0003
# 3 27.7471 27.7475 66.9524 0.0002 -0.0003 0.0002
# 4 0.0001 -0.0002 0.0002 10.5350 0.0000 0.0001
# 5 -0.0003 -0.0004 -0.0003 0.0000 10.5363 -0.0001
# 6 0.0004 0.0003 0.0002 0.0001 -0.0001 23.5648
#
#
#
# Elastic Compliance Matrix: (Units=1/GPa)
#
#
# Indices 1 2 3 4 5 6 
#
# 1 0.018736 -0.002482 -0.006736 0.000000 0.000000 0.000000
# 2 -0.002482 0.018736 -0.006736 0.000000 0.000001 0.000000
# 3 -0.006736 -0.006736 0.020520 0.000000 0.000000 0.000000
# 4 0.000000 0.000000 0.000000 0.094922 0.000000 0.000000
# 5 0.000000 0.000001 0.000000 0.000000 0.094910 0.000000
# 6 0.000000 0.000000 0.000000 0.000000 0.000000 0.042436
#
#
# Mechanical properties :
#
#
# Convention : Reuss Voigt Hill
#
# Bulk Modulus (GPa) = 38.33937 38.55368 38.44653
# Shear Modulus (GPa) = 15.11200 17.22145 16.16672
#
# Velocity S-wave (km/s) = 2.98432 3.18581 3.08671
# Velocity P-wave (km/s) = 5.87112 6.02113 5.94660
#
# Compressibility (1/GPa) = 0.02608285
#
# Stress axis : x y z
#
# Youngs Moduli (GPa) = 53.37230 53.37361 48.73405
#
# Poissons Ratio (x) = 0.13246 0.32829
# Poissons Ratio (y) = 0.13245 0.32829
# Poissons Ratio (z) = 0.35954 0.35954
#
# Static dielectric constant tensor:
#      x y z
#    x 1.592550 0.000000 0.000000 
#    y 0.000000 1.592550 0.000000 
#    z 0.000000 0.000000 1.559190 
# 
# From -- ./inp_files/5505.got.cif
#   From: 2010.05.17/outbox.cif.g08.bks.cpg/sg182_3_cif.got.tgz:5505.got - 2010.05.20 11:58:53.
