data_PCOD9584860
_publ_section_title
;
Structure prediction by ZEFSAII (Michael W. Deem and Ramdas Pophale) SiO2 
 PCOD9584860
Probable space group: P 63 2 2
;
_chemical_formula_sum "Si O2"
_cell_formula_units_Z 40
_cell_length_a 11.369673
_cell_length_b 11.369673
_cell_length_c 15.162516
_cell_angle_alpha 90.000000
_cell_angle_beta 90.000000
_cell_angle_gamma 120.000000
_cell_volume 1697.453368
_symmetry_space_group_name_H-M "P 63 2 2"
_symmetry_group_IT_number 182
_symmetry_cell_setting 'hexagonal'
loop_
_space_group_symop_operation_xyz
x,y,z
x-y,x,1/2+z
-y,x-y,z
-x,-y,1/2+z
-x+y,-x,z
y,-x+y,1/2+z
x-y,-y,-z
-x,-x+y,-z
y,x,-z
-y,-x,1/2-z
-x+y,y,1/2-z
x,x-y,1/2-z
loop_
_atom_site_type_symbol
_atom_site_label
_atom_site_fract_x
_atom_site_fract_y
_atom_site_fract_z
Si Si1 0.000000 0.000000 0.642703
Si Si2 0.862555 0.706471 0.855231
Si Si3 0.453464 0.407501 0.093210
Si Si4 0.737403 0.129616 0.345686
O O1 0.000000 0.000000 0.750000
O O2 0.877077 0.856188 0.614949
O O3 0.851102 0.702203 0.750000
O O4 0.726977 0.710127 0.878637
O O5 0.914420 0.603075 0.877985
O O6 0.423002 0.252765 0.088824
O O7 0.584278 0.482433 0.155230
O O8 0.481820 0.481820 0.000000
O O9 0.816549 0.183452 0.250000
#
# Coordination Sequence:
#
# PCOD9584860 Si02
#       4
#     4  12  12  12
#     4   9  15  36  67 104 130 165 250 323 349 429
#     4  11  21  43  76 108 141 192 266 324 375 464
#     4  12  29  46  74 116 158 206 259 335 399 469
#     4  12  25  51  79 104 152 215 270 317 401 493
#
# _framework density 23.564712
#
# number of rings (size 3 to 8) (size 9 to 14) (size 15 to 20)
#    0.000    0.600    6.000    2.400    4.200    0.000 
#    1.800    0.000    0.000    0.000    0.000    0.000 
#    0.000    0.000    0.000    0.000    0.000    0.000 
#
# Total GULP energy -223027.956006 kJ/mol
# GULP energy per Si atom -5575.698900 kJ/mol
# Density = 2.351108 g / cm^3
# Si number density = 23.564712 Si / 1000 Ang^3
#
#
#
# Elastic Constant Matrix: (Units=GPa)
#
#
# Indices 1 2 3 4 5 6 
#
# 1 140.9001 52.5039 21.9514 0.0000 0.0000 0.0000
# 2 52.5039 140.9001 21.9514 0.0000 0.0000 0.0000
# 3 21.9514 21.9514 76.3594 0.0000 0.0000 0.0000
# 4 0.0000 0.0000 0.0000 25.1054 0.0000 0.0000
# 5 0.0000 0.0000 0.0000 0.0000 25.1054 0.0000
# 6 0.0000 0.0000 0.0000 0.0000 0.0000 44.1981
#
#
#
# Elastic Compliance Matrix: (Units=1/GPa)
#
#
# Indices 1 2 3 4 5 6 
#
# 1 0.008422 -0.002891 -0.001590 0.000000 0.000000 0.000000
# 2 -0.002891 0.008422 -0.001590 0.000000 0.000000 0.000000
# 3 -0.001590 -0.001590 0.014010 0.000000 0.000000 0.000000
# 4 0.000000 0.000000 0.000000 0.039832 0.000000 0.000000
# 5 0.000000 0.000000 0.000000 0.000000 0.039832 0.000000
# 6 0.000000 0.000000 0.000000 0.000000 0.000000 0.022625
#
#
# Mechanical properties :
#
#
# Convention : Reuss Voigt Hill
#
# Bulk Modulus (GPa) = 53.44003 61.21922 57.32963
# Shear Modulus (GPa) = 32.99821 36.33198 34.66510
#
# Velocity S-wave (km/s) = 3.74615 3.93083 3.83960
# Velocity P-wave (km/s) = 6.43729 6.82917 6.63612
#
# Compressibility (1/GPa) = 0.01871256
#
# Stress axis : x y z
#
# Youngs Moduli (GPa) = 118.73529 118.73529 71.37642
#
# Poissons Ratio (x) = 0.34322 0.11350
# Poissons Ratio (y) = 0.34322 0.11350
# Poissons Ratio (z) = 0.18881 0.18881
#
# Static dielectric constant tensor:
#      x y z
#    x 1.974990 0.000000 0.000000 
#    y 0.000000 1.974990 0.000000 
#    z 0.000000 0.000000 1.937240 
# 
# From -- ./inp_files/4003.got.cif
#   From: 2010.05.17/outbox.cif.g08.bks.cpg/sg182_3_cif.got.tgz:4003.got - 2010.05.20 11:58:53.
