data_PCOD9584743
_publ_section_title
;
Structure prediction by ZEFSAII (Michael W. Deem and Ramdas Pophale) SiO2 
 PCOD9584743
Probable space group: P 63 2 2
;
_chemical_formula_sum "Si O2"
_cell_formula_units_Z 52
_cell_length_a 15.440208
_cell_length_b 15.440208
_cell_length_c 15.435676
_cell_angle_alpha 90.000000
_cell_angle_beta 90.000000
_cell_angle_gamma 120.000000
_cell_volume 3186.857018
_symmetry_space_group_name_H-M "P 63 2 2"
_symmetry_group_IT_number 182
_symmetry_cell_setting 'hexagonal'
loop_
_space_group_symop_operation_xyz
x,y,z
x-y,x,1/2+z
-y,x-y,z
-x,-y,1/2+z
-x+y,-x,z
y,-x+y,1/2+z
x-y,-y,-z
-x,-x+y,-z
y,x,-z
-y,-x,1/2-z
-x+y,y,1/2-z
x,x-y,1/2-z
loop_
_atom_site_type_symbol
_atom_site_label
_atom_site_fract_x
_atom_site_fract_y
_atom_site_fract_z
Si Si1 0.198744 0.998348 0.750000
Si Si2 0.551044 0.102086 0.355294
Si Si3 0.068148 0.725829 0.916680
Si Si4 0.333334 0.666668 0.645826
Si Si5 0.274171 0.931852 0.916680
O O1 0.220003 0.110002 0.750000
O O2 0.243110 0.973955 0.665579
O O3 0.243110 0.973955 0.834421
O O4 0.080438 0.919563 0.750000
O O5 0.546413 0.092825 0.250000
O O6 0.440941 0.061820 0.393273
O O7 0.609473 0.218942 0.380063
O O8 0.620878 0.061818 0.393273
O O9 0.182906 0.817095 0.928903
O O10 0.000000 0.710070 0.000000
O O11 0.333334 0.666667 0.750000
O O12 0.289929 0.000000 0.000000
#
# Coordination Sequence:
#
# PCOD9584743 Si02
#       5
#    12  12  12   4  12
#     4  10  21  37  56  78 108 144 182 223 269 318
#     4  11  19  35  57  84 109 143 178 222 275 316
#     4  11  22  36  56  82 112 144 181 225 270 321
#     4   9  18  27  57  81 114 133 170 232 276 306
#     4  11  22  36  56  82 112 144 181 225 270 321
#
# _framework density 16.317018000000001
#
# number of rings (size 3 to 8) (size 9 to 14) (size 15 to 20)
#    0.000    1.385    4.615    2.308    0.000    0.000 
#    0.000    0.000    0.000    7.385    0.000    0.000 
#    0.000    0.000    0.000    0.000    0.000    0.000 
#
# Total GULP energy -290056.097381 kJ/mol
# GULP energy per Si atom -5578.001873 kJ/mol
# Density = 1.627988 g / cm^3
# Si number density = 16.317018 Si / 1000 Ang^3
#
#
#
# Elastic Constant Matrix: (Units=GPa)
#
#
# Indices 1 2 3 4 5 6 
#
# 1 94.4054 41.8859 43.3221 0.0000 0.0000 0.0000
# 2 41.8859 94.4058 43.3220 0.0000 0.0000 0.0000
# 3 43.3221 43.3220 121.7641 0.0000 0.0000 0.0000
# 4 0.0000 0.0000 0.0000 18.7115 0.0000 0.0000
# 5 0.0000 0.0000 0.0000 0.0000 18.7114 0.0000
# 6 0.0000 0.0000 0.0000 0.0000 0.0000 26.2597
#
#
#
# Elastic Compliance Matrix: (Units=1/GPa)
#
#
# Indices 1 2 3 4 5 6 
#
# 1 0.014261 -0.004779 -0.003374 0.000000 0.000000 0.000000
# 2 -0.004779 0.014261 -0.003374 0.000000 0.000000 0.000000
# 3 -0.003374 -0.003374 0.010613 0.000000 0.000000 0.000000
# 4 0.000000 0.000000 0.000000 0.053443 0.000000 0.000000
# 5 0.000000 0.000000 0.000000 0.000000 0.053443 0.000000
# 6 0.000000 0.000000 0.000000 0.000000 0.000000 0.038081
#
#
# Mechanical properties :
#
#
# Convention : Reuss Voigt Hill
#
# Bulk Modulus (GPa) = 62.17846 63.07059 62.62452
# Shear Modulus (GPa) = 23.52759 24.87289 24.20024
#
# Velocity S-wave (km/s) = 3.80136 3.90853 3.85532
# Velocity P-wave (km/s) = 7.58000 7.68804 7.63421
#
# Compressibility (1/GPa) = 0.01608274
#
# Stress axis : x y z
#
# Youngs Moduli (GPa) = 70.12033 70.12074 94.22311
#
# Poissons Ratio (x) = 0.33513 0.31786
# Poissons Ratio (y) = 0.33513 0.31786
# Poissons Ratio (z) = 0.23655 0.23655
#
# Static dielectric constant tensor:
#      x y z
#    x 1.537980 0.000000 0.000000 
#    y 0.000000 1.537980 0.000000 
#    z 0.000000 0.000000 1.520800 
# 
# From -- ./inp_files/3311.got.cif
#   From: 2010.05.17/outbox.cif.g08.bks.cpg/sg182_2_cif.got.tgz:3311.got - 2010.05.20 11:58:53.
