data_PCOD9584462
_publ_section_title
;
Structure prediction by ZEFSAII (Michael W. Deem and Ramdas Pophale) SiO2 
 PCOD9584462
Probable space group: P 64 2 2
;
_chemical_formula_sum "Si O2"
_cell_formula_units_Z 78
_cell_length_a 17.442363
_cell_length_b 17.442363
_cell_length_c 16.243477
_cell_angle_alpha 90.000000
_cell_angle_beta 90.000000
_cell_angle_gamma 120.000000
_cell_volume 4279.768428
_symmetry_space_group_name_H-M "P 64 2 2"
_symmetry_group_IT_number 181
_symmetry_cell_setting 'hexagonal'
loop_
_space_group_symop_operation_xyz
x,y,z
x-y,x,2/3+z
-y,x-y,1/3+z
-x,-y,z
-x+y,-x,2/3+z
y,-x+y,1/3+z
x-y,-y,-z
-x,-x+y,2/3-z
y,x,1/3-z
-y,-x,1/3-z
-x+y,y,-z
x,x-y,2/3-z
loop_
_atom_site_type_symbol
_atom_site_label
_atom_site_fract_x
_atom_site_fract_y
_atom_site_fract_z
Si Si1 0.868430 0.676501 0.794738
Si Si2 0.691163 0.648889 0.873876
Si Si3 0.040846 0.789915 0.702592
Si Si4 0.493509 0.260706 0.628001
Si Si5 0.557063 0.697716 0.801137
Si Si6 0.689939 0.310062 0.666667
Si Si7 0.171907 0.626448 0.532527
O O1 0.777920 0.674427 0.818859
O O2 0.910121 0.683539 0.886066
O O3 0.831671 0.586245 0.741131
O O4 0.943959 0.759180 0.742388
O O5 0.628353 0.669721 0.819467
O O6 0.635300 0.545152 0.897896
O O7 0.726347 0.702527 0.958592
O O8 0.110679 0.889322 0.666667
O O9 0.465474 0.295904 0.707033
O O10 0.585744 0.264961 0.647543
O O11 0.519838 0.332833 0.557505
O O12 0.591918 0.795959 0.833334
O O13 0.469319 0.630761 0.852937
O O14 0.743980 0.309405 0.587887
#
# Coordination Sequence:
#
# PCOD9584462 Si02
#       7
#    12  12  12  12  12   6  12
#     4   9  20  36  60  89 118 154 206 252 319 381
#     4  10  23  36  61  90 119 166 206 265 315 376
#     4   9  18  38  61  88 119 156 201 256 318 386
#     4  11  21  37  58  86 116 164 207 255 306 375
#     4  12  21  39  57  86 125 162 206 260 318 379
#     4  12  22  38  60  83 126 166 220 249 312 374
#     4  11  23  37  57  86 120 168 213 260 309 375
#
# _framework density 18.225285
#
# number of rings (size 3 to 8) (size 9 to 14) (size 15 to 20)
#    0.000    1.538    3.077    1.846    5.385    2.462 
#    0.000    3.077    0.000    0.000    0.000   29.077 
#    0.000    0.000    0.000    0.000    0.000    0.000 
#
# Total GULP energy -434250.250944 kJ/mol
# GULP energy per Si atom -5567.310910 kJ/mol
# Density = 1.818380 g / cm^3
# Si number density = 18.225285 Si / 1000 Ang^3
#
#
#
# Elastic Constant Matrix: (Units=GPa)
#
#
# Indices 1 2 3 4 5 6 
#
# 1 72.2870 34.9162 34.8152 0.0000 0.0000 0.0000
# 2 34.9162 72.2870 34.8152 0.0000 0.0000 0.0000
# 3 34.8152 34.8152 107.9019 0.0000 0.0000 0.0000
# 4 0.0000 0.0000 0.0000 31.5034 0.0000 0.0000
# 5 0.0000 0.0000 0.0000 0.0000 31.5034 0.0000
# 6 0.0000 0.0000 0.0000 0.0000 0.0000 18.6854
#
#
#
# Elastic Compliance Matrix: (Units=1/GPa)
#
#
# Indices 1 2 3 4 5 6 
#
# 1 0.019280 -0.007479 -0.003808 0.000000 0.000000 0.000000
# 2 -0.007479 0.019280 -0.003808 0.000000 0.000000 0.000000
# 3 -0.003808 -0.003808 0.011725 0.000000 0.000000 0.000000
# 4 0.000000 0.000000 0.000000 0.031743 0.000000 0.000000
# 5 0.000000 0.000000 0.000000 0.000000 0.031743 0.000000
# 6 0.000000 0.000000 0.000000 0.000000 0.000000 0.053518
#
#
# Mechanical properties :
#
#
# Convention : Reuss Voigt Hill
#
# Bulk Modulus (GPa) = 49.76012 51.28546 50.52279
# Shear Modulus (GPa) = 24.48878 26.20042 25.34460
#
# Velocity S-wave (km/s) = 3.66959 3.79566 3.73316
# Velocity P-wave (km/s) = 6.73176 6.88551 6.80907
#
# Compressibility (1/GPa) = 0.02009642
#
# Stress axis : x y z
#
# Youngs Moduli (GPa) = 51.86707 51.86707 85.28878
#
# Poissons Ratio (x) = 0.38790 0.32476
# Poissons Ratio (y) = 0.38790 0.32476
# Poissons Ratio (z) = 0.19750 0.19750
#
# Static dielectric constant tensor:
#      x y z
#    x 1.651340 0.000000 0.000000 
#    y 0.000000 1.651340 0.000000 
#    z 0.000000 0.000000 1.676210 
# 
# From -- ./inp_files/6455.got.cif
#   From: 2010.05.17/outbox.cif.g08.bks.cpg/sg181_4_cif.got.tgz:6455.got - 2010.05.20 11:51:17.
