data_PCOD9584059
_publ_section_title
;
Structure prediction by ZEFSAII (Michael W. Deem and Ramdas Pophale) SiO2 
 PCOD9584059
Probable space group: P 62 2 2
;
_chemical_formula_sum "Si O2"
_cell_formula_units_Z 48
_cell_length_a 11.515621
_cell_length_b 11.515621
_cell_length_c 20.517541
_cell_angle_alpha 90.000000
_cell_angle_beta 90.000000
_cell_angle_gamma 120.000000
_cell_volume 2356.300458
_symmetry_space_group_name_H-M "P 62 2 2"
_symmetry_group_IT_number 180
_symmetry_cell_setting 'hexagonal'
loop_
_space_group_symop_operation_xyz
x,y,z
x-y,x,1/3+z
-y,x-y,2/3+z
-x,-y,z
-x+y,-x,1/3+z
y,-x+y,2/3+z
x-y,-y,-z
-x,-x+y,1/3-z
y,x,2/3-z
-y,-x,2/3-z
-x+y,y,-z
x,x-y,1/3-z
loop_
_atom_site_type_symbol
_atom_site_label
_atom_site_fract_x
_atom_site_fract_y
_atom_site_fract_z
Si Si1 0.150868 0.026121 0.731616
Si Si2 0.160735 0.738595 0.575183
Si Si3 0.000000 0.760451 0.166667
Si Si4 0.247513 0.849693 0.938927
Si Si5 0.700874 0.401747 0.500000
O O1 0.217115 0.108558 0.666667
O O2 0.219854 0.110045 0.794791
O O3 0.145302 0.887797 0.726082
O O4 0.000000 0.000000 0.734582
O O5 0.238217 0.898022 0.555405
O O6 0.174570 0.724210 0.653292
O O7 0.230544 0.680987 0.527064
O O8 0.996438 0.646946 0.573483
O O9 0.228796 0.728703 0.894112
#
# Coordination Sequence:
#
# PCOD9584059 Si02
#       5
#    12  12   6  12   6
#     4  11  19  35  63 106 132 156 204 284 357 396
#     4  11  24  43  69 100 132 180 226 286 342 400
#     4  12  21  37  70 102 140 167 216 285 352 400
#     4  11  22  44  71 101 133 172 230 288 343 405
#     4  12  26  41  65  90 136 188 234 260 320 416
#
# _framework density 20.370915
#
# number of rings (size 3 to 8) (size 9 to 14) (size 15 to 20)
#    0.000    0.750    5.000    4.875    0.000    2.500 
#    0.000    2.500   16.500    0.000    0.000    0.000 
#    0.000    0.000    0.000    0.000    0.000    0.000 
#
# Total GULP energy -267247.458859 kJ/mol
# GULP energy per Si atom -5567.655393 kJ/mol
# Density = 2.032455 g / cm^3
# Si number density = 20.370915 Si / 1000 Ang^3
#
#
#
# Elastic Constant Matrix: (Units=GPa)
#
#
# Indices 1 2 3 4 5 6 
#
# 1 95.8752 44.7462 49.6809 0.0000 0.0000 0.0000
# 2 44.7462 95.8752 49.6809 0.0000 0.0000 0.0000
# 3 49.6809 49.6809 131.7112 0.0000 0.0000 0.0000
# 4 0.0000 0.0000 0.0000 38.1295 0.0000 0.0000
# 5 0.0000 0.0000 0.0000 0.0000 38.1295 0.0000
# 6 0.0000 0.0000 0.0000 0.0000 0.0000 25.5645
#
#
#
# Elastic Compliance Matrix: (Units=1/GPa)
#
#
# Indices 1 2 3 4 5 6 
#
# 1 0.014627 -0.004932 -0.003657 0.000000 0.000000 0.000000
# 2 -0.004932 0.014627 -0.003657 0.000000 0.000000 0.000000
# 3 -0.003657 -0.003657 0.010351 0.000000 0.000000 0.000000
# 4 0.000000 0.000000 0.000000 0.026226 0.000000 0.000000
# 5 0.000000 0.000000 0.000000 0.000000 0.026226 0.000000
# 6 0.000000 0.000000 0.000000 0.000000 0.000000 0.039117
#
#
# Mechanical properties :
#
#
# Convention : Reuss Voigt Hill
#
# Bulk Modulus (GPa) = 66.16509 67.96418 67.06463
# Shear Modulus (GPa) = 31.11319 32.32160 31.71739
#
# Velocity S-wave (km/s) = 3.91235 3.98760 3.95016
# Velocity P-wave (km/s) = 7.27732 7.39169 7.33473
#
# Compressibility (1/GPa) = 0.01511371
#
# Stress axis : x y z
#
# Youngs Moduli (GPa) = 68.36746 68.36746 96.60718
#
# Poissons Ratio (x) = 0.33716 0.35330
# Poissons Ratio (y) = 0.33716 0.35330
# Poissons Ratio (z) = 0.25002 0.25002
#
# Static dielectric constant tensor:
#      x y z
#    x 1.748080 0.000000 0.000000 
#    y 0.000000 1.748080 0.000000 
#    z 0.000000 0.000000 1.825460 
# 
# From -- ./inp_files/8715.got.cif
#   From: 2010.05.17/outbox.cif.g08.bks.cpg/sg180_5_cif.got.tgz:8715.got - 2010.05.20 11:43:55.
