data_PCOD9584553
_publ_section_title
;
Structure prediction by ZEFSAII (Michael W. Deem and Ramdas Pophale) SiO2 
 PCOD9584553
Probable space group: P 64 2 2
;
_chemical_formula_sum "Si O2"
_cell_formula_units_Z 45
_cell_length_a 16.916295
_cell_length_b 16.916295
_cell_length_c 10.859729
_cell_angle_alpha 90.000000
_cell_angle_beta 90.000000
_cell_angle_gamma 120.000000
_cell_volume 2691.287657
_symmetry_space_group_name_H-M "P 64 2 2"
_symmetry_group_IT_number 181
_symmetry_cell_setting 'hexagonal'
loop_
_space_group_symop_operation_xyz
x,y,z
x-y,x,2/3+z
-y,x-y,1/3+z
-x,-y,z
-x+y,-x,2/3+z
y,-x+y,1/3+z
x-y,-y,-z
-x,-x+y,2/3-z
y,x,1/3-z
-y,-x,1/3-z
-x+y,y,-z
x,x-y,2/3-z
loop_
_atom_site_type_symbol
_atom_site_label
_atom_site_fract_x
_atom_site_fract_y
_atom_site_fract_z
Si Si1 0.409359 0.010008 0.642736
Si Si2 0.301306 0.602611 0.000000
Si Si3 0.500000 0.000000 0.000000
Si Si4 0.490637 0.271743 0.974546
Si Si5 0.133808 0.459386 0.168367
O O1 0.442305 0.110869 0.688790
O O2 0.500000 0.000000 0.648763
O O3 0.382131 0.000000 0.500000
O O4 0.330485 0.934397 0.728456
O O5 0.407540 0.670947 0.033174
O O6 0.316398 0.536389 0.908013
O O7 0.513869 0.931261 0.088027
O O8 0.502250 0.251125 0.833334
O O9 0.433291 0.182093 0.057831
#
# Coordination Sequence:
#
# PCOD9584553 Si02
#       5
#    12   6   3  12  12
#     4  11  23  39  52  75 109 148 189 252 306 343
#     4  12  21  32  50  79 102 140 198 253 290 343
#     4  12  22  40  54  76 108 148 192 244 312 358
#     4  12  24  36  54  82 109 145 205 254 291 358
#     4  12  22  36  56  72 105 150 188 246 311 346
#
# _framework density 16.720621000000001
#
# number of rings (size 3 to 8) (size 9 to 14) (size 15 to 20)
#    0.000    0.267    4.000    8.000    3.733    0.000 
#    0.000    0.000    0.000    0.000    0.000    0.000 
#    0.000    0.000    0.000    0.000    0.000  440.000 
#
# Total GULP energy -250821.231206 kJ/mol
# GULP energy per Si atom -5573.805138 kJ/mol
# Density = 1.668256 g / cm^3
# Si number density = 16.720621 Si / 1000 Ang^3
#
#
#
# Elastic Constant Matrix: (Units=GPa)
#
#
# Indices 1 2 3 4 5 6 
#
# 1 83.6336 48.1970 54.9321 0.0000 0.0000 0.0000
# 2 48.1970 83.6336 54.9321 0.0000 0.0000 0.0000
# 3 54.9321 54.9321 118.9095 0.0000 0.0000 0.0000
# 4 0.0000 0.0000 0.0000 17.0981 0.0000 0.0000
# 5 0.0000 0.0000 0.0000 0.0000 17.0981 0.0000
# 6 0.0000 0.0000 0.0000 0.0000 0.0000 17.7183
#
#
#
# Elastic Compliance Matrix: (Units=1/GPa)
#
#
# Indices 1 2 3 4 5 6 
#
# 1 0.020277 -0.007943 -0.005698 0.000000 0.000000 0.000000
# 2 -0.007943 0.020277 -0.005698 0.000000 0.000000 0.000000
# 3 -0.005698 -0.005698 0.013674 0.000000 0.000000 0.000000
# 4 0.000000 0.000000 0.000000 0.058486 0.000000 0.000000
# 5 0.000000 0.000000 0.000000 0.000000 0.058486 0.000000
# 6 0.000000 0.000000 0.000000 0.000000 0.000000 0.056439
#
#
# Mechanical properties :
#
#
# Convention : Reuss Voigt Hill
#
# Bulk Modulus (GPa) = 64.30604 66.92210 65.61407
# Shear Modulus (GPa) = 18.41630 18.92395 18.67012
#
# Velocity S-wave (km/s) = 3.32235 3.36783 3.34517
# Velocity P-wave (km/s) = 7.29794 7.43193 7.36524
#
# Compressibility (1/GPa) = 0.01555064
#
# Stress axis : x y z
#
# Youngs Moduli (GPa) = 49.31781 49.31781 73.13057
#
# Poissons Ratio (x) = 0.39172 0.41669
# Poissons Ratio (y) = 0.39172 0.41669
# Poissons Ratio (z) = 0.28101 0.28101
#
# Static dielectric constant tensor:
#      x y z
#    x 1.559080 0.000000 0.000000 
#    y 0.000000 1.559080 0.000000 
#    z 0.000000 0.000000 1.789440 
# 
# From -- ./inp_files/4433.got.cif
#   From: 2010.05.17/outbox.cif.g08.bks.cpg/sg181_3_cif.got.tgz:4433.got - 2010.05.20 11:51:17.
