data_PCOD9584576
_publ_section_title
;
Structure prediction by ZEFSAII (Michael W. Deem and Ramdas Pophale) SiO2 
 PCOD9584576
Probable space group: P 64 2 2
;
_chemical_formula_sum "Si O2"
_cell_formula_units_Z 27
_cell_length_a 15.937403
_cell_length_b 15.937403
_cell_length_c 5.437369
_cell_angle_alpha 90.000000
_cell_angle_beta 90.000000
_cell_angle_gamma 120.000000
_cell_volume 1196.064355
_symmetry_space_group_name_H-M "P 64 2 2"
_symmetry_group_IT_number 181
_symmetry_cell_setting 'hexagonal'
loop_
_space_group_symop_operation_xyz
x,y,z
x-y,x,2/3+z
-y,x-y,1/3+z
-x,-y,z
-x+y,-x,2/3+z
y,-x+y,1/3+z
x-y,-y,-z
-x,-x+y,2/3-z
y,x,1/3-z
-y,-x,1/3-z
-x+y,y,-z
x,x-y,2/3-z
loop_
_atom_site_type_symbol
_atom_site_label
_atom_site_fract_x
_atom_site_fract_y
_atom_site_fract_z
Si Si1 0.485992 0.662478 0.473798
Si Si2 0.300960 0.106740 0.073854
Si Si3 0.500000 0.500000 0.166667
O O1 0.410090 0.589911 0.666667
O O2 0.443450 0.721725 0.333334
O O3 0.583137 0.749851 0.587723
O O4 0.518396 0.595681 0.317909
O O5 0.270109 0.135055 0.333334
O O6 0.258086 0.129043 0.833334
O O7 0.276188 0.000000 0.000000
#
# Coordination Sequence:
#
# PCOD9584576 Si02
#       3
#    12  12   3
#     4  11  28  46  72 103 149 200 258 315 388 450
#     4  11  25  45  74 105 144 186 243 305 375 459
#     4  12  26  48  72 102 156 196 256 336 370 466
#
# _framework density 22.574036
#
# number of rings (size 3 to 8) (size 9 to 14) (size 15 to 20)
#    0.000    0.889    0.000    4.667   24.889    1.778 
#    0.000    0.000    0.000    6.667    0.000    0.000 
#    0.000    0.000    0.000    0.000    0.000    0.000 
#
# Total GULP energy -150518.444499 kJ/mol
# GULP energy per Si atom -5574.757204 kJ/mol
# Density = 2.252266 g / cm^3
# Si number density = 22.574036 Si / 1000 Ang^3
#
#
#
# Elastic Constant Matrix: (Units=GPa)
#
#
# Indices 1 2 3 4 5 6 
#
# 1 86.2111 -2.8449 55.3633 0.0000 0.0000 0.0000
# 2 -2.8449 86.2111 55.3633 0.0000 0.0000 0.0000
# 3 55.3633 55.3633 176.8469 0.0000 0.0000 0.0000
# 4 0.0000 0.0000 0.0000 -2.1339 0.0000 0.0000
# 5 0.0000 0.0000 0.0000 0.0000 -2.1339 0.0000
# 6 0.0000 0.0000 0.0000 0.0000 0.0000 44.5280
#
#
#
# Elastic Compliance Matrix: (Units=1/GPa)
#
#
# Indices 1 2 3 4 5 6 
#
# 1 0.015881 0.004652 -0.006428 0.000000 0.000000 0.000000
# 2 0.004652 0.015881 -0.006428 0.000000 0.000000 0.000000
# 3 -0.006428 -0.006428 0.009679 0.000000 0.000000 0.000000
# 4 0.000000 0.000000 0.000000 -0.468615 0.000000 0.000000
# 5 0.000000 0.000000 0.000000 0.000000 -0.468615 0.000000
# 6 0.000000 0.000000 0.000000 0.000000 0.000000 0.022458
#
#
# Mechanical properties :
#
#
# Convention : Reuss Voigt Hill
#
# Bulk Modulus (GPa) = 39.94710 62.78138 51.36424
# Shear Modulus (GPa) = -5.89221 24.14451 9.12615
#
# Velocity S-wave (km/s) = -1.61735 3.27398 2.01284
# Velocity P-wave (km/s) = 3.77448 6.49335 5.31085
#
# Compressibility (1/GPa) = 0.02503310
#
# Stress axis : x y z
#
# Youngs Moduli (GPa) = 62.96881 62.96881 103.31369
#
# Poissons Ratio (x) = -0.29293 0.66410
# Poissons Ratio (y) = -0.29293 0.66410
# Poissons Ratio (z) = 0.40476 0.40476
#
# Static dielectric constant tensor:
#      x y z
#    x 3.081540 0.000000 0.000000 
#    y 0.000000 3.081540 0.000000 
#    z 0.000000 0.000000 2.078110 
# 
# From -- ./inp_files/308.got.cif
#   From: 2010.05.17/outbox.cif.g08.bks.cpg/sg181_1_cif.got.tgz:308.got - 2010.05.20 11:51:17.
