data_PCOD9584307
_publ_section_title
;
Structure prediction by ZEFSAII (Michael W. Deem and Ramdas Pophale) SiO2 
 PCOD9584307
Probable space group: P 64 2 2
;
_chemical_formula_sum "Si O2"
_cell_formula_units_Z 42
_cell_length_a 21.861942
_cell_length_b 21.861942
_cell_length_c 5.260914
_cell_angle_alpha 90.000000
_cell_angle_beta 90.000000
_cell_angle_gamma 120.000000
_cell_volume 2177.555886
_symmetry_space_group_name_H-M "P 64 2 2"
_symmetry_group_IT_number 181
_symmetry_cell_setting 'hexagonal'
loop_
_space_group_symop_operation_xyz
x,y,z
x-y,x,2/3+z
-y,x-y,1/3+z
-x,-y,z
-x+y,-x,2/3+z
y,-x+y,1/3+z
x-y,-y,-z
-x,-x+y,2/3-z
y,x,1/3-z
-y,-x,1/3-z
-x+y,y,-z
x,x-y,2/3-z
loop_
_atom_site_type_symbol
_atom_site_label
_atom_site_fract_x
_atom_site_fract_y
_atom_site_fract_z
Si Si1 0.246958 0.246958 0.166667
Si Si2 0.668932 0.668932 0.666667
Si Si3 0.853113 0.146888 0.666667
Si Si4 0.353855 0.783393 0.737474
Si Si5 0.266688 0.843754 0.973894
O O1 0.289436 0.289215 0.414987
O O2 0.247250 0.174294 0.192835
O O3 0.597558 0.673160 0.707409
O O4 0.795554 0.144878 0.863010
O O5 0.296642 0.703359 0.666667
O O6 0.406661 0.813322 0.500000
O O7 0.307367 0.820652 0.778830
O O8 0.393572 0.787144 0.000000
O O9 0.222755 0.777246 0.166667
#
# Coordination Sequence:
#
# PCOD9584307 Si02
#       5
#     6   6   6  12  12
#     4  10  20  34  58  92 133 159 210 246 312 358
#     4  10  22  36  59  92 122 157 198 254 304 376
#     4  10  20  36  60  92 130 167 204 256 310 363
#     4  12  25  40  61  86 113 151 201 255 307 365
#     4  11  21  39  62  88 123 160 204 249 317 364
#
# _framework density 19.287680000000002
#
# number of rings (size 3 to 8) (size 9 to 14) (size 15 to 20)
#    0.000    1.143    4.286    3.429    0.000    0.000 
#    0.000    0.714    0.000    5.143    0.000    0.000 
#    0.000  100.571    0.000    0.000    0.000    0.000 
#
# Total GULP energy -233823.659402 kJ/mol
# GULP energy per Si atom -5567.229986 kJ/mol
# Density = 1.924378 g / cm^3
# Si number density = 19.287680 Si / 1000 Ang^3
#
#
#
# Elastic Constant Matrix: (Units=GPa)
#
#
# Indices 1 2 3 4 5 6 
#
# 1 94.8376 61.7855 34.7328 0.0000 0.0000 0.0000
# 2 61.7855 94.8376 34.7328 0.0000 0.0000 0.0000
# 3 34.7328 34.7328 116.7858 0.0000 0.0000 0.0000
# 4 0.0000 0.0000 0.0000 29.3976 0.0000 0.0000
# 5 0.0000 0.0000 0.0000 0.0000 29.3976 0.0000
# 6 0.0000 0.0000 0.0000 0.0000 0.0000 16.5261
#
#
#
# Elastic Compliance Matrix: (Units=1/GPa)
#
#
# Indices 1 2 3 4 5 6 
#
# 1 0.018805 -0.011450 -0.002187 0.000000 0.000000 0.000000
# 2 -0.011450 0.018805 -0.002187 0.000000 0.000000 0.000000
# 3 -0.002187 -0.002187 0.009864 0.000000 0.000000 0.000000
# 4 0.000000 0.000000 0.000000 0.034016 0.000000 0.000000
# 5 0.000000 0.000000 0.000000 0.000000 0.034016 0.000000
# 6 0.000000 0.000000 0.000000 0.000000 0.000000 0.060510
#
#
# Mechanical properties :
#
#
# Convention : Reuss Voigt Hill
#
# Bulk Modulus (GPa) = 63.19506 63.21810 63.20658
# Shear Modulus (GPa) = 23.48061 26.74492 25.11276
#
# Velocity S-wave (km/s) = 3.49290 3.72779 3.61225
# Velocity P-wave (km/s) = 7.00733 7.16772 7.08798
#
# Compressibility (1/GPa) = 0.01582402
#
# Stress axis : x y z
#
# Youngs Moduli (GPa) = 53.17716 53.17716 101.38114
#
# Poissons Ratio (x) = 0.60889 0.22176
# Poissons Ratio (y) = 0.60889 0.22176
# Poissons Ratio (z) = 0.11632 0.11632
#
# Static dielectric constant tensor:
#      x y z
#    x 1.721750 0.000000 0.000000 
#    y 0.000000 1.721750 0.000000 
#    z 0.000000 0.000000 1.728970 
# 
# From -- ./inp_files/846.got.cif
#   From: 2010.05.17/outbox.cif.g08.bks.cpg/sg181_1_cif.got.tgz:846.got - 2010.05.20 11:51:17.
