data_PCOD9584384
_publ_section_title
;
Structure prediction by ZEFSAII (Michael W. Deem and Ramdas Pophale) SiO2 
 PCOD9584384
Probable space group: P 64 2 2
;
_chemical_formula_sum "Si O2"
_cell_formula_units_Z 84
_cell_length_a 18.325723
_cell_length_b 18.325723
_cell_length_c 14.556566
_cell_angle_alpha 90.000000
_cell_angle_beta 90.000000
_cell_angle_gamma 120.000000
_cell_volume 4233.619287
_symmetry_space_group_name_H-M "P 64 2 2"
_symmetry_group_IT_number 181
_symmetry_cell_setting 'hexagonal'
loop_
_space_group_symop_operation_xyz
x,y,z
x-y,x,2/3+z
-y,x-y,1/3+z
-x,-y,z
-x+y,-x,2/3+z
y,-x+y,1/3+z
x-y,-y,-z
-x,-x+y,2/3-z
y,x,1/3-z
-y,-x,1/3-z
-x+y,y,-z
x,x-y,2/3-z
loop_
_atom_site_type_symbol
_atom_site_label
_atom_site_fract_x
_atom_site_fract_y
_atom_site_fract_z
Si Si1 0.315803 0.243910 0.836155
Si Si2 0.956803 0.601061 0.926937
Si Si3 0.122272 0.464823 0.649976
Si Si4 0.629386 0.000000 0.000000
Si Si5 0.252237 0.455213 0.165572
Si Si6 0.120817 0.560409 0.333334
Si Si7 0.699979 0.905563 0.262155
Si Si8 0.387511 0.778881 0.819282
O O1 0.301798 0.150899 0.833334
O O2 0.393394 0.293756 0.906721
O O3 0.342772 0.298952 0.743057
O O4 0.232288 0.243812 0.870872
O O5 0.865460 0.530350 0.890980
O O6 0.000000 0.654792 0.833334
O O7 0.933000 0.646995 0.004945
O O8 0.032964 0.592275 0.969347
O O9 0.179894 0.457043 0.728494
O O10 0.171888 0.553917 0.599958
O O11 0.536071 0.931763 0.035420
O O12 0.172972 0.366010 0.133721
O O13 0.227683 0.525329 0.145560
O O14 0.173411 0.609191 0.245136
O O15 0.743184 0.871592 0.333334
O O16 0.372695 0.686348 0.833334
#
# Coordination Sequence:
#
# PCOD9584384 Si02
#       8
#    12  12  12   6  12   6  12  12
#     4  11  23  37  63 100 132 161 213 271 329 391
#     4   8  17  38  65  88 119 161 219 282 326 383
#     4  10  21  40  64  91 127 169 221 280 329 403
#     4  11  24  42  68  90 133 170 214 272 329 398
#     4  10  21  40  66  90 130 172 224 282 339 402
#     4  11  24  42  62  90 126 176 224 262 338 398
#     4   9  19  39  65  92 124 165 214 265 329 395
#     4  12  24  39  61  90 129 176 219 272 345 412
#
# _framework density 19.841179
#
# number of rings (size 3 to 8) (size 9 to 14) (size 15 to 20)
#    0.000    1.857    1.429    2.143    4.000    0.000 
#   11.571    0.000    3.143    0.000    0.000    1.500 
#    0.000    0.000    0.000    0.000    0.000    0.000 
#
# Total GULP energy -468594.344234 kJ/mol
# GULP energy per Si atom -5578.504098 kJ/mol
# Density = 1.979602 g / cm^3
# Si number density = 19.841179 Si / 1000 Ang^3
#
#
#
# Elastic Constant Matrix: (Units=GPa)
#
#
# Indices 1 2 3 4 5 6 
#
# 1 94.5021 68.0053 47.2621 0.0000 0.0000 0.0000
# 2 68.0053 94.5021 47.2621 0.0000 0.0000 0.0000
# 3 47.2621 47.2621 114.6944 0.0000 0.0000 0.0000
# 4 0.0000 0.0000 0.0000 43.0995 0.0000 0.0000
# 5 0.0000 0.0000 0.0000 0.0000 43.0995 0.0000
# 6 0.0000 0.0000 0.0000 0.0000 0.0000 13.2484
#
#
#
# Elastic Compliance Matrix: (Units=1/GPa)
#
#
# Indices 1 2 3 4 5 6 
#
# 1 0.022917 -0.014824 -0.003335 0.000000 0.000000 0.000000
# 2 -0.014824 0.022917 -0.003335 0.000000 0.000000 0.000000
# 3 -0.003335 -0.003335 0.011467 0.000000 0.000000 0.000000
# 4 0.000000 0.000000 0.000000 0.023202 0.000000 0.000000
# 5 0.000000 0.000000 0.000000 0.000000 0.023202 0.000000
# 6 0.000000 0.000000 0.000000 0.000000 0.000000 0.075481
#
#
# Mechanical properties :
#
#
# Convention : Reuss Voigt Hill
#
# Bulk Modulus (GPa) = 69.86161 69.86195 69.86178
# Shear Modulus (GPa) = 22.03177 29.30076 25.66627
#
# Velocity S-wave (km/s) = 3.33589 3.84704 3.60055
# Velocity P-wave (km/s) = 7.07986 7.41754 7.25067
#
# Compressibility (1/GPa) = 0.01431401
#
# Stress axis : x y z
#
# Youngs Moduli (GPa) = 43.63583 43.63583 87.20390
#
# Poissons Ratio (x) = 0.64684 0.29083
# Poissons Ratio (y) = 0.64684 0.29083
# Poissons Ratio (z) = 0.14553 0.14553
#
# Static dielectric constant tensor:
#      x y z
#    x 1.716020 0.000000 0.000000 
#    y 0.000000 1.716020 0.000000 
#    z 0.000000 0.000000 1.714640 
# 
# From -- ./inp_files/6520.got.cif
#   From: 2010.05.17/outbox.cif.g08.bks.cpg/sg181_4_cif.got.tgz:6520.got - 2010.05.20 11:51:17.
