data_PCOD9584191
_publ_section_title
;
Structure prediction by ZEFSAII (Michael W. Deem and Ramdas Pophale) SiO2 
 PCOD9584191
Probable space group: P 62 2 2
;
_chemical_formula_sum "Si O2"
_cell_formula_units_Z 39
_cell_length_a 8.063314
_cell_length_b 8.063314
_cell_length_c 30.013501
_cell_angle_alpha 90.000000
_cell_angle_beta 90.000000
_cell_angle_gamma 120.000000
_cell_volume 1689.952252
_symmetry_space_group_name_H-M "P 62 2 2"
_symmetry_group_IT_number 180
_symmetry_cell_setting 'hexagonal'
loop_
_space_group_symop_operation_xyz
x,y,z
x-y,x,1/3+z
-y,x-y,2/3+z
-x,-y,z
-x+y,-x,1/3+z
y,-x+y,2/3+z
x-y,-y,-z
-x,-x+y,1/3-z
y,x,2/3-z
-y,-x,2/3-z
-x+y,y,-z
x,x-y,1/3-z
loop_
_atom_site_type_symbol
_atom_site_label
_atom_site_fract_x
_atom_site_fract_y
_atom_site_fract_z
Si Si1 0.890878 0.765027 0.947994
Si Si2 0.214473 0.422923 0.446940
Si Si3 0.500000 0.000000 0.000000
Si Si4 0.217890 0.448764 0.744409
O O1 0.684829 0.690277 0.924982
O O2 0.026485 0.718450 0.917272
O O3 0.851319 0.702637 0.000000
O O4 0.000000 0.000000 0.948747
O O5 0.211122 0.422244 0.500000
O O6 0.339266 0.641413 0.430055
O O7 0.329815 0.310903 0.437556
O O8 0.316175 0.861278 0.028734
#
# Coordination Sequence:
#
# PCOD9584191 Si02
#       4
#    12  12   3  12
#     4   9  15  24  41  66  99 138 178 226 285 341
#     4   9  17  27  40  64 101 137 176 221 285 345
#     4   8  12  24  38  56  92 130 152 220 268 328
#     4   9  16  25  41  65  98 139 176 216 281 351
#
# _framework density 23.077575
#
# number of rings (size 3 to 8) (size 9 to 14) (size 15 to 20)
#    0.000    3.385    0.000    5.538    0.000    5.538 
#    0.000    0.000    0.000    0.000    0.000   17.231 
#  110.769    0.000    5.538    0.000    3.692    0.000 
#
# Total GULP energy -217407.804139 kJ/mol
# GULP energy per Si atom -5574.559080 kJ/mol
# Density = 2.302505 g / cm^3
# Si number density = 23.077575 Si / 1000 Ang^3
#
#
#
# Elastic Constant Matrix: (Units=GPa)
#
#
# Indices 1 2 3 4 5 6 
#
# 1 134.7677 60.5599 66.7866 0.0000 0.0000 0.0000
# 2 60.5599 134.7677 66.7866 0.0000 0.0000 0.0000
# 3 66.7866 66.7866 183.3309 0.0000 0.0000 0.0000
# 4 0.0000 0.0000 0.0000 -34.2487 0.0000 0.0000
# 5 0.0000 0.0000 0.0000 0.0000 -34.2487 0.0000
# 6 0.0000 0.0000 0.0000 0.0000 0.0000 37.1039
#
#
#
# Elastic Compliance Matrix: (Units=1/GPa)
#
#
# Indices 1 2 3 4 5 6 
#
# 1 0.010147 -0.003329 -0.002484 0.000000 0.000000 0.000000
# 2 -0.003329 0.010147 -0.002484 0.000000 0.000000 0.000000
# 3 -0.002484 -0.002484 0.007264 0.000000 0.000000 0.000000
# 4 0.000000 0.000000 0.000000 -0.029198 0.000000 0.000000
# 5 0.000000 0.000000 0.000000 0.000000 -0.029198 0.000000
# 6 0.000000 0.000000 0.000000 0.000000 0.000000 0.026951
#
#
# Mechanical properties :
#
#
# Convention : Reuss Voigt Hill
#
# Bulk Modulus (GPa) = 91.19663 93.45917 92.32790
# Shear Modulus (GPa) = 305.60373 10.97016 158.28695
#
# Velocity S-wave (km/s) = 11.52007 2.18264 8.29084
# Velocity P-wave (km/s) = 14.71573 6.85111 11.47803
#
# Compressibility (1/GPa) = 0.01096532
#
# Stress axis : x y z
#
# Youngs Moduli (GPa) = 98.55216 98.55216 137.65941
#
# Poissons Ratio (x) = 0.32806 0.34192
# Poissons Ratio (y) = 0.32806 0.34192
# Poissons Ratio (z) = 0.24479 0.24479
#
# Static dielectric constant tensor:
#      x y z
#    x 1.916810 0.000000 0.000000 
#    y 0.000000 1.916810 0.000000 
#    z 0.000000 0.000000 2.208580 
# 
# From -- ./inp_files/11880.got.cif
#   From: 2010.05.17/outbox.cif.g08.bks.cpg/sg180_6_cif.got.tgz:11880.got - 2010.05.20 11:43:55.
