data_PCOD9584202
_publ_section_title
;
Structure prediction by ZEFSAII (Michael W. Deem and Ramdas Pophale) SiO2 
 PCOD9584202
Probable space group: P 64 2 2
;
_chemical_formula_sum "Si O2"
_cell_formula_units_Z 60
_cell_length_a 28.391144
_cell_length_b 28.391144
_cell_length_c 5.365170
_cell_angle_alpha 90.000000
_cell_angle_beta 90.000000
_cell_angle_gamma 120.000000
_cell_volume 3745.242165
_symmetry_space_group_name_H-M "P 64 2 2"
_symmetry_group_IT_number 181
_symmetry_cell_setting 'hexagonal'
loop_
_space_group_symop_operation_xyz
x,y,z
x-y,x,2/3+z
-y,x-y,1/3+z
-x,-y,z
-x+y,-x,2/3+z
y,-x+y,1/3+z
x-y,-y,-z
-x,-x+y,2/3-z
y,x,1/3-z
-y,-x,1/3-z
-x+y,y,-z
x,x-y,2/3-z
loop_
_atom_site_type_symbol
_atom_site_label
_atom_site_fract_x
_atom_site_fract_y
_atom_site_fract_z
Si Si1 0.409915 0.759796 0.257145
Si Si2 0.406797 0.978272 0.746956
Si Si3 0.255344 0.850523 0.250354
Si Si4 0.465294 0.317636 0.418869
Si Si5 0.677663 0.974952 0.748249
O O1 0.387683 0.775366 0.500000
O O2 0.406080 0.703040 0.333334
O O3 0.472271 0.806253 0.231208
O O4 0.377265 0.754530 0.000000
O O5 0.368127 0.913646 0.727542
O O6 0.441902 0.000000 0.500000
O O7 0.368287 0.006270 0.748236
O O8 0.440170 0.000000 0.000000
O O9 0.195856 0.804145 0.166667
O O10 0.277701 0.841009 0.513857
O O11 0.263265 0.910374 0.262818
O O12 0.291681 0.851878 0.018013
O O13 0.711616 0.000000 0.500000
O O14 0.710524 0.000000 0.000000
#
# Coordination Sequence:
#
# PCOD9584202 Si02
#       5
#    12  12  12  12  12
#     4  12  26  45  64  80 100 129 162 201 256 320
#     4  10  16  31  54  77  99 140 167 187 233 308
#     4  12  21  31  50  83 112 130 165 215 255 286
#     4  12  22  37  58  82 106 126 163 209 249 296
#     4  10  16  30  48  71  99 146 172 189 239 311
#
# _framework density 16.020327000000002
#
# number of rings (size 3 to 8) (size 9 to 14) (size 15 to 20)
#    0.000    0.800    8.000    4.200    0.000    0.000 
#    0.000    0.000    0.000    3.600    0.000    0.000 
#    0.000    0.000    0.000    0.000    0.000    0.000 
#
# Total GULP energy -334726.772785 kJ/mol
# GULP energy per Si atom -5578.779546 kJ/mol
# Density = 1.598386 g / cm^3
# Si number density = 16.020327 Si / 1000 Ang^3
#
#
#
# Elastic Constant Matrix: (Units=GPa)
#
#
# Indices 1 2 3 4 5 6 
#
# 1 52.4328 52.3431 37.0866 0.0000 0.0000 0.0000
# 2 52.3431 52.4328 37.0866 0.0000 0.0000 0.0000
# 3 37.0866 37.0866 156.1493 0.0000 0.0000 0.0000
# 4 0.0000 0.0000 0.0000 -3.0885 0.0000 0.0000
# 5 0.0000 0.0000 0.0000 0.0000 -3.0885 0.0000
# 6 0.0000 0.0000 0.0000 0.0000 0.0000 0.0448
#
#
#
# Elastic Compliance Matrix: (Units=1/GPa)
#
#
# Indices 1 2 3 4 5 6 
#
# 1 5.580989 -5.569516 -0.002725 0.000000 0.000000 -0.000323
# 2 -5.569516 5.580989 -0.002725 0.000000 0.000000 0.000323
# 3 -0.002725 -0.002725 0.007699 0.000000 0.000000 0.000000
# 4 0.000000 0.000000 0.000000 -0.323784 0.000000 0.000000
# 5 0.000000 0.000000 0.000000 0.000000 -0.323784 0.000000
# 6 -0.000323 0.000323 0.000000 0.000000 0.000000 22.301753
#
#
# Mechanical properties :
#
#
# Convention : Reuss Voigt Hill
#
# Bulk Modulus (GPa) = 50.64543 57.11637 53.88090
# Shear Modulus (GPa) = 0.11369 7.74015 3.92692
#
# Velocity S-wave (km/s) = 0.26668 2.20044 1.56733
# Velocity P-wave (km/s) = 5.63708 6.49506 6.08122
#
# Compressibility (1/GPa) = 0.01974512
#
# Stress axis : x y z
#
# Youngs Moduli (GPa) = 0.17918 0.17918 129.89489
#
# Poissons Ratio (x) = 0.99794 0.35396
# Poissons Ratio (y) = 0.99794 0.35396
# Poissons Ratio (z) = 0.00049 0.00049
#
# Static dielectric constant tensor:
#      x y z
#    x 1.644040 0.000000 0.000000 
#    y 0.000000 1.644040 0.000000 
#    z 0.000000 0.000000 1.558130 
# 
# From -- ./inp_files/1439.got.cif
#   From: 2010.05.17/outbox.cif.g08.bks.cpg/sg181_1_cif.got.tgz:1439.got - 2010.05.20 11:51:17.
