data_PCOD9584208
_publ_section_title
;
Structure prediction by ZEFSAII (Michael W. Deem and Ramdas Pophale) SiO2 
 PCOD9584208
Probable space group: P 64 2 2
;
_chemical_formula_sum "Si O2"
_cell_formula_units_Z 84
_cell_length_a 38.676325
_cell_length_b 38.676325
_cell_length_c 5.271510
_cell_angle_alpha 90.000000
_cell_angle_beta 90.000000
_cell_angle_gamma 120.000000
_cell_volume 6828.983578
_symmetry_space_group_name_H-M "P 64 2 2"
_symmetry_group_IT_number 181
_symmetry_cell_setting 'hexagonal'
loop_
_space_group_symop_operation_xyz
x,y,z
x-y,x,2/3+z
-y,x-y,1/3+z
-x,-y,z
-x+y,-x,2/3+z
y,-x+y,1/3+z
x-y,-y,-z
-x,-x+y,2/3-z
y,x,1/3-z
-y,-x,1/3-z
-x+y,y,-z
x,x-y,2/3-z
loop_
_atom_site_type_symbol
_atom_site_label
_atom_site_fract_x
_atom_site_fract_y
_atom_site_fract_z
Si Si1 0.376454 0.026042 0.249570
Si Si2 0.279520 0.394407 0.952418
Si Si3 0.393498 0.157824 0.778696
Si Si4 0.886737 0.465640 0.082766
Si Si5 0.673881 0.509421 0.944868
Si Si6 0.283237 0.489793 0.437143
Si Si7 0.566677 0.540943 0.914659
O O1 0.377089 0.067667 0.270505
O O2 0.422071 0.034458 0.240002
O O3 0.357147 0.000000 0.500000
O O4 0.355003 0.000000 0.000000
O O5 0.249388 0.380247 0.192104
O O6 0.307426 0.442700 0.972407
O O7 0.254971 0.385966 0.692892
O O8 0.378353 0.189177 0.833334
O O9 0.441564 0.185165 0.747127
O O10 0.877794 0.438897 0.333334
O O11 0.933063 0.499995 0.087458
O O12 0.879427 0.439714 0.833334
O O13 0.860938 0.487426 0.061479
O O14 0.691752 0.496302 0.178368
O O15 0.688941 0.502118 0.678617
O O16 0.252513 0.505026 0.500000
O O17 0.545370 0.545370 0.666667
O O18 0.546868 0.546868 0.166667
#
# Coordination Sequence:
#
# PCOD9584208 Si02
#       7
#    12  12  12  12  12  12  12
#     4  10  19  30  44  60  76  99 138 177 207 230
#     4  10  17  29  45  57  79 106 126 157 200 223
#     4   9  17  26  41  64  83  99 122 146 179 233
#     4  12  24  35  47  62  83 112 140 162 201 234
#     4  10  19  32  45  63  85 106 129 149 179 223
#     4   9  17  29  48  67  84 102 120 143 168 205
#     4  10  21  35  48  59  74  99 143 189 210 221
#
# _framework density 12.300514
#
# number of rings (size 3 to 8) (size 9 to 14) (size 15 to 20)
#    0.000    2.000    1.429    3.429    0.000    5.143 
#    0.000    0.000    0.000    0.000    0.000    0.000 
#    0.000    0.000    0.000   54.000    0.000    0.000 
#
# Total GULP energy -468610.326644 kJ/mol
# GULP energy per Si atom -5578.694365 kJ/mol
# Density = 1.227252 g / cm^3
# Si number density = 12.300514 Si / 1000 Ang^3
#
#
#
# Elastic Constant Matrix: (Units=GPa)
#
#
# Indices 1 2 3 4 5 6 
#
# 1 38.4503 11.8460 9.9692 0.0000 0.0000 0.0000
# 2 11.8460 38.4503 9.9692 0.0000 0.0000 0.0000
# 3 9.9692 9.9692 66.0669 0.0000 0.0000 0.0000
# 4 0.0000 0.0000 0.0000 10.3863 0.0000 0.0000
# 5 0.0000 0.0000 0.0000 0.0000 10.3863 0.0000
# 6 0.0000 0.0000 0.0000 0.0000 0.0000 13.3022
#
#
#
# Elastic Compliance Matrix: (Units=1/GPa)
#
#
# Indices 1 2 3 4 5 6 
#
# 1 0.029368 -0.008220 -0.003191 0.000000 0.000000 0.000000
# 2 -0.008220 0.029368 -0.003191 0.000000 0.000000 0.000000
# 3 -0.003191 -0.003191 0.016099 0.000000 0.000000 0.000000
# 4 0.000000 0.000000 0.000000 0.096280 0.000000 0.000000
# 5 0.000000 0.000000 0.000000 0.000000 0.096280 0.000000
# 6 0.000000 0.000000 0.000000 0.000000 0.000000 0.075176
#
#
# Mechanical properties :
#
#
# Convention : Reuss Voigt Hill
#
# Bulk Modulus (GPa) = 21.91566 22.94847 22.43206
# Shear Modulus (GPa) = 12.92040 14.22718 13.57379
#
# Velocity S-wave (km/s) = 3.24450 3.40462 3.32552
# Velocity P-wave (km/s) = 5.64723 5.84399 5.74645
#
# Compressibility (1/GPa) = 0.04562947
#
# Stress axis : x y z
#
# Youngs Moduli (GPa) = 34.05123 34.05123 62.11489
#
# Poissons Ratio (x) = 0.27991 0.19821
# Poissons Ratio (y) = 0.27991 0.19821
# Poissons Ratio (z) = 0.10866 0.10866
#
# Static dielectric constant tensor:
#      x y z
#    x 1.381840 0.000000 0.000000 
#    y 0.000000 1.381840 0.000000 
#    z 0.000000 0.000000 1.411430 
# 
# From -- ./inp_files/1698.got.cif
#   From: 2010.05.17/outbox.cif.g08.bks.cpg/sg181_1_cif.got.tgz:1698.got - 2010.05.20 11:51:17.
