data_PCOD9584513
_publ_section_title
;
Structure prediction by ZEFSAII (Michael W. Deem and Ramdas Pophale) SiO2 
 PCOD9584513
Probable space group: P 64 2 2
;
_chemical_formula_sum "Si O2"
_cell_formula_units_Z 84
_cell_length_a 18.608283
_cell_length_b 18.608283
_cell_length_c 13.421629
_cell_angle_alpha 90.000000
_cell_angle_beta 90.000000
_cell_angle_gamma 120.000000
_cell_volume 4024.838570
_symmetry_space_group_name_H-M "P 64 2 2"
_symmetry_group_IT_number 181
_symmetry_cell_setting 'hexagonal'
loop_
_space_group_symop_operation_xyz
x,y,z
x-y,x,2/3+z
-y,x-y,1/3+z
-x,-y,z
-x+y,-x,2/3+z
y,-x+y,1/3+z
x-y,-y,-z
-x,-x+y,2/3-z
y,x,1/3-z
-y,-x,1/3-z
-x+y,y,-z
x,x-y,2/3-z
loop_
_atom_site_type_symbol
_atom_site_label
_atom_site_fract_x
_atom_site_fract_y
_atom_site_fract_z
Si Si1 0.856006 0.858182 0.049097
Si Si2 0.032719 0.744486 0.585759
Si Si3 0.548480 0.155480 0.609739
Si Si4 0.845955 0.601162 0.599956
Si Si5 0.607185 0.341449 0.565798
Si Si6 0.730729 0.815243 0.623329
Si Si7 0.833342 0.311909 0.600495
O O1 0.864690 0.864690 0.166667
O O2 0.807206 0.903613 0.009786
O O3 0.944259 0.888517 0.000000
O O4 0.794679 0.762842 0.015700
O O5 0.069659 0.808203 0.494352
O O6 0.094012 0.708665 0.593457
O O7 0.938455 0.671878 0.566906
O O8 0.562964 0.125928 0.500000
O O9 0.464698 0.141859 0.664999
O O10 0.599554 0.255392 0.601386
O O11 0.598575 0.129875 0.683060
O O12 0.787326 0.574652 0.500000
O O13 0.812923 0.647810 0.673125
O O14 0.611409 0.388592 0.666667
O O15 0.691328 0.382656 0.500000
O O16 0.527026 0.318492 0.500846
O O17 0.741387 0.741387 0.666667
O O18 0.759577 0.240424 0.666667
#
# Coordination Sequence:
#
# PCOD9584513 Si02
#       7
#    12  12  12  12  12  12  12
#     4  11  23  42  68 107 149 188 244 303 372 439
#     4  11  25  44  68 102 139 193 245 293 371 443
#     4  11  23  40  65  99 135 175 228 289 365 425
#     4  11  25  44  71  99 140 196 245 303 370 450
#     4  11  19  37  61  96 129 173 231 287 354 427
#     4  11  23  44  72 100 143 189 250 304 354 449
#     4  12  23  39  69  97 139 180 235 302 355 442
#
# _framework density 20.870401999999999
#
# number of rings (size 3 to 8) (size 9 to 14) (size 15 to 20)
#    0.000    0.857    7.143    1.286    2.000    2.000 
#    0.000    1.429    0.000    0.000    0.000    0.000 
#    0.000    0.000    0.000    0.000    0.000    0.000 
#
# Total GULP energy -468654.292334 kJ/mol
# GULP energy per Si atom -5579.217766 kJ/mol
# Density = 2.082290 g / cm^3
# Si number density = 20.870402 Si / 1000 Ang^3
#
#
#
# Elastic Constant Matrix: (Units=GPa)
#
#
# Indices 1 2 3 4 5 6 
#
# 1 99.2687 44.2395 36.9599 0.0000 0.0000 0.0000
# 2 44.2395 99.2687 36.9599 0.0000 0.0000 0.0000
# 3 36.9599 36.9599 126.3134 0.0000 0.0000 0.0000
# 4 0.0000 0.0000 0.0000 28.3027 0.0000 0.0000
# 5 0.0000 0.0000 0.0000 0.0000 28.3027 0.0000
# 6 0.0000 0.0000 0.0000 0.0000 0.0000 27.5146
#
#
#
# Elastic Compliance Matrix: (Units=1/GPa)
#
#
# Indices 1 2 3 4 5 6 
#
# 1 0.013189 -0.004984 -0.002401 0.000000 0.000000 0.000000
# 2 -0.004984 0.013189 -0.002401 0.000000 0.000000 0.000000
# 3 -0.002401 -0.002401 0.009322 0.000000 0.000000 0.000000
# 4 0.000000 0.000000 0.000000 0.035332 0.000000 0.000000
# 5 0.000000 0.000000 0.000000 0.000000 0.035332 0.000000
# 6 0.000000 0.000000 0.000000 0.000000 0.000000 0.036344
#
#
# Mechanical properties :
#
#
# Convention : Reuss Voigt Hill
#
# Bulk Modulus (GPa) = 62.00251 62.35215 62.17733
# Shear Modulus (GPa) = 29.82329 30.60345 30.21337
#
# Velocity S-wave (km/s) = 3.78428 3.83346 3.80895
# Velocity P-wave (km/s) = 6.99051 7.03808 7.01434
#
# Compressibility (1/GPa) = 0.01612838
#
# Stress axis : x y z
#
# Youngs Moduli (GPa) = 75.82359 75.82359 107.27567
#
# Poissons Ratio (x) = 0.37788 0.25755
# Poissons Ratio (y) = 0.37788 0.25755
# Poissons Ratio (z) = 0.18204 0.18204
#
# Static dielectric constant tensor:
#      x y z
#    x 1.758120 0.000000 0.000000 
#    y 0.000000 1.758120 0.000000 
#    z 0.000000 0.000000 2.024140 
# 
# From -- ./inp_files/6514.got.cif
#   From: 2010.05.17/outbox.cif.g08.bks.cpg/sg181_4_cif.got.tgz:6514.got - 2010.05.20 11:51:17.
