data_PCOD9584859
_publ_section_title
;
Structure prediction by ZEFSAII (Michael W. Deem and Ramdas Pophale) SiO2 
 PCOD9584859
Probable space group: P 63 2 2
;
_chemical_formula_sum "Si O2"
_cell_formula_units_Z 68
_cell_length_a 10.919713
_cell_length_b 10.919713
_cell_length_c 29.399346
_cell_angle_alpha 90.000000
_cell_angle_beta 90.000000
_cell_angle_gamma 120.000000
_cell_volume 3035.922979
_symmetry_space_group_name_H-M "P 63 2 2"
_symmetry_group_IT_number 182
_symmetry_cell_setting 'hexagonal'
loop_
_space_group_symop_operation_xyz
x,y,z
x-y,x,1/2+z
-y,x-y,z
-x,-y,1/2+z
-x+y,-x,z
y,-x+y,1/2+z
x-y,-y,-z
-x,-x+y,-z
y,x,-z
-y,-x,1/2-z
-x+y,y,1/2-z
x,x-y,1/2-z
loop_
_atom_site_type_symbol
_atom_site_label
_atom_site_fract_x
_atom_site_fract_y
_atom_site_fract_z
Si Si1 0.618609 0.079834 0.703323
Si Si2 0.074513 0.759288 0.065397
Si Si3 0.197536 0.708789 0.971987
Si Si4 0.172422 0.343311 0.695469
Si Si5 0.666667 0.333334 0.194468
Si Si6 0.000000 0.000000 0.554024
Si Si7 0.713824 0.601078 0.662091
O O1 0.522832 0.045664 0.750000
O O2 0.505271 0.052574 0.665031
O O3 0.757971 0.231015 0.697797
O O4 0.691239 0.987675 0.688700
O O5 0.912166 0.627390 0.063125
O O6 0.154090 0.759458 0.110806
O O7 0.062718 0.899927 0.067041
O O8 0.148713 0.740555 0.020565
O O9 0.187917 0.555240 0.968138
O O10 0.170496 0.340991 0.750000
O O11 0.241346 0.505565 0.680003
O O12 0.013974 0.258522 0.676918
O O13 0.666668 0.333334 0.250000
O O14 0.000000 0.000000 0.500000
#
# Coordination Sequence:
#
# PCOD9584859 Si02
#       7
#    12  12  12  12   4   4  12
#     4  12  25  47  70 100 143 199 247 297 373 438
#     4  11  26  45  71 110 143 195 246 298 380 433
#     4   9  22  44  72 104 141 184 240 301 362 449
#     4  11  21  42  68  96 129 186 241 297 353 419
#     4   9  15  36  63  90 114 159 243 282 327 408
#     4  12  24  48  72 102 145 206 238 294 369 468
#     4  12  28  43  71 107 146 189 242 316 358 438
#
# _framework density 22.39846
#
# number of rings (size 3 to 8) (size 9 to 14) (size 15 to 20)
#    0.353    0.706    5.294    1.412    4.941    4.235 
#    1.059    0.000    0.000    0.000    0.000    0.000 
#    0.000    0.000    0.000    0.000    0.000    0.000 
#
# Total GULP energy -378738.710738 kJ/mol
# GULP energy per Si atom -5569.686923 kJ/mol
# Density = 2.234748 g / cm^3
# Si number density = 22.398460 Si / 1000 Ang^3
#
#
#
# Elastic Constant Matrix: (Units=GPa)
#
#
# Indices 1 2 3 4 5 6 
#
# 1 74.8598 -5.4814 3.9750 0.0000 0.0000 0.0000
# 2 -5.4814 74.8598 3.9750 0.0000 0.0000 0.0000
# 3 3.9750 3.9750 64.6423 0.0000 0.0000 0.0000
# 4 0.0000 0.0000 0.0000 26.5850 0.0000 0.0000
# 5 0.0000 0.0000 0.0000 0.0000 26.5850 0.0000
# 6 0.0000 0.0000 0.0000 0.0000 0.0000 40.1706
#
#
#
# Elastic Compliance Matrix: (Units=1/GPa)
#
#
# Indices 1 2 3 4 5 6 
#
# 1 0.013481 0.001035 -0.000893 0.000000 0.000000 0.000000
# 2 0.001035 0.013481 -0.000893 0.000000 0.000000 0.000000
# 3 -0.000893 -0.000893 0.015580 0.000000 0.000000 0.000000
# 4 0.000000 0.000000 0.000000 0.037615 0.000000 0.000000
# 5 0.000000 0.000000 0.000000 0.000000 0.037615 0.000000
# 6 0.000000 0.000000 0.000000 0.000000 0.000000 0.024894
#
#
# Mechanical properties :
#
#
# Convention : Reuss Voigt Hill
#
# Bulk Modulus (GPa) = 24.36588 24.36659 24.36624
# Shear Modulus (GPa) = 31.67594 32.79432 32.23513
#
# Velocity S-wave (km/s) = 3.76467 3.83055 3.79775
# Velocity P-wave (km/s) = 5.45884 5.51964 5.48933
#
# Compressibility (1/GPa) = 0.04104099
#
# Stress axis : x y z
#
# Youngs Moduli (GPa) = 74.17601 74.17593 64.18681
#
# Poissons Ratio (x) = -0.07674 0.05729
# Poissons Ratio (y) = -0.07674 0.05730
# Poissons Ratio (z) = 0.06621 0.06621
#
# Static dielectric constant tensor:
#      x y z
#    x 2.052860 0.000000 0.000000 
#    y 0.000000 2.052860 0.000000 
#    z 0.000000 0.000000 1.832430 
# 
# From -- ./inp_files/5763.got.cif
#   From: 2010.05.17/outbox.cif.g08.bks.cpg/sg182_3_cif.got.tgz:5763.got - 2010.05.20 11:58:53.
