data_PCOD9584939
_publ_section_title
;
Structure prediction by ZEFSAII (Michael W. Deem and Ramdas Pophale) SiO2 
 PCOD9584939
Probable space group: P 6 M M
;
_chemical_formula_sum "Si O2"
_cell_formula_units_Z 84
_cell_length_a 22.654321
_cell_length_b 22.654321
_cell_length_c 12.896626
_cell_angle_alpha 90.000000
_cell_angle_beta 90.000000
_cell_angle_gamma 120.000000
_cell_volume 5732.035047
_symmetry_space_group_name_H-M "P 6 M M"
_symmetry_group_IT_number 183
_symmetry_cell_setting 'hexagonal'
loop_
_space_group_symop_operation_xyz
x,y,z
x-y,x,z
-y,x-y,z
-x,-y,z
-x+y,-x,z
y,-x+y,z
-x+y,y,z
x,x-y,z
-y,-x,z
y,x,z
x-y,-y,z
-x,-x+y,z
loop_
_atom_site_type_symbol
_atom_site_label
_atom_site_fract_x
_atom_site_fract_y
_atom_site_fract_z
Si Si1 0.333236 0.525430 0.527870
Si Si2 0.287097 0.208791 0.034446
Si Si3 0.709468 0.556539 0.740672
Si Si4 0.291736 0.078276 0.789174
Si Si5 0.082414 0.410181 0.136919
Si Si6 0.469894 0.080220 0.349763
Si Si7 0.921200 0.390411 0.927025
O O1 0.263132 0.526264 0.505668
O O2 0.397866 0.602135 0.533502
O O3 0.322545 0.486551 0.637062
O O4 0.352089 0.485375 0.442368
O O5 0.259090 0.129545 0.048499
O O6 0.233313 0.233313 0.054954
O O7 0.352140 0.252106 0.107171
O O8 0.308384 0.225490 0.913047
O O9 0.774397 0.548793 0.769530
O O10 0.740236 0.637830 0.728716
O O11 0.656285 0.533066 0.833629
O O12 0.269180 0.134590 0.769819
O O13 0.236900 0.000000 0.767247
O O14 0.103212 0.445514 0.247882
O O15 0.000000 0.372221 0.138028
O O16 0.104522 0.460110 0.038674
O O17 0.540991 0.081982 0.326336
O O18 0.415875 0.000000 0.373808
O O19 0.921793 0.460897 0.925544
O O20 0.000000 0.408842 0.914345
#
# Coordination Sequence:
#
# PCOD9584939 Si02
#       7
#    12  12  12  12  12  12  12
#     4  10  21  36  51  66  86 118 158 196 233 274
#     4   9  16  26  42  64  90 119 149 181 219 263
#     4  10  19  30  44  63  88 115 147 186 226 267
#     4   9  16  27  43  64  91 120 149 183 223 268
#     4   9  16  27  43  65  92 117 141 174 221 271
#     4   9  18  32  48  67  91 117 148 189 234 275
#     4  10  18  27  43  67  91 113 138 172 216 266
#
# _framework density 14.654481000000001
#
# number of rings (size 3 to 8) (size 9 to 14) (size 15 to 20)
#    0.000    2.571    1.429    1.429    0.000    3.429 
#    0.000    1.429    0.000    0.571    0.000    2.000 
#    0.000    0.000    0.000    0.000    0.000    0.000 
#
# Total GULP energy -467753.116147 kJ/mol
# GULP energy per Si atom -5568.489478 kJ/mol
# Density = 1.462113 g / cm^3
# Si number density = 14.654481 Si / 1000 Ang^3
#
#
#
# Elastic Constant Matrix: (Units=GPa)
#
#
# Indices 1 2 3 4 5 6 
#
# 1 84.2137 49.6167 49.8709 0.0000 0.0000 0.0000
# 2 49.6167 84.2137 49.8709 0.0000 0.0000 0.0000
# 3 49.8709 49.8709 79.9974 0.0000 0.0000 0.0000
# 4 0.0000 0.0000 0.0000 17.7312 0.0000 0.0000
# 5 0.0000 0.0000 0.0000 0.0000 17.7312 0.0000
# 6 0.0000 0.0000 0.0000 0.0000 0.0000 17.2985
#
#
#
# Elastic Compliance Matrix: (Units=1/GPa)
#
#
# Indices 1 2 3 4 5 6 
#
# 1 0.021430 -0.007474 -0.008701 0.000000 0.000000 0.000000
# 2 -0.007474 0.021430 -0.008701 0.000000 0.000000 0.000000
# 3 -0.008701 -0.008701 0.023348 0.000000 0.000000 0.000000
# 4 0.000000 0.000000 0.000000 0.056398 0.000000 0.000000
# 5 0.000000 0.000000 0.000000 0.000000 0.056398 0.000000
# 6 0.000000 0.000000 0.000000 0.000000 0.000000 0.057808
#
#
# Mechanical properties :
#
#
# Convention : Reuss Voigt Hill
#
# Bulk Modulus (GPa) = 60.75656 60.79354 60.77505
# Shear Modulus (GPa) = 17.12039 17.15662 17.13850
#
# Velocity S-wave (km/s) = 3.42170 3.42532 3.42351
# Velocity P-wave (km/s) = 7.56043 7.56429 7.56236
#
# Compressibility (1/GPa) = 0.01645913
#
# Stress axis : x y z
#
# Youngs Moduli (GPa) = 46.66270 46.66270 42.82944
#
# Poissons Ratio (x) = 0.34875 0.37264
# Poissons Ratio (y) = 0.34875 0.37264
# Poissons Ratio (z) = 0.40599 0.40599
#
# Static dielectric constant tensor:
#      x y z
#    x 1.487120 0.000000 0.000000 
#    y 0.000000 1.487120 0.000000 
#    z 0.000000 0.000000 1.474620 
# 
# From -- ./inp_files/1897.got.cif
#   From: 2010.05.17/outbox.cif.g08.bks.cpg/sg183_1_cif.got.tgz:1897.got - 2010.05.20 12:02:58.
