data_PCOD9584176
_publ_section_title
;
Structure prediction by ZEFSAII (Michael W. Deem and Ramdas Pophale) SiO2 
 PCOD9584176
Probable space group: P 62 2 2
;
_chemical_formula_sum "Si O2"
_cell_formula_units_Z 39
_cell_length_a 13.169821
_cell_length_b 13.169821
_cell_length_c 11.672157
_cell_angle_alpha 90.000000
_cell_angle_beta 90.000000
_cell_angle_gamma 120.000000
_cell_volume 1753.240509
_symmetry_space_group_name_H-M "P 62 2 2"
_symmetry_group_IT_number 180
_symmetry_cell_setting 'hexagonal'
loop_
_space_group_symop_operation_xyz
x,y,z
x-y,x,1/3+z
-y,x-y,2/3+z
-x,-y,z
-x+y,-x,1/3+z
y,-x+y,2/3+z
x-y,-y,-z
-x,-x+y,1/3-z
y,x,2/3-z
-y,-x,2/3-z
-x+y,y,-z
x,x-y,1/3-z
loop_
_atom_site_type_symbol
_atom_site_label
_atom_site_fract_x
_atom_site_fract_y
_atom_site_fract_z
Si Si1 0.359643 0.589311 0.597092
Si Si2 0.000000 0.500000 0.666667
Si Si3 0.886377 0.607274 0.835908
Si Si4 0.360307 0.300425 0.954503
O O1 0.261934 0.523867 0.500000
O O2 0.301863 0.650932 0.666667
O O3 0.483673 0.696219 0.556843
O O4 0.371074 0.493150 0.666815
O O5 0.946642 0.554201 0.755635
O O6 0.828002 0.662934 0.753677
O O7 0.970369 0.685035 0.941794
O O8 0.350772 0.350772 0.833334
#
# Coordination Sequence:
#
# PCOD9584176 Si02
#       4
#    12   3  12  12
#     4  12  23  39  67 100 146 204 249 304 374 458
#     4  12  24  48  70 108 146 188 252 318 400 456
#     4  12  26  42  72 102 153 203 260 321 382 475
#     4  12  26  45  67 105 153 207 257 319 386 466
#
# _framework density 22.244522
#
# number of rings (size 3 to 8) (size 9 to 14) (size 15 to 20)
#    0.000    0.000    6.154    4.615    0.000    3.692 
#    0.000    0.000    0.000    0.000    0.000   10.769 
#    0.000    0.000    0.000    0.000    0.000    0.000 
#
# Total GULP energy -217409.422657 kJ/mol
# GULP energy per Si atom -5574.600581 kJ/mol
# Density = 2.219389 g / cm^3
# Si number density = 22.244522 Si / 1000 Ang^3
#
#
#
# Elastic Constant Matrix: (Units=GPa)
#
#
# Indices 1 2 3 4 5 6 
#
# 1 85.4691 24.5639 59.4685 0.0000 0.0000 0.0000
# 2 24.5639 85.4691 59.4685 0.0000 0.0000 0.0000
# 3 59.4685 59.4685 159.9379 0.0000 0.0000 0.0000
# 4 0.0000 0.0000 0.0000 48.4629 0.0000 0.0000
# 5 0.0000 0.0000 0.0000 0.0000 48.4629 0.0000
# 6 0.0000 0.0000 0.0000 0.0000 0.0000 30.4526
#
#
#
# Elastic Compliance Matrix: (Units=1/GPa)
#
#
# Indices 1 2 3 4 5 6 
#
# 1 0.015807 -0.000612 -0.005650 0.000000 0.000000 0.000000
# 2 -0.000612 0.015807 -0.005650 0.000000 0.000000 0.000000
# 3 -0.005650 -0.005650 0.010454 0.000000 0.000000 0.000000
# 4 0.000000 0.000000 0.000000 0.020634 0.000000 0.000000
# 5 0.000000 0.000000 0.000000 0.000000 0.020634 0.000000
# 6 0.000000 0.000000 0.000000 0.000000 0.000000 0.032838
#
#
# Mechanical properties :
#
#
# Convention : Reuss Voigt Hill
#
# Bulk Modulus (GPa) = 54.81004 68.65306 61.73155
# Shear Modulus (GPa) = 34.22781 37.96736 36.09759
#
# Velocity S-wave (km/s) = 3.92689 4.13585 4.03272
# Velocity P-wave (km/s) = 6.72710 7.33055 7.03530
#
# Compressibility (1/GPa) = 0.01824483
#
# Stress axis : x y z
#
# Youngs Moduli (GPa) = 63.26245 63.26245 95.65716
#
# Poissons Ratio (x) = 0.03870 0.54046
# Poissons Ratio (y) = 0.03870 0.54046
# Poissons Ratio (z) = 0.35743 0.35743
#
# Static dielectric constant tensor:
#      x y z
#    x 1.870420 0.000000 0.000000 
#    y 0.000000 1.870420 0.000000 
#    z 0.000000 0.000000 2.198570 
# 
# From -- ./inp_files/4082.got.cif
#   From: 2010.05.17/outbox.cif.g08.bks.cpg/sg180_3_cif.got.tgz:4082.got - 2010.05.20 11:43:55.
