data_PCOD9584922
_publ_section_title
;
Structure prediction by ZEFSAII (Michael W. Deem and Ramdas Pophale) SiO2 
 PCOD9584922
Probable space group: P 6 M M
;
_chemical_formula_sum "Si O2"
_cell_formula_units_Z 96
_cell_length_a 18.085857
_cell_length_b 18.085857
_cell_length_c 21.545601
_cell_angle_alpha 90.000000
_cell_angle_beta 90.000000
_cell_angle_gamma 120.000000
_cell_volume 6103.338117
_symmetry_space_group_name_H-M "P 6 M M"
_symmetry_group_IT_number 183
_symmetry_cell_setting 'hexagonal'
loop_
_space_group_symop_operation_xyz
x,y,z
x-y,x,z
-y,x-y,z
-x,-y,z
-x+y,-x,z
y,-x+y,z
-x+y,y,z
x,x-y,z
-y,-x,z
y,x,z
x-y,-y,z
-x,-x+y,z
loop_
_atom_site_type_symbol
_atom_site_label
_atom_site_fract_x
_atom_site_fract_y
_atom_site_fract_z
Si Si1 0.505279 0.836543 0.611250
Si Si2 0.102165 0.466295 0.002288
Si Si3 0.100093 0.731310 0.123282
Si Si4 0.669579 0.501459 0.870950
Si Si5 0.158958 0.667491 0.240752
Si Si6 0.729424 0.097168 0.358411
Si Si7 0.490771 0.332079 0.473831
Si Si8 0.101330 0.465188 0.741876
O O1 0.427112 0.854223 0.612006
O O2 0.471841 0.735921 0.611655
O O3 0.546733 0.868792 0.543677
O O4 0.555176 0.872296 0.675624
O O5 0.134675 0.567338 0.010847
O O6 0.122165 0.425123 0.060714
O O7 0.000000 0.419355 0.998669
O O8 0.134624 0.451832 0.936400
O O9 0.168193 0.831808 0.129780
O O10 0.116385 0.683988 0.180682
O O11 0.000000 0.702380 0.121713
O O12 0.730710 0.461420 0.870234
O O13 0.570520 0.429481 0.871373
O O14 0.685937 0.551966 0.806497
O O15 0.149049 0.574525 0.241003
O O16 0.258641 0.741359 0.240335
O O17 0.117800 0.684984 0.301189
O O18 0.828973 0.171028 0.357719
O O19 0.687685 0.109490 0.420953
O O20 0.707991 0.000000 0.353737
O O21 0.516473 0.258237 0.467459
O O22 0.574991 0.425010 0.467679
O O23 0.134391 0.567196 0.741244
O O24 0.000000 0.416869 0.744355
#
# Coordination Sequence:
#
# PCOD9584922 Si02
#       8
#    12  12  12  12  12  12  12  12
#     4   9  16  26  40  58  80 106 137 172 209 248
#     4   9  17  29  45  64  86 112 140 171 210 259
#     4  10  20  33  49  69  92 119 152 189 228 268
#     4  10  18  27  39  55  76 102 134 171 210 252
#     4  10  20  33  50  73 101 131 159 186 216 253
#     4  10  21  35  50  69  92 119 151 188 230 271
#     4   9  17  28  43  64  91 122 152 181 214 256
#     4   9  17  27  37  50  70  98 133 173 214 251
#
# _framework density 15.729098
#
# number of rings (size 3 to 8) (size 9 to 14) (size 15 to 20)
#    0.000    2.500    0.000    2.750    0.000    5.250 
#    0.000    3.750    0.000    4.250    0.000    0.000 
#    0.000    3.000    0.000    0.000    0.000    0.000 
#
# Total GULP energy -534421.066889 kJ/mol
# GULP energy per Si atom -5566.886113 kJ/mol
# Density = 1.569330 g / cm^3
# Si number density = 15.729098 Si / 1000 Ang^3
#
#
#
# Elastic Constant Matrix: (Units=GPa)
#
#
# Indices 1 2 3 4 5 6 
#
# 1 55.9696 39.0709 34.9736 0.0000 0.0000 0.0000
# 2 39.0709 55.9696 34.9736 0.0000 0.0000 0.0000
# 3 34.9736 34.9736 150.1345 0.0000 0.0000 0.0000
# 4 0.0000 0.0000 0.0000 14.8035 0.0000 0.0000
# 5 0.0000 0.0000 0.0000 0.0000 14.8035 0.0000
# 6 0.0000 0.0000 0.0000 0.0000 0.0000 8.4493
#
#
#
# Elastic Compliance Matrix: (Units=1/GPa)
#
#
# Indices 1 2 3 4 5 6 
#
# 1 0.035938 -0.023239 -0.002958 0.000000 0.000000 0.000000
# 2 -0.023239 0.035938 -0.002958 0.000000 0.000000 0.000000
# 3 -0.002958 -0.002958 0.008039 0.000000 0.000000 0.000000
# 4 0.000000 0.000000 0.000000 0.067552 0.000000 0.000000
# 5 0.000000 0.000000 0.000000 0.000000 0.067552 0.000000
# 6 0.000000 0.000000 0.000000 0.000000 0.000000 0.118352
#
#
# Mechanical properties :
#
#
# Convention : Reuss Voigt Hill
#
# Bulk Modulus (GPa) = 46.28759 53.34556 49.81657
# Shear Modulus (GPa) = 12.53505 17.81495 15.17500
#
# Velocity S-wave (km/s) = 2.82606 3.36908 3.10945
# Velocity P-wave (km/s) = 6.33567 7.00879 6.68071
#
# Compressibility (1/GPa) = 0.02160406
#
# Stress axis : x y z
#
# Youngs Moduli (GPa) = 27.82600 27.82600 124.39484
#
# Poissons Ratio (x) = 0.64664 0.36799
# Poissons Ratio (y) = 0.64664 0.36799
# Poissons Ratio (z) = 0.08232 0.08232
#
# Static dielectric constant tensor:
#      x y z
#    x 1.558080 0.000000 0.000000 
#    y 0.000000 1.558080 0.000000 
#    z 0.000000 0.000000 1.580840 
# 
# From -- ./inp_files/2951.got.cif
#   From: 2010.05.17/outbox.cif.g08.bks.cpg/sg183_2_cif.got.tgz:2951.got - 2010.05.20 12:02:58.
