data_PCOD9584995
_publ_section_title
;
Structure prediction by ZEFSAII (Michael W. Deem and Ramdas Pophale) SiO2 
 PCOD9584995
Probable space group: P 6 M M
;
_chemical_formula_sum "Si O2"
_cell_formula_units_Z 66
_cell_length_a 16.989902
_cell_length_b 16.989902
_cell_length_c 17.180345
_cell_angle_alpha 90.000000
_cell_angle_beta 90.000000
_cell_angle_gamma 120.000000
_cell_volume 4294.813010
_symmetry_space_group_name_H-M "P 6 M M"
_symmetry_group_IT_number 183
_symmetry_cell_setting 'hexagonal'
loop_
_space_group_symop_operation_xyz
x,y,z
x-y,x,z
-y,x-y,z
-x,-y,z
-x+y,-x,z
y,-x+y,z
-x+y,y,z
x,x-y,z
-y,-x,z
y,x,z
x-y,-y,z
-x,-x+y,z
loop_
_atom_site_type_symbol
_atom_site_label
_atom_site_fract_x
_atom_site_fract_y
_atom_site_fract_z
Si Si1 0.106744 0.396506 0.194010
Si Si2 0.280389 0.381131 0.014366
Si Si3 0.392595 0.785190 0.453545
Si Si4 0.108556 0.554278 0.614509
Si Si5 0.486509 0.334056 0.859404
Si Si6 0.445965 0.891929 0.292439
Si Si7 0.715394 0.104242 0.701449
O O1 0.184530 0.369059 0.208279
O O2 0.128889 0.485371 0.243682
O O3 0.000000 0.320845 0.209081
O O4 0.111878 0.419298 0.101802
O O5 0.176767 0.353533 0.002874
O O6 0.297864 0.297864 0.008559
O O7 0.334688 0.450403 0.945393
O O8 0.284097 0.715904 0.454674
O O9 0.422360 0.844719 0.530739
O O10 0.420542 0.841084 0.374339
O O11 0.131407 0.485272 0.660463
O O12 0.000000 0.500000 0.605887
O O13 0.518556 0.259278 0.859464
O O14 0.567726 0.432275 0.838410
O O15 0.409476 0.300896 0.793759
O O16 0.500000 0.000000 0.305753
O O17 0.818501 0.181500 0.683345
O O18 0.682839 0.000000 0.679968
#
# Coordination Sequence:
#
# PCOD9584995 Si02
#       7
#    12  12   6   6  12   6  12
#     4   9  18  32  49  69  94 125 162 200 245 288
#     4   9  18  30  45  64  88 120 154 194 236 283
#     4  10  21  32  48  68  94 126 160 190 227 278
#     4  10  19  34  51  72  97 123 158 197 240 284
#     4  10  19  30  44  65  93 124 159 196 236 280
#     4  10  19  32  49  70  95 125 160 199 236 278
#     4  10  20  33  50  71  97 128 162 200 242 287
#
# _framework density 15.367374999999999
#
# number of rings (size 3 to 8) (size 9 to 14) (size 15 to 20)
#    0.182    2.182    0.909    2.091    1.273    1.091 
#    1.091    0.000    0.000    0.545    0.000    2.545 
#    0.000    4.364    0.000    0.182    0.000   37.818 
#
# Total GULP energy -367524.154701 kJ/mol
# GULP energy per Si atom -5568.547798 kJ/mol
# Density = 1.533240 g / cm^3
# Si number density = 15.367375 Si / 1000 Ang^3
#
#
#
# Elastic Constant Matrix: (Units=GPa)
#
#
# Indices 1 2 3 4 5 6 
#
# 1 64.0542 45.3513 28.1081 0.0000 0.0000 0.0000
# 2 45.3513 64.0542 28.1081 0.0000 0.0000 0.0000
# 3 28.1081 28.1081 74.1679 0.0000 0.0000 0.0000
# 4 0.0000 0.0000 0.0000 21.8851 0.0000 0.0000
# 5 0.0000 0.0000 0.0000 0.0000 21.8851 0.0000
# 6 0.0000 0.0000 0.0000 0.0000 0.0000 9.3514
#
#
#
# Elastic Compliance Matrix: (Units=1/GPa)
#
#
# Indices 1 2 3 4 5 6 
#
# 1 0.032409 -0.021059 -0.004302 0.000000 0.000000 0.000000
# 2 -0.021059 0.032409 -0.004302 0.000000 0.000000 0.000000
# 3 -0.004302 -0.004302 0.016743 0.000000 0.000000 0.000000
# 4 0.000000 0.000000 0.000000 0.045693 0.000000 0.000000
# 5 0.000000 0.000000 0.000000 0.000000 0.045693 0.000000
# 6 0.000000 0.000000 0.000000 0.000000 0.000000 0.106935
#
#
# Mechanical properties :
#
#
# Convention : Reuss Voigt Hill
#
# Bulk Modulus (GPa) = 44.96800 45.04573 45.00686
# Shear Modulus (GPa) = 14.42503 17.33824 15.88163
#
# Velocity S-wave (km/s) = 3.06711 3.36259 3.21824
# Velocity P-wave (km/s) = 6.47058 6.66725 6.56965
#
# Compressibility (1/GPa) = 0.02223804
#
# Stress axis : x y z
#
# Youngs Moduli (GPa) = 30.85548 30.85548 59.72499
#
# Poissons Ratio (x) = 0.64977 0.25692
# Poissons Ratio (y) = 0.64977 0.25692
# Poissons Ratio (z) = 0.13273 0.13273
#
# Static dielectric constant tensor:
#      x y z
#    x 1.510860 0.000000 0.000000 
#    y 0.000000 1.510860 0.000000 
#    z 0.000000 0.000000 1.514000 
# 
# From -- ./inp_files/2217.got.cif
#   From: 2010.05.17/outbox.cif.g08.bks.cpg/sg183_2_cif.got.tgz:2217.got - 2010.05.20 12:02:58.
