data_PCOD9584020
_publ_section_title
;
Structure prediction by ZEFSAII (Michael W. Deem and Ramdas Pophale) SiO2 
 PCOD9584020
Probable space group: P 62 2 2
;
_chemical_formula_sum "Si O2"
_cell_formula_units_Z 33
_cell_length_a 15.554420
_cell_length_b 15.554420
_cell_length_c 7.373437
_cell_angle_alpha 90.000000
_cell_angle_beta 90.000000
_cell_angle_gamma 120.000000
_cell_volume 1544.928016
_symmetry_space_group_name_H-M "P 62 2 2"
_symmetry_group_IT_number 180
_symmetry_cell_setting 'hexagonal'
loop_
_space_group_symop_operation_xyz
x,y,z
x-y,x,1/3+z
-y,x-y,2/3+z
-x,-y,z
-x+y,-x,1/3+z
y,-x+y,2/3+z
x-y,-y,-z
-x,-x+y,1/3-z
y,x,2/3-z
-y,-x,2/3-z
-x+y,y,-z
x,x-y,1/3-z
loop_
_atom_site_type_symbol
_atom_site_label
_atom_site_fract_x
_atom_site_fract_y
_atom_site_fract_z
Si Si1 0.500000 0.500000 0.833334
Si Si2 0.260126 0.396903 0.211791
Si Si3 0.379366 0.307670 0.053691
Si Si4 0.711306 0.288695 0.333334
O O1 0.464578 0.403799 0.956084
O O2 0.144808 0.359308 0.261037
O O3 0.303163 0.417939 0.414021
O O4 0.286090 0.322368 0.104921
O O5 0.311431 0.498140 0.098229
O O6 0.642226 0.284451 0.500000
#
# Coordination Sequence:
#
# PCOD9584020 Si02
#       4
#     3  12  12   6
#     4  12  24  38  68 104 138 194 224 290 344 428
#     4  10  24  45  66 101 133 192 240 298 363 427
#     4  10  24  43  69  95 143 183 242 296 363 429
#     4  12  30  44  66  95 142 189 240 296 346 418
#
# _framework density 21.360219000000001
#
# number of rings (size 3 to 8) (size 9 to 14) (size 15 to 20)
#    0.000    1.455    0.000    2.182   15.273    2.909 
#    0.000    0.000    0.000    0.000    0.000    0.000 
#    0.000  832.000    0.000    0.000    0.000    0.000 
#
# Total GULP energy -184177.029453 kJ/mol
# GULP energy per Si atom -5581.122105 kJ/mol
# Density = 2.131160 g / cm^3
# Si number density = 21.360219 Si / 1000 Ang^3
#
#
#
# Elastic Constant Matrix: (Units=GPa)
#
#
# Indices 1 2 3 4 5 6 
#
# 1 132.7029 78.0635 78.6395 0.0000 0.0000 0.0000
# 2 78.0635 132.7029 78.6395 0.0000 0.0000 0.0000
# 3 78.6395 78.6395 181.5642 0.0000 0.0000 0.0000
# 4 0.0000 0.0000 0.0000 52.5818 0.0000 0.0000
# 5 0.0000 0.0000 0.0000 0.0000 52.5818 0.0000
# 6 0.0000 0.0000 0.0000 0.0000 0.0000 27.3197
#
#
#
# Elastic Compliance Matrix: (Units=1/GPa)
#
#
# Indices 1 2 3 4 5 6 
#
# 1 0.012656 -0.005646 -0.003036 0.000000 0.000000 0.000000
# 2 -0.005646 0.012656 -0.003036 0.000000 0.000000 0.000000
# 3 -0.003036 -0.003036 0.008138 0.000000 0.000000 0.000000
# 4 0.000000 0.000000 0.000000 0.019018 0.000000 0.000000
# 5 0.000000 0.000000 0.000000 0.000000 0.019018 0.000000
# 6 0.000000 0.000000 0.000000 0.000000 0.000000 0.036604
#
#
# Mechanical properties :
#
#
# Convention : Reuss Voigt Hill
#
# Bulk Modulus (GPa) = 99.86739 101.96168 100.91453
# Shear Modulus (GPa) = 37.07430 40.60516 38.83973
#
# Velocity S-wave (km/s) = 4.17066 4.36474 4.26880
# Velocity P-wave (km/s) = 8.36946 8.55800 8.46426
#
# Compressibility (1/GPa) = 0.01001328
#
# Stress axis : x y z
#
# Youngs Moduli (GPa) = 79.01329 79.01329 122.88140
#
# Poissons Ratio (x) = 0.44609 0.37311
# Poissons Ratio (y) = 0.44609 0.37311
# Poissons Ratio (z) = 0.23991 0.23991
#
# Static dielectric constant tensor:
#      x y z
#    x 1.857690 0.000000 0.000000 
#    y 0.000000 1.857690 0.000000 
#    z 0.000000 0.000000 1.814660 
# 
# From -- ./inp_files/592.got.cif
#   From: 2010.05.17/outbox.cif.g08.bks.cpg/sg180_1_cif.got.tgz:592.got - 2010.05.20 11:43:55.
