data_PCOD9584329
_publ_section_title
;
Structure prediction by ZEFSAII (Michael W. Deem and Ramdas Pophale) SiO2 
 PCOD9584329
Probable space group: P 64 2 2
;
_chemical_formula_sum "Si O2"
_cell_formula_units_Z 51
_cell_length_a 19.699971
_cell_length_b 19.699971
_cell_length_c 7.009727
_cell_angle_alpha 90.000000
_cell_angle_beta 90.000000
_cell_angle_gamma 120.000000
_cell_volume 2355.932860
_symmetry_space_group_name_H-M "P 64 2 2"
_symmetry_group_IT_number 181
_symmetry_cell_setting 'hexagonal'
loop_
_space_group_symop_operation_xyz
x,y,z
x-y,x,2/3+z
-y,x-y,1/3+z
-x,-y,z
-x+y,-x,2/3+z
y,-x+y,1/3+z
x-y,-y,-z
-x,-x+y,2/3-z
y,x,1/3-z
-y,-x,1/3-z
-x+y,y,-z
x,x-y,2/3-z
loop_
_atom_site_type_symbol
_atom_site_label
_atom_site_fract_x
_atom_site_fract_y
_atom_site_fract_z
Si Si1 0.103293 0.896708 0.166667
Si Si2 0.684068 0.842034 0.333334
Si Si3 0.701466 0.402931 0.500000
Si Si4 0.649353 0.738017 0.679105
Si Si5 0.877840 0.491169 0.518514
Si Si6 0.000000 0.175882 0.833334
Si Si7 0.500000 0.000000 0.500000
O O1 0.079304 0.809581 0.237647
O O2 0.114646 0.958544 0.328903
O O3 0.636742 0.777128 0.491143
O O4 0.743098 0.927611 0.423412
O O5 0.646270 0.353731 0.666667
O O6 0.788779 0.442746 0.587695
O O7 0.669501 0.669501 0.666667
O O8 0.569987 0.693338 0.793380
O O9 0.890669 0.445335 0.333334
O O10 0.941820 0.509903 0.684733
#
# Coordination Sequence:
#
# PCOD9584329 Si02
#       7
#     6   6   6  12  12   6   3
#     4  10  21  36  60  92 128 171 233 284 345 411
#     4  10  22  40  64  95 134 180 224 292 348 401
#     4  10  22  46  72  97 134 181 233 285 336 414
#     4  11  21  41  61  95 133 172 221 287 341 418
#     4  11  25  46  67 103 139 177 237 286 348 430
#     4  10  20  37  62  93 127 183 230 286 354 410
#     4  12  24  46  72  96 140 198 218 296 368 414
#
# _framework density 21.647475
#
# number of rings (size 3 to 8) (size 9 to 14) (size 15 to 20)
#    0.000    1.412    2.353    3.176    0.000    0.941 
#   25.412    0.000    0.000    3.529    0.000    0.000 
#    0.000    0.000    0.000    0.000    0.000    0.000 
#
# Total GULP energy -283950.807876 kJ/mol
# GULP energy per Si atom -5567.662900 kJ/mol
# Density = 2.159820 g / cm^3
# Si number density = 21.647475 Si / 1000 Ang^3
#
#
#
# Elastic Constant Matrix: (Units=GPa)
#
#
# Indices 1 2 3 4 5 6 
#
# 1 88.6535 51.0544 56.7282 0.0000 0.0000 0.0000
# 2 51.0544 88.6535 56.7282 0.0000 0.0000 0.0000
# 3 56.7282 56.7282 126.5743 0.0000 0.0000 0.0000
# 4 0.0000 0.0000 0.0000 1.4641 0.0000 0.0000
# 5 0.0000 0.0000 0.0000 0.0000 1.4641 0.0000
# 6 0.0000 0.0000 0.0000 0.0000 0.0000 18.7995
#
#
#
# Elastic Compliance Matrix: (Units=1/GPa)
#
#
# Indices 1 2 3 4 5 6 
#
# 1 0.018925 -0.007671 -0.005044 0.000000 0.000000 0.000000
# 2 -0.007671 0.018925 -0.005044 0.000000 0.000000 0.000000
# 3 -0.005044 -0.005044 0.012422 0.000000 0.000000 0.000000
# 4 0.000000 0.000000 0.000000 0.683023 0.000000 0.000000
# 5 0.000000 0.000000 0.000000 0.000000 0.683023 0.000000
# 6 0.000000 0.000000 0.000000 0.000000 0.000000 0.053193
#
#
# Mechanical properties :
#
#
# Convention : Reuss Voigt Hill
#
# Bulk Modulus (GPa) = 67.77753 70.32255 69.05004
# Shear Modulus (GPa) = 3.31137 13.63689 8.47413
#
# Velocity S-wave (km/s) = 1.23814 2.51261 1.98068
# Velocity P-wave (km/s) = 5.78115 6.40105 6.09898
#
# Compressibility (1/GPa) = 0.01475415
#
# Stress axis : x y z
#
# Youngs Moduli (GPa) = 52.83983 52.83983 80.50543
#
# Poissons Ratio (x) = 0.40535 0.40605
# Poissons Ratio (y) = 0.40535 0.40605
# Poissons Ratio (z) = 0.26651 0.26651
#
# Static dielectric constant tensor:
#      x y z
#    x 2.002850 0.000000 0.000000 
#    y 0.000000 2.002850 0.000000 
#    z 0.000000 0.000000 1.855150 
# 
# From -- ./inp_files/2854.got.cif
#   From: 2010.05.17/outbox.cif.g08.bks.cpg/sg181_2_cif.got.tgz:2854.got - 2010.05.20 11:51:17.
