data_PCOD9584413
_publ_section_title
;
Structure prediction by ZEFSAII (Michael W. Deem and Ramdas Pophale) SiO2 
 PCOD9584413
Probable space group: P 64 2 2
;
_chemical_formula_sum "Si O2"
_cell_formula_units_Z 63
_cell_length_a 13.807372
_cell_length_b 13.807372
_cell_length_c 16.812249
_cell_angle_alpha 90.000000
_cell_angle_beta 90.000000
_cell_angle_gamma 120.000000
_cell_volume 2775.738166
_symmetry_space_group_name_H-M "P 64 2 2"
_symmetry_group_IT_number 181
_symmetry_cell_setting 'hexagonal'
loop_
_space_group_symop_operation_xyz
x,y,z
x-y,x,2/3+z
-y,x-y,1/3+z
-x,-y,z
-x+y,-x,2/3+z
y,-x+y,1/3+z
x-y,-y,-z
-x,-x+y,2/3-z
y,x,1/3-z
-y,-x,1/3-z
-x+y,y,-z
x,x-y,2/3-z
loop_
_atom_site_type_symbol
_atom_site_label
_atom_site_fract_x
_atom_site_fract_y
_atom_site_fract_z
Si Si1 0.300973 0.360904 0.584388
Si Si2 0.161018 0.367879 0.182955
Si Si3 0.298479 0.415346 0.045462
Si Si4 0.500000 0.000000 0.500000
Si Si5 0.577066 0.397539 0.857472
Si Si6 0.287560 0.881486 0.319485
O O1 0.363634 0.363634 0.666667
O O2 0.284978 0.249829 0.542797
O O3 0.371682 0.470892 0.531322
O O4 0.186393 0.359576 0.603492
O O5 0.204337 0.330955 0.107497
O O6 0.162537 0.482375 0.160250
O O7 0.246722 0.400832 0.256828
O O8 0.401393 0.481932 0.105938
O O9 0.235256 0.470512 0.000000
O O10 0.336372 0.350992 0.985468
O O11 0.609472 0.304736 0.833334
O O12 0.526016 0.370950 0.946588
#
# Coordination Sequence:
#
# PCOD9584413 Si02
#       6
#    12  12  12   3  12  12
#     4   9  20  38  66  96 134 176 233 301 356 417
#     4  11  22  39  65  99 137 186 237 292 355 428
#     4  12  27  45  72 101 142 197 238 290 370 442
#     4  12  28  52  72 112 154 188 258 308 360 462
#     4  10  22  36  60  96 138 184 234 285 361 432
#     4  10  22  44  65  98 137 179 234 298 353 432
#
# _framework density 22.696666
#
# number of rings (size 3 to 8) (size 9 to 14) (size 15 to 20)
#    0.000    1.524    1.905    1.714    4.000    9.143 
#    0.000    0.000    0.000    5.143   14.857    0.000 
#    0.000    0.000    0.000    0.000    0.000    0.000 
#
# Total GULP energy -352248.211840 kJ/mol
# GULP energy per Si atom -5591.241458 kJ/mol
# Density = 2.264501 g / cm^3
# Si number density = 22.696666 Si / 1000 Ang^3
#
#
#
# Elastic Constant Matrix: (Units=GPa)
#
#
# Indices 1 2 3 4 5 6 
#
# 1 101.6607 52.3613 28.9848 0.0000 0.0000 0.0000
# 2 52.3613 101.6607 28.9848 0.0000 0.0000 0.0000
# 3 28.9848 28.9848 95.1969 0.0000 0.0000 0.0000
# 4 0.0000 0.0000 0.0000 30.8053 0.0000 0.0000
# 5 0.0000 0.0000 0.0000 0.0000 30.8053 0.0000
# 6 0.0000 0.0000 0.0000 0.0000 0.0000 24.6497
#
#
#
# Elastic Compliance Matrix: (Units=1/GPa)
#
#
# Indices 1 2 3 4 5 6 
#
# 1 0.013809 -0.006476 -0.002233 0.000000 0.000000 0.000000
# 2 -0.006476 0.013809 -0.002233 0.000000 0.000000 0.000000
# 3 -0.002233 -0.002233 0.011864 0.000000 0.000000 0.000000
# 4 0.000000 0.000000 0.000000 0.032462 0.000000 0.000000
# 5 0.000000 0.000000 0.000000 0.000000 0.032462 0.000000
# 6 0.000000 0.000000 0.000000 0.000000 0.000000 0.040568
#
#
# Mechanical properties :
#
#
# Convention : Reuss Voigt Hill
#
# Bulk Modulus (GPa) = 56.82060 57.68668 57.25364
# Shear Modulus (GPa) = 28.94826 29.79789 29.37307
#
# Velocity S-wave (km/s) = 3.57521 3.62729 3.60134
# Velocity P-wave (km/s) = 6.49091 6.55855 6.52482
#
# Compressibility (1/GPa) = 0.01759925
#
# Stress axis : x y z
#
# Youngs Moduli (GPa) = 72.41887 72.41887 84.28786
#
# Poissons Ratio (x) = 0.46896 0.18819
# Poissons Ratio (y) = 0.46896 0.18819
# Poissons Ratio (z) = 0.16169 0.16169
#
# Static dielectric constant tensor:
#      x y z
#    x 1.836670 0.000000 0.000000 
#    y 0.000000 1.836670 0.000000 
#    z 0.000000 0.000000 1.956680 
# 
# From -- ./inp_files/7662.got.cif
#   From: 2010.05.17/outbox.cif.g08.bks.cpg/sg181_4_cif.got.tgz:7662.got - 2010.05.20 11:51:17.
