data_PCOD9584330
_publ_section_title
;
Structure prediction by ZEFSAII (Michael W. Deem and Ramdas Pophale) SiO2 
 PCOD9584330
Probable space group: P 64 2 2
;
_chemical_formula_sum "Si O2"
_cell_formula_units_Z 60
_cell_length_a 16.655377
_cell_length_b 16.655377
_cell_length_c 11.681030
_cell_angle_alpha 90.000000
_cell_angle_beta 90.000000
_cell_angle_gamma 120.000000
_cell_volume 2806.213477
_symmetry_space_group_name_H-M "P 64 2 2"
_symmetry_group_IT_number 181
_symmetry_cell_setting 'hexagonal'
loop_
_space_group_symop_operation_xyz
x,y,z
x-y,x,2/3+z
-y,x-y,1/3+z
-x,-y,z
-x+y,-x,2/3+z
y,-x+y,1/3+z
x-y,-y,-z
-x,-x+y,2/3-z
y,x,1/3-z
-y,-x,1/3-z
-x+y,y,-z
x,x-y,2/3-z
loop_
_atom_site_type_symbol
_atom_site_label
_atom_site_fract_x
_atom_site_fract_y
_atom_site_fract_z
Si Si1 0.629570 0.965213 0.630887
Si Si2 0.412653 0.796733 0.843557
Si Si3 0.500000 0.000000 0.791728
Si Si4 0.000000 0.856982 0.333334
Si Si5 0.445601 0.784657 0.605068
Si Si6 0.978727 0.802675 0.073934
O O1 0.551862 0.857179 0.626813
O O2 0.649257 0.000000 0.500000
O O3 0.582024 0.011160 0.707397
O O4 0.720328 0.980205 0.695036
O O5 0.457545 0.728773 0.833334
O O6 0.386547 0.788474 0.710486
O O7 0.317964 0.745182 0.913902
O O8 0.471755 0.906248 0.863295
O O9 0.028181 0.827074 0.453653
O O10 0.909227 0.861214 0.370318
O O11 0.408121 0.816242 0.500000
O O12 0.886052 0.772103 0.000000
#
# Coordination Sequence:
#
# PCOD9584330 Si02
#       6
#    12  12   6   6  12  12
#     4  11  22  38  63  96 127 167 225 284 338 404
#     4  10  20  38  62  88 121 167 221 271 342 419
#     4  10  23  40  61  90 134 173 220 292 353 414
#     4  10  23  44  66  99 138 176 220 278 347 404
#     4  10  20  37  63  91 123 166 217 280 338 404
#     4  11  23  42  70  98 134 177 227 275 339 419
#
# _framework density 21.381125000000001
#
# number of rings (size 3 to 8) (size 9 to 14) (size 15 to 20)
#    0.000    1.600    0.000    7.200    0.000    4.800 
#   14.400    2.000    8.800    0.000    0.000    0.000 
#    0.000    0.000    0.000    0.000    0.000    0.000 
#
# Total GULP energy -334407.505029 kJ/mol
# GULP energy per Si atom -5573.458417 kJ/mol
# Density = 2.133246 g / cm^3
# Si number density = 21.381125 Si / 1000 Ang^3
#
#
#
# Elastic Constant Matrix: (Units=GPa)
#
#
# Indices 1 2 3 4 5 6 
#
# 1 100.7549 87.6606 45.5001 0.0000 0.0000 0.0000
# 2 87.6606 100.7549 45.5001 0.0000 0.0000 0.0000
# 3 45.5001 45.5001 136.0947 0.0000 0.0000 0.0000
# 4 0.0000 0.0000 0.0000 117.5239 0.0000 0.0000
# 5 0.0000 0.0000 0.0000 0.0000 117.5239 0.0000
# 6 0.0000 0.0000 0.0000 0.0000 0.0000 6.5472
#
#
#
# Elastic Compliance Matrix: (Units=1/GPa)
#
#
# Indices 1 2 3 4 5 6 
#
# 1 0.041349 -0.035020 -0.002116 0.000000 0.000000 0.000000
# 2 -0.035020 0.041349 -0.002116 0.000000 0.000000 0.000000
# 3 -0.002116 -0.002116 0.008763 0.000000 0.000000 0.000000
# 4 0.000000 0.000000 0.000000 0.008509 0.000000 0.000000
# 5 0.000000 0.000000 0.000000 0.000000 0.008509 0.000000
# 6 0.000000 0.000000 0.000000 0.000000 0.000000 0.152738
#
#
# Mechanical properties :
#
#
# Convention : Reuss Voigt Hill
#
# Bulk Modulus (GPa) = 77.17693 77.21403 77.19548
# Shear Modulus (GPa) = 14.53318 58.91525 36.72422
#
# Velocity S-wave (km/s) = 2.60997 5.25496 4.14889
# Velocity P-wave (km/s) = 6.72732 8.54465 7.68986
#
# Compressibility (1/GPa) = 0.01295724
#
# Stress axis : x y z
#
# Youngs Moduli (GPa) = 24.18424 24.18424 114.11924
#
# Poissons Ratio (x) = 0.84693 0.24149
# Poissons Ratio (y) = 0.84693 0.24149
# Poissons Ratio (z) = 0.05118 0.05118
#
# Static dielectric constant tensor:
#      x y z
#    x 1.790960 0.000000 0.000000 
#    y 0.000000 1.790960 0.000000 
#    z 0.000000 0.000000 1.895830 
# 
# From -- ./inp_files/4920.got.cif
#   From: 2010.05.17/outbox.cif.g08.bks.cpg/sg181_3_cif.got.tgz:4920.got - 2010.05.20 11:51:17.
