data_PCOD9584853
_publ_section_title
;
Structure prediction by ZEFSAII (Michael W. Deem and Ramdas Pophale) SiO2 
 PCOD9584853
Probable space group: P 63 2 2
;
_chemical_formula_sum "Si O2"
_cell_formula_units_Z 84
_cell_length_a 31.143229
_cell_length_b 31.143229
_cell_length_c 5.325806
_cell_angle_alpha 90.000000
_cell_angle_beta 90.000000
_cell_angle_gamma 120.000000
_cell_volume 4473.456851
_symmetry_space_group_name_H-M "P 63 2 2"
_symmetry_group_IT_number 182
_symmetry_cell_setting 'hexagonal'
loop_
_space_group_symop_operation_xyz
x,y,z
x-y,x,1/2+z
-y,x-y,z
-x,-y,1/2+z
-x+y,-x,z
y,-x+y,1/2+z
x-y,-y,-z
-x,-x+y,-z
y,x,-z
-y,-x,1/2-z
-x+y,y,1/2-z
x,x-y,1/2-z
loop_
_atom_site_type_symbol
_atom_site_label
_atom_site_fract_x
_atom_site_fract_y
_atom_site_fract_z
Si Si1 0.793252 0.304985 0.776038
Si Si2 0.837871 0.466988 0.217010
Si Si3 0.599386 0.858568 0.357396
Si Si4 0.348438 0.215343 0.157617
Si Si5 0.725709 0.707870 0.255491
Si Si6 0.434033 0.941713 0.454922
Si Si7 0.961974 0.606460 0.691870
O O1 0.734035 0.265966 0.750000
O O2 0.814257 0.341700 0.540126
O O3 0.819491 0.272398 0.750093
O O4 0.816581 0.334854 0.039076
O O5 0.819689 0.409845 0.250000
O O6 0.898125 0.492386 0.166909
O O7 0.608293 0.843152 0.630152
O O8 0.599828 0.910048 0.395602
O O9 0.637278 0.864186 0.134468
O O10 0.317282 0.158641 0.250000
O O11 0.323431 0.247417 0.228406
O O12 0.740775 0.740775 0.500000
O O13 0.665225 0.672810 0.260246
O O14 0.737012 0.737012 0.000000
O O15 0.462218 0.924436 0.250000
O O16 0.387051 0.947311 0.370555
O O17 0.475633 0.000000 0.500000
O O18 0.000000 0.603687 0.500000
#
# Coordination Sequence:
#
# PCOD9584853 Si02
#       7
#    12  12  12  12  12  12  12
#     4  12  26  46  71 101 127 156 194 247 306 378
#     4  12  27  48  73  96 131 168 200 240 313 373
#     4  12  24  39  60  90 118 158 198 241 300 359
#     4  12  23  38  57  87 120 155 204 261 303 354
#     4  11  20  36  54  79 108 154 199 238 297 355
#     4  12  26  41  61  96 131 171 212 257 288 358
#     4  11  22  37  62  84 120 164 212 241 296 360
#
# _framework density 18.777422999999999
#
# number of rings (size 3 to 8) (size 9 to 14) (size 15 to 20)
#    0.000    0.286    5.714    5.143    2.000    0.000 
#    0.000    0.000    0.000    5.714    0.000    0.000 
#    0.000    0.000    0.000    0.000    0.000    0.000 
#
# Total GULP energy -467682.695508 kJ/mol
# GULP energy per Si atom -5567.651137 kJ/mol
# Density = 1.873468 g / cm^3
# Si number density = 18.777423 Si / 1000 Ang^3
#
#
#
# Elastic Constant Matrix: (Units=GPa)
#
#
# Indices 1 2 3 4 5 6 
#
# 1 70.6316 46.1577 34.9659 0.0000 0.0000 0.0000
# 2 46.1577 70.6316 34.9659 0.0000 0.0000 0.0000
# 3 34.9659 34.9659 138.5865 0.0000 0.0000 0.0000
# 4 0.0000 0.0000 0.0000 33.5016 0.0000 0.0000
# 5 0.0000 0.0000 0.0000 0.0000 33.5016 0.0000
# 6 0.0000 0.0000 0.0000 0.0000 0.0000 12.2370
#
#
#
# Elastic Compliance Matrix: (Units=1/GPa)
#
#
# Indices 1 2 3 4 5 6 
#
# 1 0.025473 -0.015387 -0.002545 0.000000 0.000000 0.000000
# 2 -0.015387 0.025473 -0.002545 0.000000 0.000000 0.000000
# 3 -0.002545 -0.002545 0.008500 0.000000 0.000000 0.000000
# 4 0.000000 0.000000 0.000000 0.029849 0.000000 0.000000
# 5 0.000000 0.000000 0.000000 0.000000 0.029849 0.000000
# 6 0.000000 0.000000 0.000000 0.000000 0.000000 0.081720
#
#
# Mechanical properties :
#
#
# Convention : Reuss Voigt Hill
#
# Bulk Modulus (GPa) = 54.07423 56.89209 55.48316
# Shear Modulus (GPa) = 20.16283 26.76539 23.46411
#
# Velocity S-wave (km/s) = 3.28041 3.77955 3.53879
# Velocity P-wave (km/s) = 6.57329 7.02926 6.80510
#
# Compressibility (1/GPa) = 0.01849310
#
# Stress axis : x y z
#
# Youngs Moduli (GPa) = 39.25725 39.25725 117.64942
#
# Poissons Ratio (x) = 0.60404 0.29939
# Poissons Ratio (y) = 0.60404 0.29939
# Poissons Ratio (z) = 0.09990 0.09990
#
# Static dielectric constant tensor:
#      x y z
#    x 1.650650 0.000000 0.000000 
#    y 0.000000 1.650650 0.000000 
#    z 0.000000 0.000000 1.859670 
# 
# From -- ./inp_files/845.got.cif
#   From: 2010.05.17/outbox.cif.g08.bks.cpg/sg182_1_cif.got.tgz:845.got - 2010.05.20 11:58:53.
