data_PCOD9584378
_publ_section_title
;
Structure prediction by ZEFSAII (Michael W. Deem and Ramdas Pophale) SiO2 
 PCOD9584378
Probable space group: P 64 2 2
;
_chemical_formula_sum "Si O2"
_cell_formula_units_Z 54
_cell_length_a 11.784837
_cell_length_b 11.784837
_cell_length_c 19.067657
_cell_angle_alpha 90.000000
_cell_angle_beta 90.000000
_cell_angle_gamma 120.000000
_cell_volume 2293.375258
_symmetry_space_group_name_H-M "P 64 2 2"
_symmetry_group_IT_number 181
_symmetry_cell_setting 'hexagonal'
loop_
_space_group_symop_operation_xyz
x,y,z
x-y,x,2/3+z
-y,x-y,1/3+z
-x,-y,z
-x+y,-x,2/3+z
y,-x+y,1/3+z
x-y,-y,-z
-x,-x+y,2/3-z
y,x,1/3-z
-y,-x,1/3-z
-x+y,y,-z
x,x-y,2/3-z
loop_
_atom_site_type_symbol
_atom_site_label
_atom_site_fract_x
_atom_site_fract_y
_atom_site_fract_z
Si Si1 0.617943 0.635031 0.749881
Si Si2 0.141031 0.705286 0.046887
Si Si3 0.227139 0.029812 0.192669
Si Si4 0.025489 0.699726 0.754538
Si Si5 0.465134 0.732567 0.333334
O O1 0.500000 0.500000 0.777665
O O2 0.625319 0.625319 0.666667
O O3 0.580541 0.747253 0.752480
O O4 0.754166 0.683856 0.789453
O O5 0.019209 0.690861 0.093014
O O6 0.207257 0.615566 0.038548
O O7 0.088391 0.710224 0.968875
O O8 0.220378 0.145354 0.232991
O O9 0.086549 0.913452 0.166667
O O10 0.154756 0.707338 0.721939
O O11 0.000000 0.644001 0.833334
#
# Coordination Sequence:
#
# PCOD9584378 Si02
#       5
#    12  12  12  12   6
#     4  10  21  39  65  98 138 176 235 296 362 438
#     4  11  24  46  68 108 141 193 239 306 388 452
#     4  10  23  44  73 102 142 192 244 305 384 456
#     4  12  26  45  72 104 148 196 257 310 386 468
#     4  12  26  44  73 101 160 192 254 320 388 468
#
# _framework density 23.546078999999999
#
# number of rings (size 3 to 8) (size 9 to 14) (size 15 to 20)
#    0.000    1.111    2.222    3.333    3.111    2.222 
#    8.000    0.000    4.889    0.000    0.000    0.000 
#    0.000    0.000    0.000    0.000    0.000    0.000 
#
# Total GULP energy -301074.210954 kJ/mol
# GULP energy per Si atom -5575.448351 kJ/mol
# Density = 2.349249 g / cm^3
# Si number density = 23.546079 Si / 1000 Ang^3
#
#
#
# Elastic Constant Matrix: (Units=GPa)
#
#
# Indices 1 2 3 4 5 6 
#
# 1 92.5076 34.3035 27.6248 0.0000 0.0000 0.0000
# 2 34.3035 92.5076 27.6248 0.0000 0.0000 0.0000
# 3 27.6248 27.6248 111.6202 0.0000 0.0000 0.0000
# 4 0.0000 0.0000 0.0000 95.6178 0.0000 0.0000
# 5 0.0000 0.0000 0.0000 0.0000 95.6178 0.0000
# 6 0.0000 0.0000 0.0000 0.0000 0.0000 29.1021
#
#
#
# Elastic Compliance Matrix: (Units=1/GPa)
#
#
# Indices 1 2 3 4 5 6 
#
# 1 0.013010 -0.004171 -0.002188 0.000000 0.000000 0.000000
# 2 -0.004171 0.013010 -0.002188 0.000000 0.000000 0.000000
# 3 -0.002188 -0.002188 0.010042 0.000000 0.000000 0.000000
# 4 0.000000 0.000000 0.000000 0.010458 0.000000 0.000000
# 5 0.000000 0.000000 0.000000 0.000000 0.010458 0.000000
# 6 0.000000 0.000000 0.000000 0.000000 0.000000 0.034362
#
#
# Mechanical properties :
#
#
# Convention : Reuss Voigt Hill
#
# Bulk Modulus (GPa) = 52.71680 52.86021 52.78851
# Shear Modulus (GPa) = 43.57103 57.87301 50.72202
#
# Velocity S-wave (km/s) = 4.30636 4.96306 4.64633
# Velocity P-wave (km/s) = 6.86758 7.43916 7.15908
#
# Compressibility (1/GPa) = 0.01896929
#
# Stress axis : x y z
#
# Youngs Moduli (GPa) = 76.86477 76.86477 99.58448
#
# Poissons Ratio (x) = 0.32061 0.21784
# Poissons Ratio (y) = 0.32061 0.21784
# Poissons Ratio (z) = 0.16814 0.16814
#
# Static dielectric constant tensor:
#      x y z
#    x 1.541260 0.000000 0.000000 
#    y 0.000000 1.541260 0.000000 
#    z 0.000000 0.000000 1.947010 
# 
# From -- ./inp_files/8785.got.cif
#   From: 2010.05.17/outbox.cif.g08.bks.cpg/sg181_5_cif.got.tgz:8785.got - 2010.05.20 11:51:17.
