data_PCOD9584909
_publ_section_title
;
Structure prediction by ZEFSAII (Michael W. Deem and Ramdas Pophale) SiO2 
 PCOD9584909
Probable space group: P 63 2 2
;
_chemical_formula_sum "Si O2"
_cell_formula_units_Z 54
_cell_length_a 12.000000
_cell_length_b 12.000000
_cell_length_c 24.000000
_cell_angle_alpha 90.000000
_cell_angle_beta 90.000000
_cell_angle_gamma 120.000000
_cell_volume 2992.983795
_symmetry_space_group_name_H-M "P 63 2 2"
_symmetry_group_IT_number 182
_symmetry_cell_setting 'hexagonal'
loop_
_space_group_symop_operation_xyz
x,y,z
x-y,x,1/2+z
-y,x-y,z
-x,-y,1/2+z
-x+y,-x,z
y,-x+y,1/2+z
x-y,-y,-z
-x,-x+y,-z
y,x,-z
-y,-x,1/2-z
-x+y,y,1/2-z
x,x-y,1/2-z
loop_
_atom_site_type_symbol
_atom_site_label
_atom_site_fract_x
_atom_site_fract_y
_atom_site_fract_z
Si Si1 0.732816 0.958085 0.435469
Si Si2 0.333335 0.666668 0.458405
Si Si3 0.580746 0.161492 0.250000
Si Si4 0.514430 0.932441 0.631902
Si Si5 0.929099 0.344921 0.558838
Si Si6 0.333334 0.666668 0.909581
Si Si7 0.000000 0.000000 0.932585
O O1 0.680083 0.805878 0.435028
O O2 0.727862 0.000000 0.500000
O O3 0.646819 0.990791 0.394866
O O4 0.881499 0.020937 0.416981
O O5 0.443109 0.638271 0.439753
O O6 0.333334 0.666667 0.524840
O O7 0.735155 0.264846 0.250000
O O8 0.511471 0.073229 0.197133
O O9 0.461532 0.786010 0.613254
O O10 0.421463 0.977039 0.603806
O O11 0.000000 0.389182 0.500000
O O12 0.000000 0.000000 0.000000
#
# Coordination Sequence:
#
# PCOD9584909 Si02
#       7
#    12   4   6  12  12   4   4
#     4  11  23  39  58  90 132 168 200 242 306 388
#     4  12  21  36  52 101 136 162 198 244 320 385
#     4  10  22  42  62  90 118 152 214 280 314 362
#     4  12  23  38  63  91 120 159 208 270 318 356
#     4  12  23  36  61  92 133 166 201 251 313 381
#     4  12  21  34  67  93 121 160 204 256 326 358
#     4   9  21  36  57  84 130 179 199 222 295 395
#
# _framework density 18.042196000000001
#
# number of rings (size 3 to 8) (size 9 to 14) (size 15 to 20)
#    0.222    0.444    6.667    4.000    3.111    0.000 
#    0.000    1.111    0.000    0.000    0.000    0.000 
#    0.000    0.000    0.000    0.000    0.000    0.000 
#
# Total GULP energy -301077.517267 kJ/mol
# GULP energy per Si atom -5575.509579 kJ/mol
# Density = 1.800113 g / cm^3
# Si number density = 18.042196 Si / 1000 Ang^3
#
#
#
# Elastic Constant Matrix: (Units=GPa)
#
#
# Indices 1 2 3 4 5 6 
#
# 1 96.3199 28.2331 35.6940 -0.0006 0.0003 -0.0001
# 2 28.2331 96.3191 35.6928 -0.0014 -0.0029 -0.0002
# 3 35.6940 35.6928 113.2504 -0.0015 0.0014 -0.0002
# 4 -0.0006 -0.0014 -0.0015 51.4845 -0.0111 0.0016
# 5 0.0003 -0.0029 0.0014 -0.0111 51.4868 -0.0004
# 6 -0.0001 -0.0002 -0.0002 0.0016 -0.0004 34.0428
#
#
#
# Elastic Compliance Matrix: (Units=1/GPa)
#
#
# Indices 1 2 3 4 5 6 
#
# 1 0.012243 -0.002444 -0.003088 0.000000 0.000000 0.000000
# 2 -0.002444 0.012243 -0.003088 0.000000 0.000001 0.000000
# 3 -0.003088 -0.003088 0.010777 0.000000 0.000000 0.000000
# 4 0.000000 0.000000 0.000000 0.019423 0.000004 -0.000001
# 5 0.000000 0.000001 0.000000 0.000004 0.019422 0.000000
# 6 0.000000 0.000000 0.000000 -0.000001 0.000000 0.029375
#
#
# Mechanical properties :
#
#
# Convention : Reuss Voigt Hill
#
# Bulk Modulus (GPa) = 55.49071 56.12547 55.80809
# Shear Modulus (GPa) = 39.45337 41.15413 40.30375
#
# Velocity S-wave (km/s) = 4.68132 4.78116 4.73150
# Velocity P-wave (km/s) = 7.74871 7.85205 7.80055
#
# Compressibility (1/GPa) = 0.01802103
#
# Stress axis : x y z
#
# Youngs Moduli (GPa) = 81.67938 81.67935 92.79290
#
# Poissons Ratio (x) = 0.19964 0.28658
# Poissons Ratio (y) = 0.19964 0.28657
# Poissons Ratio (z) = 0.25226 0.25224
#
# Static dielectric constant tensor:
#      x y z
#    x 1.623570 0.000000 0.000000 
#    y 0.000000 1.623570 0.000000 
#    z 0.000000 0.000000 1.606640 
# 
# From -- ./inp_files/5222.got.cif
#   From: 2010.05.17/outbox.ucp.g08.bks.cvg/sg182_3_cif.got.tgz:5222.got - 2010.06.11 15:20:57.
