data_PCOD9584128
_publ_section_title
;
Structure prediction by ZEFSAII (Michael W. Deem and Ramdas Pophale) SiO2 
 PCOD9584128
Probable space group: P 62 2 2
;
_chemical_formula_sum "Si O2"
_cell_formula_units_Z 48
_cell_length_a 14.870846
_cell_length_b 14.870846
_cell_length_c 12.381278
_cell_angle_alpha 90.000000
_cell_angle_beta 90.000000
_cell_angle_gamma 120.000000
_cell_volume 2371.196029
_symmetry_space_group_name_H-M "P 62 2 2"
_symmetry_group_IT_number 180
_symmetry_cell_setting 'hexagonal'
loop_
_space_group_symop_operation_xyz
x,y,z
x-y,x,1/3+z
-y,x-y,2/3+z
-x,-y,z
-x+y,-x,1/3+z
y,-x+y,2/3+z
x-y,-y,-z
-x,-x+y,1/3-z
y,x,2/3-z
-y,-x,2/3-z
-x+y,y,-z
x,x-y,1/3-z
loop_
_atom_site_type_symbol
_atom_site_label
_atom_site_fract_x
_atom_site_fract_y
_atom_site_fract_z
Si Si1 0.351241 0.889184 0.058935
Si Si2 0.614733 0.183315 0.379378
Si Si3 0.081966 0.369098 0.963079
Si Si4 0.742183 0.591310 0.611974
O O1 0.340447 0.899982 0.187658
O O2 0.423669 0.847337 0.000000
O O3 0.231276 0.820361 0.030863
O O4 0.397790 0.000000 0.000000
O O5 0.715989 0.284012 0.333334
O O6 0.606694 0.213388 0.500000
O O7 0.641254 0.091457 0.387125
O O8 0.514702 0.151385 0.306046
O O9 0.964868 0.276923 0.951382
O O10 0.170642 0.341283 0.000000
O O11 0.792805 0.585609 0.500000
#
# Coordination Sequence:
#
# PCOD9584128 Si02
#       4
#    12  12  12  12
#     4  11  23  41  66  96 129 166 217 275 330 408
#     4  11  23  39  60  94 138 174 214 265 331 401
#     4  11  25  42  61  95 134 172 221 280 328 394
#     4  12  22  38  66  92 123 176 223 267 335 404
#
# _framework density 20.242948999999999
#
# number of rings (size 3 to 8) (size 9 to 14) (size 15 to 20)
#    0.000    0.750    2.500    6.750    3.500    5.000 
#    0.000    0.000    0.000    0.750    0.000    0.000 
#    0.000    0.000    0.000    0.000    0.000    0.000 
#
# Total GULP energy -267380.326882 kJ/mol
# GULP energy per Si atom -5570.423477 kJ/mol
# Density = 2.019688 g / cm^3
# Si number density = 20.242949 Si / 1000 Ang^3
#
#
#
# Elastic Constant Matrix: (Units=GPa)
#
#
# Indices 1 2 3 4 5 6 
#
# 1 85.8106 73.7713 31.4401 0.0000 0.0000 0.0000
# 2 73.7713 85.8106 31.4401 0.0000 0.0000 0.0000
# 3 31.4401 31.4401 82.0760 0.0000 0.0000 0.0000
# 4 0.0000 0.0000 0.0000 26.2337 0.0000 0.0000
# 5 0.0000 0.0000 0.0000 0.0000 26.2337 0.0000
# 6 0.0000 0.0000 0.0000 0.0000 0.0000 6.0197
#
#
#
# Elastic Compliance Matrix: (Units=1/GPa)
#
#
# Indices 1 2 3 4 5 6 
#
# 1 0.045221 -0.037840 -0.002827 0.000000 0.000000 0.000000
# 2 -0.037840 0.045221 -0.002827 0.000000 0.000000 0.000000
# 3 -0.002827 -0.002827 0.014350 0.000000 0.000000 0.000000
# 4 0.000000 0.000000 0.000000 0.038119 0.000000 0.000000
# 5 0.000000 0.000000 0.000000 0.000000 0.038119 0.000000
# 6 0.000000 0.000000 0.000000 0.000000 0.000000 0.166123
#
#
# Mechanical properties :
#
#
# Convention : Reuss Voigt Hill
#
# Bulk Modulus (GPa) = 56.17361 58.55560 57.36461
# Shear Modulus (GPa) = 11.36170 19.50046 15.43108
#
# Velocity S-wave (km/s) = 2.37168 3.10711 2.76396
# Velocity P-wave (km/s) = 5.94220 6.47004 6.21173
#
# Compressibility (1/GPa) = 0.01780195
#
# Stress axis : x y z
#
# Youngs Moduli (GPa) = 22.11371 22.11371 69.68759
#
# Poissons Ratio (x) = 0.83679 0.19702
# Poissons Ratio (y) = 0.83679 0.19702
# Poissons Ratio (z) = 0.06252 0.06252
#
# Static dielectric constant tensor:
#      x y z
#    x 1.746360 0.000000 0.000000 
#    y 0.000000 1.746360 0.000000 
#    z 0.000000 0.000000 1.857240 
# 
# From -- ./inp_files/4365.got.cif
#   From: 2010.05.17/outbox.cif.g08.bks.cpg/sg180_3_cif.got.tgz:4365.got - 2010.05.20 11:43:55.
