data_PCOD9584242
_publ_section_title
;
Structure prediction by ZEFSAII (Michael W. Deem and Ramdas Pophale) SiO2 
 PCOD9584242
Probable space group: P 64 2 2
;
_chemical_formula_sum "Si O2"
_cell_formula_units_Z 84
_cell_length_a 24.559563
_cell_length_b 24.559563
_cell_length_c 12.103231
_cell_angle_alpha 90.000000
_cell_angle_beta 90.000000
_cell_angle_gamma 120.000000
_cell_volume 6322.272691
_symmetry_space_group_name_H-M "P 64 2 2"
_symmetry_group_IT_number 181
_symmetry_cell_setting 'hexagonal'
loop_
_space_group_symop_operation_xyz
x,y,z
x-y,x,2/3+z
-y,x-y,1/3+z
-x,-y,z
-x+y,-x,2/3+z
y,-x+y,1/3+z
x-y,-y,-z
-x,-x+y,2/3-z
y,x,1/3-z
-y,-x,1/3-z
-x+y,y,-z
x,x-y,2/3-z
loop_
_atom_site_type_symbol
_atom_site_label
_atom_site_fract_x
_atom_site_fract_y
_atom_site_fract_z
Si Si1 0.493862 0.861732 0.536525
Si Si2 0.072235 0.484911 0.574662
Si Si3 0.701878 0.534145 0.977664
Si Si4 0.149602 0.637508 0.301285
Si Si5 0.286882 0.553739 0.320646
Si Si6 0.609135 0.064831 0.823704
Si Si7 0.398046 0.739086 0.229449
O O1 0.426371 0.852742 0.500000
O O2 0.521672 0.915213 0.630204
O O3 0.529482 0.862528 0.425836
O O4 0.484402 0.799558 0.595764
O O5 0.126451 0.494849 0.489924
O O6 0.072441 0.551086 0.560188
O O7 0.009604 0.424422 0.528850
O O8 0.773961 0.547921 0.000000
O O9 0.677190 0.571144 0.901351
O O10 0.665625 0.466137 0.914735
O O11 0.165920 0.582960 0.333334
O O12 0.214249 0.702149 0.316350
O O13 0.092217 0.621257 0.385312
O O14 0.287866 0.600015 0.222806
O O15 0.337290 0.592617 0.415036
O O16 0.399057 0.699529 0.333334
#
# Coordination Sequence:
#
# PCOD9584242 Si02
#       7
#    12  12  12  12  12  12  12
#     4  12  20  32  45  60  85 102 128 163 195 243
#     4  10  22  33  47  61  76 103 134 167 191 235
#     4  11  19  32  49  62  83 105 129 154 203 253
#     4  10  21  33  45  62  77 101 136 162 197 244
#     4  12  21  32  44  59  85 106 130 162 204 253
#     4  10  18  36  49  59  78 101 130 163 204 234
#     4  11  19  30  41  59  77 108 122 148 197 247
#
# _framework density 13.286360999999999
#
# number of rings (size 3 to 8) (size 9 to 14) (size 15 to 20)
#    0.000    1.143    7.143    1.286    2.000    2.857 
#    5.143    0.000    0.000    0.000    0.000    0.000 
#    0.000    0.000    0.000    0.000    0.000    0.000 
#
# Total GULP energy -467871.638584 kJ/mol
# GULP energy per Si atom -5569.900459 kJ/mol
# Density = 1.325612 g / cm^3
# Si number density = 13.286361 Si / 1000 Ang^3
#
#
#
# Elastic Constant Matrix: (Units=GPa)
#
#
# Indices 1 2 3 4 5 6 
#
# 1 39.9297 18.8715 8.5050 0.0000 0.0000 0.0000
# 2 18.8715 39.9297 8.5050 0.0000 0.0000 0.0000
# 3 8.5050 8.5050 40.4219 0.0000 0.0000 0.0000
# 4 0.0000 0.0000 0.0000 11.4886 0.0000 0.0000
# 5 0.0000 0.0000 0.0000 0.0000 11.4886 0.0000
# 6 0.0000 0.0000 0.0000 0.0000 0.0000 10.5291
#
#
#
# Elastic Compliance Matrix: (Units=1/GPa)
#
#
# Indices 1 2 3 4 5 6 
#
# 1 0.032798 -0.014689 -0.003810 0.000000 0.000000 0.000000
# 2 -0.014689 0.032798 -0.003810 0.000000 0.000000 0.000000
# 3 -0.003810 -0.003810 0.026342 0.000000 0.000000 0.000000
# 4 0.000000 0.000000 0.000000 0.087043 0.000000 0.000000
# 5 0.000000 0.000000 0.000000 0.000000 0.087043 0.000000
# 6 0.000000 0.000000 0.000000 0.000000 0.000000 0.094975
#
#
# Mechanical properties :
#
#
# Convention : Reuss Voigt Hill
#
# Bulk Modulus (GPa) = 21.13314 21.33827 21.23570
# Shear Modulus (GPa) = 11.86545 12.32791 12.09668
#
# Velocity S-wave (km/s) = 2.99164 3.04939 3.02065
# Velocity P-wave (km/s) = 5.27955 5.33793 5.30882
#
# Compressibility (1/GPa) = 0.04731905
#
# Stress axis : x y z
#
# Youngs Moduli (GPa) = 30.48957 30.48957 37.96151
#
# Poissons Ratio (x) = 0.44787 0.14464
# Poissons Ratio (y) = 0.44787 0.14464
# Poissons Ratio (z) = 0.11617 0.11617
#
# Static dielectric constant tensor:
#      x y z
#    x 1.470550 0.000000 0.000000 
#    y 0.000000 1.470550 0.000000 
#    z 0.000000 0.000000 1.528370 
# 
# From -- ./inp_files/5180.got.cif
#   From: 2010.05.17/outbox.cif.g08.bks.cpg/sg181_3_cif.got.tgz:5180.got - 2010.05.20 11:51:17.
