data_PCOD9584407
_publ_section_title
;
Structure prediction by ZEFSAII (Michael W. Deem and Ramdas Pophale) SiO2 
 PCOD9584407
Probable space group: P 64 2 2
;
_chemical_formula_sum "Si O2"
_cell_formula_units_Z 57
_cell_length_a 13.606019
_cell_length_b 13.606019
_cell_length_c 15.104594
_cell_angle_alpha 90.000000
_cell_angle_beta 90.000000
_cell_angle_gamma 120.000000
_cell_volume 2421.596800
_symmetry_space_group_name_H-M "P 64 2 2"
_symmetry_group_IT_number 181
_symmetry_cell_setting 'hexagonal'
loop_
_space_group_symop_operation_xyz
x,y,z
x-y,x,2/3+z
-y,x-y,1/3+z
-x,-y,z
-x+y,-x,2/3+z
y,-x+y,1/3+z
x-y,-y,-z
-x,-x+y,2/3-z
y,x,1/3-z
-y,-x,1/3-z
-x+y,y,-z
x,x-y,2/3-z
loop_
_atom_site_type_symbol
_atom_site_label
_atom_site_fract_x
_atom_site_fract_y
_atom_site_fract_z
Si Si1 0.160092 0.240095 0.744673
Si Si2 0.625078 0.661034 0.065418
Si Si3 0.452704 0.226352 0.833334
Si Si4 0.000000 0.000000 0.833334
Si Si5 0.956179 0.335792 0.549148
Si Si6 0.195835 0.601471 0.040148
O O1 0.240220 0.240220 0.666667
O O2 0.090495 0.296980 0.710893
O O3 0.221052 0.318958 0.828888
O O4 0.080617 0.110796 0.775518
O O5 0.635760 0.635760 0.166667
O O6 0.674492 0.617257 0.988638
O O7 0.495287 0.612124 0.034994
O O8 0.384019 0.295232 0.850551
O O9 0.534703 0.262959 0.748690
O O10 0.881221 0.398556 0.544962
O O11 0.287164 0.574327 0.000000
#
# Coordination Sequence:
#
# PCOD9584407 Si02
#       6
#    12  12   6   3  12  12
#     4  12  25  44  76 112 156 208 255 312 394 478
#     4  11  25  47  73 108 148 206 257 327 404 466
#     4  10  21  48  70  97 151 202 237 322 398 468
#     4  12  24  44  72 122 166 198 260 316 376 490
#     4  11  26  48  71 108 155 197 261 326 387 472
#     4  11  27  45  76 112 152 200 269 338 400 478
#
# _framework density 23.538187000000001
#
# number of rings (size 3 to 8) (size 9 to 14) (size 15 to 20)
#    0.000    0.842    1.053    7.263    5.895    1.684 
#    0.000    0.000    0.000    0.000    0.000    0.000 
#    0.000    0.000    0.000    0.000    0.000    0.000 
#
# Total GULP energy -317487.573724 kJ/mol
# GULP energy per Si atom -5569.957434 kJ/mol
# Density = 2.348461 g / cm^3
# Si number density = 23.538187 Si / 1000 Ang^3
#
#
#
# Elastic Constant Matrix: (Units=GPa)
#
#
# Indices 1 2 3 4 5 6 
#
# 1 79.0333 3.4010 8.2347 0.0000 0.0000 0.0000
# 2 3.4010 79.0333 8.2347 0.0000 0.0000 0.0000
# 3 8.2347 8.2347 117.8989 0.0000 0.0000 0.0000
# 4 0.0000 0.0000 0.0000 -22.4707 0.0000 0.0000
# 5 0.0000 0.0000 0.0000 0.0000 -22.4707 0.0000
# 6 0.0000 0.0000 0.0000 0.0000 0.0000 37.8162
#
#
#
# Elastic Compliance Matrix: (Units=1/GPa)
#
#
# Indices 1 2 3 4 5 6 
#
# 1 0.012762 -0.000460 -0.000859 0.000000 0.000000 0.000000
# 2 -0.000460 0.012762 -0.000859 0.000000 0.000000 0.000000
# 3 -0.000859 -0.000859 0.008602 0.000000 0.000000 0.000000
# 4 0.000000 0.000000 0.000000 -0.044502 0.000000 0.000000
# 5 0.000000 0.000000 0.000000 0.000000 -0.044502 0.000000
# 6 0.000000 0.000000 0.000000 0.000000 0.000000 0.026444
#
#
# Mechanical properties :
#
#
# Convention : Reuss Voigt Hill
#
# Bulk Modulus (GPa) = 33.59101 35.07846 34.33473
# Shear Modulus (GPa) = -353.23016 15.64796 -168.79110
#
# Velocity S-wave (km/s) = -12.26347 2.58115 -8.47733
# Velocity P-wave (km/s) = 13.64631 4.88040 9.01120
#
# Compressibility (1/GPa) = 0.02976987
#
# Stress axis : x y z
#
# Youngs Moduli (GPa) = 78.35636 78.35636 116.25370
#
# Poissons Ratio (x) = 0.03602 0.09989
# Poissons Ratio (y) = 0.03602 0.09989
# Poissons Ratio (z) = 0.06733 0.06733
#
# Static dielectric constant tensor:
#      x y z
#    x 2.252610 0.000000 0.000000 
#    y 0.000000 2.252610 0.000000 
#    z 0.000000 0.000000 1.855210 
# 
# From -- ./inp_files/6186.got.cif
#   From: 2010.05.17/outbox.cif.g08.bks.cpg/sg181_4_cif.got.tgz:6186.got - 2010.05.20 11:51:17.
