data_PCOD9584340
_publ_section_title
;
Structure prediction by ZEFSAII (Michael W. Deem and Ramdas Pophale) SiO2 
 PCOD9584340
Probable space group: P 64 2 2
;
_chemical_formula_sum "Si O2"
_cell_formula_units_Z 60
_cell_length_a 18.055666
_cell_length_b 18.055666
_cell_length_c 11.344612
_cell_angle_alpha 90.000000
_cell_angle_beta 90.000000
_cell_angle_gamma 120.000000
_cell_volume 3202.928940
_symmetry_space_group_name_H-M "P 64 2 2"
_symmetry_group_IT_number 181
_symmetry_cell_setting 'hexagonal'
loop_
_space_group_symop_operation_xyz
x,y,z
x-y,x,2/3+z
-y,x-y,1/3+z
-x,-y,z
-x+y,-x,2/3+z
y,-x+y,1/3+z
x-y,-y,-z
-x,-x+y,2/3-z
y,x,1/3-z
-y,-x,1/3-z
-x+y,y,-z
x,x-y,2/3-z
loop_
_atom_site_type_symbol
_atom_site_label
_atom_site_fract_x
_atom_site_fract_y
_atom_site_fract_z
Si Si1 0.312533 0.794224 0.474719
Si Si2 0.908281 0.241115 0.310627
Si Si3 0.380690 0.105253 0.703545
Si Si4 0.630316 0.495492 0.768682
Si Si5 0.051379 0.598775 0.681092
O O1 0.388590 0.777180 0.500000
O O2 0.307792 0.831612 0.346713
O O3 0.227282 0.703655 0.479808
O O4 0.335739 0.870499 0.568836
O O5 0.898754 0.263776 0.176072
O O6 0.823003 0.151645 0.342599
O O7 0.906774 0.315929 0.384088
O O8 0.000000 0.249742 0.333334
O O9 0.364236 0.013197 0.663686
O O10 0.568337 0.431664 0.666667
O O11 0.588112 0.503512 0.887377
O O12 0.000000 0.500000 0.722102
#
# Coordination Sequence:
#
# PCOD9584340 Si02
#       5
#    12  12  12  12  12
#     4  11  24  41  56  83 120 168 208 262 314 379
#     4  10  20  39  59  85 117 153 201 260 326 374
#     4  10  21  36  61  86 113 157 206 257 313 387
#     4  11  25  38  58  85 117 159 211 265 311 378
#     4  12  22  38  62  85 117 163 210 259 325 380
#
# _framework density 18.732855000000001
#
# number of rings (size 3 to 8) (size 9 to 14) (size 15 to 20)
#    0.000    1.200    4.000    2.400    0.000    1.600 
#    3.600    0.000    0.000    0.000    0.000    0.000 
#    0.000    3.200    4.000    0.800    0.000    0.400 
#
# Total GULP energy -334319.268344 kJ/mol
# GULP energy per Si atom -5571.987806 kJ/mol
# Density = 1.869022 g / cm^3
# Si number density = 18.732855 Si / 1000 Ang^3
#
#
#
# Elastic Constant Matrix: (Units=GPa)
#
#
# Indices 1 2 3 4 5 6 
#
# 1 107.6653 56.5755 40.3059 0.0000 0.0000 0.0000
# 2 56.5755 107.6653 40.3059 0.0000 0.0000 0.0000
# 3 40.3059 40.3059 106.6337 0.0000 0.0000 0.0000
# 4 0.0000 0.0000 0.0000 11.7912 0.0000 0.0000
# 5 0.0000 0.0000 0.0000 0.0000 11.7912 0.0000
# 6 0.0000 0.0000 0.0000 0.0000 0.0000 25.5449
#
#
#
# Elastic Compliance Matrix: (Units=1/GPa)
#
#
# Indices 1 2 3 4 5 6 
#
# 1 0.013524 -0.006049 -0.002826 0.000000 0.000000 0.000000
# 2 -0.006049 0.013524 -0.002826 0.000000 0.000000 0.000000
# 3 -0.002826 -0.002826 0.011514 0.000000 0.000000 0.000000
# 4 0.000000 0.000000 0.000000 0.084809 0.000000 0.000000
# 5 0.000000 0.000000 0.000000 0.000000 0.084809 0.000000
# 6 0.000000 0.000000 0.000000 0.000000 0.000000 0.039147
#
#
# Mechanical properties :
#
#
# Convention : Reuss Voigt Hill
#
# Bulk Modulus (GPa) = 65.95231 66.25986 66.10608
# Shear Modulus (GPa) = 18.13024 22.14392 20.13708
#
# Velocity S-wave (km/s) = 3.11437 3.44188 3.28222
# Velocity P-wave (km/s) = 6.94375 7.15843 7.05191
#
# Compressibility (1/GPa) = 0.01516247
#
# Stress axis : x y z
#
# Youngs Moduli (GPa) = 73.94027 73.94027 86.85096
#
# Poissons Ratio (x) = 0.44726 0.24541
# Poissons Ratio (y) = 0.44726 0.24541
# Poissons Ratio (z) = 0.20893 0.20893
#
# Static dielectric constant tensor:
#      x y z
#    x 1.712080 0.000000 0.000000 
#    y 0.000000 1.712080 0.000000 
#    z 0.000000 0.000000 1.703220 
# 
# From -- ./inp_files/4815.got.cif
#   From: 2010.05.17/outbox.cif.g08.bks.cpg/sg181_3_cif.got.tgz:4815.got - 2010.05.20 11:51:17.
