data_PCOD9584569
_publ_section_title
;
Structure prediction by ZEFSAII (Michael W. Deem and Ramdas Pophale) SiO2 
 PCOD9584569
Probable space group: P 64 2 2
;
_chemical_formula_sum "Si O2"
_cell_formula_units_Z 51
_cell_length_a 12.058852
_cell_length_b 12.058852
_cell_length_c 18.793906
_cell_angle_alpha 90.000000
_cell_angle_beta 90.000000
_cell_angle_gamma 120.000000
_cell_volume 2366.789381
_symmetry_space_group_name_H-M "P 64 2 2"
_symmetry_group_IT_number 181
_symmetry_cell_setting 'hexagonal'
loop_
_space_group_symop_operation_xyz
x,y,z
x-y,x,2/3+z
-y,x-y,1/3+z
-x,-y,z
-x+y,-x,2/3+z
y,-x+y,1/3+z
x-y,-y,-z
-x,-x+y,2/3-z
y,x,1/3-z
-y,-x,1/3-z
-x+y,y,-z
x,x-y,2/3-z
loop_
_atom_site_type_symbol
_atom_site_label
_atom_site_fract_x
_atom_site_fract_y
_atom_site_fract_z
Si Si1 0.797457 0.513831 0.336528
Si Si2 0.000000 0.000000 0.500000
Si Si3 0.276646 0.169146 0.437544
Si Si4 0.612425 0.618228 0.784374
Si Si5 0.636985 0.631567 0.030227
O O1 0.717678 0.358839 0.333334
O O2 0.909964 0.546500 0.280614
O O3 0.732252 0.588574 0.306210
O O4 0.857185 0.567112 0.414510
O O5 0.956891 0.080017 0.552083
O O6 0.313171 0.258285 0.506230
O O7 0.342868 0.081938 0.426311
O O8 0.332059 0.271608 0.372848
O O9 0.500000 0.500000 0.827927
O O10 0.500000 0.500000 0.030675
#
# Coordination Sequence:
#
# PCOD9584569 Si02
#       5
#    12   3  12  12  12
#     4   9  19  36  65  90 122 165 213 270 325 389
#     4  12  24  42  70 100 132 166 232 290 348 396
#     4  11  24  41  67  96 134 174 219 278 335 405
#     4   9  18  39  65  95 122 160 218 271 324 392
#     4  11  25  41  61  91 135 181 218 264 336 403
#
# _framework density 21.548178
#
# number of rings (size 3 to 8) (size 9 to 14) (size 15 to 20)
#    0.000    1.882    0.000    4.941    3.294    3.765 
#    0.000    5.294    0.000    0.000    0.000    0.000 
#    0.000    0.000    0.000    0.000    0.000    0.000 
#
# Total GULP energy -283929.078765 kJ/mol
# GULP energy per Si atom -5567.236839 kJ/mol
# Density = 2.149913 g / cm^3
# Si number density = 21.548178 Si / 1000 Ang^3
#
#
#
# Elastic Constant Matrix: (Units=GPa)
#
#
# Indices 1 2 3 4 5 6 
#
# 1 147.2388 70.1537 30.1793 0.0000 0.0000 0.0000
# 2 70.1537 147.2388 30.1793 0.0000 0.0000 0.0000
# 3 30.1793 30.1793 64.0810 0.0000 0.0000 0.0000
# 4 0.0000 0.0000 0.0000 18.4006 0.0000 0.0000
# 5 0.0000 0.0000 0.0000 0.0000 18.4006 0.0000
# 6 0.0000 0.0000 0.0000 0.0000 0.0000 38.5425
#
#
#
# Elastic Compliance Matrix: (Units=1/GPa)
#
#
# Indices 1 2 3 4 5 6 
#
# 1 0.009132 -0.003840 -0.002492 0.000000 0.000000 0.000000
# 2 -0.003840 0.009132 -0.002492 0.000000 0.000000 0.000000
# 3 -0.002492 -0.002492 0.017953 0.000000 0.000000 0.000000
# 4 0.000000 0.000000 0.000000 0.054346 0.000000 0.000000
# 5 0.000000 0.000000 0.000000 0.000000 0.054346 0.000000
# 6 0.000000 0.000000 0.000000 0.000000 0.000000 0.025945
#
#
# Mechanical properties :
#
#
# Convention : Reuss Voigt Hill
#
# Bulk Modulus (GPa) = 53.85740 68.84257 61.34998
# Shear Modulus (GPa) = 25.68133 30.27182 27.97658
#
# Velocity S-wave (km/s) = 3.45600 3.75219 3.60714
# Velocity P-wave (km/s) = 6.40105 7.12667 6.77359
#
# Compressibility (1/GPa) = 0.01856755
#
# Stress axis : x y z
#
# Youngs Moduli (GPa) = 109.50126 109.50126 55.70182
#
# Poissons Ratio (x) = 0.42052 0.13882
# Poissons Ratio (y) = 0.42052 0.13882
# Poissons Ratio (z) = 0.27291 0.27291
#
# Static dielectric constant tensor:
#      x y z
#    x 1.871660 0.000000 0.000000 
#    y 0.000000 1.871660 0.000000 
#    z 0.000000 0.000000 1.849700 
# 
# From -- ./inp_files/8811.got.cif
#   From: 2010.05.17/outbox.cif.g08.bks.cpg/sg181_5_cif.got.tgz:8811.got - 2010.05.20 11:51:17.
