data_PCOD9584094
_publ_section_title
;
Structure prediction by ZEFSAII (Michael W. Deem and Ramdas Pophale) SiO2 
 PCOD9584094
Probable space group: P 62 2 2
;
_chemical_formula_sum "Si O2"
_cell_formula_units_Z 78
_cell_length_a 17.547525
_cell_length_b 17.547525
_cell_length_c 14.040295
_cell_angle_alpha 90.000000
_cell_angle_beta 90.000000
_cell_angle_gamma 120.000000
_cell_volume 3744.023829
_symmetry_space_group_name_H-M "P 62 2 2"
_symmetry_group_IT_number 180
_symmetry_cell_setting 'hexagonal'
loop_
_space_group_symop_operation_xyz
x,y,z
x-y,x,1/3+z
-y,x-y,2/3+z
-x,-y,z
-x+y,-x,1/3+z
y,-x+y,2/3+z
x-y,-y,-z
-x,-x+y,1/3-z
y,x,2/3-z
-y,-x,2/3-z
-x+y,y,-z
x,x-y,1/3-z
loop_
_atom_site_type_symbol
_atom_site_label
_atom_site_fract_x
_atom_site_fract_y
_atom_site_fract_z
Si Si1 0.766155 0.053564 0.807971
Si Si2 0.250485 0.625243 0.166667
Si Si3 0.469071 0.313341 0.219642
Si Si4 0.949411 0.257082 0.068354
Si Si5 0.911858 0.498115 0.295485
Si Si6 0.251439 0.365465 0.246160
Si Si7 0.830128 0.458818 0.858217
O O1 0.862580 0.137421 0.833334
O O2 0.698467 0.090945 0.814715
O O3 0.765703 0.021980 0.699880
O O4 0.722349 0.976864 0.886091
O O5 0.181074 0.552884 0.239237
O O6 0.311541 0.724437 0.205893
O O7 0.495783 0.247892 0.166667
O O8 0.417547 0.285598 0.319813
O O9 0.558079 0.405246 0.224758
O O10 0.943908 0.343582 0.046313
O O11 0.850013 0.183859 0.087567
O O12 0.000000 0.267279 0.166667
O O13 0.882633 0.437951 0.390207
O O14 0.000000 0.500000 0.262629
O O15 0.308023 0.440000 0.168176
#
# Coordination Sequence:
#
# PCOD9584094 Si02
#       7
#    12   6  12  12  12  12  12
#     4  11  24  46  73  99 138 184 231 292 376 440
#     4  12  25  40  66  94 136 194 252 294 355 428
#     4  11  21  41  69 102 142 183 229 296 361 422
#     4  12  25  45  71 102 143 184 233 298 363 433
#     4  12  25  45  62  90 141 198 240 291 361 432
#     4  12  25  43  71 106 137 185 245 298 361 436
#     4  12  25  39  66 101 140 185 248 302 351 424
#
# _framework density 20.833200999999999
#
# number of rings (size 3 to 8) (size 9 to 14) (size 15 to 20)
#    0.000    0.308    6.923    3.462    0.000    1.846 
#    2.769    1.538    0.000    0.462    0.000    2.154 
#    0.000    0.000    0.000    0.000    0.000    0.000 
#
# Total GULP energy -434620.127855 kJ/mol
# GULP energy per Si atom -5572.052921 kJ/mol
# Density = 2.078578 g / cm^3
# Si number density = 20.833201 Si / 1000 Ang^3
#
#
#
# Elastic Constant Matrix: (Units=GPa)
#
#
# Indices 1 2 3 4 5 6 
#
# 1 72.1264 36.9877 15.9278 0.0000 0.0000 0.0000
# 2 36.9877 72.1264 15.9278 0.0000 0.0000 0.0000
# 3 15.9278 15.9278 115.3952 0.0000 0.0000 0.0000
# 4 0.0000 0.0000 0.0000 -44.1819 0.0000 0.0000
# 5 0.0000 0.0000 0.0000 0.0000 -44.1819 0.0000
# 6 0.0000 0.0000 0.0000 0.0000 0.0000 17.5693
#
#
#
# Elastic Compliance Matrix: (Units=1/GPa)
#
#
# Indices 1 2 3 4 5 6 
#
# 1 0.019004 -0.009455 -0.001318 0.000000 0.000000 0.000000
# 2 -0.009455 0.019004 -0.001318 0.000000 0.000000 0.000000
# 3 -0.001318 -0.001318 0.009030 0.000000 0.000000 0.000000
# 4 0.000000 0.000000 0.000000 -0.022634 0.000000 0.000000
# 5 0.000000 0.000000 0.000000 0.000000 -0.022634 0.000000
# 6 0.000000 0.000000 0.000000 0.000000 0.000000 0.056917
#
#
# Mechanical properties :
#
#
# Convention : Reuss Voigt Hill
#
# Bulk Modulus (GPa) = 43.75147 44.14832 43.94989
# Shear Modulus (GPa) = 55.25582 -1.43858 26.90862
#
# Velocity S-wave (km/s) = 5.15563 -0.83188 3.59781
# Velocity P-wave (km/s) = 7.51579 4.50718 6.19685
#
# Compressibility (1/GPa) = 0.02285638
#
# Stress axis : x y z
#
# Youngs Moduli (GPa) = 52.62023 52.62023 110.74506
#
# Poissons Ratio (x) = 0.49750 0.14597
# Poissons Ratio (y) = 0.49750 0.14597
# Poissons Ratio (z) = 0.06936 0.06936
#
# Static dielectric constant tensor:
#      x y z
#    x 1.874970 0.000000 0.000000 
#    y 0.000000 1.874970 0.000000 
#    z 0.000000 0.000000 1.876200 
# 
# From -- ./inp_files/6434.got.cif
#   From: 2010.05.17/outbox.cif.g08.bks.cpg/sg180_4_cif.got.tgz:6434.got - 2010.05.20 11:43:55.
