data_PCOD9584271
_publ_section_title
;
Structure prediction by ZEFSAII (Michael W. Deem and Ramdas Pophale) SiO2 
 PCOD9584271
Probable space group: P 64 2 2
;
_chemical_formula_sum "Si O2"
_cell_formula_units_Z 84
_cell_length_a 20.332971
_cell_length_b 20.332971
_cell_length_c 11.718374
_cell_angle_alpha 90.000000
_cell_angle_beta 90.000000
_cell_angle_gamma 120.000000
_cell_volume 4195.654024
_symmetry_space_group_name_H-M "P 64 2 2"
_symmetry_group_IT_number 181
_symmetry_cell_setting 'hexagonal'
loop_
_space_group_symop_operation_xyz
x,y,z
x-y,x,2/3+z
-y,x-y,1/3+z
-x,-y,z
-x+y,-x,2/3+z
y,-x+y,1/3+z
x-y,-y,-z
-x,-x+y,2/3-z
y,x,1/3-z
-y,-x,1/3-z
-x+y,y,-z
x,x-y,2/3-z
loop_
_atom_site_type_symbol
_atom_site_label
_atom_site_fract_x
_atom_site_fract_y
_atom_site_fract_z
Si Si1 0.717299 0.063764 0.087435
Si Si2 0.510703 0.179705 0.522285
Si Si3 0.983264 0.770351 0.075754
Si Si4 0.082519 0.731297 0.783796
Si Si5 0.648591 0.399738 0.795490
Si Si6 0.129381 0.258700 0.274563
Si Si7 0.827522 0.323423 0.119806
O O1 0.681957 0.112873 0.132426
O O2 0.733113 0.026897 0.196044
O O3 0.799870 0.104673 0.026083
O O4 0.662153 0.000000 0.000000
O O5 0.586906 0.173812 0.500000
O O6 0.441412 0.131037 0.437095
O O7 0.531552 0.267747 0.519420
O O8 0.480754 0.156549 0.652501
O O9 0.935718 0.782671 0.176664
O O10 0.929498 0.704612 0.988055
O O11 0.049262 0.843133 0.007158
O O12 0.120133 0.796938 0.877921
O O13 0.000000 0.671812 0.833334
O O14 0.618668 0.381333 0.666667
O O15 0.657801 0.328901 0.833334
O O16 0.579717 0.395728 0.865156
O O17 0.749090 0.250911 0.166667
#
# Coordination Sequence:
#
# PCOD9584271 Si02
#       7
#    12  12  12  12  12  12  12
#     4  10  21  37  64  94 126 165 218 261 322 388
#     4  11  23  38  59  90 117 167 209 271 328 394
#     4  10  20  37  59  94 135 165 215 270 320 392
#     4  10  21  39  60  87 125 162 213 263 323 393
#     4  10  19  35  55  86 118 149 213 265 313 372
#     4  10  20  36  61  96 128 170 209 269 324 383
#     4  11  19  36  61  86 117 166 203 266 322 368
#
# _framework density 20.020716
#
# number of rings (size 3 to 8) (size 9 to 14) (size 15 to 20)
#    0.000    1.714    2.857    4.286    0.000    0.286 
#    5.143    0.000    0.000    2.143    0.000    0.000 
#    0.000  674.286    0.000    0.000    0.000    0.000 
#
# Total GULP energy -468172.837815 kJ/mol
# GULP energy per Si atom -5573.486164 kJ/mol
# Density = 1.997515 g / cm^3
# Si number density = 20.020716 Si / 1000 Ang^3
#
#
#
# Elastic Constant Matrix: (Units=GPa)
#
#
# Indices 1 2 3 4 5 6 
#
# 1 90.7182 48.7273 28.0849 0.0000 0.0000 0.0000
# 2 48.7273 90.7182 28.0849 0.0000 0.0000 0.0000
# 3 28.0849 28.0849 83.3228 0.0000 0.0000 0.0000
# 4 0.0000 0.0000 0.0000 10.3207 0.0000 0.0000
# 5 0.0000 0.0000 0.0000 0.0000 10.3207 0.0000
# 6 0.0000 0.0000 0.0000 0.0000 0.0000 20.9954
#
#
#
# Elastic Compliance Matrix: (Units=1/GPa)
#
#
# Indices 1 2 3 4 5 6 
#
# 1 0.016056 -0.007758 -0.002797 0.000000 0.000000 0.000000
# 2 -0.007758 0.016056 -0.002797 0.000000 0.000000 0.000000
# 3 -0.002797 -0.002797 0.013887 0.000000 0.000000 0.000000
# 4 0.000000 0.000000 0.000000 0.096893 0.000000 0.000000
# 5 0.000000 0.000000 0.000000 0.000000 0.096893 0.000000
# 6 0.000000 0.000000 0.000000 0.000000 0.000000 0.047629
#
#
# Mechanical properties :
#
#
# Convention : Reuss Voigt Hill
#
# Bulk Modulus (GPa) = 51.82651 52.72813 52.27732
# Shear Modulus (GPa) = 15.59818 18.98485 17.29152
#
# Velocity S-wave (km/s) = 2.79427 3.08272 2.94203
# Velocity P-wave (km/s) = 6.02936 6.25019 6.14077
#
# Compressibility (1/GPa) = 0.01929515
#
# Stress axis : x y z
#
# Youngs Moduli (GPa) = 62.28093 62.28093 72.01003
#
# Poissons Ratio (x) = 0.48320 0.20140
# Poissons Ratio (y) = 0.48320 0.20140
# Poissons Ratio (z) = 0.17419 0.17419
#
# Static dielectric constant tensor:
#      x y z
#    x 1.763050 0.000000 0.000000 
#    y 0.000000 1.763050 0.000000 
#    z 0.000000 0.000000 1.785040 
# 
# From -- ./inp_files/5068.got.cif
#   From: 2010.05.17/outbox.cif.g08.bks.cpg/sg181_3_cif.got.tgz:5068.got - 2010.05.20 11:51:17.
