data_PCOD9584272
_publ_section_title
;
Structure prediction by ZEFSAII (Michael W. Deem and Ramdas Pophale) SiO2 
 PCOD9584272
Probable space group: P 64 2 2
;
_chemical_formula_sum "Si O2"
_cell_formula_units_Z 96
_cell_length_a 15.109531
_cell_length_b 15.109531
_cell_length_c 24.041873
_cell_angle_alpha 90.000000
_cell_angle_beta 90.000000
_cell_angle_gamma 120.000000
_cell_volume 4753.362093
_symmetry_space_group_name_H-M "P 64 2 2"
_symmetry_group_IT_number 181
_symmetry_cell_setting 'hexagonal'
loop_
_space_group_symop_operation_xyz
x,y,z
x-y,x,2/3+z
-y,x-y,1/3+z
-x,-y,z
-x+y,-x,2/3+z
y,-x+y,1/3+z
x-y,-y,-z
-x,-x+y,2/3-z
y,x,1/3-z
-y,-x,1/3-z
-x+y,y,-z
x,x-y,2/3-z
loop_
_atom_site_type_symbol
_atom_site_label
_atom_site_fract_x
_atom_site_fract_y
_atom_site_fract_z
Si Si1 0.214442 0.210751 0.732236
Si Si2 0.405993 0.411166 0.776992
Si Si3 0.271144 0.939566 0.655028
Si Si4 0.784275 0.051132 0.239068
Si Si5 0.940210 0.727605 0.783353
Si Si6 0.673716 0.506316 0.464093
Si Si7 0.237886 0.394990 0.851728
Si Si8 0.532026 0.192025 0.289762
O O1 0.199518 0.199518 0.666667
O O2 0.327213 0.307054 0.745770
O O3 0.202503 0.108832 0.761083
O O4 0.131445 0.238044 0.753737
O O5 0.500000 0.500000 0.742975
O O6 0.465517 0.389996 0.826434
O O7 0.331086 0.442649 0.808149
O O8 0.161163 0.838837 0.666667
O O9 0.351342 0.904662 0.674839
O O10 0.275949 0.022356 0.697906
O O11 0.280753 0.984751 0.593882
O O12 0.756536 0.136829 0.221852
O O13 0.711780 0.945766 0.204983
O O14 0.861889 0.626723 0.817852
O O15 0.000000 0.803821 0.833334
O O16 0.729211 0.458422 0.500000
O O17 0.613068 0.438887 0.410862
O O18 0.263551 0.465006 0.905949
O O19 0.571915 0.285958 0.333334
#
# Coordination Sequence:
#
# PCOD9584272 Si02
#       8
#    12  12  12  12  12  12  12  12
#     4  11  22  38  57  85 128 165 203 253 315 371
#     4  10  19  35  59  87 113 155 208 252 307 377
#     4  10  21  39  60  86 121 162 211 254 299 376
#     4  10  20  38  59  85 121 164 205 250 304 372
#     4  11  21  36  58  87 120 163 210 251 308 355
#     4  11  21  37  63  91 119 155 205 263 308 370
#     4   9  20  34  60  87 119 158 209 255 303 365
#     4  10  20  38  61  88 122 159 205 255 319 382
#
# _framework density 20.196231999999998
#
# number of rings (size 3 to 8) (size 9 to 14) (size 15 to 20)
#    0.000    1.750    3.750    2.250    0.000    0.250 
#    0.000    7.500    0.000    0.000    0.000    0.875 
#    0.000    0.000    0.000    0.000    0.000    0.000 
#
# Total GULP energy -534884.722668 kJ/mol
# GULP energy per Si atom -5571.715861 kJ/mol
# Density = 2.015026 g / cm^3
# Si number density = 20.196232 Si / 1000 Ang^3
#
#
#
# Elastic Constant Matrix: (Units=GPa)
#
#
# Indices 1 2 3 4 5 6 
#
# 1 57.4619 24.1509 28.0801 0.0000 0.0000 0.0000
# 2 24.1509 57.4619 28.0801 0.0000 0.0000 0.0000
# 3 28.0801 28.0801 106.2483 0.0000 0.0000 0.0000
# 4 0.0000 0.0000 0.0000 29.4766 0.0000 0.0000
# 5 0.0000 0.0000 0.0000 0.0000 29.4766 0.0000
# 6 0.0000 0.0000 0.0000 0.0000 0.0000 16.6555
#
#
#
# Elastic Compliance Matrix: (Units=1/GPa)
#
#
# Indices 1 2 3 4 5 6 
#
# 1 0.022498 -0.007522 -0.003958 0.000000 0.000000 0.000000
# 2 -0.007522 0.022498 -0.003958 0.000000 0.000000 0.000000
# 3 -0.003958 -0.003958 0.011504 0.000000 0.000000 0.000000
# 4 0.000000 0.000000 0.000000 0.033925 0.000000 0.000000
# 5 0.000000 0.000000 0.000000 0.000000 0.033925 0.000000
# 6 0.000000 0.000000 0.000000 0.000000 0.000000 0.060040
#
#
# Mechanical properties :
#
#
# Convention : Reuss Voigt Hill
#
# Bulk Modulus (GPa) = 39.02457 42.42161 40.72309
# Shear Modulus (GPa) = 22.34049 24.51250 23.42649
#
# Velocity S-wave (km/s) = 3.32952 3.48762 3.40949
# Velocity P-wave (km/s) = 5.84342 6.10478 5.97553
#
# Compressibility (1/GPa) = 0.02562488
#
# Stress axis : x y z
#
# Youngs Moduli (GPa) = 44.44765 44.44765 86.92553
#
# Poissons Ratio (x) = 0.33432 0.34407
# Poissons Ratio (y) = 0.33432 0.34407
# Poissons Ratio (z) = 0.17593 0.17593
#
# Static dielectric constant tensor:
#      x y z
#    x 1.774650 0.000000 0.000000 
#    y 0.000000 1.774650 0.000000 
#    z 0.000000 0.000000 1.592550 
# 
# From -- ./inp_files/11392.got.cif
#   From: 2010.05.17/outbox.cif.g08.bks.cpg/sg181_6_cif.got.tgz:11392.got - 2010.05.20 11:51:17.
