data_PCOD9584060
_publ_section_title
;
Structure prediction by ZEFSAII (Michael W. Deem and Ramdas Pophale) SiO2 
 PCOD9584060
Probable space group: P 62 2 2
;
_chemical_formula_sum "Si O2"
_cell_formula_units_Z 75
_cell_length_a 12.014751
_cell_length_b 12.014751
_cell_length_c 31.328252
_cell_angle_alpha 90.000000
_cell_angle_beta 90.000000
_cell_angle_gamma 120.000000
_cell_volume 3916.483891
_symmetry_space_group_name_H-M "P 62 2 2"
_symmetry_group_IT_number 180
_symmetry_cell_setting 'hexagonal'
loop_
_space_group_symop_operation_xyz
x,y,z
x-y,x,1/3+z
-y,x-y,2/3+z
-x,-y,z
-x+y,-x,1/3+z
y,-x+y,2/3+z
x-y,-y,-z
-x,-x+y,1/3-z
y,x,2/3-z
-y,-x,2/3-z
-x+y,y,-z
x,x-y,1/3-z
loop_
_atom_site_type_symbol
_atom_site_label
_atom_site_fract_x
_atom_site_fract_y
_atom_site_fract_z
Si Si1 0.247718 0.381554 0.390781
Si Si2 0.368735 0.865721 0.187924
Si Si3 0.000000 0.000000 0.166667
Si Si4 0.227517 0.220203 0.552655
Si Si5 0.166089 0.375907 0.710453
Si Si6 0.723734 0.343809 0.568226
Si Si7 0.962295 0.852881 0.048405
O O1 0.338909 0.318741 0.389183
O O2 0.203304 0.377810 0.341500
O O3 0.325657 0.527779 0.404321
O O4 0.134576 0.310732 0.426763
O O5 0.275000 0.923816 0.190060
O O6 0.334953 0.745724 0.219924
O O7 0.365911 0.806634 0.141621
O O8 0.500000 0.000000 0.197702
O O9 0.097943 0.118714 0.138389
O O10 0.253773 0.161308 0.594319
O O11 0.266640 0.503699 0.736022
O O12 0.169065 0.248837 0.723627
O O13 0.921723 0.843445 0.000000
O O14 0.000000 0.000000 0.059493
#
# Coordination Sequence:
#
# PCOD9584060 Si02
#       7
#    12  12   3  12  12  12  12
#     4  11  20  39  68  99 133 165 219 280 338 387
#     4  11  25  43  66  89 132 180 221 270 329 407
#     4  12  28  36  70 106 128 164 224 288 330 404
#     4  12  24  41  65 101 128 168 223 274 330 402
#     4  11  21  37  67 102 135 166 214 287 336 397
#     4  11  25  41  63  96 130 181 222 273 337 399
#     4  11  19  38  63  94 131 168 212 271 338 388
#
# _framework density 19.149829
#
# number of rings (size 3 to 8) (size 9 to 14) (size 15 to 20)
#    0.000    0.800    5.600    2.880    6.720    1.280 
#    0.000    2.400    3.520    0.000    0.000    0.000 
#    0.000    0.000    0.000    0.000    0.000    0.000 
#
# Total GULP energy -417697.145563 kJ/mol
# GULP energy per Si atom -5569.295274 kJ/mol
# Density = 1.910624 g / cm^3
# Si number density = 19.149829 Si / 1000 Ang^3
#
#
#
# Elastic Constant Matrix: (Units=GPa)
#
#
# Indices 1 2 3 4 5 6 
#
# 1 81.3478 44.6091 15.9027 0.0000 0.0000 0.0000
# 2 44.6091 81.3478 15.9027 0.0000 0.0000 0.0000
# 3 15.9027 15.9027 30.4407 0.0000 0.0000 0.0000
# 4 0.0000 0.0000 0.0000 25.7851 0.0000 0.0000
# 5 0.0000 0.0000 0.0000 0.0000 25.7851 0.0000
# 6 0.0000 0.0000 0.0000 0.0000 0.0000 18.3693
#
#
#
# Elastic Compliance Matrix: (Units=1/GPa)
#
#
# Indices 1 2 3 4 5 6 
#
# 1 0.018182 -0.009037 -0.004778 0.000000 0.000000 0.000000
# 2 -0.009037 0.018182 -0.004778 0.000000 0.000000 0.000000
# 3 -0.004778 -0.004778 0.037843 0.000000 0.000000 0.000000
# 4 0.000000 0.000000 0.000000 0.038782 0.000000 0.000000
# 5 0.000000 0.000000 0.000000 0.000000 0.038782 0.000000
# 6 0.000000 0.000000 0.000000 0.000000 0.000000 0.054439
#
#
# Mechanical properties :
#
#
# Convention : Reuss Voigt Hill
#
# Bulk Modulus (GPa) = 27.01040 38.44057 32.72548
# Shear Modulus (GPa) = 19.55139 21.76935 20.66037
#
# Velocity S-wave (km/s) = 3.19873 3.37529 3.28819
# Velocity P-wave (km/s) = 5.27047 5.94199 5.61628
#
# Compressibility (1/GPa) = 0.03702278
#
# Stress axis : x y z
#
# Youngs Moduli (GPa) = 54.99801 54.99801 26.42515
#
# Poissons Ratio (x) = 0.49701 0.12625
# Poissons Ratio (y) = 0.49701 0.12625
# Poissons Ratio (z) = 0.26277 0.26277
#
# Static dielectric constant tensor:
#      x y z
#    x 18.582070 0.000000 0.000000 
#    y 0.000000 18.582070 0.000000 
#    z 0.000000 0.000000 1.594580 
# 
# From -- ./inp_files/12376.got.cif
#   From: 2010.05.17/outbox.cif.g08.bks.cpg/sg180_7_cif.got.tgz:12376.got - 2010.05.20 11:43:55.
