data_PCOD9584845
_publ_section_title
;
Structure prediction by ZEFSAII (Michael W. Deem and Ramdas Pophale) SiO2 
 PCOD9584845
Probable space group: P 63 2 2
;
_chemical_formula_sum "Si O2"
_cell_formula_units_Z 84
_cell_length_a 17.840742
_cell_length_b 17.840742
_cell_length_c 16.352227
_cell_angle_alpha 90.000000
_cell_angle_beta 90.000000
_cell_angle_gamma 120.000000
_cell_volume 4507.475394
_symmetry_space_group_name_H-M "P 63 2 2"
_symmetry_group_IT_number 182
_symmetry_cell_setting 'hexagonal'
loop_
_space_group_symop_operation_xyz
x,y,z
x-y,x,1/2+z
-y,x-y,z
-x,-y,1/2+z
-x+y,-x,z
y,-x+y,1/2+z
x-y,-y,-z
-x,-x+y,-z
y,x,-z
-y,-x,1/2-z
-x+y,y,1/2-z
x,x-y,1/2-z
loop_
_atom_site_type_symbol
_atom_site_label
_atom_site_fract_x
_atom_site_fract_y
_atom_site_fract_z
Si Si1 0.743539 0.056219 0.822484
Si Si2 0.630750 0.090666 0.951930
Si Si3 0.747320 0.926933 0.935154
Si Si4 0.631352 0.532740 0.967860
Si Si5 0.724573 0.449145 0.250000
Si Si6 0.000000 0.815194 0.500000
Si Si7 0.236797 0.914008 0.141826
Si Si8 0.227678 0.449438 0.922056
O O1 0.677344 0.072971 0.876108
O O2 0.721339 0.042457 0.727346
O O3 0.833907 0.143076 0.838244
O O4 0.755900 0.977304 0.852323
O O5 0.555041 0.110470 0.930403
O O6 0.693608 0.166312 0.014750
O O7 0.584357 0.000000 0.000000
O O8 0.815944 0.900282 0.966562
O O9 0.655482 0.838312 0.927877
O O10 0.755256 0.000000 0.000000
O O11 0.703410 0.586618 0.901059
O O12 0.589291 0.589291 0.000000
O O13 0.683758 0.520258 0.041334
O O14 0.620141 0.379860 0.250000
O O15 0.745837 0.508389 0.331617
O O16 0.029200 0.778620 0.424170
#
# Coordination Sequence:
#
# PCOD9584845 Si02
#       8
#    12  12  12  12   6   6  12  12
#     4  11  22  41  65  92 128 168 216 271 325 390
#     4  11  21  39  63  92 122 168 218 266 325 395
#     4  12  21  41  68  96 126 171 224 263 321 407
#     4  11  22  37  61  92 126 161 220 269 319 389
#     4  10  26  44  58 100 144 168 216 278 346 404
#     4  12  22  40  66  96 130 164 216 268 324 390
#     4  11  22  40  64  92 129 165 209 279 324 383
#     4  12  20  41  67  88 128 180 215 268 333 401
#
# _framework density 18.63571
#
# number of rings (size 3 to 8) (size 9 to 14) (size 15 to 20)
#    0.143    0.571    7.857    0.857    0.000    3.429 
#    1.286    0.000    0.000    0.000    0.000    0.000 
#    0.000    0.000    0.000    0.000    0.000    0.000 
#
# Total GULP energy -468116.418552 kJ/mol
# GULP energy per Si atom -5572.814507 kJ/mol
# Density = 1.859329 g / cm^3
# Si number density = 18.635710 Si / 1000 Ang^3
#
#
#
# Elastic Constant Matrix: (Units=GPa)
#
#
# Indices 1 2 3 4 5 6 
#
# 1 84.1070 30.6876 31.4618 0.0000 0.0000 0.0000
# 2 30.6876 84.1070 31.4618 0.0000 0.0000 0.0000
# 3 31.4618 31.4618 134.0236 0.0000 0.0000 0.0000
# 4 0.0000 0.0000 0.0000 18.5083 0.0000 0.0000
# 5 0.0000 0.0000 0.0000 0.0000 18.5083 0.0000
# 6 0.0000 0.0000 0.0000 0.0000 0.0000 26.7097
#
#
#
# Elastic Compliance Matrix: (Units=1/GPa)
#
#
# Indices 1 2 3 4 5 6 
#
# 1 0.014359 -0.004361 -0.002347 0.000000 0.000000 0.000000
# 2 -0.004361 0.014359 -0.002347 0.000000 0.000000 0.000000
# 3 -0.002347 -0.002347 0.008563 0.000000 0.000000 0.000000
# 4 0.000000 0.000000 0.000000 0.054030 0.000000 0.000000
# 5 0.000000 0.000000 0.000000 0.000000 0.054030 0.000000
# 6 0.000000 0.000000 0.000000 0.000000 0.000000 0.037440
#
#
# Mechanical properties :
#
#
# Convention : Reuss Voigt Hill
#
# Bulk Modulus (GPa) = 52.16256 54.38445 53.27350
# Shear Modulus (GPa) = 24.12198 26.65370 25.38784
#
# Velocity S-wave (km/s) = 3.60167 3.78597 3.69497
# Velocity P-wave (km/s) = 6.73405 6.95397 6.84489
#
# Compressibility (1/GPa) = 0.01917084
#
# Stress axis : x y z
#
# Youngs Moduli (GPa) = 69.64404 69.64404 116.77813
#
# Poissons Ratio (x) = 0.30372 0.27407
# Poissons Ratio (y) = 0.30372 0.27407
# Poissons Ratio (z) = 0.16345 0.16345
#
# Static dielectric constant tensor:
#      x y z
#    x 1.665590 0.000000 0.000000 
#    y 0.000000 1.665590 0.000000 
#    z 0.000000 0.000000 1.650870 
# 
# From -- ./inp_files/3757.got.cif
#   From: 2010.05.17/outbox.cif.g08.bks.cpg/sg182_2_cif.got.tgz:3757.got - 2010.05.20 11:58:53.
