data_PCOD9584728
_publ_section_title
;
Structure prediction by ZEFSAII (Michael W. Deem and Ramdas Pophale) SiO2 
 PCOD9584728
Probable space group: P 63 2 2
;
_chemical_formula_sum "Si O2"
_cell_formula_units_Z 70
_cell_length_a 14.398408
_cell_length_b 14.398408
_cell_length_c 19.231987
_cell_angle_alpha 90.000000
_cell_angle_beta 90.000000
_cell_angle_gamma 120.000000
_cell_volume 3452.897926
_symmetry_space_group_name_H-M "P 63 2 2"
_symmetry_group_IT_number 182
_symmetry_cell_setting 'hexagonal'
loop_
_space_group_symop_operation_xyz
x,y,z
x-y,x,1/2+z
-y,x-y,z
-x,-y,1/2+z
-x+y,-x,z
y,-x+y,1/2+z
x-y,-y,-z
-x,-x+y,-z
y,x,-z
-y,-x,1/2-z
-x+y,y,1/2-z
x,x-y,1/2-z
loop_
_atom_site_type_symbol
_atom_site_label
_atom_site_fract_x
_atom_site_fract_y
_atom_site_fract_z
Si Si1 0.000000 0.000000 0.415445
Si Si2 0.438884 0.205753 0.097623
Si Si3 0.215697 0.004370 0.915958
Si Si4 0.446682 0.536732 0.168023
Si Si5 0.088416 0.559528 0.940444
Si Si6 0.264020 0.735981 0.750000
Si Si7 0.785230 0.197560 0.666003
O O1 0.995440 0.890993 0.392904
O O2 0.000000 0.000000 0.500000
O O3 0.454536 0.312417 0.060201
O O4 0.521072 0.175550 0.060493
O O5 0.467813 0.235456 0.177993
O O6 0.322817 0.101418 0.100562
O O7 0.311851 0.110653 0.879530
O O8 0.215142 0.000000 0.000000
O O9 0.462955 0.537046 0.250000
O O10 0.512018 0.490504 0.129490
O O11 0.495080 0.662406 0.152685
O O12 0.322392 0.462541 0.147434
O O13 0.000000 0.504518 0.000000
O O14 0.217254 0.608627 0.750000
O O15 0.805671 0.194330 0.750000
#
# Coordination Sequence:
#
# PCOD9584728 Si02
#       7
#     4  12  12  12  12   6  12
#     4   9  24  48  67  86 121 183 229 281 346 411
#     4  12  25  44  70 103 141 184 232 291 361 426
#     4  11  25  46  71  95 137 182 238 294 358 427
#     4  10  23  41  68 101 139 182 235 288 361 429
#     4  12  27  42  68 105 143 184 236 297 367 437
#     4  10  20  42  70  98 140 188 224 274 352 434
#     4  10  22  43  69 101 139 181 230 289 351 428
#
# _framework density 20.272825999999998
#
# number of rings (size 3 to 8) (size 9 to 14) (size 15 to 20)
#    0.171    1.029    3.429    1.200    7.200    2.057 
#    0.000    0.000    0.000    0.000    0.000    0.000 
#    0.000    0.000    0.000    0.000    0.000    0.000 
#
# Total GULP energy -390884.174614 kJ/mol
# GULP energy per Si atom -5584.059637 kJ/mol
# Density = 2.022668 g / cm^3
# Si number density = 20.272826 Si / 1000 Ang^3
#
#
#
# Elastic Constant Matrix: (Units=GPa)
#
#
# Indices 1 2 3 4 5 6 
#
# 1 114.6610 46.5031 43.0359 0.0000 0.0000 0.0000
# 2 46.5031 114.6610 43.0359 0.0000 0.0000 0.0000
# 3 43.0359 43.0359 54.8169 0.0000 0.0000 0.0000
# 4 0.0000 0.0000 0.0000 25.8919 0.0000 0.0000
# 5 0.0000 0.0000 0.0000 0.0000 25.8919 0.0000
# 6 0.0000 0.0000 0.0000 0.0000 0.0000 34.0789
#
#
#
# Elastic Compliance Matrix: (Units=1/GPa)
#
#
# Indices 1 2 3 4 5 6 
#
# 1 0.012678 -0.001993 -0.008389 0.000000 0.000000 0.000000
# 2 -0.001993 0.012678 -0.008389 0.000000 0.000000 0.000000
# 3 -0.008389 -0.008389 0.031414 0.000000 0.000000 0.000000
# 4 0.000000 0.000000 0.000000 0.038622 0.000000 0.000000
# 5 0.000000 0.000000 0.000000 0.000000 0.038622 0.000000
# 6 0.000000 0.000000 0.000000 0.000000 0.000000 0.029344
#
#
# Mechanical properties :
#
#
# Convention : Reuss Voigt Hill
#
# Bulk Modulus (GPa) = 52.00321 61.03208 56.51765
# Shear Modulus (GPa) = 24.11855 27.27682 25.69768
#
# Velocity S-wave (km/s) = 3.45294 3.67207 3.56419
# Velocity P-wave (km/s) = 6.45015 6.93898 6.69903
#
# Compressibility (1/GPa) = 0.01922958
#
# Stress axis : x y z
#
# Youngs Moduli (GPa) = 78.87471 78.87471 31.83301
#
# Poissons Ratio (x) = 0.15724 0.26703
# Poissons Ratio (y) = 0.15724 0.26703
# Poissons Ratio (z) = 0.66164 0.66164
#
# Static dielectric constant tensor:
#      x y z
#    x 1.742240 0.000000 0.000000 
#    y 0.000000 1.742240 0.000000 
#    z 0.000000 0.000000 1.690130 
# 
# From -- ./inp_files/4363.got.cif
#   From: 2010.05.17/outbox.cif.g08.bks.cpg/sg182_3_cif.got.tgz:4363.got - 2010.05.20 11:58:53.
