data_PCOD9584063
_publ_section_title
;
Structure prediction by ZEFSAII (Michael W. Deem and Ramdas Pophale) SiO2 
 PCOD9584063
Probable space group: P 62 2 2
;
_chemical_formula_sum "Si O2"
_cell_formula_units_Z 48
_cell_length_a 16.563582
_cell_length_b 16.563582
_cell_length_c 10.039048
_cell_angle_alpha 90.000000
_cell_angle_beta 90.000000
_cell_angle_gamma 120.000000
_cell_volume 2385.237819
_symmetry_space_group_name_H-M "P 62 2 2"
_symmetry_group_IT_number 180
_symmetry_cell_setting 'hexagonal'
loop_
_space_group_symop_operation_xyz
x,y,z
x-y,x,1/3+z
-y,x-y,2/3+z
-x,-y,z
-x+y,-x,1/3+z
y,-x+y,2/3+z
x-y,-y,-z
-x,-x+y,1/3-z
y,x,2/3-z
-y,-x,2/3-z
-x+y,y,-z
x,x-y,1/3-z
loop_
_atom_site_type_symbol
_atom_site_label
_atom_site_fract_x
_atom_site_fract_y
_atom_site_fract_z
Si Si1 0.363398 0.834125 0.620376
Si Si2 0.932368 0.244541 0.539338
Si Si3 0.776484 0.674337 0.627585
Si Si4 0.645484 0.468103 0.210105
O O1 0.436680 0.873360 0.500000
O O2 0.314867 0.892739 0.666121
O O3 0.277702 0.734302 0.575592
O O4 0.412411 0.819107 0.746563
O O5 0.848137 0.144727 0.583655
O O6 0.890172 0.312426 0.520932
O O7 0.000000 0.282458 0.666667
O O8 0.998529 0.252316 0.418547
O O9 0.828187 0.656373 0.500000
O O10 0.574182 0.425819 0.333334
#
# Coordination Sequence:
#
# PCOD9584063 Si02
#       4
#    12  12  12  12
#     4  11  21  32  48  72 105 147 199 248 287 328
#     4   9  18  32  51  74 102 139 193 244 291 348
#     4   9  18  33  52  75 102 141 196 246 295 352
#     4  11  20  31  49  71 101 145 198 251 290 331
#
# _framework density 20.123781000000001
#
# number of rings (size 3 to 8) (size 9 to 14) (size 15 to 20)
#    0.000    2.000    0.000    7.500    0.000    3.500 
#    0.000    2.500    0.000    0.000    0.000    0.000 
#    0.000    0.000    0.000    0.000    0.000 3277.500 
#
# Total GULP energy -268207.565707 kJ/mol
# GULP energy per Si atom -5587.657619 kJ/mol
# Density = 2.007798 g / cm^3
# Si number density = 20.123781 Si / 1000 Ang^3
#
#
#
# Elastic Constant Matrix: (Units=GPa)
#
#
# Indices 1 2 3 4 5 6 
#
# 1 61.3244 61.9309 37.2318 0.0000 0.0000 0.0000
# 2 61.9309 61.3244 37.2318 0.0000 0.0000 0.0000
# 3 37.2318 37.2318 97.0046 0.0000 0.0000 0.0000
# 4 0.0000 0.0000 0.0000 21.4188 0.0000 0.0000
# 5 0.0000 0.0000 0.0000 0.0000 21.4188 0.0000
# 6 0.0000 0.0000 0.0000 0.0000 0.0000 -0.3032
#
#
#
# Elastic Compliance Matrix: (Units=1/GPa)
#
#
# Indices 1 2 3 4 5 6 
#
# 1 -0.819139 0.829702 -0.004054 0.000000 0.000000 0.000000
# 2 0.829702 -0.819139 -0.004054 0.000000 0.000000 0.000000
# 3 -0.004054 -0.004054 0.013421 0.000000 0.000000 0.000000
# 4 0.000000 0.000000 0.000000 0.046688 0.000000 0.000000
# 5 0.000000 0.000000 0.000000 0.000000 0.046688 0.000000
# 6 0.000000 0.000000 0.000000 0.000000 0.000000 -3.297681
#
#
# Mechanical properties :
#
#
# Convention : Reuss Voigt Hill
#
# Bulk Modulus (GPa) = 54.55661 54.71580 54.63620
# Shear Modulus (GPa) = -0.77325 14.05746 6.64211
#
# Velocity S-wave (km/s) = -0.62055 2.64588 1.81873
# Velocity P-wave (km/s) = 5.16294 6.04838 5.62311
#
# Compressibility (1/GPa) = 0.01832958
#
# Stress axis : x y z
#
# Youngs Moduli (GPa) = -1.22079 -1.22079 74.51133
#
# Poissons Ratio (x) = 1.01289 0.30207
# Poissons Ratio (y) = 1.01289 0.30207
# Poissons Ratio (z) = -0.00495 -0.00495
#
# Static dielectric constant tensor:
#      x y z
#    x 1.708260 0.000000 0.000000 
#    y 0.000000 1.708260 0.000000 
#    z 0.000000 0.000000 1.716040 
# 
# From -- ./inp_files/2597.got.cif
#   From: 2010.05.17/outbox.cif.g08.bks.cpg/sg180_2_cif.got.tgz:2597.got - 2010.05.20 11:43:55.
