data_PCOD9584976
_publ_section_title
;
Structure prediction by ZEFSAII (Michael W. Deem and Ramdas Pophale) SiO2 
 PCOD9584976
Probable space group: P 6 M M
;
_chemical_formula_sum "Si O2"
_cell_formula_units_Z 72
_cell_length_a 18.099169
_cell_length_b 18.099169
_cell_length_c 15.874724
_cell_angle_alpha 90.000000
_cell_angle_beta 90.000000
_cell_angle_gamma 120.000000
_cell_volume 4503.540633
_symmetry_space_group_name_H-M "P 6 M M"
_symmetry_group_IT_number 183
_symmetry_cell_setting 'hexagonal'
loop_
_space_group_symop_operation_xyz
x,y,z
x-y,x,z
-y,x-y,z
-x,-y,z
-x+y,-x,z
y,-x+y,z
-x+y,y,z
x,x-y,z
-y,-x,z
y,x,z
x-y,-y,z
-x,-x+y,z
loop_
_atom_site_type_symbol
_atom_site_label
_atom_site_fract_x
_atom_site_fract_y
_atom_site_fract_z
Si Si1 0.331136 0.835293 0.468000
Si Si2 0.638354 0.540699 0.650573
Si Si3 0.102983 0.635250 0.158936
Si Si4 0.636314 0.532788 0.834217
Si Si5 0.101826 0.734227 0.996807
Si Si6 0.634390 0.901168 0.319140
O O1 0.427219 0.854437 0.456901
O O2 0.263321 0.736680 0.450401
O O3 0.319617 0.854527 0.564727
O O4 0.308502 0.889308 0.404028
O O5 0.547839 0.452162 0.655031
O O6 0.615622 0.615622 0.642511
O O7 0.678331 0.545282 0.742071
O O8 0.137202 0.568601 0.158776
O O9 0.124962 0.692502 0.242025
O O10 0.000000 0.578178 0.159605
O O11 0.123520 0.691638 0.075338
O O12 0.566571 0.433430 0.849345
O O13 0.580982 0.580982 0.828274
O O14 0.698698 0.576997 0.911697
O O15 0.164443 0.835558 0.001049
O O16 0.000000 0.699327 0.999248
O O17 0.667375 0.833688 0.321364
O O18 0.705289 0.000000 0.308479
#
# Coordination Sequence:
#
# PCOD9584976 Si02
#       6
#    12  12  12  12  12  12
#     4  10  19  29  42  62  90 123 156 189 224 263
#     4   8  14  25  41  60  82 111 148 186 223 266
#     4   9  17  30  49  71  92 115 144 175 209 254
#     4   8  14  26  44  64  85 111 145 184 225 270
#     4  10  19  30  46  67  90 118 153 193 233 272
#     4  10  20  33  50  71  93 119 152 190 229 268
#
# _framework density 15.987420999999999
#
# number of rings (size 3 to 8) (size 9 to 14) (size 15 to 20)
#    0.000    2.833    0.000    3.167    0.000    4.333 
#    0.000    0.000    0.000    7.333    0.000    0.000 
#    0.000    4.000    0.000    0.000    0.000   21.667 
#
# Total GULP energy -400861.443501 kJ/mol
# GULP energy per Si atom -5567.520049 kJ/mol
# Density = 1.595103 g / cm^3
# Si number density = 15.987421 Si / 1000 Ang^3
#
#
#
# Elastic Constant Matrix: (Units=GPa)
#
#
# Indices 1 2 3 4 5 6 
#
# 1 69.7100 41.4180 29.8375 0.0000 0.0000 0.0000
# 2 41.4180 69.7100 29.8375 0.0000 0.0000 0.0000
# 3 29.8375 29.8375 115.2434 0.0000 0.0000 0.0000
# 4 0.0000 0.0000 0.0000 1.6709 0.0000 0.0000
# 5 0.0000 0.0000 0.0000 0.0000 1.6709 0.0000
# 6 0.0000 0.0000 0.0000 0.0000 0.0000 14.1460
#
#
#
# Elastic Compliance Matrix: (Units=1/GPa)
#
#
# Indices 1 2 3 4 5 6 
#
# 1 0.022899 -0.012447 -0.002706 0.000000 0.000000 0.000000
# 2 -0.012447 0.022899 -0.002706 0.000000 0.000000 0.000000
# 3 -0.002706 -0.002706 0.010079 0.000000 0.000000 0.000000
# 4 0.000000 0.000000 0.000000 0.598490 0.000000 0.000000
# 5 0.000000 0.000000 0.000000 0.000000 0.598490 0.000000
# 6 0.000000 0.000000 0.000000 0.000000 0.000000 0.070691
#
#
# Mechanical properties :
#
#
# Convention : Reuss Voigt Hill
#
# Bulk Modulus (GPa) = 49.60848 50.76105 50.18476
# Shear Modulus (GPa) = 3.66037 13.73558 8.69797
#
# Velocity S-wave (km/s) = 1.51476 2.93430 2.33502
# Velocity P-wave (km/s) = 5.84435 6.58025 6.22319
#
# Compressibility (1/GPa) = 0.02015785
#
# Stress axis : x y z
#
# Youngs Moduli (GPa) = 43.67062 43.67062 99.22083
#
# Poissons Ratio (x) = 0.54356 0.26850
# Poissons Ratio (y) = 0.54356 0.26850
# Poissons Ratio (z) = 0.11818 0.11818
#
# Static dielectric constant tensor:
#      x y z
#    x 1.529720 0.000000 0.000000 
#    y 0.000000 1.529720 0.000000 
#    z 0.000000 0.000000 1.565770 
# 
# From -- ./inp_files/2481.got.cif
#   From: 2010.05.17/outbox.cif.g08.bks.cpg/sg183_2_cif.got.tgz:2481.got - 2010.05.20 12:02:58.
