data_PCOD9584973
_publ_section_title
;
Structure prediction by ZEFSAII (Michael W. Deem and Ramdas Pophale) SiO2 
 PCOD9584973
Probable space group: P 6 M M
;
_chemical_formula_sum "Si O2"
_cell_formula_units_Z 96
_cell_length_a 18.421350
_cell_length_b 18.421350
_cell_length_c 20.825513
_cell_angle_alpha 90.000000
_cell_angle_beta 90.000000
_cell_angle_gamma 120.000000
_cell_volume 6120.251206
_symmetry_space_group_name_H-M "P 6 M M"
_symmetry_group_IT_number 183
_symmetry_cell_setting 'hexagonal'
loop_
_space_group_symop_operation_xyz
x,y,z
x-y,x,z
-y,x-y,z
-x,-y,z
-x+y,-x,z
y,-x+y,z
-x+y,y,z
x,x-y,z
-y,-x,z
y,x,z
x-y,-y,z
-x,-x+y,z
loop_
_atom_site_type_symbol
_atom_site_label
_atom_site_fract_x
_atom_site_fract_y
_atom_site_fract_z
Si Si1 0.736668 0.097265 0.878950
Si Si2 0.099990 0.632111 0.760812
Si Si3 0.636815 0.538972 0.125453
Si Si4 0.264822 0.904866 0.512140
Si Si5 0.502540 0.833674 0.987594
Si Si6 0.363246 0.460912 0.265790
Si Si7 0.833407 0.331071 0.403599
Si Si8 0.667332 0.166216 0.618407
O O1 0.834707 0.165294 0.884127
O O2 0.699525 0.117433 0.815362
O O3 0.689678 0.112408 0.938491
O O4 0.710431 0.000000 0.876746
O O5 0.121600 0.560800 0.782884
O O6 0.145171 0.667715 0.693306
O O7 0.000000 0.583444 0.748927
O O8 0.550357 0.449644 0.126840
O O9 0.608404 0.608404 0.120072
O O10 0.677565 0.548459 0.195644
O O11 0.680837 0.535919 0.060659
O O12 0.167372 0.832629 0.510979
O O13 0.309435 0.887187 0.452130
O O14 0.306305 0.888197 0.574663
O O15 0.285655 0.000000 0.511097
O O16 0.424994 0.849987 0.980182
O O17 0.473753 0.736876 0.974973
O O18 0.450174 0.549827 0.264185
O O19 0.390938 0.390938 0.271568
O O20 0.319452 0.465017 0.330393
O O21 0.849722 0.424861 0.411572
O O22 0.736623 0.263378 0.416754
O O23 0.575328 0.150655 0.602648
O O24 0.737439 0.262561 0.606581
#
# Coordination Sequence:
#
# PCOD9584973 Si02
#       8
#    12  12  12  12  12  12  12  12
#     4  10  20  33  49  68  89 114 146 184 226 271
#     4   9  17  29  46  68  93 122 156 190 221 256
#     4   8  14  25  40  56  75 105 148 193 231 263
#     4  10  21  35  51  70  90 114 145 183 227 273
#     4  10  19  29  42  62  89 120 152 185 220 259
#     4   8  14  25  40  56  75 105 149 196 233 262
#     4  10  19  29  42  62  90 123 157 190 222 256
#     4  10  19  30  45  67  97 131 164 194 221 249
#
# _framework density 15.68563
#
# number of rings (size 3 to 8) (size 9 to 14) (size 15 to 20)
#    0.000    2.625    0.000    3.375    0.000    3.750 
#    0.000    1.250    0.000    5.750    0.000    0.000 
#    0.000    0.000    0.000    4.000    0.000    0.000 
#
# Total GULP energy -534849.531468 kJ/mol
# GULP energy per Si atom -5571.349286 kJ/mol
# Density = 1.564993 g / cm^3
# Si number density = 15.685630 Si / 1000 Ang^3
#
#
#
# Elastic Constant Matrix: (Units=GPa)
#
#
# Indices 1 2 3 4 5 6 
#
# 1 68.7627 46.1477 31.0268 0.0000 0.0000 0.0000
# 2 46.1477 68.7627 31.0268 0.0000 0.0000 0.0000
# 3 31.0268 31.0268 72.5997 0.0000 0.0000 0.0000
# 4 0.0000 0.0000 0.0000 17.1472 0.0000 0.0000
# 5 0.0000 0.0000 0.0000 0.0000 17.1472 0.0000
# 6 0.0000 0.0000 0.0000 0.0000 0.0000 11.3075
#
#
#
# Elastic Compliance Matrix: (Units=1/GPa)
#
#
# Indices 1 2 3 4 5 6 
#
# 1 0.027766 -0.016453 -0.004835 0.000000 0.000000 0.000000
# 2 -0.016453 0.027766 -0.004835 0.000000 0.000000 0.000000
# 3 -0.004835 -0.004835 0.017907 0.000000 0.000000 0.000000
# 4 0.000000 0.000000 0.000000 0.058319 0.000000 0.000000
# 5 0.000000 0.000000 0.000000 0.000000 0.058319 0.000000
# 6 0.000000 0.000000 0.000000 0.000000 0.000000 0.088437
#
#
# Mechanical properties :
#
#
# Convention : Reuss Voigt Hill
#
# Bulk Modulus (GPa) = 47.18394 47.39199 47.28796
# Shear Modulus (GPa) = 14.80068 15.91529 15.35798
#
# Velocity S-wave (km/s) = 3.07511 3.18880 3.13247
# Velocity P-wave (km/s) = 6.53871 6.62096 6.57996
#
# Compressibility (1/GPa) = 0.02119365
#
# Stress axis : x y z
#
# Youngs Moduli (GPa) = 36.01539 36.01539 55.84467
#
# Poissons Ratio (x) = 0.59254 0.27001
# Poissons Ratio (y) = 0.59254 0.27001
# Poissons Ratio (z) = 0.17413 0.17413
#
# Static dielectric constant tensor:
#      x y z
#    x 1.512870 0.000000 0.000000 
#    y 0.000000 1.512870 0.000000 
#    z 0.000000 0.000000 1.553180 
# 
# From -- ./inp_files/3059.got.cif
#   From: 2010.05.17/outbox.cif.g08.bks.cpg/sg183_2_cif.got.tgz:3059.got - 2010.05.20 12:02:58.
