data_PCOD9584455
_publ_section_title
;
Structure prediction by ZEFSAII (Michael W. Deem and Ramdas Pophale) SiO2 
 PCOD9584455
Probable space group: P 64 2 2
;
_chemical_formula_sum "Si O2"
_cell_formula_units_Z 57
_cell_length_a 13.451929
_cell_length_b 13.451929
_cell_length_c 15.683227
_cell_angle_alpha 90.000000
_cell_angle_beta 90.000000
_cell_angle_gamma 120.000000
_cell_volume 2457.735786
_symmetry_space_group_name_H-M "P 64 2 2"
_symmetry_group_IT_number 181
_symmetry_cell_setting 'hexagonal'
loop_
_space_group_symop_operation_xyz
x,y,z
x-y,x,2/3+z
-y,x-y,1/3+z
-x,-y,z
-x+y,-x,2/3+z
y,-x+y,1/3+z
x-y,-y,-z
-x,-x+y,2/3-z
y,x,1/3-z
-y,-x,1/3-z
-x+y,y,-z
x,x-y,2/3-z
loop_
_atom_site_type_symbol
_atom_site_label
_atom_site_fract_x
_atom_site_fract_y
_atom_site_fract_z
Si Si1 0.222324 0.444648 0.500000
Si Si2 0.800318 0.358182 0.423159
Si Si3 0.500000 0.000000 0.500000
Si Si4 0.546903 0.815972 0.424842
Si Si5 0.153880 0.964981 0.586555
Si Si6 0.870348 0.195508 0.340513
O O1 0.169045 0.526207 0.475305
O O2 0.174733 0.368080 0.583710
O O3 0.747620 0.373810 0.333334
O O4 0.739818 0.264580 0.496839
O O5 0.879503 0.309180 0.384816
O O6 0.530225 0.924177 0.438009
O O7 0.509681 0.754841 0.333334
O O8 0.682664 0.859684 0.430290
O O9 0.070801 0.929200 0.666667
O O10 0.117763 0.000000 0.500000
O O11 0.275378 0.076352 0.610071
O O12 0.000000 0.222944 0.333334
#
# Coordination Sequence:
#
# PCOD9584455 Si02
#       6
#     6  12   3  12  12  12
#     4  10  25  40  70 102 140 200 255 304 380 456
#     4  10  22  44  67  99 143 190 245 308 370 447
#     4  12  22  40  64 104 134 186 246 280 368 438
#     4  11  24  41  69 100 144 191 239 310 370 442
#     4  11  24  46  74 104 148 194 250 315 387 461
#     4  11  25  45  71 104 150 193 252 316 385 457
#
# _framework density 23.192080000000001
#
# number of rings (size 3 to 8) (size 9 to 14) (size 15 to 20)
#    0.000    1.263    3.158    0.632    2.947   12.632 
#    0.000    3.158    0.000    0.000    0.000    0.000 
#    0.000    0.000    0.000    0.000    0.000    0.000 
#
# Total GULP energy -317720.504139 kJ/mol
# GULP energy per Si atom -5574.043932 kJ/mol
# Density = 2.313929 g / cm^3
# Si number density = 23.192080 Si / 1000 Ang^3
#
#
#
# Elastic Constant Matrix: (Units=GPa)
#
#
# Indices 1 2 3 4 5 6 
#
# 1 68.7315 25.2410 59.9376 0.0000 0.0000 0.0000
# 2 25.2410 68.7315 59.9376 0.0000 0.0000 0.0000
# 3 59.9376 59.9376 205.0162 0.0000 0.0000 0.0000
# 4 0.0000 0.0000 0.0000 22.9622 0.0000 0.0000
# 5 0.0000 0.0000 0.0000 0.0000 22.9622 0.0000
# 6 0.0000 0.0000 0.0000 0.0000 0.0000 21.7452
#
#
#
# Elastic Compliance Matrix: (Units=1/GPa)
#
#
# Indices 1 2 3 4 5 6 
#
# 1 0.019982 -0.003012 -0.004961 0.000000 0.000000 0.000000
# 2 -0.003012 0.019982 -0.004961 0.000000 0.000000 0.000000
# 3 -0.004961 -0.004961 0.007779 0.000000 0.000000 0.000000
# 4 0.000000 0.000000 0.000000 0.043550 0.000000 0.000000
# 5 0.000000 0.000000 0.000000 0.000000 0.043550 0.000000
# 6 0.000000 0.000000 0.000000 0.000000 0.000000 0.045987
#
#
# Mechanical properties :
#
#
# Convention : Reuss Voigt Hill
#
# Bulk Modulus (GPa) = 45.71674 70.30126 58.00900
# Shear Modulus (GPa) = 23.36565 26.69145 25.02855
#
# Velocity S-wave (km/s) = 3.17753 3.39615 3.28866
# Velocity P-wave (km/s) = 5.76344 6.76438 6.28388
#
# Compressibility (1/GPa) = 0.02187383
#
# Stress axis : x y z
#
# Youngs Moduli (GPa) = 50.04516 50.04516 128.55741
#
# Poissons Ratio (x) = 0.15072 0.63782
# Poissons Ratio (y) = 0.15072 0.63782
# Poissons Ratio (z) = 0.24829 0.24829
#
# Static dielectric constant tensor:
#      x y z
#    x 1.883970 0.000000 0.000000 
#    y 0.000000 1.883970 0.000000 
#    z 0.000000 0.000000 1.874030 
# 
# From -- ./inp_files/6185.got.cif
#   From: 2010.05.17/outbox.cif.g08.bks.cpg/sg181_4_cif.got.tgz:6185.got - 2010.05.20 11:51:17.
