data_PCOD9584510
_publ_section_title
;
Structure prediction by ZEFSAII (Michael W. Deem and Ramdas Pophale) SiO2 
 PCOD9584510
Probable space group: P 64 2 2
;
_chemical_formula_sum "Si O2"
_cell_formula_units_Z 48
_cell_length_a 10.665617
_cell_length_b 10.665617
_cell_length_c 19.825183
_cell_angle_alpha 90.000000
_cell_angle_beta 90.000000
_cell_angle_gamma 120.000000
_cell_volume 1953.078975
_symmetry_space_group_name_H-M "P 64 2 2"
_symmetry_group_IT_number 181
_symmetry_cell_setting 'hexagonal'
loop_
_space_group_symop_operation_xyz
x,y,z
x-y,x,2/3+z
-y,x-y,1/3+z
-x,-y,z
-x+y,-x,2/3+z
y,-x+y,1/3+z
x-y,-y,-z
-x,-x+y,2/3-z
y,x,1/3-z
-y,-x,1/3-z
-x+y,y,-z
x,x-y,2/3-z
loop_
_atom_site_type_symbol
_atom_site_label
_atom_site_fract_x
_atom_site_fract_y
_atom_site_fract_z
Si Si1 0.404308 0.838775 0.317617
Si Si2 0.060917 0.167115 0.921086
Si Si3 0.881766 0.641157 0.274495
Si Si4 0.325734 0.367833 0.477728
O O1 0.468393 0.734197 0.333334
O O2 0.249789 0.760199 0.354182
O O3 0.382912 0.875599 0.239505
O O4 0.500000 0.000000 0.346846
O O5 0.218745 0.282767 0.894395
O O6 0.920482 0.182686 0.910411
O O7 0.085282 0.170564 0.000000
O O8 0.000000 0.000000 0.900523
O O9 0.000000 0.729348 0.333334
O O10 0.955580 0.602483 0.213497
O O11 0.172568 0.345135 0.500000
#
# Coordination Sequence:
#
# PCOD9584510 Si02
#       4
#    12  12  12  12
#     4  12  31  55  82 113 170 227 288 364 455 532
#     4  11  17  33  68 114 163 200 262 337 416 498
#     4  12  23  44  79 119 161 217 278 355 434 514
#     4  12  23  42  80 121 157 214 278 352 427 523
#
# _framework density 24.576577
#
# number of rings (size 3 to 8) (size 9 to 14) (size 15 to 20)
#    0.000    0.250   10.000    0.750    3.500    2.500 
#    0.000    0.000    0.000    0.000    0.000    0.000 
#    0.000    0.000    0.000    0.000    0.000    0.000 
#
# Total GULP energy -268104.693467 kJ/mol
# GULP energy per Si atom -5585.514447 kJ/mol
# Density = 2.452064 g / cm^3
# Si number density = 24.576577 Si / 1000 Ang^3
#
#
#
# Elastic Constant Matrix: (Units=GPa)
#
#
# Indices 1 2 3 4 5 6 
#
# 1 277.5319 -91.7305 43.8407 0.0000 0.0000 0.0000
# 2 -91.7305 277.5319 43.8407 0.0000 0.0000 0.0000
# 3 43.8407 43.8407 178.3480 0.0000 0.0000 0.0000
# 4 0.0000 0.0000 0.0000 36.2884 0.0000 0.0000
# 5 0.0000 0.0000 0.0000 0.0000 36.2884 0.0000
# 6 0.0000 0.0000 0.0000 0.0000 0.0000 184.6312
#
#
#
# Elastic Compliance Matrix: (Units=1/GPa)
#
#
# Indices 1 2 3 4 5 6 
#
# 1 0.004398 0.001690 -0.001497 0.000000 0.000000 0.000000
# 2 0.001690 0.004398 -0.001497 0.000000 0.000000 0.000000
# 3 -0.001497 -0.001497 0.006343 0.000000 0.000000 0.000000
# 4 0.000000 0.000000 0.000000 0.027557 0.000000 0.000000
# 5 0.000000 0.000000 0.000000 0.000000 0.027557 0.000000
# 6 0.000000 0.000000 0.000000 0.000000 0.000000 0.005416
#
#
# Mechanical properties :
#
#
# Convention : Reuss Voigt Hill
#
# Bulk Modulus (GPa) = 79.78898 80.59040 80.18969
# Shear Modulus (GPa) = 60.64038 100.60568 80.62303
#
# Velocity S-wave (km/s) = 4.97269 6.40503 5.73376
# Velocity P-wave (km/s) = 8.09358 9.35746 8.74837
#
# Compressibility (1/GPa) = 0.01253306
#
# Stress axis : x y z
#
# Youngs Moduli (GPa) = 227.36426 227.36426 157.65920
#
# Poissons Ratio (x) = -0.38427 0.23595
# Poissons Ratio (y) = -0.38427 0.23595
# Poissons Ratio (z) = 0.34028 0.34028
#
# Static dielectric constant tensor:
#      x y z
#    x 2.004200 0.000000 0.000000 
#    y 0.000000 2.004200 0.000000 
#    z 0.000000 0.000000 2.005570 
# 
# From -- ./inp_files/8657.got.cif
#   From: 2010.05.17/outbox.cif.g08.bks.cpg/sg181_5_cif.got.tgz:8657.got - 2010.05.20 11:51:17.
