data_PCOD9584889
_publ_section_title
;
Structure prediction by ZEFSAII (Michael W. Deem and Ramdas Pophale) SiO2 
 PCOD9584889
Probable space group: P 63 2 2
;
_chemical_formula_sum "Si O2"
_cell_formula_units_Z 34
_cell_length_a 12.200044
_cell_length_b 12.200044
_cell_length_c 12.928248
_cell_angle_alpha 90.000000
_cell_angle_beta 90.000000
_cell_angle_gamma 120.000000
_cell_volume 1666.453118
_symmetry_space_group_name_H-M "P 63 2 2"
_symmetry_group_IT_number 182
_symmetry_cell_setting 'hexagonal'
loop_
_space_group_symop_operation_xyz
x,y,z
x-y,x,1/2+z
-y,x-y,z
-x,-y,1/2+z
-x+y,-x,z
y,-x+y,1/2+z
x-y,-y,-z
-x,-x+y,-z
y,x,-z
-y,-x,1/2-z
-x+y,y,1/2-z
x,x-y,1/2-z
loop_
_atom_site_type_symbol
_atom_site_label
_atom_site_fract_x
_atom_site_fract_y
_atom_site_fract_z
Si Si1 0.000000 0.000000 0.630330
Si Si2 0.269982 0.218348 0.099751
Si Si3 0.691405 0.000000 0.500000
Si Si4 0.665768 0.078551 0.721019
O O1 0.884675 0.862213 0.603003
O O2 0.000000 0.000000 0.750000
O O3 0.318044 0.294614 0.206727
O O4 0.300344 0.110438 0.064244
O O5 0.309428 0.309428 0.000000
O O6 0.663876 0.063679 0.597193
O O7 0.788494 0.211507 0.750000
O O8 0.536561 0.073122 0.750000
#
# Coordination Sequence:
#
# PCOD9584889 Si02
#       4
#     4  12   6  12
#     4  12  19  32  64 106 149 164 194 277 364 428
#     4  12  21  39  66 105 136 166 211 281 359 413
#     4  12  24  42  74 102 138 174 212 294 360 412
#     4  12  27  45  65  95 134 185 239 274 324 402
#
# _framework density 20.402612999999999
#
# number of rings (size 3 to 8) (size 9 to 14) (size 15 to 20)
#    0.000    0.000    7.059    4.588    2.471    0.000 
#    0.000    0.000    0.000    5.647    0.000    0.000 
#    0.000    0.000    0.000    0.000    0.000    0.000 
#
# Total GULP energy -189378.025608 kJ/mol
# GULP energy per Si atom -5569.941930 kJ/mol
# Density = 2.035618 g / cm^3
# Si number density = 20.402613 Si / 1000 Ang^3
#
#
#
# Elastic Constant Matrix: (Units=GPa)
#
#
# Indices 1 2 3 4 5 6 
#
# 1 91.3646 47.3359 57.7801 0.0000 0.0000 0.0000
# 2 47.3359 91.3646 57.7801 0.0000 0.0000 0.0000
# 3 57.7801 57.7801 229.0745 0.0000 0.0000 0.0000
# 4 0.0000 0.0000 0.0000 -41.0905 0.0000 0.0000
# 5 0.0000 0.0000 0.0000 0.0000 -41.0905 0.0000
# 6 0.0000 0.0000 0.0000 0.0000 0.0000 22.0144
#
#
#
# Elastic Compliance Matrix: (Units=1/GPa)
#
#
# Indices 1 2 3 4 5 6 
#
# 1 0.015920 -0.006792 -0.002302 0.000000 0.000000 0.000000
# 2 -0.006792 0.015920 -0.002302 0.000000 0.000000 0.000000
# 3 -0.002302 -0.002302 0.005527 0.000000 0.000000 0.000000
# 4 0.000000 0.000000 0.000000 -0.024337 0.000000 0.000000
# 5 0.000000 0.000000 0.000000 0.000000 -0.024337 0.000000
# 6 0.000000 0.000000 0.000000 0.000000 0.000000 0.045425
#
#
# Mechanical properties :
#
#
# Convention : Reuss Voigt Hill
#
# Bulk Modulus (GPa) = 68.61817 81.95511 75.28664
# Shear Modulus (GPa) = 80.94413 4.56051 42.75232
#
# Velocity S-wave (km/s) = 6.30552 1.49670 4.58256
# Velocity P-wave (km/s) = 9.31224 6.57594 8.06104
#
# Compressibility (1/GPa) = 0.01457340
#
# Stress axis : x y z
#
# Youngs Moduli (GPa) = 62.81307 62.81307 180.93415
#
# Poissons Ratio (x) = 0.42664 0.41658
# Poissons Ratio (y) = 0.42664 0.41658
# Poissons Ratio (z) = 0.14462 0.14462
#
# Static dielectric constant tensor:
#      x y z
#    x 1.748010 0.000000 0.000000 
#    y 0.000000 1.748010 0.000000 
#    z 0.000000 0.000000 1.793390 
# 
# From -- ./inp_files/3034.got.cif
#   From: 2010.05.17/outbox.cif.g08.bks.cpg/sg182_2_cif.got.tgz:3034.got - 2010.05.20 11:58:53.
