data_PCOD9584320
_publ_section_title
;
Structure prediction by ZEFSAII (Michael W. Deem and Ramdas Pophale) SiO2 
 PCOD9584320
Probable space group: P 64 2 2
;
_chemical_formula_sum "Si O2"
_cell_formula_units_Z 72
_cell_length_a 22.578586
_cell_length_b 22.578586
_cell_length_c 8.541514
_cell_angle_alpha 90.000000
_cell_angle_beta 90.000000
_cell_angle_gamma 120.000000
_cell_volume 3771.021163
_symmetry_space_group_name_H-M "P 64 2 2"
_symmetry_group_IT_number 181
_symmetry_cell_setting 'hexagonal'
loop_
_space_group_symop_operation_xyz
x,y,z
x-y,x,2/3+z
-y,x-y,1/3+z
-x,-y,z
-x+y,-x,2/3+z
y,-x+y,1/3+z
x-y,-y,-z
-x,-x+y,2/3-z
y,x,1/3-z
-y,-x,1/3-z
-x+y,y,-z
x,x-y,2/3-z
loop_
_atom_site_type_symbol
_atom_site_label
_atom_site_fract_x
_atom_site_fract_y
_atom_site_fract_z
Si Si1 0.439157 0.560844 0.166667
Si Si2 0.110006 0.357487 0.236604
Si Si3 0.270839 0.135420 0.333334
Si Si4 0.824468 0.412234 0.333334
Si Si5 0.666328 0.958184 0.790672
Si Si6 0.056305 0.478668 0.544837
Si Si7 0.239301 0.239301 0.166667
Si Si8 0.315806 0.808959 0.750200
O O1 0.421741 0.497712 0.276317
O O2 0.464456 0.624732 0.285033
O O3 0.105046 0.352061 0.425286
O O4 0.139210 0.433730 0.164751
O O5 0.031352 0.309108 0.189365
O O6 0.144410 0.321231 0.143848
O O7 0.230474 0.173586 0.267102
O O8 0.876337 0.475308 0.442625
O O9 0.784339 0.437386 0.223125
O O10 0.599304 0.965743 0.801482
O O11 0.697014 0.958481 0.620734
O O12 0.000000 0.500000 0.504644
O O13 0.250075 0.749926 0.666667
#
# Coordination Sequence:
#
# PCOD9584320 Si02
#       8
#     6  12   6   6  12  12   6  12
#     4  10  25  36  50  82 112 154 214 258 322 378
#     4  10  20  36  60  90 128 164 208 253 323 384
#     4  10  22  42  64  95 134 173 211 260 320 393
#     4  10  21  38  56  85 112 154 217 260 324 389
#     4  10  21  34  57  92 127 167 205 255 316 392
#     4  11  21  31  54  83 123 159 199 256 321 387
#     4  10  24  40  65  94 138 171 214 254 314 394
#     4  11  22  42  60  80 115 161 214 283 326 386
#
# _framework density 19.092970999999999
#
# number of rings (size 3 to 8) (size 9 to 14) (size 15 to 20)
#    0.000    1.667    2.500    2.500    9.333    0.667 
#    1.500    2.500    0.000    0.000    0.000    0.000 
#    0.000   54.667    0.000    0.000    0.000    0.000 
#
# Total GULP energy -400815.235785 kJ/mol
# GULP energy per Si atom -5566.878275 kJ/mol
# Density = 1.904951 g / cm^3
# Si number density = 19.092971 Si / 1000 Ang^3
#
#
#
# Elastic Constant Matrix: (Units=GPa)
#
#
# Indices 1 2 3 4 5 6 
#
# 1 65.8917 31.7348 38.9078 0.0000 0.0000 0.0000
# 2 31.7348 65.8917 38.9078 0.0000 0.0000 0.0000
# 3 38.9078 38.9078 129.5076 0.0000 0.0000 0.0000
# 4 0.0000 0.0000 0.0000 19.4358 0.0000 0.0000
# 5 0.0000 0.0000 0.0000 0.0000 19.4358 0.0000
# 6 0.0000 0.0000 0.0000 0.0000 0.0000 17.0784
#
#
#
# Elastic Compliance Matrix: (Units=1/GPa)
#
#
# Indices 1 2 3 4 5 6 
#
# 1 0.021373 -0.007904 -0.004046 0.000000 0.000000 0.000000
# 2 -0.007904 0.021373 -0.004046 0.000000 0.000000 0.000000
# 3 -0.004046 -0.004046 0.010153 0.000000 0.000000 0.000000
# 4 0.000000 0.000000 0.000000 0.051451 0.000000 0.000000
# 5 0.000000 0.000000 0.000000 0.000000 0.051451 0.000000
# 6 0.000000 0.000000 0.000000 0.000000 0.000000 0.058553
#
#
# Mechanical properties :
#
#
# Convention : Reuss Voigt Hill
#
# Bulk Modulus (GPa) = 47.83699 53.37686 50.60692
# Shear Modulus (GPa) = 19.73821 21.30603 20.52212
#
# Velocity S-wave (km/s) = 3.21876 3.34415 3.28205
# Velocity P-wave (km/s) = 6.23883 6.55195 6.39731
#
# Compressibility (1/GPa) = 0.02090432
#
# Stress axis : x y z
#
# Youngs Moduli (GPa) = 46.78907 46.78907 98.49516
#
# Poissons Ratio (x) = 0.36983 0.39854
# Poissons Ratio (y) = 0.36983 0.39854
# Poissons Ratio (z) = 0.18932 0.18932
#
# Static dielectric constant tensor:
#      x y z
#    x 1.733620 0.000000 0.000000 
#    y 0.000000 1.733620 0.000000 
#    z 0.000000 0.000000 1.749890 
# 
# From -- ./inp_files/3403.got.cif
#   From: 2010.05.17/outbox.cif.g08.bks.cpg/sg181_2_cif.got.tgz:3403.got - 2010.05.20 11:51:17.
