data_PCOD9584261
_publ_section_title
;
Structure prediction by ZEFSAII (Michael W. Deem and Ramdas Pophale) SiO2 
 PCOD9584261
Probable space group: P 64 2 2
;
_chemical_formula_sum "Si O2"
_cell_formula_units_Z 72
_cell_length_a 23.056082
_cell_length_b 23.056082
_cell_length_c 9.946644
_cell_angle_alpha 90.000000
_cell_angle_beta 90.000000
_cell_angle_gamma 120.000000
_cell_volume 4579.079907
_symmetry_space_group_name_H-M "P 64 2 2"
_symmetry_group_IT_number 181
_symmetry_cell_setting 'hexagonal'
loop_
_space_group_symop_operation_xyz
x,y,z
x-y,x,2/3+z
-y,x-y,1/3+z
-x,-y,z
-x+y,-x,2/3+z
y,-x+y,1/3+z
x-y,-y,-z
-x,-x+y,2/3-z
y,x,1/3-z
-y,-x,1/3-z
-x+y,y,-z
x,x-y,2/3-z
loop_
_atom_site_type_symbol
_atom_site_label
_atom_site_fract_x
_atom_site_fract_y
_atom_site_fract_z
Si Si1 0.454949 0.420079 0.903851
Si Si2 0.392303 0.319191 0.150662
Si Si3 0.165770 0.571078 0.483727
Si Si4 0.440703 0.097771 0.210975
Si Si5 0.594500 0.269879 0.623133
Si Si6 0.225273 0.450200 0.163985
O O1 0.500000 0.500000 0.934313
O O2 0.497733 0.396816 0.816769
O O3 0.390547 0.413271 0.827508
O O4 0.434427 0.375701 0.039249
O O5 0.323695 0.323695 0.166667
O O6 0.423130 0.337268 0.298731
O O7 0.403519 0.255952 0.122887
O O8 0.187139 0.593570 0.333334
O O9 0.138870 0.618234 0.539133
O O10 0.222716 0.576374 0.580498
O O11 0.417855 0.145989 0.143626
O O12 0.659476 0.340525 0.666667
O O13 0.622491 0.244982 0.500000
O O14 0.523604 0.258687 0.566976
O O15 0.229651 0.459301 0.000000
#
# Coordination Sequence:
#
# PCOD9584261 Si02
#       6
#    12  12  12  12  12  12
#     4   9  18  31  51  70  88 113 155 195 231 286
#     4   9  16  30  51  72  86 115 155 191 229 283
#     4  11  23  36  50  69  91 119 154 197 239 298
#     4   9  19  30  47  70  92 114 145 190 246 279
#     4  12  24  37  52  66  88 124 155 185 236 308
#     4  10  19  34  49  71  97 117 148 198 244 294
#
# _framework density 15.723682
#
# number of rings (size 3 to 8) (size 9 to 14) (size 15 to 20)
#    0.000    2.000    1.667    3.500    0.000   13.333 
#    0.000    0.000    0.000    0.000    0.000    0.000 
#    0.000    0.000    0.000    0.000    0.000    0.000 
#
# Total GULP energy -400900.330586 kJ/mol
# GULP energy per Si atom -5568.060147 kJ/mol
# Density = 1.568789 g / cm^3
# Si number density = 15.723682 Si / 1000 Ang^3
#
#
#
# Elastic Constant Matrix: (Units=GPa)
#
#
# Indices 1 2 3 4 5 6 
#
# 1 81.3219 70.9128 32.5373 0.0000 0.0000 0.0000
# 2 70.9128 81.3219 32.5373 0.0000 0.0000 0.0000
# 3 32.5373 32.5373 59.9301 0.0000 0.0000 0.0000
# 4 0.0000 0.0000 0.0000 16.9005 0.0000 0.0000
# 5 0.0000 0.0000 0.0000 0.0000 16.9005 0.0000
# 6 0.0000 0.0000 0.0000 0.0000 0.0000 5.2046
#
#
#
# Elastic Compliance Matrix: (Units=1/GPa)
#
#
# Indices 1 2 3 4 5 6 
#
# 1 0.052312 -0.043758 -0.004644 0.000000 0.000000 0.000000
# 2 -0.043758 0.052312 -0.004644 0.000000 0.000000 0.000000
# 3 -0.004644 -0.004644 0.021729 0.000000 0.000000 0.000000
# 4 0.000000 0.000000 0.000000 0.059170 0.000000 0.000000
# 5 0.000000 0.000000 0.000000 0.000000 0.059170 0.000000
# 6 0.000000 0.000000 0.000000 0.000000 0.000000 0.192139
#
#
# Mechanical properties :
#
#
# Convention : Reuss Voigt Hill
#
# Bulk Modulus (GPa) = 49.35751 54.94985 52.15368
# Shear Modulus (GPa) = 9.09626 13.57354 11.33490
#
# Velocity S-wave (km/s) = 2.40783 2.94131 2.68784
# Velocity P-wave (km/s) = 6.26010 6.82335 6.54779
#
# Compressibility (1/GPa) = 0.02026034
#
# Stress axis : x y z
#
# Youngs Moduli (GPa) = 19.11620 19.11620 46.02161
#
# Poissons Ratio (x) = 0.83648 0.21373
# Poissons Ratio (y) = 0.83648 0.21373
# Poissons Ratio (z) = 0.08878 0.08878
#
# Static dielectric constant tensor:
#      x y z
#    x 1.613310 0.000000 0.000000 
#    y 0.000000 1.613310 0.000000 
#    z 0.000000 0.000000 1.564240 
# 
# From -- ./inp_files/3367.got.cif
#   From: 2010.05.17/outbox.cif.g08.bks.cpg/sg181_2_cif.got.tgz:3367.got - 2010.05.20 11:51:17.
