data_PCOD9584856
_publ_section_title
;
Structure prediction by ZEFSAII (Michael W. Deem and Ramdas Pophale) SiO2 
 PCOD9584856
Probable space group: P 63 2 2
;
_chemical_formula_sum "Si O2"
_cell_formula_units_Z 48
_cell_length_a 18.092780
_cell_length_b 18.092780
_cell_length_c 8.248010
_cell_angle_alpha 90.000000
_cell_angle_beta 90.000000
_cell_angle_gamma 120.000000
_cell_volume 2338.247159
_symmetry_space_group_name_H-M "P 63 2 2"
_symmetry_group_IT_number 182
_symmetry_cell_setting 'hexagonal'
loop_
_space_group_symop_operation_xyz
x,y,z
x-y,x,1/2+z
-y,x-y,z
-x,-y,1/2+z
-x+y,-x,z
y,-x+y,1/2+z
x-y,-y,-z
-x,-x+y,-z
y,x,-z
-y,-x,1/2-z
-x+y,y,1/2-z
x,x-y,1/2-z
loop_
_atom_site_type_symbol
_atom_site_label
_atom_site_fract_x
_atom_site_fract_y
_atom_site_fract_z
Si Si1 0.965140 0.776232 0.167855
Si Si2 0.344160 0.070399 0.867086
Si Si3 0.479448 0.080685 0.613881
Si Si4 0.416002 0.240346 0.079041
O O1 0.898772 0.797543 0.250000
O O2 0.909135 0.674595 0.122013
O O3 0.038748 0.787418 0.290617
O O4 0.000000 0.823267 0.000000
O O5 0.398940 0.064284 0.722390
O O6 0.389398 0.162562 0.952467
O O7 0.329452 0.000000 0.000000
O O8 0.550635 0.101270 0.750000
O O9 0.484429 0.153424 0.494792
O O10 0.459846 0.000000 0.500000
O O11 0.446291 0.223146 0.250000
#
# Coordination Sequence:
#
# PCOD9584856 Si02
#       4
#    12  12  12  12
#     4  11  21  36  59  95 146 171 224 289 350 411
#     4  12  20  36  65  98 134 177 223 284 352 404
#     4  12  24  40  60  96 142 174 217 281 358 418
#     4  11  21  38  65  96 139 173 227 292 344 418
#
# _framework density 20.528198
#
# number of rings (size 3 to 8) (size 9 to 14) (size 15 to 20)
#    0.000    0.500   10.000    1.500    0.000    0.000 
#    0.000    0.000    0.000    4.000    0.000    7.000 
#  122.500    0.000    0.000    0.000    0.000    0.000 
#
# Total GULP energy -268140.207440 kJ/mol
# GULP energy per Si atom -5586.254322 kJ/mol
# Density = 2.048147 g / cm^3
# Si number density = 20.528198 Si / 1000 Ang^3
#
#
#
# Elastic Constant Matrix: (Units=GPa)
#
#
# Indices 1 2 3 4 5 6 
#
# 1 70.1784 41.1487 48.1475 0.0000 0.0000 0.0000
# 2 41.1487 70.1784 48.1475 0.0000 0.0000 0.0000
# 3 48.1475 48.1475 158.0261 0.0000 0.0000 0.0000
# 4 0.0000 0.0000 0.0000 46.0223 0.0000 0.0000
# 5 0.0000 0.0000 0.0000 0.0000 46.0223 0.0000
# 6 0.0000 0.0000 0.0000 0.0000 0.0000 14.5149
#
#
#
# Elastic Compliance Matrix: (Units=1/GPa)
#
#
# Indices 1 2 3 4 5 6 
#
# 1 0.023322 -0.011125 -0.003716 0.000000 0.000000 0.000000
# 2 -0.011125 0.023322 -0.003716 0.000000 0.000000 0.000000
# 3 -0.003716 -0.003716 0.008593 0.000000 0.000000 0.000000
# 4 0.000000 0.000000 0.000000 0.021729 0.000000 0.000000
# 5 0.000000 0.000000 0.000000 0.000000 0.021729 0.000000
# 6 0.000000 0.000000 0.000000 0.000000 0.000000 0.068895
#
#
# Mechanical properties :
#
#
# Convention : Reuss Voigt Hill
#
# Bulk Modulus (GPa) = 55.18235 63.69668 59.43952
# Shear Modulus (GPa) = 23.72539 32.04118 27.88328
#
# Velocity S-wave (km/s) = 3.40332 3.95503 3.68950
# Velocity P-wave (km/s) = 6.51022 7.20781 6.86788
#
# Compressibility (1/GPa) = 0.01812174
#
# Stress axis : x y z
#
# Youngs Moduli (GPa) = 42.87766 42.87766 116.37986
#
# Poissons Ratio (x) = 0.47702 0.43249
# Poissons Ratio (y) = 0.47702 0.43249
# Poissons Ratio (z) = 0.15934 0.15934
#
# Static dielectric constant tensor:
#      x y z
#    x 1.760240 0.000000 0.000000 
#    y 0.000000 1.760240 0.000000 
#    z 0.000000 0.000000 1.847880 
# 
# From -- ./inp_files/1415.got.cif
#   From: 2010.05.17/outbox.cif.g08.bks.cpg/sg182_1_cif.got.tgz:1415.got - 2010.05.20 11:58:53.
