data_PCOD9584651
_publ_section_title
;
Structure prediction by ZEFSAII (Michael W. Deem and Ramdas Pophale) SiO2 
 PCOD9584651
Probable space group: P 63 2 2
;
_chemical_formula_sum "Si O2"
_cell_formula_units_Z 84
_cell_length_a 18.968247
_cell_length_b 18.968247
_cell_length_c 14.311534
_cell_angle_alpha 90.000000
_cell_angle_beta 90.000000
_cell_angle_gamma 120.000000
_cell_volume 4459.346415
_symmetry_space_group_name_H-M "P 63 2 2"
_symmetry_group_IT_number 182
_symmetry_cell_setting 'hexagonal'
loop_
_space_group_symop_operation_xyz
x,y,z
x-y,x,1/2+z
-y,x-y,z
-x,-y,1/2+z
-x+y,-x,z
y,-x+y,1/2+z
x-y,-y,-z
-x,-x+y,-z
y,x,-z
-y,-x,1/2-z
-x+y,y,1/2-z
x,x-y,1/2-z
loop_
_atom_site_type_symbol
_atom_site_label
_atom_site_fract_x
_atom_site_fract_y
_atom_site_fract_z
Si Si1 0.149931 0.621238 0.616573
Si Si2 0.396237 0.061778 0.736653
Si Si3 0.695900 0.916481 0.815695
Si Si4 0.253773 0.000000 0.500000
Si Si5 0.983448 0.491724 0.250000
Si Si6 0.594153 0.679230 0.048284
Si Si7 0.242342 0.839243 0.425034
Si Si8 0.799727 0.286767 0.392487
O O1 0.073210 0.584538 0.684438
O O2 0.120761 0.633902 0.515201
O O3 0.179076 0.556225 0.628241
O O4 0.221361 0.710509 0.642101
O O5 0.422362 0.078158 0.844073
O O6 0.414041 0.142735 0.681116
O O7 0.299800 0.993105 0.732336
O O8 0.456067 0.031909 0.693309
O O9 0.713582 0.856791 0.750000
O O10 0.603016 0.860458 0.853024
O O11 0.755738 0.955486 0.906880
O O12 0.265799 0.928987 0.457679
O O13 0.627646 0.775903 0.052805
O O14 0.656504 0.656504 0.000000
O O15 0.285109 0.806028 0.494520
#
# Coordination Sequence:
#
# PCOD9584651 Si02
#       8
#    12  12  12   6   6  12  12  12
#     4  11  23  37  53  82 112 155 201 249 303 353
#     4  11  22  37  56  82 111 157 197 248 302 364
#     4  10  19  34  57  79 113 152 191 245 306 364
#     4   8  18  34  56  86 110 144 186 234 294 364
#     4  12  22  34  54  84 112 142 210 248 296 364
#     4  11  23  38  57  85 118 149 192 254 305 359
#     4   9  21  38  58  80 112 150 190 241 299 362
#     4  10  21  36  54  74 114 151 197 255 300 353
#
# _framework density 18.836839999999999
#
# number of rings (size 3 to 8) (size 9 to 14) (size 15 to 20)
#    0.000    1.714    2.857    1.571    6.000    0.000 
#    1.286    0.000    0.000    0.000    0.000    0.000 
#    0.714    0.000    0.000    0.000    0.000    0.000 
#
# Total GULP energy -467616.749957 kJ/mol
# GULP energy per Si atom -5566.866071 kJ/mol
# Density = 1.879397 g / cm^3
# Si number density = 18.836840 Si / 1000 Ang^3
#
#
#
# Elastic Constant Matrix: (Units=GPa)
#
#
# Indices 1 2 3 4 5 6 
#
# 1 91.2063 -30.7845 5.5614 0.0000 0.0000 0.0000
# 2 -30.7845 91.2063 5.5614 0.0000 0.0000 0.0000
# 3 5.5614 5.5614 90.6912 0.0000 0.0000 0.0000
# 4 0.0000 0.0000 0.0000 26.6566 0.0000 0.0000
# 5 0.0000 0.0000 0.0000 0.0000 26.6566 0.0000
# 6 0.0000 0.0000 0.0000 0.0000 0.0000 60.9954
#
#
#
# Elastic Compliance Matrix: (Units=1/GPa)
#
#
# Indices 1 2 3 4 5 6 
#
# 1 0.012468 0.004271 -0.001026 0.000000 0.000000 0.000000
# 2 0.004271 0.012468 -0.001026 0.000000 0.000000 0.000000
# 3 -0.001026 -0.001026 0.011152 0.000000 0.000000 0.000000
# 4 0.000000 0.000000 0.000000 0.037514 0.000000 0.000000
# 5 0.000000 0.000000 0.000000 0.000000 0.037514 0.000000
# 6 0.000000 0.000000 0.000000 0.000000 0.000000 0.016395
#
#
# Mechanical properties :
#
#
# Convention : Reuss Voigt Hill
#
# Bulk Modulus (GPa) = 24.67617 25.97560 25.32588
# Shear Modulus (GPa) = 36.60743 42.37941 39.49342
#
# Velocity S-wave (km/s) = 4.41318 4.74837 4.58384
# Velocity P-wave (km/s) = 6.25273 6.62438 6.44123
#
# Compressibility (1/GPa) = 0.04052493
#
# Stress axis : x y z
#
# Youngs Moduli (GPa) = 80.20326 80.20326 89.66746
#
# Poissons Ratio (x) = -0.34255 0.09204
# Poissons Ratio (y) = -0.34255 0.09204
# Poissons Ratio (z) = 0.08233 0.08233
#
# Static dielectric constant tensor:
#      x y z
#    x 1.842580 0.000000 0.000000 
#    y 0.000000 1.842580 0.000000 
#    z 0.000000 0.000000 1.772920 
# 
# From -- ./inp_files/3758.got.cif
#   From: 2010.05.17/outbox.cif.g08.bks.cpg/sg182_2_cif.got.tgz:3758.got - 2010.05.20 11:58:53.
