data_PCOD9584287
_publ_section_title
;
Structure prediction by ZEFSAII (Michael W. Deem and Ramdas Pophale) SiO2 
 PCOD9584287
Probable space group: P 64 2 2
;
_chemical_formula_sum "Si O2"
_cell_formula_units_Z 51
_cell_length_a 14.360614
_cell_length_b 14.360614
_cell_length_c 12.117962
_cell_angle_alpha 90.000000
_cell_angle_beta 90.000000
_cell_angle_gamma 120.000000
_cell_volume 2164.244068
_symmetry_space_group_name_H-M "P 64 2 2"
_symmetry_group_IT_number 181
_symmetry_cell_setting 'hexagonal'
loop_
_space_group_symop_operation_xyz
x,y,z
x-y,x,2/3+z
-y,x-y,1/3+z
-x,-y,z
-x+y,-x,2/3+z
y,-x+y,1/3+z
x-y,-y,-z
-x,-x+y,2/3-z
y,x,1/3-z
-y,-x,1/3-z
-x+y,y,-z
x,x-y,2/3-z
loop_
_atom_site_type_symbol
_atom_site_label
_atom_site_fract_x
_atom_site_fract_y
_atom_site_fract_z
Si Si1 0.500000 0.000000 0.000000
Si Si2 0.516691 0.318602 0.947597
Si Si3 0.684250 0.506497 0.817044
Si Si4 0.917703 0.724673 0.611227
Si Si5 0.128095 0.860832 0.825108
O O1 0.397273 0.926434 0.923063
O O2 0.512823 0.256412 0.833334
O O3 0.611081 0.435583 0.917188
O O4 0.394677 0.296881 0.963232
O O5 0.541741 0.271267 0.056905
O O6 0.791232 0.608119 0.862359
O O7 0.856762 0.713523 0.500000
O O8 0.857267 0.744467 0.711300
O O9 0.035689 0.823729 0.586420
O O10 0.000000 0.778040 0.833334
#
# Coordination Sequence:
#
# PCOD9584287 Si02
#       5
#     3  12  12  12  12
#     4  12  20  36  72 112 118 170 240 296 348 378
#     4  10  19  39  61 104 129 173 217 285 351 405
#     4  11  23  37  72  96 141 169 231 290 349 424
#     4  10  22  39  69  97 136 173 235 293 343 403
#     4  11  24  42  64  98 139 185 227 281 349 422
#
# _framework density 23.564810999999999
#
# number of rings (size 3 to 8) (size 9 to 14) (size 15 to 20)
#    0.000    1.412    2.353    2.824    6.588    0.471 
#    0.000    7.059    5.176    0.706    0.000    0.000 
#    0.000    0.000    0.000    0.000    0.000    0.000 
#
# Total GULP energy -284366.905506 kJ/mol
# GULP energy per Si atom -5575.821677 kJ/mol
# Density = 2.351118 g / cm^3
# Si number density = 23.564811 Si / 1000 Ang^3
#
#
#
# Elastic Constant Matrix: (Units=GPa)
#
#
# Indices 1 2 3 4 5 6 
#
# 1 129.3529 92.0258 28.2840 0.0000 0.0000 0.0000
# 2 92.0258 129.3529 28.2840 0.0000 0.0000 0.0000
# 3 28.2840 28.2840 85.8878 0.0000 0.0000 0.0000
# 4 0.0000 0.0000 0.0000 21.6924 0.0000 0.0000
# 5 0.0000 0.0000 0.0000 0.0000 21.6924 0.0000
# 6 0.0000 0.0000 0.0000 0.0000 0.0000 18.6635
#
#
#
# Elastic Compliance Matrix: (Units=1/GPa)
#
#
# Indices 1 2 3 4 5 6 
#
# 1 0.015861 -0.010929 -0.001624 0.000000 0.000000 0.000000
# 2 -0.010929 0.015861 -0.001624 0.000000 0.000000 0.000000
# 3 -0.001624 -0.001624 0.012713 0.000000 0.000000 0.000000
# 4 0.000000 0.000000 0.000000 0.046099 0.000000 0.000000
# 5 0.000000 0.000000 0.000000 0.000000 0.046099 0.000000
# 6 0.000000 0.000000 0.000000 0.000000 0.000000 0.053580
#
#
# Mechanical properties :
#
#
# Convention : Reuss Voigt Hill
#
# Bulk Modulus (GPa) = 62.18794 71.30901 66.74848
# Shear Modulus (GPa) = 22.32851 25.47631 23.90241
#
# Velocity S-wave (km/s) = 3.08155 3.29160 3.18830
# Velocity P-wave (km/s) = 6.25370 6.69124 6.47616
#
# Compressibility (1/GPa) = 0.01608029
#
# Stress axis : x y z
#
# Youngs Moduli (GPa) = 63.04698 63.04698 78.66053
#
# Poissons Ratio (x) = 0.68904 0.12776
# Poissons Ratio (y) = 0.68904 0.12776
# Poissons Ratio (z) = 0.10240 0.10240
#
# Static dielectric constant tensor:
#      x y z
#    x 2.009760 0.000000 0.000000 
#    y 0.000000 2.009760 0.000000 
#    z 0.000000 0.000000 1.986580 
# 
# From -- ./inp_files/5968.got.cif
#   From: 2010.05.17/outbox.cif.g08.bks.cpg/sg181_3_cif.got.tgz:5968.got - 2010.05.20 11:51:17.
