data_PCOD9584989
_publ_section_title
;
Structure prediction by ZEFSAII (Michael W. Deem and Ramdas Pophale) SiO2 
 PCOD9584989
Probable space group: P 6 M M
;
_chemical_formula_sum "Si O2"
_cell_formula_units_Z 96
_cell_length_a 18.720707
_cell_length_b 18.720707
_cell_length_c 20.449734
_cell_angle_alpha 90.000000
_cell_angle_beta 90.000000
_cell_angle_gamma 120.000000
_cell_volume 6206.729054
_symmetry_space_group_name_H-M "P 6 M M"
_symmetry_group_IT_number 183
_symmetry_cell_setting 'hexagonal'
loop_
_space_group_symop_operation_xyz
x,y,z
x-y,x,z
-y,x-y,z
-x,-y,z
-x+y,-x,z
y,-x+y,z
-x+y,y,z
x,x-y,z
-y,-x,z
y,x,z
x-y,-y,z
-x,-x+y,z
loop_
_atom_site_type_symbol
_atom_site_label
_atom_site_fract_x
_atom_site_fract_y
_atom_site_fract_z
Si Si1 0.902761 0.639248 0.863040
Si Si2 0.092618 0.348415 0.505004
Si Si3 0.667020 0.167415 0.599642
Si Si4 0.369448 0.467889 0.743562
Si Si5 0.166931 0.668078 0.252721
Si Si6 0.668373 0.167196 0.972193
Si Si7 0.906474 0.257384 0.351423
Si Si8 0.633464 0.094113 0.112828
O O1 0.833681 0.667361 0.866704
O O2 0.884792 0.582461 0.798572
O O3 0.885546 0.576338 0.923071
O O4 0.000000 0.708877 0.862451
O O5 0.161744 0.323488 0.517925
O O6 0.113511 0.425162 0.551381
O O7 0.099628 0.372482 0.428466
O O8 0.000000 0.276730 0.516736
O O9 0.577951 0.155901 0.586340
O O10 0.738358 0.261643 0.590463
O O11 0.667515 0.142099 0.674854
O O12 0.439421 0.560580 0.764620
O O13 0.418508 0.418508 0.732290
O O14 0.155466 0.577733 0.259459
O O15 0.262241 0.737760 0.259844
O O16 0.116438 0.686736 0.306656
O O17 0.136968 0.676253 0.180443
O O18 0.576816 0.153632 0.962201
O O19 0.737431 0.262570 0.962140
O O20 0.674926 0.141766 0.046403
O O21 0.837076 0.162925 0.338225
O O22 0.000000 0.280844 0.338510
O O23 0.545720 0.091440 0.114443
O O24 0.612642 0.000000 0.110239
#
# Coordination Sequence:
#
# PCOD9584989 Si02
#       8
#    12  12  12  12  12  12  12  12
#     4  10  20  33  49  68  90 117 149 186 227 270
#     4   9  18  32  49  68  89 114 145 181 223 270
#     4  10  19  30  44  64  92 125 159 192 223 254
#     4   9  17  29  46  68  92 118 149 184 221 262
#     4  10  19  30  44  63  89 121 156 192 227 262
#     4  10  19  30  45  66  93 124 155 185 218 260
#     4   9  18  32  49  68  89 114 144 180 223 270
#     4   9  17  28  42  60  83 115 155 194 227 258
#
# _framework density 15.467084
#
# number of rings (size 3 to 8) (size 9 to 14) (size 15 to 20)
#    0.000    2.500    0.000    2.625    0.000    3.250 
#    0.000    2.500    0.000    5.875    0.000    1.750 
#    0.000    0.000    0.000    4.000    0.000   28.750 
#
# Total GULP energy -534935.386712 kJ/mol
# GULP energy per Si atom -5572.243612 kJ/mol
# Density = 1.543188 g / cm^3
# Si number density = 15.467084 Si / 1000 Ang^3
#
#
#
# Elastic Constant Matrix: (Units=GPa)
#
#
# Indices 1 2 3 4 5 6 
#
# 1 80.6028 58.1257 45.5700 0.0000 0.0000 0.0000
# 2 58.1257 80.6028 45.5700 0.0000 0.0000 0.0000
# 3 45.5700 45.5700 65.3474 0.0000 0.0000 0.0000
# 4 0.0000 0.0000 0.0000 21.5481 0.0000 0.0000
# 5 0.0000 0.0000 0.0000 0.0000 21.5481 0.0000
# 6 0.0000 0.0000 0.0000 0.0000 0.0000 11.2386
#
#
#
# Elastic Compliance Matrix: (Units=1/GPa)
#
#
# Indices 1 2 3 4 5 6 
#
# 1 0.028896 -0.015593 -0.009277 0.000000 0.000000 0.000000
# 2 -0.015593 0.028896 -0.009277 0.000000 0.000000 0.000000
# 3 -0.009277 -0.009277 0.028241 0.000000 0.000000 0.000000
# 4 0.000000 0.000000 0.000000 0.046408 0.000000 0.000000
# 5 0.000000 0.000000 0.000000 0.000000 0.046408 0.000000
# 6 0.000000 0.000000 0.000000 0.000000 0.000000 0.088979
#
#
# Mechanical properties :
#
#
# Convention : Reuss Voigt Hill
#
# Bulk Modulus (GPa) = 56.37037 58.34275 57.35656
# Shear Modulus (GPa) = 14.61837 16.01945 15.31891
#
# Velocity S-wave (km/s) = 3.07763 3.22174 3.15051
# Velocity P-wave (km/s) = 7.01096 7.18623 7.09914
#
# Compressibility (1/GPa) = 0.01773982
#
# Stress axis : x y z
#
# Youngs Moduli (GPa) = 34.60658 34.60658 35.40941
#
# Poissons Ratio (x) = 0.53963 0.32848
# Poissons Ratio (y) = 0.53963 0.32848
# Poissons Ratio (z) = 0.32104 0.32104
#
# Static dielectric constant tensor:
#      x y z
#    x 1.507140 0.000000 0.000000 
#    y 0.000000 1.507140 0.000000 
#    z 0.000000 0.000000 1.516790 
# 
# From -- ./inp_files/2940.got.cif
#   From: 2010.05.17/outbox.cif.g08.bks.cpg/sg183_2_cif.got.tgz:2940.got - 2010.05.20 12:02:58.
