data_PCOD9584838
_publ_section_title
;
Structure prediction by ZEFSAII (Michael W. Deem and Ramdas Pophale) SiO2 
 PCOD9584838
Probable space group: P 63 2 2
;
_chemical_formula_sum "Si O2"
_cell_formula_units_Z 28
_cell_length_a 13.309693
_cell_length_b 13.309693
_cell_length_c 8.871952
_cell_angle_alpha 90.000000
_cell_angle_beta 90.000000
_cell_angle_gamma 120.000000
_cell_volume 1361.087018
_symmetry_space_group_name_H-M "P 63 2 2"
_symmetry_group_IT_number 182
_symmetry_cell_setting 'hexagonal'
loop_
_space_group_symop_operation_xyz
x,y,z
x-y,x,1/2+z
-y,x-y,z
-x,-y,1/2+z
-x+y,-x,z
y,-x+y,1/2+z
x-y,-y,-z
-x,-x+y,-z
y,x,-z
-y,-x,1/2-z
-x+y,y,1/2-z
x,x-y,1/2-z
loop_
_atom_site_type_symbol
_atom_site_label
_atom_site_fract_x
_atom_site_fract_y
_atom_site_fract_z
Si Si1 0.000000 0.752378 0.500000
Si Si2 0.923644 0.847287 0.250000
Si Si3 0.656960 0.509248 0.853436
Si Si4 0.666668 0.333334 0.070853
O O1 0.087479 0.863805 0.600162
O O2 0.069632 0.712332 0.392250
O O3 0.875531 0.937766 0.250000
O O4 0.542435 0.457566 0.750000
O O5 0.746298 0.492595 0.750000
O O6 0.641296 0.431570 0.001094
O O7 0.666668 0.333334 0.250000
#
# Coordination Sequence:
#
# PCOD9584838 Si02
#       4
#     6   6  12   4
#     4  12  22  40  68  94 126 180 230 268 360 406
#     4  10  24  42  62  96 134 168 232 300 328 414
#     4   9  21  41  59  91 131 164 208 275 333 405
#     4   9  19  38  67  87 127 164 205 267 334 386
#
# _framework density 20.571793
#
# number of rings (size 3 to 8) (size 9 to 14) (size 15 to 20)
#    0.429    1.714    0.000    4.286    3.000    1.714 
#    7.714    0.000    0.000    0.000    0.000    0.000 
#    0.000    0.000    0.000    0.000    0.000    0.000 
#
# Total GULP energy -156017.938603 kJ/mol
# GULP energy per Si atom -5572.069236 kJ/mol
# Density = 2.052497 g / cm^3
# Si number density = 20.571793 Si / 1000 Ang^3
#
#
#
# Elastic Constant Matrix: (Units=GPa)
#
#
# Indices 1 2 3 4 5 6 
#
# 1 67.3291 39.5921 48.2472 0.0000 0.0000 -0.0001
# 2 39.5921 67.3285 48.2470 -0.0001 0.0000 0.0000
# 3 48.2472 48.2470 160.8475 -0.0001 0.0000 -0.0001
# 4 0.0000 -0.0001 -0.0001 34.4976 0.0000 0.0000
# 5 0.0000 0.0000 0.0000 0.0000 34.4979 0.0000
# 6 -0.0001 0.0000 -0.0001 0.0000 0.0000 13.8683
#
#
#
# Elastic Compliance Matrix: (Units=1/GPa)
#
#
# Indices 1 2 3 4 5 6 
#
# 1 0.024439 -0.011615 -0.003847 0.000000 0.000000 0.000000
# 2 -0.011615 0.024439 -0.003847 0.000000 0.000000 0.000000
# 3 -0.003847 -0.003847 0.008525 0.000000 0.000000 0.000000
# 4 0.000000 0.000000 0.000000 0.028987 0.000000 0.000000
# 5 0.000000 0.000000 0.000000 0.000000 0.028987 0.000000
# 6 0.000000 0.000000 0.000000 0.000000 0.000000 0.072107
#
#
# Mechanical properties :
#
#
# Convention : Reuss Voigt Hill
#
# Bulk Modulus (GPa) = 53.22978 63.07529 58.15253
# Shear Modulus (GPa) = 21.51815 27.20070 24.35942
#
# Velocity S-wave (km/s) = 3.23770 3.64020 3.44483
# Velocity P-wave (km/s) = 6.31730 6.95670 6.64469
#
# Compressibility (1/GPa) = 0.01878648
#
# Stress axis : x y z
#
# Youngs Moduli (GPa) = 40.91866 40.91832 117.30541
#
# Poissons Ratio (x) = 0.47525 0.45124
# Poissons Ratio (y) = 0.47525 0.45124
# Poissons Ratio (z) = 0.15740 0.15740
#
# Static dielectric constant tensor:
#      x y z
#    x 1.764480 0.000000 0.000000 
#    y 0.000000 1.764480 0.000000 
#    z 0.000000 0.000000 1.768830 
# 
# From -- ./inp_files/1127.got.cif
#   From: 2010.05.17/outbox.cif.g08.bks.cpg/sg182_1_cif.got.tgz:1127.got - 2010.05.20 11:58:53.
