data_PCOD9584812
_publ_section_title
;
Structure prediction by ZEFSAII (Michael W. Deem and Ramdas Pophale) SiO2 
 PCOD9584812
Probable space group: P 63 2 2
;
_chemical_formula_sum "Si O2"
_cell_formula_units_Z 72
_cell_length_a 15.815792
_cell_length_b 15.815792
_cell_length_c 16.058622
_cell_angle_alpha 90.000000
_cell_angle_beta 90.000000
_cell_angle_gamma 120.000000
_cell_volume 3478.730594
_symmetry_space_group_name_H-M "P 63 2 2"
_symmetry_group_IT_number 182
_symmetry_cell_setting 'hexagonal'
loop_
_space_group_symop_operation_xyz
x,y,z
x-y,x,1/2+z
-y,x-y,z
-x,-y,1/2+z
-x+y,-x,z
y,-x+y,1/2+z
x-y,-y,-z
-x,-x+y,-z
y,x,-z
-y,-x,1/2-z
-x+y,y,1/2-z
x,x-y,1/2-z
loop_
_atom_site_type_symbol
_atom_site_label
_atom_site_fract_x
_atom_site_fract_y
_atom_site_fract_z
Si Si1 0.781221 0.581484 0.385571
Si Si2 0.092049 0.207849 0.844297
Si Si3 0.529319 0.862896 0.225749
Si Si4 0.927482 0.111657 0.579134
Si Si5 0.396599 0.104053 0.543817
Si Si6 0.361348 0.440015 0.735671
O O1 0.837560 0.697958 0.397943
O O2 0.734252 0.545213 0.475656
O O3 0.701850 0.562490 0.315168
O O4 0.859330 0.556338 0.345519
O O5 0.122866 0.245732 0.750000
O O6 0.127167 0.129692 0.847020
O O7 0.989531 0.164477 0.892130
O O8 0.423205 0.846410 0.250000
O O9 0.540266 0.770133 0.250000
O O10 0.542751 0.880203 0.126880
O O11 0.613494 0.966211 0.265232
O O12 0.901121 0.196824 0.572946
O O13 0.000000 0.125492 0.500000
O O14 0.363547 0.000000 0.500000
O O15 0.463791 0.536209 0.750000
#
# Coordination Sequence:
#
# PCOD9584812 Si02
#       6
#    12  12  12  12  12  12
#     4  11  22  42  67 103 138 174 225 283 341 428
#     4  12  22  36  57  87 137 185 237 275 309 389
#     4  11  25  47  73  98 133 183 228 286 351 420
#     4  11  23  36  54  88 135 193 227 274 325 375
#     4  11  22  43  67  98 137 181 224 283 350 401
#     4  10  22  44  71 102 135 170 225 291 358 409
#
# _framework density 20.697203999999999
#
# number of rings (size 3 to 8) (size 9 to 14) (size 15 to 20)
#    0.000    1.000    6.667    1.500    2.333    0.000 
#    7.000    0.000    0.000    0.000    0.000    0.000 
#    0.000    0.000    0.000    0.000    0.000    0.000 
#
# Total GULP energy -401242.964766 kJ/mol
# GULP energy per Si atom -5572.818955 kJ/mol
# Density = 2.065010 g / cm^3
# Si number density = 20.697204 Si / 1000 Ang^3
#
#
#
# Elastic Constant Matrix: (Units=GPa)
#
#
# Indices 1 2 3 4 5 6 
#
# 1 80.1202 37.8253 40.2158 0.0000 0.0000 0.0000
# 2 37.8253 80.1202 40.2158 0.0000 0.0000 0.0000
# 3 40.2158 40.2158 116.6996 0.0000 0.0000 0.0000
# 4 0.0000 0.0000 0.0000 24.7372 0.0000 0.0000
# 5 0.0000 0.0000 0.0000 0.0000 24.7372 0.0000
# 6 0.0000 0.0000 0.0000 0.0000 0.0000 21.1474
#
#
#
# Elastic Compliance Matrix: (Units=1/GPa)
#
#
# Indices 1 2 3 4 5 6 
#
# 1 0.017363 -0.006280 -0.003819 0.000000 0.000000 0.000000
# 2 -0.006280 0.017363 -0.003819 0.000000 0.000000 0.000000
# 3 -0.003819 -0.003819 0.011201 0.000000 0.000000 0.000000
# 4 0.000000 0.000000 0.000000 0.040425 0.000000 0.000000
# 5 0.000000 0.000000 0.000000 0.000000 0.040425 0.000000
# 6 0.000000 0.000000 0.000000 0.000000 0.000000 0.047287
#
#
# Mechanical properties :
#
#
# Convention : Reuss Voigt Hill
#
# Bulk Modulus (GPa) = 55.27872 57.05043 56.16458
# Shear Modulus (GPa) = 24.04624 24.70323 24.37474
#
# Velocity S-wave (km/s) = 3.41223 3.45853 3.43546
# Velocity P-wave (km/s) = 6.50313 6.60097 6.55223
#
# Compressibility (1/GPa) = 0.01809014
#
# Stress axis : x y z
#
# Youngs Moduli (GPa) = 57.59279 57.59279 89.27490
#
# Poissons Ratio (x) = 0.36170 0.34097
# Poissons Ratio (y) = 0.36170 0.34097
# Poissons Ratio (z) = 0.21997 0.21997
#
# Static dielectric constant tensor:
#      x y z
#    x 1.758350 0.000000 0.000000 
#    y 0.000000 1.758350 0.000000 
#    z 0.000000 0.000000 1.897950 
# 
# From -- ./inp_files/4346.got.cif
#   From: 2010.05.17/outbox.cif.g08.bks.cpg/sg182_3_cif.got.tgz:4346.got - 2010.05.20 11:58:53.
