data_PCOD9584235
_publ_section_title
;
Structure prediction by ZEFSAII (Michael W. Deem and Ramdas Pophale) SiO2 
 PCOD9584235
Probable space group: P 64 2 2
;
_chemical_formula_sum "Si O2"
_cell_formula_units_Z 84
_cell_length_a 18.532054
_cell_length_b 18.532054
_cell_length_c 13.758382
_cell_angle_alpha 90.000000
_cell_angle_beta 90.000000
_cell_angle_gamma 120.000000
_cell_volume 4092.089362
_symmetry_space_group_name_H-M "P 64 2 2"
_symmetry_group_IT_number 181
_symmetry_cell_setting 'hexagonal'
loop_
_space_group_symop_operation_xyz
x,y,z
x-y,x,2/3+z
-y,x-y,1/3+z
-x,-y,z
-x+y,-x,2/3+z
y,-x+y,1/3+z
x-y,-y,-z
-x,-x+y,2/3-z
y,x,1/3-z
-y,-x,1/3-z
-x+y,y,-z
x,x-y,2/3-z
loop_
_atom_site_type_symbol
_atom_site_label
_atom_site_fract_x
_atom_site_fract_y
_atom_site_fract_z
Si Si1 0.142292 0.832000 0.554550
Si Si2 0.588878 0.046276 0.300832
Si Si3 0.363195 0.802447 0.170467
Si Si4 0.241783 0.330916 0.288607
Si Si5 0.345020 0.901990 0.848534
Si Si6 0.193426 0.962391 0.189409
Si Si7 0.608189 0.876731 0.952075
O O1 0.147117 0.852884 0.666667
O O2 0.216480 0.899492 0.489536
O O3 0.134928 0.741387 0.544034
O O4 0.059520 0.822572 0.503365
O O5 0.619043 0.141178 0.268223
O O6 0.661038 0.047307 0.362337
O O7 0.500000 0.000000 0.352037
O O8 0.572183 0.985309 0.206920
O O9 0.297250 0.702751 0.166667
O O10 0.458743 0.835098 0.139257
O O11 0.316603 0.838069 0.103994
O O12 0.209506 0.254495 0.363504
O O13 0.195914 0.378640 0.334600
O O14 0.323443 0.922221 0.954021
O O15 0.096713 0.903288 0.166667
O O16 0.240168 0.924822 0.123363
#
# Coordination Sequence:
#
# PCOD9584235 Si02
#       7
#    12  12  12  12  12  12  12
#     4  11  24  41  62  90 126 167 219 262 316 396
#     4  10  19  34  56  86 123 169 216 276 330 393
#     4  11  18  32  54  85 126 166 213 269 350 402
#     4  10  19  36  61  87 124 163 201 272 324 387
#     4  10  22  34  55  84 129 166 216 271 319 394
#     4  10  20  38  63  98 127 155 201 265 333 403
#     4  10  18  33  56  92 124 158 208 269 341 393
#
# _framework density 20.527411000000001
#
# number of rings (size 3 to 8) (size 9 to 14) (size 15 to 20)
#    0.000    1.714    4.286    0.857    0.000    8.571 
#    0.000    5.000    0.000    4.286    0.000    5.000 
#    0.000    0.000    0.000    0.000    0.000    0.000 
#
# Total GULP energy -468616.338261 kJ/mol
# GULP energy per Si atom -5578.765932 kJ/mol
# Density = 2.048069 g / cm^3
# Si number density = 20.527411 Si / 1000 Ang^3
#
#
#
# Elastic Constant Matrix: (Units=GPa)
#
#
# Indices 1 2 3 4 5 6 
#
# 1 95.8865 35.3140 22.8696 0.0000 0.0000 0.0000
# 2 35.3140 95.8865 22.8696 0.0000 0.0000 0.0000
# 3 22.8696 22.8696 91.0751 0.0000 0.0000 0.0000
# 4 0.0000 0.0000 0.0000 6.8613 0.0000 0.0000
# 5 0.0000 0.0000 0.0000 0.0000 6.8613 0.0000
# 6 0.0000 0.0000 0.0000 0.0000 0.0000 30.2863
#
#
#
# Elastic Compliance Matrix: (Units=1/GPa)
#
#
# Indices 1 2 3 4 5 6 
#
# 1 0.012431 -0.004078 -0.002098 0.000000 0.000000 0.000000
# 2 -0.004078 0.012431 -0.002098 0.000000 0.000000 0.000000
# 3 -0.002098 -0.002098 0.012033 0.000000 0.000000 0.000000
# 4 0.000000 0.000000 0.000000 0.145746 0.000000 0.000000
# 5 0.000000 0.000000 0.000000 0.000000 0.145746 0.000000
# 6 0.000000 0.000000 0.000000 0.000000 0.000000 0.033018
#
#
# Mechanical properties :
#
#
# Convention : Reuss Voigt Hill
#
# Bulk Modulus (GPa) = 49.14117 49.43940 49.29028
# Shear Modulus (GPa) = 12.99597 22.25476 17.62536
#
# Velocity S-wave (km/s) = 2.51888 3.29621 2.93341
# Velocity P-wave (km/s) = 5.69657 6.21478 5.96131
#
# Compressibility (1/GPa) = 0.02034954
#
# Stress axis : x y z
#
# Youngs Moduli (GPa) = 80.44311 80.44311 83.10222
#
# Poissons Ratio (x) = 0.32804 0.17431
# Poissons Ratio (y) = 0.32804 0.17431
# Poissons Ratio (z) = 0.16873 0.16873
#
# Static dielectric constant tensor:
#      x y z
#    x 1.788350 0.000000 0.000000 
#    y 0.000000 1.788350 0.000000 
#    z 0.000000 0.000000 1.756130 
# 
# From -- ./inp_files/6495.got.cif
#   From: 2010.05.17/outbox.cif.g08.bks.cpg/sg181_4_cif.got.tgz:6495.got - 2010.05.20 11:51:17.
