data_PCOD9584875
_publ_section_title
;
Structure prediction by ZEFSAII (Michael W. Deem and Ramdas Pophale) SiO2 
 PCOD9584875
Probable space group: P 63 2 2
;
_chemical_formula_sum "Si O2"
_cell_formula_units_Z 58
_cell_length_a 14.610129
_cell_length_b 14.610129
_cell_length_c 14.449577
_cell_angle_alpha 90.000000
_cell_angle_beta 90.000000
_cell_angle_gamma 120.000000
_cell_volume 2671.122874
_symmetry_space_group_name_H-M "P 63 2 2"
_symmetry_group_IT_number 182
_symmetry_cell_setting 'hexagonal'
loop_
_space_group_symop_operation_xyz
x,y,z
x-y,x,1/2+z
-y,x-y,z
-x,-y,1/2+z
-x+y,-x,z
y,-x+y,1/2+z
x-y,-y,-z
-x,-x+y,-z
y,x,-z
-y,-x,1/2-z
-x+y,y,1/2-z
x,x-y,1/2-z
loop_
_atom_site_type_symbol
_atom_site_label
_atom_site_fract_x
_atom_site_fract_y
_atom_site_fract_z
Si Si1 0.431245 0.201143 0.009497
Si Si2 0.492392 0.507609 0.250000
Si Si3 0.771733 0.841472 0.594656
Si Si4 0.000000 0.000000 0.111781
Si Si5 0.098957 0.564808 0.941193
Si Si6 0.363138 0.102157 0.682142
O O1 0.320724 0.136460 0.064547
O O2 0.500814 0.313138 0.061024
O O3 0.495708 0.140251 0.006560
O O4 0.405916 0.231750 0.909634
O O5 0.516725 0.459615 0.340589
O O6 0.368067 0.452858 0.228695
O O7 0.808750 0.808750 0.500000
O O8 0.725899 0.736757 0.656498
O O9 0.876860 0.937887 0.637547
O O10 0.000000 0.000000 0.000000
O O11 0.000000 0.554008 0.000000
O O12 0.326477 0.163239 0.750000
#
# Coordination Sequence:
#
# PCOD9584875 Si02
#       6
#    12   6  12   4  12  12
#     4  11  23  44  69  95 143 185 229 291 359 414
#     4  12  24  44  70 100 138 184 244 300 348 434
#     4   9  19  40  64  93 134 172 215 282 338 406
#     4   9  18  33  67  98 121 171 232 257 334 418
#     4  12  24  45  70 102 141 187 239 295 359 432
#     4  11  23  42  67  99 137 184 236 293 351 413
#
# _framework density 21.713716000000002
#
# number of rings (size 3 to 8) (size 9 to 14) (size 15 to 20)
#    0.000    1.241    4.138    2.276    0.000    6.621 
#    0.621    3.103    0.000    0.000    0.000    0.000 
#    0.000    0.000    0.000    0.000    0.000    0.000 
#
# Total GULP energy -324398.489587 kJ/mol
# GULP energy per Si atom -5593.077407 kJ/mol
# Density = 2.166429 g / cm^3
# Si number density = 21.713716 Si / 1000 Ang^3
#
#
#
# Elastic Constant Matrix: (Units=GPa)
#
#
# Indices 1 2 3 4 5 6 
#
# 1 59.6636 7.7739 -4.4943 0.0000 0.0000 0.0000
# 2 7.7739 59.6636 -4.4943 0.0000 0.0000 0.0000
# 3 -4.4943 -4.4943 86.6656 0.0000 0.0000 0.0000
# 4 0.0000 0.0000 0.0000 21.7803 0.0000 0.0000
# 5 0.0000 0.0000 0.0000 0.0000 21.7803 0.0000
# 6 0.0000 0.0000 0.0000 0.0000 0.0000 25.9449
#
#
#
# Elastic Compliance Matrix: (Units=1/GPa)
#
#
# Indices 1 2 3 4 5 6 
#
# 1 0.017102 -0.002170 0.000774 0.000000 0.000000 0.000000
# 2 -0.002170 0.017102 0.000774 0.000000 0.000000 0.000000
# 3 0.000774 0.000774 0.011619 0.000000 0.000000 0.000000
# 4 0.000000 0.000000 0.000000 0.045913 0.000000 0.000000
# 5 0.000000 0.000000 0.000000 0.000000 0.045913 0.000000
# 6 0.000000 0.000000 0.000000 0.000000 0.000000 0.038543
#
#
# Mechanical properties :
#
#
# Convention : Reuss Voigt Hill
#
# Bulk Modulus (GPa) = 22.43173 22.61817 22.52495
# Shear Modulus (GPa) = 26.00182 27.71492 26.85837
#
# Velocity S-wave (km/s) = 3.46422 3.57652 3.52082
# Velocity P-wave (km/s) = 5.13364 5.24352 5.18887
#
# Compressibility (1/GPa) = 0.04457971
#
# Stress axis : x y z
#
# Youngs Moduli (GPa) = 58.47376 58.47376 86.06655
#
# Poissons Ratio (x) = 0.12688 -0.06664
# Poissons Ratio (y) = 0.12688 -0.06664
# Poissons Ratio (z) = -0.04528 -0.04528
#
# Static dielectric constant tensor:
#      x y z
#    x 1.775070 0.000000 0.000000 
#    y 0.000000 1.775070 0.000000 
#    z 0.000000 0.000000 1.821200 
# 
# From -- ./inp_files/3484.got.cif
#   From: 2010.05.17/outbox.cif.g08.bks.cpg/sg182_2_cif.got.tgz:3484.got - 2010.05.20 11:58:53.
