data_PCOD9584427
_publ_section_title
;
Structure prediction by ZEFSAII (Michael W. Deem and Ramdas Pophale) SiO2 
 PCOD9584427
Probable space group: P 64 2 2
;
_chemical_formula_sum "Si O2"
_cell_formula_units_Z 75
_cell_length_a 11.763063
_cell_length_b 11.763063
_cell_length_c 24.375982
_cell_angle_alpha 90.000000
_cell_angle_beta 90.000000
_cell_angle_gamma 120.000000
_cell_volume 2921.013729
_symmetry_space_group_name_H-M "P 64 2 2"
_symmetry_group_IT_number 181
_symmetry_cell_setting 'hexagonal'
loop_
_space_group_symop_operation_xyz
x,y,z
x-y,x,2/3+z
-y,x-y,1/3+z
-x,-y,z
-x+y,-x,2/3+z
y,-x+y,1/3+z
x-y,-y,-z
-x,-x+y,2/3-z
y,x,1/3-z
-y,-x,1/3-z
-x+y,y,-z
x,x-y,2/3-z
loop_
_atom_site_type_symbol
_atom_site_label
_atom_site_fract_x
_atom_site_fract_y
_atom_site_fract_z
Si Si1 0.284858 0.752820 0.100942
Si Si2 0.472263 0.359861 0.418899
Si Si3 0.189358 0.921376 0.051684
Si Si4 0.791969 0.890314 0.404674
Si Si5 0.430951 0.316924 0.548113
Si Si6 0.000000 0.000000 0.500000
Si Si7 0.394836 0.351116 0.102806
O O1 0.256492 0.743509 0.166667
O O2 0.248092 0.608318 0.081864
O O3 0.191643 0.791023 0.067544
O O4 0.433831 0.867402 0.092864
O O5 0.500000 0.500000 0.398795
O O6 0.347317 0.238349 0.394362
O O7 0.438837 0.348198 0.483851
O O8 0.040627 0.887897 0.040161
O O9 0.281631 0.016462 0.100186
O O10 0.274465 0.000000 0.000000
O O11 0.872184 0.917398 0.462011
O O12 0.739225 0.994483 0.404756
O O13 0.457905 0.198313 0.559805
O O14 0.500000 0.500000 0.083801
O O15 0.362735 0.362735 0.166667
#
# Coordination Sequence:
#
# PCOD9584427 Si02
#       7
#    12  12  12  12  12   3  12
#     4  10  22  38  68 108 141 186 251 319 376 444
#     4  11  19  35  64 104 138 174 235 316 372 424
#     4  12  27  44  66 100 151 201 251 303 384 479
#     4  12  22  40  64 101 145 196 247 302 382 459
#     4  11  22  38  62 101 142 187 237 303 383 444
#     4  12  24  36  68 112 148 192 238 316 388 452
#     4  11  22  38  64 102 144 185 228 309 391 466
#
# _framework density 25.676019
#
# number of rings (size 3 to 8) (size 9 to 14) (size 15 to 20)
#    0.000    0.800    4.000    5.280    5.600    1.280 
#    0.000    3.600    3.520    0.000    4.160    0.000 
#    0.000    0.000    0.000    0.000    0.000    0.000 
#
# Total GULP energy -418299.170915 kJ/mol
# GULP energy per Si atom -5577.322279 kJ/mol
# Density = 2.561758 g / cm^3
# Si number density = 25.676019 Si / 1000 Ang^3
#
#
#
# Elastic Constant Matrix: (Units=GPa)
#
#
# Indices 1 2 3 4 5 6 
#
# 1 137.2329 45.0600 11.9718 0.0000 0.0000 0.0000
# 2 45.0600 137.2329 11.9718 0.0000 0.0000 0.0000
# 3 11.9718 11.9718 42.6583 0.0000 0.0000 0.0000
# 4 0.0000 0.0000 0.0000 -132.9330 0.0000 0.0000
# 5 0.0000 0.0000 0.0000 0.0000 -132.9330 0.0000
# 6 0.0000 0.0000 0.0000 0.0000 0.0000 46.0865
#
#
#
# Elastic Compliance Matrix: (Units=1/GPa)
#
#
# Indices 1 2 3 4 5 6 
#
# 1 0.008272 -0.002577 -0.001598 0.000000 0.000000 0.000000
# 2 -0.002577 0.008272 -0.001598 0.000000 0.000000 0.000000
# 3 -0.001598 -0.001598 0.024339 0.000000 0.000000 0.000000
# 4 0.000000 0.000000 0.000000 -0.007523 0.000000 0.000000
# 5 0.000000 0.000000 0.000000 0.000000 -0.007523 0.000000
# 6 0.000000 0.000000 0.000000 0.000000 0.000000 0.021698
#
#
# Mechanical properties :
#
#
# Convention : Reuss Voigt Hill
#
# Bulk Modulus (GPa) = 34.08694 50.57014 42.32854
# Shear Modulus (GPa) = 72.60740 -27.41453 22.59644
#
# Velocity S-wave (km/s) = 5.32350 -3.27113 2.96980
# Velocity P-wave (km/s) = 7.14779 2.33906 5.31799
#
# Compressibility (1/GPa) = 0.02933675
#
# Stress axis : x y z
#
# Youngs Moduli (GPa) = 120.88389 120.88389 41.08584
#
# Poissons Ratio (x) = 0.31149 0.06567
# Poissons Ratio (y) = 0.31149 0.06567
# Poissons Ratio (z) = 0.19323 0.19323
#
# Static dielectric constant tensor:
#      x y z
#    x 2.887140 0.000000 0.000000 
#    y 0.000000 2.887140 0.000000 
#    z 0.000000 0.000000 2.092810 
# 
# From -- ./inp_files/12380.got.cif
#   From: 2010.05.17/outbox.cif.g08.bks.cpg/sg181_7_cif.got.tgz:12380.got - 2010.05.20 11:51:17.
