data_PCOD9584556
_publ_section_title
;
Structure prediction by ZEFSAII (Michael W. Deem and Ramdas Pophale) SiO2 
 PCOD9584556
Probable space group: P 64 2 2
;
_chemical_formula_sum "Si O2"
_cell_formula_units_Z 48
_cell_length_a 14.839276
_cell_length_b 14.839276
_cell_length_c 11.842380
_cell_angle_alpha 90.000000
_cell_angle_beta 90.000000
_cell_angle_gamma 120.000000
_cell_volume 2258.369757
_symmetry_space_group_name_H-M "P 64 2 2"
_symmetry_group_IT_number 181
_symmetry_cell_setting 'hexagonal'
loop_
_space_group_symop_operation_xyz
x,y,z
x-y,x,2/3+z
-y,x-y,1/3+z
-x,-y,z
-x+y,-x,2/3+z
y,-x+y,1/3+z
x-y,-y,-z
-x,-x+y,2/3-z
y,x,1/3-z
-y,-x,1/3-z
-x+y,y,-z
x,x-y,2/3-z
loop_
_atom_site_type_symbol
_atom_site_label
_atom_site_fract_x
_atom_site_fract_y
_atom_site_fract_z
Si Si1 0.593499 0.401085 0.531027
Si Si2 0.200058 0.824872 0.801232
Si Si3 0.627293 0.627293 0.166667
Si Si4 0.500000 0.000000 0.292555
Si Si5 0.848403 0.878526 0.540666
O O1 0.588174 0.411827 0.666667
O O2 0.699269 0.398538 0.500000
O O3 0.487774 0.295580 0.496947
O O4 0.578695 0.484020 0.454724
O O5 0.182386 0.817615 0.666667
O O6 0.196488 0.925100 0.844328
O O7 0.099825 0.734049 0.863169
O O8 0.557940 0.590407 0.280458
O O9 0.883857 0.883857 0.666667
O O10 0.912689 0.825378 0.500000
O O11 0.894412 0.000000 0.500000
#
# Coordination Sequence:
#
# PCOD9584556 Si02
#       5
#    12  12   6   6  12
#     4  12  27  48  75 107 151 196 252 315 396 458
#     4  12  24  45  72 108 144 195 252 309 377 462
#     4  11  24  44  75 104 146 182 259 300 367 454
#     4  11  25  46  72 108 143 199 248 318 380 459
#     4  11  23  41  67 100 143 192 243 306 375 449
#
# _framework density 21.254269000000001
#
# number of rings (size 3 to 8) (size 9 to 14) (size 15 to 20)
#    0.000    0.500    3.750    5.625    3.500    2.000 
#    0.000    2.500    0.000    0.000    0.000    0.000 
#    0.000    0.000    0.000    0.000    0.000    0.000 
#
# Total GULP energy -267238.783168 kJ/mol
# GULP energy per Si atom -5567.474649 kJ/mol
# Density = 2.120589 g / cm^3
# Si number density = 21.254269 Si / 1000 Ang^3
#
#
#
# Elastic Constant Matrix: (Units=GPa)
#
#
# Indices 1 2 3 4 5 6 
#
# 1 111.1913 31.9261 24.2345 0.0000 0.0000 0.0000
# 2 31.9261 111.1913 24.2345 0.0000 0.0000 0.0000
# 3 24.2345 24.2345 144.7290 0.0000 0.0000 0.0000
# 4 0.0000 0.0000 0.0000 -4.4664 0.0000 0.0000
# 5 0.0000 0.0000 0.0000 0.0000 -4.4664 0.0000
# 6 0.0000 0.0000 0.0000 0.0000 0.0000 39.6326
#
#
#
# Elastic Compliance Matrix: (Units=1/GPa)
#
#
# Indices 1 2 3 4 5 6 
#
# 1 0.010012 -0.002604 -0.001240 0.000000 0.000000 0.000000
# 2 -0.002604 0.010012 -0.001240 0.000000 0.000000 0.000000
# 3 -0.001240 -0.001240 0.007325 0.000000 0.000000 0.000000
# 4 0.000000 0.000000 0.000000 -0.223895 0.000000 0.000000
# 5 0.000000 0.000000 0.000000 0.000000 -0.223895 0.000000
# 6 0.000000 0.000000 0.000000 0.000000 0.000000 0.025232
#
#
# Mechanical properties :
#
#
# Convention : Reuss Voigt Hill
#
# Bulk Modulus (GPa) = 58.21344 58.65573 58.43458
# Shear Modulus (GPa) = -13.18172 25.25440 6.03634
#
# Velocity S-wave (km/s) = -2.49307 3.45077 1.68708
# Velocity P-wave (km/s) = 4.37737 6.59804 5.59891
#
# Compressibility (1/GPa) = 0.01717816
#
# Stress axis : x y z
#
# Youngs Moduli (GPa) = 99.88409 99.88409 136.52162
#
# Poissons Ratio (x) = 0.26013 0.16933
# Poissons Ratio (y) = 0.26013 0.16933
# Poissons Ratio (z) = 0.12389 0.12389
#
# Static dielectric constant tensor:
#      x y z
#    x 1.865340 0.000000 0.000000 
#    y 0.000000 1.865340 0.000000 
#    z 0.000000 0.000000 1.702430 
# 
# From -- ./inp_files/4459.got.cif
#   From: 2010.05.17/outbox.cif.g08.bks.cpg/sg181_3_cif.got.tgz:4459.got - 2010.05.20 11:51:17.
