data_PCOD9584491
_publ_section_title
;
Structure prediction by ZEFSAII (Michael W. Deem and Ramdas Pophale) SiO2 
 PCOD9584491
Probable space group: P 64 2 2
;
_chemical_formula_sum "Si O2"
_cell_formula_units_Z 48
_cell_length_a 15.229759
_cell_length_b 15.229759
_cell_length_c 12.113815
_cell_angle_alpha 90.000000
_cell_angle_beta 90.000000
_cell_angle_gamma 120.000000
_cell_volume 2433.311063
_symmetry_space_group_name_H-M "P 64 2 2"
_symmetry_group_IT_number 181
_symmetry_cell_setting 'hexagonal'
loop_
_space_group_symop_operation_xyz
x,y,z
x-y,x,2/3+z
-y,x-y,1/3+z
-x,-y,z
-x+y,-x,2/3+z
y,-x+y,1/3+z
x-y,-y,-z
-x,-x+y,2/3-z
y,x,1/3-z
-y,-x,1/3-z
-x+y,y,-z
x,x-y,2/3-z
loop_
_atom_site_type_symbol
_atom_site_label
_atom_site_fract_x
_atom_site_fract_y
_atom_site_fract_z
Si Si1 0.989988 0.179229 0.463776
Si Si2 0.000000 0.237179 0.833334
Si Si3 0.579709 0.420865 0.427887
Si Si4 0.990163 0.346919 0.612225
Si Si5 0.261188 0.630594 0.333334
O O1 0.876649 0.094975 0.497592
O O2 0.006142 0.281093 0.520000
O O3 0.000000 0.191576 0.333334
O O4 0.076935 0.153870 0.500000
O O5 0.000106 0.299871 0.726849
O O6 0.609847 0.536798 0.409987
O O7 0.463017 0.347691 0.393608
O O8 0.661367 0.410256 0.354326
O O9 0.590892 0.395855 0.555379
#
# Coordination Sequence:
#
# PCOD9584491 Si02
#       5
#    12   6  12  12   6
#     4  12  27  45  71 101 136 178 234 291 345 423
#     4  12  27  45  72  98 142 184 228 289 361 424
#     4  10  26  44  68 105 137 186 233 293 352 424
#     4  11  27  45  71 103 138 186 234 291 349 430
#     4  10  24  43  74  96 148 177 232 294 356 420
#
# _framework density 19.726208
#
# number of rings (size 3 to 8) (size 9 to 14) (size 15 to 20)
#    0.000    1.000    2.500    1.125   14.000    6.000 
#    0.000    0.000    0.000    0.000    0.000    0.000 
#    0.000    0.000    0.000    0.000    0.000    0.000 
#
# Total GULP energy -268215.347966 kJ/mol
# GULP energy per Si atom -5587.819749 kJ/mol
# Density = 1.968131 g / cm^3
# Si number density = 19.726208 Si / 1000 Ang^3
#
#
#
# Elastic Constant Matrix: (Units=GPa)
#
#
# Indices 1 2 3 4 5 6 
#
# 1 131.9517 64.5357 67.9905 0.0000 0.0000 0.0000
# 2 64.5357 131.9517 67.9905 0.0000 0.0000 0.0000
# 3 67.9905 67.9905 156.9643 0.0000 0.0000 0.0000
# 4 0.0000 0.0000 0.0000 18.9171 0.0000 0.0000
# 5 0.0000 0.0000 0.0000 0.0000 18.9171 0.0000
# 6 0.0000 0.0000 0.0000 0.0000 0.0000 33.7080
#
#
#
# Elastic Compliance Matrix: (Units=1/GPa)
#
#
# Indices 1 2 3 4 5 6 
#
# 1 0.011051 -0.003783 -0.003148 0.000000 0.000000 0.000000
# 2 -0.003783 0.011051 -0.003148 0.000000 0.000000 0.000000
# 3 -0.003148 -0.003148 0.009098 0.000000 0.000000 0.000000
# 4 0.000000 0.000000 0.000000 0.052862 0.000000 0.000000
# 5 0.000000 0.000000 0.000000 0.000000 0.052862 0.000000
# 6 0.000000 0.000000 0.000000 0.000000 0.000000 0.029667
#
#
# Mechanical properties :
#
#
# Convention : Reuss Voigt Hill
#
# Bulk Modulus (GPa) = 90.56711 91.32235 90.94473
# Shear Modulus (GPa) = 26.25642 28.99849 27.62746
#
# Velocity S-wave (km/s) = 3.65230 3.83828 3.74645
# Velocity P-wave (km/s) = 7.98733 8.12642 8.05718
#
# Compressibility (1/GPa) = 0.01104154
#
# Stress axis : x y z
#
# Youngs Moduli (GPa) = 90.49176 90.49176 109.91073
#
# Poissons Ratio (x) = 0.34229 0.34603
# Poissons Ratio (y) = 0.34229 0.34603
# Poissons Ratio (z) = 0.28489 0.28489
#
# Static dielectric constant tensor:
#      x y z
#    x 1.725640 0.000000 0.000000 
#    y 0.000000 1.725640 0.000000 
#    z 0.000000 0.000000 1.705010 
# 
# From -- ./inp_files/4447.got.cif
#   From: 2010.05.17/outbox.cif.g08.bks.cpg/sg181_3_cif.got.tgz:4447.got - 2010.05.20 11:51:17.
