data_PCOD9584516
_publ_section_title
;
Structure prediction by ZEFSAII (Michael W. Deem and Ramdas Pophale) SiO2 
 PCOD9584516
Probable space group: P 64 2 2
;
_chemical_formula_sum "Si O2"
_cell_formula_units_Z 75
_cell_length_a 13.578907
_cell_length_b 13.578907
_cell_length_c 18.866505
_cell_angle_alpha 90.000000
_cell_angle_beta 90.000000
_cell_angle_gamma 120.000000
_cell_volume 3012.671053
_symmetry_space_group_name_H-M "P 64 2 2"
_symmetry_group_IT_number 181
_symmetry_cell_setting 'hexagonal'
loop_
_space_group_symop_operation_xyz
x,y,z
x-y,x,2/3+z
-y,x-y,1/3+z
-x,-y,z
-x+y,-x,2/3+z
y,-x+y,1/3+z
x-y,-y,-z
-x,-x+y,2/3-z
y,x,1/3-z
-y,-x,1/3-z
-x+y,y,-z
x,x-y,2/3-z
loop_
_atom_site_type_symbol
_atom_site_label
_atom_site_fract_x
_atom_site_fract_y
_atom_site_fract_z
Si Si1 0.412749 0.539249 0.043339
Si Si2 0.452429 0.253330 0.655642
Si Si3 0.473659 0.173654 0.233419
Si Si4 0.776507 0.923405 0.219501
Si Si5 0.000000 0.000000 0.833334
Si Si6 0.556364 0.379141 0.788816
Si Si7 0.072449 0.204181 0.680422
O O1 0.500000 0.500000 0.072266
O O2 0.488236 0.663715 0.008670
O O3 0.312662 0.536461 0.092493
O O4 0.338062 0.459942 0.978401
O O5 0.456254 0.310432 0.732024
O O6 0.535334 0.346818 0.599448
O O7 0.323722 0.177527 0.631423
O O8 0.352995 0.138929 0.200539
O O9 0.534586 0.121235 0.186947
O O10 0.866799 0.964659 0.156577
O O11 0.805134 0.842748 0.268997
O O12 0.807631 0.029290 0.270677
O O13 0.565387 0.282694 0.833334
O O14 0.109598 0.109598 0.666667
#
# Coordination Sequence:
#
# PCOD9584516 Si02
#       7
#    12  12  12  12   3  12  12
#     4  11  20  38  63 100 133 174 233 287 343 410
#     4  11  23  40  69  94 138 185 227 285 350 428
#     4  11  22  39  68  96 137 178 225 287 343 412
#     4  11  23  43  68 100 131 173 233 285 348 410
#     4  12  24  42  64 100 138 170 224 288 340 418
#     4  11  21  44  64  94 135 183 225 278 355 406
#     4  11  22  46  69  94 136 187 224 283 351 413
#
# _framework density 24.894850000000002
#
# number of rings (size 3 to 8) (size 9 to 14) (size 15 to 20)
#    0.000    0.960    4.800    5.280    2.240    0.000 
#    1.440    4.000    0.000    0.000    0.000    0.000 
#    0.000    0.000    0.000    0.000    0.000    0.000 
#
# Total GULP energy -417551.628857 kJ/mol
# GULP energy per Si atom -5567.355051 kJ/mol
# Density = 2.483819 g / cm^3
# Si number density = 24.894850 Si / 1000 Ang^3
#
#
#
# Elastic Constant Matrix: (Units=GPa)
#
#
# Indices 1 2 3 4 5 6 
#
# 1 102.7805 32.3163 6.5525 0.0000 0.0000 0.0000
# 2 32.3163 102.7805 6.5525 0.0000 0.0000 0.0000
# 3 6.5525 6.5525 85.3752 0.0000 0.0000 0.0000
# 4 0.0000 0.0000 0.0000 11.1493 0.0000 0.0000
# 5 0.0000 0.0000 0.0000 0.0000 11.1493 0.0000
# 6 0.0000 0.0000 0.0000 0.0000 0.0000 35.2321
#
#
#
# Elastic Compliance Matrix: (Units=1/GPa)
#
#
# Indices 1 2 3 4 5 6 
#
# 1 0.010825 -0.003367 -0.000572 0.000000 0.000000 0.000000
# 2 -0.003367 0.010825 -0.000572 0.000000 0.000000 0.000000
# 3 -0.000572 -0.000572 0.011801 0.000000 0.000000 0.000000
# 4 0.000000 0.000000 0.000000 0.089692 0.000000 0.000000
# 5 0.000000 0.000000 0.000000 0.000000 0.089692 0.000000
# 6 0.000000 0.000000 0.000000 0.000000 0.000000 0.028383
#
#
# Mechanical properties :
#
#
# Convention : Reuss Voigt Hill
#
# Bulk Modulus (GPa) = 40.93895 42.41989 41.67942
# Shear Modulus (GPa) = 19.35118 27.87378 23.61248
#
# Velocity S-wave (km/s) = 2.79106 3.34976 3.08310
# Velocity P-wave (km/s) = 5.18335 5.66020 5.42702
#
# Compressibility (1/GPa) = 0.02442662
#
# Stress axis : x y z
#
# Youngs Moduli (GPa) = 92.38198 92.38198 84.73958
#
# Poissons Ratio (x) = 0.31105 0.04850
# Poissons Ratio (y) = 0.31105 0.04850
# Poissons Ratio (z) = 0.05288 0.05288
#
# Static dielectric constant tensor:
#      x y z
#    x 1.990290 0.000000 0.000000 
#    y 0.000000 1.990290 0.000000 
#    z 0.000000 0.000000 2.274500 
# 
# From -- ./inp_files/9098.got.cif
#   From: 2010.05.17/outbox.cif.g08.bks.cpg/sg181_5_cif.got.tgz:9098.got - 2010.05.20 11:51:17.
