data_PCOD9584429
_publ_section_title
;
Structure prediction by ZEFSAII (Michael W. Deem and Ramdas Pophale) SiO2 
 PCOD9584429
Probable space group: P 64 2 2
;
_chemical_formula_sum "Si O2"
_cell_formula_units_Z 48
_cell_length_a 13.730661
_cell_length_b 13.730661
_cell_length_c 11.650456
_cell_angle_alpha 90.000000
_cell_angle_beta 90.000000
_cell_angle_gamma 120.000000
_cell_volume 1902.201174
_symmetry_space_group_name_H-M "P 64 2 2"
_symmetry_group_IT_number 181
_symmetry_cell_setting 'hexagonal'
loop_
_space_group_symop_operation_xyz
x,y,z
x-y,x,2/3+z
-y,x-y,1/3+z
-x,-y,z
-x+y,-x,2/3+z
y,-x+y,1/3+z
x-y,-y,-z
-x,-x+y,2/3-z
y,x,1/3-z
-y,-x,1/3-z
-x+y,y,-z
x,x-y,2/3-z
loop_
_atom_site_type_symbol
_atom_site_label
_atom_site_fract_x
_atom_site_fract_y
_atom_site_fract_z
Si Si1 0.697205 0.957737 0.782297
Si Si2 0.800952 0.896110 0.082267
Si Si3 0.433003 0.662879 0.552978
Si Si4 0.585353 0.467271 0.353119
O O1 0.703373 0.851687 0.833334
O O2 0.738261 0.958731 0.652916
O O3 0.568230 0.920767 0.778322
O O4 0.786818 0.065779 0.853522
O O5 0.882944 0.882944 0.166667
O O6 0.873733 0.000000 0.000000
O O7 0.413318 0.586682 0.666667
O O8 0.309922 0.619843 0.500000
O O9 0.483035 0.643557 0.434859
O O10 0.467076 0.786875 0.603316
O O11 0.500000 0.500000 0.294213
#
# Coordination Sequence:
#
# PCOD9584429 Si02
#       4
#    12  12  12  12
#     4  10  22  40  63  96 138 172 240 287 345 429
#     4  10  22  39  64  95 138 185 226 289 350 428
#     4   9  20  43  67  93 135 178 233 290 358 423
#     4  11  24  42  71 102 135 190 235 294 368 427
#
# _framework density 25.233924999999999
#
# number of rings (size 3 to 8) (size 9 to 14) (size 15 to 20)
#    0.000    2.000    0.000    3.000    3.500   10.500 
#    9.000    2.500    0.000    0.000    0.000    0.000 
#    0.000    0.000    0.000    0.000    0.000    0.000 
#
# Total GULP energy -267547.472708 kJ/mol
# GULP energy per Si atom -5573.905681 kJ/mol
# Density = 2.517649 g / cm^3
# Si number density = 25.233925 Si / 1000 Ang^3
#
#
#
# Elastic Constant Matrix: (Units=GPa)
#
#
# Indices 1 2 3 4 5 6 
#
# 1 57.1216 6.0130 42.8388 0.0000 0.0000 0.0000
# 2 6.0130 57.1216 42.8388 0.0000 0.0000 0.0000
# 3 42.8388 42.8388 119.2307 0.0000 0.0000 0.0000
# 4 0.0000 0.0000 0.0000 11.1430 0.0000 0.0000
# 5 0.0000 0.0000 0.0000 0.0000 11.1430 0.0000
# 6 0.0000 0.0000 0.0000 0.0000 0.0000 25.5543
#
#
#
# Elastic Compliance Matrix: (Units=1/GPa)
#
#
# Indices 1 2 3 4 5 6 
#
# 1 0.025238 0.005672 -0.011106 0.000000 0.000000 0.000000
# 2 0.005672 0.025238 -0.011106 0.000000 0.000000 0.000000
# 3 -0.011106 -0.011106 0.016368 0.000000 0.000000 0.000000
# 4 0.000000 0.000000 0.000000 0.089742 0.000000 0.000000
# 5 0.000000 0.000000 0.000000 0.000000 0.089742 0.000000
# 6 0.000000 0.000000 0.000000 0.000000 0.000000 0.039132
#
#
# Mechanical properties :
#
#
# Convention : Reuss Voigt Hill
#
# Bulk Modulus (GPa) = 29.61635 46.31726 37.96680
# Shear Modulus (GPa) = 15.16087 19.02029 17.09058
#
# Velocity S-wave (km/s) = 2.45381 2.74845 2.60530
# Velocity P-wave (km/s) = 4.44864 5.33544 4.91210
#
# Compressibility (1/GPa) = 0.03376513
#
# Stress axis : x y z
#
# Youngs Moduli (GPa) = 39.62207 39.62207 61.09571
#
# Poissons Ratio (x) = -0.22475 0.67853
# Poissons Ratio (y) = -0.22475 0.67853
# Poissons Ratio (z) = 0.44004 0.44004
#
# Static dielectric constant tensor:
#      x y z
#    x 2.095060 0.000000 0.000000 
#    y 0.000000 2.095060 0.000000 
#    z 0.000000 0.000000 2.368970 
# 
# From -- ./inp_files/4394.got.cif
#   From: 2010.05.17/outbox.cif.g08.bks.cpg/sg181_3_cif.got.tgz:4394.got - 2010.05.20 11:51:17.
