data_PCOD9584536
_publ_section_title
;
Structure prediction by ZEFSAII (Michael W. Deem and Ramdas Pophale) SiO2 
 PCOD9584536
Probable space group: P 64 2 2
;
_chemical_formula_sum "Si O2"
_cell_formula_units_Z 60
_cell_length_a 14.008382
_cell_length_b 14.008382
_cell_length_c 17.834477
_cell_angle_alpha 90.000000
_cell_angle_beta 90.000000
_cell_angle_gamma 120.000000
_cell_volume 3030.867579
_symmetry_space_group_name_H-M "P 64 2 2"
_symmetry_group_IT_number 181
_symmetry_cell_setting 'hexagonal'
loop_
_space_group_symop_operation_xyz
x,y,z
x-y,x,2/3+z
-y,x-y,1/3+z
-x,-y,z
-x+y,-x,2/3+z
y,-x+y,1/3+z
x-y,-y,-z
-x,-x+y,2/3-z
y,x,1/3-z
-y,-x,1/3-z
-x+y,y,-z
x,x-y,2/3-z
loop_
_atom_site_type_symbol
_atom_site_label
_atom_site_fract_x
_atom_site_fract_y
_atom_site_fract_z
Si Si1 0.427424 0.241424 0.524477
Si Si2 0.128966 0.539537 0.415069
Si Si3 0.669286 0.143320 0.616096
Si Si4 0.433459 0.324606 0.010288
Si Si5 0.267505 0.931416 0.177278
O O1 0.539392 0.359176 0.528418
O O2 0.455608 0.170566 0.468104
O O3 0.402017 0.184458 0.606046
O O4 0.331351 0.267593 0.500137
O O5 0.176503 0.588252 0.333334
O O6 0.123762 0.431574 0.447154
O O7 0.000000 0.500000 0.411138
O O8 0.771481 0.228520 0.666667
O O9 0.562551 0.152332 0.639584
O O10 0.632489 0.016730 0.628595
O O11 0.399551 0.303730 0.923332
O O12 0.135485 0.864516 0.166667
#
# Coordination Sequence:
#
# PCOD9584536 Si02
#       5
#    12  12  12  12  12
#     4  11  22  39  62  92 128 172 218 275 329 397
#     4   9  19  35  57  84 124 166 210 265 324 387
#     4  11  22  41  66  92 129 168 215 268 329 399
#     4  11  24  39  65  96 126 172 217 267 332 401
#     4  11  23  39  62  92 131 174 219 274 336 391
#
# _framework density 19.796310999999999
#
# number of rings (size 3 to 8) (size 9 to 14) (size 15 to 20)
#    0.000    1.400    2.000    3.600    5.600    8.000 
#    0.000    0.000    0.000    2.400    0.000    0.000 
#    0.000    0.000    0.000    0.000    0.000    0.000 
#
# Total GULP energy -334716.870711 kJ/mol
# GULP energy per Si atom -5578.614512 kJ/mol
# Density = 1.975125 g / cm^3
# Si number density = 19.796311 Si / 1000 Ang^3
#
#
#
# Elastic Constant Matrix: (Units=GPa)
#
#
# Indices 1 2 3 4 5 6 
#
# 1 89.2147 43.3283 24.4946 0.0000 0.0000 0.0000
# 2 43.3283 89.2147 24.4946 0.0000 0.0000 0.0000
# 3 24.4946 24.4946 98.0694 0.0000 0.0000 0.0000
# 4 0.0000 0.0000 0.0000 26.7795 0.0000 0.0000
# 5 0.0000 0.0000 0.0000 0.0000 26.7795 0.0000
# 6 0.0000 0.0000 0.0000 0.0000 0.0000 22.9432
#
#
#
# Elastic Compliance Matrix: (Units=1/GPa)
#
#
# Indices 1 2 3 4 5 6 
#
# 1 0.015053 -0.006740 -0.002076 0.000000 0.000000 0.000000
# 2 -0.006740 0.015053 -0.002076 0.000000 0.000000 0.000000
# 3 -0.002076 -0.002076 0.011234 0.000000 0.000000 0.000000
# 4 0.000000 0.000000 0.000000 0.037342 0.000000 0.000000
# 5 0.000000 0.000000 0.000000 0.000000 0.037342 0.000000
# 6 0.000000 0.000000 0.000000 0.000000 0.000000 0.043586
#
#
# Mechanical properties :
#
#
# Convention : Reuss Voigt Hill
#
# Bulk Modulus (GPa) = 51.14116 51.23708 51.18912
# Shear Modulus (GPa) = 26.60821 27.57920 27.09371
#
# Velocity S-wave (km/s) = 3.67017 3.73654 3.70351
# Velocity P-wave (km/s) = 6.62193 6.67488 6.64846
#
# Compressibility (1/GPa) = 0.01955372
#
# Stress axis : x y z
#
# Youngs Moduli (GPa) = 66.43408 66.43408 89.01597
#
# Poissons Ratio (x) = 0.44780 0.18481
# Poissons Ratio (y) = 0.44780 0.18481
# Poissons Ratio (z) = 0.13792 0.13792
#
# Static dielectric constant tensor:
#      x y z
#    x 1.709040 0.000000 0.000000 
#    y 0.000000 1.709040 0.000000 
#    z 0.000000 0.000000 1.780950 
# 
# From -- ./inp_files/6121.got.cif
#   From: 2010.05.17/outbox.cif.g08.bks.cpg/sg181_4_cif.got.tgz:6121.got - 2010.05.20 11:51:17.
