data_PCOD9584543
_publ_section_title
;
Structure prediction by ZEFSAII (Michael W. Deem and Ramdas Pophale) SiO2 
 PCOD9584543
Probable space group: P 64 2 2
;
_chemical_formula_sum "Si O2"
_cell_formula_units_Z 84
_cell_length_a 18.670880
_cell_length_b 18.670880
_cell_length_c 12.919146
_cell_angle_alpha 90.000000
_cell_angle_beta 90.000000
_cell_angle_gamma 120.000000
_cell_volume 3900.264080
_symmetry_space_group_name_H-M "P 64 2 2"
_symmetry_group_IT_number 181
_symmetry_cell_setting 'hexagonal'
loop_
_space_group_symop_operation_xyz
x,y,z
x-y,x,2/3+z
-y,x-y,1/3+z
-x,-y,z
-x+y,-x,2/3+z
y,-x+y,1/3+z
x-y,-y,-z
-x,-x+y,2/3-z
y,x,1/3-z
-y,-x,1/3-z
-x+y,y,-z
x,x-y,2/3-z
loop_
_atom_site_type_symbol
_atom_site_label
_atom_site_fract_x
_atom_site_fract_y
_atom_site_fract_z
Si Si1 0.758491 0.480481 0.762366
Si Si2 0.087048 0.885991 0.284155
Si Si3 0.803791 0.417378 0.068061
Si Si4 0.613180 0.757123 0.730021
Si Si5 0.499145 0.416454 0.768733
Si Si6 0.803026 0.765149 0.053506
Si Si7 0.866163 0.291773 0.720108
O O1 0.687126 0.437314 0.850192
O O2 0.761770 0.412338 0.688797
O O3 0.751338 0.546836 0.688818
O O4 0.840052 0.535666 0.832034
O O5 0.089002 0.910999 0.166667
O O6 0.099609 0.807762 0.302140
O O7 0.000000 0.865649 0.333334
O O8 0.173904 0.960679 0.320255
O O9 0.851780 0.387426 0.140816
O O10 0.869259 0.504746 0.015767
O O11 0.606152 0.803076 0.833334
O O12 0.588562 0.662538 0.748679
O O13 0.500000 0.500000 0.795834
O O14 0.557148 0.442853 0.666667
O O15 0.803517 0.803517 0.166667
O O16 0.731178 0.669008 0.054048
O O17 0.883850 0.767700 0.000000
O O18 0.788487 0.211513 0.666667
#
# Coordination Sequence:
#
# PCOD9584543 Si02
#       7
#    12  12  12  12  12  12  12
#     4  11  22  43  64  99 137 188 249 301 371 425
#     4  11  26  44  72 112 142 183 227 293 362 431
#     4  11  23  43  65  97 140 184 243 313 363 438
#     4  11  23  42  66  96 141 184 239 296 359 442
#     4  11  24  42  64  97 131 186 238 294 372 426
#     4  11  23  46  78 107 145 190 235 288 361 446
#     4   9  22  43  66  97 134 186 238 288 354 430
#
# _framework density 21.537002000000001
#
# number of rings (size 3 to 8) (size 9 to 14) (size 15 to 20)
#    0.000    1.286    2.857    2.143    2.000    4.857 
#   20.571    1.429    0.000    0.000    0.000    0.000 
#    0.000    0.000    0.000    0.000    0.000    0.000 
#
# Total GULP energy -468417.847781 kJ/mol
# GULP energy per Si atom -5576.402950 kJ/mol
# Density = 2.148798 g / cm^3
# Si number density = 21.537002 Si / 1000 Ang^3
#
#
#
# Elastic Constant Matrix: (Units=GPa)
#
#
# Indices 1 2 3 4 5 6 
#
# 1 98.0097 40.3604 32.5373 0.0000 0.0000 0.0000
# 2 40.3604 98.0097 32.5373 0.0000 0.0000 0.0000
# 3 32.5373 32.5373 120.4699 0.0000 0.0000 0.0000
# 4 0.0000 0.0000 0.0000 71.1717 0.0000 0.0000
# 5 0.0000 0.0000 0.0000 0.0000 71.1717 0.0000
# 6 0.0000 0.0000 0.0000 0.0000 0.0000 28.8246
#
#
#
# Elastic Compliance Matrix: (Units=1/GPa)
#
#
# Indices 1 2 3 4 5 6 
#
# 1 0.012812 -0.004534 -0.002236 0.000000 0.000000 0.000000
# 2 -0.004534 0.012812 -0.002236 0.000000 0.000000 0.000000
# 3 -0.002236 -0.002236 0.009509 0.000000 0.000000 0.000000
# 4 0.000000 0.000000 0.000000 0.014051 0.000000 0.000000
# 5 0.000000 0.000000 0.000000 0.000000 0.014051 0.000000
# 6 0.000000 0.000000 0.000000 0.000000 0.000000 0.034693
#
#
# Mechanical properties :
#
#
# Convention : Reuss Voigt Hill
#
# Bulk Modulus (GPa) = 58.40441 58.59549 58.49995
# Shear Modulus (GPa) = 41.10293 48.30387 44.70340
#
# Velocity S-wave (km/s) = 4.37335 4.74099 4.56088
# Velocity P-wave (km/s) = 7.25801 7.56540 7.41330
#
# Compressibility (1/GPa) = 0.01712200
#
# Stress axis : x y z
#
# Youngs Moduli (GPa) = 78.04934 78.04934 105.16785
#
# Poissons Ratio (x) = 0.35387 0.23515
# Poissons Ratio (y) = 0.35387 0.23515
# Poissons Ratio (z) = 0.17451 0.17451
#
# Static dielectric constant tensor:
#      x y z
#    x 1.768160 0.000000 0.000000 
#    y 0.000000 1.768160 0.000000 
#    z 0.000000 0.000000 1.794910 
# 
# From -- ./inp_files/5078.got.cif
#   From: 2010.05.17/outbox.cif.g08.bks.cpg/sg181_3_cif.got.tgz:5078.got - 2010.05.20 11:51:17.
