data_PCOD9584232
_publ_section_title
;
Structure prediction by ZEFSAII (Michael W. Deem and Ramdas Pophale) SiO2 
 PCOD9584232
Probable space group: P 64 2 2
;
_chemical_formula_sum "Si O2"
_cell_formula_units_Z 72
_cell_length_a 22.558905
_cell_length_b 22.558905
_cell_length_c 9.216551
_cell_angle_alpha 90.000000
_cell_angle_beta 90.000000
_cell_angle_gamma 120.000000
_cell_volume 4061.954862
_symmetry_space_group_name_H-M "P 64 2 2"
_symmetry_group_IT_number 181
_symmetry_cell_setting 'hexagonal'
loop_
_space_group_symop_operation_xyz
x,y,z
x-y,x,2/3+z
-y,x-y,1/3+z
-x,-y,z
-x+y,-x,2/3+z
y,-x+y,1/3+z
x-y,-y,-z
-x,-x+y,2/3-z
y,x,1/3-z
-y,-x,1/3-z
-x+y,y,-z
x,x-y,2/3-z
loop_
_atom_site_type_symbol
_atom_site_label
_atom_site_fract_x
_atom_site_fract_y
_atom_site_fract_z
Si Si1 0.188425 0.420585 0.662552
Si Si2 0.840835 0.388959 0.473453
Si Si3 0.046694 0.678929 0.106266
Si Si4 0.297501 0.738602 0.501126
Si Si5 0.701468 0.607744 0.771840
Si Si6 0.495533 0.562101 0.008599
O O1 0.221500 0.442999 0.500000
O O2 0.109885 0.364246 0.630354
O O3 0.205660 0.489756 0.751626
O O4 0.225514 0.386449 0.749316
O O5 0.870858 0.435429 0.333334
O O6 0.761891 0.334923 0.442317
O O7 0.878887 0.346373 0.502909
O O8 0.862132 0.443180 0.600749
O O9 0.069590 0.676439 0.272559
O O10 0.969417 0.662336 0.131773
O O11 0.049417 0.621989 0.007059
O O12 0.270764 0.729236 0.666667
O O13 0.372719 0.745438 0.500000
O O14 0.500000 0.500000 0.931698
O O15 0.465188 0.534812 0.166667
#
# Coordination Sequence:
#
# PCOD9584232 Si02
#       6
#    12  12  12  12  12  12
#     4   9  21  38  55  75  99 125 170 220 264 343
#     4  11  21  36  51  65  88 123 168 212 254 333
#     4  10  18  32  56  71  96 128 156 210 270 324
#     4  11  26  38  49  68  98 133 168 213 278 348
#     4   9  18  33  52  76  91 122 167 204 260 333
#     4  11  23  33  47  73  98 120 161 212 269 328
#
# _framework density 17.725456000000001
#
# number of rings (size 3 to 8) (size 9 to 14) (size 15 to 20)
#    0.000    1.833    3.333    0.500    4.667    1.000 
#    0.000    0.000    0.000    0.000    0.000    0.000 
#    0.000    0.000    0.000    0.000    0.000    0.000 
#
# Total GULP energy -400838.126156 kJ/mol
# GULP energy per Si atom -5567.196197 kJ/mol
# Density = 1.768511 g / cm^3
# Si number density = 17.725456 Si / 1000 Ang^3
#
#
#
# Elastic Constant Matrix: (Units=GPa)
#
#
# Indices 1 2 3 4 5 6 
#
# 1 89.6164 49.3858 26.0701 0.0000 0.0000 0.0000
# 2 49.3858 89.6164 26.0701 0.0000 0.0000 0.0000
# 3 26.0701 26.0701 53.4842 0.0000 0.0000 0.0000
# 4 0.0000 0.0000 0.0000 2.8648 0.0000 0.0000
# 5 0.0000 0.0000 0.0000 0.0000 2.8648 0.0000
# 6 0.0000 0.0000 0.0000 0.0000 0.0000 20.1153
#
#
#
# Elastic Compliance Matrix: (Units=1/GPa)
#
#
# Indices 1 2 3 4 5 6 
#
# 1 0.016830 -0.008026 -0.004291 0.000000 0.000000 0.000000
# 2 -0.008026 0.016830 -0.004291 0.000000 0.000000 0.000000
# 3 -0.004291 -0.004291 0.022881 0.000000 0.000000 0.000000
# 4 0.000000 0.000000 0.000000 0.349063 0.000000 0.000000
# 5 0.000000 0.000000 0.000000 0.000000 0.349063 0.000000
# 6 0.000000 0.000000 0.000000 0.000000 0.000000 0.049713
#
#
# Mechanical properties :
#
#
# Convention : Reuss Voigt Hill
#
# Bulk Modulus (GPa) = 42.87606 48.41876 45.64741
# Shear Modulus (GPa) = 5.91455 13.91504 9.91480
#
# Velocity S-wave (km/s) = 1.82866 2.80488 2.36763
# Velocity P-wave (km/s) = 5.35725 6.15346 5.76911
#
# Compressibility (1/GPa) = 0.02332304
#
# Stress axis : x y z
#
# Youngs Moduli (GPa) = 59.41676 59.41676 43.70521
#
# Poissons Ratio (x) = 0.47691 0.18755
# Poissons Ratio (y) = 0.47691 0.18755
# Poissons Ratio (z) = 0.25497 0.25497
#
# Static dielectric constant tensor:
#      x y z
#    x 1.676040 0.000000 0.000000 
#    y 0.000000 1.676040 0.000000 
#    z 0.000000 0.000000 1.684080 
# 
# From -- ./inp_files/3364.got.cif
#   From: 2010.05.17/outbox.cif.g08.bks.cpg/sg181_2_cif.got.tgz:3364.got - 2010.05.20 11:51:17.
