data_PCOD9584654
_publ_section_title
;
Structure prediction by ZEFSAII (Michael W. Deem and Ramdas Pophale) SiO2 
 PCOD9584654
Probable space group: P 63 2 2
;
_chemical_formula_sum "Si O2"
_cell_formula_units_Z 66
_cell_length_a 27.999893
_cell_length_b 27.999893
_cell_length_c 5.161745
_cell_angle_alpha 90.000000
_cell_angle_beta 90.000000
_cell_angle_gamma 120.000000
_cell_volume 3504.611816
_symmetry_space_group_name_H-M "P 63 2 2"
_symmetry_group_IT_number 182
_symmetry_cell_setting 'hexagonal'
loop_
_space_group_symop_operation_xyz
x,y,z
x-y,x,1/2+z
-y,x-y,z
-x,-y,1/2+z
-x+y,-x,z
y,-x+y,1/2+z
x-y,-y,-z
-x,-x+y,-z
y,x,-z
-y,-x,1/2-z
-x+y,y,1/2-z
x,x-y,1/2-z
loop_
_atom_site_type_symbol
_atom_site_label
_atom_site_fract_x
_atom_site_fract_y
_atom_site_fract_z
Si Si1 0.474558 0.284813 0.343870
Si Si2 0.643184 0.865408 0.416845
Si Si3 0.481529 0.963057 0.750000
Si Si4 0.089384 0.676799 0.035141
Si Si5 0.494258 0.607114 0.108538
Si Si6 0.035468 0.726765 0.755743
O O1 0.504699 0.252349 0.250000
O O2 0.417988 0.239506 0.482561
O O3 0.452603 0.305606 0.106099
O O4 0.506261 0.337683 0.528122
O O5 0.666344 0.833172 0.250000
O O6 0.678387 0.903603 0.658757
O O7 0.628962 0.901920 0.222435
O O8 0.579917 0.077552 0.350478
O O9 0.489268 0.000000 0.500000
O O10 0.047522 0.676922 0.823952
O O11 0.078240 0.626040 0.213259
O O12 0.439367 0.560634 0.250000
O O13 0.000000 0.715096 0.500000
O O14 0.000000 0.728747 0.000000
#
# Coordination Sequence:
#
# PCOD9584654 Si02
#       6
#    12  12   6  12  12  12
#     4  10  20  35  62  87 114 134 184 233 287 330
#     4  10  19  35  57  80 112 142 186 233 276 334
#     4  12  26  50  64  82 122 168 198 226 266 344
#     4  10  21  39  59  81 113 144 180 237 271 343
#     4  11  24  44  57  85 120 147 191 231 279 345
#     4  11  22  39  53  84 118 152 186 230 286 336
#
# _framework density 18.832329000000001
#
# number of rings (size 3 to 8) (size 9 to 14) (size 15 to 20)
#    0.000    1.455    4.545    1.091    0.000    0.000 
#   13.091    0.000    0.000    0.000    0.000    0.000 
#   76.364    0.000    0.000    0.000    0.000    0.000 
#
# Total GULP energy -368191.474910 kJ/mol
# GULP energy per Si atom -5578.658711 kJ/mol
# Density = 1.878947 g / cm^3
# Si number density = 18.832329 Si / 1000 Ang^3
#
#
#
# Elastic Constant Matrix: (Units=GPa)
#
#
# Indices 1 2 3 4 5 6 
#
# 1 61.4395 29.9636 30.8554 0.0000 0.0000 0.0000
# 2 29.9636 61.4395 30.8554 0.0000 0.0000 0.0000
# 3 30.8554 30.8554 124.1908 0.0000 0.0000 0.0000
# 4 0.0000 0.0000 0.0000 37.4730 0.0000 0.0000
# 5 0.0000 0.0000 0.0000 0.0000 37.4730 0.0000
# 6 0.0000 0.0000 0.0000 0.0000 0.0000 15.7379
#
#
#
# Elastic Compliance Matrix: (Units=1/GPa)
#
#
# Indices 1 2 3 4 5 6 
#
# 1 0.022458 -0.009312 -0.003266 0.000000 0.000000 0.000000
# 2 -0.009312 0.022458 -0.003266 0.000000 0.000000 0.000000
# 3 -0.003266 -0.003266 0.009675 0.000000 0.000000 0.000000
# 4 0.000000 0.000000 0.000000 0.026686 0.000000 0.000000
# 5 0.000000 0.000000 0.000000 0.000000 0.026686 0.000000
# 6 0.000000 0.000000 0.000000 0.000000 0.000000 0.063541
#
#
# Mechanical properties :
#
#
# Convention : Reuss Voigt Hill
#
# Bulk Modulus (GPa) = 43.66420 47.82432 45.74426
# Shear Modulus (GPa) = 23.71619 28.49647 26.10633
#
# Velocity S-wave (km/s) = 3.55256 3.89417 3.72728
# Velocity P-wave (km/s) = 6.32959 6.75791 6.54725
#
# Compressibility (1/GPa) = 0.02290206
#
# Stress axis : x y z
#
# Youngs Moduli (GPa) = 44.52761 44.52761 103.35872
#
# Poissons Ratio (x) = 0.41466 0.33758
# Poissons Ratio (y) = 0.41466 0.33758
# Poissons Ratio (z) = 0.14543 0.14543
#
# Static dielectric constant tensor:
#      x y z
#    x 1.698310 0.000000 0.000000 
#    y 0.000000 1.698310 0.000000 
#    z 0.000000 0.000000 1.811160 
# 
# From -- ./inp_files/812.got.cif
#   From: 2010.05.17/outbox.cif.g08.bks.cpg/sg182_1_cif.got.tgz:812.got - 2010.05.20 11:58:53.
