data_PCOD9584634
_publ_section_title
;
Structure prediction by ZEFSAII (Michael W. Deem and Ramdas Pophale) SiO2 
 PCOD9584634
Probable space group: P 63 2 2
;
_chemical_formula_sum "Si O2"
_cell_formula_units_Z 76
_cell_length_a 17.884998
_cell_length_b 17.884998
_cell_length_c 15.090714
_cell_angle_alpha 90.000000
_cell_angle_beta 90.000000
_cell_angle_gamma 120.000000
_cell_volume 4180.403589
_symmetry_space_group_name_H-M "P 63 2 2"
_symmetry_group_IT_number 182
_symmetry_cell_setting 'hexagonal'
loop_
_space_group_symop_operation_xyz
x,y,z
x-y,x,1/2+z
-y,x-y,z
-x,-y,1/2+z
-x+y,-x,z
y,-x+y,1/2+z
x-y,-y,-z
-x,-x+y,-z
y,x,-z
-y,-x,1/2-z
-x+y,y,1/2-z
x,x-y,1/2-z
loop_
_atom_site_type_symbol
_atom_site_label
_atom_site_fract_x
_atom_site_fract_y
_atom_site_fract_z
Si Si1 0.000000 0.000000 0.107379
Si Si2 0.820349 0.638652 0.983716
Si Si3 0.594503 0.020792 0.246951
Si Si4 0.687285 0.783200 0.677832
Si Si5 0.858552 0.047690 0.904477
Si Si6 0.545043 0.921619 0.432268
Si Si7 0.918441 0.538374 0.932995
O O1 0.060698 0.100981 0.132835
O O2 0.000000 0.000000 0.000000
O O3 0.860416 0.728905 0.929095
O O4 0.720201 0.583932 0.963629
O O5 0.862044 0.582139 0.951642
O O6 0.848710 0.659013 0.086788
O O7 0.530527 0.061053 0.250000
O O8 0.579265 0.966378 0.336613
O O9 0.559625 0.954799 0.165619
O O10 0.694374 0.082536 0.220724
O O11 0.713215 0.856607 0.750000
O O12 0.772033 0.777291 0.653311
O O13 0.837040 0.000000 0.000000
O O14 0.441309 0.876695 0.439819
O O15 0.580021 0.000000 0.500000
O O16 0.000000 0.583871 0.000000
#
# Coordination Sequence:
#
# PCOD9584634 Si02
#       7
#     4  12  12  12  12  12  12
#     4   9  18  33  52  83 115 156 208 260 298 343
#     4  11  20  38  62  86 120 163 206 248 311 378
#     4  10  20  37  61  85 112 156 204 251 303 364
#     4  11  21  36  59  88 118 160 210 253 303 370
#     4   9  19  35  57  79 114 165 202 244 303 358
#     4  10  23  36  57  91 122 149 199 262 303 358
#     4  10  18  39  62  81 114 160 200 241 310 373
#
# _framework density 18.180063000000001
#
# number of rings (size 3 to 8) (size 9 to 14) (size 15 to 20)
#    0.000    1.895    3.158    1.421    0.000    5.053 
#    0.947    2.368    0.000    0.316    0.000    0.000 
#    0.000    0.000    0.000    0.000    0.000    0.000 
#
# Total GULP energy -423620.862357 kJ/mol
# GULP energy per Si atom -5573.958715 kJ/mol
# Density = 1.813868 g / cm^3
# Si number density = 18.180063 Si / 1000 Ang^3
#
#
#
# Elastic Constant Matrix: (Units=GPa)
#
#
# Indices 1 2 3 4 5 6 
#
# 1 73.6387 22.1810 7.5374 0.0000 0.0000 0.0000
# 2 22.1810 73.6387 7.5374 0.0000 0.0000 0.0000
# 3 7.5374 7.5374 92.6153 0.0000 0.0000 0.0000
# 4 0.0000 0.0000 0.0000 19.3126 0.0000 0.0000
# 5 0.0000 0.0000 0.0000 0.0000 19.3126 0.0000
# 6 0.0000 0.0000 0.0000 0.0000 0.0000 25.7288
#
#
#
# Elastic Compliance Matrix: (Units=1/GPa)
#
#
# Indices 1 2 3 4 5 6 
#
# 1 0.015003 -0.004431 -0.000860 0.000000 0.000000 0.000000
# 2 -0.004431 0.015003 -0.000860 0.000000 0.000000 0.000000
# 3 -0.000860 -0.000860 0.010937 0.000000 0.000000 0.000000
# 4 0.000000 0.000000 0.000000 0.051780 0.000000 0.000000
# 5 0.000000 0.000000 0.000000 0.000000 0.051780 0.000000
# 6 0.000000 0.000000 0.000000 0.000000 0.000000 0.038867
#
#
# Mechanical properties :
#
#
# Convention : Reuss Voigt Hill
#
# Bulk Modulus (GPa) = 34.91718 34.93381 34.92549
# Shear Modulus (GPa) = 24.36431 26.37994 25.37212
#
# Velocity S-wave (km/s) = 3.66480 3.81338 3.73983
# Velocity P-wave (km/s) = 6.09555 6.21662 6.15638
#
# Compressibility (1/GPa) = 0.02863920
#
# Stress axis : x y z
#
# Youngs Moduli (GPa) = 66.65535 66.65535 91.42944
#
# Poissons Ratio (x) = 0.29534 0.07866
# Poissons Ratio (y) = 0.29534 0.07866
# Poissons Ratio (z) = 0.05735 0.05735
#
# Static dielectric constant tensor:
#      x y z
#    x 1.582700 0.000000 0.000000 
#    y 0.000000 1.582700 0.000000 
#    z 0.000000 0.000000 1.620800 
# 
# From -- ./inp_files/3663.got.cif
#   From: 2010.05.17/outbox.cif.g08.bks.cpg/sg182_2_cif.got.tgz:3663.got - 2010.05.20 11:58:53.
