data_PCOD9584836
_publ_section_title
;
Structure prediction by ZEFSAII (Michael W. Deem and Ramdas Pophale) SiO2 
 PCOD9584836
Probable space group: P 63 2 2
;
_chemical_formula_sum "Si O2"
_cell_formula_units_Z 30
_cell_length_a 17.647751
_cell_length_b 17.647751
_cell_length_c 5.192621
_cell_angle_alpha 90.000000
_cell_angle_beta 90.000000
_cell_angle_gamma 120.000000
_cell_volume 1400.541532
_symmetry_space_group_name_H-M "P 63 2 2"
_symmetry_group_IT_number 182
_symmetry_cell_setting 'hexagonal'
loop_
_space_group_symop_operation_xyz
x,y,z
x-y,x,1/2+z
-y,x-y,z
-x,-y,1/2+z
-x+y,-x,z
y,-x+y,1/2+z
x-y,-y,-z
-x,-x+y,-z
y,x,-z
-y,-x,1/2-z
-x+y,y,1/2-z
x,x-y,1/2-z
loop_
_atom_site_type_symbol
_atom_site_label
_atom_site_fract_x
_atom_site_fract_y
_atom_site_fract_z
Si Si1 0.554044 0.000000 0.000000
Si Si2 0.315460 0.211477 0.504911
Si Si3 0.512633 0.669029 0.771392
O O1 0.492489 0.984979 0.250000
O O2 0.436492 0.083837 0.446674
O O3 0.249229 0.249229 0.500000
O O4 0.308599 0.154300 0.250000
O O5 0.414924 0.295242 0.496535
O O6 0.302851 0.151426 0.750000
O O7 0.420228 0.579773 0.750000
O O8 0.491424 0.745712 0.750000
#
# Coordination Sequence:
#
# PCOD9584836 Si02
#       3
#     6  12  12
#     4  10  24  42  66  96 134 190 238 302 368 436
#     4  11  26  46  75 108 145 189 243 303 373 450
#     4  10  24  40  68  98 143 186 246 295 363 420
#
# _framework density 21.420287999999999
#
# number of rings (size 3 to 8) (size 9 to 14) (size 15 to 20)
#    0.000    1.600    0.000    1.600   22.400    0.000 
#    0.000    0.000    0.000   27.200    0.000    0.000 
#    0.000    0.000    0.000    0.000    0.000    0.000 
#
# Total GULP energy -167077.278409 kJ/mol
# GULP energy per Si atom -5569.242614 kJ/mol
# Density = 2.137153 g / cm^3
# Si number density = 21.420288 Si / 1000 Ang^3
#
#
#
# Elastic Constant Matrix: (Units=GPa)
#
#
# Indices 1 2 3 4 5 6 
#
# 1 225.4268 33.7282 60.4841 0.0000 0.0000 0.0000
# 2 33.7282 225.4268 60.4841 0.0000 0.0000 0.0000
# 3 60.4841 60.4841 160.3069 0.0000 0.0000 0.0000
# 4 0.0000 0.0000 0.0000 32.6042 0.0000 0.0000
# 5 0.0000 0.0000 0.0000 0.0000 32.6042 0.0000
# 6 0.0000 0.0000 0.0000 0.0000 0.0000 95.8493
#
#
#
# Elastic Compliance Matrix: (Units=1/GPa)
#
#
# Indices 1 2 3 4 5 6 
#
# 1 0.004950 -0.000266 -0.001767 0.000000 0.000000 0.000000
# 2 -0.000266 0.004950 -0.001767 0.000000 0.000000 0.000000
# 3 -0.001767 -0.001767 0.007572 0.000000 0.000000 0.000000
# 4 0.000000 0.000000 0.000000 0.030671 0.000000 0.000000
# 5 0.000000 0.000000 0.000000 0.000000 0.030671 0.000000
# 6 0.000000 0.000000 0.000000 0.000000 0.000000 0.010433
#
#
# Mechanical properties :
#
#
# Convention : Reuss Voigt Hill
#
# Bulk Modulus (GPa) = 101.31561 102.28373 101.79967
# Shear Modulus (GPa) = 49.93119 62.64249 56.28684
#
# Velocity S-wave (km/s) = 4.83330 5.41368 5.13170
# Velocity P-wave (km/s) = 8.86281 9.32372 9.09619
#
# Compressibility (1/GPa) = 0.00987015
#
# Stress axis : x y z
#
# Youngs Moduli (GPa) = 202.01881 202.01881 132.07417
#
# Poissons Ratio (x) = 0.05384 0.23339
# Poissons Ratio (y) = 0.05384 0.23339
# Poissons Ratio (z) = 0.35699 0.35699
#
# Static dielectric constant tensor:
#      x y z
#    x 1.827080 0.000000 0.000000 
#    y 0.000000 1.827080 0.000000 
#    z 0.000000 0.000000 1.836390 
# 
# From -- ./inp_files/164.got.cif
#   From: 2010.05.17/outbox.cif.g08.bks.cpg/sg182_1_cif.got.tgz:164.got - 2010.05.20 11:58:53.
