data_PCOD9584186
_publ_section_title
;
Structure prediction by ZEFSAII (Michael W. Deem and Ramdas Pophale) SiO2 
 PCOD9584186
Probable space group: P 62 2 2
;
_chemical_formula_sum "Si O2"
_cell_formula_units_Z 24
_cell_length_a 15.500150
_cell_length_b 15.500150
_cell_length_c 4.733643
_cell_angle_alpha 90.000000
_cell_angle_beta 90.000000
_cell_angle_gamma 120.000000
_cell_volume 984.913148
_symmetry_space_group_name_H-M "P 62 2 2"
_symmetry_group_IT_number 180
_symmetry_cell_setting 'hexagonal'
loop_
_space_group_symop_operation_xyz
x,y,z
x-y,x,1/3+z
-y,x-y,2/3+z
-x,-y,z
-x+y,-x,1/3+z
y,-x+y,2/3+z
x-y,-y,-z
-x,-x+y,1/3-z
y,x,2/3-z
-y,-x,2/3-z
-x+y,y,-z
x,x-y,1/3-z
loop_
_atom_site_type_symbol
_atom_site_label
_atom_site_fract_x
_atom_site_fract_y
_atom_site_fract_z
Si Si1 0.695724 0.695724 0.333334
Si Si2 0.515788 0.158550 0.747638
Si Si3 0.819465 0.819465 0.833334
O O1 0.673682 0.593592 0.188298
O O2 0.776455 0.736314 0.586429
O O3 0.560913 0.121826 0.500000
O O4 0.514982 0.257491 0.666667
O O5 0.591823 0.183646 0.000000
O O6 0.834956 0.917478 0.666667
#
# Coordination Sequence:
#
# PCOD9584186 Si02
#       3
#     6  12   6
#     4  12  27  50  79 114 154 206 264 324 397 480
#     4  12  26  48  76 112 155 202 254 315 384 461
#     4  12  28  54  82 112 152 204 262 332 405 482
#
# _framework density 24.367632
#
# number of rings (size 3 to 8) (size 9 to 14) (size 15 to 20)
#    0.000    0.000    0.000    9.750    0.000    6.000 
#    0.000   13.750    0.000    0.000    0.000    0.000 
#    0.000    0.000    0.000    0.000    0.000    0.000 
#
# Total GULP energy -134655.513792 kJ/mol
# GULP energy per Si atom -5610.646408 kJ/mol
# Density = 2.431217 g / cm^3
# Si number density = 24.367632 Si / 1000 Ang^3
#
#
#
# Elastic Constant Matrix: (Units=GPa)
#
#
# Indices 1 2 3 4 5 6 
#
# 1 191.9711 136.6894 113.1516 0.0000 0.0000 0.0000
# 2 136.6894 191.9711 113.1516 0.0000 0.0000 0.0000
# 3 113.1516 113.1516 219.9293 0.0000 0.0000 0.0000
# 4 0.0000 0.0000 0.0000 66.7319 0.0000 0.0000
# 5 0.0000 0.0000 0.0000 0.0000 66.7319 0.0000
# 6 0.0000 0.0000 0.0000 0.0000 0.0000 27.6408
#
#
#
# Elastic Compliance Matrix: (Units=1/GPa)
#
#
# Indices 1 2 3 4 5 6 
#
# 1 0.011401 -0.006689 -0.002424 0.000000 0.000000 0.000000
# 2 -0.006689 0.011401 -0.002424 0.000000 0.000000 0.000000
# 3 -0.002424 -0.002424 0.007041 0.000000 0.000000 0.000000
# 4 0.000000 0.000000 0.000000 0.014985 0.000000 0.000000
# 5 0.000000 0.000000 0.000000 0.000000 0.014985 0.000000
# 6 0.000000 0.000000 0.000000 0.000000 0.000000 0.036178
#
#
# Mechanical properties :
#
#
# Convention : Reuss Voigt Hill
#
# Bulk Modulus (GPa) = 147.74811 147.76186 147.75498
# Shear Modulus (GPa) = 41.21272 48.27953 44.74612
#
# Velocity S-wave (km/s) = 4.11699 4.45601 4.28985
# Velocity P-wave (km/s) = 9.13039 9.34050 9.23604
#
# Compressibility (1/GPa) = 0.00676828
#
# Stress axis : x y z
#
# Youngs Moduli (GPa) = 87.71518 87.71518 142.01738
#
# Poissons Ratio (x) = 0.58670 0.34428
# Poissons Ratio (y) = 0.58670 0.34428
# Poissons Ratio (z) = 0.21264 0.21264
#
# Static dielectric constant tensor:
#      x y z
#    x 1.915910 0.000000 0.000000 
#    y 0.000000 1.915910 0.000000 
#    z 0.000000 0.000000 1.875420 
# 
# From -- ./inp_files/185.got.cif
#   From: 2010.05.17/outbox.cif.g08.bks.cpg/sg180_1_cif.got.tgz:185.got - 2010.05.20 11:43:55.
