data_PCOD9584893
_publ_section_title
;
Structure prediction by ZEFSAII (Michael W. Deem and Ramdas Pophale) SiO2 
 PCOD9584893
Probable space group: P 63 2 2
;
_chemical_formula_sum "Si O2"
_cell_formula_units_Z 48
_cell_length_a 14.405782
_cell_length_b 14.405782
_cell_length_c 12.604758
_cell_angle_alpha 90.000000
_cell_angle_beta 90.000000
_cell_angle_gamma 120.000000
_cell_volume 2265.368308
_symmetry_space_group_name_H-M "P 63 2 2"
_symmetry_group_IT_number 182
_symmetry_cell_setting 'hexagonal'
loop_
_space_group_symop_operation_xyz
x,y,z
x-y,x,1/2+z
-y,x-y,z
-x,-y,1/2+z
-x+y,-x,z
y,-x+y,1/2+z
x-y,-y,-z
-x,-x+y,-z
y,x,-z
-y,-x,1/2-z
-x+y,y,1/2-z
x,x-y,1/2-z
loop_
_atom_site_type_symbol
_atom_site_label
_atom_site_fract_x
_atom_site_fract_y
_atom_site_fract_z
Si Si1 0.490205 0.886034 0.037482
Si Si2 0.515122 0.484879 0.750000
Si Si3 0.747101 0.585287 0.983429
Si Si4 0.156840 0.313679 0.250000
Si Si5 0.663258 0.929884 0.699006
O O1 0.377718 0.877194 0.014989
O O2 0.514114 0.800643 0.986299
O O3 0.491504 0.891848 0.163932
O O4 0.583744 0.000000 0.000000
O O5 0.391560 0.431108 0.712227
O O6 0.793872 0.627398 0.864733
O O7 0.762159 0.670437 0.073627
O O8 0.228615 0.254995 0.246926
O O9 0.634500 0.817250 0.750000
#
# Coordination Sequence:
#
# PCOD9584893 Si02
#       5
#    12   6  12   6  12
#     4  12  22  41  66 100 145 186 236 301 367 452
#     4  12  22  46  69 104 148 187 240 310 374 458
#     4  12  24  42  71 105 143 195 244 306 384 451
#     4  12  24  46  71 100 140 193 260 314 372 458
#     4  12  27  46  72 106 149 200 250 319 391 458
#
# _framework density 21.188607000000001
#
# number of rings (size 3 to 8) (size 9 to 14) (size 15 to 20)
#    0.000    0.000    7.500    2.750    0.000    0.000 
#    1.500    2.500    0.000    0.000    0.000    0.000 
#    0.000    0.000    0.000    0.000    0.000    0.000 
#
# Total GULP energy -267279.100565 kJ/mol
# GULP energy per Si atom -5568.314595 kJ/mol
# Density = 2.114038 g / cm^3
# Si number density = 21.188607 Si / 1000 Ang^3
#
#
#
# Elastic Constant Matrix: (Units=GPa)
#
#
# Indices 1 2 3 4 5 6 
#
# 1 104.5774 31.5314 24.3261 0.0000 0.0000 0.0000
# 2 31.5314 104.5774 24.3261 0.0000 0.0000 0.0000
# 3 24.3261 24.3261 108.2855 0.0000 0.0000 0.0000
# 4 0.0000 0.0000 0.0000 57.6531 0.0000 0.0000
# 5 0.0000 0.0000 0.0000 0.0000 57.6531 0.0000
# 6 0.0000 0.0000 0.0000 0.0000 0.0000 36.5230
#
#
#
# Elastic Compliance Matrix: (Units=1/GPa)
#
#
# Indices 1 2 3 4 5 6 
#
# 1 0.010839 -0.002851 -0.001795 0.000000 0.000000 0.000000
# 2 -0.002851 0.010839 -0.001795 0.000000 0.000000 0.000000
# 3 -0.001795 -0.001795 0.010041 0.000000 0.000000 0.000000
# 4 0.000000 0.000000 0.000000 0.017345 0.000000 0.000000
# 5 0.000000 0.000000 0.000000 0.000000 0.017345 0.000000
# 6 0.000000 0.000000 0.000000 0.000000 0.000000 0.027380
#
#
# Mechanical properties :
#
#
# Convention : Reuss Voigt Hill
#
# Bulk Modulus (GPa) = 53.07907 53.08972 53.08439
# Shear Modulus (GPa) = 44.26744 46.18295 45.22520
#
# Velocity S-wave (km/s) = 4.57575 4.67370 4.62498
# Velocity P-wave (km/s) = 7.28160 7.36443 7.32313
#
# Compressibility (1/GPa) = 0.01883982
#
# Stress axis : x y z
#
# Youngs Moduli (GPa) = 92.25702 92.25702 99.59011
#
# Poissons Ratio (x) = 0.26300 0.17873
# Poissons Ratio (y) = 0.26300 0.17873
# Poissons Ratio (z) = 0.16557 0.16557
#
# Static dielectric constant tensor:
#      x y z
#    x 1.750960 0.000000 0.000000 
#    y 0.000000 1.750960 0.000000 
#    z 0.000000 0.000000 1.912650 
# 
# From -- ./inp_files/2390.got.cif
#   From: 2010.05.17/outbox.cif.g08.bks.cpg/sg182_2_cif.got.tgz:2390.got - 2010.05.20 11:58:53.
