data_PCOD9584722
_publ_section_title
;
Structure prediction by ZEFSAII (Michael W. Deem and Ramdas Pophale) SiO2 
 PCOD9584722
Probable space group: P 63 2 2
;
_chemical_formula_sum "Si O2"
_cell_formula_units_Z 52
_cell_length_a 14.986596
_cell_length_b 14.986596
_cell_length_c 13.445971
_cell_angle_alpha 90.000000
_cell_angle_beta 90.000000
_cell_angle_gamma 120.000000
_cell_volume 2615.343889
_symmetry_space_group_name_H-M "P 63 2 2"
_symmetry_group_IT_number 182
_symmetry_cell_setting 'hexagonal'
loop_
_space_group_symop_operation_xyz
x,y,z
x-y,x,1/2+z
-y,x-y,z
-x,-y,1/2+z
-x+y,-x,z
y,-x+y,1/2+z
x-y,-y,-z
-x,-x+y,-z
y,x,-z
-y,-x,1/2-z
-x+y,y,1/2-z
x,x-y,1/2-z
loop_
_atom_site_type_symbol
_atom_site_label
_atom_site_fract_x
_atom_site_fract_y
_atom_site_fract_z
Si Si1 0.482451 0.602161 0.969348
Si Si2 0.465495 0.930989 0.750000
Si Si3 0.096538 0.193075 0.750000
Si Si4 0.736520 0.572619 0.515866
Si Si5 0.000000 0.000000 0.615226
Si Si6 0.004465 0.684554 0.833739
O O1 0.461496 0.591885 0.850107
O O2 0.545008 0.545008 0.000000
O O3 0.371454 0.535166 0.021093
O O4 0.545434 0.720219 0.000668
O O5 0.584863 0.995372 0.779517
O O6 0.218656 0.259663 0.762228
O O7 0.063658 0.115242 0.657613
O O8 0.722541 0.630386 0.420134
O O9 0.746752 0.643215 0.609976
O O10 0.000000 0.000000 0.500000
#
# Coordination Sequence:
#
# PCOD9584722 Si02
#       6
#    12   6   6  12   4  12
#     4  11  21  41  63  94 134 175 224 270 332 398
#     4  10  20  40  66  93 136 163 216 280 310 398
#     4  10  22  44  68  97 128 179 214 278 352 402
#     4  10  21  39  65  94 137 178 217 281 332 395
#     4  10  26  49  64  95 142 160 233 295 325 425
#     4  10  20  41  63  96 137 168 226 277 327 407
#
# _framework density 19.882662
#
# number of rings (size 3 to 8) (size 9 to 14) (size 15 to 20)
#    0.000    1.846    4.615    1.846    3.231    2.769 
#   16.615    0.000    0.000    0.462    0.000    0.000 
#    0.000    0.000    0.000    0.000    0.000    0.000 
#
# Total GULP energy -290361.575233 kJ/mol
# GULP energy per Si atom -5583.876447 kJ/mol
# Density = 1.983741 g / cm^3
# Si number density = 19.882662 Si / 1000 Ang^3
#
#
#
# Elastic Constant Matrix: (Units=GPa)
#
#
# Indices 1 2 3 4 5 6 
#
# 1 103.0282 41.4419 32.2765 0.0000 0.0000 0.0000
# 2 41.4419 103.0282 32.2765 0.0000 0.0000 0.0000
# 3 32.2765 32.2765 80.3436 0.0000 0.0000 0.0000
# 4 0.0000 0.0000 0.0000 -76.9778 0.0000 0.0000
# 5 0.0000 0.0000 0.0000 0.0000 -76.9778 0.0000
# 6 0.0000 0.0000 0.0000 0.0000 0.0000 30.7932
#
#
#
# Elastic Compliance Matrix: (Units=1/GPa)
#
#
# Indices 1 2 3 4 5 6 
#
# 1 0.012337 -0.003901 -0.003389 0.000000 0.000000 0.000000
# 2 -0.003901 0.012337 -0.003389 0.000000 0.000000 0.000000
# 3 -0.003389 -0.003389 0.015170 0.000000 0.000000 0.000000
# 4 0.000000 0.000000 0.000000 -0.012991 0.000000 0.000000
# 5 0.000000 0.000000 0.000000 0.000000 -0.012991 0.000000
# 6 0.000000 0.000000 0.000000 0.000000 0.000000 0.032475
#
#
# Mechanical properties :
#
#
# Convention : Reuss Voigt Hill
#
# Bulk Modulus (GPa) = 54.09618 55.37665 54.73641
# Shear Modulus (GPa) = 67.69967 -12.60546 27.54711
#
# Velocity S-wave (km/s) = 5.84153 -2.52065 3.72625
# Velocity P-wave (km/s) = 8.53023 4.40915 6.78990
#
# Compressibility (1/GPa) = 0.01848559
#
# Stress axis : x y z
#
# Youngs Moduli (GPa) = 81.05851 81.05851 65.92161
#
# Poissons Ratio (x) = 0.31618 0.22341
# Poissons Ratio (y) = 0.31618 0.22341
# Poissons Ratio (z) = 0.27471 0.27471
#
# Static dielectric constant tensor:
#      x y z
#    x 1.685750 0.000000 0.000000 
#    y 0.000000 1.685750 0.000000 
#    z 0.000000 0.000000 1.729980 
# 
# From -- ./inp_files/3411.got.cif
#   From: 2010.05.17/outbox.cif.g08.bks.cpg/sg182_2_cif.got.tgz:3411.got - 2010.05.20 11:58:53.
