data_PCOD9584085
_publ_section_title
;
Structure prediction by ZEFSAII (Michael W. Deem and Ramdas Pophale) SiO2 
 PCOD9584085
Probable space group: P 62 2 2
;
_chemical_formula_sum "Si O2"
_cell_formula_units_Z 84
_cell_length_a 15.572176
_cell_length_b 15.572176
_cell_length_c 23.712342
_cell_angle_alpha 90.000000
_cell_angle_beta 90.000000
_cell_angle_gamma 120.000000
_cell_volume 4979.705840
_symmetry_space_group_name_H-M "P 62 2 2"
_symmetry_group_IT_number 180
_symmetry_cell_setting 'hexagonal'
loop_
_space_group_symop_operation_xyz
x,y,z
x-y,x,1/3+z
-y,x-y,2/3+z
-x,-y,z
-x+y,-x,1/3+z
y,-x+y,2/3+z
x-y,-y,-z
-x,-x+y,1/3-z
y,x,2/3-z
-y,-x,2/3-z
-x+y,y,-z
x,x-y,1/3-z
loop_
_atom_site_type_symbol
_atom_site_label
_atom_site_fract_x
_atom_site_fract_y
_atom_site_fract_z
Si Si1 0.686097 0.330909 0.732991
Si Si2 0.984178 0.391214 0.764303
Si Si3 0.553379 0.757002 0.409691
Si Si4 0.220762 0.793840 0.722871
Si Si5 0.787977 0.550265 0.934453
Si Si6 0.597876 0.604274 0.101264
Si Si7 0.457978 0.116075 0.503675
O O1 0.709027 0.354514 0.666667
O O2 0.750924 0.437584 0.760065
O O3 0.721520 0.256426 0.751397
O O4 0.569072 0.274022 0.737687
O O5 0.892709 0.289640 0.738946
O O6 0.973394 0.389257 0.831845
O O7 0.000000 0.500000 0.744612
O O8 0.086631 0.394408 0.750581
O O9 0.564518 0.791337 0.345039
O O10 0.581402 0.845502 0.452518
O O11 0.291290 0.908100 0.741604
O O12 0.722550 0.576329 0.893861
O O13 0.898468 0.589793 0.911942
O O14 0.788063 0.576126 0.000000
O O15 0.500000 0.500000 0.081058
O O16 0.576876 0.153752 0.500000
O O17 0.406729 0.000000 0.500000
#
# Coordination Sequence:
#
# PCOD9584085 Si02
#       7
#    12  12  12  12  12  12  12
#     4   9  18  32  51  80 115 154 189 228 275 332
#     4  11  22  36  56  83 118 156 194 231 285 344
#     4  11  21  37  57  80 116 156 192 238 285 338
#     4  11  22  35  55  84 117 154 198 234 277 341
#     4  11  22  39  58  80 115 160 196 235 290 344
#     4  11  23  36  55  84 119 156 191 236 288 343
#     4  11  24  39  58  85 116 152 196 243 291 344
#
# _framework density 16.868466999999999
#
# number of rings (size 3 to 8) (size 9 to 14) (size 15 to 20)
#    0.000    1.286    5.714    0.857    2.000    0.571 
#    2.571    0.000    0.000    0.000    0.000    2.000 
#    0.000    0.000    0.000    0.000    0.000    0.000 
#
# Total GULP energy -467663.486943 kJ/mol
# GULP energy per Si atom -5567.422464 kJ/mol
# Density = 1.683007 g / cm^3
# Si number density = 16.868467 Si / 1000 Ang^3
#
#
#
# Elastic Constant Matrix: (Units=GPa)
#
#
# Indices 1 2 3 4 5 6 
#
# 1 65.6007 28.1324 35.6066 0.0000 0.0000 0.0000
# 2 28.1324 65.6007 35.6066 0.0000 0.0000 0.0000
# 3 35.6066 35.6066 90.9033 0.0000 0.0000 0.0000
# 4 0.0000 0.0000 0.0000 16.4537 0.0000 0.0000
# 5 0.0000 0.0000 0.0000 0.0000 16.4537 0.0000
# 6 0.0000 0.0000 0.0000 0.0000 0.0000 18.7341
#
#
#
# Elastic Compliance Matrix: (Units=1/GPa)
#
#
# Indices 1 2 3 4 5 6 
#
# 1 0.020939 -0.005750 -0.005949 0.000000 0.000000 0.000000
# 2 -0.005750 0.020939 -0.005949 0.000000 0.000000 0.000000
# 3 -0.005949 -0.005949 0.015661 0.000000 0.000000 0.000000
# 4 0.000000 0.000000 0.000000 0.060777 0.000000 0.000000
# 5 0.000000 0.000000 0.000000 0.000000 0.060777 0.000000
# 6 0.000000 0.000000 0.000000 0.000000 0.000000 0.053379
#
#
# Mechanical properties :
#
#
# Convention : Reuss Voigt Hill
#
# Bulk Modulus (GPa) = 44.96162 46.75511 45.85837
# Shear Modulus (GPa) = 18.16974 18.51223 18.34099
#
# Velocity S-wave (km/s) = 3.28555 3.31637 3.30099
# Velocity P-wave (km/s) = 6.41133 6.51475 6.46325
#
# Compressibility (1/GPa) = 0.02224119
#
# Stress axis : x y z
#
# Youngs Moduli (GPa) = 47.75798 47.75798 63.85134
#
# Poissons Ratio (x) = 0.27462 0.37987
# Poissons Ratio (y) = 0.27462 0.37987
# Poissons Ratio (z) = 0.28413 0.28413
#
# Static dielectric constant tensor:
#      x y z
#    x 1.541590 0.000000 0.000000 
#    y 0.000000 1.541590 0.000000 
#    z 0.000000 0.000000 1.596500 
# 
# From -- ./inp_files/10259.got.cif
#   From: 2010.05.17/outbox.cif.g08.bks.cpg/sg180_6_cif.got.tgz:10259.got - 2010.05.20 11:43:55.
