data_PCOD9584469
_publ_section_title
;
Structure prediction by ZEFSAII (Michael W. Deem and Ramdas Pophale) SiO2 
 PCOD9584469
Probable space group: P 64 2 2
;
_chemical_formula_sum "Si O2"
_cell_formula_units_Z 42
_cell_length_a 12.653624
_cell_length_b 12.653624
_cell_length_c 13.652813
_cell_angle_alpha 90.000000
_cell_angle_beta 90.000000
_cell_angle_gamma 120.000000
_cell_volume 1893.139531
_symmetry_space_group_name_H-M "P 64 2 2"
_symmetry_group_IT_number 181
_symmetry_cell_setting 'hexagonal'
loop_
_space_group_symop_operation_xyz
x,y,z
x-y,x,2/3+z
-y,x-y,1/3+z
-x,-y,z
-x+y,-x,2/3+z
y,-x+y,1/3+z
x-y,-y,-z
-x,-x+y,2/3-z
y,x,1/3-z
-y,-x,1/3-z
-x+y,y,-z
x,x-y,2/3-z
loop_
_atom_site_type_symbol
_atom_site_label
_atom_site_fract_x
_atom_site_fract_y
_atom_site_fract_z
Si Si1 0.754563 0.245438 0.166667
Si Si2 0.374521 0.049755 0.400721
Si Si3 0.687142 0.869221 0.019959
Si Si4 0.142250 0.674098 0.533588
O O1 0.810052 0.213746 0.261136
O O2 0.608991 0.190578 0.178116
O O3 0.423818 0.050989 0.292306
O O4 0.434688 0.191507 0.428818
O O5 0.399791 0.000000 0.500000
O O6 0.229234 0.954486 0.388196
O O7 0.611455 0.898389 0.101553
O O8 0.803462 0.000000 0.000000
#
# Coordination Sequence:
#
# PCOD9584469 Si02
#       4
#     6  12  12  12
#     4  12  26  42  67 104 145 190 238 300 380 444
#     4   9  21  44  68  97 135 182 243 293 354 434
#     4  11  24  42  66 100 141 188 235 299 373 442
#     4  10  23  42  66 101 137 184 247 294 365 436
#
# _framework density 22.185371
#
# number of rings (size 3 to 8) (size 9 to 14) (size 15 to 20)
#    0.000    1.714    0.000    2.571    8.000    5.714 
#    5.143    2.857    0.000   13.714    0.000    0.000 
#    0.000    0.000    0.000    0.000    0.000    0.000 
#
# Total GULP energy -233879.980160 kJ/mol
# GULP energy per Si atom -5568.570956 kJ/mol
# Density = 2.213488 g / cm^3
# Si number density = 22.185371 Si / 1000 Ang^3
#
#
#
# Elastic Constant Matrix: (Units=GPa)
#
#
# Indices 1 2 3 4 5 6 
#
# 1 87.8578 48.7803 3.6615 0.0000 0.0000 0.0000
# 2 48.7803 87.8578 3.6615 0.0000 0.0000 0.0000
# 3 3.6615 3.6615 146.8589 0.0000 0.0000 0.0000
# 4 0.0000 0.0000 0.0000 348.1481 0.0000 0.0000
# 5 0.0000 0.0000 0.0000 0.0000 348.1481 0.0000
# 6 0.0000 0.0000 0.0000 0.0000 0.0000 19.5388
#
#
#
# Elastic Compliance Matrix: (Units=1/GPa)
#
#
# Indices 1 2 3 4 5 6 
#
# 1 0.016459 -0.009131 -0.000183 0.000000 0.000000 0.000000
# 2 -0.009131 0.016459 -0.000183 0.000000 0.000000 0.000000
# 3 -0.000183 -0.000183 0.006818 0.000000 0.000000 0.000000
# 4 0.000000 0.000000 0.000000 0.002872 0.000000 0.000000
# 5 0.000000 0.000000 0.000000 0.000000 0.002872 0.000000
# 6 0.000000 0.000000 0.000000 0.000000 0.000000 0.051180
#
#
# Mechanical properties :
#
#
# Convention : Reuss Voigt Hill
#
# Bulk Modulus (GPa) = 48.20600 48.30902 48.25751
# Shear Modulus (GPa) = 40.79327 160.93176 100.86251
#
# Velocity S-wave (km/s) = 4.29271 8.52626 6.74998
# Velocity P-wave (km/s) = 6.80777 10.89733 9.08564
#
# Compressibility (1/GPa) = 0.02074430
#
# Stress axis : x y z
#
# Youngs Moduli (GPa) = 60.75604 60.75604 146.66263
#
# Poissons Ratio (x) = 0.55476 0.02680
# Poissons Ratio (y) = 0.55476 0.02680
# Poissons Ratio (z) = 0.01110 0.01110
#
# Static dielectric constant tensor:
#      x y z
#    x 1.899120 0.000000 0.000000 
#    y 0.000000 1.899120 0.000000 
#    z 0.000000 0.000000 1.867570 
# 
# From -- ./inp_files/5747.got.cif
#   From: 2010.05.17/outbox.cif.g08.bks.cpg/sg181_3_cif.got.tgz:5747.got - 2010.05.20 11:51:17.
