data_PCOD9584616
_publ_section_title
;
Structure prediction by ZEFSAII (Michael W. Deem and Ramdas Pophale) SiO2 
 PCOD9584616
Probable space group: P 63 2 2
;
_chemical_formula_sum "Si O2"
_cell_formula_units_Z 66
_cell_length_a 26.034909
_cell_length_b 26.034909
_cell_length_c 5.847604
_cell_angle_alpha 90.000000
_cell_angle_beta 90.000000
_cell_angle_gamma 120.000000
_cell_volume 3432.580368
_symmetry_space_group_name_H-M "P 63 2 2"
_symmetry_group_IT_number 182
_symmetry_cell_setting 'hexagonal'
loop_
_space_group_symop_operation_xyz
x,y,z
x-y,x,1/2+z
-y,x-y,z
-x,-y,1/2+z
-x+y,-x,z
y,-x+y,1/2+z
x-y,-y,-z
-x,-x+y,-z
y,x,-z
-y,-x,1/2-z
-x+y,y,1/2-z
x,x-y,1/2-z
loop_
_atom_site_type_symbol
_atom_site_label
_atom_site_fract_x
_atom_site_fract_y
_atom_site_fract_z
Si Si1 0.303572 0.563971 0.999775
Si Si2 0.276390 0.453882 0.500808
Si Si3 0.888920 0.219663 0.755537
Si Si4 0.083494 0.399740 0.625223
Si Si5 0.381975 0.869289 0.355052
Si Si6 0.311665 0.000000 0.000000
O O1 0.293869 0.587737 0.750000
O O2 0.294130 0.588260 0.250000
O O3 0.246642 0.498029 0.000099
O O4 0.361157 0.555496 0.014215
O O5 0.234976 0.390505 0.392047
O O6 0.292668 0.437172 0.738888
O O7 0.335954 0.486709 0.353563
O O8 0.851403 0.148598 0.750000
O O9 0.906994 0.260805 0.529634
O O10 0.948828 0.250521 0.899071
O O11 0.083269 0.453265 0.487057
O O12 0.030315 0.361894 0.802308
O O13 0.446279 0.892558 0.250000
#
# Coordination Sequence:
#
# PCOD9584616 Si02
#       6
#    12  12  12  12  12   6
#     4  10  18  32  51  79 112 139 173 237 310 361
#     4   9  18  31  53  80 104 134 178 243 302 354
#     4  10  20  33  56  86 113 145 191 240 294 359
#     4  10  19  36  54  82 114 147 196 246 309 363
#     4  10  20  32  51  81 108 142 192 245 302 377
#     4  10  22  34  54  86 114 160 184 250 316 350
#
# _framework density 19.227518
#
# number of rings (size 3 to 8) (size 9 to 14) (size 15 to 20)
#    0.000    2.182    1.818    3.273    0.000    2.909 
#    0.000    0.000    0.000    9.818  170.182    0.000 
#    0.000    0.000    0.000    0.000    0.000    0.000 
#
# Total GULP energy -367679.828742 kJ/mol
# GULP energy per Si atom -5570.906496 kJ/mol
# Density = 1.918376 g / cm^3
# Si number density = 19.227518 Si / 1000 Ang^3
#
#
#
# Elastic Constant Matrix: (Units=GPa)
#
#
# Indices 1 2 3 4 5 6 
#
# 1 66.3856 69.8478 36.4620 0.0000 0.0000 0.0000
# 2 69.8478 66.3856 36.4620 0.0000 0.0000 0.0000
# 3 36.4620 36.4620 109.5443 0.0000 0.0000 0.0000
# 4 0.0000 0.0000 0.0000 38.4436 0.0000 0.0000
# 5 0.0000 0.0000 0.0000 0.0000 38.4436 0.0000
# 6 0.0000 0.0000 0.0000 0.0000 0.0000 -1.7311
#
#
#
# Elastic Compliance Matrix: (Units=1/GPa)
#
#
# Indices 1 2 3 4 5 6 
#
# 1 -0.139947 0.148879 -0.002973 0.000000 0.000000 0.000000
# 2 0.148879 -0.139947 -0.002973 0.000000 0.000000 0.000000
# 3 -0.002973 -0.002973 0.011108 0.000000 0.000000 0.000000
# 4 0.000000 0.000000 0.000000 0.026012 0.000000 0.000000
# 5 0.000000 0.000000 0.000000 0.000000 0.026012 0.000000
# 6 0.000000 0.000000 0.000000 0.000000 0.000000 -0.577652
#
#
# Mechanical properties :
#
#
# Convention : Reuss Voigt Hill
#
# Bulk Modulus (GPa) = 58.54968 58.65100 58.60034
# Shear Modulus (GPa) = -4.65295 21.66745 8.50725
#
# Velocity S-wave (km/s) = -1.55731 3.36057 2.10574
# Velocity P-wave (km/s) = 5.22336 6.75484 6.03785
#
# Compressibility (1/GPa) = 0.01707951
#
# Stress axis : x y z
#
# Youngs Moduli (GPa) = -7.14556 -7.14556 90.02672
#
# Poissons Ratio (x) = 1.06382 0.26764
# Poissons Ratio (y) = 1.06382 0.26764
# Poissons Ratio (z) = -0.02124 -0.02124
#
# Static dielectric constant tensor:
#      x y z
#    x 1.712250 0.000000 0.000000 
#    y 0.000000 1.712250 0.000000 
#    z 0.000000 0.000000 1.825710 
# 
# From -- ./inp_files/772.got.cif
#   From: 2010.05.17/outbox.cif.g08.bks.cpg/sg182_1_cif.got.tgz:772.got - 2010.05.20 11:58:53.
