data_PCOD9584851
_publ_section_title
;
Structure prediction by ZEFSAII (Michael W. Deem and Ramdas Pophale) SiO2 
 PCOD9584851
Probable space group: P 63 2 2
;
_chemical_formula_sum "Si O2"
_cell_formula_units_Z 46
_cell_length_a 11.165808
_cell_length_b 11.165808
_cell_length_c 17.060376
_cell_angle_alpha 90.000000
_cell_angle_beta 90.000000
_cell_angle_gamma 120.000000
_cell_volume 1842.042057
_symmetry_space_group_name_H-M "P 63 2 2"
_symmetry_group_IT_number 182
_symmetry_cell_setting 'hexagonal'
loop_
_space_group_symop_operation_xyz
x,y,z
x-y,x,1/2+z
-y,x-y,z
-x,-y,1/2+z
-x+y,-x,z
y,-x+y,1/2+z
x-y,-y,-z
-x,-x+y,-z
y,x,-z
-y,-x,1/2-z
-x+y,y,1/2-z
x,x-y,1/2-z
loop_
_atom_site_type_symbol
_atom_site_label
_atom_site_fract_x
_atom_site_fract_y
_atom_site_fract_z
Si Si1 0.213344 0.285118 0.918663
Si Si2 0.073950 0.410599 0.733987
Si Si3 0.000000 0.000000 0.156124
Si Si4 0.354807 0.833540 0.144380
Si Si5 0.646589 0.000000 0.500000
O O1 0.328447 0.388174 0.858899
O O2 0.134814 0.133845 0.878314
O O3 0.096270 0.321999 0.942715
O O4 0.277568 0.277568 0.000000
O O5 0.175043 0.350085 0.750000
O O6 0.783395 0.315741 0.654327
O O7 0.943130 0.356679 0.792769
O O8 0.000000 0.000000 0.250000
O O9 0.573040 0.146079 0.250000
O O10 0.370243 0.897084 0.058429
#
# Coordination Sequence:
#
# PCOD9584851 Si02
#       5
#    12  12   4  12   6
#     4  12  26  48  83 124 175 230 303 367 454 545
#     4  12  28  55  86 122 173 233 298 381 463 550
#     4  12  25  44  82 126 181 233 295 370 461 562
#     4  10  28  56  88 131 181 239 312 369 465 561
#     4  12  24  52  88 132 180 242 294 386 452 554
#
# _framework density 24.972283999999998
#
# number of rings (size 3 to 8) (size 9 to 14) (size 15 to 20)
#    0.522    0.000    5.217    1.043    3.652    3.130 
#    4.696    0.000    0.000    0.000    0.000    0.000 
#    0.000    0.000    0.000    0.000    0.000    0.000 
#
# Total GULP energy -257320.231472 kJ/mol
# GULP energy per Si atom -5593.918075 kJ/mol
# Density = 2.491545 g / cm^3
# Si number density = 24.972284 Si / 1000 Ang^3
#
#
#
# Elastic Constant Matrix: (Units=GPa)
#
#
# Indices 1 2 3 4 5 6 
#
# 1 136.2143 51.5942 80.8873 0.0000 0.0000 0.0000
# 2 51.5942 136.2143 80.8873 0.0000 0.0000 0.0000
# 3 80.8873 80.8873 241.7025 0.0000 0.0000 0.0000
# 4 0.0000 0.0000 0.0000 48.4918 0.0000 0.0000
# 5 0.0000 0.0000 0.0000 0.0000 48.4918 0.0000
# 6 0.0000 0.0000 0.0000 0.0000 0.0000 42.3101
#
#
#
# Elastic Compliance Matrix: (Units=1/GPa)
#
#
# Indices 1 2 3 4 5 6 
#
# 1 0.009649 -0.002168 -0.002504 0.000000 0.000000 0.000000
# 2 -0.002168 0.009649 -0.002504 0.000000 0.000000 0.000000
# 3 -0.002504 -0.002504 0.005813 0.000000 0.000000 0.000000
# 4 0.000000 0.000000 0.000000 0.020622 0.000000 0.000000
# 5 0.000000 0.000000 0.000000 0.000000 0.020622 0.000000
# 6 0.000000 0.000000 0.000000 0.000000 0.000000 0.023635
#
#
# Mechanical properties :
#
#
# Convention : Reuss Voigt Hill
#
# Bulk Modulus (GPa) = 92.92951 104.54098 98.73524
# Shear Modulus (GPa) = 46.32693 47.90955 47.11824
#
# Velocity S-wave (km/s) = 4.31180 4.38483 4.34847
# Velocity P-wave (km/s) = 7.87926 8.22127 8.05208
#
# Compressibility (1/GPa) = 0.01076084
#
# Stress axis : x y z
#
# Youngs Moduli (GPa) = 103.63417 103.63417 172.02773
#
# Poissons Ratio (x) = 0.22470 0.43069
# Poissons Ratio (y) = 0.22470 0.43069
# Poissons Ratio (z) = 0.25946 0.25946
#
# Static dielectric constant tensor:
#      x y z
#    x 2.056440 0.000000 0.000000 
#    y 0.000000 2.056440 0.000000 
#    z 0.000000 0.000000 1.975880 
# 
# From -- ./inp_files/3254.got.cif
#   From: 2010.05.17/outbox.cif.g08.bks.cpg/sg182_2_cif.got.tgz:3254.got - 2010.05.20 11:58:53.
