data_PCOD9584432
_publ_section_title
;
Structure prediction by ZEFSAII (Michael W. Deem and Ramdas Pophale) SiO2 
 PCOD9584432
Probable space group: P 64 2 2
;
_chemical_formula_sum "Si O2"
_cell_formula_units_Z 78
_cell_length_a 23.828923
_cell_length_b 23.828923
_cell_length_c 7.715267
_cell_angle_alpha 90.000000
_cell_angle_beta 90.000000
_cell_angle_gamma 120.000000
_cell_volume 3793.939662
_symmetry_space_group_name_H-M "P 64 2 2"
_symmetry_group_IT_number 181
_symmetry_cell_setting 'hexagonal'
loop_
_space_group_symop_operation_xyz
x,y,z
x-y,x,2/3+z
-y,x-y,1/3+z
-x,-y,z
-x+y,-x,2/3+z
y,-x+y,1/3+z
x-y,-y,-z
-x,-x+y,2/3-z
y,x,1/3-z
-y,-x,1/3-z
-x+y,y,-z
x,x-y,2/3-z
loop_
_atom_site_type_symbol
_atom_site_label
_atom_site_fract_x
_atom_site_fract_y
_atom_site_fract_z
Si Si1 0.189644 0.257856 0.583251
Si Si2 0.684009 0.140751 0.355364
Si Si3 0.180685 0.591498 0.529222
Si Si4 0.678535 0.661592 0.371990
Si Si5 0.618097 0.790421 0.534437
Si Si6 0.691633 0.383265 0.000000
Si Si7 0.106930 0.654067 0.574576
O O1 0.201617 0.201617 0.666667
O O2 0.118982 0.237963 0.500000
O O3 0.250501 0.291131 0.449203
O O4 0.200840 0.315902 0.716522
O O5 0.648985 0.176701 0.275448
O O6 0.661992 0.073426 0.262179
O O7 0.761430 0.173377 0.358632
O O8 0.663112 0.122049 0.554359
O O9 0.203620 0.601810 0.333334
O O10 0.231874 0.654118 0.637205
O O11 0.113342 0.592345 0.527426
O O12 0.616980 0.661456 0.453209
O O13 0.677199 0.677199 0.166667
O O14 0.630433 0.815217 0.333334
O O15 0.558604 0.717239 0.528139
O O16 0.660702 0.339299 0.166667
#
# Coordination Sequence:
#
# PCOD9584432 Si02
#       7
#    12  12  12  12  12   6  12
#     4  12  24  40  67 105 145 182 221 277 338 418
#     4  10  22  42  66  91 129 178 221 277 349 418
#     4  12  28  43  62  92 124 175 236 294 362 421
#     4  10  22  42  68  99 133 176 224 278 345 417
#     4  10  22  39  68  98 133 178 223 283 351 411
#     4  12  26  48  64  90 122 165 224 292 349 420
#     4  10  22  41  65  94 129 174 223 284 348 419
#
# _framework density 20.559103
#
# number of rings (size 3 to 8) (size 9 to 14) (size 15 to 20)
#    0.000    1.231    3.846    1.385    7.538    0.615 
#    0.000    3.077    0.000    0.000    0.000    0.000 
#    0.000   13.538    0.000    0.000    0.000    0.000 
#
# Total GULP energy -435162.316094 kJ/mol
# GULP energy per Si atom -5579.004052 kJ/mol
# Density = 2.051231 g / cm^3
# Si number density = 20.559103 Si / 1000 Ang^3
#
#
#
# Elastic Constant Matrix: (Units=GPa)
#
#
# Indices 1 2 3 4 5 6 
#
# 1 114.1192 55.8109 37.8702 0.0000 0.0000 0.0000
# 2 55.8109 114.1192 37.8702 0.0000 0.0000 0.0000
# 3 37.8702 37.8702 66.2627 0.0000 0.0000 0.0000
# 4 0.0000 0.0000 0.0000 24.7633 0.0000 0.0000
# 5 0.0000 0.0000 0.0000 0.0000 24.7633 0.0000
# 6 0.0000 0.0000 0.0000 0.0000 0.0000 29.1542
#
#
#
# Elastic Compliance Matrix: (Units=1/GPa)
#
#
# Indices 1 2 3 4 5 6 
#
# 1 0.012523 -0.004627 -0.004513 0.000000 0.000000 0.000000
# 2 -0.004627 0.012523 -0.004513 0.000000 0.000000 0.000000
# 3 -0.004513 -0.004513 0.020250 0.000000 0.000000 0.000000
# 4 0.000000 0.000000 0.000000 0.040382 0.000000 0.000000
# 5 0.000000 0.000000 0.000000 0.000000 0.040382 0.000000
# 6 0.000000 0.000000 0.000000 0.000000 0.000000 0.034300
#
#
# Mechanical properties :
#
#
# Convention : Reuss Voigt Hill
#
# Bulk Modulus (GPa) = 55.58365 61.95597 58.76981
# Shear Modulus (GPa) = 25.81797 26.59946 26.20871
#
# Velocity S-wave (km/s) = 3.54756 3.60085 3.57431
# Velocity P-wave (km/s) = 6.62382 6.89124 6.75885
#
# Compressibility (1/GPa) = 0.01799090
#
# Stress axis : x y z
#
# Youngs Moduli (GPa) = 79.85174 79.85174 49.38334
#
# Poissons Ratio (x) = 0.36947 0.22286
# Poissons Ratio (y) = 0.36947 0.22286
# Poissons Ratio (z) = 0.36036 0.36036
#
# Static dielectric constant tensor:
#      x y z
#    x 1.773940 0.000000 0.000000 
#    y 0.000000 1.773940 0.000000 
#    z 0.000000 0.000000 1.791360 
# 
# From -- ./inp_files/3429.got.cif
#   From: 2010.05.17/outbox.cif.g08.bks.cpg/sg181_2_cif.got.tgz:3429.got - 2010.05.20 11:51:17.
