data_PCOD9584904
_publ_section_title
;
Structure prediction by ZEFSAII (Michael W. Deem and Ramdas Pophale) SiO2 
 PCOD9584904
Probable space group: P 63 2 2
;
_chemical_formula_sum "Si O2"
_cell_formula_units_Z 34
_cell_length_a 11.955633
_cell_length_b 11.955633
_cell_length_c 12.542794
_cell_angle_alpha 90.000000
_cell_angle_beta 90.000000
_cell_angle_gamma 120.000000
_cell_volume 1552.637501
_symmetry_space_group_name_H-M "P 63 2 2"
_symmetry_group_IT_number 182
_symmetry_cell_setting 'hexagonal'
loop_
_space_group_symop_operation_xyz
x,y,z
x-y,x,1/2+z
-y,x-y,z
-x,-y,1/2+z
-x+y,-x,z
y,-x+y,1/2+z
x-y,-y,-z
-x,-x+y,-z
y,x,-z
-y,-x,1/2-z
-x+y,y,1/2-z
x,x-y,1/2-z
loop_
_atom_site_type_symbol
_atom_site_label
_atom_site_fract_x
_atom_site_fract_y
_atom_site_fract_z
Si Si1 0.333335 0.666668 0.121334
Si Si2 0.000000 0.284535 0.500000
Si Si3 0.406878 0.072640 0.274511
Si Si4 0.620673 0.891803 0.417625
O O1 0.333334 0.666667 0.250000
O O2 0.230417 0.523138 0.083449
O O3 0.039283 0.375824 0.602292
O O4 0.126739 0.282449 0.459675
O O5 0.546700 0.093399 0.250000
O O6 0.399733 0.199867 0.250000
O O7 0.651434 0.957163 0.301376
O O8 0.633436 0.000000 0.500000
#
# Coordination Sequence:
#
# PCOD9584904 Si02
#       4
#     4   6  12  12
#     4  12  27  48  81 106 152 196 252 321 382 452
#     4  12  26  50  78 104 162 200 254 318 380 460
#     4  12  27  47  76 117 157 201 262 319 388 461
#     4  12  27  48  78 115 151 201 254 315 385 460
#
# _framework density 21.898222000000001
#
# number of rings (size 3 to 8) (size 9 to 14) (size 15 to 20)
#    0.000    0.000    3.529    6.706    9.882    0.000 
#    1.059    0.000    0.000    0.000    0.000    0.000 
#    0.000    0.000    0.000    0.000    0.000    0.000 
#
# Total GULP energy -190557.312299 kJ/mol
# GULP energy per Si atom -5604.626832 kJ/mol
# Density = 2.184838 g / cm^3
# Si number density = 21.898222 Si / 1000 Ang^3
#
#
#
# Elastic Constant Matrix: (Units=GPa)
#
#
# Indices 1 2 3 4 5 6 
#
# 1 120.1303 97.4281 55.2091 0.0002 0.0000 0.0001
# 2 97.4281 120.1309 55.2093 -0.0001 0.0001 0.0001
# 3 55.2091 55.2093 175.3589 0.0000 0.0000 -0.0001
# 4 0.0002 -0.0001 0.0000 17.1462 -0.0001 -0.0001
# 5 0.0000 0.0001 0.0000 -0.0001 17.1468 -0.0001
# 6 0.0001 0.0001 -0.0001 -0.0001 -0.0001 11.3514
#
#
#
# Elastic Compliance Matrix: (Units=1/GPa)
#
#
# Indices 1 2 3 4 5 6 
#
# 1 0.024759 -0.019289 -0.001722 0.000000 0.000000 0.000000
# 2 -0.019289 0.024759 -0.001722 0.000000 0.000000 0.000000
# 3 -0.001722 -0.001722 0.006787 0.000000 0.000000 0.000000
# 4 0.000000 0.000000 0.000000 0.058322 0.000000 0.000000
# 5 0.000000 0.000000 0.000000 0.000000 0.058320 0.000001
# 6 0.000000 0.000000 0.000000 0.000000 0.000001 0.088094
#
#
# Mechanical properties :
#
#
# Convention : Reuss Voigt Hill
#
# Bulk Modulus (GPa) = 92.25987 92.36812 92.31400
# Shear Modulus (GPa) = 16.12268 22.98044 19.55156
#
# Velocity S-wave (km/s) = 2.71635 3.24299 2.99128
# Velocity P-wave (km/s) = 7.21531 7.50299 7.36056
#
# Compressibility (1/GPa) = 0.01083895
#
# Stress axis : x y z
#
# Youngs Moduli (GPa) = 40.38878 40.38896 147.33831
#
# Poissons Ratio (x) = 0.77905 0.25377
# Poissons Ratio (y) = 0.77905 0.25377
# Poissons Ratio (z) = 0.06956 0.06956
#
# Static dielectric constant tensor:
#      x y z
#    x 1.788450 0.000000 0.000000 
#    y 0.000000 1.788450 0.000000 
#    z 0.000000 0.000000 1.813630 
# 
# From -- ./inp_files/3054.got.cif
#   From: 2010.05.17/outbox.cif.g08.bks.cpg/sg182_2_cif.got.tgz:3054.got - 2010.05.20 11:58:53.
