data_PCOD9584832
_publ_section_title
;
Structure prediction by ZEFSAII (Michael W. Deem and Ramdas Pophale) SiO2 
 PCOD9584832
Probable space group: P 63 2 2
;
_chemical_formula_sum "Si O2"
_cell_formula_units_Z 28
_cell_length_a 7.226346
_cell_length_b 7.226346
_cell_length_c 29.706240
_cell_angle_alpha 90.000000
_cell_angle_beta 90.000000
_cell_angle_gamma 120.000000
_cell_volume 1343.432409
_symmetry_space_group_name_H-M "P 63 2 2"
_symmetry_group_IT_number 182
_symmetry_cell_setting 'hexagonal'
loop_
_space_group_symop_operation_xyz
x,y,z
x-y,x,1/2+z
-y,x-y,z
-x,-y,1/2+z
-x+y,-x,z
y,-x+y,1/2+z
x-y,-y,-z
-x,-x+y,-z
y,x,-z
-y,-x,1/2-z
-x+y,y,1/2-z
x,x-y,1/2-z
loop_
_atom_site_type_symbol
_atom_site_label
_atom_site_fract_x
_atom_site_fract_y
_atom_site_fract_z
Si Si1 0.666668 0.333334 0.803350
Si Si2 0.571756 0.911750 0.549250
Si Si3 0.934082 0.200495 0.859697
O O1 0.666668 0.333334 0.750000
O O2 0.864181 0.317954 0.824319
O O3 0.327889 0.862988 0.552733
O O4 0.658216 0.000000 0.500000
O O5 0.711918 0.057064 0.590137
O O6 0.166189 0.220850 0.854048
#
# Coordination Sequence:
#
# PCOD9584832 Si02
#       3
#     4  12  12
#     4  12  27  48  75 102 135 177 231 303 361 419
#     4  10  24  36  63 102 143 194 238 285 345 418
#     4  10  25  45  72  98 140 182 233 286 358 422
#
# _framework density 20.842131999999999
#
# number of rings (size 3 to 8) (size 9 to 14) (size 15 to 20)
#    1.714    0.000    0.000    2.571   12.000    1.714 
#    2.571    0.000    0.000    0.000    0.000    0.000 
#    0.000    0.000    0.000    0.000    0.000    0.000 
#
# Total GULP energy -156103.151967 kJ/mol
# GULP energy per Si atom -5575.112570 kJ/mol
# Density = 2.079469 g / cm^3
# Si number density = 20.842132 Si / 1000 Ang^3
#
#
#
# Elastic Constant Matrix: (Units=GPa)
#
#
# Indices 1 2 3 4 5 6 
#
# 1 82.8161 45.1378 63.4695 0.0002 0.0001 -0.0001
# 2 45.1378 82.8154 63.4690 0.0000 0.0002 -0.0001
# 3 63.4695 63.4690 195.0297 0.0004 -0.0001 -0.0002
# 4 0.0002 0.0000 0.0004 17.2182 0.0000 -0.0001
# 5 0.0001 0.0002 -0.0001 0.0000 17.2187 -0.0001
# 6 -0.0001 -0.0001 -0.0002 -0.0001 -0.0001 18.8392
#
#
#
# Elastic Compliance Matrix: (Units=1/GPa)
#
#
# Indices 1 2 3 4 5 6 
#
# 1 0.019041 -0.007500 -0.003756 0.000000 0.000000 0.000000
# 2 -0.007500 0.019041 -0.003756 0.000000 0.000000 0.000000
# 3 -0.003756 -0.003756 0.007572 0.000000 0.000000 0.000000
# 4 0.000000 0.000000 0.000000 0.058078 0.000000 0.000000
# 5 0.000000 0.000000 0.000000 0.000000 0.058077 0.000000
# 6 0.000000 0.000000 0.000000 0.000000 0.000000 0.053081
#
#
# Mechanical properties :
#
#
# Convention : Reuss Voigt Hill
#
# Bulk Modulus (GPa) = 63.97484 78.31265 71.14375
# Shear Modulus (GPa) = 19.99012 23.22753 21.60882
#
# Velocity S-wave (km/s) = 3.10033 3.34196 3.22341
# Velocity P-wave (km/s) = 6.60134 7.24896 6.93271
#
# Compressibility (1/GPa) = 0.01563114
#
# Stress axis : x y z
#
# Youngs Moduli (GPa) = 52.51805 52.51772 132.06394
#
# Poissons Ratio (x) = 0.39386 0.49604
# Poissons Ratio (y) = 0.39386 0.49603
# Poissons Ratio (z) = 0.19726 0.19726
#
# Static dielectric constant tensor:
#      x y z
#    x 1.787120 0.000000 0.000000 
#    y 0.000000 1.787120 0.000000 
#    z 0.000000 0.000000 1.664440 
# 
# From -- ./inp_files/5083.got.cif
#   From: 2010.05.17/outbox.cif.g08.bks.cpg/sg182_3_cif.got.tgz:5083.got - 2010.05.20 11:58:53.
