data_PCOD9584183
_publ_section_title
;
Structure prediction by ZEFSAII (Michael W. Deem and Ramdas Pophale) SiO2 
 PCOD9584183
Probable space group: P 62 2 2
;
_chemical_formula_sum "Si O2"
_cell_formula_units_Z 36
_cell_length_a 11.706107
_cell_length_b 11.706107
_cell_length_c 13.598450
_cell_angle_alpha 90.000000
_cell_angle_beta 90.000000
_cell_angle_gamma 120.000000
_cell_volume 1613.782566
_symmetry_space_group_name_H-M "P 62 2 2"
_symmetry_group_IT_number 180
_symmetry_cell_setting 'hexagonal'
loop_
_space_group_symop_operation_xyz
x,y,z
x-y,x,1/3+z
-y,x-y,2/3+z
-x,-y,z
-x+y,-x,1/3+z
y,-x+y,2/3+z
x-y,-y,-z
-x,-x+y,1/3-z
y,x,2/3-z
-y,-x,2/3-z
-x+y,y,-z
x,x-y,1/3-z
loop_
_atom_site_type_symbol
_atom_site_label
_atom_site_fract_x
_atom_site_fract_y
_atom_site_fract_z
Si Si1 0.677248 0.808689 0.777900
Si Si2 0.397286 0.794571 0.500000
Si Si3 0.267759 0.315113 0.432651
Si Si4 0.602148 0.397853 0.333334
O O1 0.785092 0.785092 0.833334
O O2 0.712567 0.856284 0.666667
O O3 0.540691 0.670078 0.783561
O O4 0.655654 0.917527 0.834607
O O5 0.298691 0.707119 0.586393
O O6 0.228670 0.228670 0.333334
O O7 0.150042 0.300083 0.500000
O O8 0.346914 0.464615 0.391568
#
# Coordination Sequence:
#
# PCOD9584183 Si02
#       4
#    12   6  12   6
#     4  12  28  49  74 111 157 205 259 320 388 463
#     4  12  25  46  76 110 153 198 248 330 398 456
#     4  12  26  47  78 111 155 207 261 317 389 469
#     4  12  25  46  78 118 152 199 258 320 394 475
#
# _framework density 22.307839000000001
#
# number of rings (size 3 to 8) (size 9 to 14) (size 15 to 20)
#    0.000    0.000    6.667    3.000    0.000    0.667 
#    6.000    3.333    0.000    0.000    0.000    0.000 
#    0.000    0.000    0.000    0.000    0.000    0.000 
#
# Total GULP energy -201278.357720 kJ/mol
# GULP energy per Si atom -5591.065492 kJ/mol
# Density = 2.225707 g / cm^3
# Si number density = 22.307839 Si / 1000 Ang^3
#
#
#
# Elastic Constant Matrix: (Units=GPa)
#
#
# Indices 1 2 3 4 5 6 
#
# 1 107.9414 41.8440 57.4953 0.0000 0.0000 0.0000
# 2 41.8440 107.9414 57.4953 0.0000 0.0000 0.0000
# 3 57.4953 57.4953 193.4885 0.0000 0.0000 0.0000
# 4 0.0000 0.0000 0.0000 47.9974 0.0000 0.0000
# 5 0.0000 0.0000 0.0000 0.0000 47.9974 0.0000
# 6 0.0000 0.0000 0.0000 0.0000 0.0000 33.0487
#
#
#
# Elastic Compliance Matrix: (Units=1/GPa)
#
#
# Indices 1 2 3 4 5 6 
#
# 1 0.011889 -0.003240 -0.002570 0.000000 0.000000 0.000000
# 2 -0.003240 0.011889 -0.002570 0.000000 0.000000 0.000000
# 3 -0.002570 -0.002570 0.006696 0.000000 0.000000 0.000000
# 4 0.000000 0.000000 0.000000 0.020834 0.000000 0.000000
# 5 0.000000 0.000000 0.000000 0.000000 0.020834 0.000000
# 6 0.000000 0.000000 0.000000 0.000000 0.000000 0.030258
#
#
# Mechanical properties :
#
#
# Convention : Reuss Voigt Hill
#
# Bulk Modulus (GPa) = 72.91951 80.33784 76.62867
# Shear Modulus (GPa) = 40.40952 42.64450 41.52701
#
# Velocity S-wave (km/s) = 4.26073 4.37697 4.31924
# Velocity P-wave (km/s) = 7.54744 7.85081 7.70062
#
# Compressibility (1/GPa) = 0.01371375
#
# Stress axis : x y z
#
# Youngs Moduli (GPa) = 84.10955 84.10955 149.34929
#
# Poissons Ratio (x) = 0.27251 0.38385
# Poissons Ratio (y) = 0.27251 0.38385
# Poissons Ratio (z) = 0.21617 0.21617
#
# Static dielectric constant tensor:
#      x y z
#    x 1.853660 0.000000 0.000000 
#    y 0.000000 1.853660 0.000000 
#    z 0.000000 0.000000 1.792380 
# 
# From -- ./inp_files/5527.got.cif
#   From: 2010.05.17/outbox.cif.g08.bks.cpg/sg180_3_cif.got.tgz:5527.got - 2010.05.20 11:43:55.
