data_PCOD9584972
_publ_section_title
;
Structure prediction by ZEFSAII (Michael W. Deem and Ramdas Pophale) SiO2 
 PCOD9584972
Probable space group: P 6 M M
;
_chemical_formula_sum "Si O2"
_cell_formula_units_Z 96
_cell_length_a 21.117794
_cell_length_b 21.117794
_cell_length_c 17.151297
_cell_angle_alpha 90.000000
_cell_angle_beta 90.000000
_cell_angle_gamma 120.000000
_cell_volume 6624.066708
_symmetry_space_group_name_H-M "P 6 M M"
_symmetry_group_IT_number 183
_symmetry_cell_setting 'hexagonal'
loop_
_space_group_symop_operation_xyz
x,y,z
x-y,x,z
-y,x-y,z
-x,-y,z
-x+y,-x,z
y,-x+y,z
-x+y,y,z
x,x-y,z
-y,-x,z
y,x,z
x-y,-y,z
-x,-x+y,z
loop_
_atom_site_type_symbol
_atom_site_label
_atom_site_fract_x
_atom_site_fract_y
_atom_site_fract_z
Si Si1 0.579904 0.717073 0.043440
Si Si2 0.381432 0.915981 0.600795
Si Si3 0.332812 0.819154 0.448704
Si Si4 0.690428 0.771754 0.186802
Si Si5 0.484835 0.818027 0.748349
Si Si6 0.572402 0.657411 0.300729
Si Si7 0.615194 0.532293 0.898398
Si Si8 0.473110 0.807163 0.179324
O O1 0.589407 0.794704 0.017834
O O2 0.641418 0.734675 0.109107
O O3 0.504936 0.675515 0.092941
O O4 0.573118 0.667534 0.970913
O O5 0.460147 0.920294 0.602700
O O6 0.340937 0.866021 0.526186
O O7 0.340913 0.872870 0.678858
O O8 0.400070 0.000000 0.596180
O O9 0.406468 0.812936 0.441776
O O10 0.260805 0.739196 0.451220
O O11 0.329090 0.865717 0.376288
O O12 0.708796 0.854398 0.188168
O O13 0.757728 0.757728 0.185736
O O14 0.640253 0.728743 0.261368
O O15 0.402337 0.804674 0.740703
O O16 0.484415 0.742208 0.744065
O O17 0.515828 0.859135 0.830241
O O18 0.599566 0.599566 0.315214
O O19 0.511681 0.633864 0.233602
O O20 0.545846 0.454155 0.923002
O O21 0.579980 0.579980 0.867872
O O22 0.387518 0.775036 0.181490
O O23 0.493827 0.746914 0.207229
#
# Coordination Sequence:
#
# PCOD9584972 Si02
#       8
#    12  12  12  12  12  12  12  12
#     4   9  17  29  43  60  82 108 140 176 211 248
#     4   9  18  32  48  64  82 105 133 166 204 245
#     4  11  21  32  46  64  87 112 140 174 212 253
#     4   9  17  30  47  65  86 111 139 171 208 251
#     4  10  19  31  46  63  83 107 136 170 209 251
#     4  10  20  32  45  61  82 110 144 180 213 246
#     4  10  19  29  42  60  82 108 139 175 213 251
#     4  10  19  30  43  59  82 110 140 175 217 263
#
# _framework density 14.492607
#
# number of rings (size 3 to 8) (size 9 to 14) (size 15 to 20)
#    0.000    2.250    0.000    4.875    0.000    3.500 
#    0.000    2.500    0.000    4.125    0.000    0.000 
#    0.000    0.000    0.000    0.000    0.000    0.000 
#
# Total GULP energy -534961.467261 kJ/mol
# GULP energy per Si atom -5572.515284 kJ/mol
# Density = 1.445962 g / cm^3
# Si number density = 14.492607 Si / 1000 Ang^3
#
#
#
# Elastic Constant Matrix: (Units=GPa)
#
#
# Indices 1 2 3 4 5 6 
#
# 1 87.0452 49.8285 40.3233 0.0000 0.0000 0.0000
# 2 49.8285 87.0452 40.3233 0.0000 0.0000 0.0000
# 3 40.3233 40.3233 71.1616 0.0000 0.0000 0.0000
# 4 0.0000 0.0000 0.0000 18.2186 0.0000 0.0000
# 5 0.0000 0.0000 0.0000 0.0000 18.2186 0.0000
# 6 0.0000 0.0000 0.0000 0.0000 0.0000 18.6083
#
#
#
# Elastic Compliance Matrix: (Units=1/GPa)
#
#
# Indices 1 2 3 4 5 6 
#
# 1 0.018919 -0.007951 -0.006215 0.000000 0.000000 0.000000
# 2 -0.007951 0.018919 -0.006215 0.000000 0.000000 0.000000
# 3 -0.006215 -0.006215 0.021096 0.000000 0.000000 0.000000
# 4 0.000000 0.000000 0.000000 0.054889 0.000000 0.000000
# 5 0.000000 0.000000 0.000000 0.000000 0.054889 0.000000
# 6 0.000000 0.000000 0.000000 0.000000 0.000000 0.053739
#
#
# Mechanical properties :
#
#
# Convention : Reuss Voigt Hill
#
# Bulk Modulus (GPa) = 55.02977 56.24468 55.63722
# Shear Modulus (GPa) = 18.56878 18.66090 18.61484
#
# Velocity S-wave (km/s) = 3.58335 3.59223 3.58779
# Velocity P-wave (km/s) = 7.42791 7.48992 7.45898
#
# Compressibility (1/GPa) = 0.01817198
#
# Stress axis : x y z
#
# Youngs Moduli (GPa) = 52.85759 52.85759 47.40289
#
# Poissons Ratio (x) = 0.42027 0.29460
# Poissons Ratio (y) = 0.42027 0.29460
# Poissons Ratio (z) = 0.32850 0.32850
#
# Static dielectric constant tensor:
#      x y z
#    x 1.473450 0.000000 0.000000 
#    y 0.000000 1.473450 0.000000 
#    z 0.000000 0.000000 1.484060 
# 
# From -- ./inp_files/2802.got.cif
#   From: 2010.05.17/outbox.cif.g08.bks.cpg/sg183_2_cif.got.tgz:2802.got - 2010.05.20 12:02:58.
