data_PCOD9584303
_publ_section_title
;
Structure prediction by ZEFSAII (Michael W. Deem and Ramdas Pophale) SiO2 
 PCOD9584303
Probable space group: P 64 2 2
;
_chemical_formula_sum "Si O2"
_cell_formula_units_Z 42
_cell_length_a 10.185157
_cell_length_b 10.185157
_cell_length_c 22.513860
_cell_angle_alpha 90.000000
_cell_angle_beta 90.000000
_cell_angle_gamma 120.000000
_cell_volume 2022.628156
_symmetry_space_group_name_H-M "P 64 2 2"
_symmetry_group_IT_number 181
_symmetry_cell_setting 'hexagonal'
loop_
_space_group_symop_operation_xyz
x,y,z
x-y,x,2/3+z
-y,x-y,1/3+z
-x,-y,z
-x+y,-x,2/3+z
y,-x+y,1/3+z
x-y,-y,-z
-x,-x+y,2/3-z
y,x,1/3-z
-y,-x,1/3-z
-x+y,y,-z
x,x-y,2/3-z
loop_
_atom_site_type_symbol
_atom_site_label
_atom_site_fract_x
_atom_site_fract_y
_atom_site_fract_z
Si Si1 0.166455 0.213290 0.302849
Si Si2 0.500000 0.500000 0.877899
Si Si3 0.740066 0.739829 0.538567
Si Si4 0.493563 0.250852 0.961468
O O1 0.262778 0.382635 0.324737
O O2 0.000000 0.133980 0.333334
O O3 0.122239 0.224009 0.235152
O O4 0.234793 0.117397 0.333334
O O5 0.648795 0.597868 0.837723
O O6 0.535446 0.388158 0.916418
O O7 0.883902 0.767803 0.500000
O O8 0.712677 0.613891 0.589564
O O9 0.622360 0.244720 0.000000
#
# Coordination Sequence:
#
# PCOD9584303 Si02
#       4
#    12   6  12  12
#     4   9  18  34  56  82 111 145 190 241 296 356
#     4  10  20  34  53  82 115 146 196 248 294 352
#     4   9  18  34  56  83 111 146 189 244 298 350
#     4  10  20  34  56  81 112 155 196 237 294 366
#
# _framework density 20.765062
#
# number of rings (size 3 to 8) (size 9 to 14) (size 15 to 20)
#    0.000    2.571    0.000    1.714    0.000    5.143 
#    0.000   28.571    0.000    3.429    0.000    7.000 
#    0.000    0.000    0.000    0.000    0.000    0.000 
#
# Total GULP energy -233863.027381 kJ/mol
# GULP energy per Si atom -5568.167319 kJ/mol
# Density = 2.071780 g / cm^3
# Si number density = 20.765062 Si / 1000 Ang^3
#
#
#
# Elastic Constant Matrix: (Units=GPa)
#
#
# Indices 1 2 3 4 5 6 
#
# 1 80.0340 50.8081 54.1264 0.0000 0.0000 0.0000
# 2 50.8081 80.0340 54.1264 0.0000 0.0000 0.0000
# 3 54.1264 54.1264 125.7585 0.0000 0.0000 0.0000
# 4 0.0000 0.0000 0.0000 30.6157 0.0000 0.0000
# 5 0.0000 0.0000 0.0000 0.0000 30.6157 0.0000
# 6 0.0000 0.0000 0.0000 0.0000 0.0000 14.6130
#
#
#
# Elastic Compliance Matrix: (Units=1/GPa)
#
#
# Indices 1 2 3 4 5 6 
#
# 1 0.023043 -0.011173 -0.005109 0.000000 0.000000 0.000000
# 2 -0.011173 0.023043 -0.005109 0.000000 0.000000 0.000000
# 3 -0.005109 -0.005109 0.012349 0.000000 0.000000 0.000000
# 4 0.000000 0.000000 0.000000 0.032663 0.000000 0.000000
# 5 0.000000 0.000000 0.000000 0.000000 0.032663 0.000000
# 6 0.000000 0.000000 0.000000 0.000000 0.000000 0.068432
#
#
# Mechanical properties :
#
#
# Convention : Reuss Voigt Hill
#
# Bulk Modulus (GPa) = 63.88272 67.10536 65.49404
# Shear Modulus (GPa) = 20.81667 23.61993 22.21830
#
# Velocity S-wave (km/s) = 3.16964 3.37632 3.27461
# Velocity P-wave (km/s) = 6.65032 6.89826 6.77543
#
# Compressibility (1/GPa) = 0.01565368
#
# Stress axis : x y z
#
# Youngs Moduli (GPa) = 43.39751 43.39751 80.97679
#
# Poissons Ratio (x) = 0.48490 0.41368
# Poissons Ratio (y) = 0.48490 0.41368
# Poissons Ratio (z) = 0.22170 0.22170
#
# Static dielectric constant tensor:
#      x y z
#    x 1.787080 0.000000 0.000000 
#    y 0.000000 1.787080 0.000000 
#    z 0.000000 0.000000 1.896590 
# 
# From -- ./inp_files/7291.got.cif
#   From: 2010.05.17/outbox.cif.g08.bks.cpg/sg181_4_cif.got.tgz:7291.got - 2010.05.20 11:51:17.
