data_PCOD9584969
_publ_section_title
;
Structure prediction by ZEFSAII (Michael W. Deem and Ramdas Pophale) SiO2 
 PCOD9584969
Probable space group: P 6 M M
;
_chemical_formula_sum "Si O2"
_cell_formula_units_Z 96
_cell_length_a 18.675944
_cell_length_b 18.675944
_cell_length_c 20.714793
_cell_angle_alpha 90.000000
_cell_angle_beta 90.000000
_cell_angle_gamma 120.000000
_cell_volume 6257.146964
_symmetry_space_group_name_H-M "P 6 M M"
_symmetry_group_IT_number 183
_symmetry_cell_setting 'hexagonal'
loop_
_space_group_symop_operation_xyz
x,y,z
x-y,x,z
-y,x-y,z
-x,-y,z
-x+y,-x,z
y,-x+y,z
-x+y,y,z
x,x-y,z
-y,-x,z
y,x,z
x-y,-y,z
-x,-x+y,z
loop_
_atom_site_type_symbol
_atom_site_label
_atom_site_fract_x
_atom_site_fract_y
_atom_site_fract_z
Si Si1 0.745342 0.650263 0.311660
Si Si2 0.500358 0.668377 0.064085
Si Si3 0.632236 0.100329 0.785147
Si Si4 0.905181 0.365781 0.927081
Si Si5 0.741744 0.093685 0.161812
Si Si6 0.098893 0.467844 0.419065
Si Si7 0.667563 0.167095 0.561239
Si Si8 0.097492 0.736817 0.667410
O O1 0.841871 0.683741 0.319671
O O2 0.717627 0.717627 0.323341
O O3 0.723674 0.622228 0.237149
O O4 0.695589 0.576708 0.361998
O O5 0.473849 0.736925 0.075226
O O6 0.423011 0.576990 0.070707
O O7 0.572111 0.686655 0.114800
O O8 0.534738 0.678620 0.991152
O O9 0.564381 0.128762 0.772037
O O10 0.671002 0.128673 0.856423
O O11 0.697651 0.119057 0.729162
O O12 0.578530 0.000000 0.789072
O O13 0.907347 0.453674 0.925393
O O14 0.000000 0.387970 0.933478
O O15 0.836549 0.163452 0.149918
O O16 0.719748 0.000000 0.151567
O O17 0.118603 0.559302 0.400056
O O18 0.143571 0.475099 0.486572
O O19 0.000000 0.414458 0.430357
O O20 0.576510 0.153020 0.575405
O O21 0.737805 0.262196 0.571647
O O22 0.692512 0.113144 0.606314
O O23 0.165521 0.834480 0.664206
O O24 0.000000 0.708405 0.670554
#
# Coordination Sequence:
#
# PCOD9584969 Si02
#       8
#    12  12  12  12  12  12  12  12
#     4   9  17  30  47  66  88 113 143 178 217 260
#     4  10  19  29  41  59  86 119 153 186 218 250
#     4   8  14  26  44  65  88 113 141 173 211 254
#     4   8  14  25  41  60  82 110 145 182 215 249
#     4   9  18  31  47  66  86 110 140 177 220 264
#     4   9  17  28  43  64  89 118 152 186 214 242
#     4  10  19  30  45  66  93 122 150 179 212 251
#     4  10  20  32  47  66  87 113 145 182 221 261
#
# _framework density 15.342454999999999
#
# number of rings (size 3 to 8) (size 9 to 14) (size 15 to 20)
#    0.000    2.875    0.000    2.500    0.000    3.000 
#    0.000    1.250    0.000    0.875    0.000    1.750 
#    0.000    0.000    0.000    4.000    0.000   19.000 
#
# Total GULP energy -534446.204020 kJ/mol
# GULP energy per Si atom -5567.147959 kJ/mol
# Density = 1.530753 g / cm^3
# Si number density = 15.342455 Si / 1000 Ang^3
#
#
#
# Elastic Constant Matrix: (Units=GPa)
#
#
# Indices 1 2 3 4 5 6 
#
# 1 68.3664 44.4125 42.8705 0.0000 0.0000 0.0000
# 2 44.4125 68.3664 42.8705 0.0000 0.0000 0.0000
# 3 42.8705 42.8705 77.2282 0.0000 0.0000 0.0000
# 4 0.0000 0.0000 0.0000 18.0475 0.0000 0.0000
# 5 0.0000 0.0000 0.0000 0.0000 18.0475 0.0000
# 6 0.0000 0.0000 0.0000 0.0000 0.0000 11.9770
#
#
#
# Elastic Compliance Matrix: (Units=1/GPa)
#
#
# Indices 1 2 3 4 5 6 
#
# 1 0.028544 -0.013203 -0.008516 0.000000 0.000000 0.000000
# 2 -0.013203 0.028544 -0.008516 0.000000 0.000000 0.000000
# 3 -0.008516 -0.008516 0.022404 0.000000 0.000000 0.000000
# 4 0.000000 0.000000 0.000000 0.055409 0.000000 0.000000
# 5 0.000000 0.000000 0.000000 0.000000 0.055409 0.000000
# 6 0.000000 0.000000 0.000000 0.000000 0.000000 0.083494
#
#
# Mechanical properties :
#
#
# Convention : Reuss Voigt Hill
#
# Bulk Modulus (GPa) = 52.57209 52.69644 52.63426
# Shear Modulus (GPa) = 14.67931 15.20155 14.94043
#
# Velocity S-wave (km/s) = 3.09654 3.15114 3.12396
# Velocity P-wave (km/s) = 6.86476 6.90369 6.88425
#
# Compressibility (1/GPa) = 0.01902150
#
# Stress axis : x y z
#
# Youngs Moduli (GPa) = 35.03345 35.03345 44.63555
#
# Poissons Ratio (x) = 0.46254 0.38013
# Poissons Ratio (y) = 0.46254 0.38013
# Poissons Ratio (z) = 0.29835 0.29835
#
# Static dielectric constant tensor:
#      x y z
#    x 1.502760 0.000000 0.000000 
#    y 0.000000 1.502760 0.000000 
#    z 0.000000 0.000000 1.528500 
# 
# From -- ./inp_files/3006.got.cif
#   From: 2010.05.17/outbox.cif.g08.bks.cpg/sg183_2_cif.got.tgz:3006.got - 2010.05.20 12:02:58.
