data_PCOD9584273
_publ_section_title
;
Structure prediction by ZEFSAII (Michael W. Deem and Ramdas Pophale) SiO2 
 PCOD9584273
Probable space group: P 64 2 2
;
_chemical_formula_sum "Si O2"
_cell_formula_units_Z 60
_cell_length_a 19.121039
_cell_length_b 19.121039
_cell_length_c 9.800178
_cell_angle_alpha 90.000000
_cell_angle_beta 90.000000
_cell_angle_gamma 120.000000
_cell_volume 3103.041402
_symmetry_space_group_name_H-M "P 64 2 2"
_symmetry_group_IT_number 181
_symmetry_cell_setting 'hexagonal'
loop_
_space_group_symop_operation_xyz
x,y,z
x-y,x,2/3+z
-y,x-y,1/3+z
-x,-y,z
-x+y,-x,2/3+z
y,-x+y,1/3+z
x-y,-y,-z
-x,-x+y,2/3-z
y,x,1/3-z
-y,-x,1/3-z
-x+y,y,-z
x,x-y,2/3-z
loop_
_atom_site_type_symbol
_atom_site_label
_atom_site_fract_x
_atom_site_fract_y
_atom_site_fract_z
Si Si1 0.504133 0.289885 0.971628
Si Si2 0.215817 0.551920 0.106842
Si Si3 0.200909 0.913799 0.004037
Si Si4 0.735650 0.107116 0.722866
Si Si5 0.926043 0.667261 0.640841
O O1 0.477842 0.238921 0.833334
O O2 0.573270 0.376432 0.915506
O O3 0.423611 0.288453 0.026496
O O4 0.537647 0.250222 0.082824
O O5 0.141375 0.466829 0.058433
O O6 0.286737 0.573474 0.000000
O O7 0.249724 0.906113 0.879279
O O8 0.247587 0.917247 0.142784
O O9 0.113195 0.835577 0.988418
O O10 0.205840 0.000000 0.000000
O O11 0.820733 0.179268 0.666667
O O12 0.702160 0.019292 0.656349
#
# Coordination Sequence:
#
# PCOD9584273 Si02
#       5
#    12  12  12  12  12
#     4  12  21  37  59  83 112 157 203 245 298 348
#     4  11  23  38  54  81 117 156 199 246 293 350
#     4   9  17  35  57  82 113 148 189 235 293 360
#     4  10  21  36  55  83 117 150 192 244 298 363
#     4  10  19  35  60  83 110 152 196 243 299 352
#
# _framework density 19.335868999999999
#
# number of rings (size 3 to 8) (size 9 to 14) (size 15 to 20)
#    0.000    1.600    4.000    2.400    0.000    1.600 
#    0.000    0.000    0.000    9.000    0.000    5.600 
#    0.000    0.000    0.000    0.000    0.000    0.000 
#
# Total GULP energy -334184.995909 kJ/mol
# GULP energy per Si atom -5569.749932 kJ/mol
# Density = 1.929186 g / cm^3
# Si number density = 19.335869 Si / 1000 Ang^3
#
#
#
# Elastic Constant Matrix: (Units=GPa)
#
#
# Indices 1 2 3 4 5 6 
#
# 1 140.1677 103.5206 5.0009 0.0000 0.0000 0.0000
# 2 103.5206 140.1677 5.0009 0.0000 0.0000 0.0000
# 3 5.0009 5.0009 48.1080 0.0000 0.0000 0.0000
# 4 0.0000 0.0000 0.0000 14.5898 0.0000 0.0000
# 5 0.0000 0.0000 0.0000 0.0000 14.5898 0.0000
# 6 0.0000 0.0000 0.0000 0.0000 0.0000 18.3236
#
#
#
# Elastic Compliance Matrix: (Units=1/GPa)
#
#
# Indices 1 2 3 4 5 6 
#
# 1 0.015704 -0.011583 -0.000428 0.000000 0.000000 0.000000
# 2 -0.011583 0.015704 -0.000428 0.000000 0.000000 0.000000
# 3 -0.000428 -0.000428 0.020876 0.000000 0.000000 0.000000
# 4 0.000000 0.000000 0.000000 0.068541 0.000000 0.000000
# 5 0.000000 0.000000 0.000000 0.000000 0.068541 0.000000
# 6 0.000000 0.000000 0.000000 0.000000 0.000000 0.054575
#
#
# Mechanical properties :
#
#
# Convention : Reuss Voigt Hill
#
# Bulk Modulus (GPa) = 36.49050 61.72091 49.10570
# Shear Modulus (GPa) = 17.98849 23.82870 20.90859
#
# Velocity S-wave (km/s) = 3.05342 3.51430 3.29194
# Velocity P-wave (km/s) = 5.59858 6.96109 6.31668
#
# Compressibility (1/GPa) = 0.02740439
#
# Stress axis : x y z
#
# Youngs Moduli (GPa) = 63.67710 63.67710 47.90276
#
# Poissons Ratio (x) = 0.73757 0.02052
# Poissons Ratio (y) = 0.73757 0.02052
# Poissons Ratio (z) = 0.02728 0.02728
#
# Static dielectric constant tensor:
#      x y z
#    x 1.740270 0.000000 0.000000 
#    y 0.000000 1.740270 0.000000 
#    z 0.000000 0.000000 1.749250 
# 
# From -- ./inp_files/4808.got.cif
#   From: 2010.05.17/outbox.cif.g08.bks.cpg/sg181_3_cif.got.tgz:4808.got - 2010.05.20 11:51:17.
