data_PCOD9584868
_publ_section_title
;
Structure prediction by ZEFSAII (Michael W. Deem and Ramdas Pophale) SiO2 
 PCOD9584868
Probable space group: P 63 2 2
;
_chemical_formula_sum "Si O2"
_cell_formula_units_Z 84
_cell_length_a 20.567783
_cell_length_b 20.567783
_cell_length_c 10.729300
_cell_angle_alpha 90.000000
_cell_angle_beta 90.000000
_cell_angle_gamma 120.000000
_cell_volume 3930.764125
_symmetry_space_group_name_H-M "P 63 2 2"
_symmetry_group_IT_number 182
_symmetry_cell_setting 'hexagonal'
loop_
_space_group_symop_operation_xyz
x,y,z
x-y,x,1/2+z
-y,x-y,z
-x,-y,1/2+z
-x+y,-x,z
y,-x+y,1/2+z
x-y,-y,-z
-x,-x+y,-z
y,x,-z
-y,-x,1/2-z
-x+y,y,1/2-z
x,x-y,1/2-z
loop_
_atom_site_type_symbol
_atom_site_label
_atom_site_fract_x
_atom_site_fract_y
_atom_site_fract_z
Si Si1 0.178346 0.666130 0.270721
Si Si2 0.563019 0.026751 0.358609
Si Si3 0.171177 0.607932 0.525477
Si Si4 0.480442 0.756897 0.897192
Si Si5 0.349402 0.104472 0.688307
Si Si6 0.322532 0.049076 0.193866
Si Si7 0.810351 0.651952 0.426428
O O1 0.258966 0.741035 0.250000
O O2 0.190485 0.595243 0.250000
O O3 0.143946 0.637877 0.408753
O O4 0.120025 0.684620 0.199887
O O5 0.498399 0.996798 0.250000
O O6 0.596813 0.116111 0.363457
O O7 0.640944 0.027064 0.338422
O O8 0.530953 0.000000 0.500000
O O9 0.182217 0.536587 0.540111
O O10 0.253243 0.677635 0.543169
O O11 0.474645 0.737323 0.750000
O O12 0.564238 0.780551 0.936746
O O13 0.354871 0.177436 0.750000
O O14 0.326387 0.106545 0.546926
O O15 0.288371 0.031068 0.760004
O O16 0.343940 0.106651 0.310160
O O17 0.309422 0.099424 0.091573
#
# Coordination Sequence:
#
# PCOD9584868 Si02
#       7
#    12  12  12  12  12  12  12
#     4  11  23  39  58  88 124 172 225 288 354 414
#     4  12  27  43  65  93 134 181 235 288 358 421
#     4  12  23  38  58  85 119 163 219 286 350 409
#     4  12  21  37  57  83 115 161 225 289 344 404
#     4  11  25  41  65  99 133 175 225 278 349 424
#     4  11  24  43  69  94 132 179 222 283 346 413
#     4  11  22  43  68  95 131 173 228 282 343 416
#
# _framework density 21.369890000000002
#
# number of rings (size 3 to 8) (size 9 to 14) (size 15 to 20)
#    0.000    0.571    2.857    7.286    2.000    4.571 
#    0.000    0.000    0.000    0.000    0.000    0.000 
#    5.714    0.000    3.429    0.000    0.571    0.000 
#
# Total GULP energy -467648.426272 kJ/mol
# GULP energy per Si atom -5567.243170 kJ/mol
# Density = 2.132125 g / cm^3
# Si number density = 21.369890 Si / 1000 Ang^3
#
#
#
# Elastic Constant Matrix: (Units=GPa)
#
#
# Indices 1 2 3 4 5 6 
#
# 1 44.7874 67.8401 18.0660 0.0000 0.0000 0.0000
# 2 67.8401 44.7874 18.0660 0.0000 0.0000 0.0000
# 3 18.0660 18.0660 95.1110 0.0000 0.0000 0.0000
# 4 0.0000 0.0000 0.0000 13.6879 0.0000 0.0000
# 5 0.0000 0.0000 0.0000 0.0000 13.6879 0.0000
# 6 0.0000 0.0000 0.0000 0.0000 0.0000 -11.5264
#
#
#
# Elastic Compliance Matrix: (Units=1/GPa)
#
#
# Indices 1 2 3 4 5 6 
#
# 1 -0.016962 0.026417 -0.001796 0.000000 0.000000 0.000000
# 2 0.026417 -0.016962 -0.001796 0.000000 0.000000 0.000000
# 3 -0.001796 -0.001796 0.011196 0.000000 0.000000 0.000000
# 4 0.000000 0.000000 0.000000 0.073057 0.000000 0.000000
# 5 0.000000 0.000000 0.000000 0.000000 0.073057 0.000000
# 6 0.000000 0.000000 0.000000 0.000000 0.000000 -0.086758
#
#
# Mechanical properties :
#
#
# Convention : Reuss Voigt Hill
#
# Bulk Modulus (GPa) = 43.62526 43.62556 43.62541
# Shear Modulus (GPa) = -3623.29679 8.55080 -1807.37300
#
# Velocity S-wave (km/s) = -41.22130 2.00250 -29.11345
# Velocity P-wave (km/s) = 47.38286 5.07991 33.31164
#
# Compressibility (1/GPa) = 0.02292250
#
# Stress axis : x y z
#
# Youngs Moduli (GPa) = -58.95553 -58.95553 89.31522
#
# Poissons Ratio (x) = 1.55742 0.16040
# Poissons Ratio (y) = 1.55742 0.16040
# Poissons Ratio (z) = -0.10588 -0.10588
#
# Static dielectric constant tensor:
#      x y z
#    x 1.881870 0.000000 0.000000 
#    y 0.000000 1.881870 0.000000 
#    z 0.000000 0.000000 2.146020 
# 
# From -- ./inp_files/2770.got.cif
#   From: 2010.05.17/outbox.cif.g08.bks.cpg/sg182_2_cif.got.tgz:2770.got - 2010.05.20 11:58:53.
