data_PCOD9584709
_publ_section_title
;
Structure prediction by ZEFSAII (Michael W. Deem and Ramdas Pophale) SiO2 
 PCOD9584709
Probable space group: P 63 2 2
;
_chemical_formula_sum "Si O2"
_cell_formula_units_Z 52
_cell_length_a 20.525228
_cell_length_b 20.525228
_cell_length_c 8.940519
_cell_angle_alpha 90.000000
_cell_angle_beta 90.000000
_cell_angle_gamma 120.000000
_cell_volume 3261.890233
_symmetry_space_group_name_H-M "P 63 2 2"
_symmetry_group_IT_number 182
_symmetry_cell_setting 'hexagonal'
loop_
_space_group_symop_operation_xyz
x,y,z
x-y,x,1/2+z
-y,x-y,z
-x,-y,1/2+z
-x+y,-x,z
y,-x+y,1/2+z
x-y,-y,-z
-x,-x+y,-z
y,x,-z
-y,-x,1/2-z
-x+y,y,1/2-z
x,x-y,1/2-z
loop_
_atom_site_type_symbol
_atom_site_label
_atom_site_fract_x
_atom_site_fract_y
_atom_site_fract_z
Si Si1 0.686466 0.487805 0.498327
Si Si2 0.088768 0.369763 0.009212
Si Si3 0.519829 0.080760 0.925261
Si Si4 0.796948 0.593896 0.750000
Si Si5 0.666667 0.333334 0.430799
Si Si6 0.204824 0.795177 0.750000
O O1 0.597996 0.455415 0.503835
O O2 0.729266 0.539796 0.639474
O O3 0.699646 0.417353 0.490089
O O4 0.724196 0.538102 0.353665
O O5 0.134360 0.368363 0.862941
O O6 0.099260 0.453201 0.039609
O O7 0.129953 0.357792 0.150028
O O8 0.000000 0.313603 0.000000
O O9 0.538952 0.077904 0.750000
O O10 0.492006 0.000000 0.000000
O O11 0.666668 0.333334 0.250000
#
# Coordination Sequence:
#
# PCOD9584709 Si02
#       6
#    12  12  12   6   4   6
#     4  11  22  34  49  70  99 131 180 222 279 320
#     4  10  22  38  56  78 108 138 181 224 270 323
#     4  11  24  37  54  73 101 139 185 236 270 315
#     4  10  20  38  54  76 102 136 174 226 272 318
#     4  12  24  31  47  67  96 133 170 229 279 322
#     4  10  22  36  56  74 102 142 174 222 272 324
#
# _framework density 15.941677
#
# number of rings (size 3 to 8) (size 9 to 14) (size 15 to 20)
#    0.000    1.385    3.462    2.769    6.462    0.000 
#    0.000    3.462    0.000    0.000    0.000    0.000 
#    0.000    0.000    0.000    6.923    0.000    0.000 
#
# Total GULP energy -290219.298097 kJ/mol
# GULP energy per Si atom -5581.140348 kJ/mol
# Density = 1.590539 g / cm^3
# Si number density = 15.941677 Si / 1000 Ang^3
#
#
#
# Elastic Constant Matrix: (Units=GPa)
#
#
# Indices 1 2 3 4 5 6 
#
# 1 82.6511 43.0263 44.5697 0.0001 0.0000 -0.0001
# 2 43.0263 82.6520 44.5700 -0.0001 0.0000 -0.0003
# 3 44.5697 44.5700 110.7880 0.0001 0.0000 0.0001
# 4 0.0001 -0.0001 0.0001 13.0959 -0.0001 0.0000
# 5 0.0000 0.0000 0.0000 -0.0001 13.0958 -0.0001
# 6 -0.0001 -0.0003 0.0001 0.0000 -0.0001 19.8116
#
#
#
# Elastic Compliance Matrix: (Units=1/GPa)
#
#
# Indices 1 2 3 4 5 6 
#
# 1 0.018185 -0.007051 -0.004479 0.000000 0.000000 0.000000
# 2 -0.007051 0.018185 -0.004479 0.000000 0.000000 0.000000
# 3 -0.004479 -0.004479 0.012630 0.000000 0.000000 0.000000
# 4 0.000000 0.000000 0.000000 0.076360 0.000000 0.000000
# 5 0.000000 0.000000 0.000000 0.000000 0.076360 0.000000
# 6 0.000000 0.000000 0.000000 0.000000 0.000000 0.050476
#
#
# Mechanical properties :
#
#
# Convention : Reuss Voigt Hill
#
# Bulk Modulus (GPa) = 58.88852 60.04701 59.46777
# Shear Modulus (GPa) = 17.24878 18.79565 18.02222
#
# Velocity S-wave (km/s) = 3.29293 3.43742 3.36595
# Velocity P-wave (km/s) = 7.17482 7.31457 7.24503
#
# Compressibility (1/GPa) = 0.01698124
#
# Stress axis : x y z
#
# Youngs Moduli (GPa) = 54.98981 54.99039 79.17591
#
# Poissons Ratio (x) = 0.38776 0.35464
# Poissons Ratio (y) = 0.38775 0.35463
# Poissons Ratio (z) = 0.24630 0.24631
#
# Static dielectric constant tensor:
#      x y z
#    x 1.525950 0.000000 0.000000 
#    y 0.000000 1.525950 0.000000 
#    z 0.000000 0.000000 1.563580 
# 
# From -- ./inp_files/1773.got.cif
#   From: 2010.05.17/outbox.cif.g08.bks.cpg/sg182_1_cif.got.tgz:1773.got - 2010.05.20 11:58:53.
