data_PCOD9584049
_publ_section_title
;
Structure prediction by ZEFSAII (Michael W. Deem and Ramdas Pophale) SiO2 
 PCOD9584049
Probable space group: P 62 2 2
;
_chemical_formula_sum "Si O2"
_cell_formula_units_Z 51
_cell_length_a 12.306407
_cell_length_b 12.306407
_cell_length_c 19.928537
_cell_angle_alpha 90.000000
_cell_angle_beta 90.000000
_cell_angle_gamma 120.000000
_cell_volume 2613.777392
_symmetry_space_group_name_H-M "P 62 2 2"
_symmetry_group_IT_number 180
_symmetry_cell_setting 'hexagonal'
loop_
_space_group_symop_operation_xyz
x,y,z
x-y,x,1/3+z
-y,x-y,2/3+z
-x,-y,z
-x+y,-x,1/3+z
y,-x+y,2/3+z
x-y,-y,-z
-x,-x+y,1/3-z
y,x,2/3-z
-y,-x,2/3-z
-x+y,y,-z
x,x-y,1/3-z
loop_
_atom_site_type_symbol
_atom_site_label
_atom_site_fract_x
_atom_site_fract_y
_atom_site_fract_z
Si Si1 0.000000 0.000000 0.500000
Si Si2 0.154313 0.988424 0.608972
Si Si3 0.760722 0.198476 0.059623
Si Si4 0.500000 0.500000 0.333334
Si Si5 0.500000 0.000000 0.500000
Si Si6 0.763057 0.183149 0.449884
Si Si7 0.298267 0.701734 0.333334
O O1 0.044386 0.930904 0.552818
O O2 0.129414 0.064707 0.666667
O O3 0.276904 0.100112 0.572704
O O4 0.180581 0.877200 0.630795
O O5 0.772044 0.208946 0.140266
O O6 0.756846 0.315459 0.024983
O O7 0.623900 0.084391 0.042982
O O8 0.384119 0.916801 0.452942
O O9 0.779790 0.285361 0.395055
#
# Coordination Sequence:
#
# PCOD9584049 Si02
#       7
#     3  12  12   3   3  12   6
#     4  12  24  44  64  98 132 184 220 284 330 404
#     4  12  25  41  69 100 133 174 231 278 344 407
#     4  11  23  46  63  91 135 178 215 277 337 405
#     4  10  28  44  64  84 128 186 218 260 340 406
#     4  12  18  36  70  92 132 168 206 276 332 394
#     4  12  20  39  67 100 128 169 214 271 338 401
#     4  11  22  39  70  97 132 169 222 266 342 417
#
# _framework density 19.511991999999999
#
# number of rings (size 3 to 8) (size 9 to 14) (size 15 to 20)
#    0.000    0.471    8.235    0.353    3.294    0.000 
#    4.235    0.000    0.000    0.000    0.000    0.000 
#    0.000    0.000    0.000    0.000    0.000    0.000 
#
# Total GULP energy -284310.362086 kJ/mol
# GULP energy per Si atom -5574.712982 kJ/mol
# Density = 1.946758 g / cm^3
# Si number density = 19.511992 Si / 1000 Ang^3
#
#
#
# Elastic Constant Matrix: (Units=GPa)
#
#
# Indices 1 2 3 4 5 6 
#
# 1 113.4874 59.4798 69.1650 0.0000 0.0000 0.0000
# 2 59.4798 113.4874 69.1650 0.0000 0.0000 0.0000
# 3 69.1650 69.1650 131.7182 0.0000 0.0000 0.0000
# 4 0.0000 0.0000 0.0000 32.7545 0.0000 0.0000
# 5 0.0000 0.0000 0.0000 0.0000 32.7545 0.0000
# 6 0.0000 0.0000 0.0000 0.0000 0.0000 27.0038
#
#
#
# Elastic Compliance Matrix: (Units=1/GPa)
#
#
# Indices 1 2 3 4 5 6 
#
# 1 0.014241 -0.004274 -0.005234 0.000000 0.000000 0.000000
# 2 -0.004274 0.014241 -0.005234 0.000000 0.000000 0.000000
# 3 -0.005234 -0.005234 0.013088 0.000000 0.000000 0.000000
# 4 0.000000 0.000000 0.000000 0.030530 0.000000 0.000000
# 5 0.000000 0.000000 0.000000 0.000000 0.030530 0.000000
# 6 0.000000 0.000000 0.000000 0.000000 0.000000 0.037032
#
#
# Mechanical properties :
#
#
# Convention : Reuss Voigt Hill
#
# Bulk Modulus (GPa) = 82.72842 83.81251 83.27047
# Shear Modulus (GPa) = 28.87230 29.22810 29.05020
#
# Velocity S-wave (km/s) = 3.85089 3.87454 3.86273
# Velocity P-wave (km/s) = 7.89071 7.94127 7.91603
#
# Compressibility (1/GPa) = 0.01208774
#
# Stress axis : x y z
#
# Youngs Moduli (GPa) = 70.21739 70.21739 76.40372
#
# Poissons Ratio (x) = 0.30014 0.39987
# Poissons Ratio (y) = 0.30014 0.39987
# Poissons Ratio (z) = 0.36750 0.36750
#
# Static dielectric constant tensor:
#      x y z
#    x 1.736020 0.000000 0.000000 
#    y 0.000000 1.736020 0.000000 
#    z 0.000000 0.000000 1.616490 
# 
# From -- ./inp_files/8958.got.cif
#   From: 2010.05.17/outbox.cif.g08.bks.cpg/sg180_5_cif.got.tgz:8958.got - 2010.05.20 11:43:55.
