data_PCOD9584544
_publ_section_title
;
Structure prediction by ZEFSAII (Michael W. Deem and Ramdas Pophale) SiO2 
 PCOD9584544
Probable space group: P 64 2 2
;
_chemical_formula_sum "Si O2"
_cell_formula_units_Z 42
_cell_length_a 8.722464
_cell_length_b 8.722464
_cell_length_c 28.951811
_cell_angle_alpha 90.000000
_cell_angle_beta 90.000000
_cell_angle_gamma 120.000000
_cell_volume 1907.588686
_symmetry_space_group_name_H-M "P 64 2 2"
_symmetry_group_IT_number 181
_symmetry_cell_setting 'hexagonal'
loop_
_space_group_symop_operation_xyz
x,y,z
x-y,x,2/3+z
-y,x-y,1/3+z
-x,-y,z
-x+y,-x,2/3+z
y,-x+y,1/3+z
x-y,-y,-z
-x,-x+y,2/3-z
y,x,1/3-z
-y,-x,1/3-z
-x+y,y,-z
x,x-y,2/3-z
loop_
_atom_site_type_symbol
_atom_site_label
_atom_site_fract_x
_atom_site_fract_y
_atom_site_fract_z
Si Si1 0.291079 0.230386 0.982581
Si Si2 0.912459 0.291786 0.393486
Si Si3 0.500000 0.500000 0.904960
Si Si4 0.782804 0.199538 0.496876
O O1 0.425018 0.343326 0.941760
O O2 0.218339 0.040823 0.956702
O O3 0.415544 0.248925 0.026507
O O4 0.132256 0.264512 0.000000
O O5 0.868264 0.269548 0.447007
O O6 0.000000 0.500000 0.382989
O O7 0.665721 0.557847 0.870900
O O8 0.594867 0.189734 0.500000
O O9 0.746090 0.000000 0.500000
#
# Coordination Sequence:
#
# PCOD9584544 Si02
#       4
#    12  12   6  12
#     4  11  25  42  68 104 135 182 245 314 374 456
#     4  11  22  43  69  96 139 189 238 297 374 458
#     4  12  26  44  72 101 147 194 248 318 384 468
#     4  11  25  44  68 103 145 193 248 310 382 463
#
# _framework density 22.017325
#
# number of rings (size 3 to 8) (size 9 to 14) (size 15 to 20)
#    0.000    0.857    1.429    6.857    0.000    6.857 
#    0.000    1.429    0.000    0.000    0.000    0.000 
#    0.000    0.000    0.000    0.000    0.000    0.000 
#
# Total GULP energy -233836.735480 kJ/mol
# GULP energy per Si atom -5567.541321 kJ/mol
# Density = 2.196721 g / cm^3
# Si number density = 22.017325 Si / 1000 Ang^3
#
#
#
# Elastic Constant Matrix: (Units=GPa)
#
#
# Indices 1 2 3 4 5 6 
#
# 1 67.6793 11.0676 30.8646 0.0000 0.0000 0.0000
# 2 11.0676 67.6793 30.8646 0.0000 0.0000 0.0000
# 3 30.8646 30.8646 168.6684 0.0000 0.0000 0.0000
# 4 0.0000 0.0000 0.0000 31.5746 0.0000 0.0000
# 5 0.0000 0.0000 0.0000 0.0000 31.5746 0.0000
# 6 0.0000 0.0000 0.0000 0.0000 0.0000 28.3058
#
#
#
# Elastic Compliance Matrix: (Units=1/GPa)
#
#
# Indices 1 2 3 4 5 6 
#
# 1 0.016245 -0.001419 -0.002713 0.000000 0.000000 0.000000
# 2 -0.001419 0.016245 -0.002713 0.000000 0.000000 0.000000
# 3 -0.002713 -0.002713 0.006922 0.000000 0.000000 0.000000
# 4 0.000000 0.000000 0.000000 0.031671 0.000000 0.000000
# 5 0.000000 0.000000 0.000000 0.000000 0.031671 0.000000
# 6 0.000000 0.000000 0.000000 0.000000 0.000000 0.035328
#
#
# Mechanical properties :
#
#
# Convention : Reuss Voigt Hill
#
# Bulk Modulus (GPa) = 38.87863 49.95787 44.41825
# Shear Modulus (GPa) = 31.18260 33.70636 32.44448
#
# Velocity S-wave (km/s) = 3.76743 3.91692 3.84290
# Velocity P-wave (km/s) = 6.05155 6.57235 6.31732
#
# Compressibility (1/GPa) = 0.02572107
#
# Stress axis : x y z
#
# Youngs Moduli (GPa) = 61.55788 61.55788 144.47384
#
# Poissons Ratio (x) = 0.08737 0.39195
# Poissons Ratio (y) = 0.08737 0.39195
# Poissons Ratio (z) = 0.16700 0.16700
#
# Static dielectric constant tensor:
#      x y z
#    x 4.321680 0.000000 0.000000 
#    y 0.000000 4.321680 0.000000 
#    z 0.000000 0.000000 1.761890 
# 
# From -- ./inp_files/11951.got.cif
#   From: 2010.05.17/outbox.cif.g08.bks.cpg/sg181_6_cif.got.tgz:11951.got - 2010.05.20 11:51:17.
