data_PCOD9584571
_publ_section_title
;
Structure prediction by ZEFSAII (Michael W. Deem and Ramdas Pophale) SiO2 
 PCOD9584571
Probable space group: P 64 2 2
;
_chemical_formula_sum "Si O2"
_cell_formula_units_Z 66
_cell_length_a 11.591386
_cell_length_b 11.591386
_cell_length_c 28.422248
_cell_angle_alpha 90.000000
_cell_angle_beta 90.000000
_cell_angle_gamma 120.000000
_cell_volume 3307.194926
_symmetry_space_group_name_H-M "P 64 2 2"
_symmetry_group_IT_number 181
_symmetry_cell_setting 'hexagonal'
loop_
_space_group_symop_operation_xyz
x,y,z
x-y,x,2/3+z
-y,x-y,1/3+z
-x,-y,z
-x+y,-x,2/3+z
y,-x+y,1/3+z
x-y,-y,-z
-x,-x+y,2/3-z
y,x,1/3-z
-y,-x,1/3-z
-x+y,y,-z
x,x-y,2/3-z
loop_
_atom_site_type_symbol
_atom_site_label
_atom_site_fract_x
_atom_site_fract_y
_atom_site_fract_z
Si Si1 0.421368 0.078711 0.871052
Si Si2 0.238509 0.314834 0.711115
Si Si3 0.382906 0.617095 0.666667
Si Si4 0.698201 0.653277 0.891114
Si Si5 0.796315 0.355289 0.087159
Si Si6 0.136499 0.993828 0.556658
O O1 0.524636 0.232276 0.878951
O O2 0.500000 0.000000 0.865584
O O3 0.340558 0.032329 0.919106
O O4 0.324004 0.028801 0.826176
O O5 0.222118 0.222118 0.666667
O O6 0.315839 0.467402 0.689989
O O7 0.105637 0.253757 0.743715
O O8 0.386682 0.713785 0.707044
O O9 0.583711 0.655274 0.922280
O O10 0.654888 0.498226 0.890055
O O11 0.847564 0.745883 0.906480
O O12 0.166645 0.000000 0.500000
O O13 0.000000 0.000000 0.561040
#
# Coordination Sequence:
#
# PCOD9584571 Si02
#       6
#    12  12   6  12  12  12
#     4  12  20  38  74 102 133 173 234 301 347 417
#     4  12  23  43  70 108 141 178 238 297 364 424
#     4  12  25  44  70 102 143 184 238 298 353 440
#     4  11  25  44  67 103 138 184 235 288 362 426
#     4  11  24  42  67 100 137 179 234 290 356 415
#     4  11  25  45  70 102 143 186 237 292 362 444
#
# _framework density 19.956489000000001
#
# number of rings (size 3 to 8) (size 9 to 14) (size 15 to 20)
#    0.000    0.545    7.273    1.909    2.545    0.364 
#    6.545    0.000    0.000    1.091    0.000    0.000 
#    0.000    0.000    0.000    0.000    0.000    0.000 
#
# Total GULP energy -368138.866150 kJ/mol
# GULP energy per Si atom -5577.861608 kJ/mol
# Density = 1.991107 g / cm^3
# Si number density = 19.956489 Si / 1000 Ang^3
#
#
#
# Elastic Constant Matrix: (Units=GPa)
#
#
# Indices 1 2 3 4 5 6 
#
# 1 123.1731 61.8599 40.6082 0.0000 0.0000 0.0000
# 2 61.8599 123.1731 40.6082 0.0000 0.0000 0.0000
# 3 40.6082 40.6082 142.5779 0.0000 0.0000 0.0000
# 4 0.0000 0.0000 0.0000 32.3909 0.0000 0.0000
# 5 0.0000 0.0000 0.0000 0.0000 32.3909 0.0000
# 6 0.0000 0.0000 0.0000 0.0000 0.0000 30.6566
#
#
#
# Elastic Compliance Matrix: (Units=1/GPa)
#
#
# Indices 1 2 3 4 5 6 
#
# 1 0.011243 -0.005067 -0.001759 0.000000 0.000000 0.000000
# 2 -0.005067 0.011243 -0.001759 0.000000 0.000000 0.000000
# 3 -0.001759 -0.001759 0.008016 0.000000 0.000000 0.000000
# 4 0.000000 0.000000 0.000000 0.030873 0.000000 0.000000
# 5 0.000000 0.000000 0.000000 0.000000 0.030873 0.000000
# 6 0.000000 0.000000 0.000000 0.000000 0.000000 0.032619
#
#
# Mechanical properties :
#
#
# Convention : Reuss Voigt Hill
#
# Bulk Modulus (GPa) = 75.00606 75.00853 75.00729
# Shear Modulus (GPa) = 34.13409 35.47754 34.80581
#
# Velocity S-wave (km/s) = 4.14022 4.22090 4.18075
# Velocity P-wave (km/s) = 7.77956 7.83724 7.80845
#
# Compressibility (1/GPa) = 0.01333226
#
# Stress axis : x y z
#
# Youngs Moduli (GPa) = 88.94303 88.94303 124.75378
#
# Poissons Ratio (x) = 0.45063 0.21946
# Poissons Ratio (y) = 0.45063 0.21946
# Poissons Ratio (z) = 0.15647 0.15647
#
# Static dielectric constant tensor:
#      x y z
#    x 1.716950 0.000000 0.000000 
#    y 0.000000 1.716950 0.000000 
#    z 0.000000 0.000000 1.775690 
# 
# From -- ./inp_files/12276.got.cif
#   From: 2010.05.17/outbox.cif.g08.bks.cpg/sg181_7_cif.got.tgz:12276.got - 2010.05.20 11:51:17.
