data_PCOD9584368
_publ_section_title
;
Structure prediction by ZEFSAII (Michael W. Deem and Ramdas Pophale) SiO2 
 PCOD9584368
Probable space group: P 64 2 2
;
_chemical_formula_sum "Si O2"
_cell_formula_units_Z 60
_cell_length_a 17.795564
_cell_length_b 17.795564
_cell_length_c 11.974292
_cell_angle_alpha 90.000000
_cell_angle_beta 90.000000
_cell_angle_gamma 120.000000
_cell_volume 3284.006361
_symmetry_space_group_name_H-M "P 64 2 2"
_symmetry_group_IT_number 181
_symmetry_cell_setting 'hexagonal'
loop_
_space_group_symop_operation_xyz
x,y,z
x-y,x,2/3+z
-y,x-y,1/3+z
-x,-y,z
-x+y,-x,2/3+z
y,-x+y,1/3+z
x-y,-y,-z
-x,-x+y,2/3-z
y,x,1/3-z
-y,-x,1/3-z
-x+y,y,-z
x,x-y,2/3-z
loop_
_atom_site_type_symbol
_atom_site_label
_atom_site_fract_x
_atom_site_fract_y
_atom_site_fract_z
Si Si1 0.170324 0.419627 0.835713
Si Si2 0.426177 0.573824 0.166667
Si Si3 0.875047 0.975083 0.627384
Si Si4 0.106727 0.794055 0.057370
Si Si5 0.500000 0.000000 0.682039
Si Si6 0.307900 0.932752 0.726191
O O1 0.198292 0.521155 0.846492
O O2 0.142354 0.382178 0.710793
O O3 0.245580 0.401284 0.876113
O O4 0.091756 0.376190 0.927331
O O5 0.442254 0.524370 0.268950
O O6 0.926052 0.926052 0.666667
O O7 0.778361 0.914981 0.668728
O O8 0.889178 0.000000 0.500000
O O9 0.925037 0.074964 0.666667
O O10 0.166857 0.833144 0.166667
O O11 0.012182 0.717017 0.092569
O O12 0.589973 0.031420 0.744797
#
# Coordination Sequence:
#
# PCOD9584368 Si02
#       6
#    12   6  12  12   6  12
#     4  10  21  37  64  96 119 155 208 267 313 383
#     4   9  16  34  62  94 118 146 198 264 320 356
#     4  11  23  38  53  76 115 168 219 261 312 355
#     4  12  25  37  57  87 128 170 208 263 311 378
#     4   9  16  34  62  89 116 148 191 258 315 368
#     4  10  21  37  63  95 118 157 208 260 318 373
#
# _framework density 18.270368000000001
#
# number of rings (size 3 to 8) (size 9 to 14) (size 15 to 20)
#    0.000    1.600    2.000    4.200    8.400    0.000 
#    0.000    0.000    2.200    2.400    2.600    0.000 
#    0.000    0.000    0.000    0.000    0.000    0.000 
#
# Total GULP energy -334133.589495 kJ/mol
# GULP energy per Si atom -5568.893158 kJ/mol
# Density = 1.822878 g / cm^3
# Si number density = 18.270368 Si / 1000 Ang^3
#
#
#
# Elastic Constant Matrix: (Units=GPa)
#
#
# Indices 1 2 3 4 5 6 
#
# 1 114.3962 53.0758 35.5889 0.0000 0.0000 0.0000
# 2 53.0758 114.3962 35.5889 0.0000 0.0000 0.0000
# 3 35.5889 35.5889 96.1594 0.0000 0.0000 0.0000
# 4 0.0000 0.0000 0.0000 19.3684 0.0000 0.0000
# 5 0.0000 0.0000 0.0000 0.0000 19.3684 0.0000
# 6 0.0000 0.0000 0.0000 0.0000 0.0000 30.6602
#
#
#
# Elastic Compliance Matrix: (Units=1/GPa)
#
#
# Indices 1 2 3 4 5 6 
#
# 1 0.011697 -0.004611 -0.002622 0.000000 0.000000 0.000000
# 2 -0.004611 0.011697 -0.002622 0.000000 0.000000 0.000000
# 3 -0.002622 -0.002622 0.012341 0.000000 0.000000 0.000000
# 4 0.000000 0.000000 0.000000 0.051631 0.000000 0.000000
# 5 0.000000 0.000000 0.000000 0.000000 0.051631 0.000000
# 6 0.000000 0.000000 0.000000 0.000000 0.000000 0.032616
#
#
# Mechanical properties :
#
#
# Convention : Reuss Voigt Hill
#
# Bulk Modulus (GPa) = 62.41340 63.71769 63.06555
# Shear Modulus (GPa) = 25.42416 27.25927 26.34172
#
# Velocity S-wave (km/s) = 3.73440 3.86682 3.80119
# Velocity P-wave (km/s) = 7.26839 7.40858 7.33882
#
# Compressibility (1/GPa) = 0.01602220
#
# Stress axis : x y z
#
# Youngs Moduli (GPa) = 85.49381 85.49381 81.03362
#
# Poissons Ratio (x) = 0.39421 0.21251
# Poissons Ratio (y) = 0.39421 0.21251
# Poissons Ratio (z) = 0.22420 0.22420
#
# Static dielectric constant tensor:
#      x y z
#    x 1.653290 0.000000 0.000000 
#    y 0.000000 1.653290 0.000000 
#    z 0.000000 0.000000 1.618370 
# 
# From -- ./inp_files/4906.got.cif
#   From: 2010.05.17/outbox.cif.g08.bks.cpg/sg181_3_cif.got.tgz:4906.got - 2010.05.20 11:51:17.
