data_PCOD9584589
_publ_section_title
;
Structure prediction by ZEFSAII (Michael W. Deem and Ramdas Pophale) SiO2 
 PCOD9584589
Probable space group: P 64 2 2
;
_chemical_formula_sum "Si O2"
_cell_formula_units_Z 36
_cell_length_a 9.261368
_cell_length_b 9.261368
_cell_length_c 22.801933
_cell_angle_alpha 90.000000
_cell_angle_beta 90.000000
_cell_angle_gamma 120.000000
_cell_volume 1693.762757
_symmetry_space_group_name_H-M "P 64 2 2"
_symmetry_group_IT_number 181
_symmetry_cell_setting 'hexagonal'
loop_
_space_group_symop_operation_xyz
x,y,z
x-y,x,2/3+z
-y,x-y,1/3+z
-x,-y,z
-x+y,-x,2/3+z
y,-x+y,1/3+z
x-y,-y,-z
-x,-x+y,2/3-z
y,x,1/3-z
-y,-x,1/3-z
-x+y,y,-z
x,x-y,2/3-z
loop_
_atom_site_type_symbol
_atom_site_label
_atom_site_fract_x
_atom_site_fract_y
_atom_site_fract_z
Si Si1 0.158079 0.502054 0.660074
Si Si2 0.749767 0.993519 0.565495
Si Si3 0.270600 0.148301 0.898189
O O1 0.313209 0.686791 0.666667
O O2 0.077118 0.393386 0.719023
O O3 0.209009 0.399454 0.616757
O O4 0.000000 0.500000 0.630383
O O5 0.817976 0.864325 0.564513
O O6 0.688936 0.000000 0.500000
O O7 0.921319 0.168983 0.575840
O O8 0.348586 0.174293 0.833334
#
# Coordination Sequence:
#
# PCOD9584589 Si02
#       3
#    12  12  12
#     4  12  25  41  58  90 132 171 220 276 340 395
#     4   9  19  39  68  93 123 164 215 266 333 411
#     4   9  19  40  65  92 122 166 213 264 331 408
#
# _framework density 21.254452000000001
#
# number of rings (size 3 to 8) (size 9 to 14) (size 15 to 20)
#    0.000    2.000    0.000    6.000    0.000    6.000 
#   18.000    0.000    0.000    0.000    0.000    0.000 
#    0.000    0.000    0.000    0.000    0.000    0.000 
#
# Total GULP energy -200791.997672 kJ/mol
# GULP energy per Si atom -5577.555491 kJ/mol
# Density = 2.120608 g / cm^3
# Si number density = 21.254452 Si / 1000 Ang^3
#
#
#
# Elastic Constant Matrix: (Units=GPa)
#
#
# Indices 1 2 3 4 5 6 
#
# 1 78.8346 21.7636 47.8247 0.0000 0.0000 0.0000
# 2 21.7636 78.8346 47.8247 0.0000 0.0000 0.0000
# 3 47.8247 47.8247 105.5687 0.0000 0.0000 0.0000
# 4 0.0000 0.0000 0.0000 -6.8187 0.0000 0.0000
# 5 0.0000 0.0000 0.0000 0.0000 -6.8187 0.0000
# 6 0.0000 0.0000 0.0000 0.0000 0.0000 28.5355
#
#
#
# Elastic Compliance Matrix: (Units=1/GPa)
#
#
# Indices 1 2 3 4 5 6 
#
# 1 0.017492 -0.000030 -0.007911 0.000000 0.000000 0.000000
# 2 -0.000030 0.017492 -0.007911 0.000000 0.000000 0.000000
# 3 -0.007911 -0.007911 0.016640 0.000000 0.000000 0.000000
# 4 0.000000 0.000000 0.000000 -0.146655 0.000000 0.000000
# 5 0.000000 0.000000 0.000000 0.000000 -0.146655 0.000000
# 6 0.000000 0.000000 0.000000 0.000000 0.000000 0.035044
#
#
# Mechanical properties :
#
#
# Convention : Reuss Voigt Hill
#
# Bulk Modulus (GPa) = 50.19743 55.34045 52.76894
# Shear Modulus (GPa) = -29.70920 12.70126 -8.50397
#
# Velocity S-wave (km/s) = -3.74276 2.44720 -2.00243
# Velocity P-wave (km/s) = 2.23406 5.83769 4.41982
#
# Compressibility (1/GPa) = 0.01992134
#
# Stress axis : x y z
#
# Youngs Moduli (GPa) = 57.16890 57.16890 60.09668
#
# Poissons Ratio (x) = 0.00172 0.47540
# Poissons Ratio (y) = 0.00172 0.47540
# Poissons Ratio (z) = 0.45224 0.45224
#
# Static dielectric constant tensor:
#      x y z
#    x 1.774710 0.000000 0.000000 
#    y 0.000000 1.774710 0.000000 
#    z 0.000000 0.000000 1.840930 
# 
# From -- ./inp_files/10712.got.cif
#   From: 2010.05.17/outbox.cif.g08.bks.cpg/sg181_6_cif.got.tgz:10712.got - 2010.05.20 11:51:17.
