data_PCOD9584928
_publ_section_title
;
Structure prediction by ZEFSAII (Michael W. Deem and Ramdas Pophale) SiO2 
 PCOD9584928
Probable space group: P 6 M M
;
_chemical_formula_sum "Si O2"
_cell_formula_units_Z 60
_cell_length_a 18.589617
_cell_length_b 18.589617
_cell_length_c 13.204679
_cell_angle_alpha 90.000000
_cell_angle_beta 90.000000
_cell_angle_gamma 120.000000
_cell_volume 3951.840103
_symmetry_space_group_name_H-M "P 6 M M"
_symmetry_group_IT_number 183
_symmetry_cell_setting 'hexagonal'
loop_
_space_group_symop_operation_xyz
x,y,z
x-y,x,z
-y,x-y,z
-x,-y,z
-x+y,-x,z
y,-x+y,z
-x+y,y,z
x,x-y,z
-y,-x,z
y,x,z
x-y,-y,z
-x,-x+y,z
loop_
_atom_site_type_symbol
_atom_site_label
_atom_site_fract_x
_atom_site_fract_y
_atom_site_fract_z
Si Si1 0.500881 0.668683 0.141700
Si Si2 0.264421 0.362172 0.311254
Si Si3 0.831917 0.330918 0.714816
Si Si4 0.367443 0.466914 0.499649
Si Si5 0.905729 0.540089 0.925910
O O1 0.472975 0.736488 0.162195
O O2 0.424312 0.575689 0.157348
O O3 0.578078 0.691421 0.214936
O O4 0.529960 0.677422 0.025124
O O5 0.166437 0.332874 0.306706
O O6 0.292504 0.292504 0.316136
O O7 0.304185 0.422926 0.408217
O O8 0.846933 0.423467 0.713973
O O9 0.735322 0.264679 0.719546
O O10 0.866994 0.322779 0.607295
O O11 0.872884 0.322134 0.817745
O O12 0.435301 0.564700 0.481864
O O13 0.420827 0.420827 0.506959
O O14 0.905819 0.452910 0.919801
O O15 0.000000 0.611099 0.941942
#
# Coordination Sequence:
#
# PCOD9584928 Si02
#       5
#    12  12  12  12  12
#     4  10  19  30  45  66  92 120 149 181 217 258
#     4  10  20  33  49  68  89 114 145 181 221 264
#     4  10  18  27  39  56  80 109 142 180 220 259
#     4   9  17  29  45  64  86 113 144 176 211 256
#     4   9  17  28  41  56  76 107 147 187 223 257
#
# _framework density 15.182801
#
# number of rings (size 3 to 8) (size 9 to 14) (size 15 to 20)
#    0.000    2.400    0.000    3.400    0.000    4.400 
#    0.000    2.000    0.000    6.600    0.000    0.000 
#    0.000    0.000    0.000    0.000    0.000    0.000 
#
# Total GULP energy -334106.234133 kJ/mol
# GULP energy per Si atom -5568.437236 kJ/mol
# Density = 1.514824 g / cm^3
# Si number density = 15.182801 Si / 1000 Ang^3
#
#
#
# Elastic Constant Matrix: (Units=GPa)
#
#
# Indices 1 2 3 4 5 6 
#
# 1 48.3146 29.8860 29.0914 0.0000 0.0000 0.0000
# 2 29.8860 48.3146 29.0914 0.0000 0.0000 0.0000
# 3 29.0914 29.0914 96.5090 0.0000 0.0000 0.0000
# 4 0.0000 0.0000 0.0000 16.2740 0.0000 0.0000
# 5 0.0000 0.0000 0.0000 0.0000 16.2740 0.0000
# 6 0.0000 0.0000 0.0000 0.0000 0.0000 9.2143
#
#
#
# Elastic Compliance Matrix: (Units=1/GPa)
#
#
# Indices 1 2 3 4 5 6 
#
# 1 0.035374 -0.018889 -0.004969 0.000000 0.000000 0.000000
# 2 -0.018889 0.035374 -0.004969 0.000000 0.000000 0.000000
# 3 -0.004969 -0.004969 0.013357 0.000000 0.000000 0.000000
# 4 0.000000 0.000000 0.000000 0.061448 0.000000 0.000000
# 5 0.000000 0.000000 0.000000 0.000000 0.061448 0.000000
# 6 0.000000 0.000000 0.000000 0.000000 0.000000 0.108527
#
#
# Mechanical properties :
#
#
# Convention : Reuss Voigt Hill
#
# Bulk Modulus (GPa) = 37.80644 41.03064 39.41854
# Shear Modulus (GPa) = 13.08900 15.35708 14.22304
#
# Velocity S-wave (km/s) = 2.93933 3.18383 3.06402
# Velocity P-wave (km/s) = 6.03941 6.37171 6.20778
#
# Compressibility (1/GPa) = 0.02645052
#
# Stress axis : x y z
#
# Youngs Moduli (GPa) = 28.26926 28.26926 74.86434
#
# Poissons Ratio (x) = 0.53399 0.37201
# Poissons Ratio (y) = 0.53399 0.37201
# Poissons Ratio (z) = 0.14047 0.14047
#
# Static dielectric constant tensor:
#      x y z
#    x 1.498020 0.000000 0.000000 
#    y 0.000000 1.498020 0.000000 
#    z 0.000000 0.000000 1.537050 
# 
# From -- ./inp_files/1588.got.cif
#   From: 2010.05.17/outbox.cif.g08.bks.cpg/sg183_1_cif.got.tgz:1588.got - 2010.05.20 12:02:58.
