data_PCOD9584127
_publ_section_title
;
Structure prediction by ZEFSAII (Michael W. Deem and Ramdas Pophale) SiO2 
 PCOD9584127
Probable space group: P 62 2 2
;
_chemical_formula_sum "Si O2"
_cell_formula_units_Z 57
_cell_length_a 14.637924
_cell_length_b 14.637924
_cell_length_c 15.800608
_cell_angle_alpha 90.000000
_cell_angle_beta 90.000000
_cell_angle_gamma 120.000000
_cell_volume 2931.996222
_symmetry_space_group_name_H-M "P 62 2 2"
_symmetry_group_IT_number 180
_symmetry_cell_setting 'hexagonal'
loop_
_space_group_symop_operation_xyz
x,y,z
x-y,x,1/3+z
-y,x-y,2/3+z
-x,-y,z
-x+y,-x,1/3+z
y,-x+y,2/3+z
x-y,-y,-z
-x,-x+y,1/3-z
y,x,2/3-z
-y,-x,2/3-z
-x+y,y,-z
x,x-y,1/3-z
loop_
_atom_site_type_symbol
_atom_site_label
_atom_site_fract_x
_atom_site_fract_y
_atom_site_fract_z
Si Si1 0.587126 0.122558 0.409359
Si Si2 0.500000 0.500000 0.333334
Si Si3 0.544359 0.272180 0.166667
Si Si4 0.851800 0.524361 0.802949
Si Si5 0.431960 0.264725 0.004910
Si Si6 0.265381 0.341953 0.024019
O O1 0.584001 0.168001 0.500000
O O2 0.540916 0.164885 0.339064
O O3 0.691927 0.126183 0.380641
O O4 0.500000 0.000000 0.413256
O O5 0.473071 0.405649 0.398876
O O6 0.618028 0.218184 0.161154
O O7 0.463247 0.224020 0.087463
O O8 0.791421 0.571786 0.749292
O O9 0.901189 0.596919 0.885967
O O10 0.331697 0.281277 0.014369
O O11 0.140924 0.281847 0.000000
#
# Coordination Sequence:
#
# PCOD9584127 Si02
#       6
#    12   3   6  12  12  12
#     4   9  18  33  53  79 115 158 202 251 305 363
#     4  12  24  44  60  96 128 180 204 272 320 400
#     4  12  22  40  58  93 128 175 220 262 320 388
#     4  12  25  39  65  90 133 168 221 264 322 393
#     4  11  23  39  59  87 125 169 213 263 317 389
#     4  11  24  39  61  89 126 167 218 271 322 375
#
# _framework density 19.440681000000001
#
# number of rings (size 3 to 8) (size 9 to 14) (size 15 to 20)
#    0.000    1.053    4.211    2.526    5.895    2.526 
#    0.000    0.000    0.000    0.000    0.000    0.737 
#    0.000    0.000    0.000    0.000    0.000    0.000 
#
# Total GULP energy -317501.835072 kJ/mol
# GULP energy per Si atom -5570.207633 kJ/mol
# Density = 1.939643 g / cm^3
# Si number density = 19.440681 Si / 1000 Ang^3
#
#
#
# Elastic Constant Matrix: (Units=GPa)
#
#
# Indices 1 2 3 4 5 6 
#
# 1 77.0306 37.3526 38.8157 0.0000 0.0000 0.0000
# 2 37.3526 77.0306 38.8157 0.0000 0.0000 0.0000
# 3 38.8157 38.8157 138.9528 0.0000 0.0000 0.0000
# 4 0.0000 0.0000 0.0000 19.6343 0.0000 0.0000
# 5 0.0000 0.0000 0.0000 0.0000 19.6343 0.0000
# 6 0.0000 0.0000 0.0000 0.0000 0.0000 19.8390
#
#
#
# Elastic Compliance Matrix: (Units=1/GPa)
#
#
# Indices 1 2 3 4 5 6 
#
# 1 0.017995 -0.007208 -0.003014 0.000000 0.000000 0.000000
# 2 -0.007208 0.017995 -0.003014 0.000000 0.000000 0.000000
# 3 -0.003014 -0.003014 0.008880 0.000000 0.000000 0.000000
# 4 0.000000 0.000000 0.000000 0.050931 0.000000 0.000000
# 5 0.000000 0.000000 0.000000 0.000000 0.050931 0.000000
# 6 0.000000 0.000000 0.000000 0.000000 0.000000 0.050406
#
#
# Mechanical properties :
#
#
# Convention : Reuss Voigt Hill
#
# Bulk Modulus (GPa) = 54.34234 58.10911 56.22573
# Shear Modulus (GPa) = 21.76348 23.69016 22.72682
#
# Velocity S-wave (km/s) = 3.34950 3.49461 3.42282
# Velocity P-wave (km/s) = 6.55533 6.79989 6.67873
#
# Compressibility (1/GPa) = 0.01840186
#
# Stress axis : x y z
#
# Youngs Moduli (GPa) = 55.56993 55.56993 112.60868
#
# Poissons Ratio (x) = 0.40052 0.33935
# Poissons Ratio (y) = 0.40052 0.33935
# Poissons Ratio (z) = 0.16746 0.16746
#
# Static dielectric constant tensor:
#      x y z
#    x 1.730480 0.000000 0.000000 
#    y 0.000000 1.730480 0.000000 
#    z 0.000000 0.000000 1.755130 
# 
# From -- ./inp_files/6141.got.cif
#   From: 2010.05.17/outbox.cif.g08.bks.cpg/sg180_4_cif.got.tgz:6141.got - 2010.05.20 11:43:55.
