data_PCOD9584213
_publ_section_title
;
Structure prediction by ZEFSAII (Michael W. Deem and Ramdas Pophale) SiO2 
 PCOD9584213
Probable space group: P 64 2 2
;
_chemical_formula_sum "Si O2"
_cell_formula_units_Z 48
_cell_length_a 10.392102
_cell_length_b 10.392102
_cell_length_c 24.833648
_cell_angle_alpha 90.000000
_cell_angle_beta 90.000000
_cell_angle_gamma 120.000000
_cell_volume 2322.618892
_symmetry_space_group_name_H-M "P 64 2 2"
_symmetry_group_IT_number 181
_symmetry_cell_setting 'hexagonal'
loop_
_space_group_symop_operation_xyz
x,y,z
x-y,x,2/3+z
-y,x-y,1/3+z
-x,-y,z
-x+y,-x,2/3+z
y,-x+y,1/3+z
x-y,-y,-z
-x,-x+y,2/3-z
y,x,1/3-z
-y,-x,1/3-z
-x+y,y,-z
x,x-y,2/3-z
loop_
_atom_site_type_symbol
_atom_site_label
_atom_site_fract_x
_atom_site_fract_y
_atom_site_fract_z
Si Si1 0.000000 0.500000 0.189862
Si Si2 0.500000 0.500000 0.072064
Si Si3 0.215843 0.702262 0.568197
Si Si4 0.269435 0.265846 0.986451
Si Si5 0.309028 0.479929 0.619385
O O1 0.128804 0.503619 0.153055
O O2 0.074607 0.632686 0.232233
O O3 0.623568 0.476556 0.103467
O O4 0.387762 0.365395 0.032988
O O5 0.096969 0.718113 0.605480
O O6 0.248077 0.587574 0.600309
O O7 0.327280 0.156155 0.971413
O O8 0.097130 0.194259 0.000000
O O9 0.426671 0.573330 0.666667
#
# Coordination Sequence:
#
# PCOD9584213 Si02
#       5
#     6   6  12  12  12
#     4  12  26  36  58  98 140 178 220 298 358 398
#     4  10  17  34  63  94 128 174 224 266 336 414
#     4  11  20  36  63  96 137 176 216 290 347 409
#     4  10  18  33  64 100 129 175 225 278 337 407
#     4  12  21  40  62  92 135 177 231 280 342 427
#
# _framework density 20.666325000000001
#
# number of rings (size 3 to 8) (size 9 to 14) (size 15 to 20)
#    0.000    1.000    7.500    1.875    0.000    0.000 
#    0.000    2.500    0.000    3.000    0.000    3.500 
#    0.000    0.000    0.000    0.000    0.000    0.000 
#
# Total GULP energy -267707.214125 kJ/mol
# GULP energy per Si atom -5577.233628 kJ/mol
# Density = 2.061929 g / cm^3
# Si number density = 20.666325 Si / 1000 Ang^3
#
#
#
# Elastic Constant Matrix: (Units=GPa)
#
#
# Indices 1 2 3 4 5 6 
#
# 1 75.7335 134.9144 68.1878 0.0000 0.0000 0.0000
# 2 134.9144 75.7335 68.1878 0.0000 0.0000 0.0000
# 3 68.1878 68.1878 134.7685 0.0000 0.0000 0.0000
# 4 0.0000 0.0000 0.0000 18.7851 0.0000 0.0000
# 5 0.0000 0.0000 0.0000 0.0000 18.7851 0.0000
# 6 0.0000 0.0000 0.0000 0.0000 0.0000 -29.5905
#
#
#
# Elastic Compliance Matrix: (Units=1/GPa)
#
#
# Indices 1 2 3 4 5 6 
#
# 1 -0.004919 0.011979 -0.003572 0.000000 0.000000 0.000000
# 2 0.011979 -0.004919 -0.003572 0.000000 0.000000 0.000000
# 3 -0.003572 -0.003572 0.011035 0.000000 0.000000 0.000000
# 4 0.000000 0.000000 0.000000 0.053234 0.000000 0.000000
# 5 0.000000 0.000000 0.000000 0.000000 0.053234 0.000000
# 6 0.000000 0.000000 0.000000 0.000000 0.000000 -0.033795
#
#
# Mechanical properties :
#
#
# Convention : Reuss Voigt Hill
#
# Bulk Modulus (GPa) = 92.02721 92.09059 92.05890
# Shear Modulus (GPa) = 73.72132 2.59230 38.15681
#
# Velocity S-wave (km/s) = 5.97910 1.12120 4.30155
# Velocity P-wave (km/s) = 9.60692 6.80688 8.32546
#
# Compressibility (1/GPa) = 0.01086635
#
# Stress axis : x y z
#
# Youngs Moduli (GPa) = -203.30329 -203.30329 90.62305
#
# Poissons Ratio (x) = 2.43528 0.32370
# Poissons Ratio (y) = 2.43528 0.32370
# Poissons Ratio (z) = -0.72620 -0.72620
#
# Static dielectric constant tensor:
#      x y z
#    x 1.786260 0.000000 0.000000 
#    y 0.000000 1.786260 0.000000 
#    z 0.000000 0.000000 1.767450 
# 
# From -- ./inp_files/9941.got.cif
#   From: 2010.05.17/outbox.cif.g08.bks.cpg/sg181_5_cif.got.tgz:9941.got - 2010.05.20 11:51:17.
