data_PCOD9584478
_publ_section_title
;
Structure prediction by ZEFSAII (Michael W. Deem and Ramdas Pophale) SiO2 
 PCOD9584478
Probable space group: P 64 2 2
;
_chemical_formula_sum "Si O2"
_cell_formula_units_Z 36
_cell_length_a 7.946411
_cell_length_b 7.946411
_cell_length_c 24.490971
_cell_angle_alpha 90.000000
_cell_angle_beta 90.000000
_cell_angle_gamma 120.000000
_cell_volume 1339.302511
_symmetry_space_group_name_H-M "P 64 2 2"
_symmetry_group_IT_number 181
_symmetry_cell_setting 'hexagonal'
loop_
_space_group_symop_operation_xyz
x,y,z
x-y,x,2/3+z
-y,x-y,1/3+z
-x,-y,z
-x+y,-x,2/3+z
y,-x+y,1/3+z
x-y,-y,-z
-x,-x+y,2/3-z
y,x,1/3-z
-y,-x,1/3-z
-x+y,y,-z
x,x-y,2/3-z
loop_
_atom_site_type_symbol
_atom_site_label
_atom_site_fract_x
_atom_site_fract_y
_atom_site_fract_z
Si Si1 0.975118 0.307786 0.707187
Si Si2 0.775447 0.379174 0.109555
Si Si3 0.788128 0.969970 0.896125
O O1 0.876150 0.123851 0.666667
O O2 0.798606 0.269184 0.746438
O O3 0.000000 0.500000 0.676341
O O4 0.159166 0.337771 0.743252
O O5 0.667726 0.332275 0.166667
O O6 0.000000 0.500000 0.125078
O O7 0.760337 0.186007 0.081948
O O8 0.772498 0.886249 0.833334
O O9 0.000000 0.000000 0.910314
#
# Coordination Sequence:
#
# PCOD9584478 Si02
#       3
#    12  12  12
#     4  12  29  50  75 116 164 214 269 334 411 493
#     4  11  25  46  78 114 153 197 270 334 395 484
#     4  10  23  46  79 109 147 205 257 326 406 467
#
# _framework density 26.879662
#
# number of rings (size 3 to 8) (size 9 to 14) (size 15 to 20)
#    0.000    1.000    3.333    1.000    9.333    1.333 
#    0.000    1.667    0.000    0.000    0.000    0.000 
#    0.000    0.000    0.000    0.000    0.000    0.000 
#
# Total GULP energy -200451.174573 kJ/mol
# GULP energy per Si atom -5568.088183 kJ/mol
# Density = 2.681848 g / cm^3
# Si number density = 26.879662 Si / 1000 Ang^3
#
#
#
# Elastic Constant Matrix: (Units=GPa)
#
#
# Indices 1 2 3 4 5 6 
#
# 1 137.3618 42.9300 59.6876 0.0000 0.0000 0.0000
# 2 42.9300 137.3618 59.6876 0.0000 0.0000 0.0000
# 3 59.6876 59.6876 91.1830 0.0000 0.0000 0.0000
# 4 0.0000 0.0000 0.0000 3.9180 0.0000 0.0000
# 5 0.0000 0.0000 0.0000 0.0000 3.9180 0.0000
# 6 0.0000 0.0000 0.0000 0.0000 0.0000 47.2159
#
#
#
# Elastic Compliance Matrix: (Units=1/GPa)
#
#
# Indices 1 2 3 4 5 6 
#
# 1 0.010190 -0.000400 -0.006408 0.000000 0.000000 0.000000
# 2 -0.000400 0.010190 -0.006408 0.000000 0.000000 0.000000
# 3 -0.006408 -0.006408 0.019356 0.000000 0.000000 0.000000
# 4 0.000000 0.000000 0.000000 0.255235 0.000000 0.000000
# 5 0.000000 0.000000 0.000000 0.000000 0.255235 0.000000
# 6 0.000000 0.000000 0.000000 0.000000 0.000000 0.021179
#
#
# Mechanical properties :
#
#
# Convention : Reuss Voigt Hill
#
# Bulk Modulus (GPa) = 75.17169 76.72411 75.94790
# Shear Modulus (GPa) = 8.30217 24.58378 16.44297
#
# Velocity S-wave (km/s) = 1.75936 3.02749 2.47599
# Velocity P-wave (km/s) = 5.67044 6.38956 6.04071
#
# Compressibility (1/GPa) = 0.01330288
#
# Stress axis : x y z
#
# Youngs Moduli (GPa) = 98.13929 98.13929 51.66257
#
# Poissons Ratio (x) = 0.03926 0.33106
# Poissons Ratio (y) = 0.03926 0.33106
# Poissons Ratio (z) = 0.62889 0.62889
#
# Static dielectric constant tensor:
#      x y z
#    x 2.551260 0.000000 0.000000 
#    y 0.000000 2.551260 0.000000 
#    z 0.000000 0.000000 2.237430 
# 
# From -- ./inp_files/11620.got.cif
#   From: 2010.05.17/outbox.cif.g08.bks.cpg/sg181_6_cif.got.tgz:11620.got - 2010.05.20 11:51:17.
