data_PCOD9584119
_publ_section_title
;
Structure prediction by ZEFSAII (Michael W. Deem and Ramdas Pophale) SiO2 
 PCOD9584119
Probable space group: P 62 2 2
;
_chemical_formula_sum "Si O2"
_cell_formula_units_Z 27
_cell_length_a 8.343504
_cell_length_b 8.343504
_cell_length_c 19.876442
_cell_angle_alpha 90.000000
_cell_angle_beta 90.000000
_cell_angle_gamma 120.000000
_cell_volume 1198.301863
_symmetry_space_group_name_H-M "P 62 2 2"
_symmetry_group_IT_number 180
_symmetry_cell_setting 'hexagonal'
loop_
_space_group_symop_operation_xyz
x,y,z
x-y,x,1/3+z
-y,x-y,2/3+z
-x,-y,z
-x+y,-x,1/3+z
y,-x+y,2/3+z
x-y,-y,-z
-x,-x+y,1/3-z
y,x,2/3-z
-y,-x,2/3-z
-x+y,y,-z
x,x-y,1/3-z
loop_
_atom_site_type_symbol
_atom_site_label
_atom_site_fract_x
_atom_site_fract_y
_atom_site_fract_z
Si Si1 0.000000 0.000000 0.333334
Si Si2 0.120722 0.398577 0.344982
Si Si3 0.550100 0.351843 0.446098
O O1 0.037674 0.188819 0.370306
O O2 0.289904 0.522331 0.393412
O O3 0.192992 0.401089 0.268798
O O4 0.000000 0.500000 0.343025
O O5 0.500000 0.500000 0.477531
O O6 0.639060 0.278120 0.500000
#
# Coordination Sequence:
#
# PCOD9584119 Si02
#       3
#     3  12  12
#     4  12  20  42  74  98 132 184 228 296 338 416
#     4  11  23  42  69  98 133 178 229 282 348 416
#     4  11  22  43  65  92 135 176 217 276 348 411
#
# _framework density 22.531887000000001
#
# number of rings (size 3 to 8) (size 9 to 14) (size 15 to 20)
#    0.000    0.889    4.444    5.333    0.000    0.889 
#    0.000    1.111    0.000    0.000    0.000    0.000 
#    0.000    0.000    0.000    0.000    0.000    0.000 
#
# Total GULP energy -150491.166006 kJ/mol
# GULP energy per Si atom -5573.746889 kJ/mol
# Density = 2.248060 g / cm^3
# Si number density = 22.531887 Si / 1000 Ang^3
#
#
#
# Elastic Constant Matrix: (Units=GPa)
#
#
# Indices 1 2 3 4 5 6 
#
# 1 111.1088 33.3919 -4.7305 0.0000 0.0000 0.0000
# 2 33.3919 111.1088 -4.7305 0.0000 0.0000 0.0000
# 3 -4.7305 -4.7305 61.1618 0.0000 0.0000 0.0000
# 4 0.0000 0.0000 0.0000 12.6606 0.0000 0.0000
# 5 0.0000 0.0000 0.0000 0.0000 12.6606 0.0000
# 6 0.0000 0.0000 0.0000 0.0000 0.0000 38.8584
#
#
#
# Elastic Compliance Matrix: (Units=1/GPa)
#
#
# Indices 1 2 3 4 5 6 
#
# 1 0.009911 -0.002956 0.000538 0.000000 0.000000 0.000000
# 2 -0.002956 0.009911 0.000538 0.000000 0.000000 0.000000
# 3 0.000538 0.000538 0.016433 0.000000 0.000000 0.000000
# 4 0.000000 0.000000 0.000000 0.078985 0.000000 0.000000
# 5 0.000000 0.000000 0.000000 0.000000 0.078985 0.000000
# 6 0.000000 0.000000 0.000000 0.000000 0.000000 0.025734
#
#
# Mechanical properties :
#
#
# Convention : Reuss Voigt Hill
#
# Bulk Modulus (GPa) = 30.77265 36.80459 33.78862
# Shear Modulus (GPa) = 21.31717 30.13249 25.72483
#
# Velocity S-wave (km/s) = 3.07919 3.66091 3.38258
# Velocity P-wave (km/s) = 5.13117 5.85146 5.50312
#
# Compressibility (1/GPa) = 0.03249639
#
# Stress axis : x y z
#
# Youngs Moduli (GPa) = 100.89379 100.89379 60.85208
#
# Poissons Ratio (x) = 0.29822 -0.03274
# Poissons Ratio (y) = 0.29822 -0.03274
# Poissons Ratio (z) = -0.05428 -0.05428
#
# Static dielectric constant tensor:
#      x y z
#    x 1.943900 0.000000 0.000000 
#    y 0.000000 1.943900 0.000000 
#    z 0.000000 0.000000 1.844850 
# 
# From -- ./inp_files/8150.got.cif
#   From: 2010.05.17/outbox.cif.g08.bks.cpg/sg180_5_cif.got.tgz:8150.got - 2010.05.20 11:43:55.
