data_PCOD9584070
_publ_section_title
;
Structure prediction by ZEFSAII (Michael W. Deem and Ramdas Pophale) SiO2 
 PCOD9584070
Probable space group: P 62 2 2
;
_chemical_formula_sum "Si O2"
_cell_formula_units_Z 96
_cell_length_a 13.985683
_cell_length_b 13.985683
_cell_length_c 28.813870
_cell_angle_alpha 90.000000
_cell_angle_beta 90.000000
_cell_angle_gamma 120.000000
_cell_volume 4880.896345
_symmetry_space_group_name_H-M "P 62 2 2"
_symmetry_group_IT_number 180
_symmetry_cell_setting 'hexagonal'
loop_
_space_group_symop_operation_xyz
x,y,z
x-y,x,1/3+z
-y,x-y,2/3+z
-x,-y,z
-x+y,-x,1/3+z
y,-x+y,2/3+z
x-y,-y,-z
-x,-x+y,1/3-z
y,x,2/3-z
-y,-x,2/3-z
-x+y,y,-z
x,x-y,1/3-z
loop_
_atom_site_type_symbol
_atom_site_label
_atom_site_fract_x
_atom_site_fract_y
_atom_site_fract_z
Si Si1 0.173063 0.816672 0.543861
Si Si2 0.373487 0.929654 0.612553
Si Si3 0.555046 0.424426 0.472040
Si Si4 0.228140 0.684567 0.901633
Si Si5 0.015894 0.392275 0.382176
Si Si6 0.167626 0.829520 0.432649
Si Si7 0.543216 0.229217 0.619985
Si Si8 0.118868 0.019812 0.444087
O O1 0.285752 0.895182 0.571641
O O2 0.151498 0.692466 0.547886
O O3 0.176242 0.829166 0.488246
O O4 0.090930 0.860528 0.561489
O O5 0.353585 0.978430 0.660227
O O6 0.378266 0.821097 0.628940
O O7 0.500000 0.000000 0.596498
O O8 0.500000 0.500000 0.474368
O O9 0.604841 0.424570 0.522967
O O10 0.666424 0.468987 0.442511
O O11 0.132299 0.696729 0.925790
O O12 0.269339 0.618799 0.932907
O O13 0.000000 0.500000 0.385635
O O14 0.925715 0.286280 0.410357
O O15 0.280411 0.841433 0.413103
O O16 0.141993 0.927143 0.422035
O O17 0.493653 0.246827 0.666667
O O18 0.107892 0.000000 0.500000
O O19 0.000000 0.000000 0.428151
#
# Coordination Sequence:
#
# PCOD9584070 Si02
#       8
#    12  12  12  12  12  12  12  12
#     4  11  21  39  61  91 129 159 210 274 323 390
#     4  11  23  36  59  94 131 169 210 259 331 409
#     4  11  23  38  61  94 130 169 217 272 336 394
#     4  11  21  37  61  92 127 172 214 267 327 387
#     4  11  20  39  62  93 129 167 221 268 317 403
#     4  11  22  37  64  89 123 167 211 270 320 382
#     4  12  20  36  61  89 130 166 206 257 324 396
#     4   9  21  40  61  87 116 159 207 257 320 379
#
# _framework density 19.668520000000001
#
# number of rings (size 3 to 8) (size 9 to 14) (size 15 to 20)
#    0.000    1.125    5.000    2.625    0.000    1.500 
#    0.000    3.125    0.000    8.250    0.000    0.000 
#    0.000    0.000    0.000    0.000    0.000    0.000 
#
# Total GULP energy -535182.089284 kJ/mol
# GULP energy per Si atom -5574.813430 kJ/mol
# Density = 1.962375 g / cm^3
# Si number density = 19.668520 Si / 1000 Ang^3
#
#
#
# Elastic Constant Matrix: (Units=GPa)
#
#
# Indices 1 2 3 4 5 6 
#
# 1 108.2363 43.4682 38.7926 0.0000 0.0000 0.0000
# 2 43.4682 108.2363 38.7926 0.0000 0.0000 0.0000
# 3 38.7926 38.7926 77.5303 0.0000 0.0000 0.0000
# 4 0.0000 0.0000 0.0000 20.2026 0.0000 0.0000
# 5 0.0000 0.0000 0.0000 0.0000 20.2026 0.0000
# 6 0.0000 0.0000 0.0000 0.0000 0.0000 32.3840
#
#
#
# Elastic Compliance Matrix: (Units=1/GPa)
#
#
# Indices 1 2 3 4 5 6 
#
# 1 0.012149 -0.003291 -0.004432 0.000000 0.000000 0.000000
# 2 -0.003291 0.012149 -0.004432 0.000000 0.000000 0.000000
# 3 -0.004432 -0.004432 0.017334 0.000000 0.000000 0.000000
# 4 0.000000 0.000000 0.000000 0.049499 0.000000 0.000000
# 5 0.000000 0.000000 0.000000 0.000000 0.049499 0.000000
# 6 0.000000 0.000000 0.000000 0.000000 0.000000 0.030879
#
#
# Mechanical properties :
#
#
# Convention : Reuss Voigt Hill
#
# Bulk Modulus (GPa) = 57.73266 59.56774 58.65020
# Shear Modulus (GPa) = 24.80243 26.08782 25.44513
#
# Velocity S-wave (km/s) = 3.55494 3.64589 3.60070
# Velocity P-wave (km/s) = 6.80196 6.93361 6.86810
#
# Compressibility (1/GPa) = 0.01732122
#
# Stress axis : x y z
#
# Youngs Moduli (GPa) = 82.31019 82.31019 57.69082
#
# Poissons Ratio (x) = 0.27084 0.25571
# Poissons Ratio (y) = 0.27084 0.25571
# Poissons Ratio (z) = 0.36484 0.36484
#
# Static dielectric constant tensor:
#      x y z
#    x 1.736610 0.000000 0.000000 
#    y 0.000000 1.736610 0.000000 
#    z 0.000000 0.000000 1.784710 
# 
# From -- ./inp_files/11460.got.cif
#   From: 2010.05.17/outbox.cif.g08.bks.cpg/sg180_6_cif.got.tgz:11460.got - 2010.05.20 11:43:55.
