data_PCOD9584134
_publ_section_title
;
Structure prediction by ZEFSAII (Michael W. Deem and Ramdas Pophale) SiO2 
 PCOD9584134
Probable space group: P 62 2 2
;
_chemical_formula_sum "Si O2"
_cell_formula_units_Z 45
_cell_length_a 11.859661
_cell_length_b 11.859661
_cell_length_c 19.072342
_cell_angle_alpha 90.000000
_cell_angle_beta 90.000000
_cell_angle_gamma 120.000000
_cell_volume 2323.160462
_symmetry_space_group_name_H-M "P 62 2 2"
_symmetry_group_IT_number 180
_symmetry_cell_setting 'hexagonal'
loop_
_space_group_symop_operation_xyz
x,y,z
x-y,x,1/3+z
-y,x-y,2/3+z
-x,-y,z
-x+y,-x,1/3+z
y,-x+y,2/3+z
x-y,-y,-z
-x,-x+y,1/3-z
y,x,2/3-z
-y,-x,2/3-z
-x+y,y,-z
x,x-y,1/3-z
loop_
_atom_site_type_symbol
_atom_site_label
_atom_site_fract_x
_atom_site_fract_y
_atom_site_fract_z
Si Si1 0.815468 0.184532 0.333334
Si Si2 0.240194 0.745978 0.481985
Si Si3 0.000000 0.000000 0.500000
Si Si4 0.258404 0.081745 0.415586
Si Si5 0.000000 0.327921 0.666667
Si Si6 0.500000 0.000000 0.116356
O O1 0.792796 0.254071 0.400014
O O2 0.954787 0.228907 0.295849
O O3 0.378573 0.757146 0.500000
O O4 0.231838 0.862757 0.523249
O O5 0.121678 0.610248 0.509382
O O6 0.127166 0.071209 0.449715
O O7 0.312298 0.195195 0.359537
O O8 0.047794 0.426694 0.602377
#
# Coordination Sequence:
#
# PCOD9584134 Si02
#       6
#     6  12   3  12   6   6
#     4  12  24  43  66  99 132 196 224 282 380 399
#     4  11  26  45  65  98 141 178 237 298 346 441
#     4  12  20  42  66 104 146 168 220 288 338 428
#     4  11  23  41  67 103 138 176 228 292 352 429
#     4   9  20  39  68  92 132 165 224 283 352 410
#     4   9  22  44  64  94 121 182 228 286 349 406
#
# _framework density 19.370165
#
# number of rings (size 3 to 8) (size 9 to 14) (size 15 to 20)
#    0.000    1.333    2.667    1.600    0.000   10.667 
#    4.800    0.000    0.000    0.000    0.000    0.000 
#    0.000    0.000    0.000    0.000    0.000    0.000 
#
# Total GULP energy -250565.609616 kJ/mol
# GULP energy per Si atom -5568.124658 kJ/mol
# Density = 1.932608 g / cm^3
# Si number density = 19.370165 Si / 1000 Ang^3
#
#
#
# Elastic Constant Matrix: (Units=GPa)
#
#
# Indices 1 2 3 4 5 6 
#
# 1 131.3604 84.0207 91.1489 0.0000 0.0000 0.0000
# 2 84.0207 131.3604 91.1489 0.0000 0.0000 0.0000
# 3 91.1489 91.1489 196.1553 0.0000 0.0000 0.0000
# 4 0.0000 0.0000 0.0000 11.9289 0.0000 0.0000
# 5 0.0000 0.0000 0.0000 0.0000 11.9289 0.0000
# 6 0.0000 0.0000 0.0000 0.0000 0.0000 23.6699
#
#
#
# Elastic Compliance Matrix: (Units=1/GPa)
#
#
# Indices 1 2 3 4 5 6 
#
# 1 0.014388 -0.006736 -0.003556 0.000000 0.000000 0.000000
# 2 -0.006736 0.014388 -0.003556 0.000000 0.000000 0.000000
# 3 -0.003556 -0.003556 0.008403 0.000000 0.000000 0.000000
# 4 0.000000 0.000000 0.000000 0.083830 0.000000 0.000000
# 5 0.000000 0.000000 0.000000 0.000000 0.083830 0.000000
# 6 0.000000 0.000000 0.000000 0.000000 0.000000 0.042248
#
#
# Mechanical properties :
#
#
# Convention : Reuss Voigt Hill
#
# Bulk Modulus (GPa) = 105.43937 110.16810 107.80374
# Shear Modulus (GPa) = 17.98924 22.34272 20.16598
#
# Velocity S-wave (km/s) = 3.05078 3.39995 3.23008
# Velocity P-wave (km/s) = 8.18301 8.50949 8.34785
#
# Compressibility (1/GPa) = 0.00948412
#
# Stress axis : x y z
#
# Youngs Moduli (GPa) = 69.50075 69.50075 119.00721
#
# Poissons Ratio (x) = 0.46813 0.42320
# Poissons Ratio (y) = 0.46813 0.42320
# Poissons Ratio (z) = 0.24715 0.24715
#
# Static dielectric constant tensor:
#      x y z
#    x 1.681430 0.000000 0.000000 
#    y 0.000000 1.681430 0.000000 
#    z 0.000000 0.000000 1.769610 
# 
# From -- ./inp_files/7461.got.cif
#   From: 2010.05.17/outbox.cif.g08.bks.cpg/sg180_4_cif.got.tgz:7461.got - 2010.05.20 11:43:55.
