data_PCOD9584521
_publ_section_title
;
Structure prediction by ZEFSAII (Michael W. Deem and Ramdas Pophale) SiO2 
 PCOD9584521
Probable space group: P 64 2 2
;
_chemical_formula_sum "Si O2"
_cell_formula_units_Z 84
_cell_length_a 18.165061
_cell_length_b 18.165061
_cell_length_c 14.668843
_cell_angle_alpha 90.000000
_cell_angle_beta 90.000000
_cell_angle_gamma 120.000000
_cell_volume 4191.796718
_symmetry_space_group_name_H-M "P 64 2 2"
_symmetry_group_IT_number 181
_symmetry_cell_setting 'hexagonal'
loop_
_space_group_symop_operation_xyz
x,y,z
x-y,x,2/3+z
-y,x-y,1/3+z
-x,-y,z
-x+y,-x,2/3+z
y,-x+y,1/3+z
x-y,-y,-z
-x,-x+y,2/3-z
y,x,1/3-z
-y,-x,1/3-z
-x+y,y,-z
x,x-y,2/3-z
loop_
_atom_site_type_symbol
_atom_site_label
_atom_site_fract_x
_atom_site_fract_y
_atom_site_fract_z
Si Si1 0.000059 0.854129 0.944240
Si Si2 0.804108 0.735519 0.734024
Si Si3 0.163408 0.748824 0.983595
Si Si4 0.905631 0.368108 0.814578
Si Si5 0.987753 0.715908 0.073700
Si Si6 0.340493 0.738687 0.262390
Si Si7 0.465137 0.312155 0.379788
O O1 0.000000 0.856656 0.833334
O O2 0.100654 0.907255 0.963491
O O3 0.941649 0.883298 0.000000
O O4 0.969128 0.759766 0.986604
O O5 0.737282 0.737282 0.666667
O O6 0.800808 0.646943 0.712273
O O7 0.783124 0.758496 0.834483
O O8 0.218385 0.713684 0.034972
O O9 0.078039 0.723667 0.044890
O O10 0.148812 0.705847 0.883876
O O11 0.890203 0.445102 0.833334
O O12 0.897928 0.361516 0.708192
O O13 0.000000 0.390475 0.833334
O O14 0.915200 0.619377 0.095966
O O15 0.304193 0.695808 0.166667
O O16 0.337002 0.668501 0.333334
O O17 0.440888 0.805554 0.246793
O O18 0.453286 0.226643 0.333334
#
# Coordination Sequence:
#
# PCOD9584521 Si02
#       7
#    12  12  12  12  12  12  12
#     4  11  23  44  70 106 147 181 225 284 356 423
#     4  11  27  45  69  97 137 187 245 290 340 417
#     4  11  25  43  73  95 142 189 231 297 359 420
#     4  11  21  38  64 104 140 170 216 287 362 434
#     4  11  24  41  69 105 139 183 233 282 359 425
#     4  11  28  46  67  98 135 185 239 289 356 431
#     4  11  23  37  67  99 143 176 224 284 349 426
#
# _framework density 20.039141000000001
#
# number of rings (size 3 to 8) (size 9 to 14) (size 15 to 20)
#    0.000    1.000    4.286    1.286   12.000    2.571 
#    0.000    0.714    0.000    0.429    0.000    0.000 
#    0.000    0.000    0.000    0.000    0.000    0.000 
#
# Total GULP energy -467740.801708 kJ/mol
# GULP energy per Si atom -5568.342877 kJ/mol
# Density = 1.999353 g / cm^3
# Si number density = 20.039141 Si / 1000 Ang^3
#
#
#
# Elastic Constant Matrix: (Units=GPa)
#
#
# Indices 1 2 3 4 5 6 
#
# 1 98.8699 42.3190 26.9763 0.0000 0.0000 0.0000
# 2 42.3190 98.8699 26.9763 0.0000 0.0000 0.0000
# 3 26.9763 26.9763 96.7980 0.0000 0.0000 0.0000
# 4 0.0000 0.0000 0.0000 -43.6947 0.0000 0.0000
# 5 0.0000 0.0000 0.0000 0.0000 -43.6947 0.0000
# 6 0.0000 0.0000 0.0000 0.0000 0.0000 28.2754
#
#
#
# Elastic Compliance Matrix: (Units=1/GPa)
#
#
# Indices 1 2 3 4 5 6 
#
# 1 0.012805 -0.004878 -0.002209 0.000000 0.000000 0.000000
# 2 -0.004878 0.012805 -0.002209 0.000000 0.000000 0.000000
# 3 -0.002209 -0.002209 0.011562 0.000000 0.000000 0.000000
# 4 0.000000 0.000000 0.000000 -0.022886 0.000000 0.000000
# 5 0.000000 0.000000 0.000000 0.000000 -0.022886 0.000000
# 6 0.000000 0.000000 0.000000 0.000000 0.000000 0.035366
#
#
# Mechanical properties :
#
#
# Convention : Reuss Voigt Hill
#
# Bulk Modulus (GPa) = 53.82305 54.12009 53.97157
# Shear Modulus (GPa) = 96.98876 1.39493 49.19185
#
# Velocity S-wave (km/s) = 6.96453 0.83523 4.95996
# Velocity P-wave (km/s) = 9.57028 5.29112 7.73260
#
# Compressibility (1/GPa) = 0.01857940
#
# Stress axis : x y z
#
# Youngs Moduli (GPa) = 78.09426 78.09426 86.48952
#
# Poissons Ratio (x) = 0.38096 0.19107
# Poissons Ratio (y) = 0.38096 0.19107
# Poissons Ratio (z) = 0.17252 0.17252
#
# Static dielectric constant tensor:
#      x y z
#    x 1.981420 0.000000 0.000000 
#    y 0.000000 1.981420 0.000000 
#    z 0.000000 0.000000 1.679420 
# 
# From -- ./inp_files/6493.got.cif
#   From: 2010.05.17/outbox.cif.g08.bks.cpg/sg181_4_cif.got.tgz:6493.got - 2010.05.20 11:51:17.
