data_PCOD9584640
_publ_section_title
;
Structure prediction by ZEFSAII (Michael W. Deem and Ramdas Pophale) SiO2 
 PCOD9584640
Probable space group: P 63 2 2
;
_chemical_formula_sum "Si O2"
_cell_formula_units_Z 72
_cell_length_a 24.392341
_cell_length_b 24.392341
_cell_length_c 8.527993
_cell_angle_alpha 90.000000
_cell_angle_beta 90.000000
_cell_angle_gamma 120.000000
_cell_volume 4394.246671
_symmetry_space_group_name_H-M "P 63 2 2"
_symmetry_group_IT_number 182
_symmetry_cell_setting 'hexagonal'
loop_
_space_group_symop_operation_xyz
x,y,z
x-y,x,1/2+z
-y,x-y,z
-x,-y,1/2+z
-x+y,-x,z
y,-x+y,1/2+z
x-y,-y,-z
-x,-x+y,-z
y,x,-z
-y,-x,1/2-z
-x+y,y,1/2-z
x,x-y,1/2-z
loop_
_atom_site_type_symbol
_atom_site_label
_atom_site_fract_x
_atom_site_fract_y
_atom_site_fract_z
Si Si1 0.071711 0.143422 0.936974
Si Si2 0.595031 0.072219 0.439228
Si Si3 0.927989 0.285216 0.061032
Si Si4 0.143272 0.286544 0.436277
Si Si5 0.927781 0.404969 0.439228
Si Si6 0.357227 0.072011 0.438968
O O1 0.070204 0.140408 0.750000
O O2 0.108372 0.108372 0.000000
O O3 0.108247 0.216496 0.989865
O O4 0.000000 0.108370 0.000000
O O5 0.667781 0.098677 0.486257
O O6 0.550342 0.100684 0.490152
O O7 0.594454 0.071098 0.250000
O O8 0.558828 0.000000 0.500000
O O9 0.927825 0.281429 0.250000
O O10 0.890345 0.215738 0.991013
O O11 0.000000 0.318338 0.000000
O O12 0.139766 0.279531 0.250000
O O13 0.109655 0.325392 0.491014
O O14 0.901323 0.332219 0.486257
O O15 0.000000 0.441171 0.500000
O O16 0.318338 0.000000 0.500000
#
# Coordination Sequence:
#
# PCOD9584640 Si02
#       6
#    12  12  12  12  12  12
#     4  12  25  43  62  80  99 124 164 214 270 324
#     4   8  14  25  43  67  94 122 150 180 217 264
#     4  10  19  32  49  70  97 128 161 197 242 292
#     4  12  24  37  51  70  98 132 169 208 254 306
#     4   8  14  25  43  67  94 122 150 180 217 264
#     4  10  19  32  49  70  97 128 161 197 242 292
#
# _framework density 16.385062000000001
#
# number of rings (size 3 to 8) (size 9 to 14) (size 15 to 20)
#    0.000    2.000    0.000    5.167    0.000    1.333 
#    0.000    0.000    0.000    0.000    0.000    0.000 
#    1.667    0.000    3.000    0.000    1.000    0.000 
#
# Total GULP energy -401218.294091 kJ/mol
# GULP energy per Si atom -5572.476307 kJ/mol
# Density = 1.634777 g / cm^3
# Si number density = 16.385062 Si / 1000 Ang^3
#
#
#
# Elastic Constant Matrix: (Units=GPa)
#
#
# Indices 1 2 3 4 5 6 
#
# 1 129.3511 83.5092 41.7685 0.0000 0.0000 0.0000
# 2 83.5092 129.3511 41.7685 0.0000 0.0000 0.0000
# 3 41.7685 41.7685 88.5340 0.0000 0.0000 0.0000
# 4 0.0000 0.0000 0.0000 14.2201 0.0000 0.0000
# 5 0.0000 0.0000 0.0000 0.0000 14.2201 0.0000
# 6 0.0000 0.0000 0.0000 0.0000 0.0000 22.9210
#
#
#
# Elastic Compliance Matrix: (Units=1/GPa)
#
#
# Indices 1 2 3 4 5 6 
#
# 1 0.013790 -0.008024 -0.002720 0.000000 0.000000 0.000000
# 2 -0.008024 0.013790 -0.002720 0.000000 0.000000 0.000000
# 3 -0.002720 -0.002720 0.013862 0.000000 0.000000 0.000000
# 4 0.000000 0.000000 0.000000 0.070323 0.000000 0.000000
# 5 0.000000 0.000000 0.000000 0.000000 0.070323 0.000000
# 6 0.000000 0.000000 0.000000 0.000000 0.000000 0.043628
#
#
# Mechanical properties :
#
#
# Convention : Reuss Voigt Hill
#
# Bulk Modulus (GPa) = 68.90671 75.70317 72.30494
# Shear Modulus (GPa) = 19.41887 22.28489 20.85188
#
# Velocity S-wave (km/s) = 3.44635 3.69192 3.57124
# Velocity P-wave (km/s) = 7.61461 8.02973 7.82492
#
# Compressibility (1/GPa) = 0.01451238
#
# Stress axis : x y z
#
# Youngs Moduli (GPa) = 72.51772 72.51772 72.14194
#
# Poissons Ratio (x) = 0.58191 0.19622
# Poissons Ratio (y) = 0.58191 0.19622
# Poissons Ratio (z) = 0.19725 0.19725
#
# Static dielectric constant tensor:
#      x y z
#    x 1.562280 0.000000 0.000000 
#    y 0.000000 1.562280 0.000000 
#    z 0.000000 0.000000 1.552250 
# 
# From -- ./inp_files/1895.got.cif
#   From: 2010.05.17/outbox.cif.g08.bks.cpg/sg182_1_cif.got.tgz:1895.got - 2010.05.20 11:58:53.
