data_PCOD9584474
_publ_section_title
;
Structure prediction by ZEFSAII (Michael W. Deem and Ramdas Pophale) SiO2 
 PCOD9584474
Probable space group: P 64 2 2
;
_chemical_formula_sum "Si O2"
_cell_formula_units_Z 54
_cell_length_a 11.568060
_cell_length_b 11.568060
_cell_length_c 21.817862
_cell_angle_alpha 90.000000
_cell_angle_beta 90.000000
_cell_angle_gamma 120.000000
_cell_volume 2528.505410
_symmetry_space_group_name_H-M "P 64 2 2"
_symmetry_group_IT_number 181
_symmetry_cell_setting 'hexagonal'
loop_
_space_group_symop_operation_xyz
x,y,z
x-y,x,2/3+z
-y,x-y,1/3+z
-x,-y,z
-x+y,-x,2/3+z
y,-x+y,1/3+z
x-y,-y,-z
-x,-x+y,2/3-z
y,x,1/3-z
-y,-x,1/3-z
-x+y,y,-z
x,x-y,2/3-z
loop_
_atom_site_type_symbol
_atom_site_label
_atom_site_fract_x
_atom_site_fract_y
_atom_site_fract_z
Si Si1 0.500000 0.000000 0.000000
Si Si2 0.328055 0.164028 0.333334
Si Si3 0.500000 0.000000 0.500000
Si Si4 0.258714 0.517428 0.500000
Si Si5 0.959287 0.327111 0.449314
Si Si6 0.079528 0.154321 0.273525
Si Si7 0.740700 0.492482 0.888894
O O1 0.556793 0.937054 0.050681
O O2 0.226605 0.197742 0.297406
O O3 0.425191 0.166473 0.280950
O O4 0.626176 0.109992 0.541233
O O5 0.107320 0.422575 0.476261
O O6 0.280025 0.620073 0.555822
O O7 0.932578 0.178315 0.442351
O O8 0.850500 0.308274 0.498254
O O9 0.000000 0.156851 0.333334
O O10 0.000000 0.000000 0.254241
#
# Coordination Sequence:
#
# PCOD9584474 Si02
#       7
#     3   6   3   6  12  12  12
#     4  12  24  42  68 104 130 196 224 312 362 432
#     4  10  23  45  68 106 138 186 236 302 372 430
#     4  10  24  48  70 102 142 192 226 302 362 430
#     4  11  26  43  67 104 137 192 246 296 359 444
#     4  12  24  45  70  99 147 185 244 296 364 440
#     4   9  21  40  64 104 135 178 239 293 365 427
#     4  11  24  47  67 104 142 186 248 288 366 448
#
# _framework density 21.356489
#
# number of rings (size 3 to 8) (size 9 to 14) (size 15 to 20)
#    0.000    1.556    3.333    1.333    6.222    0.889 
#    4.000    0.000    0.000    0.000    0.000    0.000 
#    0.000    0.000    0.000    0.000    0.000    0.000 
#
# Total GULP energy -300782.470724 kJ/mol
# GULP energy per Si atom -5570.045754 kJ/mol
# Density = 2.130788 g / cm^3
# Si number density = 21.356489 Si / 1000 Ang^3
#
#
#
# Elastic Constant Matrix: (Units=GPa)
#
#
# Indices 1 2 3 4 5 6 
#
# 1 754.5825 -571.5552 41.5958 0.0000 0.0000 0.0000
# 2 -571.5552 754.5825 41.5958 0.0000 0.0000 0.0000
# 3 41.5958 41.5958 93.8811 0.0000 0.0000 0.0000
# 4 0.0000 0.0000 0.0000 85.6359 0.0000 0.0000
# 5 0.0000 0.0000 0.0000 0.0000 85.6359 0.0000
# 6 0.0000 0.0000 0.0000 0.0000 0.0000 663.0688
#
#
#
# Elastic Compliance Matrix: (Units=1/GPa)
#
#
# Indices 1 2 3 4 5 6 
#
# 1 0.003798 0.003044 -0.003031 0.000000 0.000000 0.000000
# 2 0.003044 0.003798 -0.003031 0.000000 0.000000 0.000000
# 3 -0.003031 -0.003031 0.013338 0.000000 0.000000 0.000000
# 4 0.000000 0.000000 0.000000 0.011677 0.000000 0.000000
# 5 0.000000 0.000000 0.000000 0.000000 0.011677 0.000000
# 6 0.000000 0.000000 0.000000 0.000000 0.000000 0.001508
#
#
# Mechanical properties :
#
#
# Convention : Reuss Voigt Hill
#
# Bulk Modulus (GPa) = 67.13285 69.59097 68.36191
# Shear Modulus (GPa) = 88.02963 306.29542 197.16253
#
# Velocity S-wave (km/s) = 6.42718 11.98881 9.61874
# Velocity P-wave (km/s) = 9.30488 14.97659 12.46754
#
# Compressibility (1/GPa) = 0.01489584
#
# Stress axis : x y z
#
# Youngs Moduli (GPa) = 263.31296 263.31296 74.97454
#
# Poissons Ratio (x) = -0.80144 0.22727
# Poissons Ratio (y) = -0.80144 0.22727
# Poissons Ratio (z) = 0.79816 0.79816
#
# Static dielectric constant tensor:
#      x y z
#    x 1.620610 0.000000 0.000000 
#    y 0.000000 1.620610 0.000000 
#    z 0.000000 0.000000 1.701720 
# 
# From -- ./inp_files/8897.got.cif
#   From: 2010.05.17/outbox.cif.g08.bks.cpg/sg181_5_cif.got.tgz:8897.got - 2010.05.20 11:51:17.
