data_PCOD9584504
_publ_section_title
;
Structure prediction by ZEFSAII (Michael W. Deem and Ramdas Pophale) SiO2 
 PCOD9584504
Probable space group: P 64 2 2
;
_chemical_formula_sum "Si O2"
_cell_formula_units_Z 48
_cell_length_a 12.537768
_cell_length_b 12.537768
_cell_length_c 16.587814
_cell_angle_alpha 90.000000
_cell_angle_beta 90.000000
_cell_angle_gamma 120.000000
_cell_volume 2258.188791
_symmetry_space_group_name_H-M "P 64 2 2"
_symmetry_group_IT_number 181
_symmetry_cell_setting 'hexagonal'
loop_
_space_group_symop_operation_xyz
x,y,z
x-y,x,2/3+z
-y,x-y,1/3+z
-x,-y,z
-x+y,-x,2/3+z
y,-x+y,1/3+z
x-y,-y,-z
-x,-x+y,2/3-z
y,x,1/3-z
-y,-x,1/3-z
-x+y,y,-z
x,x-y,2/3-z
loop_
_atom_site_type_symbol
_atom_site_label
_atom_site_fract_x
_atom_site_fract_y
_atom_site_fract_z
Si Si1 0.290165 0.709836 0.666667
Si Si2 0.769336 0.779783 0.932987
Si Si3 0.000000 0.500000 0.333334
Si Si4 0.895211 0.642372 0.897747
Si Si5 0.000000 0.000000 0.000000
Si Si6 0.739647 0.519382 0.586676
O O1 0.285973 0.793281 0.593954
O O2 0.239866 0.567562 0.647505
O O3 0.815615 0.708264 0.874246
O O4 0.649618 0.786424 0.914132
O O5 0.745271 0.711002 0.019682
O O6 0.883962 0.914349 0.945456
O O7 0.092904 0.619882 0.280202
O O8 0.000000 0.666009 0.833334
O O9 0.729156 0.458312 0.500000
#
# Coordination Sequence:
#
# PCOD9584504 Si02
#       6
#     6  12   3  12   3  12
#     4   9  23  43  60  95 129 165 228 270 318 413
#     4   9  20  35  57  91 122 155 206 254 306 390
#     4  10  26  44  62  98 128 162 228 270 324 416
#     4   9  20  38  63  91 124 161 204 265 322 377
#     4   8  16  36  56  82 122 150 190 250 298 358
#     4  11  24  42  65  89 127 172 211 272 336 392
#
# _framework density 21.255973000000001
#
# number of rings (size 3 to 8) (size 9 to 14) (size 15 to 20)
#    0.000    3.000    0.000    0.750    0.000   18.000 
#    0.000    6.875    0.000    0.000    0.000    1.750 
#    0.000    0.000    0.000    0.000    0.000    0.000 
#
# Total GULP energy -267671.168271 kJ/mol
# GULP energy per Si atom -5576.482672 kJ/mol
# Density = 2.120759 g / cm^3
# Si number density = 21.255973 Si / 1000 Ang^3
#
#
#
# Elastic Constant Matrix: (Units=GPa)
#
#
# Indices 1 2 3 4 5 6 
#
# 1 135.1325 87.4168 29.9360 0.0000 0.0000 0.0000
# 2 87.4168 135.1325 29.9360 0.0000 0.0000 0.0000
# 3 29.9360 29.9360 44.5859 0.0000 0.0000 0.0000
# 4 0.0000 0.0000 0.0000 19.7014 0.0000 0.0000
# 5 0.0000 0.0000 0.0000 0.0000 19.7014 0.0000
# 6 0.0000 0.0000 0.0000 0.0000 0.0000 23.8579
#
#
#
# Elastic Compliance Matrix: (Units=1/GPa)
#
#
# Indices 1 2 3 4 5 6 
#
# 1 0.013221 -0.007737 -0.003682 0.000000 0.000000 0.000000
# 2 -0.007737 0.013221 -0.003682 0.000000 0.000000 0.000000
# 3 -0.003682 -0.003682 0.027373 0.000000 0.000000 0.000000
# 4 0.000000 0.000000 0.000000 0.050758 0.000000 0.000000
# 5 0.000000 0.000000 0.000000 0.000000 0.050758 0.000000
# 6 0.000000 0.000000 0.000000 0.000000 0.000000 0.041915
#
#
# Mechanical properties :
#
#
# Convention : Reuss Voigt Hill
#
# Bulk Modulus (GPa) = 42.35003 67.71425 55.03214
# Shear Modulus (GPa) = 21.24789 23.82295 22.53542
#
# Velocity S-wave (km/s) = 3.16511 3.35142 3.25959
# Velocity P-wave (km/s) = 5.77272 6.84848 6.33348
#
# Compressibility (1/GPa) = 0.02361273
#
# Stress axis : x y z
#
# Youngs Moduli (GPa) = 75.63892 75.63892 36.53234
#
# Poissons Ratio (x) = 0.58520 0.13451
# Poissons Ratio (y) = 0.58520 0.13451
# Poissons Ratio (z) = 0.27851 0.27851
#
# Static dielectric constant tensor:
#      x y z
#    x 1.798640 0.000000 0.000000 
#    y 0.000000 1.798640 0.000000 
#    z 0.000000 0.000000 1.642620 
# 
# From -- ./inp_files/8733.got.cif
#   From: 2010.05.17/outbox.cif.g08.bks.cpg/sg181_5_cif.got.tgz:8733.got - 2010.05.20 11:51:17.
