data_PCOD9584670
_publ_section_title
;
Structure prediction by ZEFSAII (Michael W. Deem and Ramdas Pophale) SiO2 
 PCOD9584670
Probable space group: P 63 2 2
;
_chemical_formula_sum "Si O2"
_cell_formula_units_Z 28
_cell_length_a 13.266266
_cell_length_b 13.266266
_cell_length_c 10.162572
_cell_angle_alpha 90.000000
_cell_angle_beta 90.000000
_cell_angle_gamma 120.000000
_cell_volume 1548.929565
_symmetry_space_group_name_H-M "P 63 2 2"
_symmetry_group_IT_number 182
_symmetry_cell_setting 'hexagonal'
loop_
_space_group_symop_operation_xyz
x,y,z
x-y,x,1/2+z
-y,x-y,z
-x,-y,1/2+z
-x+y,-x,z
y,-x+y,1/2+z
x-y,-y,-z
-x,-x+y,-z
y,x,-z
-y,-x,1/2-z
-x+y,y,1/2-z
x,x-y,1/2-z
loop_
_atom_site_type_symbol
_atom_site_label
_atom_site_fract_x
_atom_site_fract_y
_atom_site_fract_z
Si Si1 0.417478 0.283691 0.495014
Si Si2 0.133501 0.866500 0.750000
Si Si3 0.859134 0.718268 0.750000
Si Si4 0.666667 0.333335 0.089510
O O1 0.386928 0.386928 0.500000
O O2 0.345972 0.199613 0.374670
O O3 0.364294 0.209120 0.627276
O O4 0.551427 0.329299 0.466113
O O5 0.995935 0.803345 0.777761
O O6 0.666668 0.333334 0.250000
#
# Coordination Sequence:
#
# PCOD9584670 Si02
#       4
#    12   6   6   4
#     4  10  23  40  61  91 122 161 208 257 300 365
#     4  10  19  38  60  92 127 172 200 250 316 362
#     4  10  21  36  62  94 131 160 210 256 300 364
#     4  12  24  46  68  88 120 172 203 247 324 367
#
# _framework density 18.077000999999999
#
# number of rings (size 3 to 8) (size 9 to 14) (size 15 to 20)
#    0.000    1.714    2.143    1.714    0.000    5.143 
#    0.000    4.286    0.000    0.000    0.000    0.000 
#    0.000    0.000    0.000    0.000    0.000    0.000 
#
# Total GULP energy -156358.429710 kJ/mol
# GULP energy per Si atom -5584.229632 kJ/mol
# Density = 1.803586 g / cm^3
# Si number density = 18.077001 Si / 1000 Ang^3
#
#
#
# Elastic Constant Matrix: (Units=GPa)
#
#
# Indices 1 2 3 4 5 6 
#
# 1 137.1496 107.2168 72.8249 0.0000 -0.0001 -0.0001
# 2 107.2168 137.1476 72.8250 -0.0002 0.0006 -0.0002
# 3 72.8249 72.8250 111.7244 0.0001 -0.0002 0.0000
# 4 0.0000 -0.0002 0.0001 13.9763 -0.0004 -0.0003
# 5 -0.0001 0.0006 -0.0002 -0.0004 13.9770 -0.0001
# 6 -0.0001 -0.0002 0.0000 -0.0003 -0.0001 14.9670
#
#
#
# Elastic Compliance Matrix: (Units=1/GPa)
#
#
# Indices 1 2 3 4 5 6 
#
# 1 0.020051 -0.013359 -0.004362 0.000000 0.000001 0.000000
# 2 -0.013359 0.020051 -0.004362 0.000000 -0.000001 0.000000
# 3 -0.004362 -0.004362 0.014637 0.000000 0.000000 0.000000
# 4 0.000000 0.000000 0.000000 0.071550 0.000002 0.000002
# 5 0.000001 -0.000001 0.000000 0.000002 0.071546 0.000000
# 6 0.000000 0.000000 0.000000 0.000002 0.000000 0.066814
#
#
# Mechanical properties :
#
#
# Convention : Reuss Voigt Hill
#
# Bulk Modulus (GPa) = 94.57946 99.08392 96.83169
# Shear Modulus (GPa) = 16.00825 17.46103 16.73464
#
# Velocity S-wave (km/s) = 2.97906 3.11131 3.04590
# Velocity P-wave (km/s) = 8.01667 8.23639 8.12727
#
# Compressibility (1/GPa) = 0.01057312
#
# Stress axis : x y z
#
# Youngs Moduli (GPa) = 49.87395 49.87279 68.31831
#
# Poissons Ratio (x) = 0.66623 0.29801
# Poissons Ratio (y) = 0.66624 0.29803
# Poissons Ratio (z) = 0.21755 0.21756
#
# Static dielectric constant tensor:
#      x y z
#    x 1.605410 0.000000 0.000000 
#    y 0.000000 1.605410 0.000000 
#    z 0.000000 0.000000 1.611550 
# 
# From -- ./inp_files/1125.got.cif
#   From: 2010.05.17/outbox.cif.g08.bks.cpg/sg182_1_cif.got.tgz:1125.got - 2010.05.20 11:58:53.
