data_PCOD9584911
_publ_section_title
;
Structure prediction by ZEFSAII (Michael W. Deem and Ramdas Pophale) SiO2 
 PCOD9584911
Probable space group: P 6 M M
;
_chemical_formula_sum "Si O2"
_cell_formula_units_Z 96
_cell_length_a 24.369403
_cell_length_b 24.369403
_cell_length_c 12.047249
_cell_angle_alpha 90.000000
_cell_angle_beta 90.000000
_cell_angle_gamma 120.000000
_cell_volume 6195.955620
_symmetry_space_group_name_H-M "P 6 M M"
_symmetry_group_IT_number 183
_symmetry_cell_setting 'hexagonal'
loop_
_space_group_symop_operation_xyz
x,y,z
x-y,x,z
-y,x-y,z
-x,-y,z
-x+y,-x,z
y,-x+y,z
-x+y,y,z
x,x-y,z
-y,-x,z
y,x,z
x-y,-y,z
-x,-x+y,z
loop_
_atom_site_type_symbol
_atom_site_label
_atom_site_fract_x
_atom_site_fract_y
_atom_site_fract_z
Si Si1 0.076259 0.475500 0.860990
Si Si2 0.803479 0.071795 0.850230
Si Si3 0.599360 0.522259 0.371125
Si Si4 0.554723 0.630009 0.614907
Si Si5 0.102742 0.772478 0.613010
Si Si6 0.598008 0.862955 0.977648
Si Si7 0.699552 0.075154 0.216002
Si Si8 0.929204 0.196733 0.372252
O O1 0.085240 0.542620 0.899922
O O2 0.095927 0.481392 0.731280
O O3 0.115660 0.449377 0.926368
O O4 0.000000 0.425212 0.868358
O O5 0.876805 0.123196 0.870517
O O6 0.789066 0.074751 0.720048
O O7 0.762476 0.097155 0.914485
O O8 0.780507 0.000000 0.882143
O O9 0.547775 0.452226 0.333110
O O10 0.562792 0.562792 0.374331
O O11 0.620444 0.520169 0.497388
O O12 0.657734 0.561934 0.289769
O O13 0.582714 0.582714 0.611374
O O14 0.613486 0.700990 0.619759
O O15 0.177841 0.822160 0.615428
O O16 0.077039 0.783865 0.497977
O O17 0.578637 0.789319 0.965042
O O18 0.609176 0.884172 0.105415
O O19 0.756519 0.080903 0.291487
O O20 0.655540 0.000000 0.188126
O O21 0.874630 0.125370 0.353962
O O22 0.000000 0.210905 0.354778
#
# Coordination Sequence:
#
# PCOD9584911 Si02
#       8
#    12  12  12  12  12  12  12  12
#     4  10  20  32  50  75 101 129 157 191 235 283
#     4  10  19  31  48  70  96 126 160 200 245 292
#     4   9  17  28  44  68  96 126 156 185 225 276
#     4  10  16  27  46  68  98 127 153 185 226 279
#     4  10  18  27  45  71  95 123 159 198 239 284
#     4  11  22  34  49  69  96 129 164 203 241 283
#     4  10  19  31  47  67  93 128 163 199 238 282
#     4  10  19  31  47  68  94 124 160 201 246 295
#
# _framework density 15.493976999999999
#
# number of rings (size 3 to 8) (size 9 to 14) (size 15 to 20)
#    0.000    2.000    2.500    3.000    0.000    2.000 
#    0.000    1.250    0.000    0.500    0.000    0.000 
#    0.000    3.000    0.000    5.000    0.000    0.250 
#
# Total GULP energy -535238.226267 kJ/mol
# GULP energy per Si atom -5575.398190 kJ/mol
# Density = 1.545871 g / cm^3
# Si number density = 15.493977 Si / 1000 Ang^3
#
#
#
# Elastic Constant Matrix: (Units=GPa)
#
#
# Indices 1 2 3 4 5 6 
#
# 1 84.9008 54.4543 37.8483 0.0000 0.0000 0.0000
# 2 54.4543 84.9008 37.8483 0.0000 0.0000 0.0000
# 3 37.8483 37.8483 89.6825 0.0000 0.0000 0.0000
# 4 0.0000 0.0000 0.0000 7.2272 0.0000 0.0000
# 5 0.0000 0.0000 0.0000 0.0000 7.2272 0.0000
# 6 0.0000 0.0000 0.0000 0.0000 0.0000 15.2232
#
#
#
# Elastic Compliance Matrix: (Units=1/GPa)
#
#
# Indices 1 2 3 4 5 6 
#
# 1 0.021077 -0.011767 -0.003929 0.000000 0.000000 0.000000
# 2 -0.011767 0.021077 -0.003929 0.000000 0.000000 0.000000
# 3 -0.003929 -0.003929 0.014467 0.000000 0.000000 0.000000
# 4 0.000000 0.000000 0.000000 0.138365 0.000000 0.000000
# 5 0.000000 0.000000 0.000000 0.000000 0.138365 0.000000
# 6 0.000000 0.000000 0.000000 0.000000 0.000000 0.065689
#
#
# Mechanical properties :
#
#
# Convention : Reuss Voigt Hill
#
# Bulk Modulus (GPa) = 57.56828 57.75397 57.66113
# Shear Modulus (GPa) = 11.25916 14.55775 12.90846
#
# Velocity S-wave (km/s) = 2.69862 3.06857 2.88953
# Velocity P-wave (km/s) = 6.85172 7.06476 6.95906
#
# Compressibility (1/GPa) = 0.01737068
#
# Stress axis : x y z
#
# Youngs Moduli (GPa) = 47.44422 47.44422 69.12359
#
# Poissons Ratio (x) = 0.55829 0.27160
# Poissons Ratio (y) = 0.55829 0.27160
# Poissons Ratio (z) = 0.18641 0.18641
#
# Static dielectric constant tensor:
#      x y z
#    x 1.507910 0.000000 0.000000 
#    y 0.000000 1.507910 0.000000 
#    z 0.000000 0.000000 1.536320 
# 
# From -- ./inp_files/2051.got.cif
#   From: 2010.05.17/outbox.cif.g08.bks.cpg/sg183_2_cif.got.tgz:2051.got - 2010.05.20 12:02:58.
