data_PCOD9584270
_publ_section_title
;
Structure prediction by ZEFSAII (Michael W. Deem and Ramdas Pophale) SiO2 
 PCOD9584270
Probable space group: P 64 2 2
;
_chemical_formula_sum "Si O2"
_cell_formula_units_Z 78
_cell_length_a 17.650470
_cell_length_b 17.650470
_cell_length_c 16.000906
_cell_angle_alpha 90.000000
_cell_angle_beta 90.000000
_cell_angle_gamma 120.000000
_cell_volume 4317.056716
_symmetry_space_group_name_H-M "P 64 2 2"
_symmetry_group_IT_number 181
_symmetry_cell_setting 'hexagonal'
loop_
_space_group_symop_operation_xyz
x,y,z
x-y,x,2/3+z
-y,x-y,1/3+z
-x,-y,z
-x+y,-x,2/3+z
y,-x+y,1/3+z
x-y,-y,-z
-x,-x+y,2/3-z
y,x,1/3-z
-y,-x,1/3-z
-x+y,y,-z
x,x-y,2/3-z
loop_
_atom_site_type_symbol
_atom_site_label
_atom_site_fract_x
_atom_site_fract_y
_atom_site_fract_z
Si Si1 0.761131 0.300471 0.812203
Si Si2 0.618114 0.654008 0.575205
Si Si3 0.471179 0.593632 0.451296
Si Si4 0.414796 0.127321 0.785375
Si Si5 0.163288 0.374341 0.734935
Si Si6 0.000000 0.297432 0.833334
Si Si7 0.061284 0.462007 0.946593
O O1 0.718808 0.359404 0.833334
O O2 0.684721 0.211967 0.774936
O O3 0.805008 0.274197 0.887594
O O4 0.840351 0.361678 0.751435
O O5 0.620337 0.620337 0.666667
O O6 0.520488 0.600778 0.537181
O O7 0.682441 0.641394 0.510661
O O8 0.639745 0.753848 0.589332
O O9 0.375413 0.509996 0.443909
O O10 0.534857 0.595876 0.378939
O O11 0.423434 0.211717 0.833334
O O12 0.379036 0.131674 0.692448
O O13 0.084555 0.301791 0.792318
O O14 0.030534 0.368667 0.907311
O O15 0.000000 0.500000 0.918998
#
# Coordination Sequence:
#
# PCOD9584270 Si02
#       7
#    12  12  12  12  12   6  12
#     4  10  20  35  53  79 116 152 198 248 305 356
#     4  11  23  42  58  83 119 158 204 247 298 358
#     4  11  23  35  54  81 114 156 207 254 294 346
#     4  12  23  39  59  80 115 160 208 248 299 357
#     4  10  22  39  59  87 115 152 196 247 302 372
#     4  10  19  34  60  84 113 138 182 242 300 364
#     4  11  19  32  53  79 110 149 188 241 304 362
#
# _framework density 18.067867
#
# number of rings (size 3 to 8) (size 9 to 14) (size 15 to 20)
#    0.000    1.231    1.538    7.154    0.000    1.231 
#    0.000    3.846    0.000    0.000    0.000    0.538 
#    0.000    0.000    0.000    0.000    0.000    0.000 
#
# Total GULP energy -435116.717976 kJ/mol
# GULP energy per Si atom -5578.419461 kJ/mol
# Density = 1.802674 g / cm^3
# Si number density = 18.067867 Si / 1000 Ang^3
#
#
#
# Elastic Constant Matrix: (Units=GPa)
#
#
# Indices 1 2 3 4 5 6 
#
# 1 87.3570 33.7081 41.9244 0.0000 0.0000 0.0000
# 2 33.7081 87.3570 41.9244 0.0000 0.0000 0.0000
# 3 41.9244 41.9244 132.3748 0.0000 0.0000 0.0000
# 4 0.0000 0.0000 0.0000 29.3660 0.0000 0.0000
# 5 0.0000 0.0000 0.0000 0.0000 29.3660 0.0000
# 6 0.0000 0.0000 0.0000 0.0000 0.0000 26.8244
#
#
#
# Elastic Compliance Matrix: (Units=1/GPa)
#
#
# Indices 1 2 3 4 5 6 
#
# 1 0.014610 -0.004029 -0.003351 0.000000 0.000000 0.000000
# 2 -0.004029 0.014610 -0.003351 0.000000 0.000000 0.000000
# 3 -0.003351 -0.003351 0.009677 0.000000 0.000000 0.000000
# 4 0.000000 0.000000 0.000000 0.034053 0.000000 0.000000
# 5 0.000000 0.000000 0.000000 0.000000 0.034053 0.000000
# 6 0.000000 0.000000 0.000000 0.000000 0.000000 0.037279
#
#
# Mechanical properties :
#
#
# Convention : Reuss Voigt Hill
#
# Bulk Modulus (GPa) = 57.35753 60.24475 58.80114
# Shear Modulus (GPa) = 29.14468 29.74671 29.44570
#
# Velocity S-wave (km/s) = 4.02066 4.06197 4.04137
# Velocity P-wave (km/s) = 7.30539 7.44416 7.37510
#
# Compressibility (1/GPa) = 0.01743450
#
# Stress axis : x y z
#
# Youngs Moduli (GPa) = 68.44461 68.44461 103.33819
#
# Poissons Ratio (x) = 0.27579 0.34630
# Poissons Ratio (y) = 0.27579 0.34630
# Poissons Ratio (z) = 0.22936 0.22936
#
# Static dielectric constant tensor:
#      x y z
#    x 1.635080 0.000000 0.000000 
#    y 0.000000 1.635080 0.000000 
#    z 0.000000 0.000000 1.673390 
# 
# From -- ./inp_files/6452.got.cif
#   From: 2010.05.17/outbox.cif.g08.bks.cpg/sg181_4_cif.got.tgz:6452.got - 2010.05.20 11:51:17.
