data_PCOD9584258
_publ_section_title
;
Structure prediction by ZEFSAII (Michael W. Deem and Ramdas Pophale) SiO2 
 PCOD9584258
Probable space group: P 64 2 2
;
_chemical_formula_sum "Si O2"
_cell_formula_units_Z 60
_cell_length_a 18.100150
_cell_length_b 18.100150
_cell_length_c 10.502289
_cell_angle_alpha 90.000000
_cell_angle_beta 90.000000
_cell_angle_gamma 120.000000
_cell_volume 2979.743936
_symmetry_space_group_name_H-M "P 64 2 2"
_symmetry_group_IT_number 181
_symmetry_cell_setting 'hexagonal'
loop_
_space_group_symop_operation_xyz
x,y,z
x-y,x,2/3+z
-y,x-y,1/3+z
-x,-y,z
-x+y,-x,2/3+z
y,-x+y,1/3+z
x-y,-y,-z
-x,-x+y,2/3-z
y,x,1/3-z
-y,-x,1/3-z
-x+y,y,-z
x,x-y,2/3-z
loop_
_atom_site_type_symbol
_atom_site_label
_atom_site_fract_x
_atom_site_fract_y
_atom_site_fract_z
Si Si1 0.574305 0.766353 0.641751
Si Si2 0.121310 0.647215 0.825400
Si Si3 0.717384 0.434768 0.500000
Si Si4 0.580468 0.290234 0.333334
Si Si5 0.798793 0.744048 0.546376
Si Si6 0.257782 0.349887 0.945567
O O1 0.565141 0.850549 0.610605
O O2 0.493047 0.706831 0.728201
O O3 0.654390 0.782151 0.727282
O O4 0.589204 0.729767 0.509553
O O5 0.093019 0.546510 0.833334
O O6 0.213656 0.686463 0.759990
O O7 0.070751 0.671726 0.722199
O O8 0.635624 0.372890 0.418233
O O9 0.792212 0.792212 0.666667
O O10 0.894574 0.789148 0.500000
O O11 0.730928 0.738401 0.442458
O O12 0.164425 0.328849 0.000000
#
# Coordination Sequence:
#
# PCOD9584258 Si02
#       6
#    12  12   6   6  12  12
#     4  10  19  33  57  86 124 167 215 266 303 372
#     4  11  19  34  55  93 129 172 221 272 311 368
#     4  12  20  28  52  88 124 173 225 262 304 350
#     4  12  20  28  50  88 127 170 229 266 306 348
#     4  10  21  41  69  97 121 162 210 257 323 408
#     4   9  20  38  62  92 128 162 214 268 327 394
#
# _framework density 20.135957999999999
#
# number of rings (size 3 to 8) (size 9 to 14) (size 15 to 20)
#    0.000    1.600    7.000    0.000    0.000    0.000 
#    0.000    9.000    0.000   10.200    5.200    0.000 
#    0.000    0.000    0.000    0.000    0.000    0.000 
#
# Total GULP energy -334264.491318 kJ/mol
# GULP energy per Si atom -5571.074855 kJ/mol
# Density = 2.009013 g / cm^3
# Si number density = 20.135958 Si / 1000 Ang^3
#
#
#
# Elastic Constant Matrix: (Units=GPa)
#
#
# Indices 1 2 3 4 5 6 
#
# 1 105.0013 54.7334 54.5653 0.0000 0.0000 0.0000
# 2 54.7334 105.0013 54.5653 0.0000 0.0000 0.0000
# 3 54.5653 54.5653 114.2626 0.0000 0.0000 0.0000
# 4 0.0000 0.0000 0.0000 19.2295 0.0000 0.0000
# 5 0.0000 0.0000 0.0000 0.0000 19.2295 0.0000
# 6 0.0000 0.0000 0.0000 0.0000 0.0000 25.1339
#
#
#
# Elastic Compliance Matrix: (Units=1/GPa)
#
#
# Indices 1 2 3 4 5 6 
#
# 1 0.014593 -0.005301 -0.004437 0.000000 0.000000 0.000000
# 2 -0.005301 0.014593 -0.004437 0.000000 0.000000 0.000000
# 3 -0.004437 -0.004437 0.012990 0.000000 0.000000 0.000000
# 4 0.000000 0.000000 0.000000 0.052003 0.000000 0.000000
# 5 0.000000 0.000000 0.000000 0.000000 0.052003 0.000000
# 6 0.000000 0.000000 0.000000 0.000000 0.000000 0.039787
#
#
# Mechanical properties :
#
#
# Convention : Reuss Voigt Hill
#
# Bulk Modulus (GPa) = 72.33562 72.44371 72.38966
# Shear Modulus (GPa) = 22.83860 23.41201 23.12530
#
# Velocity S-wave (km/s) = 3.37147 3.41353 3.39257
# Velocity P-wave (km/s) = 7.15244 7.18273 7.16760
#
# Compressibility (1/GPa) = 0.01382445
#
# Stress axis : x y z
#
# Youngs Moduli (GPa) = 68.52754 68.52754 76.98368
#
# Poissons Ratio (x) = 0.36325 0.34160
# Poissons Ratio (y) = 0.36325 0.34160
# Poissons Ratio (z) = 0.30408 0.30408
#
# Static dielectric constant tensor:
#      x y z
#    x 1.773770 0.000000 0.000000 
#    y 0.000000 1.773770 0.000000 
#    z 0.000000 0.000000 1.575620 
# 
# From -- ./inp_files/4916.got.cif
#   From: 2010.05.17/outbox.cif.g08.bks.cpg/sg181_3_cif.got.tgz:4916.got - 2010.05.20 11:51:17.
