data_PCOD9584719
_publ_section_title
;
Structure prediction by ZEFSAII (Michael W. Deem and Ramdas Pophale) SiO2 
 PCOD9584719
Probable space group: P 63 2 2
;
_chemical_formula_sum "Si O2"
_cell_formula_units_Z 36
_cell_length_a 10.200870
_cell_length_b 10.200870
_cell_length_c 16.959812
_cell_angle_alpha 90.000000
_cell_angle_beta 90.000000
_cell_angle_gamma 120.000000
_cell_volume 1528.361508
_symmetry_space_group_name_H-M "P 63 2 2"
_symmetry_group_IT_number 182
_symmetry_cell_setting 'hexagonal'
loop_
_space_group_symop_operation_xyz
x,y,z
x-y,x,1/2+z
-y,x-y,z
-x,-y,1/2+z
-x+y,-x,z
y,-x+y,1/2+z
x-y,-y,-z
-x,-x+y,-z
y,x,-z
-y,-x,1/2-z
-x+y,y,1/2-z
x,x-y,1/2-z
loop_
_atom_site_type_symbol
_atom_site_label
_atom_site_fract_x
_atom_site_fract_y
_atom_site_fract_z
Si Si1 0.000000 0.000000 0.591908
Si Si2 0.666667 0.333335 0.593860
Si Si3 0.250677 0.250678 0.803678
Si Si4 0.333335 0.666668 0.906138
Si Si5 0.489199 1.000000 0.095878
O O1 0.855722 0.855722 0.626953
O O2 0.000000 0.000000 0.500000
O O3 0.666668 0.333334 0.499999
O O4 0.519666 0.349930 0.614129
O O5 0.145496 0.290991 0.750000
O O6 0.387620 0.387620 0.846181
O O7 0.290991 0.145496 0.750000
O O8 0.480335 0.650070 0.885871
O O9 0.512981 0.000000 0.000000
#
# Coordination Sequence:
#
# PCOD9584719 Si02
#       5
#     4   4  12   4  12
#     4   9  16  29  52  84 115 158 208 252 298 356
#     4   9  21  39  64  92 121 153 202 257 301 348
#     4   9  19  34  52  81 124 162 198 246 300 359
#     4   9  21  39  64  92 121 153 202 257 301 348
#     4  10  20  39  63  89 117 156 201 250 302 357
#
# _framework density 23.554635999999999
#
# number of rings (size 3 to 8) (size 9 to 14) (size 15 to 20)
#    0.000    2.667    0.000    2.333    0.000    5.333 
#    0.000   16.667    0.000    1.333    0.000    9.333 
#    0.000    0.000    0.000    0.000    0.000    0.000 
#
# Total GULP energy -200497.881006 kJ/mol
# GULP energy per Si atom -5569.385583 kJ/mol
# Density = 2.350102 g / cm^3
# Si number density = 23.554636 Si / 1000 Ang^3
#
#
#
# Elastic Constant Matrix: (Units=GPa)
#
#
# Indices 1 2 3 4 5 6 
#
# 1 78.3277 26.7622 25.2035 -0.0001 -0.0002 0.0001
# 2 26.7622 78.3270 25.2035 0.0000 0.0001 -0.0001
# 3 25.2035 25.2035 136.1231 0.0000 0.0000 0.0001
# 4 -0.0001 0.0000 0.0000 52.9166 -0.0002 -0.0002
# 5 -0.0002 0.0001 0.0000 -0.0002 52.9177 0.0001
# 6 0.0001 -0.0001 0.0001 -0.0002 0.0001 25.7826
#
#
#
# Elastic Compliance Matrix: (Units=1/GPa)
#
#
# Indices 1 2 3 4 5 6 
#
# 1 0.014918 -0.004475 -0.001934 0.000000 0.000000 0.000000
# 2 -0.004475 0.014918 -0.001934 0.000000 0.000000 0.000000
# 3 -0.001934 -0.001934 0.008062 0.000000 0.000000 0.000000
# 4 0.000000 0.000000 0.000000 0.018898 0.000000 0.000000
# 5 0.000000 0.000000 0.000000 0.000000 0.018897 0.000000
# 6 0.000000 0.000000 0.000000 0.000000 0.000000 0.038786
#
#
# Mechanical properties :
#
#
# Convention : Reuss Voigt Hill
#
# Bulk Modulus (GPa) = 47.13801 49.67959 48.40880
# Shear Modulus (GPa) = 36.17040 40.69731 38.43385
#
# Velocity S-wave (km/s) = 3.92292 4.16117 4.04380
# Velocity P-wave (km/s) = 6.36983 6.65012 6.51148
#
# Compressibility (1/GPa) = 0.02121430
#
# Stress axis : x y z
#
# Youngs Moduli (GPa) = 67.03328 67.03263 124.03409
#
# Poissons Ratio (x) = 0.29996 0.23983
# Poissons Ratio (y) = 0.29997 0.23983
# Poissons Ratio (z) = 0.12961 0.12961
#
# Static dielectric constant tensor:
#      x y z
#    x 1.943280 0.000000 0.000000 
#    y 0.000000 1.943280 0.000000 
#    z 0.000000 0.000000 1.794090 
# 
# From -- ./inp_files/3982.got.cif
#   From: 2010.05.17/outbox.cif.g08.bks.cpg/sg182_2_cif.got.tgz:3982.got - 2010.05.20 11:58:53.
