data_PCOD9584734
_publ_section_title
;
Structure prediction by ZEFSAII (Michael W. Deem and Ramdas Pophale) SiO2 
 PCOD9584734
Probable space group: P 63 2 2
;
_chemical_formula_sum "Si O2"
_cell_formula_units_Z 30
_cell_length_a 8.389411
_cell_length_b 8.389411
_cell_length_c 21.230428
_cell_angle_alpha 90.000000
_cell_angle_beta 90.000000
_cell_angle_gamma 120.000000
_cell_volume 1294.053773
_symmetry_space_group_name_H-M "P 63 2 2"
_symmetry_group_IT_number 182
_symmetry_cell_setting 'hexagonal'
loop_
_space_group_symop_operation_xyz
x,y,z
x-y,x,1/2+z
-y,x-y,z
-x,-y,1/2+z
-x+y,-x,z
y,-x+y,1/2+z
x-y,-y,-z
-x,-x+y,-z
y,x,-z
-y,-x,1/2-z
-x+y,y,1/2-z
x,x-y,1/2-z
loop_
_atom_site_type_symbol
_atom_site_label
_atom_site_fract_x
_atom_site_fract_y
_atom_site_fract_z
Si Si1 0.789257 0.578514 0.250000
Si Si2 0.003591 0.645552 0.428278
Si Si3 0.317845 0.299573 0.122666
O O1 0.568580 0.431421 0.250000
O O2 0.900969 0.700197 0.189841
O O3 0.000000 0.584991 0.500000
O O4 0.857511 0.714483 0.426491
O O5 0.938745 0.464600 0.386423
O O6 0.188044 0.807276 0.396849
#
# Coordination Sequence:
#
# PCOD9584734 Si02
#       3
#     6  12  12
#     4  10  20  48  72  94 138 180 234 296 356 416
#     4  12  24  43  70 106 147 189 239 294 359 435
#     4  12  25  45  73 106 146 195 238 297 364 421
#
# _framework density 23.182963000000001
#
# number of rings (size 3 to 8) (size 9 to 14) (size 15 to 20)
#    0.400    0.000    4.000    6.000    0.000    1.600 
#    0.000    0.000    0.000    0.000    0.000    0.000 
#    0.000    0.000    0.000    0.000    0.000    0.000 
#
# Total GULP energy -167263.256036 kJ/mol
# GULP energy per Si atom -5575.441868 kJ/mol
# Density = 2.313020 g / cm^3
# Si number density = 23.182963 Si / 1000 Ang^3
#
#
#
# Elastic Constant Matrix: (Units=GPa)
#
#
# Indices 1 2 3 4 5 6 
#
# 1 70.6397 11.0656 23.6011 0.0000 0.0000 0.0000
# 2 11.0656 70.6397 23.6011 0.0000 0.0000 0.0000
# 3 23.6011 23.6011 178.0814 0.0000 0.0000 0.0000
# 4 0.0000 0.0000 0.0000 15.6139 0.0000 0.0000
# 5 0.0000 0.0000 0.0000 0.0000 15.6139 0.0000
# 6 0.0000 0.0000 0.0000 0.0000 0.0000 29.7870
#
#
#
# Elastic Compliance Matrix: (Units=1/GPa)
#
#
# Indices 1 2 3 4 5 6 
#
# 1 0.015020 -0.001766 -0.001757 0.000000 0.000000 0.000000
# 2 -0.001766 0.015020 -0.001757 0.000000 0.000000 0.000000
# 3 -0.001757 -0.001757 0.006081 0.000000 0.000000 0.000000
# 4 0.000000 0.000000 0.000000 0.064045 0.000000 0.000000
# 5 0.000000 0.000000 0.000000 0.000000 0.064045 0.000000
# 6 0.000000 0.000000 0.000000 0.000000 0.000000 0.033572
#
#
# Mechanical properties :
#
#
# Convention : Reuss Voigt Hill
#
# Bulk Modulus (GPa) = 39.11962 48.43293 43.77627
# Shear Modulus (GPa) = 23.05615 29.60918 26.33267
#
# Velocity S-wave (km/s) = 3.15704 3.57766 3.37391
# Velocity P-wave (km/s) = 5.49546 6.16467 5.83966
#
# Compressibility (1/GPa) = 0.02556262
#
# Stress axis : x y z
#
# Youngs Moduli (GPa) = 66.57854 66.57854 164.44676
#
# Poissons Ratio (x) = 0.11758 0.28886
# Poissons Ratio (y) = 0.11758 0.28886
# Poissons Ratio (z) = 0.11695 0.11695
#
# Static dielectric constant tensor:
#      x y z
#    x 1.860860 0.000000 0.000000 
#    y 0.000000 1.860860 0.000000 
#    z 0.000000 0.000000 2.036700 
# 
# From -- ./inp_files/5063.got.cif
#   From: 2010.05.17/outbox.cif.g08.bks.cpg/sg182_3_cif.got.tgz:5063.got - 2010.05.20 11:58:53.
