data_PCOD9584121
_publ_section_title
;
Structure prediction by ZEFSAII (Michael W. Deem and Ramdas Pophale) SiO2 
 PCOD9584121
Probable space group: P 62 2 2
;
_chemical_formula_sum "Si O2"
_cell_formula_units_Z 51
_cell_length_a 12.211097
_cell_length_b 12.211097
_cell_length_c 18.192131
_cell_angle_alpha 90.000000
_cell_angle_beta 90.000000
_cell_angle_gamma 120.000000
_cell_volume 2349.219346
_symmetry_space_group_name_H-M "P 62 2 2"
_symmetry_group_IT_number 180
_symmetry_cell_setting 'hexagonal'
loop_
_space_group_symop_operation_xyz
x,y,z
x-y,x,1/3+z
-y,x-y,2/3+z
-x,-y,z
-x+y,-x,1/3+z
y,-x+y,2/3+z
x-y,-y,-z
-x,-x+y,1/3-z
y,x,2/3-z
-y,-x,2/3-z
-x+y,y,-z
x,x-y,1/3-z
loop_
_atom_site_type_symbol
_atom_site_label
_atom_site_fract_x
_atom_site_fract_y
_atom_site_fract_z
Si Si1 0.413816 0.092708 0.369926
Si Si2 0.751358 0.954503 0.916194
Si Si3 0.965797 0.609516 0.884960
Si Si4 0.000000 0.000000 0.833334
Si Si5 0.514385 0.178729 0.571898
O O1 0.356968 0.166582 0.410533
O O2 0.566435 0.175761 0.365892
O O3 0.355910 0.043947 0.289544
O O4 0.366675 0.964800 0.416964
O O5 0.697741 0.007231 0.853349
O O6 0.880722 0.969059 0.884624
O O7 0.766362 0.000000 0.000000
O O8 0.815204 0.546646 0.902872
O O9 0.000000 0.500000 0.874778
O O10 0.598590 0.197180 0.500000
#
# Coordination Sequence:
#
# PCOD9584121 Si02
#       5
#    12  12  12   3  12
#     4  11  23  44  76 106 140 185 253 314 361 442
#     4  12  27  48  70 104 149 198 244 306 385 452
#     4  12  26  45  70 110 150 193 246 308 381 464
#     4  12  26  48  76 104 136 192 262 318 366 446
#     4  11  22  44  75 111 137 183 247 315 378 427
#
# _framework density 21.709340000000001
#
# number of rings (size 3 to 8) (size 9 to 14) (size 15 to 20)
#    0.000    0.471    4.706    5.294    0.000    2.353 
#    6.353    2.353    0.000    0.000    0.000    0.000 
#    0.000    0.000    0.000    0.000    0.000    0.000 
#
# Total GULP energy -284811.981061 kJ/mol
# GULP energy per Si atom -5584.548648 kJ/mol
# Density = 2.165993 g / cm^3
# Si number density = 21.709340 Si / 1000 Ang^3
#
#
#
# Elastic Constant Matrix: (Units=GPa)
#
#
# Indices 1 2 3 4 5 6 
#
# 1 69.8864 21.8974 29.5583 0.0000 0.0000 0.0000
# 2 21.8974 69.8864 29.5583 0.0000 0.0000 0.0000
# 3 29.5583 29.5583 166.6071 0.0000 0.0000 0.0000
# 4 0.0000 0.0000 0.0000 30.5627 0.0000 0.0000
# 5 0.0000 0.0000 0.0000 0.0000 30.5627 0.0000
# 6 0.0000 0.0000 0.0000 0.0000 0.0000 23.9945
#
#
#
# Elastic Compliance Matrix: (Units=1/GPa)
#
#
# Indices 1 2 3 4 5 6 
#
# 1 0.016569 -0.004269 -0.002182 0.000000 0.000000 0.000000
# 2 -0.004269 0.016569 -0.002182 0.000000 0.000000 0.000000
# 3 -0.002182 -0.002182 0.006776 0.000000 0.000000 0.000000
# 4 0.000000 0.000000 0.000000 0.032720 0.000000 0.000000
# 5 0.000000 0.000000 0.000000 0.000000 0.032720 0.000000
# 6 0.000000 0.000000 0.000000 0.000000 0.000000 0.041676
#
#
# Mechanical properties :
#
#
# Convention : Reuss Voigt Hill
#
# Bulk Modulus (GPa) = 44.15251 52.04529 48.09890
# Shear Modulus (GPa) = 29.09564 32.04837 30.57201
#
# Velocity S-wave (km/s) = 3.66490 3.84637 3.75673
# Velocity P-wave (km/s) = 6.18795 6.61451 6.40479
#
# Compressibility (1/GPa) = 0.02264877
#
# Stress axis : x y z
#
# Youngs Moduli (GPa) = 60.35204 60.35204 147.56907
#
# Poissons Ratio (x) = 0.25762 0.32204
# Poissons Ratio (y) = 0.25762 0.32204
# Poissons Ratio (z) = 0.13171 0.13171
#
# Static dielectric constant tensor:
#      x y z
#    x 1.789200 0.000000 0.000000 
#    y 0.000000 1.789200 0.000000 
#    z 0.000000 0.000000 1.933250 
# 
# From -- ./inp_files/8836.got.cif
#   From: 2010.05.17/outbox.cif.g08.bks.cpg/sg180_5_cif.got.tgz:8836.got - 2010.05.20 11:43:55.
