data_PCOD9584324
_publ_section_title
;
Structure prediction by ZEFSAII (Michael W. Deem and Ramdas Pophale) SiO2 
 PCOD9584324
Probable space group: P 64 2 2
;
_chemical_formula_sum "Si O2"
_cell_formula_units_Z 69
_cell_length_a 11.260413
_cell_length_b 11.260413
_cell_length_c 33.596721
_cell_angle_alpha 90.000000
_cell_angle_beta 90.000000
_cell_angle_gamma 120.000000
_cell_volume 3689.233669
_symmetry_space_group_name_H-M "P 64 2 2"
_symmetry_group_IT_number 181
_symmetry_cell_setting 'hexagonal'
loop_
_space_group_symop_operation_xyz
x,y,z
x-y,x,2/3+z
-y,x-y,1/3+z
-x,-y,z
-x+y,-x,2/3+z
y,-x+y,1/3+z
x-y,-y,-z
-x,-x+y,2/3-z
y,x,1/3-z
-y,-x,1/3-z
-x+y,y,-z
x,x-y,2/3-z
loop_
_atom_site_type_symbol
_atom_site_label
_atom_site_fract_x
_atom_site_fract_y
_atom_site_fract_z
Si Si1 0.479025 0.626763 0.753733
Si Si2 0.195617 0.242971 0.540473
Si Si3 0.197278 0.757140 0.885810
Si Si4 0.342449 0.922745 0.363914
Si Si5 0.114894 0.229788 0.000000
Si Si6 0.622274 0.377726 0.666667
Si Si7 0.500000 0.000000 0.500000
Si Si8 0.000000 0.000000 0.734354
O O1 0.500000 0.500000 0.763944
O O2 0.612992 0.758054 0.770269
O O3 0.334839 0.586491 0.773935
O O4 0.453716 0.616838 0.706503
O O5 0.116790 0.233580 0.500000
O O6 0.331069 0.231437 0.532632
O O7 0.105291 0.119732 0.570309
O O8 0.135016 0.750512 0.929850
O O9 0.092300 0.630207 0.860425
O O10 0.321954 0.785414 0.341974
O O11 0.500000 0.000000 0.376873
O O12 0.309580 0.028254 0.339640
O O13 0.061326 0.131142 0.038488
#
# Coordination Sequence:
#
# PCOD9584324 Si02
#       8
#    12  12  12  12   6   6   3   6
#     4   9  20  39  62  94 120 159 209 260 316 382
#     4  11  23  40  64  91 131 165 214 270 324 394
#     4  10  23  40  63  88 119 166 217 257 317 380
#     4  11  21  40  59  92 123 165 206 266 317 396
#     4  11  23  38  65  91 134 156 214 276 332 403
#     4  10  20  36  65  87 126 164 206 252 328 396
#     4  12  24  40  62  80 120 170 216 254 308 388
#     4  11  23  38  60  94 123 169 208 264 336 389
#
# _framework density 18.70307
#
# number of rings (size 3 to 8) (size 9 to 14) (size 15 to 20)
#    0.000    1.565    2.609    2.087    3.652    0.000 
#    0.000    0.000    0.000    1.043    0.000    0.000 
#    0.000    0.000    0.000    0.000    0.000    0.000 
#
# Total GULP energy -384410.705373 kJ/mol
# GULP energy per Si atom -5571.169643 kJ/mol
# Density = 1.866050 g / cm^3
# Si number density = 18.703070 Si / 1000 Ang^3
#
#
#
# Elastic Constant Matrix: (Units=GPa)
#
#
# Indices 1 2 3 4 5 6 
#
# 1 104.1240 47.8435 49.1468 0.0000 0.0000 0.0000
# 2 47.8435 104.1240 49.1468 0.0000 0.0000 0.0000
# 3 49.1468 49.1468 100.2940 0.0000 0.0000 0.0000
# 4 0.0000 0.0000 0.0000 36.0443 0.0000 0.0000
# 5 0.0000 0.0000 0.0000 0.0000 36.0443 0.0000
# 6 0.0000 0.0000 0.0000 0.0000 0.0000 28.1402
#
#
#
# Elastic Compliance Matrix: (Units=1/GPa)
#
#
# Indices 1 2 3 4 5 6 
#
# 1 0.013701 -0.004067 -0.004721 0.000000 0.000000 0.000000
# 2 -0.004067 0.013701 -0.004721 0.000000 0.000000 0.000000
# 3 -0.004721 -0.004721 0.014597 0.000000 0.000000 0.000000
# 4 0.000000 0.000000 0.000000 0.027744 0.000000 0.000000
# 5 0.000000 0.000000 0.000000 0.000000 0.027744 0.000000
# 6 0.000000 0.000000 0.000000 0.000000 0.000000 0.035536
#
#
# Mechanical properties :
#
#
# Convention : Reuss Voigt Hill
#
# Bulk Modulus (GPa) = 66.74825 66.75735 66.75280
# Shear Modulus (GPa) = 30.29669 30.87274 30.58471
#
# Velocity S-wave (km/s) = 4.02914 4.06726 4.04824
# Velocity P-wave (km/s) = 7.57701 7.60444 7.59074
#
# Compressibility (1/GPa) = 0.01498167
#
# Stress axis : x y z
#
# Youngs Moduli (GPa) = 72.98742 72.98742 68.50549
#
# Poissons Ratio (x) = 0.29685 0.32340
# Poissons Ratio (y) = 0.29685 0.32340
# Poissons Ratio (z) = 0.34456 0.34456
#
# Static dielectric constant tensor:
#      x y z
#    x 1.667160 0.000000 0.000000 
#    y 0.000000 1.667160 0.000000 
#    z 0.000000 0.000000 1.629780 
# 
# From -- ./inp_files/12341.got.cif
#   From: 2010.05.17/outbox.cif.g08.bks.cpg/sg181_7_cif.got.tgz:12341.got - 2010.05.20 11:51:17.
