data_PCOD9584495
_publ_section_title
;
Structure prediction by ZEFSAII (Michael W. Deem and Ramdas Pophale) SiO2 
 PCOD9584495
Probable space group: P 64 2 2
;
_chemical_formula_sum "Si O2"
_cell_formula_units_Z 57
_cell_length_a 13.235383
_cell_length_b 13.235383
_cell_length_c 16.040177
_cell_angle_alpha 90.000000
_cell_angle_beta 90.000000
_cell_angle_gamma 120.000000
_cell_volume 2433.396138
_symmetry_space_group_name_H-M "P 64 2 2"
_symmetry_group_IT_number 181
_symmetry_cell_setting 'hexagonal'
loop_
_space_group_symop_operation_xyz
x,y,z
x-y,x,2/3+z
-y,x-y,1/3+z
-x,-y,z
-x+y,-x,2/3+z
y,-x+y,1/3+z
x-y,-y,-z
-x,-x+y,2/3-z
y,x,1/3-z
-y,-x,1/3-z
-x+y,y,-z
x,x-y,2/3-z
loop_
_atom_site_type_symbol
_atom_site_label
_atom_site_fract_x
_atom_site_fract_y
_atom_site_fract_z
Si Si1 0.335990 0.667995 0.333334
Si Si2 0.000000 0.000000 0.000000
Si Si3 0.940554 0.752616 0.665541
Si Si4 0.000000 0.317914 0.833334
Si Si5 0.329028 0.329028 0.666667
Si Si6 0.000000 0.500000 0.194956
Si Si7 0.591170 0.408831 0.166667
Si Si8 0.157318 0.456415 0.571932
O O1 0.395315 0.649296 0.251271
O O2 0.270881 0.732343 0.295677
O O3 0.972523 0.095393 0.041172
O O4 0.801109 0.692142 0.675038
O O5 0.951005 0.655825 0.612390
O O6 0.002032 0.756298 0.752726
O O7 0.894330 0.345249 0.845917
O O8 0.406082 0.399603 0.587328
O O9 0.889634 0.425254 0.135757
O O10 0.204109 0.408218 0.500000
#
# Coordination Sequence:
#
# PCOD9584495 Si02
#       8
#     6   3  12   6   6   6   6  12
#     4  12  26  43  74 111 164 201 247 300 396 480
#     4  10  28  54  76 102 138 198 268 330 388 446
#     4  11  25  49  73 106 144 199 257 326 388 459
#     4  11  26  45  74 104 162 193 258 317 394 468
#     4  10  24  46  72 102 146 192 268 316 386 440
#     4  11  26  42  72 109 146 200 252 323 374 473
#     4  11  26  46  70 118 160 209 246 312 390 493
#     4  12  26  45  74 114 155 199 256 316 390 479
#
# _framework density 23.424054000000002
#
# number of rings (size 3 to 8) (size 9 to 14) (size 15 to 20)
#    0.000    0.842    5.263    0.000    8.842    2.947 
#    0.000    0.000    0.000    0.000    0.000    0.000 
#    0.000    0.000    0.000    0.000    0.000    0.000 
#
# Total GULP energy -317752.629391 kJ/mol
# GULP energy per Si atom -5574.607533 kJ/mol
# Density = 2.337074 g / cm^3
# Si number density = 23.424054 Si / 1000 Ang^3
#
#
#
# Elastic Constant Matrix: (Units=GPa)
#
#
# Indices 1 2 3 4 5 6 
#
# 1 103.7221 36.5260 28.4688 0.0000 0.0000 0.0000
# 2 36.5260 103.7221 28.4688 0.0000 0.0000 0.0000
# 3 28.4688 28.4688 109.6667 0.0000 0.0000 0.0000
# 4 0.0000 0.0000 0.0000 26.0549 0.0000 0.0000
# 5 0.0000 0.0000 0.0000 0.0000 26.0549 0.0000
# 6 0.0000 0.0000 0.0000 0.0000 0.0000 33.5980
#
#
#
# Elastic Compliance Matrix: (Units=1/GPa)
#
#
# Indices 1 2 3 4 5 6 
#
# 1 0.011426 -0.003456 -0.002069 0.000000 0.000000 0.000000
# 2 -0.003456 0.011426 -0.002069 0.000000 0.000000 0.000000
# 3 -0.002069 -0.002069 0.010193 0.000000 0.000000 0.000000
# 4 0.000000 0.000000 0.000000 0.038380 0.000000 0.000000
# 5 0.000000 0.000000 0.000000 0.000000 0.038380 0.000000
# 6 0.000000 0.000000 0.000000 0.000000 0.000000 0.029764
#
#
# Mechanical properties :
#
#
# Convention : Reuss Voigt Hill
#
# Bulk Modulus (GPa) = 56.00017 56.00421 56.00219
# Shear Modulus (GPa) = 31.11207 32.05140 31.58174
#
# Velocity S-wave (km/s) = 3.64842 3.70308 3.67585
# Velocity P-wave (km/s) = 6.45809 6.49958 6.47887
#
# Compressibility (1/GPa) = 0.01785709
#
# Stress axis : x y z
#
# Youngs Moduli (GPa) = 87.51961 87.51961 98.10899
#
# Poissons Ratio (x) = 0.30245 0.20299
# Poissons Ratio (y) = 0.30245 0.20299
# Poissons Ratio (z) = 0.18108 0.18108
#
# Static dielectric constant tensor:
#      x y z
#    x 1.963820 0.000000 0.000000 
#    y 0.000000 1.963820 0.000000 
#    z 0.000000 0.000000 1.969770 
# 
# From -- ./inp_files/6272.got.cif
#   From: 2010.05.17/outbox.cif.g08.bks.cpg/sg181_4_cif.got.tgz:6272.got - 2010.05.20 11:51:17.
