data_PCOD9584713
_publ_section_title
;
Structure prediction by ZEFSAII (Michael W. Deem and Ramdas Pophale) SiO2 
 PCOD9584713
Probable space group: P 63 2 2
;
_chemical_formula_sum "Si O2"
_cell_formula_units_Z 70
_cell_length_a 14.930173
_cell_length_b 14.930173
_cell_length_c 17.624920
_cell_angle_alpha 90.000000
_cell_angle_beta 90.000000
_cell_angle_gamma 120.000000
_cell_volume 3402.416424
_symmetry_space_group_name_H-M "P 63 2 2"
_symmetry_group_IT_number 182
_symmetry_cell_setting 'hexagonal'
loop_
_space_group_symop_operation_xyz
x,y,z
x-y,x,1/2+z
-y,x-y,z
-x,-y,1/2+z
-x+y,-x,z
y,-x+y,1/2+z
x-y,-y,-z
-x,-x+y,-z
y,x,-z
-y,-x,1/2-z
-x+y,y,1/2-z
x,x-y,1/2-z
loop_
_atom_site_type_symbol
_atom_site_label
_atom_site_fract_x
_atom_site_fract_y
_atom_site_fract_z
Si Si1 0.973209 0.308743 0.622543
Si Si2 0.363847 0.285883 0.272609
Si Si3 0.860151 0.506623 0.413258
Si Si4 0.843579 0.071410 0.633591
Si Si5 0.709385 0.709385 0.000000
Si Si6 0.000000 0.000000 0.092742
Si Si7 0.454293 0.143674 0.478452
O O1 0.920145 0.190990 0.651651
O O2 0.891478 0.318292 0.566364
O O3 0.020067 0.375009 0.698897
O O4 0.074205 0.348139 0.568675
O O5 0.346217 0.173109 0.250000
O O6 0.468018 0.336586 0.324080
O O7 0.258414 0.265865 0.315415
O O8 0.944752 0.617037 0.443134
O O9 0.885525 0.421338 0.443235
O O10 0.758563 0.495402 0.454968
O O11 0.807512 0.076756 0.548040
O O12 0.905548 0.010562 0.625208
O O13 0.000000 0.000000 0.000000
#
# Coordination Sequence:
#
# PCOD9584713 Si02
#       7
#    12  12  12  12   6   4  12
#     4  11  23  42  65  98 132 181 218 286 342 414
#     4  11  23  43  67  99 145 181 223 277 346 418
#     4  11  23  44  67 102 127 173 224 292 344 407
#     4  11  23  36  62  94 142 185 227 267 328 398
#     4  10  20  38  60  94 130 168 222 274 318 404
#     4  12  24  30  58 104 142 190 239 268 315 388
#     4  11  24  41  73  95 132 167 236 285 349 409
#
# _framework density 20.573613999999999
#
# number of rings (size 3 to 8) (size 9 to 14) (size 15 to 20)
#    0.000    1.029    4.286    2.914    4.800    0.686 
#    0.000    1.714    0.000    0.000    0.000    0.000 
#    0.000    0.000    0.000    0.000    0.000    0.000 
#
# Total GULP energy -390002.595128 kJ/mol
# GULP energy per Si atom -5571.465645 kJ/mol
# Density = 2.052679 g / cm^3
# Si number density = 20.573614 Si / 1000 Ang^3
#
#
#
# Elastic Constant Matrix: (Units=GPa)
#
#
# Indices 1 2 3 4 5 6 
#
# 1 63.1954 16.9545 34.0310 0.0000 0.0000 0.0000
# 2 16.9545 63.1954 34.0310 0.0000 0.0000 0.0000
# 3 34.0310 34.0310 132.6539 0.0000 0.0000 0.0000
# 4 0.0000 0.0000 0.0000 26.2932 0.0000 0.0000
# 5 0.0000 0.0000 0.0000 0.0000 26.2932 0.0000
# 6 0.0000 0.0000 0.0000 0.0000 0.0000 23.1204
#
#
#
# Elastic Compliance Matrix: (Units=1/GPa)
#
#
# Indices 1 2 3 4 5 6 
#
# 1 0.018789 -0.002837 -0.004092 0.000000 0.000000 0.000000
# 2 -0.002837 0.018789 -0.004092 0.000000 0.000000 0.000000
# 3 -0.004092 -0.004092 0.009638 0.000000 0.000000 0.000000
# 4 0.000000 0.000000 0.000000 0.038033 0.000000 0.000000
# 5 0.000000 0.000000 0.000000 0.000000 0.038033 0.000000
# 6 0.000000 0.000000 0.000000 0.000000 0.000000 0.043252
#
#
# Mechanical properties :
#
#
# Convention : Reuss Voigt Hill
#
# Bulk Modulus (GPa) = 39.72593 47.67530 43.70061
# Shear Modulus (GPa) = 25.38498 26.74322 26.06410
#
# Velocity S-wave (km/s) = 3.51645 3.60930 3.56317
# Velocity P-wave (km/s) = 5.98651 6.37124 6.18187
#
# Compressibility (1/GPa) = 0.02517248
#
# Stress axis : x y z
#
# Youngs Moduli (GPa) = 53.22319 53.22319 103.75521
#
# Poissons Ratio (x) = 0.15100 0.42459
# Poissons Ratio (y) = 0.15100 0.42459
# Poissons Ratio (z) = 0.21780 0.21780
#
# Static dielectric constant tensor:
#      x y z
#    x 1.744850 0.000000 0.000000 
#    y 0.000000 1.744850 0.000000 
#    z 0.000000 0.000000 1.855160 
# 
# From -- ./inp_files/4375.got.cif
#   From: 2010.05.17/outbox.cif.g08.bks.cpg/sg182_3_cif.got.tgz:4375.got - 2010.05.20 11:58:53.
