data_PCOD9584955
_publ_section_title
;
Structure prediction by ZEFSAII (Michael W. Deem and Ramdas Pophale) SiO2 
 PCOD9584955
Probable space group: P 6 M M
;
_chemical_formula_sum "Si O2"
_cell_formula_units_Z 72
_cell_length_a 21.447436
_cell_length_b 21.447436
_cell_length_c 12.351106
_cell_angle_alpha 90.000000
_cell_angle_beta 90.000000
_cell_angle_gamma 120.000000
_cell_volume 4920.250813
_symmetry_space_group_name_H-M "P 6 M M"
_symmetry_group_IT_number 183
_symmetry_cell_setting 'hexagonal'
loop_
_space_group_symop_operation_xyz
x,y,z
x-y,x,z
-y,x-y,z
-x,-y,z
-x+y,-x,z
y,-x+y,z
-x+y,y,z
x,x-y,z
-y,-x,z
y,x,z
x-y,-y,z
-x,-x+y,z
loop_
_atom_site_type_symbol
_atom_site_label
_atom_site_fract_x
_atom_site_fract_y
_atom_site_fract_z
Si Si1 0.640443 0.555676 0.255540
Si Si2 0.456615 0.913230 0.435824
Si Si3 0.543385 0.086770 0.679654
Si Si4 0.305246 0.224130 0.929613
Si Si5 0.084767 0.444324 0.859939
Si Si6 0.918884 0.224130 0.185868
Si Si7 0.525280 0.335768 0.057739
O O1 0.584199 0.584199 0.230967
O O2 0.613218 0.508555 0.364210
O O3 0.718249 0.627483 0.255951
O O4 0.645334 0.507563 0.161095
O O5 0.441940 0.883880 0.557739
O O6 0.500000 0.000000 0.443839
O O7 0.613218 0.104662 0.751269
O O8 0.500000 0.000000 0.671640
O O9 0.287493 0.143747 0.908032
O O10 0.240831 0.240831 0.913550
O O11 0.372517 0.281750 0.859530
O O12 0.326346 0.239678 0.057741
O O13 0.000000 0.415800 0.884511
O O14 0.137770 0.492437 0.954384
O O15 0.856254 0.143747 0.207450
O O16 0.000000 0.240830 0.201931
O O17 0.506317 0.253159 0.057739
O O18 0.610615 0.389386 0.057740
#
# Coordination Sequence:
#
# PCOD9584955 Si02
#       7
#    12   6   6  12  12  12  12
#     4  10  18  29  48  70  91 114 145 190 238 281
#     4   9  18  31  47  69  93 118 149 185 229 283
#     4   9  18  31  47  69  93 118 149 185 229 283
#     4   9  16  26  42  67  96 123 150 186 234 281
#     4  10  18  29  48  70  91 114 145 190 238 281
#     4   9  16  26  42  67  96 123 150 186 234 281
#     4  12  22  31  43  65  90 119 147 185 231 278
#
# _framework density 14.6334
#
# number of rings (size 3 to 8) (size 9 to 14) (size 15 to 20)
#    0.000    2.167    3.333    1.667    0.000    0.667 
#    0.000    0.000    0.000    4.333    0.000    2.333 
#    0.000    0.000    0.000    0.000    0.000    0.000 
#
# Total GULP energy -400947.453643 kJ/mol
# GULP energy per Si atom -5568.714634 kJ/mol
# Density = 1.460009 g / cm^3
# Si number density = 14.633400 Si / 1000 Ang^3
#
#
#
# Elastic Constant Matrix: (Units=GPa)
#
#
# Indices 1 2 3 4 5 6 
#
# 1 87.9766 53.0887 45.0547 0.0000 0.0000 0.0000
# 2 53.0887 87.9766 45.0547 0.0000 0.0000 0.0000
# 3 45.0547 45.0547 100.3326 0.0000 0.0000 0.0000
# 4 0.0000 0.0000 0.0000 7.4163 0.0000 0.0000
# 5 0.0000 0.0000 0.0000 0.0000 7.4163 0.0000
# 6 0.0000 0.0000 0.0000 0.0000 0.0000 17.4440
#
#
#
# Elastic Compliance Matrix: (Units=1/GPa)
#
#
# Indices 1 2 3 4 5 6 
#
# 1 0.019302 -0.009361 -0.004464 0.000000 0.000000 0.000000
# 2 -0.009361 0.019302 -0.004464 0.000000 0.000000 0.000000
# 3 -0.004464 -0.004464 0.013976 0.000000 0.000000 0.000000
# 4 0.000000 0.000000 0.000000 0.134838 0.000000 0.000000
# 5 0.000000 0.000000 0.000000 0.000000 0.134838 0.000000
# 6 0.000000 0.000000 0.000000 0.000000 0.000000 0.057326
#
#
# Mechanical properties :
#
#
# Convention : Reuss Voigt Hill
#
# Bulk Modulus (GPa) = 62.49454 62.52024 62.50739
# Shear Modulus (GPa) = 11.86260 15.32783 13.59521
#
# Velocity S-wave (km/s) = 2.85028 3.23995 3.05134
# Velocity P-wave (km/s) = 7.32336 7.53747 7.43119
#
# Compressibility (1/GPa) = 0.01600140
#
# Stress axis : x y z
#
# Youngs Moduli (GPa) = 51.80883 51.80883 71.55261
#
# Poissons Ratio (x) = 0.48501 0.31939
# Poissons Ratio (y) = 0.48501 0.31939
# Poissons Ratio (z) = 0.23126 0.23126
#
# Static dielectric constant tensor:
#      x y z
#    x 1.492120 0.000000 0.000000 
#    y 0.000000 1.492120 0.000000 
#    z 0.000000 0.000000 1.477260 
# 
# From -- ./inp_files/1704.got.cif
#   From: 2010.05.17/outbox.cif.g08.bks.cpg/sg183_1_cif.got.tgz:1704.got - 2010.05.20 12:02:58.
