data_PCOD9584019
_publ_section_title
;
Structure prediction by ZEFSAII (Michael W. Deem and Ramdas Pophale) SiO2 
 PCOD9584019
Probable space group: P 62 2 2
;
_chemical_formula_sum "Si O2"
_cell_formula_units_Z 45
_cell_length_a 11.335191
_cell_length_b 11.335191
_cell_length_c 17.236087
_cell_angle_alpha 90.000000
_cell_angle_beta 90.000000
_cell_angle_gamma 120.000000
_cell_volume 1917.904571
_symmetry_space_group_name_H-M "P 62 2 2"
_symmetry_group_IT_number 180
_symmetry_cell_setting 'hexagonal'
loop_
_space_group_symop_operation_xyz
x,y,z
x-y,x,1/3+z
-y,x-y,2/3+z
-x,-y,z
-x+y,-x,1/3+z
y,-x+y,2/3+z
x-y,-y,-z
-x,-x+y,1/3-z
y,x,2/3-z
-y,-x,2/3-z
-x+y,y,-z
x,x-y,1/3-z
loop_
_atom_site_type_symbol
_atom_site_label
_atom_site_fract_x
_atom_site_fract_y
_atom_site_fract_z
Si Si1 0.343075 0.919256 0.195822
Si Si2 0.000000 0.829419 0.666667
Si Si3 0.500000 0.500000 0.833334
Si Si4 0.102720 0.205439 0.500000
Si Si5 0.251759 0.801930 0.608138
Si Si6 0.457056 0.728528 0.666667
O O1 0.323898 0.836837 0.116190
O O2 0.254147 0.805636 0.260238
O O3 0.500000 0.000000 0.217587
O O4 0.289715 0.024782 0.182315
O O5 0.036359 0.903411 0.750864
O O6 0.139225 0.826374 0.648689
O O7 0.450936 0.367218 0.886702
O O8 0.349577 0.780936 0.664767
#
# Coordination Sequence:
#
# PCOD9584019 Si02
#       6
#    12   6   3   6  12   6
#     4  11  25  42  68 107 153 193 254 318 405 482
#     4  10  24  45  72 109 152 204 256 323 403 490
#     4  12  24  50  72 110 148 204 272 330 398 476
#     4  10  24  43  68 103 150 206 248 326 390 480
#     4  11  26  42  71 106 150 199 250 330 399 481
#     4  12  24  41  70 111 140 202 246 328 398 479
#
# _framework density 23.463107000000001
#
# number of rings (size 3 to 8) (size 9 to 14) (size 15 to 20)
#    0.000    1.067    2.667    1.600   16.800    0.000 
#    0.000    0.000    0.000   34.400    0.000    0.000 
#    0.000    0.000    0.000    0.000    0.000    0.000 
#
# Total GULP energy -250937.015312 kJ/mol
# GULP energy per Si atom -5576.378118 kJ/mol
# Density = 2.340970 g / cm^3
# Si number density = 23.463107 Si / 1000 Ang^3
#
#
#
# Elastic Constant Matrix: (Units=GPa)
#
#
# Indices 1 2 3 4 5 6 
#
# 1 104.1628 96.4572 45.4746 0.0000 0.0000 0.0000
# 2 96.4572 104.1628 45.4746 0.0000 0.0000 0.0000
# 3 45.4746 45.4746 147.0576 0.0000 0.0000 0.0000
# 4 0.0000 0.0000 0.0000 48.2769 0.0000 0.0000
# 5 0.0000 0.0000 0.0000 0.0000 48.2769 0.0000
# 6 0.0000 0.0000 0.0000 0.0000 0.0000 3.8528
#
#
#
# Elastic Compliance Matrix: (Units=1/GPa)
#
#
# Indices 1 2 3 4 5 6 
#
# 1 0.067786 -0.061989 -0.001793 0.000000 0.000000 0.000000
# 2 -0.061989 0.067786 -0.001793 0.000000 0.000000 0.000000
# 3 -0.001793 -0.001793 0.007909 0.000000 0.000000 0.000000
# 4 0.000000 0.000000 0.000000 0.020714 0.000000 0.000000
# 5 0.000000 0.000000 0.000000 0.000000 0.020714 0.000000
# 6 0.000000 0.000000 0.000000 0.000000 0.000000 0.259549
#
#
# Mechanical properties :
#
#
# Convention : Reuss Voigt Hill
#
# Bulk Modulus (GPa) = 81.08641 81.13288 81.10964
# Shear Modulus (GPa) = 8.62490 31.27979 19.95235
#
# Velocity S-wave (km/s) = 1.91935 3.65519 2.91928
# Velocity P-wave (km/s) = 6.28856 7.24347 6.78284
#
# Compressibility (1/GPa) = 0.01233252
#
# Stress axis : x y z
#
# Youngs Moduli (GPa) = 14.75232 14.75232 126.44211
#
# Poissons Ratio (x) = 0.91448 0.22667
# Poissons Ratio (y) = 0.91448 0.22667
# Poissons Ratio (z) = 0.02645 0.02645
#
# Static dielectric constant tensor:
#      x y z
#    x 1.466920 0.000000 0.000000 
#    y 0.000000 1.466920 0.000000 
#    z 0.000000 0.000000 1.926520 
# 
# From -- ./inp_files/7459.got.cif
#   From: 2010.05.17/outbox.cif.g08.bks.cpg/sg180_4_cif.got.tgz:7459.got - 2010.05.20 11:43:55.
