data_PCOD9584944
_publ_section_title
;
Structure prediction by ZEFSAII (Michael W. Deem and Ramdas Pophale) SiO2 
 PCOD9584944
Probable space group: P 6 M M
;
_chemical_formula_sum "Si O2"
_cell_formula_units_Z 72
_cell_length_a 20.812391
_cell_length_b 20.812391
_cell_length_c 12.816885
_cell_angle_alpha 90.000000
_cell_angle_beta 90.000000
_cell_angle_gamma 120.000000
_cell_volume 4807.918220
_symmetry_space_group_name_H-M "P 6 M M"
_symmetry_group_IT_number 183
_symmetry_cell_setting 'hexagonal'
loop_
_space_group_symop_operation_xyz
x,y,z
x-y,x,z
-y,x-y,z
-x,-y,z
-x+y,-x,z
y,-x+y,z
-x+y,y,z
x,x-y,z
-y,-x,z
y,x,z
x-y,-y,z
-x,-x+y,z
loop_
_atom_site_type_symbol
_atom_site_label
_atom_site_fract_x
_atom_site_fract_y
_atom_site_fract_z
Si Si1 0.568027 0.709243 0.731660
Si Si2 0.231538 0.318115 0.540105
Si Si3 0.910714 0.591887 0.340347
Si Si4 0.915225 0.683828 0.911168
Si Si5 0.544829 0.089657 0.665495
Si Si6 0.454854 0.545147 0.418370
Si Si7 0.315230 0.229353 0.156373
O O1 0.543792 0.771896 0.728133
O O2 0.627556 0.729827 0.638243
O O3 0.612938 0.720836 0.838604
O O4 0.502955 0.625993 0.714865
O O5 0.144228 0.288456 0.547077
O O6 0.257152 0.257152 0.537416
O O7 0.263426 0.368566 0.436593
O O8 0.881626 0.506259 0.365177
O O9 0.889384 0.614808 0.232265
O O10 0.000000 0.630741 0.337227
O O11 0.854349 0.708697 0.889718
O O12 0.000000 0.745188 0.888746
O O13 0.910185 0.665312 0.034124
O O14 0.553392 0.106784 0.541556
O O15 0.500000 0.000000 0.676524
O O16 0.500000 0.500000 0.411601
O O17 0.285188 0.142594 0.173724
O O18 0.256486 0.256486 0.180371
#
# Coordination Sequence:
#
# PCOD9584944 Si02
#       7
#    12  12  12  12   6   6  12
#     4  10  20  32  47  70  96 122 151 188 234 280
#     4  10  18  28  44  66  92 119 151 190 232 277
#     4   9  16  27  42  63  88 114 145 183 229 275
#     4   9  17  30  47  67  93 124 159 197 237 279
#     4  11  18  30  51  71  93 123 156 189 229 277
#     4   9  16  26  43  65  91 117 144 181 227 277
#     4   9  17  29  46  67  93 125 159 197 237 278
#
# _framework density 14.975296
#
# number of rings (size 3 to 8) (size 9 to 14) (size 15 to 20)
#    0.000    2.500    1.667    2.000    0.000    0.000 
#    0.500    0.833    0.000    3.500    0.000    2.333 
#    0.833    8.000    0.000    0.333    0.000    0.667 
#
# Total GULP energy -400939.288481 kJ/mol
# GULP energy per Si atom -5568.601229 kJ/mol
# Density = 1.494121 g / cm^3
# Si number density = 14.975296 Si / 1000 Ang^3
#
#
#
# Elastic Constant Matrix: (Units=GPa)
#
#
# Indices 1 2 3 4 5 6 
#
# 1 105.5426 69.0143 45.6231 0.0000 0.0000 0.0000
# 2 69.0143 105.5426 45.6231 0.0000 0.0000 0.0000
# 3 45.6231 45.6231 64.3140 0.0000 0.0000 0.0000
# 4 0.0000 0.0000 0.0000 19.9004 0.0000 0.0000
# 5 0.0000 0.0000 0.0000 0.0000 19.9004 0.0000
# 6 0.0000 0.0000 0.0000 0.0000 0.0000 18.2641
#
#
#
# Elastic Compliance Matrix: (Units=1/GPa)
#
#
# Indices 1 2 3 4 5 6 
#
# 1 0.018241 -0.009135 -0.006459 0.000000 0.000000 0.000000
# 2 -0.009135 0.018241 -0.006459 0.000000 0.000000 0.000000
# 3 -0.006459 -0.006459 0.024712 0.000000 0.000000 0.000000
# 4 0.000000 0.000000 0.000000 0.050250 0.000000 0.000000
# 5 0.000000 0.000000 0.000000 0.000000 0.050250 0.000000
# 6 0.000000 0.000000 0.000000 0.000000 0.000000 0.054752
#
#
# Mechanical properties :
#
#
# Convention : Reuss Voigt Hill
#
# Bulk Modulus (GPa) = 58.52493 66.21337 62.36915
# Shear Modulus (GPa) = 18.77942 19.28888 19.03415
#
# Velocity S-wave (km/s) = 3.54507 3.59283 3.56903
# Velocity P-wave (km/s) = 7.47813 7.84362 7.66305
#
# Compressibility (1/GPa) = 0.01708673
#
# Stress axis : x y z
#
# Youngs Moduli (GPa) = 54.82279 54.82279 40.46542
#
# Poissons Ratio (x) = 0.50083 0.26137
# Poissons Ratio (y) = 0.50083 0.26137
# Poissons Ratio (z) = 0.35410 0.35410
#
# Static dielectric constant tensor:
#      x y z
#    x 1.491220 0.000000 0.000000 
#    y 0.000000 1.491220 0.000000 
#    z 0.000000 0.000000 1.510190 
# 
# From -- ./inp_files/1700.got.cif
#   From: 2010.05.17/outbox.cif.g08.bks.cpg/sg183_1_cif.got.tgz:1700.got - 2010.05.20 12:02:58.
