data_PCOD9584448
_publ_section_title
;
Structure prediction by ZEFSAII (Michael W. Deem and Ramdas Pophale) SiO2 
 PCOD9584448
Probable space group: P 64 2 2
;
_chemical_formula_sum "Si O2"
_cell_formula_units_Z 42
_cell_length_a 19.786876
_cell_length_b 19.786876
_cell_length_c 5.244566
_cell_angle_alpha 90.000000
_cell_angle_beta 90.000000
_cell_angle_gamma 120.000000
_cell_volume 1778.257509
_symmetry_space_group_name_H-M "P 64 2 2"
_symmetry_group_IT_number 181
_symmetry_cell_setting 'hexagonal'
loop_
_space_group_symop_operation_xyz
x,y,z
x-y,x,2/3+z
-y,x-y,1/3+z
-x,-y,z
-x+y,-x,2/3+z
y,-x+y,1/3+z
x-y,-y,-z
-x,-x+y,2/3-z
y,x,1/3-z
-y,-x,1/3-z
-x+y,y,-z
x,x-y,2/3-z
loop_
_atom_site_type_symbol
_atom_site_label
_atom_site_fract_x
_atom_site_fract_y
_atom_site_fract_z
Si Si1 0.278051 0.721950 0.666667
Si Si2 0.315297 0.000000 0.500000
Si Si3 0.288532 0.846450 0.273361
Si Si4 0.411538 0.588463 0.666667
Si Si5 0.000000 0.222577 0.333334
Si Si6 0.922797 0.845594 0.000000
O O1 0.276420 0.775325 0.444712
O O2 0.235574 0.635775 0.560443
O O3 0.396250 0.080199 0.536396
O O4 0.266354 0.991745 0.244993
O O5 0.197408 0.802592 0.166667
O O6 0.361792 0.865398 0.081371
O O7 0.934916 0.139937 0.450068
O O8 0.000000 0.896160 0.833334
#
# Coordination Sequence:
#
# PCOD9584448 Si02
#       6
#     6   6  12   6   6   6
#     4  10  22  42  70 107 147 188 252 324 400 472
#     4  12  30  50  77 111 160 214 268 320 392 506
#     4  10  25  45  74 107 150 205 258 332 402 476
#     4  10  22  43  71 109 145 191 253 328 398 478
#     4  12  30  49  80 109 158 206 264 326 396 472
#     4  12  28  52  78 122 152 205 261 348 402 476
#
# _framework density 23.618625999999999
#
# number of rings (size 3 to 8) (size 9 to 14) (size 15 to 20)
#    0.000    1.143    1.429    1.714   12.000   14.286 
#    0.000    4.286    0.000    0.000    0.000    0.000 
#    0.000    0.000    0.000    0.000    0.000    0.000 
#
# Total GULP energy -233837.874386 kJ/mol
# GULP energy per Si atom -5567.568438 kJ/mol
# Density = 2.356487 g / cm^3
# Si number density = 23.618626 Si / 1000 Ang^3
#
#
#
# Elastic Constant Matrix: (Units=GPa)
#
#
# Indices 1 2 3 4 5 6 
#
# 1 87.0204 40.3907 30.8309 0.0000 0.0000 0.0000
# 2 40.3907 87.0204 30.8309 0.0000 0.0000 0.0000
# 3 30.8309 30.8309 151.9727 0.0000 0.0000 0.0000
# 4 0.0000 0.0000 0.0000 32.8005 0.0000 0.0000
# 5 0.0000 0.0000 0.0000 0.0000 32.8005 0.0000
# 6 0.0000 0.0000 0.0000 0.0000 0.0000 23.3148
#
#
#
# Elastic Compliance Matrix: (Units=1/GPa)
#
#
# Indices 1 2 3 4 5 6 
#
# 1 0.015074 -0.006371 -0.001766 0.000000 0.000000 0.000000
# 2 -0.006371 0.015074 -0.001766 0.000000 0.000000 0.000000
# 3 -0.001766 -0.001766 0.007297 0.000000 0.000000 0.000000
# 4 0.000000 0.000000 0.000000 0.030487 0.000000 0.000000
# 5 0.000000 0.000000 0.000000 0.000000 0.030487 0.000000
# 6 0.000000 0.000000 0.000000 0.000000 0.000000 0.042891
#
#
# Mechanical properties :
#
#
# Convention : Reuss Voigt Hill
#
# Bulk Modulus (GPa) = 56.68851 58.90207 57.79529
# Shear Modulus (GPa) = 29.94085 32.71390 31.32737
#
# Velocity S-wave (km/s) = 3.56431 3.72572 3.64591
# Velocity P-wave (km/s) = 6.40256 6.59552 6.49976
#
# Compressibility (1/GPa) = 0.01764026
#
# Stress axis : x y z
#
# Youngs Moduli (GPa) = 66.33796 66.33796 137.05175
#
# Poissons Ratio (x) = 0.42265 0.24198
# Poissons Ratio (y) = 0.42265 0.24198
# Poissons Ratio (z) = 0.11713 0.11713
#
# Static dielectric constant tensor:
#      x y z
#    x 2.000660 0.000000 0.000000 
#    y 0.000000 2.000660 0.000000 
#    z 0.000000 0.000000 11.353600 
# 
# From -- ./inp_files/916.got.cif
#   From: 2010.05.17/outbox.cif.g08.bks.cpg/sg181_1_cif.got.tgz:916.got - 2010.05.20 11:51:17.
