data_PCOD9584310
_publ_section_title
;
Structure prediction by ZEFSAII (Michael W. Deem and Ramdas Pophale) SiO2 
 PCOD9584310
Probable space group: P 64 2 2
;
_chemical_formula_sum "Si O2"
_cell_formula_units_Z 96
_cell_length_a 14.926507
_cell_length_b 14.926507
_cell_length_c 22.443429
_cell_angle_alpha 90.000000
_cell_angle_beta 90.000000
_cell_angle_gamma 120.000000
_cell_volume 4330.481829
_symmetry_space_group_name_H-M "P 64 2 2"
_symmetry_group_IT_number 181
_symmetry_cell_setting 'hexagonal'
loop_
_space_group_symop_operation_xyz
x,y,z
x-y,x,2/3+z
-y,x-y,1/3+z
-x,-y,z
-x+y,-x,2/3+z
y,-x+y,1/3+z
x-y,-y,-z
-x,-x+y,2/3-z
y,x,1/3-z
-y,-x,1/3-z
-x+y,y,-z
x,x-y,2/3-z
loop_
_atom_site_type_symbol
_atom_site_label
_atom_site_fract_x
_atom_site_fract_y
_atom_site_fract_z
Si Si1 0.156973 0.808443 0.410354
Si Si2 0.917332 0.633183 0.019116
Si Si3 0.879853 0.421803 0.559484
Si Si4 0.144118 0.177451 0.349447
Si Si5 0.117917 0.594190 0.421981
Si Si6 0.238821 0.184236 0.777543
Si Si7 0.774655 0.528740 0.427824
Si Si8 0.591552 0.972044 0.566204
O O1 0.151334 0.893604 0.368280
O O2 0.127316 0.693718 0.389291
O O3 0.060847 0.781897 0.455394
O O4 0.278040 0.859472 0.426803
O O5 0.874492 0.536637 0.062153
O O6 0.993775 0.744217 0.048577
O O7 0.821773 0.643546 0.000000
O O8 0.967443 0.621118 0.958485
O O9 0.848063 0.378641 0.492217
O O10 0.831280 0.487104 0.588897
O O11 0.000000 0.500000 0.552557
O O12 0.055070 0.161897 0.394471
O O13 0.135448 0.067724 0.333334
O O14 0.190647 0.549224 0.402542
O O15 0.000000 0.500000 0.419299
O O16 0.227934 0.113967 0.833334
O O17 0.355075 0.224529 0.752124
O O18 0.761229 0.522457 0.500000
O O19 0.500000 0.000000 0.564691
O O20 0.640361 0.000000 0.500000
#
# Coordination Sequence:
#
# PCOD9584310 Si02
#       8
#    12  12  12  12  12  12  12  12
#     4  11  24  41  68  96 132 183 220 278 354 414
#     4  10  22  38  65  93 125 171 232 288 340 403
#     4  10  20  34  62  95 131 176 226 293 339 398
#     4  10  24  46  65  93 136 176 218 292 356 407
#     4  10  20  38  64  99 141 177 225 272 339 426
#     4  11  23  39  70  97 126 174 228 278 341 420
#     4   9  19  37  59  98 139 174 221 284 347 401
#     4  10  24  45  64  92 136 182 228 281 347 421
#
# _framework density 22.168434000000001
#
# number of rings (size 3 to 8) (size 9 to 14) (size 15 to 20)
#    0.000    1.875    1.250    1.500    5.250    5.000 
#    4.500    1.250    0.000    0.000    0.000    0.000 
#    0.000    0.000    0.000    0.000    0.000    0.000 
#
# Total GULP energy -534575.607102 kJ/mol
# GULP energy per Si atom -5568.495907 kJ/mol
# Density = 2.211798 g / cm^3
# Si number density = 22.168434 Si / 1000 Ang^3
#
#
#
# Elastic Constant Matrix: (Units=GPa)
#
#
# Indices 1 2 3 4 5 6 
#
# 1 171.6631 9.8802 18.1954 0.0000 0.0000 0.0000
# 2 9.8802 171.6631 18.1954 0.0000 0.0000 0.0000
# 3 18.1954 18.1954 49.8609 0.0000 0.0000 0.0000
# 4 0.0000 0.0000 0.0000 25.1743 0.0000 0.0000
# 5 0.0000 0.0000 0.0000 0.0000 25.1743 0.0000
# 6 0.0000 0.0000 0.0000 0.0000 0.0000 80.8915
#
#
#
# Elastic Compliance Matrix: (Units=1/GPa)
#
#
# Indices 1 2 3 4 5 6 
#
# 1 0.006062 -0.000119 -0.002169 0.000000 0.000000 0.000000
# 2 -0.000119 0.006062 -0.002169 0.000000 0.000000 0.000000
# 3 -0.002169 -0.002169 0.021639 0.000000 0.000000 0.000000
# 4 0.000000 0.000000 0.000000 0.039723 0.000000 0.000000
# 5 0.000000 0.000000 0.000000 0.000000 0.039723 0.000000
# 6 0.000000 0.000000 0.000000 0.000000 0.000000 0.012362
#
#
# Mechanical properties :
#
#
# Convention : Reuss Voigt Hill
#
# Bulk Modulus (GPa) = 40.24189 53.96990 47.10589
# Shear Modulus (GPa) = 35.02192 49.37572 42.19882
#
# Velocity S-wave (km/s) = 3.97899 4.72455 4.36771
# Velocity P-wave (km/s) = 6.26914 7.35935 6.83601
#
# Compressibility (1/GPa) = 0.02484973
#
# Stress axis : x y z
#
# Youngs Moduli (GPa) = 164.95949 164.95949 46.21356
#
# Poissons Ratio (x) = 0.01963 0.10023
# Poissons Ratio (y) = 0.01963 0.10023
# Poissons Ratio (z) = 0.35776 0.35776
#
# Static dielectric constant tensor:
#      x y z
#    x 1.808860 0.000000 0.000000 
#    y 0.000000 1.808860 0.000000 
#    z 0.000000 0.000000 1.484870 
# 
# From -- ./inp_files/11394.got.cif
#   From: 2010.05.17/outbox.cif.g08.bks.cpg/sg181_6_cif.got.tgz:11394.got - 2010.05.20 11:51:17.
