data_PCOD9584855
_publ_section_title
;
Structure prediction by ZEFSAII (Michael W. Deem and Ramdas Pophale) SiO2 
 PCOD9584855
Probable space group: P 63 2 2
;
_chemical_formula_sum "Si O2"
_cell_formula_units_Z 48
_cell_length_a 27.389750
_cell_length_b 27.389750
_cell_length_c 4.834642
_cell_angle_alpha 90.000000
_cell_angle_beta 90.000000
_cell_angle_gamma 120.000000
_cell_volume 3141.022799
_symmetry_space_group_name_H-M "P 63 2 2"
_symmetry_group_IT_number 182
_symmetry_cell_setting 'hexagonal'
loop_
_space_group_symop_operation_xyz
x,y,z
x-y,x,1/2+z
-y,x-y,z
-x,-y,1/2+z
-x+y,-x,z
y,-x+y,1/2+z
x-y,-y,-z
-x,-x+y,-z
y,x,-z
-y,-x,1/2-z
-x+y,y,1/2-z
x,x-y,1/2-z
loop_
_atom_site_type_symbol
_atom_site_label
_atom_site_fract_x
_atom_site_fract_y
_atom_site_fract_z
Si Si1 0.892292 0.413613 0.013446
Si Si2 0.395442 0.038985 0.762429
Si Si3 0.494651 0.193895 0.294686
Si Si4 0.155271 0.416576 0.204749
O O1 0.922332 0.461166 0.250000
O O2 0.838885 0.363832 0.178207
O O3 0.876085 0.438043 0.750000
O O4 0.931523 0.390106 0.892768
O O5 0.384773 0.090690 0.707741
O O6 0.386986 0.000000 0.500000
O O7 0.354687 0.000000 0.000000
O O8 0.521628 0.260814 0.250000
O O9 0.474169 0.181365 0.610346
O O10 0.437236 0.164542 0.111321
O O11 0.195140 0.390279 0.250000
#
# Coordination Sequence:
#
# PCOD9584855 Si02
#       4
#    12  12  12  12
#     4  11  21  33  46  64  88 115 143 167 207 275
#     4  11  21  33  46  65  92 117 141 173 212 250
#     4   9  17  31  49  64  77  98 136 181 212 240
#     4   9  17  31  49  65  81 106 141 175 205 239
#
# _framework density 15.281648000000001
#
# number of rings (size 3 to 8) (size 9 to 14) (size 15 to 20)
#    0.000    2.000    0.000    7.500    0.000    2.000 
#    0.000    2.500    0.000    0.500    0.000   14.000 
#    0.000    0.000    0.000    0.000    0.000    0.000 
#
# Total GULP energy -267380.375830 kJ/mol
# GULP energy per Si atom -5570.424496 kJ/mol
# Density = 1.524687 g / cm^3
# Si number density = 15.281648 Si / 1000 Ang^3
#
#
#
# Elastic Constant Matrix: (Units=GPa)
#
#
# Indices 1 2 3 4 5 6 
#
# 1 62.4824 44.6963 20.7252 0.0000 0.0000 0.0000
# 2 44.6963 62.4824 20.7252 0.0000 0.0000 0.0000
# 3 20.7252 20.7252 81.8049 0.0000 0.0000 0.0000
# 4 0.0000 0.0000 0.0000 23.7554 0.0000 0.0000
# 5 0.0000 0.0000 0.0000 0.0000 23.7554 0.0000
# 6 0.0000 0.0000 0.0000 0.0000 0.0000 8.8931
#
#
#
# Elastic Compliance Matrix: (Units=1/GPa)
#
#
# Indices 1 2 3 4 5 6 
#
# 1 0.033284 -0.022940 -0.002621 0.000000 0.000000 0.000000
# 2 -0.022940 0.033284 -0.002621 0.000000 0.000000 0.000000
# 3 -0.002621 -0.002621 0.013552 0.000000 0.000000 0.000000
# 4 0.000000 0.000000 0.000000 0.042096 0.000000 0.000000
# 5 0.000000 0.000000 0.000000 0.000000 0.042096 0.000000
# 6 0.000000 0.000000 0.000000 0.000000 0.000000 0.112447
#
#
# Mechanical properties :
#
#
# Convention : Reuss Voigt Hill
#
# Bulk Modulus (GPa) = 42.09256 42.11812 42.10534
# Shear Modulus (GPa) = 14.66109 19.32233 16.99171
#
# Velocity S-wave (km/s) = 3.10077 3.55972 3.33814
# Velocity P-wave (km/s) = 6.35799 6.67207 6.51692
#
# Compressibility (1/GPa) = 0.02375717
#
# Stress axis : x y z
#
# Youngs Moduli (GPa) = 30.04482 30.04482 73.78961
#
# Poissons Ratio (x) = 0.68923 0.19337
# Poissons Ratio (y) = 0.68923 0.19337
# Poissons Ratio (z) = 0.07873 0.07873
#
# Static dielectric constant tensor:
#      x y z
#    x 1.547820 0.000000 0.000000 
#    y 0.000000 1.547820 0.000000 
#    z 0.000000 0.000000 1.548770 
# 
# From -- ./inp_files/631.got.cif
#   From: 2010.05.17/outbox.cif.g08.bks.cpg/sg182_1_cif.got.tgz:631.got - 2010.05.20 11:58:53.
