data_PCOD9584356
_publ_section_title
;
Structure prediction by ZEFSAII (Michael W. Deem and Ramdas Pophale) SiO2 
 PCOD9584356
Probable space group: P 64 2 2
;
_chemical_formula_sum "Si O2"
_cell_formula_units_Z 42
_cell_length_a 19.906464
_cell_length_b 19.906464
_cell_length_c 5.471236
_cell_angle_alpha 90.000000
_cell_angle_beta 90.000000
_cell_angle_gamma 120.000000
_cell_volume 1877.605400
_symmetry_space_group_name_H-M "P 64 2 2"
_symmetry_group_IT_number 181
_symmetry_cell_setting 'hexagonal'
loop_
_space_group_symop_operation_xyz
x,y,z
x-y,x,2/3+z
-y,x-y,1/3+z
-x,-y,z
-x+y,-x,2/3+z
y,-x+y,1/3+z
x-y,-y,-z
-x,-x+y,2/3-z
y,x,1/3-z
-y,-x,1/3-z
-x+y,y,-z
x,x-y,2/3-z
loop_
_atom_site_type_symbol
_atom_site_label
_atom_site_fract_x
_atom_site_fract_y
_atom_site_fract_z
Si Si1 0.931177 0.213697 0.128700
Si Si2 0.126818 0.000000 0.500000
Si Si3 0.710617 0.289384 0.666667
Si Si4 0.516154 0.117606 0.245953
Si Si5 0.000000 0.364334 0.833334
O O1 0.839593 0.160408 0.166667
O O2 0.000000 0.249892 0.333334
O O3 0.942427 0.285701 0.971350
O O4 0.948206 0.153287 0.982920
O O5 0.054681 0.945320 0.666667
O O6 0.639787 0.279574 0.500000
O O7 0.796262 0.322927 0.553391
O O8 0.558682 0.117364 0.500000
O O9 0.430339 0.048145 0.301789
O O10 0.552198 0.104395 0.000000
#
# Coordination Sequence:
#
# PCOD9584356 Si02
#       5
#    12   6   6  12   6
#     4  11  24  45  73 101 149 199 261 326 394 473
#     4  11  22  42  69 102 139 195 254 330 400 467
#     4  10  20  44  78 118 151 196 255 330 396 476
#     4  11  26  47  79 109 156 198 256 317 396 471
#     4  11  29  46  72 110 151 211 258 316 400 483
#
# _framework density 22.368917
#
# number of rings (size 3 to 8) (size 9 to 14) (size 15 to 20)
#    0.000    1.143    4.286    0.429    4.000    3.429 
#    0.000    5.000    0.000    0.000    0.000    0.000 
#    0.000    0.000    0.000    0.000    0.000    0.000 
#
# Total GULP energy -234419.202280 kJ/mol
# GULP energy per Si atom -5581.409578 kJ/mol
# Density = 2.231800 g / cm^3
# Si number density = 22.368917 Si / 1000 Ang^3
#
#
#
# Elastic Constant Matrix: (Units=GPa)
#
#
# Indices 1 2 3 4 5 6 
#
# 1 110.5476 112.8638 63.4241 0.0000 0.0000 0.0000
# 2 112.8638 110.5476 63.4241 0.0000 0.0000 0.0000
# 3 63.4241 63.4241 127.4222 0.0000 0.0000 0.0000
# 4 0.0000 0.0000 0.0000 32.2142 0.0000 0.0000
# 5 0.0000 0.0000 0.0000 0.0000 32.2142 0.0000
# 6 0.0000 0.0000 0.0000 0.0000 0.0000 -1.1581
#
#
#
# Elastic Compliance Matrix: (Units=1/GPa)
#
#
# Indices 1 2 3 4 5 6 
#
# 1 -0.212752 0.218991 -0.003106 0.000000 0.000000 0.000000
# 2 0.218991 -0.212752 -0.003106 0.000000 0.000000 0.000000
# 3 -0.003106 -0.003106 0.010940 0.000000 0.000000 0.000000
# 4 0.000000 0.000000 0.000000 0.031042 0.000000 0.000000
# 5 0.000000 0.000000 0.000000 0.000000 0.031042 0.000000
# 6 0.000000 0.000000 0.000000 0.000000 0.000000 -0.863486
#
#
# Mechanical properties :
#
#
# Convention : Reuss Voigt Hill
#
# Bulk Modulus (GPa) = 90.94405 91.99349 91.46877
# Shear Modulus (GPa) = -3.05276 19.90775 8.42749
#
# Velocity S-wave (km/s) = -1.16949 2.98648 1.94311
# Velocity P-wave (km/s) = 6.23868 7.28745 6.78336
#
# Compressibility (1/GPa) = 0.01099577
#
# Stress axis : x y z
#
# Youngs Moduli (GPa) = -4.70031 -4.70031 91.41136
#
# Poissons Ratio (x) = 1.02933 0.28389
# Poissons Ratio (y) = 1.02933 0.28389
# Poissons Ratio (z) = -0.01460 -0.01460
#
# Static dielectric constant tensor:
#      x y z
#    x 1.906020 0.000000 0.000000 
#    y 0.000000 1.906020 0.000000 
#    z 0.000000 0.000000 1.832960 
# 
# From -- ./inp_files/890.got.cif
#   From: 2010.05.17/outbox.cif.g08.bks.cpg/sg181_1_cif.got.tgz:890.got - 2010.05.20 11:51:17.
