data_PCOD9584066
_publ_section_title
;
Structure prediction by ZEFSAII (Michael W. Deem and Ramdas Pophale) SiO2 
 PCOD9584066
Probable space group: P 62 2 2
;
_chemical_formula_sum "Si O2"
_cell_formula_units_Z 69
_cell_length_a 10.916796
_cell_length_b 10.916796
_cell_length_c 32.804669
_cell_angle_alpha 90.000000
_cell_angle_beta 90.000000
_cell_angle_gamma 120.000000
_cell_volume 3385.763988
_symmetry_space_group_name_H-M "P 62 2 2"
_symmetry_group_IT_number 180
_symmetry_cell_setting 'hexagonal'
loop_
_space_group_symop_operation_xyz
x,y,z
x-y,x,1/3+z
-y,x-y,2/3+z
-x,-y,z
-x+y,-x,1/3+z
y,-x+y,2/3+z
x-y,-y,-z
-x,-x+y,1/3-z
y,x,2/3-z
-y,-x,2/3-z
-x+y,y,-z
x,x-y,1/3-z
loop_
_atom_site_type_symbol
_atom_site_label
_atom_site_fract_x
_atom_site_fract_y
_atom_site_fract_z
Si Si1 0.298232 0.041437 0.192536
Si Si2 0.736565 0.591978 0.897640
Si Si3 0.381277 0.046948 0.362515
Si Si4 0.401133 0.727545 0.926470
Si Si5 0.500000 0.000000 0.500000
Si Si6 0.000000 0.500000 0.797414
Si Si7 0.669311 0.110172 0.723242
O O1 0.225952 0.112976 0.166667
O O2 0.409751 0.040525 0.160798
O O3 0.375110 0.121638 0.234229
O O4 0.204727 0.884368 0.209001
O O5 0.731077 0.662251 0.940198
O O6 0.683231 0.424964 0.903505
O O7 0.619914 0.582964 0.867516
O O8 0.466370 0.200567 0.383476
O O9 0.339472 0.053616 0.316099
O O10 0.500000 0.000000 0.358766
O O11 0.270787 0.710368 0.953982
O O12 0.460548 0.862754 0.896930
O O13 0.500000 0.000000 0.729996
#
# Coordination Sequence:
#
# PCOD9584066 Si02
#       7
#    12  12  12  12   3   6  12
#     4  12  24  39  60  96 131 172 213 263 339 397
#     4  11  22  39  65  94 128 170 221 278 326 396
#     4   9  21  38  61  94 122 166 223 268 320 382
#     4  11  20  40  62  93 130 169 214 268 326 389
#     4  12  20  40  64  92 120 172 222 270 326 376
#     4  12  24  36  62  92 134 174 213 261 330 416
#     4  11  20  36  62  91 133 167 207 271 326 392
#
# _framework density 20.379449000000001
#
# number of rings (size 3 to 8) (size 9 to 14) (size 15 to 20)
#    0.000    1.043    6.957    1.565    0.000    0.696 
#    0.000    2.174    0.000    0.000    0.000    0.000 
#    0.000    0.000    0.000    0.000    0.000    0.000 
#
# Total GULP energy -384276.624445 kJ/mol
# GULP energy per Si atom -5569.226441 kJ/mol
# Density = 2.033306 g / cm^3
# Si number density = 20.379449 Si / 1000 Ang^3
#
#
#
# Elastic Constant Matrix: (Units=GPa)
#
#
# Indices 1 2 3 4 5 6 
#
# 1 70.5495 48.6365 55.8767 0.0000 0.0000 0.0000
# 2 48.6365 70.5495 55.8767 0.0000 0.0000 0.0000
# 3 55.8767 55.8767 156.7443 0.0000 0.0000 0.0000
# 4 0.0000 0.0000 0.0000 30.8790 0.0000 0.0000
# 5 0.0000 0.0000 0.0000 0.0000 30.8790 0.0000
# 6 0.0000 0.0000 0.0000 0.0000 0.0000 10.9565
#
#
#
# Elastic Compliance Matrix: (Units=1/GPa)
#
#
# Indices 1 2 3 4 5 6 
#
# 1 0.029119 -0.016516 -0.004493 0.000000 0.000000 0.000000
# 2 -0.016516 0.029119 -0.004493 0.000000 0.000000 0.000000
# 3 -0.004493 -0.004493 0.009583 0.000000 0.000000 0.000000
# 4 0.000000 0.000000 0.000000 0.032384 0.000000 0.000000
# 5 0.000000 0.000000 0.000000 0.000000 0.032384 0.000000
# 6 0.000000 0.000000 0.000000 0.000000 0.000000 0.091270
#
#
# Mechanical properties :
#
#
# Convention : Reuss Voigt Hill
#
# Bulk Modulus (GPa) = 59.46092 68.73588 64.09840
# Shear Modulus (GPa) = 17.82730 23.70648 20.76689
#
# Velocity S-wave (km/s) = 2.96086 3.41435 3.19566
# Velocity P-wave (km/s) = 6.39759 7.02460 6.71841
#
# Compressibility (1/GPa) = 0.01681777
#
# Stress axis : x y z
#
# Youngs Moduli (GPa) = 34.34193 34.34193 104.35223
#
# Poissons Ratio (x) = 0.56720 0.46882
# Poissons Ratio (y) = 0.56720 0.46882
# Poissons Ratio (z) = 0.15429 0.15429
#
# Static dielectric constant tensor:
#      x y z
#    x 1.798400 0.000000 0.000000 
#    y 0.000000 1.798400 0.000000 
#    z 0.000000 0.000000 1.804640 
# 
# From -- ./inp_files/12319.got.cif
#   From: 2010.05.17/outbox.cif.g08.bks.cpg/sg180_7_cif.got.tgz:12319.got - 2010.05.20 11:43:55.
