data_PCOD9584401
_publ_section_title
;
Structure prediction by ZEFSAII (Michael W. Deem and Ramdas Pophale) SiO2 
 PCOD9584401
Probable space group: P 64 2 2
;
_chemical_formula_sum "Si O2"
_cell_formula_units_Z 72
_cell_length_a 11.829363
_cell_length_b 11.829363
_cell_length_c 26.756009
_cell_angle_alpha 90.000000
_cell_angle_beta 90.000000
_cell_angle_gamma 120.000000
_cell_volume 3242.460416
_symmetry_space_group_name_H-M "P 64 2 2"
_symmetry_group_IT_number 181
_symmetry_cell_setting 'hexagonal'
loop_
_space_group_symop_operation_xyz
x,y,z
x-y,x,2/3+z
-y,x-y,1/3+z
-x,-y,z
-x+y,-x,2/3+z
y,-x+y,1/3+z
x-y,-y,-z
-x,-x+y,2/3-z
y,x,1/3-z
-y,-x,1/3-z
-x+y,y,-z
x,x-y,2/3-z
loop_
_atom_site_type_symbol
_atom_site_label
_atom_site_fract_x
_atom_site_fract_y
_atom_site_fract_z
Si Si1 0.421526 0.253272 0.739358
Si Si2 0.870678 0.874380 0.606643
Si Si3 0.843314 0.413796 0.890445
Si Si4 0.500000 0.500000 0.990168
Si Si5 0.189320 0.411619 0.705601
Si Si6 0.500000 0.500000 0.523161
Si Si7 0.469665 0.833104 0.237199
O O1 0.265748 0.150753 0.744539
O O2 0.433615 0.272915 0.678253
O O3 0.450863 0.376165 0.773574
O O4 0.522517 0.205935 0.756032
O O5 0.883433 0.883433 0.666667
O O6 0.730303 0.866596 0.603406
O O7 0.000000 0.000000 0.585611
O O8 0.803320 0.401660 0.833334
O O9 0.760823 0.269449 0.914480
O O10 0.779319 0.492595 0.912864
O O11 0.000000 0.500000 0.890978
O O12 0.615888 0.537746 0.951470
O O13 0.545038 0.630810 0.020829
O O14 0.486322 0.390676 0.482695
#
# Coordination Sequence:
#
# PCOD9584401 Si02
#       7
#    12  12  12   6  12   6  12
#     4  10  22  39  68 101 132 176 228 282 344 411
#     4   9  20  41  62  96 136 174 221 280 341 400
#     4  11  24  43  65  95 135 178 221 278 344 406
#     4   9  20  42  65 103 127 179 226 276 355 412
#     4  10  21  43  63 102 136 167 232 283 345 407
#     4  11  22  42  69  99 139 184 223 284 357 412
#     4  10  23  43  66  94 137 179 229 278 344 426
#
# _framework density 22.205361
#
# number of rings (size 3 to 8) (size 9 to 14) (size 15 to 20)
#    0.000    2.000    0.833    1.500    4.667    2.667 
#   24.000    0.000    0.000    2.000    0.000    1.167 
#    0.000    0.000    0.000    0.000    0.000    0.000 
#
# Total GULP energy -400820.632959 kJ/mol
# GULP energy per Si atom -5566.953236 kJ/mol
# Density = 2.215482 g / cm^3
# Si number density = 22.205361 Si / 1000 Ang^3
#
#
#
# Elastic Constant Matrix: (Units=GPa)
#
#
# Indices 1 2 3 4 5 6 
#
# 1 71.6986 21.1633 16.3619 0.0000 0.0000 0.0000
# 2 21.1633 71.6986 16.3619 0.0000 0.0000 0.0000
# 3 16.3619 16.3619 89.1627 0.0000 0.0000 0.0000
# 4 0.0000 0.0000 0.0000 21.6482 0.0000 0.0000
# 5 0.0000 0.0000 0.0000 0.0000 21.6482 0.0000
# 6 0.0000 0.0000 0.0000 0.0000 0.0000 25.2676
#
#
#
# Elastic Compliance Matrix: (Units=1/GPa)
#
#
# Indices 1 2 3 4 5 6 
#
# 1 0.015651 -0.004137 -0.002113 0.000000 0.000000 0.000000
# 2 -0.004137 0.015651 -0.002113 0.000000 0.000000 0.000000
# 3 -0.002113 -0.002113 0.011991 0.000000 0.000000 0.000000
# 4 0.000000 0.000000 0.000000 0.046193 0.000000 0.000000
# 5 0.000000 0.000000 0.000000 0.000000 0.046193 0.000000
# 6 0.000000 0.000000 0.000000 0.000000 0.000000 0.039576
#
#
# Mechanical properties :
#
#
# Convention : Reuss Voigt Hill
#
# Bulk Modulus (GPa) = 37.64172 37.81491 37.72832
# Shear Modulus (GPa) = 24.89589 25.62432 25.26010
#
# Velocity S-wave (km/s) = 3.35201 3.40070 3.37644
# Velocity P-wave (km/s) = 5.65418 5.69967 5.67697
#
# Compressibility (1/GPa) = 0.02656626
#
# Stress axis : x y z
#
# Youngs Moduli (GPa) = 63.89501 63.89501 83.39687
#
# Poissons Ratio (x) = 0.26436 0.17620
# Poissons Ratio (y) = 0.26436 0.17620
# Poissons Ratio (z) = 0.13499 0.13499
#
# Static dielectric constant tensor:
#      x y z
#    x 1.982420 0.000000 0.000000 
#    y 0.000000 1.982420 0.000000 
#    z 0.000000 0.000000 1.973620 
# 
# From -- ./inp_files/12369.got.cif
#   From: 2010.05.17/outbox.cif.g08.bks.cpg/sg181_7_cif.got.tgz:12369.got - 2010.05.20 11:51:17.
