data_PCOD9584437
_publ_section_title
;
Structure prediction by ZEFSAII (Michael W. Deem and Ramdas Pophale) SiO2 
 PCOD9584437
Probable space group: P 64 2 2
;
_chemical_formula_sum "Si O2"
_cell_formula_units_Z 48
_cell_length_a 10.788034
_cell_length_b 10.788034
_cell_length_c 19.390825
_cell_angle_alpha 90.000000
_cell_angle_beta 90.000000
_cell_angle_gamma 120.000000
_cell_volume 1954.391349
_symmetry_space_group_name_H-M "P 64 2 2"
_symmetry_group_IT_number 181
_symmetry_cell_setting 'hexagonal'
loop_
_space_group_symop_operation_xyz
x,y,z
x-y,x,2/3+z
-y,x-y,1/3+z
-x,-y,z
-x+y,-x,2/3+z
y,-x+y,1/3+z
x-y,-y,-z
-x,-x+y,2/3-z
y,x,1/3-z
-y,-x,1/3-z
-x+y,y,-z
x,x-y,2/3-z
loop_
_atom_site_type_symbol
_atom_site_label
_atom_site_fract_x
_atom_site_fract_y
_atom_site_fract_z
Si Si1 0.000000 0.000000 0.000000
Si Si2 0.500000 0.000000 0.000000
Si Si3 0.245523 0.754478 0.666667
Si Si4 0.362293 0.350471 0.894645
Si Si5 0.130443 0.926842 0.885337
Si Si6 0.546210 0.746145 0.024478
O O1 0.878454 0.966953 0.941359
O O2 0.645903 0.114064 0.963289
O O3 0.123408 0.728227 0.612406
O O4 0.203102 0.602872 0.703838
O O5 0.500000 0.500000 0.873394
O O6 0.270551 0.272672 0.828154
O O7 0.420586 0.271215 0.944903
O O8 0.105112 0.786033 0.927411
O O9 0.000000 0.869698 0.833334
#
# Coordination Sequence:
#
# PCOD9584437 Si02
#       6
#     3   3   6  12  12  12
#     4  12  28  46  62 100 148 188 250 318 378 438
#     4  10  22  40  64  96 140 188 240 282 384 422
#     4   9  20  44  70 103 152 182 240 300 370 441
#     4  10  22  43  71 105 143 193 245 303 371 454
#     4  12  25  43  71 101 141 194 247 307 378 457
#     4  10  22  41  69 103 145 190 233 312 361 447
#
# _framework density 24.560075000000001
#
# number of rings (size 3 to 8) (size 9 to 14) (size 15 to 20)
#    0.000    1.500    0.000    4.125    1.750    3.000 
#    0.000    1.250    0.000    0.000    0.000    0.000 
#    0.000    0.000    0.000    0.000    0.000    0.000 
#
# Total GULP energy -267907.802307 kJ/mol
# GULP energy per Si atom -5581.412548 kJ/mol
# Density = 2.450418 g / cm^3
# Si number density = 24.560075 Si / 1000 Ang^3
#
#
#
# Elastic Constant Matrix: (Units=GPa)
#
#
# Indices 1 2 3 4 5 6 
#
# 1 108.1002 30.6846 56.2055 0.0000 0.0000 0.0000
# 2 30.6846 108.1002 56.2055 0.0000 0.0000 0.0000
# 3 56.2055 56.2055 147.7258 0.0000 0.0000 0.0000
# 4 0.0000 0.0000 0.0000 37.6710 0.0000 0.0000
# 5 0.0000 0.0000 0.0000 0.0000 37.6710 0.0000
# 6 0.0000 0.0000 0.0000 0.0000 0.0000 38.7078
#
#
#
# Elastic Compliance Matrix: (Units=1/GPa)
#
#
# Indices 1 2 3 4 5 6 
#
# 1 0.011666 -0.001251 -0.003963 0.000000 0.000000 0.000000
# 2 -0.001251 0.011666 -0.003963 0.000000 0.000000 0.000000
# 3 -0.003963 -0.003963 0.009785 0.000000 0.000000 0.000000
# 4 0.000000 0.000000 0.000000 0.026546 0.000000 0.000000
# 5 0.000000 0.000000 0.000000 0.000000 0.026546 0.000000
# 6 0.000000 0.000000 0.000000 0.000000 0.000000 0.025835
#
#
# Mechanical properties :
#
#
# Convention : Reuss Voigt Hill
#
# Bulk Modulus (GPa) = 67.73163 72.23527 69.98345
# Shear Modulus (GPa) = 36.95028 37.53197 37.24112
#
# Velocity S-wave (km/s) = 3.88298 3.91342 3.89823
# Velocity P-wave (km/s) = 6.90950 7.06366 6.98701
#
# Compressibility (1/GPa) = 0.01476415
#
# Stress axis : x y z
#
# Youngs Moduli (GPa) = 85.71812 85.71812 102.20114
#
# Poissons Ratio (x) = 0.10725 0.40498
# Poissons Ratio (y) = 0.10725 0.40498
# Poissons Ratio (z) = 0.33967 0.33967
#
# Static dielectric constant tensor:
#      x y z
#    x 2.032700 0.000000 0.000000 
#    y 0.000000 2.032700 0.000000 
#    z 0.000000 0.000000 1.915490 
# 
# From -- ./inp_files/9977.got.cif
#   From: 2010.05.17/outbox.cif.g08.bks.cpg/sg181_5_cif.got.tgz:9977.got - 2010.05.20 11:51:17.
