data_PCOD9584450
_publ_section_title
;
Structure prediction by ZEFSAII (Michael W. Deem and Ramdas Pophale) SiO2 
 PCOD9584450
Probable space group: P 64 2 2
;
_chemical_formula_sum "Si O2"
_cell_formula_units_Z 84
_cell_length_a 18.880121
_cell_length_b 18.880121
_cell_length_c 13.463466
_cell_angle_alpha 90.000000
_cell_angle_beta 90.000000
_cell_angle_gamma 120.000000
_cell_volume 4156.205916
_symmetry_space_group_name_H-M "P 64 2 2"
_symmetry_group_IT_number 181
_symmetry_cell_setting 'hexagonal'
loop_
_space_group_symop_operation_xyz
x,y,z
x-y,x,2/3+z
-y,x-y,1/3+z
-x,-y,z
-x+y,-x,2/3+z
y,-x+y,1/3+z
x-y,-y,-z
-x,-x+y,2/3-z
y,x,1/3-z
-y,-x,1/3-z
-x+y,y,-z
x,x-y,2/3-z
loop_
_atom_site_type_symbol
_atom_site_label
_atom_site_fract_x
_atom_site_fract_y
_atom_site_fract_z
Si Si1 0.079158 0.709569 0.761219
Si Si2 0.302883 0.546972 0.612636
Si Si3 0.273808 0.386712 0.539998
Si Si4 0.794628 0.918077 0.435705
Si Si5 0.801187 0.974355 0.894407
Si Si6 0.513348 0.349340 0.102459
Si Si7 0.432558 0.018152 0.712603
O O1 0.089992 0.797722 0.741655
O O2 0.151920 0.710485 0.823224
O O3 0.000000 0.667785 0.833334
O O4 0.057062 0.649110 0.667553
O O5 0.379520 0.620481 0.666667
O O6 0.282362 0.564723 0.500000
O O7 0.312735 0.466579 0.609071
O O8 0.226947 0.527966 0.682656
O O9 0.193872 0.387744 0.500000
O O10 0.235439 0.295047 0.579802
O O11 0.338396 0.403134 0.453309
O O12 0.837975 0.918988 0.333334
O O13 0.784672 0.841203 0.496784
O O14 0.844682 0.000000 0.500000
O O15 0.809151 0.904576 0.833334
O O16 0.846475 0.000000 0.000000
O O17 0.592799 0.407202 0.166667
O O18 0.481793 0.403932 0.046240
O O19 0.500000 0.000000 0.759887
#
# Coordination Sequence:
#
# PCOD9584450 Si02
#       7
#    12  12  12  12  12  12  12
#     4   9  21  33  62  98 129 168 208 267 337 404
#     4  11  23  43  66  94 132 188 235 283 341 407
#     4  10  22  43  67  91 130 184 227 271 340 413
#     4  11  23  43  66  99 138 170 216 282 349 409
#     4  11  25  44  71 100 132 181 236 280 345 425
#     4  11  20  37  64  99 134 177 224 282 346 406
#     4  11  19  37  64  98 140 169 219 275 350 412
#
# _framework density 20.210740000000001
#
# number of rings (size 3 to 8) (size 9 to 14) (size 15 to 20)
#    0.000    1.429    4.286    2.143    2.000    2.571 
#    2.571    5.000    0.000    0.000    0.000    0.000 
#    0.000    0.000    0.000    0.000    0.000    0.000 
#
# Total GULP energy -468615.572250 kJ/mol
# GULP energy per Si atom -5578.756812 kJ/mol
# Density = 2.016474 g / cm^3
# Si number density = 20.210740 Si / 1000 Ang^3
#
#
#
# Elastic Constant Matrix: (Units=GPa)
#
#
# Indices 1 2 3 4 5 6 
#
# 1 94.5862 52.7466 47.6278 0.0000 0.0000 0.0000
# 2 52.7466 94.5862 47.6278 0.0000 0.0000 0.0000
# 3 47.6278 47.6278 116.3084 0.0000 0.0000 0.0000
# 4 0.0000 0.0000 0.0000 46.8688 0.0000 0.0000
# 5 0.0000 0.0000 0.0000 0.0000 46.8688 0.0000
# 6 0.0000 0.0000 0.0000 0.0000 0.0000 20.9198
#
#
#
# Elastic Compliance Matrix: (Units=1/GPa)
#
#
# Indices 1 2 3 4 5 6 
#
# 1 0.016566 -0.007335 -0.003780 0.000000 0.000000 0.000000
# 2 -0.007335 0.016566 -0.003780 0.000000 0.000000 0.000000
# 3 -0.003780 -0.003780 0.011694 0.000000 0.000000 0.000000
# 4 0.000000 0.000000 0.000000 0.021336 0.000000 0.000000
# 5 0.000000 0.000000 0.000000 0.000000 0.021336 0.000000
# 6 0.000000 0.000000 0.000000 0.000000 0.000000 0.047802
#
#
# Mechanical properties :
#
#
# Convention : Reuss Voigt Hill
#
# Bulk Modulus (GPa) = 66.50830 66.83168 66.66999
# Shear Modulus (GPa) = 29.39411 33.43004 31.41207
#
# Velocity S-wave (km/s) = 3.81777 4.07144 3.94665
# Velocity P-wave (km/s) = 7.23966 7.43245 7.33669
#
# Compressibility (1/GPa) = 0.01503572
#
# Stress axis : x y z
#
# Youngs Moduli (GPa) = 60.36424 60.36424 85.51539
#
# Poissons Ratio (x) = 0.44275 0.32327
# Poissons Ratio (y) = 0.44275 0.32327
# Poissons Ratio (z) = 0.22819 0.22819
#
# Static dielectric constant tensor:
#      x y z
#    x 1.734840 0.000000 0.000000 
#    y 0.000000 1.734840 0.000000 
#    z 0.000000 0.000000 1.737080 
# 
# From -- ./inp_files/6509.got.cif
#   From: 2010.05.17/outbox.cif.g08.bks.cpg/sg181_4_cif.got.tgz:6509.got - 2010.05.20 11:51:17.
