data_PCOD9584601
_publ_section_title
;
Structure prediction by ZEFSAII (Michael W. Deem and Ramdas Pophale) SiO2 
 PCOD9584601
Probable space group: P 63 2 2
;
_chemical_formula_sum "Si O2"
_cell_formula_units_Z 96
_cell_length_a 22.778781
_cell_length_b 22.778781
_cell_length_c 12.023662
_cell_angle_alpha 90.000000
_cell_angle_beta 90.000000
_cell_angle_gamma 120.000000
_cell_volume 5402.917664
_symmetry_space_group_name_H-M "P 63 2 2"
_symmetry_group_IT_number 182
_symmetry_cell_setting 'hexagonal'
loop_
_space_group_symop_operation_xyz
x,y,z
x-y,x,1/2+z
-y,x-y,z
-x,-y,1/2+z
-x+y,-x,z
y,-x+y,1/2+z
x-y,-y,-z
-x,-x+y,-z
y,x,-z
-y,-x,1/2-z
-x+y,y,1/2-z
x,x-y,1/2-z
loop_
_atom_site_type_symbol
_atom_site_label
_atom_site_fract_x
_atom_site_fract_y
_atom_site_fract_z
Si Si1 0.132880 0.554195 0.506198
Si Si2 0.586918 0.050706 0.183610
Si Si3 0.464753 0.318487 0.358880
Si Si4 0.811042 0.456603 0.681599
Si Si5 0.924614 0.662588 0.525668
Si Si6 0.239031 0.733784 0.999954
Si Si7 0.637611 0.795794 0.377376
Si Si8 0.597110 0.675976 0.261629
O O1 0.071801 0.486971 0.557186
O O2 0.137355 0.613610 0.583408
O O3 0.130106 0.580636 0.384530
O O4 0.199083 0.545828 0.510681
O O5 0.522653 0.045305 0.250000
O O6 0.655315 0.112521 0.239322
O O7 0.587050 0.982109 0.202443
O O8 0.394399 0.290103 0.428351
O O9 0.491880 0.266658 0.384291
O O10 0.774861 0.387431 0.750000
O O11 0.762776 0.462355 0.590277
O O12 0.850549 0.524628 0.754062
O O13 0.867098 0.681715 0.559117
O O14 0.930655 0.625266 0.636197
O O15 0.000000 0.722380 0.500000
O O16 0.192051 0.761034 0.051421
O O17 0.629718 0.814859 0.250000
O O18 0.648565 0.733342 0.347789
#
# Coordination Sequence:
#
# PCOD9584601 Si02
#       8
#    12  12  12  12  12  12  12  12
#     4  10  21  34  48  69  97 120 165 217 263 326
#     4  10  21  34  50  74  94 124 165 213 270 320
#     4   9  18  35  49  66  92 121 171 213 257 318
#     4  11  21  34  52  69  94 128 162 210 276 342
#     4  10  16  29  54  74  93 131 163 195 242 323
#     4  10  19  34  49  62  92 129 158 200 270 325
#     4   9  17  30  46  68  97 120 148 186 251 309
#     4  11  18  32  52  74 101 125 153 202 276 326
#
# _framework density 17.768177000000001
#
# number of rings (size 3 to 8) (size 9 to 14) (size 15 to 20)
#    0.000    2.000    6.250    1.125    0.000    0.500 
#    6.000    5.000    8.250    0.000    0.000    0.000 
#    0.000    0.000    0.000    0.000    0.000    0.000 
#
# Total GULP energy -534528.596177 kJ/mol
# GULP energy per Si atom -5568.006210 kJ/mol
# Density = 1.772774 g / cm^3
# Si number density = 17.768177 Si / 1000 Ang^3
#
#
#
# Elastic Constant Matrix: (Units=GPa)
#
#
# Indices 1 2 3 4 5 6 
#
# 1 55.7720 14.8585 17.7031 0.0000 0.0000 0.0000
# 2 14.8585 55.7720 17.7031 0.0000 0.0000 0.0000
# 3 17.7031 17.7031 38.0829 0.0000 0.0000 0.0000
# 4 0.0000 0.0000 0.0000 21.5443 0.0000 0.0000
# 5 0.0000 0.0000 0.0000 0.0000 21.5443 0.0000
# 6 0.0000 0.0000 0.0000 0.0000 0.0000 20.4567
#
#
#
# Elastic Compliance Matrix: (Units=1/GPa)
#
#
# Indices 1 2 3 4 5 6 
#
# 1 0.021451 -0.002991 -0.008581 0.000000 0.000000 0.000000
# 2 -0.002991 0.021451 -0.008581 0.000000 0.000000 0.000000
# 3 -0.008581 -0.008581 0.034237 0.000000 0.000000 0.000000
# 4 0.000000 0.000000 0.000000 0.046416 0.000000 0.000000
# 5 0.000000 0.000000 0.000000 0.000000 0.046416 0.000000
# 6 0.000000 0.000000 0.000000 0.000000 0.000000 0.048884
#
#
# Mechanical properties :
#
#
# Convention : Reuss Voigt Hill
#
# Bulk Modulus (GPa) = 27.15069 27.79515 27.47292
# Shear Modulus (GPa) = 18.42041 19.33319 18.87680
#
# Velocity S-wave (km/s) = 3.22329 3.30218 3.26297
# Velocity P-wave (km/s) = 5.40060 5.49694 5.44898
#
# Compressibility (1/GPa) = 0.03683148
#
# Stress axis : x y z
#
# Youngs Moduli (GPa) = 46.61822 46.61822 29.20853
#
# Poissons Ratio (x) = 0.13944 0.25064
# Poissons Ratio (y) = 0.13944 0.25064
# Poissons Ratio (z) = 0.40004 0.40004
#
# Static dielectric constant tensor:
#      x y z
#    x 1.646160 0.000000 0.000000 
#    y 0.000000 1.646160 0.000000 
#    z 0.000000 0.000000 1.676870 
# 
# From -- ./inp_files/2848.got.cif
#   From: 2010.05.17/outbox.cif.g08.bks.cpg/sg182_2_cif.got.tgz:2848.got - 2010.05.20 11:58:53.
