data_PCOD9584708
_publ_section_title
;
Structure prediction by ZEFSAII (Michael W. Deem and Ramdas Pophale) SiO2 
 PCOD9584708
Probable space group: P 63 2 2
;
_chemical_formula_sum "Si O2"
_cell_formula_units_Z 48
_cell_length_a 23.818720
_cell_length_b 23.818720
_cell_length_c 5.600256
_cell_angle_alpha 90.000000
_cell_angle_beta 90.000000
_cell_angle_gamma 120.000000
_cell_volume 2751.536954
_symmetry_space_group_name_H-M "P 63 2 2"
_symmetry_group_IT_number 182
_symmetry_cell_setting 'hexagonal'
loop_
_space_group_symop_operation_xyz
x,y,z
x-y,x,1/2+z
-y,x-y,z
-x,-y,1/2+z
-x+y,-x,z
y,-x+y,1/2+z
x-y,-y,-z
-x,-x+y,-z
y,x,-z
-y,-x,1/2-z
-x+y,y,1/2-z
x,x-y,1/2-z
loop_
_atom_site_type_symbol
_atom_site_label
_atom_site_fract_x
_atom_site_fract_y
_atom_site_fract_z
Si Si1 0.324424 0.324424 0.000000
Si Si2 0.419317 0.580684 0.750000
Si Si3 0.565394 0.933556 0.600199
Si Si4 0.478303 0.772960 0.002075
Si Si5 0.384806 0.256473 0.797636
O O1 0.346579 0.382363 0.810936
O O2 0.324256 0.262625 0.890174
O O3 0.391917 0.508095 0.660271
O O4 0.369770 0.573605 0.957956
O O5 0.589419 0.896137 0.423869
O O6 0.571652 0.000000 0.500000
O O7 0.476927 0.738464 0.750000
O O8 0.467111 0.733556 0.250000
O O9 0.551317 0.833961 0.033925
O O10 0.366683 0.183342 0.750000
#
# Coordination Sequence:
#
# PCOD9584708 Si02
#       5
#     6   6  12  12  12
#     4  10  20  38  52  90 116 138 200 244 288 376
#     4  12  22  40  66  80 112 160 186 258 338 368
#     4  10  23  36  55  92 120 148 195 253 306 379
#     4  11  25  42  62  86 108 150 205 247 309 391
#     4  10  21  37  59  79 115 152 190 239 292 362
#
# _framework density 17.444794000000002
#
# number of rings (size 3 to 8) (size 9 to 14) (size 15 to 20)
#    0.000    1.500    2.500    3.000    1.750    4.000 
#    0.750    0.000   11.000    0.000    0.000    0.000 
#    0.000    0.000    0.000    0.000    0.000    0.000 
#
# Total GULP energy -267447.562940 kJ/mol
# GULP energy per Si atom -5571.824228 kJ/mol
# Density = 1.740509 g / cm^3
# Si number density = 17.444794 Si / 1000 Ang^3
#
#
#
# Elastic Constant Matrix: (Units=GPa)
#
#
# Indices 1 2 3 4 5 6 
#
# 1 119.1238 55.3099 48.3641 0.0000 0.0000 0.0000
# 2 55.3099 119.1238 48.3641 0.0000 0.0000 0.0000
# 3 48.3641 48.3641 91.8840 0.0000 0.0000 0.0000
# 4 0.0000 0.0000 0.0000 27.0350 0.0000 0.0000
# 5 0.0000 0.0000 0.0000 0.0000 27.0350 0.0000
# 6 0.0000 0.0000 0.0000 0.0000 0.0000 31.9069
#
#
#
# Elastic Compliance Matrix: (Units=1/GPa)
#
#
# Indices 1 2 3 4 5 6 
#
# 1 0.011883 -0.003787 -0.004261 0.000000 0.000000 0.000000
# 2 -0.003787 0.011883 -0.004261 0.000000 0.000000 0.000000
# 3 -0.004261 -0.004261 0.015369 0.000000 0.000000 0.000000
# 4 0.000000 0.000000 0.000000 0.036989 0.000000 0.000000
# 5 0.000000 0.000000 0.000000 0.000000 0.036989 0.000000
# 6 0.000000 0.000000 0.000000 0.000000 0.000000 0.031341
#
#
# Mechanical properties :
#
#
# Convention : Reuss Voigt Hill
#
# Bulk Modulus (GPa) = 68.89118 70.46755 69.67937
# Shear Modulus (GPa) = 28.74989 29.06828 28.90908
#
# Velocity S-wave (km/s) = 4.06402 4.08646 4.07526
# Velocity P-wave (km/s) = 7.84846 7.92136 7.88499
#
# Compressibility (1/GPa) = 0.01451565
#
# Stress axis : x y z
#
# Youngs Moduli (GPa) = 84.15228 84.15228 65.06481
#
# Poissons Ratio (x) = 0.31871 0.27726
# Poissons Ratio (y) = 0.31871 0.27726
# Poissons Ratio (z) = 0.35860 0.35860
#
# Static dielectric constant tensor:
#      x y z
#    x 1.616790 0.000000 0.000000 
#    y 0.000000 1.616790 0.000000 
#    z 0.000000 0.000000 1.952870 
# 
# From -- ./inp_files/515.got.cif
#   From: 2010.05.17/outbox.cif.g08.bks.cpg/sg182_1_cif.got.tgz:515.got - 2010.05.20 11:58:53.
