data_PCOD9584480
_publ_section_title
;
Structure prediction by ZEFSAII (Michael W. Deem and Ramdas Pophale) SiO2 
 PCOD9584480
Probable space group: P 64 2 2
;
_chemical_formula_sum "Si O2"
_cell_formula_units_Z 69
_cell_length_a 11.039541
_cell_length_b 11.039541
_cell_length_c 35.719357
_cell_angle_alpha 90.000000
_cell_angle_beta 90.000000
_cell_angle_gamma 120.000000
_cell_volume 3769.956140
_symmetry_space_group_name_H-M "P 64 2 2"
_symmetry_group_IT_number 181
_symmetry_cell_setting 'hexagonal'
loop_
_space_group_symop_operation_xyz
x,y,z
x-y,x,2/3+z
-y,x-y,1/3+z
-x,-y,z
-x+y,-x,2/3+z
y,-x+y,1/3+z
x-y,-y,-z
-x,-x+y,2/3-z
y,x,1/3-z
-y,-x,1/3-z
-x+y,y,-z
x,x-y,2/3-z
loop_
_atom_site_type_symbol
_atom_site_label
_atom_site_fract_x
_atom_site_fract_y
_atom_site_fract_z
Si Si1 0.701212 0.012622 0.958509
Si Si2 0.227436 0.454871 0.500000
Si Si3 0.455607 0.614591 0.437603
Si Si4 0.000000 0.000000 0.500000
Si Si5 0.615772 0.368524 0.709020
Si Si6 0.560467 0.726943 0.170322
Si Si7 0.773663 0.741968 0.788319
O O1 0.690582 0.153477 0.954064
O O2 0.784342 0.015186 0.922213
O O3 0.546827 0.875636 0.955718
O O4 0.749293 0.000000 0.000000
O O5 0.357356 0.541560 0.473313
O O6 0.259928 0.360985 0.527800
O O7 0.500000 0.500000 0.424981
O O8 0.365762 0.640194 0.405883
O O9 0.570589 0.760783 0.457518
O O10 0.132107 0.096650 0.524958
O O11 0.653097 0.346904 0.666667
O O12 0.662813 0.662813 0.166667
O O13 0.406299 0.593702 0.166667
O O14 0.600206 0.833396 0.135685
#
# Coordination Sequence:
#
# PCOD9584480 Si02
#       7
#    12   6  12   3  12  12  12
#     4   9  18  33  61  89 111 146 193 247 300 342
#     4  11  22  33  59  92 111 146 184 262 295 332
#     4  12  22  35  60  89 116 149 203 241 288 353
#     4  10  24  36  56  80 118 164 186 240 310 352
#     4   9  19  36  58  87 116 144 187 249 300 339
#     4  11  23  36  53  83 124 157 187 230 300 368
#     4  11  20  38  57  83 120 150 194 242 304 349
#
# _framework density 18.302599000000001
#
# number of rings (size 3 to 8) (size 9 to 14) (size 15 to 20)
#    0.000    1.565    5.217    2.087    0.000    0.000 
#    0.000    0.435   11.478    0.000    0.000    0.000 
#    0.000    0.000    0.000    0.000    0.000    0.000 
#
# Total GULP energy -384389.472011 kJ/mol
# GULP energy per Si atom -5570.861913 kJ/mol
# Density = 1.826094 g / cm^3
# Si number density = 18.302599 Si / 1000 Ang^3
#
#
#
# Elastic Constant Matrix: (Units=GPa)
#
#
# Indices 1 2 3 4 5 6 
#
# 1 79.7953 5.8754 38.9448 0.0000 0.0000 0.0000
# 2 5.8754 79.7953 38.9448 0.0000 0.0000 0.0000
# 3 38.9448 38.9448 168.0892 0.0000 0.0000 0.0000
# 4 0.0000 0.0000 0.0000 32.7908 0.0000 0.0000
# 5 0.0000 0.0000 0.0000 0.0000 32.7908 0.0000
# 6 0.0000 0.0000 0.0000 0.0000 0.0000 36.9600
#
#
#
# Elastic Compliance Matrix: (Units=1/GPa)
#
#
# Indices 1 2 3 4 5 6 
#
# 1 0.014158 0.000630 -0.003426 0.000000 0.000000 0.000000
# 2 0.000630 0.014158 -0.003426 0.000000 0.000000 0.000000
# 3 -0.003426 -0.003426 0.007537 0.000000 0.000000 0.000000
# 4 0.000000 0.000000 0.000000 0.030496 0.000000 0.000000
# 5 0.000000 0.000000 0.000000 0.000000 0.030496 0.000000
# 6 0.000000 0.000000 0.000000 0.000000 0.000000 0.027056
#
#
# Mechanical properties :
#
#
# Convention : Reuss Voigt Hill
#
# Bulk Modulus (GPa) = 42.72159 55.02332 48.87246
# Shear Modulus (GPa) = 34.68626 36.76929 35.72778
#
# Velocity S-wave (km/s) = 4.35806 4.48701 4.42301
# Velocity P-wave (km/s) = 6.97969 7.54803 7.26942
#
# Compressibility (1/GPa) = 0.02340737
#
# Stress axis : x y z
#
# Youngs Moduli (GPa) = 70.63217 70.63217 132.68167
#
# Poissons Ratio (x) = -0.04448 0.45459
# Poissons Ratio (y) = -0.04448 0.45459
# Poissons Ratio (z) = 0.24200 0.24200
#
# Static dielectric constant tensor:
#      x y z
#    x 1.679420 0.000000 0.000000 
#    y 0.000000 1.679420 0.000000 
#    z 0.000000 0.000000 1.619910 
# 
# From -- ./inp_files/12316.got.cif
#   From: 2010.05.17/outbox.cif.g08.bks.cpg/sg181_7_cif.got.tgz:12316.got - 2010.05.20 11:51:17.
