data_PCOD9584337
_publ_section_title
;
Structure prediction by ZEFSAII (Michael W. Deem and Ramdas Pophale) SiO2 
 PCOD9584337
Probable space group: P 64 2 2
;
_chemical_formula_sum "Si O2"
_cell_formula_units_Z 42
_cell_length_a 20.510823
_cell_length_b 20.510823
_cell_length_c 5.067662
_cell_angle_alpha 90.000000
_cell_angle_beta 90.000000
_cell_angle_gamma 120.000000
_cell_volume 1846.309253
_symmetry_space_group_name_H-M "P 64 2 2"
_symmetry_group_IT_number 181
_symmetry_cell_setting 'hexagonal'
loop_
_space_group_symop_operation_xyz
x,y,z
x-y,x,2/3+z
-y,x-y,1/3+z
-x,-y,z
-x+y,-x,2/3+z
y,-x+y,1/3+z
x-y,-y,-z
-x,-x+y,2/3-z
y,x,1/3-z
-y,-x,1/3-z
-x+y,y,-z
x,x-y,2/3-z
loop_
_atom_site_type_symbol
_atom_site_label
_atom_site_fract_x
_atom_site_fract_y
_atom_site_fract_z
Si Si1 0.268254 0.268254 0.666667
Si Si2 0.644622 0.577844 0.971909
Si Si3 0.150228 0.300456 0.500000
Si Si4 0.137919 0.568960 0.333334
Si Si5 0.755908 0.377954 0.833334
Si Si6 0.795826 0.591651 0.000000
O O1 0.301530 0.337350 0.871595
O O2 0.194238 0.255365 0.519983
O O3 0.601339 0.517260 0.746954
O O4 0.587769 0.587769 0.166667
O O5 0.705903 0.551571 0.045159
O O6 0.175908 0.355382 0.252843
O O7 0.189297 0.574982 0.587038
O O8 0.698281 0.301720 0.666667
#
# Coordination Sequence:
#
# PCOD9584337 Si02
#       6
#     6  12   6   6   6   6
#     4  10  22  43  68 106 148 197 244 308 370 468
#     4  11  25  48  72 107 152 195 254 324 393 492
#     4  10  20  38  69 106 140 187 236 300 362 438
#     4  12  30  45  81 110 147 204 264 340 431 484
#     4  12  26  56  78 108 148 196 276 354 410 491
#     4  10  22  40  73 100 135 191 242 304 375 457
#
# _framework density 22.748085
#
# number of rings (size 3 to 8) (size 9 to 14) (size 15 to 20)
#    0.000    1.143    4.286    0.000    6.000    0.571 
#   10.286    0.000    0.000    0.000    0.000    0.000 
#    0.000  100.571    0.000    0.000    0.000    0.000 
#
# Total GULP energy -234124.585865 kJ/mol
# GULP energy per Si atom -5574.394902 kJ/mol
# Density = 2.269631 g / cm^3
# Si number density = 22.748085 Si / 1000 Ang^3
#
#
#
# Elastic Constant Matrix: (Units=GPa)
#
#
# Indices 1 2 3 4 5 6 
#
# 1 131.7560 87.6208 60.2850 0.0000 0.0000 0.0000
# 2 87.6208 131.7560 60.2850 0.0000 0.0000 0.0000
# 3 60.2850 60.2850 170.3567 0.0000 0.0000 0.0000
# 4 0.0000 0.0000 0.0000 47.5082 0.0000 0.0000
# 5 0.0000 0.0000 0.0000 0.0000 47.5082 0.0000
# 6 0.0000 0.0000 0.0000 0.0000 0.0000 22.0676
#
#
#
# Elastic Compliance Matrix: (Units=1/GPa)
#
#
# Indices 1 2 3 4 5 6 
#
# 1 0.014158 -0.008499 -0.002003 0.000000 0.000000 0.000000
# 2 -0.008499 0.014158 -0.002003 0.000000 0.000000 0.000000
# 3 -0.002003 -0.002003 0.007287 0.000000 0.000000 0.000000
# 4 0.000000 0.000000 0.000000 0.021049 0.000000 0.000000
# 5 0.000000 0.000000 0.000000 0.000000 0.021049 0.000000
# 6 0.000000 0.000000 0.000000 0.000000 0.000000 0.045315
#
#
# Mechanical properties :
#
#
# Convention : Reuss Voigt Hill
#
# Bulk Modulus (GPa) = 94.38386 94.47227 94.42807
# Shear Modulus (GPa) = 32.99070 38.46201 35.72635
#
# Velocity S-wave (km/s) = 3.81236 4.11637 3.96728
# Velocity P-wave (km/s) = 7.80767 8.01328 7.91114
#
# Compressibility (1/GPa) = 0.01059503
#
# Stress axis : x y z
#
# Youngs Moduli (GPa) = 70.62987 70.62987 137.22396
#
# Poissons Ratio (x) = 0.60031 0.27480
# Poissons Ratio (y) = 0.60031 0.27480
# Poissons Ratio (z) = 0.14144 0.14144
#
# Static dielectric constant tensor:
#      x y z
#    x 1.932880 0.000000 0.000000 
#    y 0.000000 1.932880 0.000000 
#    z 0.000000 0.000000 1.876170 
# 
# From -- ./inp_files/908.got.cif
#   From: 2010.05.17/outbox.cif.g08.bks.cpg/sg181_1_cif.got.tgz:908.got - 2010.05.20 11:51:17.
