data_PCOD9584411
_publ_section_title
;
Structure prediction by ZEFSAII (Michael W. Deem and Ramdas Pophale) SiO2 
 PCOD9584411
Probable space group: P 64 2 2
;
_chemical_formula_sum "Si O2"
_cell_formula_units_Z 48
_cell_length_a 14.417845
_cell_length_b 14.417845
_cell_length_c 14.247645
_cell_angle_alpha 90.000000
_cell_angle_beta 90.000000
_cell_angle_gamma 120.000000
_cell_volume 2564.923531
_symmetry_space_group_name_H-M "P 64 2 2"
_symmetry_group_IT_number 181
_symmetry_cell_setting 'hexagonal'
loop_
_space_group_symop_operation_xyz
x,y,z
x-y,x,2/3+z
-y,x-y,1/3+z
-x,-y,z
-x+y,-x,2/3+z
y,-x+y,1/3+z
x-y,-y,-z
-x,-x+y,2/3-z
y,x,1/3-z
-y,-x,1/3-z
-x+y,y,-z
x,x-y,2/3-z
loop_
_atom_site_type_symbol
_atom_site_label
_atom_site_fract_x
_atom_site_fract_y
_atom_site_fract_z
Si Si1 0.345612 0.345612 0.666667
Si Si2 0.576376 0.757147 0.535662
Si Si3 0.850212 0.370909 0.181592
Si Si4 0.764822 0.529643 0.000000
Si Si5 0.110063 0.596246 0.972086
O O1 0.336179 0.253252 0.597304
O O2 0.364814 0.442542 0.597336
O O3 0.469234 0.638832 0.536173
O O4 0.598801 0.779106 0.425529
O O5 0.545446 0.839553 0.581877
O O6 0.736714 0.263287 0.166667
O O7 0.907298 0.385832 0.081230
O O8 0.640930 0.450405 0.025014
O O9 0.000000 0.500000 0.935074
#
# Coordination Sequence:
#
# PCOD9584411 Si02
#       5
#     6  12  12   6  12
#     4  12  23  36  58  84 118 161 214 263 296 360
#     4  11  21  35  54  79 114 158 207 256 299 357
#     4  11  20  34  56  82 113 158 209 251 301 356
#     4  10  22  36  52  75 116 157 198 256 300 352
#     4  11  22  37  56  82 116 161 209 246 303 368
#
# _framework density 18.714009000000001
#
# number of rings (size 3 to 8) (size 9 to 14) (size 15 to 20)
#    0.000    1.000    2.500    9.000    0.000    2.000 
#    0.000    0.000    0.000    0.000    0.000    0.000 
#    0.000    1.000    1.500    0.250    0.500    0.000 
#
# Total GULP energy -268206.675525 kJ/mol
# GULP energy per Si atom -5587.639073 kJ/mol
# Density = 1.867142 g / cm^3
# Si number density = 18.714009 Si / 1000 Ang^3
#
#
#
# Elastic Constant Matrix: (Units=GPa)
#
#
# Indices 1 2 3 4 5 6 
#
# 1 74.7003 21.1807 31.9441 0.0000 0.0000 0.0000
# 2 21.1807 74.7003 31.9441 0.0000 0.0000 0.0000
# 3 31.9441 31.9441 165.7284 0.0000 0.0000 0.0000
# 4 0.0000 0.0000 0.0000 15.5723 0.0000 0.0000
# 5 0.0000 0.0000 0.0000 0.0000 15.5723 0.0000
# 6 0.0000 0.0000 0.0000 0.0000 0.0000 26.7598
#
#
#
# Elastic Compliance Matrix: (Units=1/GPa)
#
#
# Indices 1 2 3 4 5 6 
#
# 1 0.015326 -0.003359 -0.002307 0.000000 0.000000 0.000000
# 2 -0.003359 0.015326 -0.002307 0.000000 0.000000 0.000000
# 3 -0.002307 -0.002307 0.006923 0.000000 0.000000 0.000000
# 4 0.000000 0.000000 0.000000 0.064217 0.000000 0.000000
# 5 0.000000 0.000000 0.000000 0.000000 0.064217 0.000000
# 6 0.000000 0.000000 0.000000 0.000000 0.000000 0.037369
#
#
# Mechanical properties :
#
#
# Convention : Reuss Voigt Hill
#
# Bulk Modulus (GPa) = 46.23210 53.91853 50.07532
# Shear Modulus (GPa) = 22.07200 26.91823 24.49511
#
# Velocity S-wave (km/s) = 3.43802 3.79674 3.62182
# Velocity P-wave (km/s) = 6.36539 6.93503 6.65631
#
# Compressibility (1/GPa) = 0.02162999
#
# Stress axis : x y z
#
# Youngs Moduli (GPa) = 65.25021 65.25021 144.44310
#
# Poissons Ratio (x) = 0.21918 0.33316
# Poissons Ratio (y) = 0.21918 0.33316
# Poissons Ratio (z) = 0.15050 0.15050
#
# Static dielectric constant tensor:
#      x y z
#    x 1.648530 0.000000 0.000000 
#    y 0.000000 1.648530 0.000000 
#    z 0.000000 0.000000 1.740560 
# 
# From -- ./inp_files/5910.got.cif
#   From: 2010.05.17/outbox.cif.g08.bks.cpg/sg181_3_cif.got.tgz:5910.got - 2010.05.20 11:51:17.
