data_PCOD9584204
_publ_section_title
;
Structure prediction by ZEFSAII (Michael W. Deem and Ramdas Pophale) SiO2 
 PCOD9584204
Probable space group: P 64 2 2
;
_chemical_formula_sum "Si O2"
_cell_formula_units_Z 30
_cell_length_a 7.370518
_cell_length_b 7.370518
_cell_length_c 27.160158
_cell_angle_alpha 90.000000
_cell_angle_beta 90.000000
_cell_angle_gamma 120.000000
_cell_volume 1277.788414
_symmetry_space_group_name_H-M "P 64 2 2"
_symmetry_group_IT_number 181
_symmetry_cell_setting 'hexagonal'
loop_
_space_group_symop_operation_xyz
x,y,z
x-y,x,2/3+z
-y,x-y,1/3+z
-x,-y,z
-x+y,-x,2/3+z
y,-x+y,1/3+z
x-y,-y,-z
-x,-x+y,2/3-z
y,x,1/3-z
-y,-x,1/3-z
-x+y,y,-z
x,x-y,2/3-z
loop_
_atom_site_type_symbol
_atom_site_label
_atom_site_fract_x
_atom_site_fract_y
_atom_site_fract_z
Si Si1 0.000000 0.000000 0.166667
Si Si2 0.000000 0.000000 0.000000
Si Si3 0.547936 0.236427 0.773989
Si Si4 0.323304 0.190254 0.586512
O O1 0.090316 0.195045 0.203052
O O2 0.804554 0.852611 0.034791
O O3 0.530733 0.265367 0.833334
O O4 0.387781 0.282296 0.743192
O O5 0.759126 0.440793 0.755734
O O6 0.500000 0.000000 0.766658
#
# Coordination Sequence:
#
# PCOD9584204 Si02
#       4
#     3   3  12  12
#     4  10  16  38  62  98 134 188 244 312 360 426
#     4  10  24  44  60  98 152 210 248 296 388 454
#     4  11  19  37  65 102 136 187 250 318 378 442
#     4  10  21  38  66  95 146 187 247 308 373 450
#
# _framework density 23.478062000000001
#
# number of rings (size 3 to 8) (size 9 to 14) (size 15 to 20)
#    0.000    1.600    6.000    0.000    0.000    3.200 
#    0.000   23.000    0.000    0.000    0.000    0.000 
#    0.000    0.000    0.000    0.000    0.000    0.000 
#
# Total GULP energy -167023.069775 kJ/mol
# GULP energy per Si atom -5567.435659 kJ/mol
# Density = 2.342463 g / cm^3
# Si number density = 23.478062 Si / 1000 Ang^3
#
#
#
# Elastic Constant Matrix: (Units=GPa)
#
#
# Indices 1 2 3 4 5 6 
#
# 1 159.3629 63.5372 56.9179 0.0000 0.0000 0.0000
# 2 63.5372 159.3629 56.9179 0.0000 0.0000 0.0000
# 3 56.9179 56.9179 98.4614 0.0000 0.0000 0.0000
# 4 0.0000 0.0000 0.0000 -8.7721 0.0000 0.0000
# 5 0.0000 0.0000 0.0000 0.0000 -8.7721 0.0000
# 6 0.0000 0.0000 0.0000 0.0000 0.0000 47.9128
#
#
#
# Elastic Compliance Matrix: (Units=1/GPa)
#
#
# Indices 1 2 3 4 5 6 
#
# 1 0.008401 -0.002035 -0.003680 0.000000 0.000000 0.000000
# 2 -0.002035 0.008401 -0.003680 0.000000 0.000000 0.000000
# 3 -0.003680 -0.003680 0.014411 0.000000 0.000000 0.000000
# 4 0.000000 0.000000 0.000000 -0.113997 0.000000 0.000000
# 5 0.000000 0.000000 0.000000 0.000000 -0.113997 0.000000
# 6 0.000000 0.000000 0.000000 0.000000 0.000000 0.020871
#
#
# Mechanical properties :
#
#
# Convention : Reuss Voigt Hill
#
# Bulk Modulus (GPa) = 80.49783 85.77037 83.13410
# Shear Modulus (GPa) = -32.68369 22.06132 -5.31119
#
# Velocity S-wave (km/s) = -3.73513 3.06871 -1.50569
# Velocity P-wave (km/s) = 3.96980 7.01195 5.69766
#
# Compressibility (1/GPa) = 0.01242270
#
# Stress axis : x y z
#
# Youngs Moduli (GPa) = 119.03904 119.03904 69.39318
#
# Poissons Ratio (x) = 0.24225 0.25535
# Poissons Ratio (y) = 0.24225 0.25535
# Poissons Ratio (z) = 0.43804 0.43804
#
# Static dielectric constant tensor:
#      x y z
#    x 2.140400 0.000000 0.000000 
#    y 0.000000 2.140400 0.000000 
#    z 0.000000 0.000000 1.850820 
# 
# From -- ./inp_files/10612.got.cif
#   From: 2010.05.17/outbox.cif.g08.bks.cpg/sg181_6_cif.got.tgz:10612.got - 2010.05.20 11:51:17.
