data_PCOD9584979
_publ_section_title
;
Structure prediction by ZEFSAII (Michael W. Deem and Ramdas Pophale) SiO2 
 PCOD9584979
Probable space group: P 6 M M
;
_chemical_formula_sum "Si O2"
_cell_formula_units_Z 96
_cell_length_a 17.976781
_cell_length_b 17.976781
_cell_length_c 21.114745
_cell_angle_alpha 90.000000
_cell_angle_beta 90.000000
_cell_angle_gamma 120.000000
_cell_volume 5909.358365
_symmetry_space_group_name_H-M "P 6 M M"
_symmetry_group_IT_number 183
_symmetry_cell_setting 'hexagonal'
loop_
_space_group_symop_operation_xyz
x,y,z
x-y,x,z
-y,x-y,z
-x,-y,z
-x+y,-x,z
y,-x+y,z
-x+y,y,z
x,x-y,z
-y,-x,z
y,x,z
x-y,-y,z
-x,-x+y,z
loop_
_atom_site_type_symbol
_atom_site_label
_atom_site_fract_x
_atom_site_fract_y
_atom_site_fract_z
Si Si1 0.096985 0.730152 0.378520
Si Si2 0.637166 0.104237 0.989366
Si Si3 0.368551 0.266224 0.866152
Si Si4 0.509290 0.667368 0.498044
Si Si5 0.629812 0.899538 0.619591
Si Si6 0.360674 0.459013 0.127318
Si Si7 0.896364 0.363936 0.743571
Si Si8 0.504881 0.669050 0.264872
O O1 0.170154 0.829847 0.381903
O O2 0.117225 0.682653 0.435132
O O3 0.110367 0.692149 0.313121
O O4 0.000000 0.709247 0.384004
O O5 0.567139 0.134278 0.978414
O O6 0.698967 0.122545 0.930488
O O7 0.581495 0.000000 0.993841
O O8 0.679751 0.133845 0.058559
O O9 0.328406 0.164203 0.862809
O O10 0.301762 0.301762 0.864131
O O11 0.433326 0.308458 0.807112
O O12 0.483597 0.741799 0.498480
O O13 0.425973 0.574028 0.499849
O O14 0.570577 0.685510 0.558422
O O15 0.663428 0.831714 0.615003
O O16 0.568856 0.875065 0.681246
O O17 0.701332 0.000000 0.624040
O O18 0.451661 0.548340 0.123871
O O19 0.383781 0.383781 0.133331
O O20 0.318634 0.464568 0.192093
O O21 0.861664 0.430832 0.742581
O O22 0.000000 0.421416 0.743534
O O23 0.472808 0.736404 0.279017
O O24 0.427768 0.572233 0.272922
#
# Coordination Sequence:
#
# PCOD9584979 Si02
#       8
#    12  12  12  12  12  12  12  12
#     4  10  21  35  51  71  93 119 151 189 232 275
#     4   8  14  26  44  64  85 111 145 185 229 275
#     4  10  19  30  46  67  90 118 153 193 233 273
#     4  10  20  33  50  73 101 131 161 193 229 269
#     4  10  20  33  50  72  97 127 163 202 241 279
#     4   8  14  25  41  60  82 111 149 190 228 267
#     4   9  17  30  49  71  92 115 145 180 220 270
#     4  10  19  29  42  62  91 126 160 191 222 259
#
# _framework density 16.245418000000001
#
# number of rings (size 3 to 8) (size 9 to 14) (size 15 to 20)
#    0.000    2.625    0.000    3.250    0.000    4.750 
#    0.000    1.250    0.000    5.625    0.000    0.000 
#    0.000    6.000    0.000    0.000    0.000   16.750 
#
# Total GULP energy -534880.610513 kJ/mol
# GULP energy per Si atom -5571.673026 kJ/mol
# Density = 1.620844 g / cm^3
# Si number density = 16.245418 Si / 1000 Ang^3
#
#
#
# Elastic Constant Matrix: (Units=GPa)
#
#
# Indices 1 2 3 4 5 6 
#
# 1 79.0985 56.5425 32.7868 0.0000 0.0000 0.0000
# 2 56.5425 79.0985 32.7868 0.0000 0.0000 0.0000
# 3 32.7868 32.7868 119.3251 0.0000 0.0000 0.0000
# 4 0.0000 0.0000 0.0000 2.9773 0.0000 0.0000
# 5 0.0000 0.0000 0.0000 0.0000 2.9773 0.0000
# 6 0.0000 0.0000 0.0000 0.0000 0.0000 11.2780
#
#
#
# Elastic Compliance Matrix: (Units=1/GPa)
#
#
# Indices 1 2 3 4 5 6 
#
# 1 0.026418 -0.017916 -0.002336 0.000000 0.000000 0.000000
# 2 -0.017916 0.026418 -0.002336 0.000000 0.000000 0.000000
# 3 -0.002336 -0.002336 0.009664 0.000000 0.000000 0.000000
# 4 0.000000 0.000000 0.000000 0.335871 0.000000 0.000000
# 5 0.000000 0.000000 0.000000 0.000000 0.335871 0.000000
# 6 0.000000 0.000000 0.000000 0.000000 0.000000 0.088668
#
#
# Mechanical properties :
#
#
# Convention : Reuss Voigt Hill
#
# Bulk Modulus (GPa) = 57.72476 57.97271 57.84873
# Shear Modulus (GPa) = 5.72173 13.80694 9.76434
#
# Velocity S-wave (km/s) = 1.87875 2.91846 2.45430
# Velocity P-wave (km/s) = 6.34952 6.86437 6.61196
#
# Compressibility (1/GPa) = 0.01732359
#
# Stress axis : x y z
#
# Youngs Moduli (GPa) = 37.85319 37.85319 103.47482
#
# Poissons Ratio (x) = 0.67818 0.24172
# Poissons Ratio (y) = 0.67818 0.24172
# Poissons Ratio (z) = 0.08843 0.08843
#
# Static dielectric constant tensor:
#      x y z
#    x 1.537690 0.000000 0.000000 
#    y 0.000000 1.537690 0.000000 
#    z 0.000000 0.000000 1.569060 
# 
# From -- ./inp_files/3105.got.cif
#   From: 2010.05.17/outbox.cif.g08.bks.cpg/sg183_2_cif.got.tgz:3105.got - 2010.05.20 12:02:58.
