data_PCOD9584346
_publ_section_title
;
Structure prediction by ZEFSAII (Michael W. Deem and Ramdas Pophale) SiO2 
 PCOD9584346
Probable space group: P 64 2 2
;
_chemical_formula_sum "Si O2"
_cell_formula_units_Z 69
_cell_length_a 14.682313
_cell_length_b 14.682313
_cell_length_c 19.168373
_cell_angle_alpha 90.000000
_cell_angle_beta 90.000000
_cell_angle_gamma 120.000000
_cell_volume 3578.531462
_symmetry_space_group_name_H-M "P 64 2 2"
_symmetry_group_IT_number 181
_symmetry_cell_setting 'hexagonal'
loop_
_space_group_symop_operation_xyz
x,y,z
x-y,x,2/3+z
-y,x-y,1/3+z
-x,-y,z
-x+y,-x,2/3+z
y,-x+y,1/3+z
x-y,-y,-z
-x,-x+y,2/3-z
y,x,1/3-z
-y,-x,1/3-z
-x+y,y,-z
x,x-y,2/3-z
loop_
_atom_site_type_symbol
_atom_site_label
_atom_site_fract_x
_atom_site_fract_y
_atom_site_fract_z
Si Si1 0.386654 0.494948 0.925574
Si Si2 0.816809 0.108698 0.974529
Si Si3 0.738491 0.962656 0.290500
Si Si4 0.674476 0.348952 0.000000
Si Si5 0.887328 0.050415 0.845454
Si Si6 0.499733 0.675849 0.569100
Si Si7 0.500000 0.000000 0.000000
O O1 0.500000 0.500000 0.921989
O O2 0.308701 0.383750 0.962506
O O3 0.375853 0.582498 0.970387
O O4 0.348569 0.501623 0.846433
O O5 0.862614 0.054901 0.924404
O O6 0.781170 0.176338 0.927664
O O7 0.914457 0.186904 0.022833
O O8 0.714810 0.000000 0.000000
O O9 0.764052 0.882026 0.333334
O O10 0.757319 0.951618 0.209156
O O11 0.674897 0.276715 0.935832
O O12 0.000000 0.150882 0.833334
O O13 0.892214 0.946107 0.833334
O O14 0.508612 0.587536 0.612786
#
# Coordination Sequence:
#
# PCOD9584346 Si02
#       7
#    12  12  12   6  12  12   3
#     4  12  25  46  72 101 130 179 236 280 343 416
#     4  12  23  37  62  97 134 174 223 273 341 401
#     4  12  24  40  63  91 136 182 219 274 332 400
#     4  11  26  47  70 102 139 176 227 288 354 404
#     4  11  22  36  58  90 128 176 226 265 327 401
#     4  11  23  42  69  99 134 171 218 286 346 405
#     4  10  20  40  64  96 130 160 200 276 350 384
#
# _framework density 19.281652999999999
#
# number of rings (size 3 to 8) (size 9 to 14) (size 15 to 20)
#    0.000    0.522    7.826    1.565    0.000    0.348 
#    0.000    0.000    0.000    1.043    0.000    0.000 
#    0.000    0.000    0.000    0.000    0.000    0.000 
#
# Total GULP energy -384232.660793 kJ/mol
# GULP energy per Si atom -5568.589287 kJ/mol
# Density = 1.923777 g / cm^3
# Si number density = 19.281653 Si / 1000 Ang^3
#
#
#
# Elastic Constant Matrix: (Units=GPa)
#
#
# Indices 1 2 3 4 5 6 
#
# 1 108.1924 40.9260 25.2729 0.0000 0.0000 0.0000
# 2 40.9260 108.1924 25.2729 0.0000 0.0000 0.0000
# 3 25.2729 25.2729 80.5094 0.0000 0.0000 0.0000
# 4 0.0000 0.0000 0.0000 27.2038 0.0000 0.0000
# 5 0.0000 0.0000 0.0000 0.0000 27.2038 0.0000
# 6 0.0000 0.0000 0.0000 0.0000 0.0000 33.6332
#
#
#
# Elastic Compliance Matrix: (Units=1/GPa)
#
#
# Indices 1 2 3 4 5 6 
#
# 1 0.011185 -0.003681 -0.002356 0.000000 0.000000 0.000000
# 2 -0.003681 0.011185 -0.002356 0.000000 0.000000 0.000000
# 3 -0.002356 -0.002356 0.013900 0.000000 0.000000 0.000000
# 4 0.000000 0.000000 0.000000 0.036760 0.000000 0.000000
# 5 0.000000 0.000000 0.000000 0.000000 0.036760 0.000000
# 6 0.000000 0.000000 0.000000 0.000000 0.000000 0.029732
#
#
# Mechanical properties :
#
#
# Convention : Reuss Voigt Hill
#
# Bulk Modulus (GPa) = 51.31893 53.31532 52.31713
# Shear Modulus (GPa) = 30.71205 31.30300 31.00752
#
# Velocity S-wave (km/s) = 3.99533 4.03359 4.01451
# Velocity P-wave (km/s) = 6.92508 7.02880 6.97713
#
# Compressibility (1/GPa) = 0.01948599
#
# Stress axis : x y z
#
# Youngs Moduli (GPa) = 89.40205 89.40205 71.94279
#
# Poissons Ratio (x) = 0.32907 0.16948
# Poissons Ratio (y) = 0.32907 0.16948
# Poissons Ratio (z) = 0.21061 0.21061
#
# Static dielectric constant tensor:
#      x y z
#    x 1.697260 0.000000 0.000000 
#    y 0.000000 1.697260 0.000000 
#    z 0.000000 0.000000 1.631500 
# 
# From -- ./inp_files/7815.got.cif
#   From: 2010.05.17/outbox.cif.g08.bks.cpg/sg181_4_cif.got.tgz:7815.got - 2010.05.20 11:51:17.
