data_PCOD9584967
_publ_section_title
;
Structure prediction by ZEFSAII (Michael W. Deem and Ramdas Pophale) SiO2 
 PCOD9584967
Probable space group: P 6 M M
;
_chemical_formula_sum "Si O2"
_cell_formula_units_Z 96
_cell_length_a 22.048515
_cell_length_b 22.048515
_cell_length_c 17.155567
_cell_angle_alpha 90.000000
_cell_angle_beta 90.000000
_cell_angle_gamma 120.000000
_cell_volume 7222.613858
_symmetry_space_group_name_H-M "P 6 M M"
_symmetry_group_IT_number 183
_symmetry_cell_setting 'hexagonal'
loop_
_space_group_symop_operation_xyz
x,y,z
x-y,x,z
-y,x-y,z
-x,-y,z
-x+y,-x,z
y,-x+y,z
-x+y,y,z
x,x-y,z
-y,-x,z
y,x,z
x-y,-y,z
-x,-x+y,z
loop_
_atom_site_type_symbol
_atom_site_label
_atom_site_fract_x
_atom_site_fract_y
_atom_site_fract_z
Si Si1 0.388926 0.470387 0.055200
Si Si2 0.223162 0.304158 0.783817
Si Si3 0.666975 0.472273 0.782925
Si Si4 0.190769 0.666626 0.192461
Si Si5 0.722174 0.139167 0.919577
Si Si6 0.663444 0.581501 0.673991
Si Si7 0.809938 0.476725 0.371472
Si Si8 0.082036 0.612550 0.507900
O O1 0.452860 0.547141 0.029500
O O2 0.425371 0.425371 0.076249
O O3 0.352621 0.483299 0.129386
O O4 0.332193 0.431076 0.987751
O O5 0.142032 0.284064 0.781359
O O6 0.243012 0.243012 0.782232
O O7 0.256607 0.351155 0.862050
O O8 0.264885 0.357020 0.712013
O O9 0.737968 0.475936 0.754403
O O10 0.606256 0.393745 0.794072
O O11 0.685834 0.515765 0.862790
O O12 0.644431 0.512590 0.722564
O O13 0.210376 0.605188 0.187721
O O14 0.258984 0.741017 0.176590
O O15 0.167617 0.666325 0.281784
O O16 0.794636 0.205365 0.948897
O O17 0.607065 0.607065 0.685304
O O18 0.661662 0.564095 0.583065
O O19 0.739971 0.479941 0.385834
O O20 0.793772 0.396886 0.378039
O O21 0.869244 0.520431 0.434579
O O22 0.092574 0.546287 0.528563
O O23 0.000000 0.578517 0.488417
#
# Coordination Sequence:
#
# PCOD9584967 Si02
#       8
#    12  12  12  12  12  12  12  12
#     4  10  19  28  39  57  79  99 122 156 195 231
#     4   9  17  29  45  63  82 104 129 157 188 222
#     4  10  19  29  40  55  77 103 130 160 195 233
#     4   9  17  29  43  57  73  96 126 157 189 226
#     4   9  17  29  43  57  75 101 131 160 188 221
#     4   9  17  29  43  58  76 100 132 164 191 223
#     4   9  17  28  42  58  75  96 123 156 192 229
#     4   9  17  28  41  57  77 100 126 157 193 231
#
# _framework density 13.291587
#
# number of rings (size 3 to 8) (size 9 to 14) (size 15 to 20)
#    0.000    2.750    0.000    3.000    0.000    3.750 
#    0.000    2.500    0.000    5.625    0.000    0.000 
#    0.000    0.000    0.000    0.000    0.000    0.000 
#
# Total GULP energy -534614.054442 kJ/mol
# GULP energy per Si atom -5568.896400 kJ/mol
# Density = 1.326134 g / cm^3
# Si number density = 13.291587 Si / 1000 Ang^3
#
#
#
# Elastic Constant Matrix: (Units=GPa)
#
#
# Indices 1 2 3 4 5 6 
#
# 1 69.6582 37.9274 46.6499 0.0000 0.0000 0.0000
# 2 37.9274 69.6582 46.6499 0.0000 0.0000 0.0000
# 3 46.6499 46.6499 74.8139 0.0000 0.0000 0.0000
# 4 0.0000 0.0000 0.0000 18.6099 0.0000 0.0000
# 5 0.0000 0.0000 0.0000 0.0000 18.6099 0.0000
# 6 0.0000 0.0000 0.0000 0.0000 0.0000 15.8654
#
#
#
# Elastic Compliance Matrix: (Units=1/GPa)
#
#
# Indices 1 2 3 4 5 6 
#
# 1 0.025877 -0.005638 -0.012620 0.000000 0.000000 0.000000
# 2 -0.005638 0.025877 -0.012620 0.000000 0.000000 0.000000
# 3 -0.012620 -0.012620 0.029105 0.000000 0.000000 0.000000
# 4 0.000000 0.000000 0.000000 0.053735 0.000000 0.000000
# 5 0.000000 0.000000 0.000000 0.000000 0.053735 0.000000
# 6 0.000000 0.000000 0.000000 0.000000 0.000000 0.063030
#
#
# Mechanical properties :
#
#
# Convention : Reuss Voigt Hill
#
# Bulk Modulus (GPa) = 52.34770 52.95383 52.65077
# Shear Modulus (GPa) = 15.65030 16.14394 15.89712
#
# Velocity S-wave (km/s) = 3.43513 3.48889 3.46212
# Velocity P-wave (km/s) = 7.42988 7.49376 7.46189
#
# Compressibility (1/GPa) = 0.01910304
#
# Stress axis : x y z
#
# Youngs Moduli (GPa) = 38.64408 38.64408 34.35851
#
# Poissons Ratio (x) = 0.21787 0.43361
# Poissons Ratio (y) = 0.21787 0.43361
# Poissons Ratio (z) = 0.48769 0.48769
#
# Static dielectric constant tensor:
#      x y z
#    x 1.425310 0.000000 0.000000 
#    y 0.000000 1.425310 0.000000 
#    z 0.000000 0.000000 1.432320 
# 
# From -- ./inp_files/2786.got.cif
#   From: 2010.05.17/outbox.cif.g08.bks.cpg/sg183_2_cif.got.tgz:2786.got - 2010.05.20 12:02:58.
