data_PCOD9584210
_publ_section_title
;
Structure prediction by ZEFSAII (Michael W. Deem and Ramdas Pophale) SiO2 
 PCOD9584210
Probable space group: P 64 2 2
;
_chemical_formula_sum "Si O2"
_cell_formula_units_Z 72
_cell_length_a 14.904917
_cell_length_b 14.904917
_cell_length_c 18.565688
_cell_angle_alpha 90.000000
_cell_angle_beta 90.000000
_cell_angle_gamma 120.000000
_cell_volume 3571.912433
_symmetry_space_group_name_H-M "P 64 2 2"
_symmetry_group_IT_number 181
_symmetry_cell_setting 'hexagonal'
loop_
_space_group_symop_operation_xyz
x,y,z
x-y,x,2/3+z
-y,x-y,1/3+z
-x,-y,z
-x+y,-x,2/3+z
y,-x+y,1/3+z
x-y,-y,-z
-x,-x+y,2/3-z
y,x,1/3-z
-y,-x,1/3-z
-x+y,y,-z
x,x-y,2/3-z
loop_
_atom_site_type_symbol
_atom_site_label
_atom_site_fract_x
_atom_site_fract_y
_atom_site_fract_z
Si Si1 0.740380 0.460680 0.912954
Si Si2 0.274477 0.200258 0.061025
Si Si3 0.210397 0.912470 0.232100
Si Si4 0.398126 0.498646 0.268321
Si Si5 0.299678 0.147710 0.213385
Si Si6 0.890070 0.405906 0.106939
O O1 0.796174 0.392615 0.905430
O O2 0.811455 0.579358 0.887823
O O3 0.627965 0.419431 0.877078
O O4 0.733862 0.467723 0.000000
O O5 0.386184 0.301342 0.074795
O O6 0.264055 0.131010 0.129892
O O7 0.189512 0.235575 0.074738
O O8 0.281324 0.164197 0.980144
O O9 0.128706 0.871295 0.166667
O O10 0.294583 0.878247 0.211817
O O11 0.277647 0.036725 0.239228
O O12 0.500000 0.500000 0.241249
O O13 0.412313 0.515085 0.353878
O O14 0.000000 0.500000 0.135689
#
# Coordination Sequence:
#
# PCOD9584210 Si02
#       6
#    12  12  12  12  12  12
#     4  10  17  30  56  87 122 164 197 237 303 376
#     4  10  22  38  57  93 123 148 200 253 311 381
#     4  11  23  41  62  82 116 166 207 256 299 356
#     4   9  16  29  53  86 126 154 182 243 309 363
#     4  11  21  36  62  89 118 153 192 252 316 373
#     4   9  17  32  55  82 113 157 210 242 285 359
#
# _framework density 20.157268999999999
#
# number of rings (size 3 to 8) (size 9 to 14) (size 15 to 20)
#    0.000    2.000    3.333    1.500    0.000    1.333 
#    3.000    1.667    0.000    4.000    0.000    0.000 
#    0.000    0.000    0.000    0.000    0.000    0.000 
#
# Total GULP energy -401358.559078 kJ/mol
# GULP energy per Si atom -5574.424432 kJ/mol
# Density = 2.011139 g / cm^3
# Si number density = 20.157269 Si / 1000 Ang^3
#
#
#
# Elastic Constant Matrix: (Units=GPa)
#
#
# Indices 1 2 3 4 5 6 
#
# 1 59.9112 16.9400 3.4658 0.0000 0.0000 0.0000
# 2 16.9400 59.9112 3.4658 0.0000 0.0000 0.0000
# 3 3.4658 3.4658 97.8274 0.0000 0.0000 0.0000
# 4 0.0000 0.0000 0.0000 17.0493 0.0000 0.0000
# 5 0.0000 0.0000 0.0000 0.0000 17.0493 0.0000
# 6 0.0000 0.0000 0.0000 0.0000 0.0000 21.4856
#
#
#
# Elastic Compliance Matrix: (Units=1/GPa)
#
#
# Indices 1 2 3 4 5 6 
#
# 1 0.018163 -0.005109 -0.000462 0.000000 0.000000 0.000000
# 2 -0.005109 0.018163 -0.000462 0.000000 0.000000 0.000000
# 3 -0.000462 -0.000462 0.010255 0.000000 0.000000 0.000000
# 4 0.000000 0.000000 0.000000 0.058653 0.000000 0.000000
# 5 0.000000 0.000000 0.000000 0.000000 0.058653 0.000000
# 6 0.000000 0.000000 0.000000 0.000000 0.000000 0.046543
#
#
# Mechanical properties :
#
#
# Convention : Reuss Voigt Hill
#
# Bulk Modulus (GPa) = 28.97482 29.48810 29.23146
# Shear Modulus (GPa) = 21.36738 24.03538 22.70138
#
# Velocity S-wave (km/s) = 3.25935 3.45685 3.35955
# Velocity P-wave (km/s) = 5.34510 5.53117 5.43893
#
# Compressibility (1/GPa) = 0.03451273
#
# Stress axis : x y z
#
# Youngs Moduli (GPa) = 55.05805 55.05805 97.51485
#
# Poissons Ratio (x) = 0.28128 0.04510
# Poissons Ratio (y) = 0.28128 0.04510
# Poissons Ratio (z) = 0.02546 0.02546
#
# Static dielectric constant tensor:
#      x y z
#    x 1.728110 0.000000 0.000000 
#    y 0.000000 1.728110 0.000000 
#    z 0.000000 0.000000 1.751000 
# 
# From -- ./inp_files/7774.got.cif
#   From: 2010.05.17/outbox.cif.g08.bks.cpg/sg181_4_cif.got.tgz:7774.got - 2010.05.20 11:51:17.
