data_PCOD9584879
_publ_section_title
;
Structure prediction by ZEFSAII (Michael W. Deem and Ramdas Pophale) SiO2 
 PCOD9584879
Probable space group: P 63 2 2
;
_chemical_formula_sum "Si O2"
_cell_formula_units_Z 60
_cell_length_a 13.881715
_cell_length_b 13.881715
_cell_length_c 16.123009
_cell_angle_alpha 90.000000
_cell_angle_beta 90.000000
_cell_angle_gamma 120.000000
_cell_volume 2690.685732
_symmetry_space_group_name_H-M "P 63 2 2"
_symmetry_group_IT_number 182
_symmetry_cell_setting 'hexagonal'
loop_
_space_group_symop_operation_xyz
x,y,z
x-y,x,1/2+z
-y,x-y,z
-x,-y,1/2+z
-x+y,-x,z
y,-x+y,1/2+z
x-y,-y,-z
-x,-x+y,-z
y,x,-z
-y,-x,1/2-z
-x+y,y,1/2-z
x,x-y,1/2-z
loop_
_atom_site_type_symbol
_atom_site_label
_atom_site_fract_x
_atom_site_fract_y
_atom_site_fract_z
Si Si1 0.869595 0.543370 0.508955
Si Si2 0.732690 0.676878 0.285865
Si Si3 0.131708 0.666003 0.297237
Si Si4 0.453414 0.341651 0.053629
Si Si5 0.872952 0.995563 0.097195
O O1 0.845465 0.512118 0.605795
O O2 0.780891 0.575211 0.474871
O O3 0.852114 0.433210 0.462217
O O4 0.000000 0.636143 0.500000
O O5 0.833095 0.666189 0.250000
O O6 0.653387 0.676595 0.215179
O O7 0.662983 0.579264 0.351096
O O8 0.784739 0.788981 0.341285
O O9 0.232206 0.767795 0.250000
O O10 0.114754 0.557377 0.250000
O O11 0.384313 0.384313 0.000000
O O12 0.996830 0.102344 0.111424
O O13 0.848906 0.000000 0.000000
#
# Coordination Sequence:
#
# PCOD9584879 Si02
#       5
#    12  12  12  12  12
#     4  11  23  45  73 100 133 188 235 282 350 438
#     4  12  26  41  66 104 145 181 228 299 361 419
#     4  12  26  44  68 102 137 175 231 299 353 402
#     4  11  24  47  71 100 137 182 237 287 351 429
#     4   8  19  40  62  91 135 192 244 281 337 430
#
# _framework density 22.299149
#
# number of rings (size 3 to 8) (size 9 to 14) (size 15 to 20)
#    0.400    0.800    0.000    7.200    2.800    0.000 
#   10.800    0.000    0.000    0.800    0.000    0.000 
#    0.000    0.000    0.000    0.000    0.000    0.000 
#
# Total GULP energy -336034.645978 kJ/mol
# GULP energy per Si atom -5600.577433 kJ/mol
# Density = 2.224839 g / cm^3
# Si number density = 22.299149 Si / 1000 Ang^3
#
#
#
# Elastic Constant Matrix: (Units=GPa)
#
#
# Indices 1 2 3 4 5 6 
#
# 1 80.4926 38.1114 -4.0972 0.0000 0.0000 0.0000
# 2 38.1114 80.4926 -4.0972 0.0000 0.0000 0.0000
# 3 -4.0972 -4.0972 61.6490 0.0000 0.0000 0.0000
# 4 0.0000 0.0000 0.0000 15.8545 0.0000 0.0000
# 5 0.0000 0.0000 0.0000 0.0000 15.8545 0.0000
# 6 0.0000 0.0000 0.0000 0.0000 0.0000 21.1906
#
#
#
# Elastic Compliance Matrix: (Units=1/GPa)
#
#
# Indices 1 2 3 4 5 6 
#
# 1 0.016033 -0.007563 0.000563 0.000000 0.000000 0.000000
# 2 -0.007563 0.016033 0.000563 0.000000 0.000000 0.000000
# 3 0.000563 0.000563 0.016296 0.000000 0.000000 0.000000
# 4 0.000000 0.000000 0.000000 0.063074 0.000000 0.000000
# 5 0.000000 0.000000 0.000000 0.000000 0.063074 0.000000
# 6 0.000000 0.000000 0.000000 0.000000 0.000000 0.047191
#
#
# Mechanical properties :
#
#
# Convention : Reuss Voigt Hill
#
# Bulk Modulus (GPa) = 28.17846 31.38532 29.78189
# Shear Modulus (GPa) = 20.29205 23.42773 21.85989
#
# Velocity S-wave (km/s) = 3.01988 3.24483 3.13437
# Velocity P-wave (km/s) = 4.98233 5.30507 5.14623
#
# Compressibility (1/GPa) = 0.03548810
#
# Stress axis : x y z
#
# Youngs Moduli (GPa) = 62.37196 62.37196 61.36591
#
# Poissons Ratio (x) = 0.47169 -0.03455
# Poissons Ratio (y) = 0.47169 -0.03455
# Poissons Ratio (z) = -0.03511 -0.03511
#
# Static dielectric constant tensor:
#      x y z
#    x 1.861510 0.000000 0.000000 
#    y 0.000000 1.861510 0.000000 
#    z 0.000000 0.000000 1.784230 
# 
# From -- ./inp_files/3420.got.cif
#   From: 2010.05.17/outbox.cif.g08.bks.cpg/sg182_2_cif.got.tgz:3420.got - 2010.05.20 11:58:53.
