data_PCOD9584439
_publ_section_title
;
Structure prediction by ZEFSAII (Michael W. Deem and Ramdas Pophale) SiO2 
 PCOD9584439
Probable space group: P 64 2 2
;
_chemical_formula_sum "Si O2"
_cell_formula_units_Z 42
_cell_length_a 14.407830
_cell_length_b 14.407830
_cell_length_c 9.730176
_cell_angle_alpha 90.000000
_cell_angle_beta 90.000000
_cell_angle_gamma 120.000000
_cell_volume 1749.236290
_symmetry_space_group_name_H-M "P 64 2 2"
_symmetry_group_IT_number 181
_symmetry_cell_setting 'hexagonal'
loop_
_space_group_symop_operation_xyz
x,y,z
x-y,x,2/3+z
-y,x-y,1/3+z
-x,-y,z
-x+y,-x,2/3+z
y,-x+y,1/3+z
x-y,-y,-z
-x,-x+y,2/3-z
y,x,1/3-z
-y,-x,1/3-z
-x+y,y,-z
x,x-y,2/3-z
loop_
_atom_site_type_symbol
_atom_site_label
_atom_site_fract_x
_atom_site_fract_y
_atom_site_fract_z
Si Si1 0.257326 0.114307 0.035658
Si Si2 0.185685 0.092843 0.333334
Si Si3 0.797763 0.268230 0.896997
Si Si4 0.120062 0.516997 0.037683
O O1 0.254719 0.127908 0.198169
O O2 0.154050 0.119271 0.985618
O O3 0.369777 0.213391 0.999500
O O4 0.241252 0.000000 0.000000
O O5 0.685662 0.176178 0.830697
O O6 0.875147 0.329326 0.765595
O O7 0.799287 0.361557 0.987547
O O8 0.000000 0.500000 0.058956
#
# Coordination Sequence:
#
# PCOD9584439 Si02
#       4
#    12   6  12  12
#     4  11  23  40  65 103 137 181 230 280 348 433
#     4  10  23  38  66  94 146 180 222 268 357 424
#     4  10  22  40  67  96 134 172 232 290 355 415
#     4  10  22  42  70  99 129 179 233 290 362 430
#
# _framework density 24.010480000000001
#
# number of rings (size 3 to 8) (size 9 to 14) (size 15 to 20)
#    0.000    1.714    0.000    4.714   12.000    2.286 
#    0.000   14.286    0.000    0.000    0.000    0.000 
#    0.000    0.000    0.000    0.000    0.000    0.000 
#
# Total GULP energy -234439.927782 kJ/mol
# GULP energy per Si atom -5581.903042 kJ/mol
# Density = 2.395583 g / cm^3
# Si number density = 24.010480 Si / 1000 Ang^3
#
#
#
# Elastic Constant Matrix: (Units=GPa)
#
#
# Indices 1 2 3 4 5 6 
#
# 1 584.4278 -375.5462 14.2166 0.0000 0.0000 0.0000
# 2 -375.5462 584.4277 14.2166 0.0000 0.0000 0.0000
# 3 14.2166 14.2166 46.3995 0.0000 0.0000 0.0000
# 4 0.0000 0.0000 0.0000 -7.7816 0.0000 0.0000
# 5 0.0000 0.0000 0.0000 0.0000 -7.7816 0.0000
# 6 0.0000 0.0000 0.0000 0.0000 0.0000 479.9870
#
#
#
# Elastic Compliance Matrix: (Units=1/GPa)
#
#
# Indices 1 2 3 4 5 6 
#
# 1 0.003019 0.001977 -0.001531 0.000000 0.000000 0.000000
# 2 0.001977 0.003019 -0.001531 0.000000 0.000000 0.000000
# 3 -0.001531 -0.001531 0.022490 0.000000 0.000000 0.000000
# 4 0.000000 0.000000 0.000000 -0.128508 0.000000 0.000000
# 5 0.000000 0.000000 0.000000 0.000000 -0.128508 0.000000
# 6 0.000000 0.000000 0.000000 0.000000 0.000000 0.002083
#
#
# Mechanical properties :
#
#
# Convention : Reuss Voigt Hill
#
# Bulk Modulus (GPa) = 37.93810 57.89211 47.91510
# Shear Modulus (GPa) = -23.20714 197.04264 86.91775
#
# Velocity S-wave (km/s) = -3.11230 9.06882 6.02316
# Velocity P-wave (km/s) = 1.70872 11.56812 8.26865
#
# Compressibility (1/GPa) = 0.02635873
#
# Stress axis : x y z
#
# Youngs Moduli (GPa) = 331.26534 331.26534 44.46435
#
# Poissons Ratio (x) = -0.65492 0.06806
# Poissons Ratio (y) = -0.65492 0.06806
# Poissons Ratio (z) = 0.50706 0.50706
#
# Static dielectric constant tensor:
#      x y z
#    x 2.048490 0.000000 0.000000 
#    y 0.000000 2.048490 0.000000 
#    z 0.000000 0.000000 1.938270 
# 
# From -- ./inp_files/4235.got.cif
#   From: 2010.05.17/outbox.cif.g08.bks.cpg/sg181_3_cif.got.tgz:4235.got - 2010.05.20 11:51:17.
