data_PCOD9584528
_publ_section_title
;
Structure prediction by ZEFSAII (Michael W. Deem and Ramdas Pophale) SiO2 
 PCOD9584528
Probable space group: P 64 2 2
;
_chemical_formula_sum "Si O2"
_cell_formula_units_Z 66
_cell_length_a 11.532712
_cell_length_b 11.532712
_cell_length_c 28.747217
_cell_angle_alpha 90.000000
_cell_angle_beta 90.000000
_cell_angle_gamma 120.000000
_cell_volume 3311.229881
_symmetry_space_group_name_H-M "P 64 2 2"
_symmetry_group_IT_number 181
_symmetry_cell_setting 'hexagonal'
loop_
_space_group_symop_operation_xyz
x,y,z
x-y,x,2/3+z
-y,x-y,1/3+z
-x,-y,z
-x+y,-x,2/3+z
y,-x+y,1/3+z
x-y,-y,-z
-x,-x+y,2/3-z
y,x,1/3-z
-y,-x,1/3-z
-x+y,y,-z
x,x-y,2/3-z
loop_
_atom_site_type_symbol
_atom_site_label
_atom_site_fract_x
_atom_site_fract_y
_atom_site_fract_z
Si Si1 0.503813 0.864125 0.733639
Si Si2 0.139916 0.215924 0.444664
Si Si3 0.650689 0.239685 0.550256
Si Si4 0.342482 0.891044 0.369181
Si Si5 0.843426 0.798546 0.246082
Si Si6 0.000000 0.333060 0.833334
O O1 0.635708 0.886372 0.761541
O O2 0.361068 0.769988 0.756805
O O3 0.512155 0.820728 0.680830
O O4 0.500000 0.000000 0.730135
O O5 0.106250 0.212499 0.500000
O O6 0.998930 0.154255 0.416911
O O7 0.179651 0.102649 0.432129
O O8 0.648665 0.297329 0.500000
O O9 0.529848 0.197720 0.586264
O O10 0.649084 0.102989 0.533596
O O11 0.248462 0.954780 0.378912
O O12 0.500000 0.000000 0.368380
O O13 0.790910 0.707350 0.200069
#
# Coordination Sequence:
#
# PCOD9584528 Si02
#       6
#    12  12  12  12  12   6
#     4  11  27  42  58  91 142 183 214 269 353 425
#     4  11  23  42  65 100 136 177 225 285 349 410
#     4  12  22  40  67  99 123 164 232 287 334 408
#     4  11  23  40  65  97 131 172 224 285 341 411
#     4  11  21  39  72  98 131 169 230 289 340 409
#     4  12  19  37  72 104 126 163 233 296 346 398
#
# _framework density 19.932172000000001
#
# number of rings (size 3 to 8) (size 9 to 14) (size 15 to 20)
#    0.000    0.727    5.455    3.000    0.000    1.455 
#    0.000    2.727    0.000    2.182    0.000    0.000 
#    0.000    0.000    0.000    0.000    0.000    0.000 
#
# Total GULP energy -367605.070535 kJ/mol
# GULP energy per Si atom -5569.773796 kJ/mol
# Density = 1.988681 g / cm^3
# Si number density = 19.932172 Si / 1000 Ang^3
#
#
#
# Elastic Constant Matrix: (Units=GPa)
#
#
# Indices 1 2 3 4 5 6 
#
# 1 106.6390 48.5849 46.3018 0.0000 0.0000 0.0000
# 2 48.5849 106.6390 46.3018 0.0000 0.0000 0.0000
# 3 46.3018 46.3018 126.5020 0.0000 0.0000 0.0000
# 4 0.0000 0.0000 0.0000 6.4814 0.0000 0.0000
# 5 0.0000 0.0000 0.0000 0.0000 6.4814 0.0000
# 6 0.0000 0.0000 0.0000 0.0000 0.0000 29.0271
#
#
#
# Elastic Compliance Matrix: (Units=1/GPa)
#
#
# Indices 1 2 3 4 5 6 
#
# 1 0.012734 -0.004492 -0.003017 0.000000 0.000000 0.000000
# 2 -0.004492 0.012734 -0.003017 0.000000 0.000000 0.000000
# 3 -0.003017 -0.003017 0.010113 0.000000 0.000000 0.000000
# 4 0.000000 0.000000 0.000000 0.154287 0.000000 0.000000
# 5 0.000000 0.000000 0.000000 0.000000 0.154287 0.000000
# 6 0.000000 0.000000 0.000000 0.000000 0.000000 0.034451
#
#
# Mechanical properties :
#
#
# Convention : Reuss Voigt Hill
#
# Bulk Modulus (GPa) = 68.82062 69.12857 68.97460
# Shear Modulus (GPa) = 12.36095 21.63740 16.99917
#
# Velocity S-wave (km/s) = 2.49298 3.29835 2.92353
# Velocity P-wave (km/s) = 6.54897 7.01873 6.78792
#
# Compressibility (1/GPa) = 0.01453053
#
# Stress axis : x y z
#
# Youngs Moduli (GPa) = 78.53197 78.53197 98.87915
#
# Poissons Ratio (x) = 0.35274 0.29829
# Poissons Ratio (y) = 0.35274 0.29829
# Poissons Ratio (z) = 0.23691 0.23691
#
# Static dielectric constant tensor:
#      x y z
#    x 1.754020 0.000000 0.000000 
#    y 0.000000 1.754020 0.000000 
#    z 0.000000 0.000000 1.748690 
# 
# From -- ./inp_files/12309.got.cif
#   From: 2010.05.17/outbox.cif.g08.bks.cpg/sg181_7_cif.got.tgz:12309.got - 2010.05.20 11:51:17.
