data_PCOD9584358
_publ_section_title
;
Structure prediction by ZEFSAII (Michael W. Deem and Ramdas Pophale) SiO2 
 PCOD9584358
Probable space group: P 64 2 2
;
_chemical_formula_sum "Si O2"
_cell_formula_units_Z 84
_cell_length_a 19.385090
_cell_length_b 19.385090
_cell_length_c 13.130666
_cell_angle_alpha 90.000000
_cell_angle_beta 90.000000
_cell_angle_gamma 120.000000
_cell_volume 4273.198128
_symmetry_space_group_name_H-M "P 64 2 2"
_symmetry_group_IT_number 181
_symmetry_cell_setting 'hexagonal'
loop_
_space_group_symop_operation_xyz
x,y,z
x-y,x,2/3+z
-y,x-y,1/3+z
-x,-y,z
-x+y,-x,2/3+z
y,-x+y,1/3+z
x-y,-y,-z
-x,-x+y,2/3-z
y,x,1/3-z
-y,-x,1/3-z
-x+y,y,-z
x,x-y,2/3-z
loop_
_atom_site_type_symbol
_atom_site_label
_atom_site_fract_x
_atom_site_fract_y
_atom_site_fract_z
Si Si1 0.764718 0.564495 0.748066
Si Si2 0.799946 0.820947 0.785026
Si Si3 0.471390 0.798954 0.757257
Si Si4 0.361386 0.278883 0.222180
Si Si5 0.924853 0.125564 0.764090
Si Si6 0.620652 0.887214 0.879808
Si Si7 0.326046 0.501482 0.953701
O O1 0.775082 0.501975 0.677237
O O2 0.850115 0.615755 0.802185
O O3 0.736363 0.606472 0.666241
O O4 0.703078 0.530359 0.840143
O O5 0.825646 0.825646 0.666667
O O6 0.808896 0.904448 0.833334
O O7 0.850406 0.788016 0.840473
O O8 0.708814 0.751068 0.801179
O O9 0.444490 0.722245 0.833334
O O10 0.543557 0.874295 0.817715
O O11 0.406879 0.822499 0.724207
O O12 0.338355 0.338355 0.166667
O O13 0.280896 0.205764 0.269527
O O14 0.432309 0.320325 0.304555
O O15 0.923549 0.076452 0.666667
O O16 0.000000 0.153580 0.833334
O O17 0.624699 0.812350 0.833334
O O18 0.259788 0.519576 0.000000
#
# Coordination Sequence:
#
# PCOD9584358 Si02
#       7
#    12  12  12  12  12  12  12
#     4   9  18  36  56  83 122 155 204 259 308 384
#     4  11  22  38  63  92 123 162 210 260 319 383
#     4   9  20  34  57  89 122 161 202 260 318 382
#     4  10  22  39  59  83 117 165 212 262 315 383
#     4  11  23  39  61  90 122 158 208 261 318 374
#     4   8  18  36  57  86 118 157 203 249 310 378
#     4  10  21  34  57  91 124 160 212 261 328 387
#
# _framework density 19.657409000000001
#
# number of rings (size 3 to 8) (size 9 to 14) (size 15 to 20)
#    0.000    2.571    0.000    3.000    2.000    9.429 
#    0.000    2.857    0.000    0.000    0.000    7.000 
#    0.000    0.000    0.000    0.000    0.000    0.000 
#
# Total GULP energy -467793.127967 kJ/mol
# GULP energy per Si atom -5568.965809 kJ/mol
# Density = 1.961267 g / cm^3
# Si number density = 19.657409 Si / 1000 Ang^3
#
#
#
# Elastic Constant Matrix: (Units=GPa)
#
#
# Indices 1 2 3 4 5 6 
#
# 1 264.5481 -97.3096 45.8130 0.0000 0.0000 0.0000
# 2 -97.3096 264.5481 45.8130 0.0000 0.0000 0.0000
# 3 45.8130 45.8130 125.0135 0.0000 0.0000 0.0000
# 4 0.0000 0.0000 0.0000 68.1451 0.0000 0.0000
# 5 0.0000 0.0000 0.0000 0.0000 68.1451 0.0000
# 6 0.0000 0.0000 0.0000 0.0000 0.0000 180.9288
#
#
#
# Elastic Compliance Matrix: (Units=1/GPa)
#
#
# Indices 1 2 3 4 5 6 
#
# 1 0.005123 0.002359 -0.002742 0.000000 0.000000 0.000000
# 2 0.002359 0.005123 -0.002742 0.000000 0.000000 0.000000
# 3 -0.002742 -0.002742 0.010009 0.000000 0.000000 0.000000
# 4 0.000000 0.000000 0.000000 0.014675 0.000000 0.000000
# 5 0.000000 0.000000 0.000000 0.000000 0.014675 0.000000
# 6 0.000000 0.000000 0.000000 0.000000 0.000000 0.005527
#
#
# Mechanical properties :
#
#
# Convention : Reuss Voigt Hill
#
# Bulk Modulus (GPa) = 71.40357 71.41580 71.40969
# Shear Modulus (GPa) = 75.70350 107.43002 91.56676
#
# Velocity S-wave (km/s) = 6.21249 7.40066 6.83245
# Velocity P-wave (km/s) = 9.37352 10.46114 9.93223
#
# Compressibility (1/GPa) = 0.01400490
#
# Stress axis : x y z
#
# Youngs Moduli (GPa) = 195.21450 195.21450 99.91369
#
# Poissons Ratio (x) = -0.46052 0.27394
# Poissons Ratio (y) = -0.46052 0.27394
# Poissons Ratio (z) = 0.53523 0.53523
#
# Static dielectric constant tensor:
#      x y z
#    x 1.730630 0.000000 0.000000 
#    y 0.000000 1.730630 0.000000 
#    z 0.000000 0.000000 2.076720 
# 
# From -- ./inp_files/5052.got.cif
#   From: 2010.05.17/outbox.cif.g08.bks.cpg/sg181_3_cif.got.tgz:5052.got - 2010.05.20 11:51:17.
