data_PCOD9584948
_publ_section_title
;
Structure prediction by ZEFSAII (Michael W. Deem and Ramdas Pophale) SiO2 
 PCOD9584948
Probable space group: P 6 M M
;
_chemical_formula_sum "Si O2"
_cell_formula_units_Z 84
_cell_length_a 24.627296
_cell_length_b 24.627296
_cell_length_c 10.158636
_cell_angle_alpha 90.000000
_cell_angle_beta 90.000000
_cell_angle_gamma 120.000000
_cell_volume 5335.799370
_symmetry_space_group_name_H-M "P 6 M M"
_symmetry_group_IT_number 183
_symmetry_cell_setting 'hexagonal'
loop_
_space_group_symop_operation_xyz
x,y,z
x-y,x,z
-y,x-y,z
-x,-y,z
-x+y,-x,z
y,-x+y,z
-x+y,y,z
x,x-y,z
-y,-x,z
y,x,z
x-y,-y,z
-x,-x+y,z
loop_
_atom_site_type_symbol
_atom_site_label
_atom_site_fract_x
_atom_site_fract_y
_atom_site_fract_z
Si Si1 0.480647 0.075496 0.542890
Si Si2 0.388227 0.132089 0.895457
Si Si3 0.631103 0.557354 0.256021
Si Si4 0.524401 0.599079 0.959431
Si Si5 0.361582 0.073537 0.627076
Si Si6 0.802576 0.731281 0.083884
Si Si7 0.345494 0.109606 0.339810
O O1 0.549947 0.099894 0.596153
O O2 0.483486 0.087555 0.386716
O O3 0.435217 0.096953 0.604555
O O4 0.442801 0.000000 0.558862
O O5 0.410380 0.205190 0.917152
O O6 0.358571 0.111855 0.749880
O O7 0.441526 0.112139 0.908233
O O8 0.332021 0.092797 0.998775
O O9 0.609279 0.609279 0.264190
O O10 0.606417 0.523850 0.117873
O O11 0.705375 0.595310 0.272004
O O12 0.454353 0.545648 0.917123
O O13 0.569211 0.569211 0.929941
O O14 0.336938 0.080635 0.485049
O O15 0.325601 0.000000 0.661591
O O16 0.874756 0.749511 0.061803
O O17 0.782145 0.782145 0.050982
O O18 0.786068 0.710963 0.236641
O O19 0.358322 0.179161 0.355256
#
# Coordination Sequence:
#
# PCOD9584948 Si02
#       7
#    12  12  12  12  12  12  12
#     4   8  14  24  39  61  87 115 146 181 228 280
#     4  11  22  34  48  68  98 131 163 202 246 296
#     4   9  15  25  42  63  91 120 150 187 230 278
#     4  10  19  30  48  72  96 122 156 201 248 292
#     4  10  19  30  45  64  92 127 158 196 239 286
#     4  10  19  32  51  72  96 127 161 198 237 286
#     4  10  18  28  45  68  94 126 161 194 232 281
#
# _framework density 15.742721
#
# number of rings (size 3 to 8) (size 9 to 14) (size 15 to 20)
#    0.000    2.286    1.429    4.286    0.000    2.286 
#    0.000    1.429    0.000    0.429    0.000    0.000 
#    0.000    0.000    0.000   14.571    0.000   30.143 
#
# Total GULP energy -467843.333305 kJ/mol
# GULP energy per Si atom -5569.563492 kJ/mol
# Density = 1.570689 g / cm^3
# Si number density = 15.742721 Si / 1000 Ang^3
#
#
#
# Elastic Constant Matrix: (Units=GPa)
#
#
# Indices 1 2 3 4 5 6 
#
# 1 81.5516 42.4017 18.9745 0.0000 0.0000 0.0000
# 2 42.4017 81.5516 18.9745 0.0000 0.0000 0.0000
# 3 18.9745 18.9745 84.1055 0.0000 0.0000 0.0000
# 4 0.0000 0.0000 0.0000 -17.1645 0.0000 0.0000
# 5 0.0000 0.0000 0.0000 0.0000 -17.1645 0.0000
# 6 0.0000 0.0000 0.0000 0.0000 0.0000 19.5750
#
#
#
# Elastic Compliance Matrix: (Units=1/GPa)
#
#
# Indices 1 2 3 4 5 6 
#
# 1 0.017104 -0.008438 -0.001955 0.000000 0.000000 0.000000
# 2 -0.008438 0.017104 -0.001955 0.000000 0.000000 0.000000
# 3 -0.001955 -0.001955 0.012772 0.000000 0.000000 0.000000
# 4 0.000000 0.000000 0.000000 -0.058260 0.000000 0.000000
# 5 0.000000 0.000000 0.000000 0.000000 -0.058260 0.000000
# 6 0.000000 0.000000 0.000000 0.000000 0.000000 0.051086
#
#
# Mechanical properties :
#
#
# Convention : Reuss Voigt Hill
#
# Bulk Modulus (GPa) = 44.87565 45.32334 45.09949
# Shear Modulus (GPa) = 365.70762 8.17306 186.94034
#
# Velocity S-wave (km/s) = 15.25801 2.28099 10.90894
# Velocity P-wave (km/s) = 18.41132 5.98245 13.68880
#
# Compressibility (1/GPa) = 0.02228380
#
# Stress axis : x y z
#
# Youngs Moduli (GPa) = 58.46429 58.46429 78.29634
#
# Poissons Ratio (x) = 0.49334 0.15308
# Poissons Ratio (y) = 0.49334 0.15308
# Poissons Ratio (z) = 0.11430 0.11430
#
# Static dielectric constant tensor:
#      x y z
#    x 1.530080 0.000000 0.000000 
#    y 0.000000 1.530080 0.000000 
#    z 0.000000 0.000000 1.570640 
# 
# From -- ./inp_files/1920.got.cif
#   From: 2010.05.17/outbox.cif.g08.bks.cpg/sg183_1_cif.got.tgz:1920.got - 2010.05.20 12:02:58.
