data_PCOD9584113
_publ_section_title
;
Structure prediction by ZEFSAII (Michael W. Deem and Ramdas Pophale) SiO2 
 PCOD9584113
Probable space group: P 62 2 2
;
_chemical_formula_sum "Si O2"
_cell_formula_units_Z 54
_cell_length_a 13.187083
_cell_length_b 13.187083
_cell_length_c 16.124743
_cell_angle_alpha 90.000000
_cell_angle_beta 90.000000
_cell_angle_gamma 120.000000
_cell_volume 2428.403849
_symmetry_space_group_name_H-M "P 62 2 2"
_symmetry_group_IT_number 180
_symmetry_cell_setting 'hexagonal'
loop_
_space_group_symop_operation_xyz
x,y,z
x-y,x,1/3+z
-y,x-y,2/3+z
-x,-y,z
-x+y,-x,1/3+z
y,-x+y,2/3+z
x-y,-y,-z
-x,-x+y,1/3-z
y,x,2/3-z
-y,-x,2/3-z
-x+y,y,-z
x,x-y,1/3-z
loop_
_atom_site_type_symbol
_atom_site_label
_atom_site_fract_x
_atom_site_fract_y
_atom_site_fract_z
Si Si1 0.560686 0.779379 0.337581
Si Si2 0.446640 0.723320 0.166667
Si Si3 0.634978 0.098204 0.160702
Si Si4 0.048780 0.306043 0.987522
Si Si5 0.535724 0.126909 0.596026
O O1 0.529445 0.735016 0.243929
O O2 0.572934 0.697544 0.404968
O O3 0.445174 0.786112 0.364148
O O4 0.670942 0.911080 0.341809
O O5 0.369267 0.784254 0.186172
O O6 0.698015 0.061916 0.230240
O O7 0.500000 0.000000 0.156278
O O8 0.117458 0.234915 0.000000
O O9 0.122053 0.415274 0.051590
O O10 0.561563 0.123125 0.500000
O O11 0.500000 0.000000 0.634750
#
# Coordination Sequence:
#
# PCOD9584113 Si02
#       5
#    12   6  12  12  12
#     4  11  24  40  63  95 133 185 240 283 362 431
#     4  12  24  42  62  95 137 188 238 284 356 442
#     4  12  25  45  66 101 144 186 235 297 366 442
#     4  11  22  41  65  95 142 181 238 301 346 431
#     4   9  17  33  55  87 127 170 222 281 341 409
#
# _framework density 22.236827999999999
#
# number of rings (size 3 to 8) (size 9 to 14) (size 15 to 20)
#    0.000    1.111    4.444    2.667    4.667    4.444 
#    0.000    0.000    0.000    0.000    0.000    4.667 
#    0.000    0.000    0.000    0.000    0.000    0.000 
#
# Total GULP energy -301740.813451 kJ/mol
# GULP energy per Si atom -5587.792842 kJ/mol
# Density = 2.218622 g / cm^3
# Si number density = 22.236828 Si / 1000 Ang^3
#
#
#
# Elastic Constant Matrix: (Units=GPa)
#
#
# Indices 1 2 3 4 5 6 
#
# 1 82.5100 9.0526 20.3551 0.0000 0.0000 0.0000
# 2 9.0526 82.5100 20.3551 0.0000 0.0000 0.0000
# 3 20.3551 20.3551 162.4361 0.0000 0.0000 0.0000
# 4 0.0000 0.0000 0.0000 26.7574 0.0000 0.0000
# 5 0.0000 0.0000 0.0000 0.0000 26.7574 0.0000
# 6 0.0000 0.0000 0.0000 0.0000 0.0000 36.7287
#
#
#
# Elastic Compliance Matrix: (Units=1/GPa)
#
#
# Indices 1 2 3 4 5 6 
#
# 1 0.012590 -0.001024 -0.001449 0.000000 0.000000 0.000000
# 2 -0.001024 0.012590 -0.001449 0.000000 0.000000 0.000000
# 3 -0.001449 -0.001449 0.006520 0.000000 0.000000 0.000000
# 4 0.000000 0.000000 0.000000 0.037373 0.000000 0.000000
# 5 0.000000 0.000000 0.000000 0.000000 0.037373 0.000000
# 6 0.000000 0.000000 0.000000 0.000000 0.000000 0.027227
#
#
# Mechanical properties :
#
#
# Convention : Reuss Voigt Hill
#
# Bulk Modulus (GPa) = 41.92181 47.44241 44.68211
# Shear Modulus (GPa) = 33.45215 36.56157 35.00686
#
# Velocity S-wave (km/s) = 3.88281 4.05926 3.97202
# Velocity P-wave (km/s) = 6.24460 6.58419 6.41664
#
# Compressibility (1/GPa) = 0.02385393
#
# Stress axis : x y z
#
# Youngs Moduli (GPa) = 79.43053 79.43053 153.38586
#
# Poissons Ratio (x) = 0.08132 0.22231
# Poissons Ratio (y) = 0.08132 0.22231
# Poissons Ratio (z) = 0.11512 0.11512
#
# Static dielectric constant tensor:
#      x y z
#    x 1.919850 0.000000 0.000000 
#    y 0.000000 1.919850 0.000000 
#    z 0.000000 0.000000 1.870330 
# 
# From -- ./inp_files/5956.got.cif
#   From: 2010.05.17/outbox.cif.g08.bks.cpg/sg180_3_cif.got.tgz:5956.got - 2010.05.20 11:43:55.
