data_PCOD9584443
_publ_section_title
;
Structure prediction by ZEFSAII (Michael W. Deem and Ramdas Pophale) SiO2 
 PCOD9584443
Probable space group: P 64 2 2
;
_chemical_formula_sum "Si O2"
_cell_formula_units_Z 54
_cell_length_a 15.977718
_cell_length_b 15.977718
_cell_length_c 11.624047
_cell_angle_alpha 90.000000
_cell_angle_beta 90.000000
_cell_angle_gamma 120.000000
_cell_volume 2569.907504
_symmetry_space_group_name_H-M "P 64 2 2"
_symmetry_group_IT_number 181
_symmetry_cell_setting 'hexagonal'
loop_
_space_group_symop_operation_xyz
x,y,z
x-y,x,2/3+z
-y,x-y,1/3+z
-x,-y,z
-x+y,-x,2/3+z
y,-x+y,1/3+z
x-y,-y,-z
-x,-x+y,2/3-z
y,x,1/3-z
-y,-x,1/3-z
-x+y,y,-z
x,x-y,2/3-z
loop_
_atom_site_type_symbol
_atom_site_label
_atom_site_fract_x
_atom_site_fract_y
_atom_site_fract_z
Si Si1 0.611997 0.031688 0.873511
Si Si2 0.423810 0.385388 0.042872
Si Si3 0.199622 0.397335 0.222639
Si Si4 0.263074 0.131537 0.333334
Si Si5 0.204255 0.093928 0.699032
O O1 0.687600 0.145360 0.873746
O O2 0.500000 0.000000 0.872894
O O3 0.626970 0.992006 0.750035
O O4 0.629041 0.000000 0.000000
O O5 0.500000 0.500000 0.040581
O O6 0.370272 0.370272 0.166667
O O7 0.458871 0.308184 0.063180
O O8 0.179005 0.336342 0.105538
O O9 0.143738 0.307201 0.308885
O O10 0.189320 0.173026 0.336282
O O11 0.125598 0.125598 0.666667
O O12 0.215943 0.107972 0.833334
#
# Coordination Sequence:
#
# PCOD9584443 Si02
#       5
#    12  12  12   6  12
#     4  10  23  42  65  96 133 168 220 290 341 400
#     4  10  22  41  66  96 131 169 221 287 339 404
#     4  12  23  38  67  94 127 178 227 267 344 416
#     4  12  25  40  58  96 136 176 220 272 326 406
#     4  12  25  39  58  89 134 180 217 269 320 406
#
# _framework density 21.012429000000001
#
# number of rings (size 3 to 8) (size 9 to 14) (size 15 to 20)
#    0.000    0.889    2.222    5.667    3.111    0.889 
#    0.000    0.000    0.000   21.333    0.000    0.000 
#    0.000    0.000    0.000    0.000    0.000    0.000 
#
# Total GULP energy -300657.494756 kJ/mol
# GULP energy per Si atom -5567.731384 kJ/mol
# Density = 2.096460 g / cm^3
# Si number density = 21.012429 Si / 1000 Ang^3
#
#
#
# Elastic Constant Matrix: (Units=GPa)
#
#
# Indices 1 2 3 4 5 6 
#
# 1 136.2022 31.2465 15.1535 0.0000 0.0000 0.0000
# 2 31.2465 136.2022 15.1535 0.0000 0.0000 0.0000
# 3 15.1535 15.1535 194.5729 0.0000 0.0000 0.0000
# 4 0.0000 0.0000 0.0000 12.4230 0.0000 0.0000
# 5 0.0000 0.0000 0.0000 0.0000 12.4230 0.0000
# 6 0.0000 0.0000 0.0000 0.0000 0.0000 52.4778
#
#
#
# Elastic Compliance Matrix: (Units=1/GPa)
#
#
# Indices 1 2 3 4 5 6 
#
# 1 0.007793 -0.001735 -0.000472 0.000000 0.000000 0.000000
# 2 -0.001735 0.007793 -0.000472 0.000000 0.000000 0.000000
# 3 -0.000472 -0.000472 0.005213 0.000000 0.000000 0.000000
# 4 0.000000 0.000000 0.000000 0.080496 0.000000 0.000000
# 5 0.000000 0.000000 0.000000 0.000000 0.080496 0.000000
# 6 0.000000 0.000000 0.000000 0.000000 0.000000 0.019056
#
#
# Mechanical properties :
#
#
# Convention : Reuss Voigt Hill
#
# Bulk Modulus (GPa) = 64.76406 65.56491 65.16448
# Shear Modulus (GPa) = 23.65739 42.49300 33.07520
#
# Velocity S-wave (km/s) = 3.35905 4.50185 3.97177
# Velocity P-wave (km/s) = 6.77739 7.63498 7.21893
#
# Compressibility (1/GPa) = 0.01544066
#
# Stress axis : x y z
#
# Youngs Moduli (GPa) = 128.32691 128.32691 191.83026
#
# Poissons Ratio (x) = 0.22268 0.09050
# Poissons Ratio (y) = 0.22268 0.09050
# Poissons Ratio (z) = 0.06054 0.06054
#
# Static dielectric constant tensor:
#      x y z
#    x 1.848500 0.000000 0.000000 
#    y 0.000000 1.848500 0.000000 
#    z 0.000000 0.000000 1.789730 
# 
# From -- ./inp_files/4700.got.cif
#   From: 2010.05.17/outbox.cif.g08.bks.cpg/sg181_3_cif.got.tgz:4700.got - 2010.05.20 11:51:17.
