data_PCOD9584095
_publ_section_title
;
Structure prediction by ZEFSAII (Michael W. Deem and Ramdas Pophale) SiO2 
 PCOD9584095
Probable space group: P 62 2 2
;
_chemical_formula_sum "Si O2"
_cell_formula_units_Z 48
_cell_length_a 13.861514
_cell_length_b 13.861514
_cell_length_c 12.951762
_cell_angle_alpha 90.000000
_cell_angle_beta 90.000000
_cell_angle_gamma 120.000000
_cell_volume 2155.166476
_symmetry_space_group_name_H-M "P 62 2 2"
_symmetry_group_IT_number 180
_symmetry_cell_setting 'hexagonal'
loop_
_space_group_symop_operation_xyz
x,y,z
x-y,x,1/3+z
-y,x-y,2/3+z
-x,-y,z
-x+y,-x,1/3+z
y,-x+y,2/3+z
x-y,-y,-z
-x,-x+y,1/3-z
y,x,2/3-z
-y,-x,2/3-z
-x+y,y,-z
x,x-y,1/3-z
loop_
_atom_site_type_symbol
_atom_site_label
_atom_site_fract_x
_atom_site_fract_y
_atom_site_fract_z
Si Si1 0.968585 0.844377 0.285321
Si Si2 0.576515 0.633555 0.439048
Si Si3 0.757340 0.435993 0.268865
Si Si4 0.630618 0.735386 0.075659
O O1 0.899593 0.899593 0.333334
O O2 0.906400 0.718699 0.323137
O O3 0.000000 0.871109 0.166667
O O4 0.090777 0.909224 0.333334
O O5 0.500000 0.500000 0.452138
O O6 0.642751 0.642751 0.333334
O O7 0.502119 0.691499 0.427741
O O8 0.661937 0.673886 0.533165
O O9 0.671295 0.328706 0.333334
O O10 0.792926 0.396463 0.166667
O O11 0.853176 0.516165 0.347870
O O12 0.615821 0.807910 0.166667
#
# Coordination Sequence:
#
# PCOD9584095 Si02
#       4
#    12  12  12  12
#     4  11  25  46  72 107 149 193 238 299 369 446
#     4  11  21  42  72 103 137 187 250 300 357 445
#     4  12  25  46  75 106 149 194 246 311 373 434
#     4  12  25  43  76 109 143 188 252 303 373 448
#
# _framework density 22.272062999999999
#
# number of rings (size 3 to 8) (size 9 to 14) (size 15 to 20)
#    0.000    0.500    5.000    5.250    7.000    0.000 
#    9.000    0.000    0.000    0.000    0.000    0.000 
#    0.000    0.000    0.000    0.000    0.000    0.000 
#
# Total GULP energy -268452.570038 kJ/mol
# GULP energy per Si atom -5592.761876 kJ/mol
# Density = 2.222137 g / cm^3
# Si number density = 22.272063 Si / 1000 Ang^3
#
#
#
# Elastic Constant Matrix: (Units=GPa)
#
#
# Indices 1 2 3 4 5 6 
#
# 1 53.6655 -2.7841 42.3732 0.0000 0.0000 0.0000
# 2 -2.7841 53.6655 42.3732 0.0000 0.0000 0.0000
# 3 42.3732 42.3732 190.7571 0.0000 0.0000 0.0000
# 4 0.0000 0.0000 0.0000 33.5887 0.0000 0.0000
# 5 0.0000 0.0000 0.0000 0.0000 33.5887 0.0000
# 6 0.0000 0.0000 0.0000 0.0000 0.0000 28.2248
#
#
#
# Elastic Compliance Matrix: (Units=1/GPa)
#
#
# Indices 1 2 3 4 5 6 
#
# 1 0.024455 0.006740 -0.006929 0.000000 0.000000 0.000000
# 2 0.006740 0.024455 -0.006929 0.000000 0.000000 0.000000
# 3 -0.006929 -0.006929 0.008321 0.000000 0.000000 0.000000
# 4 0.000000 0.000000 0.000000 0.029772 0.000000 0.000000
# 5 0.000000 0.000000 0.000000 0.000000 0.029772 0.000000
# 6 0.000000 0.000000 0.000000 0.000000 0.000000 0.035430
#
#
# Mechanical properties :
#
#
# Convention : Reuss Voigt Hill
#
# Bulk Modulus (GPa) = 23.25960 51.33474 37.29717
# Shear Modulus (GPa) = 27.65905 33.48883 30.57394
#
# Velocity S-wave (km/s) = 3.52784 3.88187 3.70908
# Velocity P-wave (km/s) = 5.20195 6.57197 5.92668
#
# Compressibility (1/GPa) = 0.04299300
#
# Stress axis : x y z
#
# Youngs Moduli (GPa) = 40.89163 40.89163 120.18174
#
# Poissons Ratio (x) = -0.27561 0.83278
# Poissons Ratio (y) = -0.27561 0.83278
# Poissons Ratio (z) = 0.28335 0.28335
#
# Static dielectric constant tensor:
#      x y z
#    x 1.869220 0.000000 0.000000 
#    y 0.000000 1.869220 0.000000 
#    z 0.000000 0.000000 1.747390 
# 
# From -- ./inp_files/4440.got.cif
#   From: 2010.05.17/outbox.cif.g08.bks.cpg/sg180_3_cif.got.tgz:4440.got - 2010.05.20 11:43:55.
