data_PCOD9584900
_publ_section_title
;
Structure prediction by ZEFSAII (Michael W. Deem and Ramdas Pophale) SiO2 
 PCOD9584900
Probable space group: P 63 2 2
;
_chemical_formula_sum "Si O2"
_cell_formula_units_Z 58
_cell_length_a 14.754480
_cell_length_b 14.754480
_cell_length_c 14.961933
_cell_angle_alpha 90.000000
_cell_angle_beta 90.000000
_cell_angle_gamma 120.000000
_cell_volume 2820.760110
_symmetry_space_group_name_H-M "P 63 2 2"
_symmetry_group_IT_number 182
_symmetry_cell_setting 'hexagonal'
loop_
_space_group_symop_operation_xyz
x,y,z
x-y,x,1/2+z
-y,x-y,z
-x,-y,1/2+z
-x+y,-x,z
y,-x+y,1/2+z
x-y,-y,-z
-x,-x+y,-z
y,x,-z
-y,-x,1/2-z
-x+y,y,1/2-z
x,x-y,1/2-z
loop_
_atom_site_type_symbol
_atom_site_label
_atom_site_fract_x
_atom_site_fract_y
_atom_site_fract_z
Si Si1 0.429578 0.201722 0.973328
Si Si2 0.882206 0.621495 0.328832
Si Si3 0.153912 0.912778 0.152308
Si Si4 0.531852 0.438373 0.928738
Si Si5 0.489911 0.510090 0.750000
Si Si6 0.000000 0.000000 0.893236
O O1 0.318434 0.162338 0.924484
O O2 0.505150 0.323133 0.954789
O O3 0.480858 0.136304 0.933425
O O4 0.415488 0.180635 0.078814
O O5 0.818042 0.636083 0.250000
O O6 0.983865 0.732673 0.348912
O O7 0.913717 0.537635 0.294191
O O8 0.137886 0.862115 0.250000
O O9 0.065442 0.945022 0.138331
O O10 0.488363 0.437798 0.830549
O O11 0.477200 0.477200 0.000000
O O12 0.000000 0.000000 0.000000
#
# Coordination Sequence:
#
# PCOD9584900 Si02
#       6
#    12  12  12  12   6   4
#     4  12  26  47  73 102 148 191 243 304 374 432
#     4  12  25  45  72 104 145 191 245 300 372 436
#     4  12  25  46  71 108 149 193 239 307 360 446
#     4  12  25  47  72 107 147 191 248 307 366 443
#     4  12  24  46  74 104 144 192 248 310 362 440
#     4  12  25  41  73 108 151 191 245 293 373 438
#
# _framework density 20.561834000000001
#
# number of rings (size 3 to 8) (size 9 to 14) (size 15 to 20)
#    0.000    0.000    4.138    6.621    0.000    2.483 
#    0.621    0.000    0.000    0.000    0.000    0.000 
#    0.000    0.000    0.000    0.000    0.000    0.000 
#
# Total GULP energy -324858.629163 kJ/mol
# GULP energy per Si atom -5601.010848 kJ/mol
# Density = 2.051503 g / cm^3
# Si number density = 20.561834 Si / 1000 Ang^3
#
#
#
# Elastic Constant Matrix: (Units=GPa)
#
#
# Indices 1 2 3 4 5 6 
#
# 1 43.1411 26.7136 30.6991 0.0000 0.0000 0.0000
# 2 26.7136 43.1411 30.6991 0.0000 0.0000 0.0000
# 3 30.6991 30.6991 139.2691 0.0000 0.0000 0.0000
# 4 0.0000 0.0000 0.0000 56.1816 0.0000 0.0000
# 5 0.0000 0.0000 0.0000 0.0000 56.1816 0.0000
# 6 0.0000 0.0000 0.0000 0.0000 0.0000 8.2137
#
#
#
# Elastic Compliance Matrix: (Units=1/GPa)
#
#
# Indices 1 2 3 4 5 6 
#
# 1 0.039315 -0.021559 -0.003914 0.000000 0.000000 0.000000
# 2 -0.021559 0.039315 -0.003914 0.000000 0.000000 0.000000
# 3 -0.003914 -0.003914 0.008906 0.000000 0.000000 0.000000
# 4 0.000000 0.000000 0.000000 0.017799 0.000000 0.000000
# 5 0.000000 0.000000 0.000000 0.000000 0.017799 0.000000
# 6 0.000000 0.000000 0.000000 0.000000 0.000000 0.121748
#
#
# Mechanical properties :
#
#
# Convention : Reuss Voigt Hill
#
# Bulk Modulus (GPa) = 34.76884 44.64165 39.70525
# Shear Modulus (GPa) = 15.96208 33.27802 24.62005
#
# Velocity S-wave (km/s) = 2.78923 4.02734 3.46405
# Velocity P-wave (km/s) = 5.22678 6.58666 5.94572
#
# Compressibility (1/GPa) = 0.02876138
#
# Stress axis : x y z
#
# Youngs Moduli (GPa) = 25.43581 25.43581 112.28640
#
# Poissons Ratio (x) = 0.54838 0.43947
# Poissons Ratio (y) = 0.54838 0.43947
# Poissons Ratio (z) = 0.09955 0.09955
#
# Static dielectric constant tensor:
#      x y z
#    x 1.723980 0.000000 0.000000 
#    y 0.000000 1.723980 0.000000 
#    z 0.000000 0.000000 1.772660 
# 
# From -- ./inp_files/3483.got.cif
#   From: 2010.05.17/outbox.cif.g08.bks.cpg/sg182_2_cif.got.tgz:3483.got - 2010.05.20 11:58:53.
