data_PCOD9584506
_publ_section_title
;
Structure prediction by ZEFSAII (Michael W. Deem and Ramdas Pophale) SiO2 
 PCOD9584506
Probable space group: P 64 2 2
;
_chemical_formula_sum "Si O2"
_cell_formula_units_Z 42
_cell_length_a 13.768508
_cell_length_b 13.768508
_cell_length_c 12.738406
_cell_angle_alpha 90.000000
_cell_angle_beta 90.000000
_cell_angle_gamma 120.000000
_cell_volume 2091.315137
_symmetry_space_group_name_H-M "P 64 2 2"
_symmetry_group_IT_number 181
_symmetry_cell_setting 'hexagonal'
loop_
_space_group_symop_operation_xyz
x,y,z
x-y,x,2/3+z
-y,x-y,1/3+z
-x,-y,z
-x+y,-x,2/3+z
y,-x+y,1/3+z
x-y,-y,-z
-x,-x+y,2/3-z
y,x,1/3-z
-y,-x,1/3-z
-x+y,y,-z
x,x-y,2/3-z
loop_
_atom_site_type_symbol
_atom_site_label
_atom_site_fract_x
_atom_site_fract_y
_atom_site_fract_z
Si Si1 0.348220 0.462913 0.732465
Si Si2 0.500000 0.000000 0.261906
Si Si3 0.915630 0.287813 0.934446
Si Si4 0.162025 0.053477 0.714137
O O1 0.380657 0.380657 0.666667
O O2 0.419995 0.580006 0.666667
O O3 0.401509 0.479078 0.847888
O O4 0.216985 0.418947 0.747990
O O5 0.395970 0.931230 0.338427
O O6 0.000000 0.324750 0.833334
O O7 0.951073 0.221505 0.015860
O O8 0.159691 0.159691 0.666667
O O9 0.146585 0.073293 0.833334
O O10 0.057721 0.942280 0.666667
#
# Coordination Sequence:
#
# PCOD9584506 Si02
#       4
#    12   6  12  12
#     4   9  23  46  73 102 132 184 244 286 344 424
#     4  10  26  46  68  98 136 184 238 288 350 422
#     4  12  26  44  69 104 140 181 228 296 356 410
#     4  11  24  40  67 104 145 181 222 270 344 423
#
# _framework density 20.083055999999999
#
# number of rings (size 3 to 8) (size 9 to 14) (size 15 to 20)
#    0.000    1.714    0.000    4.714   16.000    0.000 
#   10.286    0.000    0.000    0.000    0.000    0.000 
#    0.000    0.000    0.000    0.000    0.000    0.000 
#
# Total GULP energy -234164.158716 kJ/mol
# GULP energy per Si atom -5575.337112 kJ/mol
# Density = 2.003735 g / cm^3
# Si number density = 20.083056 Si / 1000 Ang^3
#
#
#
# Elastic Constant Matrix: (Units=GPa)
#
#
# Indices 1 2 3 4 5 6 
#
# 1 127.9106 81.9689 60.6238 0.0000 0.0000 0.0000
# 2 81.9689 127.9106 60.6238 0.0000 0.0000 0.0000
# 3 60.6238 60.6238 158.8964 0.0000 0.0000 0.0000
# 4 0.0000 0.0000 0.0000 23.3586 0.0000 0.0000
# 5 0.0000 0.0000 0.0000 0.0000 23.3586 0.0000
# 6 0.0000 0.0000 0.0000 0.0000 0.0000 22.9709
#
#
#
# Elastic Compliance Matrix: (Units=1/GPa)
#
#
# Indices 1 2 3 4 5 6 
#
# 1 0.013939 -0.007827 -0.002332 0.000000 0.000000 0.000000
# 2 -0.007827 0.013939 -0.002332 0.000000 0.000000 0.000000
# 3 -0.002332 -0.002332 0.008073 0.000000 0.000000 0.000000
# 4 0.000000 0.000000 0.000000 0.042811 0.000000 0.000000
# 5 0.000000 0.000000 0.000000 0.000000 0.042811 0.000000
# 6 0.000000 0.000000 0.000000 0.000000 0.000000 0.043533
#
#
# Mechanical properties :
#
#
# Convention : Reuss Voigt Hill
#
# Bulk Modulus (GPa) = 91.16654 91.23896 91.20275
# Shear Modulus (GPa) = 25.80718 28.03770 26.92244
#
# Velocity S-wave (km/s) = 3.58861 3.74048 3.66533
# Velocity P-wave (km/s) = 7.91607 8.01151 7.96393
#
# Compressibility (1/GPa) = 0.01096894
#
# Stress axis : x y z
#
# Youngs Moduli (GPa) = 71.74004 71.74004 123.87394
#
# Poissons Ratio (x) = 0.56154 0.28885
# Poissons Ratio (y) = 0.56154 0.28885
# Poissons Ratio (z) = 0.16728 0.16728
#
# Static dielectric constant tensor:
#      x y z
#    x 1.819930 0.000000 0.000000 
#    y 0.000000 1.819930 0.000000 
#    z 0.000000 0.000000 1.684150 
# 
# From -- ./inp_files/4212.got.cif
#   From: 2010.05.17/outbox.cif.g08.bks.cpg/sg181_3_cif.got.tgz:4212.got - 2010.05.20 11:51:17.
