data_PCOD9584137
_publ_section_title
;
Structure prediction by ZEFSAII (Michael W. Deem and Ramdas Pophale) SiO2 
 PCOD9584137
Probable space group: P 62 2 2
;
_chemical_formula_sum "Si O2"
_cell_formula_units_Z 69
_cell_length_a 15.120385
_cell_length_b 15.120385
_cell_length_c 16.301794
_cell_angle_alpha 90.000000
_cell_angle_beta 90.000000
_cell_angle_gamma 120.000000
_cell_volume 3227.689366
_symmetry_space_group_name_H-M "P 62 2 2"
_symmetry_group_IT_number 180
_symmetry_cell_setting 'hexagonal'
loop_
_space_group_symop_operation_xyz
x,y,z
x-y,x,1/3+z
-y,x-y,2/3+z
-x,-y,z
-x+y,-x,1/3+z
y,-x+y,2/3+z
x-y,-y,-z
-x,-x+y,1/3-z
y,x,2/3-z
-y,-x,2/3-z
-x+y,y,-z
x,x-y,1/3-z
loop_
_atom_site_type_symbol
_atom_site_label
_atom_site_fract_x
_atom_site_fract_y
_atom_site_fract_z
Si Si1 0.862968 0.862968 0.833334
Si Si2 0.514272 0.352000 0.644878
Si Si3 0.227976 0.211593 0.150441
Si Si4 0.982810 0.707387 0.035959
Si Si5 0.122737 0.443546 0.794633
Si Si6 0.500000 0.500000 0.333334
Si Si7 0.650307 0.508063 0.765662
O O1 0.787156 0.817968 0.756181
O O2 0.963811 0.854832 0.820672
O O3 0.562815 0.281408 0.666667
O O4 0.406433 0.294640 0.692965
O O5 0.489222 0.361080 0.551630
O O6 0.590700 0.460944 0.681499
O O7 0.274028 0.137014 0.166667
O O8 0.268389 0.320326 0.196530
O O9 0.255388 0.244880 0.054998
O O10 0.061145 0.687672 0.088544
O O11 0.070873 0.476995 0.725827
O O12 0.242367 0.487700 0.775765
O O13 0.565832 0.434169 0.833334
#
# Coordination Sequence:
#
# PCOD9584137 Si02
#       7
#     6  12  12  12  12   3  12
#     4  12  21  44  71 106 146 182 243 304 365 432
#     4  11  23  44  69 105 149 183 238 305 372 437
#     4  11  26  46  73 104 145 195 244 304 368 445
#     4  11  24  41  70 106 144 189 233 300 372 441
#     4  11  27  50  69 109 142 195 252 300 375 455
#     4  12  32  48  76  92 152 196 244 308 356 466
#     4  12  24  44  75 111 142 189 243 303 377 456
#
# _framework density 21.377521999999999
#
# number of rings (size 3 to 8) (size 9 to 14) (size 15 to 20)
#    0.000    0.696    3.478    4.435    8.522    1.391 
#    0.000    2.609    0.000    0.000    0.000    0.000 
#    0.000    0.000    0.000    0.000    0.000    0.000 
#
# Total GULP energy -385082.534805 kJ/mol
# GULP energy per Si atom -5580.906302 kJ/mol
# Density = 2.132887 g / cm^3
# Si number density = 21.377522 Si / 1000 Ang^3
#
#
#
# Elastic Constant Matrix: (Units=GPa)
#
#
# Indices 1 2 3 4 5 6 
#
# 1 104.2466 22.2789 49.6393 0.0000 0.0000 0.0000
# 2 22.2789 104.2466 49.6393 0.0000 0.0000 0.0000
# 3 49.6393 49.6393 102.0029 0.0000 0.0000 0.0000
# 4 0.0000 0.0000 0.0000 -6.5955 0.0000 0.0000
# 5 0.0000 0.0000 0.0000 0.0000 -6.5955 0.0000
# 6 0.0000 0.0000 0.0000 0.0000 0.0000 40.9839
#
#
#
# Elastic Compliance Matrix: (Units=1/GPa)
#
#
# Indices 1 2 3 4 5 6 
#
# 1 0.012493 0.000293 -0.006222 0.000000 0.000000 0.000000
# 2 0.000293 0.012493 -0.006222 0.000000 0.000000 0.000000
# 3 -0.006222 -0.006222 0.015860 0.000000 0.000000 0.000000
# 4 0.000000 0.000000 0.000000 -0.151618 0.000000 0.000000
# 5 0.000000 0.000000 0.000000 0.000000 -0.151618 0.000000
# 6 0.000000 0.000000 0.000000 0.000000 0.000000 0.024400
#
#
# Mechanical properties :
#
#
# Convention : Reuss Voigt Hill
#
# Bulk Modulus (GPa) = 60.45010 61.51234 60.98122
# Shear Modulus (GPa) = -24.01831 18.15448 -2.93191
#
# Velocity S-wave (km/s) = -3.35555 2.91732 -1.17238
# Velocity P-wave (km/s) = 3.65046 6.33912 5.17254
#
# Compressibility (1/GPa) = 0.01654257
#
# Stress axis : x y z
#
# Youngs Moduli (GPa) = 80.04585 80.04585 63.05332
#
# Poissons Ratio (x) = -0.02345 0.39233
# Poissons Ratio (y) = -0.02345 0.39233
# Poissons Ratio (z) = 0.49806 0.49806
#
# Static dielectric constant tensor:
#      x y z
#    x 1.873310 0.000000 0.000000 
#    y 0.000000 1.873310 0.000000 
#    z 0.000000 0.000000 1.752360 
# 
# From -- ./inp_files/7837.got.cif
#   From: 2010.05.17/outbox.cif.g08.bks.cpg/sg180_4_cif.got.tgz:7837.got - 2010.05.20 11:43:55.
