data_PCOD9584259
_publ_section_title
;
Structure prediction by ZEFSAII (Michael W. Deem and Ramdas Pophale) SiO2 
 PCOD9584259
Probable space group: P 64 2 2
;
_chemical_formula_sum "Si O2"
_cell_formula_units_Z 60
_cell_length_a 16.916885
_cell_length_b 16.916885
_cell_length_c 11.757591
_cell_angle_alpha 90.000000
_cell_angle_beta 90.000000
_cell_angle_gamma 120.000000
_cell_volume 2914.001523
_symmetry_space_group_name_H-M "P 64 2 2"
_symmetry_group_IT_number 181
_symmetry_cell_setting 'hexagonal'
loop_
_space_group_symop_operation_xyz
x,y,z
x-y,x,2/3+z
-y,x-y,1/3+z
-x,-y,z
-x+y,-x,2/3+z
y,-x+y,1/3+z
x-y,-y,-z
-x,-x+y,2/3-z
y,x,1/3-z
-y,-x,1/3-z
-x+y,y,-z
x,x-y,2/3-z
loop_
_atom_site_type_symbol
_atom_site_label
_atom_site_fract_x
_atom_site_fract_y
_atom_site_fract_z
Si Si1 0.045520 0.443266 0.572690
Si Si2 0.325013 0.801133 0.064203
Si Si3 0.355825 0.079857 0.090912
Si Si4 0.533803 0.892260 0.523416
Si Si5 0.810233 0.706233 0.118635
O O1 0.105646 0.499026 0.464820
O O2 0.109326 0.446324 0.675444
O O3 0.000000 0.500000 0.616556
O O4 0.968517 0.343766 0.531332
O O5 0.260914 0.739087 0.166667
O O6 0.380078 0.760156 0.000000
O O7 0.285833 0.839133 0.966745
O O8 0.290171 0.117913 0.123768
O O9 0.309209 0.000000 0.000000
O O10 0.425695 0.851389 0.500000
O O11 0.597691 0.865729 0.450801
O O12 0.582328 0.000000 0.500000
O O13 0.762469 0.762469 0.166667
O O14 0.865952 0.731904 0.000000
#
# Coordination Sequence:
#
# PCOD9584259 Si02
#       5
#    12  12  12  12  12
#     4  11  19  36  66  89 121 167 218 270 328 395
#     4  11  23  38  58  87 123 163 214 264 322 387
#     4  10  22  40  67  95 119 166 216 274 332 400
#     4  10  19  33  57  92 128 168 211 254 314 399
#     4  11  24  42  66  98 136 175 227 285 350 419
#
# _framework density 20.590243999999998
#
# number of rings (size 3 to 8) (size 9 to 14) (size 15 to 20)
#    0.000    1.400    4.000    3.600    0.000    1.600 
#    0.000    5.000    0.000    1.800    0.000    0.000 
#    0.000    0.000    0.000    0.000    0.000    0.000 
#
# Total GULP energy -334321.260081 kJ/mol
# GULP energy per Si atom -5572.021001 kJ/mol
# Density = 2.054338 g / cm^3
# Si number density = 20.590244 Si / 1000 Ang^3
#
#
#
# Elastic Constant Matrix: (Units=GPa)
#
#
# Indices 1 2 3 4 5 6 
#
# 1 90.8294 42.5849 41.0539 0.0000 0.0000 0.0000
# 2 42.5849 90.8294 41.0539 0.0000 0.0000 0.0000
# 3 41.0539 41.0539 124.4234 0.0000 0.0000 0.0000
# 4 0.0000 0.0000 0.0000 27.1802 0.0000 0.0000
# 5 0.0000 0.0000 0.0000 0.0000 27.1802 0.0000
# 6 0.0000 0.0000 0.0000 0.0000 0.0000 24.1223
#
#
#
# Elastic Compliance Matrix: (Units=1/GPa)
#
#
# Indices 1 2 3 4 5 6 
#
# 1 0.015067 -0.005661 -0.003103 0.000000 0.000000 0.000000
# 2 -0.005661 0.015067 -0.003103 0.000000 0.000000 0.000000
# 3 -0.003103 -0.003103 0.010085 0.000000 0.000000 0.000000
# 4 0.000000 0.000000 0.000000 0.036791 0.000000 0.000000
# 5 0.000000 0.000000 0.000000 0.000000 0.036791 0.000000
# 6 0.000000 0.000000 0.000000 0.000000 0.000000 0.041455
#
#
# Mechanical properties :
#
#
# Convention : Reuss Voigt Hill
#
# Bulk Modulus (GPa) = 60.67091 61.71864 61.19478
# Shear Modulus (GPa) = 27.10229 27.78917 27.44573
#
# Velocity S-wave (km/s) = 3.63198 3.67771 3.65492
# Velocity P-wave (km/s) = 6.86427 6.93353 6.89899
#
# Compressibility (1/GPa) = 0.01648236
#
# Stress axis : x y z
#
# Youngs Moduli (GPa) = 66.37225 66.37225 99.15734
#
# Poissons Ratio (x) = 0.37575 0.30772
# Poissons Ratio (y) = 0.37575 0.30772
# Poissons Ratio (z) = 0.20597 0.20597
#
# Static dielectric constant tensor:
#      x y z
#    x 1.820760 0.000000 0.000000 
#    y 0.000000 1.820760 0.000000 
#    z 0.000000 0.000000 1.884870 
# 
# From -- ./inp_files/4838.got.cif
#   From: 2010.05.17/outbox.cif.g08.bks.cpg/sg181_3_cif.got.tgz:4838.got - 2010.05.20 11:51:17.
