data_PCOD9584487
_publ_section_title
;
Structure prediction by ZEFSAII (Michael W. Deem and Ramdas Pophale) SiO2 
 PCOD9584487
Probable space group: P 64 2 2
;
_chemical_formula_sum "Si O2"
_cell_formula_units_Z 72
_cell_length_a 15.178131
_cell_length_b 15.178131
_cell_length_c 18.352239
_cell_angle_alpha 90.000000
_cell_angle_beta 90.000000
_cell_angle_gamma 120.000000
_cell_volume 3661.476758
_symmetry_space_group_name_H-M "P 64 2 2"
_symmetry_group_IT_number 181
_symmetry_cell_setting 'hexagonal'
loop_
_space_group_symop_operation_xyz
x,y,z
x-y,x,2/3+z
-y,x-y,1/3+z
-x,-y,z
-x+y,-x,2/3+z
y,-x+y,1/3+z
x-y,-y,-z
-x,-x+y,2/3-z
y,x,1/3-z
-y,-x,1/3-z
-x+y,y,-z
x,x-y,2/3-z
loop_
_atom_site_type_symbol
_atom_site_label
_atom_site_fract_x
_atom_site_fract_y
_atom_site_fract_z
Si Si1 0.460724 0.120722 0.521887
Si Si2 0.518590 0.214887 0.042035
Si Si3 0.707355 0.055665 0.214746
Si Si4 0.415579 0.605733 0.853620
Si Si5 0.907535 0.681902 0.383065
Si Si6 0.174162 0.426164 0.076694
O O1 0.574377 0.148754 0.500000
O O2 0.483061 0.187603 0.597244
O O3 0.413087 0.171505 0.470923
O O4 0.394398 0.000000 0.500000
O O5 0.533287 0.163725 0.115795
O O6 0.625651 0.251301 0.000000
O O7 0.427444 0.135558 0.990296
O O8 0.643025 0.113387 0.210031
O O9 0.735795 0.051964 0.130763
O O10 0.806766 0.118260 0.265285
O O11 0.639713 0.943993 0.243200
O O12 0.411079 0.705540 0.833334
O O13 0.339971 0.543267 0.918044
O O14 0.000000 0.763347 0.333334
O O15 0.200126 0.400252 0.000000
#
# Coordination Sequence:
#
# PCOD9584487 Si02
#       6
#    12  12  12  12  12  12
#     4  10  24  43  61  91 134 180 229 270 326 416
#     4  11  20  36  67  97 132 177 221 274 345 406
#     4  11  23  44  62  99 139 167 225 287 335 409
#     4  11  21  41  61  98 140 172 220 275 326 402
#     4  11  23  39  67 100 130 173 219 283 354 404
#     4  11  25  41  63  92 129 181 221 272 332 400
#
# _framework density 19.664197000000001
#
# number of rings (size 3 to 8) (size 9 to 14) (size 15 to 20)
#    0.000    1.167    3.333    4.500    2.333    5.667 
#    3.000    0.000    0.000    0.500    0.000    0.000 
#    0.000    0.000    0.000    0.000    0.000    0.000 
#
# Total GULP energy -401461.197764 kJ/mol
# GULP energy per Si atom -5575.849969 kJ/mol
# Density = 1.961944 g / cm^3
# Si number density = 19.664197 Si / 1000 Ang^3
#
#
#
# Elastic Constant Matrix: (Units=GPa)
#
#
# Indices 1 2 3 4 5 6 
#
# 1 117.5231 69.1271 45.4911 0.0000 0.0000 0.0000
# 2 69.1271 117.5231 45.4911 0.0000 0.0000 0.0000
# 3 45.4911 45.4911 78.8202 0.0000 0.0000 0.0000
# 4 0.0000 0.0000 0.0000 21.7958 0.0000 0.0000
# 5 0.0000 0.0000 0.0000 0.0000 21.7958 0.0000
# 6 0.0000 0.0000 0.0000 0.0000 0.0000 24.1980
#
#
#
# Elastic Compliance Matrix: (Units=1/GPa)
#
#
# Indices 1 2 3 4 5 6 
#
# 1 0.014059 -0.006604 -0.004303 0.000000 0.000000 0.000000
# 2 -0.006604 0.014059 -0.004303 0.000000 0.000000 0.000000
# 3 -0.004303 -0.004303 0.017654 0.000000 0.000000 0.000000
# 4 0.000000 0.000000 0.000000 0.045880 0.000000 0.000000
# 5 0.000000 0.000000 0.000000 0.000000 0.045880 0.000000
# 6 0.000000 0.000000 0.000000 0.000000 0.000000 0.041326
#
#
# Mechanical properties :
#
#
# Convention : Reuss Voigt Hill
#
# Bulk Modulus (GPa) = 65.13384 70.45389 67.79386
# Shear Modulus (GPa) = 23.32157 23.80841 23.56499
#
# Velocity S-wave (km/s) = 3.44756 3.48336 3.46550
# Velocity P-wave (km/s) = 7.00304 7.21697 7.11081
#
# Compressibility (1/GPa) = 0.01535300
#
# Stress axis : x y z
#
# Youngs Moduli (GPa) = 71.12940 71.12940 56.64569
#
# Poissons Ratio (x) = 0.46974 0.24372
# Poissons Ratio (y) = 0.46974 0.24372
# Poissons Ratio (z) = 0.30604 0.30604
#
# Static dielectric constant tensor:
#      x y z
#    x 1.690780 0.000000 0.000000 
#    y 0.000000 1.690780 0.000000 
#    z 0.000000 0.000000 1.746080 
# 
# From -- ./inp_files/7778.got.cif
#   From: 2010.05.17/outbox.cif.g08.bks.cpg/sg181_4_cif.got.tgz:7778.got - 2010.05.20 11:51:17.
