data_PCOD9584299
_publ_section_title
;
Structure prediction by ZEFSAII (Michael W. Deem and Ramdas Pophale) SiO2 
 PCOD9584299
Probable space group: P 64 2 2
;
_chemical_formula_sum "Si O2"
_cell_formula_units_Z 54
_cell_length_a 17.835802
_cell_length_b 17.835802
_cell_length_c 10.801518
_cell_angle_alpha 90.000000
_cell_angle_beta 90.000000
_cell_angle_gamma 120.000000
_cell_volume 2975.779245
_symmetry_space_group_name_H-M "P 64 2 2"
_symmetry_group_IT_number 181
_symmetry_cell_setting 'hexagonal'
loop_
_space_group_symop_operation_xyz
x,y,z
x-y,x,2/3+z
-y,x-y,1/3+z
-x,-y,z
-x+y,-x,2/3+z
y,-x+y,1/3+z
x-y,-y,-z
-x,-x+y,2/3-z
y,x,1/3-z
-y,-x,1/3-z
-x+y,y,-z
x,x-y,2/3-z
loop_
_atom_site_type_symbol
_atom_site_label
_atom_site_fract_x
_atom_site_fract_y
_atom_site_fract_z
Si Si1 0.567658 0.731330 0.490527
Si Si2 0.842617 0.421309 0.833334
Si Si3 0.213349 0.584766 0.571185
Si Si4 0.370251 0.901674 0.049262
Si Si5 0.388642 0.309149 0.249881
O O1 0.466581 0.668768 0.451751
O O2 0.571956 0.716111 0.635595
O O3 0.618693 0.699008 0.399380
O O4 0.603226 0.830510 0.460439
O O5 0.785177 0.421970 0.719166
O O6 0.903540 0.516025 0.887066
O O7 0.295219 0.590438 0.500000
O O8 0.129036 0.494670 0.522972
O O9 0.434093 0.868185 0.000000
O O10 0.416631 0.000000 0.000000
O O11 0.322228 0.322228 0.166667
#
# Coordination Sequence:
#
# PCOD9584299 Si02
#       5
#    12   6  12  12  12
#     4   9  20  35  49  74  97 136 179 214 269 323
#     4  10  21  32  48  78  98 130 184 220 268 328
#     4  10  20  34  54  73 105 138 178 231 276 318
#     4   9  18  33  52  68  97 136 171 211 264 325
#     4  10  20  33  50  70 101 133 169 224 268 315
#
# _framework density 18.146505999999999
#
# number of rings (size 3 to 8) (size 9 to 14) (size 15 to 20)
#    0.000    2.444    0.000    1.667    4.667    0.000 
#    8.000    0.000    0.000    0.000    0.000    0.000 
#    0.000    0.000    0.000   12.000    0.000    0.000 
#
# Total GULP energy -300761.261991 kJ/mol
# GULP energy per Si atom -5569.653000 kJ/mol
# Density = 1.810520 g / cm^3
# Si number density = 18.146506 Si / 1000 Ang^3
#
#
#
# Elastic Constant Matrix: (Units=GPa)
#
#
# Indices 1 2 3 4 5 6 
#
# 1 57.8508 26.7057 28.4330 0.0000 0.0000 0.0000
# 2 26.7057 57.8508 28.4330 0.0000 0.0000 0.0000
# 3 28.4330 28.4330 125.8941 0.0000 0.0000 0.0000
# 4 0.0000 0.0000 0.0000 19.3206 0.0000 0.0000
# 5 0.0000 0.0000 0.0000 0.0000 19.3206 0.0000
# 6 0.0000 0.0000 0.0000 0.0000 0.0000 15.5725
#
#
#
# Elastic Compliance Matrix: (Units=1/GPa)
#
#
# Indices 1 2 3 4 5 6 
#
# 1 0.023026 -0.009082 -0.003149 0.000000 0.000000 0.000000
# 2 -0.009082 0.023026 -0.003149 0.000000 0.000000 0.000000
# 3 -0.003149 -0.003149 0.009366 0.000000 0.000000 0.000000
# 4 0.000000 0.000000 0.000000 0.051758 0.000000 0.000000
# 5 0.000000 0.000000 0.000000 0.000000 0.051758 0.000000
# 6 0.000000 0.000000 0.000000 0.000000 0.000000 0.064216
#
#
# Mechanical properties :
#
#
# Convention : Reuss Voigt Hill
#
# Bulk Modulus (GPa) = 40.55608 45.41547 42.98577
# Shear Modulus (GPa) = 19.07454 21.37770 20.22612
#
# Velocity S-wave (km/s) = 3.24565 3.43601 3.34219
# Velocity P-wave (km/s) = 6.03684 6.38929 6.21556
#
# Compressibility (1/GPa) = 0.02465722
#
# Stress axis : x y z
#
# Youngs Moduli (GPa) = 43.42899 43.42899 106.77238
#
# Poissons Ratio (x) = 0.39441 0.33626
# Poissons Ratio (y) = 0.39441 0.33626
# Poissons Ratio (z) = 0.13677 0.13677
#
# Static dielectric constant tensor:
#      x y z
#    x 1.655730 0.000000 0.000000 
#    y 0.000000 1.655730 0.000000 
#    z 0.000000 0.000000 1.773080 
# 
# From -- ./inp_files/4689.got.cif
#   From: 2010.05.17/outbox.cif.g08.bks.cpg/sg181_3_cif.got.tgz:4689.got - 2010.05.20 11:51:17.
