data_PCOD9584100
_publ_section_title
;
Structure prediction by ZEFSAII (Michael W. Deem and Ramdas Pophale) SiO2 
 PCOD9584100
Probable space group: P 62 2 2
;
_chemical_formula_sum "Si O2"
_cell_formula_units_Z 36
_cell_length_a 20.349137
_cell_length_b 20.349137
_cell_length_c 5.117576
_cell_angle_alpha 90.000000
_cell_angle_beta 90.000000
_cell_angle_gamma 120.000000
_cell_volume 1835.214889
_symmetry_space_group_name_H-M "P 62 2 2"
_symmetry_group_IT_number 180
_symmetry_cell_setting 'hexagonal'
loop_
_space_group_symop_operation_xyz
x,y,z
x-y,x,1/3+z
-y,x-y,2/3+z
-x,-y,z
-x+y,-x,1/3+z
y,-x+y,2/3+z
x-y,-y,-z
-x,-x+y,1/3-z
y,x,2/3-z
-y,-x,2/3-z
-x+y,y,-z
x,x-y,1/3-z
loop_
_atom_site_type_symbol
_atom_site_label
_atom_site_fract_x
_atom_site_fract_y
_atom_site_fract_z
Si Si1 0.907158 0.529692 0.659274
Si Si2 0.092366 0.700287 0.165814
Si Si3 0.050763 0.809608 0.921457
O O1 0.884487 0.442244 0.666667
O O2 0.880248 0.544521 0.386005
O O3 0.000000 0.576542 0.666667
O O4 0.882355 0.567198 0.889174
O O5 0.000000 0.651270 0.166667
O O6 0.103386 0.778529 0.050285
O O7 0.105580 0.894421 0.833334
O O8 0.000000 0.762389 0.666667
O O9 0.000000 0.804533 0.166667
#
# Coordination Sequence:
#
# PCOD9584100 Si02
#       3
#    12  12  12
#     4   9  15  23  38  62  94 130 162 185 211 261
#     4   9  16  27  42  64  93 125 162 198 237 298
#     4  11  22  37  56  76  99 131 177 232 292 361
#
# _framework density 19.616230999999999
#
# number of rings (size 3 to 8) (size 9 to 14) (size 15 to 20)
#    0.000    2.333    0.000    7.000    0.000    4.000 
#    0.000    0.000    0.000    5.000    0.000    0.000 
#    0.000    0.000    0.000    6.000    0.000  117.000 
#
# Total GULP energy -200430.577260 kJ/mol
# GULP energy per Si atom -5567.516035 kJ/mol
# Density = 1.957158 g / cm^3
# Si number density = 19.616231 Si / 1000 Ang^3
#
#
#
# Elastic Constant Matrix: (Units=GPa)
#
#
# Indices 1 2 3 4 5 6 
#
# 1 37.8209 22.2568 25.0682 0.0000 0.0000 0.0000
# 2 22.2568 37.8209 25.0682 0.0000 0.0000 0.0000
# 3 25.0682 25.0682 130.1850 0.0000 0.0000 0.0000
# 4 0.0000 0.0000 0.0000 13.7863 0.0000 0.0000
# 5 0.0000 0.0000 0.0000 0.0000 13.7863 0.0000
# 6 0.0000 0.0000 0.0000 0.0000 0.0000 7.7820
#
#
#
# Elastic Compliance Matrix: (Units=1/GPa)
#
#
# Indices 1 2 3 4 5 6 
#
# 1 0.042041 -0.022209 -0.003819 0.000000 0.000000 0.000000
# 2 -0.022209 0.042041 -0.003819 0.000000 0.000000 0.000000
# 3 -0.003819 -0.003819 0.009152 0.000000 0.000000 0.000000
# 4 0.000000 0.000000 0.000000 0.072536 0.000000 0.000000
# 5 0.000000 0.000000 0.000000 0.000000 0.072536 0.000000
# 6 0.000000 0.000000 0.000000 0.000000 0.000000 0.128501
#
#
# Mechanical properties :
#
#
# Convention : Reuss Voigt Hill
#
# Bulk Modulus (GPa) = 29.81442 38.95700 34.38571
# Shear Modulus (GPa) = 11.42383 15.96649 13.69516
#
# Velocity S-wave (km/s) = 2.41584 2.85606 2.64513
# Velocity P-wave (km/s) = 4.79725 5.54787 5.18615
#
# Compressibility (1/GPa) = 0.03354082
#
# Stress axis : x y z
#
# Youngs Moduli (GPa) = 23.78613 23.78613 109.26502
#
# Poissons Ratio (x) = 0.52827 0.41726
# Poissons Ratio (y) = 0.52827 0.41726
# Poissons Ratio (z) = 0.09083 0.09083
#
# Static dielectric constant tensor:
#      x y z
#    x 1.744070 0.000000 0.000000 
#    y 0.000000 1.744070 0.000000 
#    z 0.000000 0.000000 1.714820 
# 
# From -- ./inp_files/637.got.cif
#   From: 2010.05.17/outbox.cif.g08.bks.cpg/sg180_1_cif.got.tgz:637.got - 2010.05.20 11:43:55.
