data_PCOD9584423
_publ_section_title
;
Structure prediction by ZEFSAII (Michael W. Deem and Ramdas Pophale) SiO2 
 PCOD9584423
Probable space group: P 64 2 2
;
_chemical_formula_sum "Si O2"
_cell_formula_units_Z 42
_cell_length_a 15.582226
_cell_length_b 15.582226
_cell_length_c 10.413089
_cell_angle_alpha 90.000000
_cell_angle_beta 90.000000
_cell_angle_gamma 120.000000
_cell_volume 2189.622312
_symmetry_space_group_name_H-M "P 64 2 2"
_symmetry_group_IT_number 181
_symmetry_cell_setting 'hexagonal'
loop_
_space_group_symop_operation_xyz
x,y,z
x-y,x,2/3+z
-y,x-y,1/3+z
-x,-y,z
-x+y,-x,2/3+z
y,-x+y,1/3+z
x-y,-y,-z
-x,-x+y,2/3-z
y,x,1/3-z
-y,-x,1/3-z
-x+y,y,-z
x,x-y,2/3-z
loop_
_atom_site_type_symbol
_atom_site_label
_atom_site_fract_x
_atom_site_fract_y
_atom_site_fract_z
Si Si1 0.555853 0.611622 0.913588
Si Si2 0.431882 0.568119 0.666667
Si Si3 0.247554 0.922829 0.612876
Si Si4 0.775174 0.484045 0.782572
O O1 0.500000 0.500000 0.971085
O O2 0.521097 0.599165 0.767044
O O3 0.670803 0.654333 0.944815
O O4 0.517289 0.676278 0.986767
O O5 0.334579 0.537795 0.752468
O O6 0.137291 0.862710 0.666667
O O7 0.267169 0.839056 0.549093
O O8 0.266231 0.000000 0.500000
O O9 0.767381 0.383691 0.833334
#
# Coordination Sequence:
#
# PCOD9584423 Si02
#       4
#    12   6  12  12
#     4  11  21  37  54  81 121 171 215 261 311 355
#     4  12  25  34  56  92 134 160 214 264 322 369
#     4  10  22  38  62  86 120 167 222 255 320 383
#     4  11  21  35  57  83 122 176 221 251 294 379
#
# _framework density 19.18139
#
# number of rings (size 3 to 8) (size 9 to 14) (size 15 to 20)
#    0.000    1.143    2.857    4.714    2.000    0.000 
#    0.000    0.000    0.000    0.000    0.000    0.000 
#    0.000   70.857    0.000    0.000    0.000    0.000 
#
# Total GULP energy -234749.483266 kJ/mol
# GULP energy per Si atom -5589.273411 kJ/mol
# Density = 1.913773 g / cm^3
# Si number density = 19.181390 Si / 1000 Ang^3
#
#
#
# Elastic Constant Matrix: (Units=GPa)
#
#
# Indices 1 2 3 4 5 6 
#
# 1 98.8139 42.5643 52.8987 0.0000 0.0000 0.0000
# 2 42.5643 98.8139 52.8987 0.0000 0.0000 0.0000
# 3 52.8987 52.8987 127.4169 0.0000 0.0000 0.0000
# 4 0.0000 0.0000 0.0000 17.3095 0.0000 0.0000
# 5 0.0000 0.0000 0.0000 0.0000 17.3095 0.0000
# 6 0.0000 0.0000 0.0000 0.0000 0.0000 28.1248
#
#
#
# Elastic Compliance Matrix: (Units=1/GPa)
#
#
# Indices 1 2 3 4 5 6 
#
# 1 0.014020 -0.003758 -0.004260 0.000000 0.000000 0.000000
# 2 -0.003758 0.014020 -0.004260 0.000000 0.000000 0.000000
# 3 -0.004260 -0.004260 0.011385 0.000000 0.000000 0.000000
# 4 0.000000 0.000000 0.000000 0.057772 0.000000 0.000000
# 5 0.000000 0.000000 0.000000 0.000000 0.057772 0.000000
# 6 0.000000 0.000000 0.000000 0.000000 0.000000 0.035556
#
#
# Mechanical properties :
#
#
# Convention : Reuss Voigt Hill
#
# Bulk Modulus (GPa) = 67.26039 69.08534 68.17287
# Shear Modulus (GPa) = 22.72348 24.32761 23.52554
#
# Velocity S-wave (km/s) = 3.44563 3.56517 3.50591
# Velocity P-wave (km/s) = 7.13942 7.28302 7.21158
#
# Compressibility (1/GPa) = 0.01486759
#
# Stress axis : x y z
#
# Youngs Moduli (GPa) = 71.32905 71.32905 87.83123
#
# Poissons Ratio (x) = 0.26808 0.37416
# Poissons Ratio (y) = 0.26808 0.37416
# Poissons Ratio (z) = 0.30386 0.30386
#
# Static dielectric constant tensor:
#      x y z
#    x 1.683900 0.000000 0.000000 
#    y 0.000000 1.683900 0.000000 
#    z 0.000000 0.000000 1.712190 
# 
# From -- ./inp_files/4154.got.cif
#   From: 2010.05.17/outbox.cif.g08.bks.cpg/sg181_3_cif.got.tgz:4154.got - 2010.05.20 11:51:17.
