data_PCOD9584910
_publ_section_title
;
Structure prediction by ZEFSAII (Michael W. Deem and Ramdas Pophale) SiO2 
 PCOD9584910
Probable space group: P 6 M M
;
_chemical_formula_sum "Si O2"
_cell_formula_units_Z 96
_cell_length_a 24.713619
_cell_length_b 24.713619
_cell_length_c 12.269925
_cell_angle_alpha 90.000000
_cell_angle_beta 90.000000
_cell_angle_gamma 120.000000
_cell_volume 6490.008026
_symmetry_space_group_name_H-M "P 6 M M"
_symmetry_group_IT_number 183
_symmetry_cell_setting 'hexagonal'
loop_
_space_group_symop_operation_xyz
x,y,z
x-y,x,z
-y,x-y,z
-x,-y,z
-x+y,-x,z
y,-x+y,z
-x+y,y,z
x,x-y,z
-y,-x,z
y,x,z
x-y,-y,z
-x,-x+y,z
loop_
_atom_site_type_symbol
_atom_site_label
_atom_site_fract_x
_atom_site_fract_y
_atom_site_fract_z
Si Si1 0.521881 0.598106 0.754830
Si Si2 0.924063 0.297849 0.368526
Si Si3 0.103001 0.329886 0.993243
Si Si4 0.626215 0.924063 0.617963
Si Si5 0.442857 0.367897 0.993243
Si Si6 0.923775 0.521881 0.231657
Si Si7 0.928319 0.194783 0.226932
Si Si8 0.071681 0.266462 0.759554
O O1 0.452665 0.547335 0.716948
O O2 0.561464 0.561464 0.754877
O O3 0.561512 0.658792 0.680770
O O4 0.520555 0.617607 0.879768
O O5 0.902373 0.285131 0.493245
O O6 0.902720 0.341209 0.305720
O O7 0.908780 0.236113 0.301603
O O8 0.000000 0.337906 0.369979
O O9 0.176577 0.353153 0.993243
O O10 0.089419 0.386469 0.993241
O O11 0.075569 0.289388 0.884140
O O12 0.075568 0.289390 0.102347
O O13 0.672668 0.908779 0.684885
O O14 0.662096 0.000000 0.616511
O O15 0.411633 0.411633 0.993244
O O16 0.479444 0.382392 0.106719
O O17 0.905330 0.452665 0.269538
O O18 0.000000 0.561464 0.231610
O O19 0.877737 0.122264 0.240943
O O20 0.000000 0.215976 0.252103
O O21 0.122262 0.244524 0.745542
O O22 0.000000 0.215975 0.734383
#
# Coordination Sequence:
#
# PCOD9584910 Si02
#       8
#    12  12  12  12  12  12  12  12
#     4   9  16  24  37  58  83 114 147 173 198 233
#     4   9  17  28  41  58  83 115 147 177 211 255
#     4  10  18  27  44  66  85 111 146 187 234 280
#     4   9  17  28  41  58  83 115 147 177 211 255
#     4  10  15  24  40  57  83 113 143 179 217 258
#     4   9  16  24  37  58  83 114 147 173 198 233
#     4  10  19  31  47  66  87 113 148 190 237 289
#     4  10  19  31  47  66  87 113 148 190 237 289
#
# _framework density 14.791969999999999
#
# number of rings (size 3 to 8) (size 9 to 14) (size 15 to 20)
#    0.000    2.500    2.500    1.500    0.000    2.500 
#    0.000    2.500    0.000    0.250    0.000    0.000 
#    0.000    3.000    0.000   16.750    0.000    8.250 
#
# Total GULP energy -534615.386940 kJ/mol
# GULP energy per Si atom -5568.910281 kJ/mol
# Density = 1.475830 g / cm^3
# Si number density = 14.791970 Si / 1000 Ang^3
#
#
#
# Elastic Constant Matrix: (Units=GPa)
#
#
# Indices 1 2 3 4 5 6 
#
# 1 61.9979 32.2576 29.1394 0.0000 0.0000 0.0000
# 2 32.2576 61.9979 29.1394 0.0000 0.0000 0.0000
# 3 29.1394 29.1394 103.1394 0.0000 0.0000 0.0000
# 4 0.0000 0.0000 0.0000 4.6426 0.0000 0.0000
# 5 0.0000 0.0000 0.0000 0.0000 4.6426 0.0000
# 6 0.0000 0.0000 0.0000 0.0000 0.0000 14.8702
#
#
#
# Elastic Compliance Matrix: (Units=1/GPa)
#
#
# Indices 1 2 3 4 5 6 
#
# 1 0.023240 -0.010385 -0.003632 0.000000 0.000000 0.000000
# 2 -0.010385 0.023240 -0.003632 0.000000 0.000000 0.000000
# 3 -0.003632 -0.003632 0.011748 0.000000 0.000000 0.000000
# 4 0.000000 0.000000 0.000000 0.215395 0.000000 0.000000
# 5 0.000000 0.000000 0.000000 0.000000 0.215395 0.000000
# 6 0.000000 0.000000 0.000000 0.000000 0.000000 0.067249
#
#
# Mechanical properties :
#
#
# Convention : Reuss Voigt Hill
#
# Bulk Modulus (GPa) = 43.61012 45.35644 44.48328
# Shear Modulus (GPa) = 8.34437 13.93768 11.14102
#
# Velocity S-wave (km/s) = 2.37769 3.07293 2.74739
# Velocity P-wave (km/s) = 6.08968 6.58179 6.34051
#
# Compressibility (1/GPa) = 0.02293046
#
# Stress axis : x y z
#
# Youngs Moduli (GPa) = 43.02977 43.02977 85.12231
#
# Poissons Ratio (x) = 0.44685 0.30915
# Poissons Ratio (y) = 0.44685 0.30915
# Poissons Ratio (z) = 0.15628 0.15628
#
# Static dielectric constant tensor:
#      x y z
#    x 1.477540 0.000000 0.000000 
#    y 0.000000 1.477540 0.000000 
#    z 0.000000 0.000000 1.512270 
# 
# From -- ./inp_files/2084.got.cif
#   From: 2010.05.17/outbox.cif.g08.bks.cpg/sg183_2_cif.got.tgz:2084.got - 2010.05.20 12:02:58.
