data_PCOD9584575
_publ_section_title
;
Structure prediction by ZEFSAII (Michael W. Deem and Ramdas Pophale) SiO2 
 PCOD9584575
Probable space group: P 64 2 2
;
_chemical_formula_sum "Si O2"
_cell_formula_units_Z 48
_cell_length_a 14.466841
_cell_length_b 14.466841
_cell_length_c 12.193872
_cell_angle_alpha 90.000000
_cell_angle_beta 90.000000
_cell_angle_gamma 120.000000
_cell_volume 2210.139468
_symmetry_space_group_name_H-M "P 64 2 2"
_symmetry_group_IT_number 181
_symmetry_cell_setting 'hexagonal'
loop_
_space_group_symop_operation_xyz
x,y,z
x-y,x,2/3+z
-y,x-y,1/3+z
-x,-y,z
-x+y,-x,2/3+z
y,-x+y,1/3+z
x-y,-y,-z
-x,-x+y,2/3-z
y,x,1/3-z
-y,-x,1/3-z
-x+y,y,-z
x,x-y,2/3-z
loop_
_atom_site_type_symbol
_atom_site_label
_atom_site_fract_x
_atom_site_fract_y
_atom_site_fract_z
Si Si1 0.877169 0.848639 0.793225
Si Si2 0.527776 0.257969 0.964157
Si Si3 0.215214 0.393820 0.834317
Si Si4 0.889875 0.502042 0.984271
O O1 0.865911 0.865911 0.666667
O O2 0.833675 0.731530 0.838495
O O3 0.000000 0.910625 0.833334
O O4 0.814726 0.907363 0.833334
O O5 0.513297 0.256649 0.833334
O O6 0.581979 0.379563 0.007221
O O7 0.609231 0.218461 0.000000
O O8 0.425186 0.194801 0.040192
O O9 0.325873 0.446125 0.902137
O O10 0.142184 0.437185 0.892385
O O11 0.000000 0.500000 0.969762
#
# Coordination Sequence:
#
# PCOD9584575 Si02
#       4
#    12  12  12  12
#     4  11  27  49  74 102 142 194 252 313 376 433
#     4  12  22  46  71 107 154 199 235 301 369 448
#     4  11  26  44  74 111 149 191 251 304 369 447
#     4  11  25  43  73 109 150 191 246 299 371 446
#
# _framework density 21.718086
#
# number of rings (size 3 to 8) (size 9 to 14) (size 15 to 20)
#    0.000    0.750    5.000    2.250   10.500    4.000 
#    0.000    1.250    0.000    0.000    0.000    0.000 
#    0.000    0.000    0.000    0.000    0.000    0.000 
#
# Total GULP energy -267908.388258 kJ/mol
# GULP energy per Si atom -5581.424755 kJ/mol
# Density = 2.166865 g / cm^3
# Si number density = 21.718086 Si / 1000 Ang^3
#
#
#
# Elastic Constant Matrix: (Units=GPa)
#
#
# Indices 1 2 3 4 5 6 
#
# 1 113.3343 56.8263 25.1872 0.0000 0.0000 0.0000
# 2 56.8263 113.3343 25.1872 0.0000 0.0000 0.0000
# 3 25.1872 25.1872 159.2928 0.0000 0.0000 0.0000
# 4 0.0000 0.0000 0.0000 -2.6930 0.0000 0.0000
# 5 0.0000 0.0000 0.0000 0.0000 -2.6930 0.0000
# 6 0.0000 0.0000 0.0000 0.0000 0.0000 28.2540
#
#
#
# Elastic Compliance Matrix: (Units=1/GPa)
#
#
# Indices 1 2 3 4 5 6 
#
# 1 0.011931 -0.005766 -0.000975 0.000000 0.000000 0.000000
# 2 -0.005766 0.011931 -0.000975 0.000000 0.000000 0.000000
# 3 -0.000975 -0.000975 0.006586 0.000000 0.000000 0.000000
# 4 0.000000 0.000000 0.000000 -0.371333 0.000000 0.000000
# 5 0.000000 0.000000 0.000000 0.000000 -0.371333 0.000000
# 6 0.000000 0.000000 0.000000 0.000000 0.000000 0.035393
#
#
# Mechanical properties :
#
#
# Convention : Reuss Voigt Hill
#
# Bulk Modulus (GPa) = 66.58951 66.70695 66.64823
# Shear Modulus (GPa) = -7.61744 23.15765 7.77011
#
# Velocity S-wave (km/s) = -1.87484 3.26894 1.89354
# Velocity P-wave (km/s) = 5.10301 6.71041 5.96114
#
# Compressibility (1/GPa) = 0.01501738
#
# Stress axis : x y z
#
# Youngs Moduli (GPa) = 83.81523 83.81523 151.83639
#
# Poissons Ratio (x) = 0.48325 0.14802
# Poissons Ratio (y) = 0.48325 0.14802
# Poissons Ratio (z) = 0.08171 0.08171
#
# Static dielectric constant tensor:
#      x y z
#    x 1.876070 0.000000 0.000000 
#    y 0.000000 1.876070 0.000000 
#    z 0.000000 0.000000 1.761570 
# 
# From -- ./inp_files/4367.got.cif
#   From: 2010.05.17/outbox.cif.g08.bks.cpg/sg181_3_cif.got.tgz:4367.got - 2010.05.20 11:51:17.
