data_PCOD9584222
_publ_section_title
;
Structure prediction by ZEFSAII (Michael W. Deem and Ramdas Pophale) SiO2 
 PCOD9584222
Probable space group: P 64 2 2
;
_chemical_formula_sum "Si O2"
_cell_formula_units_Z 60
_cell_length_a 28.607641
_cell_length_b 28.607641
_cell_length_c 5.072496
_cell_angle_alpha 90.000000
_cell_angle_beta 90.000000
_cell_angle_gamma 120.000000
_cell_volume 3595.145233
_symmetry_space_group_name_H-M "P 64 2 2"
_symmetry_group_IT_number 181
_symmetry_cell_setting 'hexagonal'
loop_
_space_group_symop_operation_xyz
x,y,z
x-y,x,2/3+z
-y,x-y,1/3+z
-x,-y,z
-x+y,-x,2/3+z
y,-x+y,1/3+z
x-y,-y,-z
-x,-x+y,2/3-z
y,x,1/3-z
-y,-x,1/3-z
-x+y,y,-z
x,x-y,2/3-z
loop_
_atom_site_type_symbol
_atom_site_label
_atom_site_fract_x
_atom_site_fract_y
_atom_site_fract_z
Si Si1 0.749266 0.711962 0.406091
Si Si2 0.742602 0.143764 0.169688
Si Si3 0.426230 0.680382 0.580971
Si Si4 0.466109 0.289530 0.340834
Si Si5 0.963232 0.143391 0.077264
O O1 0.729209 0.729209 0.666667
O O2 0.746683 0.655231 0.433218
O O3 0.811286 0.758164 0.346970
O O4 0.714030 0.714030 0.166667
O O5 0.802214 0.197787 0.166667
O O6 0.706067 0.152989 0.384391
O O7 0.717215 0.138873 0.883558
O O8 0.375260 0.624741 0.666667
O O9 0.410498 0.705249 0.333334
O O10 0.474938 0.673022 0.465780
O O11 0.442915 0.721458 0.833334
O O12 0.465087 0.232544 0.333334
O O13 0.912343 0.087658 0.166667
O O14 0.000000 0.164218 0.333334
O O15 0.000000 0.144232 0.833334
#
# Coordination Sequence:
#
# PCOD9584222 Si02
#       5
#    12  12  12  12  12
#     4  10  20  32  48  73 100 124 156 196 236 290
#     4  10  18  31  49  67  94 130 159 188 235 287
#     4  11  20  31  46  68  99 134 171 204 238 275
#     4   9  18  30  45  66  92 126 164 198 230 277
#     4  10  20  34  52  73  98 127 160 197 237 281
#
# _framework density 16.689174000000001
#
# number of rings (size 3 to 8) (size 9 to 14) (size 15 to 20)
#    0.000    2.000    0.000    6.600    0.000    0.000 
#    0.000    6.000    0.000    3.000    0.000    0.000 
#    0.000   12.000    0.000    0.000    0.000    0.000 
#
# Total GULP energy -334368.434624 kJ/mol
# GULP energy per Si atom -5572.807244 kJ/mol
# Density = 1.665119 g / cm^3
# Si number density = 16.689174 Si / 1000 Ang^3
#
#
#
# Elastic Constant Matrix: (Units=GPa)
#
#
# Indices 1 2 3 4 5 6 
#
# 1 81.8303 35.0542 24.1780 0.0000 0.0000 0.0000
# 2 35.0542 81.8303 24.1780 0.0000 0.0000 0.0000
# 3 24.1780 24.1780 103.4449 0.0000 0.0000 0.0000
# 4 0.0000 0.0000 0.0000 27.8315 0.0000 0.0000
# 5 0.0000 0.0000 0.0000 0.0000 27.8315 0.0000
# 6 0.0000 0.0000 0.0000 0.0000 0.0000 23.3880
#
#
#
# Elastic Compliance Matrix: (Units=1/GPa)
#
#
# Indices 1 2 3 4 5 6 
#
# 1 0.015425 -0.005954 -0.002214 0.000000 0.000000 0.000000
# 2 -0.005954 0.015425 -0.002214 0.000000 0.000000 0.000000
# 3 -0.002214 -0.002214 0.010702 0.000000 0.000000 0.000000
# 4 0.000000 0.000000 0.000000 0.035931 0.000000 0.000000
# 5 0.000000 0.000000 0.000000 0.000000 0.035931 0.000000
# 6 0.000000 0.000000 0.000000 0.000000 0.000000 0.042757
#
#
# Mechanical properties :
#
#
# Convention : Reuss Voigt Hill
#
# Bulk Modulus (GPa) = 48.10115 48.21401 48.15758
# Shear Modulus (GPa) = 27.19440 28.05654 27.62547
#
# Velocity S-wave (km/s) = 4.04104 4.10460 4.07294
# Velocity P-wave (km/s) = 7.11742 7.17048 7.14400
#
# Compressibility (1/GPa) = 0.02078952
#
# Stress axis : x y z
#
# Youngs Moduli (GPa) = 64.83035 64.83035 93.44227
#
# Poissons Ratio (x) = 0.38597 0.20685
# Poissons Ratio (y) = 0.38597 0.20685
# Poissons Ratio (z) = 0.14352 0.14352
#
# Static dielectric constant tensor:
#      x y z
#    x 1.562270 0.000000 0.000000 
#    y 0.000000 1.562270 0.000000 
#    z 0.000000 0.000000 1.596330 
# 
# From -- ./inp_files/1466.got.cif
#   From: 2010.05.17/outbox.cif.g08.bks.cpg/sg181_1_cif.got.tgz:1466.got - 2010.05.20 11:51:17.
