data_PCOD9584983
_publ_section_title
;
Structure prediction by ZEFSAII (Michael W. Deem and Ramdas Pophale) SiO2 
 PCOD9584983
Probable space group: P 6 M M
;
_chemical_formula_sum "Si O2"
_cell_formula_units_Z 96
_cell_length_a 22.335242
_cell_length_b 22.335242
_cell_length_c 14.607821
_cell_angle_alpha 90.000000
_cell_angle_beta 90.000000
_cell_angle_gamma 120.000000
_cell_volume 6310.988589
_symmetry_space_group_name_H-M "P 6 M M"
_symmetry_group_IT_number 183
_symmetry_cell_setting 'hexagonal'
loop_
_space_group_symop_operation_xyz
x,y,z
x-y,x,z
-y,x-y,z
-x,-y,z
-x+y,-x,z
y,-x+y,z
-x+y,y,z
x,x-y,z
-y,-x,z
y,x,z
x-y,-y,z
-x,-x+y,z
loop_
_atom_site_type_symbol
_atom_site_label
_atom_site_fract_x
_atom_site_fract_y
_atom_site_fract_z
Si Si1 0.719009 0.143805 0.429400
Si Si2 0.526050 0.609007 0.272456
Si Si3 0.920019 0.700106 0.570120
Si Si4 0.920710 0.707676 0.782041
Si Si5 0.145354 0.430208 0.897547
Si Si6 0.389363 0.921254 0.738207
Si Si7 0.388518 0.916831 0.059811
Si Si8 0.526196 0.194055 0.591237
O O1 0.793021 0.206980 0.400484
O O2 0.671178 0.107852 0.343011
O O3 0.735620 0.097299 0.498808
O O4 0.681534 0.175710 0.490350
O O5 0.446360 0.553641 0.296929
O O6 0.566216 0.566216 0.275405
O O7 0.528045 0.629687 0.166467
O O8 0.860243 0.720486 0.555679
O O9 0.912578 0.678257 0.677824
O O10 0.000000 0.759212 0.558302
O O11 0.868434 0.736867 0.787269
O O12 0.896279 0.647850 0.857668
O O13 0.000000 0.763121 0.794713
O O14 0.225505 0.451010 0.896175
O O15 0.122084 0.468493 0.825130
O O16 0.121107 0.443694 0.994596
O O17 0.463846 0.927691 0.741583
O O18 0.351776 0.873382 0.651554
O O19 0.403794 0.000000 0.736441
O O20 0.450590 0.901180 0.036669
O O21 0.423257 0.000000 0.049464
O O22 0.603816 0.207632 0.595122
O O23 0.522281 0.261141 0.622898
#
# Coordination Sequence:
#
# PCOD9584983 Si02
#       8
#    12  12  12  12  12  12  12  12
#     4  10  19  29  44  66  91 119 150 183 221 267
#     4   9  18  32  49  67  85 109 144 185 227 265
#     4   9  17  29  45  66  93 124 154 186 227 272
#     4   9  17  28  43  64  90 118 146 176 211 254
#     4  11  20  29  45  67  89 114 142 173 215 265
#     4  10  20  32  47  67  89 114 146 184 222 259
#     4   9  18  33  51  67  84 110 145 184 224 264
#     4  10  20  33  47  65  91 122 154 186 224 270
#
# _framework density 15.211562000000001
#
# number of rings (size 3 to 8) (size 9 to 14) (size 15 to 20)
#    0.000    2.375    0.000    4.250    0.000    5.500 
#    0.000    1.250    0.000    3.250    0.000    1.750 
#    0.000    0.000    0.000    0.000    0.000    0.000 
#
# Total GULP energy -534758.501117 kJ/mol
# GULP energy per Si atom -5570.401053 kJ/mol
# Density = 1.517694 g / cm^3
# Si number density = 15.211562 Si / 1000 Ang^3
#
#
#
# Elastic Constant Matrix: (Units=GPa)
#
#
# Indices 1 2 3 4 5 6 
#
# 1 88.9346 47.5226 48.8876 0.0000 0.0000 0.0000
# 2 47.5226 88.9346 48.8876 0.0000 0.0000 0.0000
# 3 48.8876 48.8876 83.1364 0.0000 0.0000 0.0000
# 4 0.0000 0.0000 0.0000 22.3111 0.0000 0.0000
# 5 0.0000 0.0000 0.0000 0.0000 22.3111 0.0000
# 6 0.0000 0.0000 0.0000 0.0000 0.0000 20.7060
#
#
#
# Elastic Compliance Matrix: (Units=1/GPa)
#
#
# Indices 1 2 3 4 5 6 
#
# 1 0.018406 -0.005742 -0.007447 0.000000 0.000000 0.000000
# 2 -0.005742 0.018406 -0.007447 0.000000 0.000000 0.000000
# 3 -0.007447 -0.007447 0.020787 0.000000 0.000000 0.000000
# 4 0.000000 0.000000 0.000000 0.044821 0.000000 0.000000
# 5 0.000000 0.000000 0.000000 0.000000 0.044821 0.000000
# 6 0.000000 0.000000 0.000000 0.000000 0.000000 0.048295
#
#
# Mechanical properties :
#
#
# Convention : Reuss Voigt Hill
#
# Bulk Modulus (GPa) = 61.24826 61.28901 61.26863
# Shear Modulus (GPa) = 20.63985 20.77949 20.70967
#
# Velocity S-wave (km/s) = 3.68754 3.70000 3.69378
# Velocity P-wave (km/s) = 7.64737 7.65714 7.65226
#
# Compressibility (1/GPa) = 0.01632699
#
# Stress axis : x y z
#
# Youngs Moduli (GPa) = 54.33015 54.33015 48.10721
#
# Poissons Ratio (x) = 0.31194 0.35826
# Poissons Ratio (y) = 0.31194 0.35826
# Poissons Ratio (z) = 0.40461 0.40461
#
# Static dielectric constant tensor:
#      x y z
#    x 1.510390 0.000000 0.000000 
#    y 0.000000 1.510390 0.000000 
#    z 0.000000 0.000000 1.510720 
# 
# From -- ./inp_files/1999.got.cif
#   From: 2010.05.17/outbox.cif.g08.bks.cpg/sg183_1_cif.got.tgz:1999.got - 2010.05.20 12:02:58.
