data_PCOD9584468
_publ_section_title
;
Structure prediction by ZEFSAII (Michael W. Deem and Ramdas Pophale) SiO2 
 PCOD9584468
Probable space group: P 64 2 2
;
_chemical_formula_sum "Si O2"
_cell_formula_units_Z 51
_cell_length_a 13.277864
_cell_length_b 13.277864
_cell_length_c 17.479601
_cell_angle_alpha 90.000000
_cell_angle_beta 90.000000
_cell_angle_gamma 120.000000
_cell_volume 2668.815668
_symmetry_space_group_name_H-M "P 64 2 2"
_symmetry_group_IT_number 181
_symmetry_cell_setting 'hexagonal'
loop_
_space_group_symop_operation_xyz
x,y,z
x-y,x,2/3+z
-y,x-y,1/3+z
-x,-y,z
-x+y,-x,2/3+z
y,-x+y,1/3+z
x-y,-y,-z
-x,-x+y,2/3-z
y,x,1/3-z
-y,-x,1/3-z
-x+y,y,-z
x,x-y,2/3-z
loop_
_atom_site_type_symbol
_atom_site_label
_atom_site_fract_x
_atom_site_fract_y
_atom_site_fract_z
Si Si1 0.649318 0.350683 0.166667
Si Si2 0.142978 0.276183 0.688577
Si Si3 0.873901 0.126100 0.666667
Si Si4 0.275868 0.478339 0.583458
Si Si5 0.000000 0.500000 0.333334
Si Si6 0.242455 0.866498 0.511170
O O1 0.699655 0.312418 0.238816
O O2 0.511676 0.290791 0.168837
O O3 0.225767 0.225767 0.666667
O O4 0.183805 0.398580 0.646477
O O5 0.151014 0.302340 0.778233
O O6 0.012687 0.185798 0.663363
O O7 0.818902 0.150012 0.592270
O O8 0.214835 0.429669 0.500000
O O9 0.392579 0.477305 0.610688
O O10 0.344364 0.000000 0.500000
#
# Coordination Sequence:
#
# PCOD9584468 Si02
#       6
#     6  12   6  12   3  12
#     4  10  23  42  64  98 127 168 216 256 332 400
#     4  11  23  41  65  92 128 165 213 277 335 388
#     4  10  25  41  64  92 123 173 222 260 320 412
#     4  10  25  37  67  96 124 170 216 267 343 395
#     4  12  20  46  64  90 142 172 210 300 334 398
#     4  10  23  43  64  91 130 173 213 266 328 397
#
# _framework density 19.1096
#
# number of rings (size 3 to 8) (size 9 to 14) (size 15 to 20)
#    0.706    0.941    1.176    2.118    3.294    2.824 
#    0.000    5.882    0.000    0.000    0.000    0.000 
#    0.000    0.000    0.000    0.000    0.000    0.000 
#
# Total GULP energy -284284.885261 kJ/mol
# GULP energy per Si atom -5574.213436 kJ/mol
# Density = 1.906611 g / cm^3
# Si number density = 19.109600 Si / 1000 Ang^3
#
#
#
# Elastic Constant Matrix: (Units=GPa)
#
#
# Indices 1 2 3 4 5 6 
#
# 1 109.3291 76.4437 42.4867 0.0000 0.0000 0.0000
# 2 76.4437 109.3291 42.4867 0.0000 0.0000 0.0000
# 3 42.4867 42.4867 114.0687 0.0000 0.0000 0.0000
# 4 0.0000 0.0000 0.0000 22.7909 0.0000 0.0000
# 5 0.0000 0.0000 0.0000 0.0000 22.7909 0.0000
# 6 0.0000 0.0000 0.0000 0.0000 0.0000 16.4427
#
#
#
# Elastic Compliance Matrix: (Units=1/GPa)
#
#
# Indices 1 2 3 4 5 6 
#
# 1 0.018448 -0.011960 -0.002417 0.000000 0.000000 0.000000
# 2 -0.011960 0.018448 -0.002417 0.000000 0.000000 0.000000
# 3 -0.002417 -0.002417 0.010567 0.000000 0.000000 0.000000
# 4 0.000000 0.000000 0.000000 0.043877 0.000000 0.000000
# 5 0.000000 0.000000 0.000000 0.000000 0.043877 0.000000
# 6 0.000000 0.000000 0.000000 0.000000 0.000000 0.060817
#
#
# Mechanical properties :
#
#
# Convention : Reuss Voigt Hill
#
# Bulk Modulus (GPa) = 72.06253 72.84012 72.45132
# Shear Modulus (GPa) = 21.34487 23.82554 22.58521
#
# Velocity S-wave (km/s) = 3.34574 3.53481 3.44157
# Velocity P-wave (km/s) = 7.26067 7.40673 7.33406
#
# Compressibility (1/GPa) = 0.01387684
#
# Stress axis : x y z
#
# Youngs Moduli (GPa) = 54.20498 54.20498 94.63505
#
# Poissons Ratio (x) = 0.64830 0.22870
# Poissons Ratio (y) = 0.64830 0.22870
# Poissons Ratio (z) = 0.13100 0.13100
#
# Static dielectric constant tensor:
#      x y z
#    x 1.659430 0.000000 0.000000 
#    y 0.000000 1.659430 0.000000 
#    z 0.000000 0.000000 1.683350 
# 
# From -- ./inp_files/6040.got.cif
#   From: 2010.05.17/outbox.cif.g08.bks.cpg/sg181_4_cif.got.tgz:6040.got - 2010.05.20 11:51:17.
