data_PCOD9584025
_publ_section_title
;
Structure prediction by ZEFSAII (Michael W. Deem and Ramdas Pophale) SiO2 
 PCOD9584025
Probable space group: P 62 2 2
;
_chemical_formula_sum "Si O2"
_cell_formula_units_Z 48
_cell_length_a 14.466601
_cell_length_b 14.466601
_cell_length_c 10.805054
_cell_angle_alpha 90.000000
_cell_angle_beta 90.000000
_cell_angle_gamma 120.000000
_cell_volume 1958.351208
_symmetry_space_group_name_H-M "P 62 2 2"
_symmetry_group_IT_number 180
_symmetry_cell_setting 'hexagonal'
loop_
_space_group_symop_operation_xyz
x,y,z
x-y,x,1/3+z
-y,x-y,2/3+z
-x,-y,z
-x+y,-x,1/3+z
y,-x+y,2/3+z
x-y,-y,-z
-x,-x+y,1/3-z
y,x,2/3-z
-y,-x,2/3-z
-x+y,y,-z
x,x-y,1/3-z
loop_
_atom_site_type_symbol
_atom_site_label
_atom_site_fract_x
_atom_site_fract_y
_atom_site_fract_z
Si Si1 0.312649 0.156325 0.166667
Si Si2 0.500000 0.000000 0.308421
Si Si3 0.206464 0.627837 0.528724
Si Si4 0.726228 0.135581 0.577656
Si Si5 0.183908 0.183908 0.833334
Si Si6 0.851984 0.851984 0.333334
O O1 0.377143 0.158196 0.286164
O O2 0.231985 0.192215 0.221307
O O3 0.422707 0.896376 0.225978
O O4 0.560725 0.953933 0.388724
O O5 0.301155 0.602309 0.500000
O O6 0.168289 0.584145 0.666667
O O7 0.261977 0.755777 0.527393
O O8 0.790129 0.096230 0.490023
O O9 0.140020 0.098724 0.944487
#
# Coordination Sequence:
#
# PCOD9584025 Si02
#       6
#     6   6  12  12   6   6
#     4  10  24  45  70 102 154 191 272 316 390 484
#     4  12  27  47  82 108 164 206 253 339 418 482
#     4  12  26  50  77 116 157 204 269 332 406 506
#     4  11  26  46  73 116 151 207 260 326 406 486
#     4  10  26  46  76 104 156 202 268 323 399 478
#     4  10  24  47  70 107 144 208 260 331 378 468
#
# _framework density 24.510414999999998
#
# number of rings (size 3 to 8) (size 9 to 14) (size 15 to 20)
#    0.000    1.000    2.500    1.875   10.500    5.500 
#    0.000    0.000    0.000    0.000    0.000    0.000 
#    0.000    0.000    0.000    0.000    0.000    0.000 
#
# Total GULP energy -268414.858969 kJ/mol
# GULP energy per Si atom -5591.976229 kJ/mol
# Density = 2.445463 g / cm^3
# Si number density = 24.510415 Si / 1000 Ang^3
#
#
#
# Elastic Constant Matrix: (Units=GPa)
#
#
# Indices 1 2 3 4 5 6 
#
# 1 178.3970 79.0269 57.6041 0.0000 0.0000 0.0000
# 2 79.0269 178.3970 57.6041 0.0000 0.0000 0.0000
# 3 57.6041 57.6041 96.0938 0.0000 0.0000 0.0000
# 4 0.0000 0.0000 0.0000 35.5423 0.0000 0.0000
# 5 0.0000 0.0000 0.0000 0.0000 35.5423 0.0000
# 6 0.0000 0.0000 0.0000 0.0000 0.0000 49.6850
#
#
#
# Elastic Compliance Matrix: (Units=1/GPa)
#
#
# Indices 1 2 3 4 5 6 
#
# 1 0.007686 -0.002377 -0.003182 0.000000 0.000000 0.000000
# 2 -0.002377 0.007686 -0.003182 0.000000 0.000000 0.000000
# 3 -0.003182 -0.003182 0.014222 0.000000 0.000000 0.000000
# 4 0.000000 0.000000 0.000000 0.028135 0.000000 0.000000
# 5 0.000000 0.000000 0.000000 0.000000 0.028135 0.000000
# 6 0.000000 0.000000 0.000000 0.000000 0.000000 0.020127
#
#
# Mechanical properties :
#
#
# Convention : Reuss Voigt Hill
#
# Bulk Modulus (GPa) = 82.57655 93.48421 88.03038
# Shear Modulus (GPa) = 39.21167 41.39745 40.30456
#
# Velocity S-wave (km/s) = 4.00408 4.11417 4.05950
# Velocity P-wave (km/s) = 7.42566 7.79692 7.61355
#
# Compressibility (1/GPa) = 0.01210998
#
# Stress axis : x y z
#
# Youngs Moduli (GPa) = 130.10389 130.10389 70.31357
#
# Poissons Ratio (x) = 0.30929 0.22377
# Poissons Ratio (y) = 0.30929 0.22377
# Poissons Ratio (z) = 0.41405 0.41405
#
# Static dielectric constant tensor:
#      x y z
#    x 1.985100 0.000000 0.000000 
#    y 0.000000 1.985100 0.000000 
#    z 0.000000 0.000000 1.958060 
# 
# From -- ./inp_files/4534.got.cif
#   From: 2010.05.17/outbox.cif.g08.bks.cpg/sg180_3_cif.got.tgz:4534.got - 2010.05.20 11:43:55.
