data_PCOD9584369
_publ_section_title
;
Structure prediction by ZEFSAII (Michael W. Deem and Ramdas Pophale) SiO2 
 PCOD9584369
Probable space group: P 64 2 2
;
_chemical_formula_sum "Si O2"
_cell_formula_units_Z 96
_cell_length_a 15.374723
_cell_length_b 15.374723
_cell_length_c 24.177658
_cell_angle_alpha 90.000000
_cell_angle_beta 90.000000
_cell_angle_gamma 120.000000
_cell_volume 4949.478725
_symmetry_space_group_name_H-M "P 64 2 2"
_symmetry_group_IT_number 181
_symmetry_cell_setting 'hexagonal'
loop_
_space_group_symop_operation_xyz
x,y,z
x-y,x,2/3+z
-y,x-y,1/3+z
-x,-y,z
-x+y,-x,2/3+z
y,-x+y,1/3+z
x-y,-y,-z
-x,-x+y,2/3-z
y,x,1/3-z
-y,-x,1/3-z
-x+y,y,-z
x,x-y,2/3-z
loop_
_atom_site_type_symbol
_atom_site_label
_atom_site_fract_x
_atom_site_fract_y
_atom_site_fract_z
Si Si1 0.140564 0.302982 0.933528
Si Si2 0.998971 0.746761 0.396453
Si Si3 0.067860 0.790360 0.068624
Si Si4 0.375804 0.840219 0.822464
Si Si5 0.772493 0.083538 0.394862
Si Si6 0.943340 0.341197 0.167007
Si Si7 0.180502 0.658925 0.880328
Si Si8 0.468445 0.722445 0.269375
O O1 0.199877 0.247235 0.915488
O O2 0.186692 0.417468 0.913296
O O3 0.024082 0.245725 0.920041
O O4 0.153009 0.306017 0.000000
O O5 0.911087 0.775392 0.399432
O O6 0.964881 0.662933 0.443064
O O7 0.000000 0.712438 0.333334
O O8 0.112435 0.833718 0.406844
O O9 0.099036 0.739561 0.117208
O O10 0.076547 0.756349 0.005809
O O11 0.484785 0.870014 0.844570
O O12 0.282398 0.756645 0.858052
O O13 0.357616 0.786977 0.763010
O O14 0.378996 0.946244 0.816236
O O15 0.697912 0.110177 0.427799
O O16 0.142391 0.571196 0.833334
O O17 0.210946 0.605024 0.926645
O O18 0.478466 0.739233 0.333334
#
# Coordination Sequence:
#
# PCOD9584369 Si02
#       8
#    12  12  12  12  12  12  12  12
#     4   9  19  38  60  91 123 161 200 254 312 364
#     4  10  22  40  63  94 126 160 206 264 315 382
#     4  10  21  37  66  95 121 162 213 257 317 380
#     4  10  22  40  62  87 124 165 204 257 312 375
#     4  10  21  40  63  89 134 163 206 260 315 374
#     4  11  21  40  65  90 121 164 212 258 317 375
#     4  10  22  41  59  87 126 167 207 247 318 377
#     4  10  21  38  60  89 126 156 211 262 302 367
#
# _framework density 19.395983000000001
#
# number of rings (size 3 to 8) (size 9 to 14) (size 15 to 20)
#    0.000    2.000    2.500    0.375    1.750    4.000 
#    2.250   11.250    0.000    1.500    0.000    0.000 
#    0.000    0.000    0.000    0.000    0.000    0.000 
#
# Total GULP energy -535066.126568 kJ/mol
# GULP energy per Si atom -5573.605485 kJ/mol
# Density = 1.935184 g / cm^3
# Si number density = 19.395983 Si / 1000 Ang^3
#
#
#
# Elastic Constant Matrix: (Units=GPa)
#
#
# Indices 1 2 3 4 5 6 
#
# 1 85.4737 61.1865 40.8476 0.0000 0.0000 0.0000
# 2 61.1865 85.4737 40.8476 0.0000 0.0000 0.0000
# 3 40.8476 40.8476 67.9063 0.0000 0.0000 0.0000
# 4 0.0000 0.0000 0.0000 29.2143 0.0000 0.0000
# 5 0.0000 0.0000 0.0000 0.0000 29.2143 0.0000
# 6 0.0000 0.0000 0.0000 0.0000 0.0000 12.1436
#
#
#
# Elastic Compliance Matrix: (Units=1/GPa)
#
#
# Indices 1 2 3 4 5 6 
#
# 1 0.025714 -0.015460 -0.006168 0.000000 0.000000 0.000000
# 2 -0.015460 0.025714 -0.006168 0.000000 0.000000 0.000000
# 3 -0.006168 -0.006168 0.022147 0.000000 0.000000 0.000000
# 4 0.000000 0.000000 0.000000 0.034230 0.000000 0.000000
# 5 0.000000 0.000000 0.000000 0.000000 0.034230 0.000000
# 6 0.000000 0.000000 0.000000 0.000000 0.000000 0.082348
#
#
# Mechanical properties :
#
#
# Convention : Reuss Voigt Hill
#
# Bulk Modulus (GPa) = 55.60937 58.29078 56.95008
# Shear Modulus (GPa) = 17.48438 20.51260 18.99849
#
# Velocity S-wave (km/s) = 3.00566 3.25556 3.13310
# Velocity P-wave (km/s) = 6.38578 6.65205 6.52027
#
# Compressibility (1/GPa) = 0.01798258
#
# Stress axis : x y z
#
# Youngs Moduli (GPa) = 38.88910 38.88910 45.15273
#
# Poissons Ratio (x) = 0.60121 0.27852
# Poissons Ratio (y) = 0.60121 0.27852
# Poissons Ratio (z) = 0.23988 0.23988
#
# Static dielectric constant tensor:
#      x y z
#    x 1.693510 0.000000 0.000000 
#    y 0.000000 1.693510 0.000000 
#    z 0.000000 0.000000 1.706220 
# 
# From -- ./inp_files/11391.got.cif
#   From: 2010.05.17/outbox.cif.g08.bks.cpg/sg181_6_cif.got.tgz:11391.got - 2010.05.20 11:51:17.
