data_PCOD9584635
_publ_section_title
;
Structure prediction by ZEFSAII (Michael W. Deem and Ramdas Pophale) SiO2 
 PCOD9584635
Probable space group: P 63 2 2
;
_chemical_formula_sum "Si O2"
_cell_formula_units_Z 42
_cell_length_a 9.743748
_cell_length_b 9.743748
_cell_length_c 26.887537
_cell_angle_alpha 90.000000
_cell_angle_beta 90.000000
_cell_angle_gamma 120.000000
_cell_volume 2210.719996
_symmetry_space_group_name_H-M "P 63 2 2"
_symmetry_group_IT_number 182
_symmetry_cell_setting 'hexagonal'
loop_
_space_group_symop_operation_xyz
x,y,z
x-y,x,1/2+z
-y,x-y,z
-x,-y,1/2+z
-x+y,-x,z
y,-x+y,1/2+z
x-y,-y,-z
-x,-x+y,-z
y,x,-z
-y,-x,1/2-z
-x+y,y,1/2-z
x,x-y,1/2-z
loop_
_atom_site_type_symbol
_atom_site_label
_atom_site_fract_x
_atom_site_fract_y
_atom_site_fract_z
Si Si1 0.333334 0.666668 0.485209
Si Si2 0.212760 0.844298 0.084714
Si Si3 0.000000 0.000000 0.058822
Si Si4 0.876043 0.438022 0.750000
Si Si5 0.473666 0.004629 0.357967
Si Si6 0.666667 0.333334 0.104396
O O1 0.232284 0.744315 0.462610
O O2 0.333334 0.666667 0.544651
O O3 0.123587 0.700062 0.123252
O O4 0.377163 0.968105 0.109892
O O5 0.104258 0.920978 0.074735
O O6 0.000000 0.000000 0.000000
O O7 0.751914 0.503827 0.750000
O O8 0.977590 0.491329 0.799951
O O9 0.515640 0.178912 0.373511
#
# Coordination Sequence:
#
# PCOD9584635 Si02
#       6
#     4  12   4   6  12   4
#     4   9  24  42  64  80 127 177 216 246 301 377
#     4  10  22  42  62  93 121 171 219 247 310 376
#     4  12  27  36  60  94 134 166 207 267 306 367
#     4  10  18  40  72  94 108 162 214 254 304 384
#     4  11  22  41  68  91 122 164 210 259 308 379
#     4  12  27  37  55  99 136 154 195 279 313 344
#
# _framework density 18.998334
#
# number of rings (size 3 to 8) (size 9 to 14) (size 15 to 20)
#    0.286    1.143    2.857    2.286    8.000    3.429 
#    0.000    0.000    0.000    1.714    0.000    0.000 
#    0.000    0.000    0.000    0.000    0.000    0.000 
#
# Total GULP energy -234494.206357 kJ/mol
# GULP energy per Si atom -5583.195389 kJ/mol
# Density = 1.895509 g / cm^3
# Si number density = 18.998334 Si / 1000 Ang^3
#
#
#
# Elastic Constant Matrix: (Units=GPa)
#
#
# Indices 1 2 3 4 5 6 
#
# 1 100.4501 20.9037 30.9001 -0.0001 0.0001 0.0001
# 2 20.9037 100.4513 30.8994 0.0001 0.0000 0.0003
# 3 30.9001 30.8994 155.9708 -0.0001 0.0002 0.0000
# 4 -0.0001 0.0001 -0.0001 12.2739 0.0001 0.0000
# 5 0.0001 0.0000 0.0002 0.0001 12.2738 0.0001
# 6 0.0001 0.0003 0.0000 0.0000 0.0001 39.7736
#
#
#
# Elastic Compliance Matrix: (Units=1/GPa)
#
#
# Indices 1 2 3 4 5 6 
#
# 1 0.010868 -0.001703 -0.001816 0.000000 0.000000 0.000000
# 2 -0.001703 0.010868 -0.001816 0.000000 0.000000 0.000000
# 3 -0.001816 -0.001816 0.007131 0.000000 0.000000 0.000000
# 4 0.000000 0.000000 0.000000 0.081474 0.000000 0.000000
# 5 0.000000 0.000000 0.000000 0.000000 0.081474 0.000000
# 6 0.000000 0.000000 0.000000 0.000000 0.000000 0.025142
#
#
# Mechanical properties :
#
#
# Convention : Reuss Voigt Hill
#
# Bulk Modulus (GPa) = 54.95098 58.03095 56.49097
# Shear Modulus (GPa) = 21.39564 31.14219 26.26892
#
# Velocity S-wave (km/s) = 3.35951 4.05310 3.72250
# Velocity P-wave (km/s) = 6.63591 7.24673 6.94804
#
# Compressibility (1/GPa) = 0.01819804
#
# Stress axis : x y z
#
# Youngs Moduli (GPa) = 92.01190 92.01334 140.23510
#
# Poissons Ratio (x) = 0.15671 0.25463
# Poissons Ratio (y) = 0.15671 0.25462
# Poissons Ratio (z) = 0.16707 0.16706
#
# Static dielectric constant tensor:
#      x y z
#    x 1.695700 0.000000 0.000000 
#    y 0.000000 1.695700 0.000000 
#    z 0.000000 0.000000 1.619630 
# 
# From -- ./inp_files/5694.got.cif
#   From: 2010.05.17/outbox.cif.g08.bks.cpg/sg182_3_cif.got.tgz:5694.got - 2010.05.20 11:58:53.
