data_PCOD9584665
_publ_section_title
;
Structure prediction by ZEFSAII (Michael W. Deem and Ramdas Pophale) SiO2 
 PCOD9584665
Probable space group: P 63 2 2
;
_chemical_formula_sum "Si O2"
_cell_formula_units_Z 72
_cell_length_a 22.157077
_cell_length_b 22.157077
_cell_length_c 8.814976
_cell_angle_alpha 90.000000
_cell_angle_beta 90.000000
_cell_angle_gamma 120.000000
_cell_volume 3747.802528
_symmetry_space_group_name_H-M "P 63 2 2"
_symmetry_group_IT_number 182
_symmetry_cell_setting 'hexagonal'
loop_
_space_group_symop_operation_xyz
x,y,z
x-y,x,1/2+z
-y,x-y,z
-x,-y,1/2+z
-x+y,-x,z
y,-x+y,1/2+z
x-y,-y,-z
-x,-x+y,-z
y,x,-z
-y,-x,1/2-z
-x+y,y,1/2-z
x,x-y,1/2-z
loop_
_atom_site_type_symbol
_atom_site_label
_atom_site_fract_x
_atom_site_fract_y
_atom_site_fract_z
Si Si1 0.886295 0.333619 0.431334
Si Si2 0.153855 0.820350 0.923743
Si Si3 0.548537 0.000000 0.500000
Si Si4 0.846572 0.813403 0.348125
Si Si5 0.036797 0.640760 0.222449
Si Si6 0.207520 0.921555 0.177580
Si Si7 0.106940 0.553470 0.750000
O O1 0.847418 0.250892 0.466634
O O2 0.914907 0.366826 0.596837
O O3 0.852956 0.368962 0.323919
O O4 0.957551 0.355466 0.338255
O O5 0.173000 0.827001 0.750000
O O6 0.077687 0.813708 0.923141
O O7 0.203464 0.894775 0.005673
O O8 0.610181 0.042183 0.618347
O O9 0.542703 0.054522 0.389566
O O10 0.859659 0.859659 0.500000
O O11 0.913440 0.826879 0.250000
O O12 0.791888 0.814299 0.228290
O O13 0.056348 0.719220 0.249775
O O14 0.150597 0.849404 0.250000
#
# Coordination Sequence:
#
# PCOD9584665 Si02
#       7
#    12  12   6  12  12  12   6
#     4  10  19  37  52  79 119 154 183 237 281 346
#     4  11  24  37  60  85 119 152 199 254 315 377
#     4  10  20  32  50  80 108 160 188 208 268 334
#     4  11  23  41  60  89 116 150 199 265 330 399
#     4  10  20  32  56  77 119 147 195 232 286 355
#     4  12  22  38  60  89 113 156 201 255 329 382
#     4  10  20  32  52  76 116 154 192 214 262 336
#
# _framework density 19.211257
#
# number of rings (size 3 to 8) (size 9 to 14) (size 15 to 20)
#    0.000    1.333    5.000    2.000    4.667    2.667 
#    0.000    0.000    0.000    0.333    4.333    0.000 
#    0.833    0.000    0.000    3.167    0.000    0.000 
#
# Total GULP energy -400940.710452 kJ/mol
# GULP energy per Si atom -5568.620978 kJ/mol
# Density = 1.916753 g / cm^3
# Si number density = 19.211257 Si / 1000 Ang^3
#
#
#
# Elastic Constant Matrix: (Units=GPa)
#
#
# Indices 1 2 3 4 5 6 
#
# 1 58.3648 22.9088 36.7900 0.0000 0.0000 0.0000
# 2 22.9088 58.3648 36.7900 0.0000 0.0000 0.0000
# 3 36.7900 36.7900 139.5905 0.0000 0.0000 0.0000
# 4 0.0000 0.0000 0.0000 27.1930 0.0000 0.0000
# 5 0.0000 0.0000 0.0000 0.0000 27.1930 0.0000
# 6 0.0000 0.0000 0.0000 0.0000 0.0000 17.7280
#
#
#
# Elastic Compliance Matrix: (Units=1/GPa)
#
#
# Indices 1 2 3 4 5 6 
#
# 1 0.022182 -0.006022 -0.004259 0.000000 0.000000 0.000000
# 2 -0.006022 0.022182 -0.004259 0.000000 0.000000 0.000000
# 3 -0.004259 -0.004259 0.009409 0.000000 0.000000 0.000000
# 4 0.000000 0.000000 0.000000 0.036774 0.000000 0.000000
# 5 0.000000 0.000000 0.000000 0.000000 0.036774 0.000000
# 6 0.000000 0.000000 0.000000 0.000000 0.000000 0.056408
#
#
# Mechanical properties :
#
#
# Convention : Reuss Voigt Hill
#
# Bulk Modulus (GPa) = 40.49808 49.92198 45.21003
# Shear Modulus (GPa) = 22.62032 25.07822 23.84927
#
# Velocity S-wave (km/s) = 3.43512 3.61694 3.52720
# Velocity P-wave (km/s) = 6.07121 6.59433 6.33817
#
# Compressibility (1/GPa) = 0.02469253
#
# Stress axis : x y z
#
# Youngs Moduli (GPa) = 45.08161 45.08161 106.28315
#
# Poissons Ratio (x) = 0.27148 0.45267
# Poissons Ratio (y) = 0.27148 0.45267
# Poissons Ratio (z) = 0.19201 0.19201
#
# Static dielectric constant tensor:
#      x y z
#    x 1.761340 0.000000 0.000000 
#    y 0.000000 1.761340 0.000000 
#    z 0.000000 0.000000 1.892140 
# 
# From -- ./inp_files/1949.got.cif
#   From: 2010.05.17/outbox.cif.g08.bks.cpg/sg182_1_cif.got.tgz:1949.got - 2010.05.20 11:58:53.
