data_PCOD9584205
_publ_section_title
;
Structure prediction by ZEFSAII (Michael W. Deem and Ramdas Pophale) SiO2 
 PCOD9584205
Probable space group: P 64 2 2
;
_chemical_formula_sum "Si O2"
_cell_formula_units_Z 72
_cell_length_a 23.629792
_cell_length_b 23.629792
_cell_length_c 9.147620
_cell_angle_alpha 90.000000
_cell_angle_beta 90.000000
_cell_angle_gamma 120.000000
_cell_volume 4423.423742
_symmetry_space_group_name_H-M "P 64 2 2"
_symmetry_group_IT_number 181
_symmetry_cell_setting 'hexagonal'
loop_
_space_group_symop_operation_xyz
x,y,z
x-y,x,2/3+z
-y,x-y,1/3+z
-x,-y,z
-x+y,-x,2/3+z
y,-x+y,1/3+z
x-y,-y,-z
-x,-x+y,2/3-z
y,x,1/3-z
-y,-x,1/3-z
-x+y,y,-z
x,x-y,2/3-z
loop_
_atom_site_type_symbol
_atom_site_label
_atom_site_fract_x
_atom_site_fract_y
_atom_site_fract_z
Si Si1 0.895985 0.756247 0.154442
Si Si2 0.624432 0.194546 0.362036
Si Si3 0.750116 0.678614 0.610486
Si Si4 0.157622 0.953894 0.256930
Si Si5 0.529465 0.698721 0.787581
Si Si6 0.325373 0.573193 0.775667
O O1 0.898769 0.703721 0.261804
O O2 0.859478 0.787157 0.244967
O O3 0.970127 0.811930 0.114115
O O4 0.863351 0.726703 0.000000
O O5 0.578826 0.157652 0.500000
O O6 0.647159 0.157141 0.249877
O O7 0.690162 0.253088 0.436507
O O8 0.591967 0.226362 0.258509
O O9 0.697464 0.697464 0.666667
O O10 0.789224 0.725504 0.474477
O O11 0.718165 0.603552 0.570208
O O12 0.091099 0.908902 0.166667
O O13 0.528228 0.764114 0.833334
O O14 0.487847 0.675273 0.638112
O O15 0.366327 0.633674 0.666667
#
# Coordination Sequence:
#
# PCOD9584205 Si02
#       6
#    12  12  12  12  12  12
#     4  10  18  29  48  72  96 122 155 197 237 282
#     4  10  17  26  43  67  95 124 151 180 219 271
#     4   9  18  33  51  68  89 122 160 194 237 283
#     4   9  17  30  49  69  93 125 157 190 233 287
#     4   9  17  29  45  67  94 120 147 188 231 268
#     4   9  16  25  41  63  92 125 152 179 216 269
#
# _framework density 16.276985
#
# number of rings (size 3 to 8) (size 9 to 14) (size 15 to 20)
#    0.000    2.667    0.000    6.500    0.000    0.000 
#    0.000    5.000    0.000    9.500    0.000    1.167 
#    0.000    0.000    0.000    0.000    0.000    0.000 
#
# Total GULP energy -400925.062543 kJ/mol
# GULP energy per Si atom -5568.403646 kJ/mol
# Density = 1.623994 g / cm^3
# Si number density = 16.276985 Si / 1000 Ang^3
#
#
#
# Elastic Constant Matrix: (Units=GPa)
#
#
# Indices 1 2 3 4 5 6 
#
# 1 70.3795 33.6066 38.8213 0.0000 0.0000 0.0000
# 2 33.6066 70.3795 38.8213 0.0000 0.0000 0.0000
# 3 38.8213 38.8213 124.9602 0.0000 0.0000 0.0000
# 4 0.0000 0.0000 0.0000 13.7222 0.0000 0.0000
# 5 0.0000 0.0000 0.0000 0.0000 13.7222 0.0000
# 6 0.0000 0.0000 0.0000 0.0000 0.0000 18.3864
#
#
#
# Elastic Compliance Matrix: (Units=1/GPa)
#
#
# Indices 1 2 3 4 5 6 
#
# 1 0.019858 -0.007336 -0.003890 0.000000 0.000000 0.000000
# 2 -0.007336 0.019858 -0.003890 0.000000 0.000000 0.000000
# 3 -0.003890 -0.003890 0.010420 0.000000 0.000000 0.000000
# 4 0.000000 0.000000 0.000000 0.072874 0.000000 0.000000
# 5 0.000000 0.000000 0.000000 0.000000 0.072874 0.000000
# 6 0.000000 0.000000 0.000000 0.000000 0.000000 0.054388
#
#
# Mechanical properties :
#
#
# Convention : Reuss Voigt Hill
#
# Bulk Modulus (GPa) = 50.24606 54.24641 52.24624
# Shear Modulus (GPa) = 17.41323 19.46417 18.43870
#
# Velocity S-wave (km/s) = 3.27434 3.46180 3.36937
# Velocity P-wave (km/s) = 6.72543 7.02696 6.87785
#
# Compressibility (1/GPa) = 0.01990206
#
# Stress axis : x y z
#
# Youngs Moduli (GPa) = 50.35867 50.35867 95.97374
#
# Poissons Ratio (x) = 0.36945 0.37333
# Poissons Ratio (y) = 0.36945 0.37333
# Poissons Ratio (z) = 0.19589 0.19589
#
# Static dielectric constant tensor:
#      x y z
#    x 1.546790 0.000000 0.000000 
#    y 0.000000 1.546790 0.000000 
#    z 0.000000 0.000000 1.579370 
# 
# From -- ./inp_files/3351.got.cif
#   From: 2010.05.17/outbox.cif.g08.bks.cpg/sg181_2_cif.got.tgz:3351.got - 2010.05.20 11:51:17.
