data_PCOD9584999
_publ_section_title
;
Structure prediction by ZEFSAII (Michael W. Deem and Ramdas Pophale) SiO2 
 PCOD9584999
Probable space group: P 6 M M
;
_chemical_formula_sum "Si O2"
_cell_formula_units_Z 96
_cell_length_a 18.133245
_cell_length_b 18.133245
_cell_length_c 20.795400
_cell_angle_alpha 90.000000
_cell_angle_beta 90.000000
_cell_angle_gamma 120.000000
_cell_volume 5921.735004
_symmetry_space_group_name_H-M "P 6 M M"
_symmetry_group_IT_number 183
_symmetry_cell_setting 'hexagonal'
loop_
_space_group_symop_operation_xyz
x,y,z
x-y,x,z
-y,x-y,z
-x,-y,z
-x+y,-x,z
y,-x+y,z
-x+y,y,z
x,x-y,z
-y,-x,z
y,x,z
x-y,-y,z
-x,-x+y,z
loop_
_atom_site_type_symbol
_atom_site_label
_atom_site_fract_x
_atom_site_fract_y
_atom_site_fract_z
Si Si1 0.260922 0.361775 0.684650
Si Si2 0.101863 0.467055 0.805029
Si Si3 0.099837 0.733361 0.299829
Si Si4 0.668064 0.164255 0.947972
Si Si5 0.268501 0.365333 0.060609
Si Si6 0.508063 0.667383 0.180227
Si Si7 0.532266 0.635438 0.421480
Si Si8 0.532217 0.896647 0.566148
O O1 0.159962 0.319924 0.685617
O O2 0.296716 0.296716 0.682880
O O3 0.300045 0.420195 0.747757
O O4 0.297707 0.422774 0.622522
O O5 0.125706 0.562853 0.786371
O O6 0.144273 0.471369 0.873275
O O7 0.000000 0.415201 0.814950
O O8 0.166611 0.833390 0.290808
O O9 0.116111 0.684006 0.241965
O O10 0.123743 0.702562 0.365508
O O11 0.000000 0.703965 0.301431
O O12 0.573333 0.146666 0.960523
O O13 0.737390 0.262610 0.960807
O O14 0.693757 0.110422 0.994314
O O15 0.169226 0.338452 0.063966
O O16 0.290729 0.290729 0.066466
O O17 0.315440 0.433637 0.117518
O O18 0.482906 0.741453 0.180905
O O19 0.425133 0.574868 0.180322
O O20 0.433613 0.566388 0.407639
O O21 0.581057 0.581057 0.422820
O O22 0.538476 0.669752 0.493797
O O23 0.433976 0.867951 0.579552
O O24 0.581873 0.000000 0.565301
#
# Coordination Sequence:
#
# PCOD9584999 Si02
#       8
#    12  12  12  12  12  12  12  12
#     4  10  19  30  45  65  89 117 152 193 234 275
#     4   9  17  29  46  67  89 115 149 188 228 271
#     4  10  20  32  47  68  93 122 157 198 240 278
#     4  10  19  30  45  67  97 130 160 187 217 258
#     4  10  21  35  51  71  94 122 156 195 236 274
#     4  10  20  33  50  73 101 130 157 185 220 265
#     4   8  14  26  45  68  91 114 142 176 216 266
#     4   8  14  26  45  67  89 113 141 175 217 266
#
# _framework density 16.211465
#
# number of rings (size 3 to 8) (size 9 to 14) (size 15 to 20)
#    0.000    2.625    0.000    3.250    0.000    4.750 
#    0.000    1.250    0.000    3.375    0.000    0.000 
#    0.000    3.000    0.000   10.250    0.000    0.000 
#
# Total GULP energy -535026.711520 kJ/mol
# GULP energy per Si atom -5573.194912 kJ/mol
# Density = 1.617457 g / cm^3
# Si number density = 16.211465 Si / 1000 Ang^3
#
#
#
# Elastic Constant Matrix: (Units=GPa)
#
#
# Indices 1 2 3 4 5 6 
#
# 1 81.9518 57.9447 38.5414 0.0000 0.0000 0.0000
# 2 57.9447 81.9518 38.5414 0.0000 0.0000 0.0000
# 3 38.5414 38.5414 73.9285 0.0000 0.0000 0.0000
# 4 0.0000 0.0000 0.0000 14.6152 0.0000 0.0000
# 5 0.0000 0.0000 0.0000 0.0000 14.6152 0.0000
# 6 0.0000 0.0000 0.0000 0.0000 0.0000 12.0035
#
#
#
# Elastic Compliance Matrix: (Units=1/GPa)
#
#
# Indices 1 2 3 4 5 6 
#
# 1 0.025842 -0.015813 -0.005228 0.000000 0.000000 0.000000
# 2 -0.015813 0.025842 -0.005228 0.000000 0.000000 0.000000
# 3 -0.005228 -0.005228 0.018978 0.000000 0.000000 0.000000
# 4 0.000000 0.000000 0.000000 0.068422 0.000000 0.000000
# 5 0.000000 0.000000 0.000000 0.000000 0.068422 0.000000
# 6 0.000000 0.000000 0.000000 0.000000 0.000000 0.083309
#
#
# Mechanical properties :
#
#
# Convention : Reuss Voigt Hill
#
# Bulk Modulus (GPa) = 55.18062 56.43192 55.80627
# Shear Modulus (GPa) = 14.31049 15.10042 14.70546
#
# Velocity S-wave (km/s) = 2.97432 3.05530 3.01508
# Velocity P-wave (km/s) = 6.77549 6.87982 6.82786
#
# Compressibility (1/GPa) = 0.01812231
#
# Stress axis : x y z
#
# Youngs Moduli (GPa) = 38.69713 38.69713 52.69220
#
# Poissons Ratio (x) = 0.61191 0.27550
# Poissons Ratio (y) = 0.61191 0.27550
# Poissons Ratio (z) = 0.20233 0.20233
#
# Static dielectric constant tensor:
#      x y z
#    x 1.534900 0.000000 0.000000 
#    y 0.000000 1.534900 0.000000 
#    z 0.000000 0.000000 1.557990 
# 
# From -- ./inp_files/3004.got.cif
#   From: 2010.05.17/outbox.cif.g08.bks.cpg/sg183_2_cif.got.tgz:3004.got - 2010.05.20 12:02:58.
