data_PCOD9584633
_publ_section_title
;
Structure prediction by ZEFSAII (Michael W. Deem and Ramdas Pophale) SiO2 
 PCOD9584633
Probable space group: P 63 2 2
;
_chemical_formula_sum "Si O2"
_cell_formula_units_Z 84
_cell_length_a 18.771051
_cell_length_b 18.771051
_cell_length_c 14.439019
_cell_angle_alpha 90.000000
_cell_angle_beta 90.000000
_cell_angle_gamma 120.000000
_cell_volume 4406.010207
_symmetry_space_group_name_H-M "P 63 2 2"
_symmetry_group_IT_number 182
_symmetry_cell_setting 'hexagonal'
loop_
_space_group_symop_operation_xyz
x,y,z
x-y,x,1/2+z
-y,x-y,z
-x,-y,1/2+z
-x+y,-x,z
y,-x+y,1/2+z
x-y,-y,-z
-x,-x+y,-z
y,x,-z
-y,-x,1/2-z
-x+y,y,1/2-z
x,x-y,1/2-z
loop_
_atom_site_type_symbol
_atom_site_label
_atom_site_fract_x
_atom_site_fract_y
_atom_site_fract_z
Si Si1 0.832055 0.409867 0.047257
Si Si2 0.765181 0.523513 0.997658
Si Si3 0.447047 0.894093 0.750000
Si Si4 0.190629 0.342494 0.857714
Si Si5 0.989812 0.375520 0.336031
Si Si6 0.802118 0.900091 0.500667
Si Si7 0.202628 0.860096 0.350575
Si Si8 0.506931 0.000000 0.000000
O O1 0.825387 0.486334 0.009170
O O2 0.766415 0.323186 0.007688
O O3 0.838296 0.418098 0.158152
O O4 0.918269 0.421510 0.011377
O O5 0.776120 0.583443 0.083808
O O6 0.788821 0.579833 0.906909
O O7 0.546756 0.951106 0.753571
O O8 0.170921 0.341841 0.750000
O O9 0.284355 0.362997 0.865956
O O10 0.131995 0.256529 0.908531
O O11 0.069916 0.366807 0.330952
O O12 0.003789 0.443227 0.412158
O O13 0.866438 0.866438 0.500000
O O14 0.737102 0.851185 0.416532
O O15 0.849164 0.000000 0.500000
O O16 0.163643 0.836358 0.250000
#
# Coordination Sequence:
#
# PCOD9584633 Si02
#       8
#    12  12   6  12  12  12  12   6
#     4  11  22  38  60  93 128 166 214 263 330 377
#     4  11  23  41  63  91 132 172 214 269 330 394
#     4  10  22  34  66 102 122 164 216 266 314 412
#     4  11  22  39  67  93 129 169 210 266 342 406
#     4  11  19  40  65  89 122 167 219 257 331 395
#     4  11  24  43  67  96 128 171 221 278 341 411
#     4  11  25  44  67  93 130 175 224 273 336 406
#     4  10  18  38  64  82 118 170 210 250 310 396
#
# _framework density 19.064868000000001
#
# number of rings (size 3 to 8) (size 9 to 14) (size 15 to 20)
#    0.000    1.143    5.714    2.143    2.000    2.286 
#    5.143    0.000    0.000    1.714    0.000    0.000 
#    0.000    0.000    0.000    0.000    0.000    0.000 
#
# Total GULP energy -468109.891176 kJ/mol
# GULP energy per Si atom -5572.736800 kJ/mol
# Density = 1.902148 g / cm^3
# Si number density = 19.064868 Si / 1000 Ang^3
#
#
#
# Elastic Constant Matrix: (Units=GPa)
#
#
# Indices 1 2 3 4 5 6 
#
# 1 87.5748 18.8386 17.6619 0.0000 0.0000 0.0000
# 2 18.8386 87.5748 17.6619 0.0000 0.0000 0.0000
# 3 17.6619 17.6619 91.8515 0.0000 0.0000 0.0000
# 4 0.0000 0.0000 0.0000 7.3558 0.0000 0.0000
# 5 0.0000 0.0000 0.0000 0.0000 7.3558 0.0000
# 6 0.0000 0.0000 0.0000 0.0000 0.0000 34.3681
#
#
#
# Elastic Compliance Matrix: (Units=1/GPa)
#
#
# Indices 1 2 3 4 5 6 
#
# 1 0.012293 -0.002255 -0.001930 0.000000 0.000000 0.000000
# 2 -0.002255 0.012293 -0.001930 0.000000 0.000000 0.000000
# 3 -0.001930 -0.001930 0.011629 0.000000 0.000000 0.000000
# 4 0.000000 0.000000 0.000000 0.135946 0.000000 0.000000
# 5 0.000000 0.000000 0.000000 0.000000 0.135946 0.000000
# 6 0.000000 0.000000 0.000000 0.000000 0.000000 0.029097
#
#
# Mechanical properties :
#
#
# Convention : Reuss Voigt Hill
#
# Bulk Modulus (GPa) = 41.69313 41.70286 41.69799
# Shear Modulus (GPa) = 13.98870 24.00521 18.99695
#
# Velocity S-wave (km/s) = 2.71171 3.55228 3.16006
# Velocity P-wave (km/s) = 5.63214 6.22467 5.93581
#
# Compressibility (1/GPa) = 0.02398477
#
# Stress axis : x y z
#
# Youngs Moduli (GPa) = 81.34576 81.34576 85.98865
#
# Poissons Ratio (x) = 0.18345 0.16597
# Poissons Ratio (y) = 0.18345 0.16597
# Poissons Ratio (z) = 0.15701 0.15701
#
# Static dielectric constant tensor:
#      x y z
#    x 1.705930 0.000000 0.000000 
#    y 0.000000 1.705930 0.000000 
#    z 0.000000 0.000000 1.669420 
# 
# From -- ./inp_files/3760.got.cif
#   From: 2010.05.17/outbox.cif.g08.bks.cpg/sg182_2_cif.got.tgz:3760.got - 2010.05.20 11:58:53.
