data_PCOD9584773
_publ_section_title
;
Structure prediction by ZEFSAII (Michael W. Deem and Ramdas Pophale) SiO2 
 PCOD9584773
Probable space group: P 63 2 2
;
_chemical_formula_sum "Si O2"
_cell_formula_units_Z 42
_cell_length_a 8.730019
_cell_length_b 8.730019
_cell_length_c 32.479900
_cell_angle_alpha 90.000000
_cell_angle_beta 90.000000
_cell_angle_gamma 120.000000
_cell_volume 2143.757679
_symmetry_space_group_name_H-M "P 63 2 2"
_symmetry_group_IT_number 182
_symmetry_cell_setting 'hexagonal'
loop_
_space_group_symop_operation_xyz
x,y,z
x-y,x,1/2+z
-y,x-y,z
-x,-y,1/2+z
-x+y,-x,z
y,-x+y,1/2+z
x-y,-y,-z
-x,-x+y,-z
y,x,-z
-y,-x,1/2-z
-x+y,y,1/2-z
x,x-y,1/2-z
loop_
_atom_site_type_symbol
_atom_site_label
_atom_site_fract_x
_atom_site_fract_y
_atom_site_fract_z
Si Si1 0.231725 0.115862 0.250000
Si Si2 0.650119 0.652146 0.048286
Si Si3 0.008465 0.321012 0.581520
Si Si4 0.439897 0.261097 0.165704
O O1 0.347441 0.202497 0.209635
O O2 0.095155 0.190309 0.250000
O O3 0.629677 0.811970 0.066771
O O4 0.516430 0.474102 0.072196
O O5 0.851955 0.704628 0.055013
O O6 0.614028 0.614028 0.000000
O O7 0.063538 0.312342 0.628718
O O8 0.539745 0.147132 0.162204
#
# Coordination Sequence:
#
# PCOD9584773 Si02
#       4
#     6  12  12  12
#     4  10  24  36  68 106 126 166 218 280 324 414
#     4  12  24  42  64  95 135 178 232 286 345 406
#     4  12  25  43  67  99 133 185 230 288 349 416
#     4  10  21  44  68  93 132 181 220 264 350 407
#
# _framework density 19.591764000000001
#
# number of rings (size 3 to 8) (size 9 to 14) (size 15 to 20)
#    0.857    0.000    2.857    5.143    4.000    0.000 
#    0.000    0.000    0.000    4.571    0.000    0.000 
#    0.000    0.000    0.000    0.000    0.000    0.000 
#
# Total GULP energy -234131.404445 kJ/mol
# GULP energy per Si atom -5574.557249 kJ/mol
# Density = 1.954717 g / cm^3
# Si number density = 19.591764 Si / 1000 Ang^3
#
#
#
# Elastic Constant Matrix: (Units=GPa)
#
#
# Indices 1 2 3 4 5 6 
#
# 1 58.1417 -4.9242 31.5533 0.0000 0.0000 0.0000
# 2 -4.9242 58.1417 31.5533 0.0000 0.0000 0.0000
# 3 31.5533 31.5533 192.4446 0.0000 0.0000 0.0000
# 4 0.0000 0.0000 0.0000 -7.5510 0.0000 0.0000
# 5 0.0000 0.0000 0.0000 0.0000 -7.5510 0.0000
# 6 0.0000 0.0000 0.0000 0.0000 0.0000 31.5330
#
#
#
# Elastic Compliance Matrix: (Units=1/GPa)
#
#
# Indices 1 2 3 4 5 6 
#
# 1 0.019591 0.003735 -0.003825 0.000000 0.000000 0.000000
# 2 0.003735 0.019591 -0.003825 0.000000 0.000000 0.000000
# 3 -0.003825 -0.003825 0.006450 0.000000 0.000000 0.000000
# 4 0.000000 0.000000 0.000000 -0.132433 0.000000 0.000000
# 5 0.000000 0.000000 0.000000 0.000000 -0.132433 0.000000
# 6 0.000000 0.000000 0.000000 0.000000 0.000000 0.031713
#
#
# Mechanical properties :
#
#
# Convention : Reuss Voigt Hill
#
# Bulk Modulus (GPa) = 26.45197 47.23253 36.84225
# Shear Modulus (GPa) = -29.92402 19.98924 -4.96739
#
# Velocity S-wave (km/s) = -3.91241 3.19766 -1.59404
# Velocity P-wave (km/s) = 2.62266 6.14769 3.93165
#
# Compressibility (1/GPa) = 0.03780436
#
# Stress axis : x y z
#
# Youngs Moduli (GPa) = 51.04323 51.04323 155.02800
#
# Poissons Ratio (x) = -0.19064 0.59291
# Poissons Ratio (y) = -0.19064 0.59291
# Poissons Ratio (z) = 0.19522 0.19522
#
# Static dielectric constant tensor:
#      x y z
#    x 1.691170 0.000000 0.000000 
#    y 0.000000 1.691170 0.000000 
#    z 0.000000 0.000000 1.568570 
# 
# From -- ./inp_files/5664.got.cif
#   From: 2010.05.17/outbox.cif.g08.bks.cpg/sg182_3_cif.got.tgz:5664.got - 2010.05.20 11:58:53.
