data_PCOD9584808
_publ_section_title
;
Structure prediction by ZEFSAII (Michael W. Deem and Ramdas Pophale) SiO2 
 PCOD9584808
Probable space group: P 63 2 2
;
_chemical_formula_sum "Si O2"
_cell_formula_units_Z 42
_cell_length_a 9.858791
_cell_length_b 9.858791
_cell_length_c 20.482410
_cell_angle_alpha 90.000000
_cell_angle_beta 90.000000
_cell_angle_gamma 120.000000
_cell_volume 1724.086324
_symmetry_space_group_name_H-M "P 63 2 2"
_symmetry_group_IT_number 182
_symmetry_cell_setting 'hexagonal'
loop_
_space_group_symop_operation_xyz
x,y,z
x-y,x,1/2+z
-y,x-y,z
-x,-y,1/2+z
-x+y,-x,z
y,-x+y,1/2+z
x-y,-y,-z
-x,-x+y,-z
y,x,-z
-y,-x,1/2-z
-x+y,y,1/2-z
x,x-y,1/2-z
loop_
_atom_site_type_symbol
_atom_site_label
_atom_site_fract_x
_atom_site_fract_y
_atom_site_fract_z
Si Si1 0.479828 0.959656 0.250000
Si Si2 0.751474 0.678363 0.932932
Si Si3 0.040490 0.602882 0.117339
Si Si4 0.111412 0.297284 0.817251
O O1 0.644868 0.067508 0.286312
O O2 0.500365 0.872388 0.188000
O O3 0.569317 0.554932 0.916545
O O4 0.851572 0.592697 0.931471
O O5 0.807411 0.789228 0.869736
O O6 0.762668 0.762668 0.000000
O O7 0.893146 0.619364 0.141758
O O8 0.106650 0.213300 0.750000
#
# Coordination Sequence:
#
# PCOD9584808 Si02
#       4
#     6  12  12  12
#     4   8  18  40  68 100 128 170 220 294 344 394
#     4  11  25  41  66  99 132 184 219 284 345 410
#     4  10  22  43  64  99 134 170 232 277 346 416
#     4   9  20  41  64  98 130 171 226 280 339 406
#
# _framework density 24.360728999999999
#
# number of rings (size 3 to 8) (size 9 to 14) (size 15 to 20)
#    0.000    2.286    0.000    0.571    4.000   10.286 
#   70.286    2.857    0.000    0.000    0.000    0.000 
#    0.000    0.000    0.000    0.000    0.000    0.000 
#
# Total GULP energy -234299.206679 kJ/mol
# GULP energy per Si atom -5578.552540 kJ/mol
# Density = 2.430528 g / cm^3
# Si number density = 24.360729 Si / 1000 Ang^3
#
#
#
# Elastic Constant Matrix: (Units=GPa)
#
#
# Indices 1 2 3 4 5 6 
#
# 1 65.3172 13.3045 15.9906 0.0000 0.0000 0.0000
# 2 13.3045 65.3172 15.9906 0.0000 0.0000 0.0000
# 3 15.9906 15.9906 141.2188 0.0000 0.0000 0.0000
# 4 0.0000 0.0000 0.0000 27.0619 0.0000 0.0000
# 5 0.0000 0.0000 0.0000 0.0000 27.0619 0.0000
# 6 0.0000 0.0000 0.0000 0.0000 0.0000 26.0064
#
#
#
# Elastic Compliance Matrix: (Units=1/GPa)
#
#
# Indices 1 2 3 4 5 6 
#
# 1 0.016280 -0.002946 -0.001510 0.000000 0.000000 0.000000
# 2 -0.002946 0.016280 -0.001510 0.000000 0.000000 0.000000
# 3 -0.001510 -0.001510 0.007423 0.000000 0.000000 0.000000
# 4 0.000000 0.000000 0.000000 0.036952 0.000000 0.000000
# 5 0.000000 0.000000 0.000000 0.000000 0.036952 0.000000
# 6 0.000000 0.000000 0.000000 0.000000 0.000000 0.038452
#
#
# Mechanical properties :
#
#
# Convention : Reuss Voigt Hill
#
# Bulk Modulus (GPa) = 35.64988 40.26941 37.95965
# Shear Modulus (GPa) = 28.79831 31.13053 29.96442
#
# Velocity S-wave (km/s) = 3.44199 3.57865 3.51098
# Velocity P-wave (km/s) = 5.51927 5.80017 5.66146
#
# Compressibility (1/GPa) = 0.02805058
#
# Stress axis : x y z
#
# Youngs Moduli (GPa) = 61.42633 61.42633 134.71422
#
# Poissons Ratio (x) = 0.18099 0.20339
# Poissons Ratio (y) = 0.18099 0.20339
# Poissons Ratio (z) = 0.09274 0.09274
#
# Static dielectric constant tensor:
#      x y z
#    x 2.002890 0.000000 0.000000 
#    y 0.000000 2.002890 0.000000 
#    z 0.000000 0.000000 1.986970 
# 
# From -- ./inp_files/4667.got.cif
#   From: 2010.05.17/outbox.cif.g08.bks.cpg/sg182_3_cif.got.tgz:4667.got - 2010.05.20 11:58:53.
