data_PCOD9584209
_publ_section_title
;
Structure prediction by ZEFSAII (Michael W. Deem and Ramdas Pophale) SiO2 
 PCOD9584209
Probable space group: P 64 2 2
;
_chemical_formula_sum "Si O2"
_cell_formula_units_Z 96
_cell_length_a 17.189854
_cell_length_b 17.189854
_cell_length_c 24.910251
_cell_angle_alpha 90.000000
_cell_angle_beta 90.000000
_cell_angle_gamma 120.000000
_cell_volume 6374.602540
_symmetry_space_group_name_H-M "P 64 2 2"
_symmetry_group_IT_number 181
_symmetry_cell_setting 'hexagonal'
loop_
_space_group_symop_operation_xyz
x,y,z
x-y,x,2/3+z
-y,x-y,1/3+z
-x,-y,z
-x+y,-x,2/3+z
y,-x+y,1/3+z
x-y,-y,-z
-x,-x+y,2/3-z
y,x,1/3-z
-y,-x,1/3-z
-x+y,y,-z
x,x-y,2/3-z
loop_
_atom_site_type_symbol
_atom_site_label
_atom_site_fract_x
_atom_site_fract_y
_atom_site_fract_z
Si Si1 0.432905 0.393166 0.720661
Si Si2 0.502315 0.692506 0.071125
Si Si3 0.993425 0.402380 0.770346
Si Si4 0.402640 0.993954 0.830081
Si Si5 0.461208 0.756404 0.974269
Si Si6 0.182819 0.502596 0.537233
Si Si7 0.800628 0.312617 0.719178
Si Si8 0.210082 0.518500 0.157143
O O1 0.500000 0.500000 0.722183
O O2 0.375774 0.375774 0.666667
O O3 0.382399 0.367863 0.776878
O O4 0.496827 0.351340 0.717067
O O5 0.577437 0.664581 0.078079
O O6 0.410064 0.603428 0.051793
O O7 0.487074 0.734675 0.125420
O O8 0.523022 0.761759 0.023585
O O9 0.000000 0.500000 0.771124
O O10 0.000000 0.381511 0.833334
O O11 0.902484 0.337002 0.737074
O O12 0.426977 0.078464 0.792109
O O13 0.500000 0.000000 0.831433
O O14 0.329123 0.892098 0.817743
O O15 0.463573 0.693482 0.927986
O O16 0.365380 0.730759 0.000000
O O17 0.232817 0.465633 0.500000
O O18 0.198594 0.592599 0.506556
O O19 0.749968 0.250033 0.666667
O O20 0.739954 0.263014 0.770528
#
# Coordination Sequence:
#
# PCOD9584209 Si02
#       8
#    12  12  12  12  12  12  12  12
#     4  10  17  30  44  61  91 123 157 203 238 289
#     4  11  21  32  49  74  93 125 174 214 245 291
#     4   9  18  35  52  66  94 132 167 207 257 299
#     4   9  20  32  44  65  90 131 161 194 255 299
#     4  12  21  30  46  69  92 124 173 209 242 278
#     4  11  20  32  45  62  97 131 162 204 246 291
#     4  11  21  34  50  73 100 128 166 216 262 288
#     4  11  20  32  50  68  94 125 172 213 244 291
#
# _framework density 15.059763
#
# number of rings (size 3 to 8) (size 9 to 14) (size 15 to 20)
#    0.000    1.500    3.750    4.500    1.750    1.000 
#    0.000    3.750    0.000    0.000    0.000    0.000 
#    0.000    0.000    0.000    2.250    4.000    0.250 
#
# Total GULP energy -534565.887869 kJ/mol
# GULP energy per Si atom -5568.394665 kJ/mol
# Density = 1.502549 g / cm^3
# Si number density = 15.059763 Si / 1000 Ang^3
#
#
#
# Elastic Constant Matrix: (Units=GPa)
#
#
# Indices 1 2 3 4 5 6 
#
# 1 50.0213 24.3858 15.2759 0.0000 0.0000 0.0000
# 2 24.3858 50.0213 15.2759 0.0000 0.0000 0.0000
# 3 15.2759 15.2759 68.8179 0.0000 0.0000 0.0000
# 4 0.0000 0.0000 0.0000 20.3629 0.0000 0.0000
# 5 0.0000 0.0000 0.0000 0.0000 20.3629 0.0000
# 6 0.0000 0.0000 0.0000 0.0000 0.0000 12.8178
#
#
#
# Elastic Compliance Matrix: (Units=1/GPa)
#
#
# Indices 1 2 3 4 5 6 
#
# 1 0.026898 -0.012110 -0.003282 0.000000 0.000000 0.000000
# 2 -0.012110 0.026898 -0.003282 0.000000 0.000000 0.000000
# 3 -0.003282 -0.003282 0.015988 0.000000 0.000000 0.000000
# 4 0.000000 0.000000 0.000000 0.049109 0.000000 0.000000
# 5 0.000000 0.000000 0.000000 0.000000 0.049109 0.000000
# 6 0.000000 0.000000 0.000000 0.000000 0.000000 0.078017
#
#
# Mechanical properties :
#
#
# Convention : Reuss Voigt Hill
#
# Bulk Modulus (GPa) = 30.83248 30.97063 30.90156
# Shear Modulus (GPa) = 16.99640 18.30360 17.65000
#
# Velocity S-wave (km/s) = 3.36310 3.49004 3.42716
# Velocity P-wave (km/s) = 5.96645 6.07044 6.01867
#
# Compressibility (1/GPa) = 0.03243333
#
# Stress axis : x y z
#
# Youngs Moduli (GPa) = 37.17772 37.17772 62.54559
#
# Poissons Ratio (x) = 0.45024 0.20530
# Poissons Ratio (y) = 0.45024 0.20530
# Poissons Ratio (z) = 0.12203 0.12203
#
# Static dielectric constant tensor:
#      x y z
#    x 1.534440 0.000000 0.000000 
#    y 0.000000 1.534440 0.000000 
#    z 0.000000 0.000000 1.551370 
# 
# From -- ./inp_files/10263.got.cif
#   From: 2010.05.17/outbox.cif.g08.bks.cpg/sg181_6_cif.got.tgz:10263.got - 2010.05.20 11:51:17.
