data_PCOD9584963
_publ_section_title
;
Structure prediction by ZEFSAII (Michael W. Deem and Ramdas Pophale) SiO2 
 PCOD9584963
Probable space group: P 6 M M
;
_chemical_formula_sum "Si O2"
_cell_formula_units_Z 72
_cell_length_a 22.771559
_cell_length_b 22.771559
_cell_length_c 10.436386
_cell_angle_alpha 90.000000
_cell_angle_beta 90.000000
_cell_angle_gamma 120.000000
_cell_volume 4686.690714
_symmetry_space_group_name_H-M "P 6 M M"
_symmetry_group_IT_number 183
_symmetry_cell_setting 'hexagonal'
loop_
_space_group_symop_operation_xyz
x,y,z
x-y,x,z
-y,x-y,z
-x,-y,z
-x+y,-x,z
y,-x+y,z
-x+y,y,z
x,x-y,z
-y,-x,z
y,x,z
x-y,-y,z
-x,-x+y,z
loop_
_atom_site_type_symbol
_atom_site_label
_atom_site_fract_x
_atom_site_fract_y
_atom_site_fract_z
Si Si1 0.791972 0.077186 0.849170
Si Si2 0.565236 0.851491 0.950183
Si Si3 0.418045 0.336227 0.453645
Si Si4 0.081449 0.610701 0.181337
Si Si5 0.530217 0.920517 0.725403
Si Si6 0.710963 0.789397 0.544396
O O1 0.871310 0.128691 0.867521
O O2 0.751605 0.105158 0.930244
O O3 0.777395 0.080920 0.697513
O O4 0.766821 0.000000 0.880053
O O5 0.546242 0.773121 0.953490
O O6 0.536242 0.872232 0.828430
O O7 0.543364 0.877052 0.074329
O O8 0.378593 0.378593 0.452341
O O9 0.458615 0.355570 0.321697
O O10 0.462117 0.361050 0.582450
O O11 0.359084 0.258835 0.471190
O O12 0.091502 0.545751 0.171169
O O13 0.000000 0.580547 0.165150
O O14 0.459572 0.919144 0.738645
O O15 0.588862 0.000000 0.745148
O O16 0.734969 0.867485 0.518982
O O17 0.764108 0.764108 0.513969
#
# Coordination Sequence:
#
# PCOD9584963 Si02
#       6
#    12  12  12  12  12  12
#     4   9  16  27  44  66  93 124 159 198 239 284
#     4  11  21  31  45  68  96 129 165 197 233 284
#     4   9  17  29  47  73 100 122 149 189 241 299
#     4  10  20  34  51  72  99 127 156 195 244 292
#     4  10  18  30  51  75  96 118 149 193 243 291
#     4   9  16  27  45  69  97 128 160 197 239 282
#
# _framework density 15.362652000000001
#
# number of rings (size 3 to 8) (size 9 to 14) (size 15 to 20)
#    0.000    2.333    1.667    2.500    0.000    4.000 
#    0.000    0.000    0.000    3.000    0.000    2.333 
#    0.000    0.000    0.000    0.000    0.000   21.667 
#
# Total GULP energy -401229.412641 kJ/mol
# GULP energy per Si atom -5572.630731 kJ/mol
# Density = 1.532769 g / cm^3
# Si number density = 15.362652 Si / 1000 Ang^3
#
#
#
# Elastic Constant Matrix: (Units=GPa)
#
#
# Indices 1 2 3 4 5 6 
#
# 1 99.7414 55.0823 55.7930 0.0000 0.0000 0.0000
# 2 55.0823 99.7414 55.7930 0.0000 0.0000 0.0000
# 3 55.7930 55.7930 111.9328 0.0000 0.0000 0.0000
# 4 0.0000 0.0000 0.0000 13.2541 0.0000 0.0000
# 5 0.0000 0.0000 0.0000 0.0000 13.2541 0.0000
# 6 0.0000 0.0000 0.0000 0.0000 0.0000 22.3296
#
#
#
# Elastic Compliance Matrix: (Units=1/GPa)
#
#
# Indices 1 2 3 4 5 6 
#
# 1 0.016236 -0.006156 -0.005025 0.000000 0.000000 0.000000
# 2 -0.006156 0.016236 -0.005025 0.000000 0.000000 0.000000
# 3 -0.005025 -0.005025 0.013943 0.000000 0.000000 0.000000
# 4 0.000000 0.000000 0.000000 0.075449 0.000000 0.000000
# 5 0.000000 0.000000 0.000000 0.000000 0.075449 0.000000
# 6 0.000000 0.000000 0.000000 0.000000 0.000000 0.044784
#
#
# Mechanical properties :
#
#
# Convention : Reuss Voigt Hill
#
# Bulk Modulus (GPa) = 71.40126 71.63912 71.52019
# Shear Modulus (GPa) = 17.90999 19.41737 18.66368
#
# Velocity S-wave (km/s) = 3.41811 3.55904 3.48928
# Velocity P-wave (km/s) = 7.88391 7.97636 7.93027
#
# Compressibility (1/GPa) = 0.01400536
#
# Stress axis : x y z
#
# Youngs Moduli (GPa) = 61.59133 61.59133 71.72118
#
# Poissons Ratio (x) = 0.37914 0.36036
# Poissons Ratio (y) = 0.37914 0.36036
# Poissons Ratio (z) = 0.30947 0.30947
#
# Static dielectric constant tensor:
#      x y z
#    x 1.507310 0.000000 0.000000 
#    y 0.000000 1.507310 0.000000 
#    z 0.000000 0.000000 1.520910 
# 
# From -- ./inp_files/1150.got.cif
#   From: 2010.05.17/outbox.cif.g08.bks.cpg/sg183_1_cif.got.tgz:1150.got - 2010.05.20 12:02:58.
