data_PCOD9584224
_publ_section_title
;
Structure prediction by ZEFSAII (Michael W. Deem and Ramdas Pophale) SiO2 
 PCOD9584224
Probable space group: P 64 2 2
;
_chemical_formula_sum "Si O2"
_cell_formula_units_Z 60
_cell_length_a 18.263481
_cell_length_b 18.263481
_cell_length_c 12.705612
_cell_angle_alpha 90.000000
_cell_angle_beta 90.000000
_cell_angle_gamma 120.000000
_cell_volume 3670.230457
_symmetry_space_group_name_H-M "P 64 2 2"
_symmetry_group_IT_number 181
_symmetry_cell_setting 'hexagonal'
loop_
_space_group_symop_operation_xyz
x,y,z
x-y,x,2/3+z
-y,x-y,1/3+z
-x,-y,z
-x+y,-x,2/3+z
y,-x+y,1/3+z
x-y,-y,-z
-x,-x+y,2/3-z
y,x,1/3-z
-y,-x,1/3-z
-x+y,y,-z
x,x-y,2/3-z
loop_
_atom_site_type_symbol
_atom_site_label
_atom_site_fract_x
_atom_site_fract_y
_atom_site_fract_z
Si Si1 0.342836 0.248746 0.794926
Si Si2 0.366354 0.467927 0.370446
Si Si3 0.101393 0.726595 0.830215
Si Si4 0.531365 0.634202 0.376217
Si Si5 0.648921 0.897271 0.121181
O O1 0.306883 0.153442 0.833334
O O2 0.427300 0.305400 0.863081
O O3 0.278897 0.284199 0.815208
O O4 0.361488 0.255502 0.671012
O O5 0.312425 0.436863 0.263797
O O6 0.431984 0.567547 0.373047
O O7 0.422478 0.421817 0.370807
O O8 0.125612 0.694939 0.724563
O O9 0.155192 0.827366 0.842074
O O10 0.000000 0.687704 0.833334
O O11 0.563920 0.688221 0.482447
#
# Coordination Sequence:
#
# PCOD9584224 Si02
#       5
#    12  12  12  12  12
#     4  10  19  34  53  74 105 140 180 221 259 305
#     4   9  17  31  51  72  98 130 161 205 260 308
#     4  10  18  31  52  77 105 136 171 216 265 309
#     4   9  18  30  48  77 100 122 164 210 255 312
#     4  10  20  32  52  79 103 138 179 220 261 305
#
# _framework density 16.347746999999998
#
# number of rings (size 3 to 8) (size 9 to 14) (size 15 to 20)
#    0.000    2.400    2.000    1.200    0.000    3.200 
#    0.000    4.000    0.000    5.400    0.000    2.800 
#    0.000    0.000    0.000    0.000    0.000    0.000 
#
# Total GULP energy -334158.060970 kJ/mol
# GULP energy per Si atom -5569.301016 kJ/mol
# Density = 1.631054 g / cm^3
# Si number density = 16.347747 Si / 1000 Ang^3
#
#
#
# Elastic Constant Matrix: (Units=GPa)
#
#
# Indices 1 2 3 4 5 6 
#
# 1 85.6046 46.6435 46.5834 0.0000 0.0000 0.0000
# 2 46.6435 85.6046 46.5834 0.0000 0.0000 0.0000
# 3 46.5834 46.5834 103.6655 0.0000 0.0000 0.0000
# 4 0.0000 0.0000 0.0000 17.4753 0.0000 0.0000
# 5 0.0000 0.0000 0.0000 0.0000 17.4753 0.0000
# 6 0.0000 0.0000 0.0000 0.0000 0.0000 19.4806
#
#
#
# Elastic Compliance Matrix: (Units=1/GPa)
#
#
# Indices 1 2 3 4 5 6 
#
# 1 0.018365 -0.007301 -0.004972 0.000000 0.000000 0.000000
# 2 -0.007301 0.018365 -0.004972 0.000000 0.000000 0.000000
# 3 -0.004972 -0.004972 0.014115 0.000000 0.000000 0.000000
# 4 0.000000 0.000000 0.000000 0.057224 0.000000 0.000000
# 5 0.000000 0.000000 0.000000 0.000000 0.057224 0.000000
# 6 0.000000 0.000000 0.000000 0.000000 0.000000 0.051333
#
#
# Mechanical properties :
#
#
# Convention : Reuss Voigt Hill
#
# Bulk Modulus (GPa) = 61.14070 61.61058 61.37564
# Shear Modulus (GPa) = 19.48809 19.89056 19.68933
#
# Velocity S-wave (km/s) = 3.45642 3.49193 3.47422
# Velocity P-wave (km/s) = 7.30824 7.35033 7.32932
#
# Compressibility (1/GPa) = 0.01635572
#
# Stress axis : x y z
#
# Youngs Moduli (GPa) = 54.45043 54.45043 70.84827
#
# Poissons Ratio (x) = 0.39756 0.35224
# Poissons Ratio (y) = 0.39756 0.35224
# Poissons Ratio (z) = 0.27072 0.27072
#
# Static dielectric constant tensor:
#      x y z
#    x 1.556750 0.000000 0.000000 
#    y 0.000000 1.556750 0.000000 
#    z 0.000000 0.000000 1.557300 
# 
# From -- ./inp_files/4801.got.cif
#   From: 2010.05.17/outbox.cif.g08.bks.cpg/sg181_3_cif.got.tgz:4801.got - 2010.05.20 11:51:17.
