data_PCOD9584692
_publ_section_title
;
Structure prediction by ZEFSAII (Michael W. Deem and Ramdas Pophale) SiO2 
 PCOD9584692
Probable space group: P 63 2 2
;
_chemical_formula_sum "Si O2"
_cell_formula_units_Z 76
_cell_length_a 17.722684
_cell_length_b 17.722684
_cell_length_c 13.816781
_cell_angle_alpha 90.000000
_cell_angle_beta 90.000000
_cell_angle_gamma 120.000000
_cell_volume 3758.343699
_symmetry_space_group_name_H-M "P 63 2 2"
_symmetry_group_IT_number 182
_symmetry_cell_setting 'hexagonal'
loop_
_space_group_symop_operation_xyz
x,y,z
x-y,x,1/2+z
-y,x-y,z
-x,-y,1/2+z
-x+y,-x,z
y,-x+y,1/2+z
x-y,-y,-z
-x,-x+y,-z
y,x,-z
-y,-x,1/2-z
-x+y,y,1/2-z
x,x-y,1/2-z
loop_
_atom_site_type_symbol
_atom_site_label
_atom_site_fract_x
_atom_site_fract_y
_atom_site_fract_z
Si Si1 0.955969 0.140966 0.398501
Si Si2 0.137931 0.531783 0.552360
Si Si3 0.756145 0.686504 0.727513
Si Si4 0.000000 0.000000 0.616850
Si Si5 0.949694 0.525503 0.846138
Si Si6 0.216930 0.905014 0.838897
Si Si7 0.720668 0.226275 0.358814
O O1 0.856544 0.115754 0.416859
O O2 0.000000 0.155723 0.500000
O O3 0.016217 0.230050 0.341602
O O4 0.959268 0.059329 0.352725
O O5 0.110072 0.523922 0.439963
O O6 0.196315 0.488273 0.577344
O O7 0.200004 0.630090 0.590283
O O8 0.049256 0.483630 0.615606
O O9 0.834794 0.669588 0.750000
O O10 0.671148 0.604130 0.683095
O O11 0.727531 0.721024 0.820767
O O12 0.000000 0.000000 0.500000
O O13 0.936089 0.468045 0.750000
O O14 0.150296 0.849705 0.750000
O O15 0.276123 0.862070 0.850116
O O16 0.734012 0.265989 0.250000
#
# Coordination Sequence:
#
# PCOD9584692 Si02
#       7
#    12  12  12   4  12  12  12
#     4  10  20  34  59  88 127 173 214 267 311 377
#     4  11  24  41  72 100 128 176 228 279 367 426
#     4  11  23  39  63  90 124 174 223 265 331 401
#     4   9  18  33  49  80 130 165 202 251 310 345
#     4  11  25  46  67  92 136 181 223 282 355 434
#     4   9  19  35  58  90 128 165 214 264 324 381
#     4  11  21  39  67 103 135 162 219 293 342 411
#
# _framework density 20.221672999999999
#
# number of rings (size 3 to 8) (size 9 to 14) (size 15 to 20)
#    0.000    1.579    0.000    6.474    4.421    1.263 
#    0.000    2.368    6.947    0.316    0.000    0.000 
#    0.000    0.000    0.000    0.000    0.000    0.000 
#
# Total GULP energy -424050.629761 kJ/mol
# GULP energy per Si atom -5579.613549 kJ/mol
# Density = 2.017565 g / cm^3
# Si number density = 20.221673 Si / 1000 Ang^3
#
#
#
# Elastic Constant Matrix: (Units=GPa)
#
#
# Indices 1 2 3 4 5 6 
#
# 1 36.5609 74.0070 31.6142 0.0000 0.0000 0.0000
# 2 74.0070 36.5609 31.6142 0.0000 0.0000 0.0000
# 3 31.6142 31.6142 101.8129 0.0000 0.0000 0.0000
# 4 0.0000 0.0000 0.0000 12.8803 0.0000 0.0000
# 5 0.0000 0.0000 0.0000 0.0000 12.8803 0.0000
# 6 0.0000 0.0000 0.0000 0.0000 0.0000 -18.7230
#
#
#
# Elastic Compliance Matrix: (Units=1/GPa)
#
#
# Indices 1 2 3 4 5 6 
#
# 1 -0.007854 0.018851 -0.003415 0.000000 0.000000 0.000000
# 2 0.018851 -0.007854 -0.003415 0.000000 0.000000 0.000000
# 3 -0.003415 -0.003415 0.011943 0.000000 0.000000 0.000000
# 4 0.000000 0.000000 0.000000 0.077638 0.000000 0.000000
# 5 0.000000 0.000000 0.000000 0.000000 0.077638 0.000000
# 6 0.000000 0.000000 0.000000 0.000000 0.000000 -0.053410
#
#
# Mechanical properties :
#
#
# Convention : Reuss Voigt Hill
#
# Bulk Modulus (GPa) = 49.31541 49.93394 49.62468
# Shear Modulus (GPa) = 61.86887 3.92080 32.89483
#
# Velocity S-wave (km/s) = 5.53730 1.39396 4.03763
# Velocity P-wave (km/s) = 8.08224 5.22855 6.80663
#
# Compressibility (1/GPa) = 0.02027764
#
# Stress axis : x y z
#
# Youngs Moduli (GPa) = -127.32220 -127.32220 83.73426
#
# Poissons Ratio (x) = 2.40015 0.28593
# Poissons Ratio (y) = 2.40015 0.28593
# Poissons Ratio (z) = -0.43476 -0.43476
#
# Static dielectric constant tensor:
#      x y z
#    x 1.765250 0.000000 0.000000 
#    y 0.000000 1.765250 0.000000 
#    z 0.000000 0.000000 2.022390 
# 
# From -- ./inp_files/3665.got.cif
#   From: 2010.05.17/outbox.cif.g08.bks.cpg/sg182_2_cif.got.tgz:3665.got - 2010.05.20 11:58:53.
