data_PCOD9584028
_publ_section_title
;
Structure prediction by ZEFSAII (Michael W. Deem and Ramdas Pophale) SiO2 
 PCOD9584028
Probable space group: P 62 2 2
;
_chemical_formula_sum "Si O2"
_cell_formula_units_Z 15
_cell_length_a 13.121284
_cell_length_b 13.121284
_cell_length_c 4.642235
_cell_angle_alpha 90.000000
_cell_angle_beta 90.000000
_cell_angle_gamma 120.000000
_cell_volume 692.166258
_symmetry_space_group_name_H-M "P 62 2 2"
_symmetry_group_IT_number 180
_symmetry_cell_setting 'hexagonal'
loop_
_space_group_symop_operation_xyz
x,y,z
x-y,x,1/3+z
-y,x-y,2/3+z
-x,-y,z
-x+y,-x,1/3+z
y,-x+y,2/3+z
x-y,-y,-z
-x,-x+y,1/3-z
y,x,2/3-z
-y,-x,2/3-z
-x+y,y,-z
x,x-y,1/3-z
loop_
_atom_site_type_symbol
_atom_site_label
_atom_site_fract_x
_atom_site_fract_y
_atom_site_fract_z
Si Si1 0.646228 0.646228 0.333334
Si Si2 0.000000 0.500000 0.166667
Si Si3 0.878220 0.756439 0.000000
O O1 0.604643 0.552331 0.595611
O O2 0.770012 0.673729 0.203509
O O3 0.000000 0.837239 0.166667
#
# Coordination Sequence:
#
# PCOD9584028 Si02
#       3
#     6   3   6
#     4  11  24  45  72 106 150 203 256 317 362 452
#     4  10  24  46  68  96 132 214 276 298 356 416
#     4  12  26  43  72 126 168 202 245 298 402 486
#
# _framework density 21.671094
#
# number of rings (size 3 to 8) (size 9 to 14) (size 15 to 20)
#    0.000    0.800    4.000    2.400    0.000    8.000 
#    0.000    0.000    0.000    9.600   20.800    0.000 
#    0.000    0.000    0.000    0.000    0.000    0.000 
#
# Total GULP energy -83534.697550 kJ/mol
# GULP energy per Si atom -5568.979837 kJ/mol
# Density = 2.162177 g / cm^3
# Si number density = 21.671094 Si / 1000 Ang^3
#
#
#
# Elastic Constant Matrix: (Units=GPa)
#
#
# Indices 1 2 3 4 5 6 
#
# 1 98.0608 92.4490 84.2674 0.0000 0.0000 0.0000
# 2 92.4490 98.0608 84.2674 0.0000 0.0000 0.0000
# 3 84.2674 84.2674 196.6015 0.0000 0.0000 0.0000
# 4 0.0000 0.0000 0.0000 68.9100 0.0000 0.0000
# 5 0.0000 0.0000 0.0000 0.0000 68.9100 0.0000
# 6 0.0000 0.0000 0.0000 0.0000 0.0000 2.8059
#
#
#
# Elastic Compliance Matrix: (Units=1/GPa)
#
#
# Indices 1 2 3 4 5 6 
#
# 1 0.093325 -0.084870 -0.003624 0.000000 0.000000 0.000000
# 2 -0.084870 0.093325 -0.003624 0.000000 0.000000 0.000000
# 3 -0.003624 -0.003624 0.008193 0.000000 0.000000 0.000000
# 4 0.000000 0.000000 0.000000 0.014512 0.000000 0.000000
# 5 0.000000 0.000000 0.000000 0.000000 0.014512 0.000000
# 6 0.000000 0.000000 0.000000 0.000000 0.000000 0.356390
#
#
# Mechanical properties :
#
#
# Convention : Reuss Voigt Hill
#
# Bulk Modulus (GPa) = 94.27593 101.63228 97.95410
# Shear Modulus (GPa) = 6.51018 36.90781 21.70899
#
# Velocity S-wave (km/s) = 1.73511 4.13133 3.16848
# Velocity P-wave (km/s) = 6.90012 8.35204 7.66056
#
# Compressibility (1/GPa) = 0.01060716
#
# Stress axis : x y z
#
# Youngs Moduli (GPa) = 10.71524 10.71524 122.05418
#
# Poissons Ratio (x) = 0.90940 0.44233
# Poissons Ratio (y) = 0.90940 0.44233
# Poissons Ratio (z) = 0.03883 0.03883
#
# Static dielectric constant tensor:
#      x y z
#    x 1.799900 0.000000 0.000000 
#    y 0.000000 1.799900 0.000000 
#    z 0.000000 0.000000 1.950250 
# 
# From -- ./inp_files/117.got.cif
#   From: 2010.05.17/outbox.cif.g08.bks.cpg/sg180_1_cif.got.tgz:117.got - 2010.05.20 11:43:55.
