data_PCOD9584837
_publ_section_title
;
Structure prediction by ZEFSAII (Michael W. Deem and Ramdas Pophale) SiO2 
 PCOD9584837
Probable space group: P 63 2 2
;
_chemical_formula_sum "Si O2"
_cell_formula_units_Z 60
_cell_length_a 14.701404
_cell_length_b 14.701404
_cell_length_c 14.574777
_cell_angle_alpha 90.000000
_cell_angle_beta 90.000000
_cell_angle_gamma 120.000000
_cell_volume 2728.036489
_symmetry_space_group_name_H-M "P 63 2 2"
_symmetry_group_IT_number 182
_symmetry_cell_setting 'hexagonal'
loop_
_space_group_symop_operation_xyz
x,y,z
x-y,x,1/2+z
-y,x-y,z
-x,-y,1/2+z
-x+y,-x,z
y,-x+y,1/2+z
x-y,-y,-z
-x,-x+y,-z
y,x,-z
-y,-x,1/2-z
-x+y,y,1/2-z
x,x-y,1/2-z
loop_
_atom_site_type_symbol
_atom_site_label
_atom_site_fract_x
_atom_site_fract_y
_atom_site_fract_z
Si Si1 0.114070 0.523406 0.037492
Si Si2 0.799015 0.905393 0.556367
Si Si3 0.164120 0.417165 0.496126
Si Si4 0.904891 0.095110 0.250000
Si Si5 0.733606 0.665969 0.703073
Si Si6 0.460812 0.921623 0.250000
O O1 0.193294 0.481588 0.019098
O O2 0.132614 0.627683 0.983863
O O3 0.127831 0.552614 0.146953
O O4 0.000000 0.436777 0.000000
O O5 0.860089 0.860089 0.500000
O O6 0.677459 0.815275 0.565493
O O7 0.857915 0.950138 0.651774
O O8 0.802522 0.000000 0.500000
O O9 0.100034 0.357284 0.403782
O O10 0.975588 0.218905 0.271902
O O11 0.823754 0.647508 0.750000
O O12 0.616131 0.584978 0.737696
#
# Coordination Sequence:
#
# PCOD9584837 Si02
#       6
#    12  12  12   6  12   6
#     4  11  24  41  67 101 135 177 230 290 354 420
#     4  12  26  46  67 101 139 187 240 290 353 428
#     4  11  23  44  67  99 143 180 232 297 356 427
#     4  12  28  42  74  99 146 197 226 302 368 430
#     4  11  22  45  68 106 136 182 241 296 360 430
#     4  10  24  40  70  99 134 177 230 298 354 418
#
# _framework density 21.993841
#
# number of rings (size 3 to 8) (size 9 to 14) (size 15 to 20)
#    0.000    0.800    4.000    3.000    5.600    0.000 
#    1.200    0.000    0.000    0.400    0.000    0.000 
#    0.000    0.000    0.000    0.000    0.000    0.000 
#
# Total GULP energy -334371.277530 kJ/mol
# GULP energy per Si atom -5572.854626 kJ/mol
# Density = 2.194378 g / cm^3
# Si number density = 21.993841 Si / 1000 Ang^3
#
#
#
# Elastic Constant Matrix: (Units=GPa)
#
#
# Indices 1 2 3 4 5 6 
#
# 1 112.9914 33.1459 12.5380 0.0000 0.0000 0.0000
# 2 33.1459 112.9914 12.5380 0.0000 0.0000 0.0000
# 3 12.5380 12.5380 95.3334 0.0000 0.0000 0.0000
# 4 0.0000 0.0000 0.0000 1.4172 0.0000 0.0000
# 5 0.0000 0.0000 0.0000 0.0000 1.4172 0.0000
# 6 0.0000 0.0000 0.0000 0.0000 0.0000 39.9228
#
#
#
# Elastic Compliance Matrix: (Units=1/GPa)
#
#
# Indices 1 2 3 4 5 6 
#
# 1 0.009763 -0.002762 -0.000921 0.000000 0.000000 0.000000
# 2 -0.002762 0.009763 -0.000921 0.000000 0.000000 0.000000
# 3 -0.000921 -0.000921 0.010732 0.000000 0.000000 0.000000
# 4 0.000000 0.000000 0.000000 0.705607 0.000000 0.000000
# 5 0.000000 0.000000 0.000000 0.000000 0.705607 0.000000
# 6 0.000000 0.000000 0.000000 0.000000 0.000000 0.025048
#
#
# Mechanical properties :
#
#
# Convention : Reuss Voigt Hill
#
# Bulk Modulus (GPa) = 47.50485 48.64000 48.07243
# Shear Modulus (GPa) = 3.37213 26.09106 14.73159
#
# Velocity S-wave (km/s) = 1.23957 3.44799 2.59087
# Velocity P-wave (km/s) = 4.86773 6.16562 5.55471
#
# Compressibility (1/GPa) = 0.02105048
#
# Stress axis : x y z
#
# Youngs Moduli (GPa) = 102.43247 102.43247 93.18197
#
# Poissons Ratio (x) = 0.28288 0.08580
# Poissons Ratio (y) = 0.28288 0.08580
# Poissons Ratio (z) = 0.09431 0.09431
#
# Static dielectric constant tensor:
#      x y z
#    x 1.817110 0.000000 0.000000 
#    y 0.000000 1.817110 0.000000 
#    z 0.000000 0.000000 1.768390 
# 
# From -- ./inp_files/3489.got.cif
#   From: 2010.05.17/outbox.cif.g08.bks.cpg/sg182_2_cif.got.tgz:3489.got - 2010.05.20 11:58:53.
