data_PCOD9584263
_publ_section_title
;
Structure prediction by ZEFSAII (Michael W. Deem and Ramdas Pophale) SiO2 
 PCOD9584263
Probable space group: P 64 2 2
;
_chemical_formula_sum "Si O2"
_cell_formula_units_Z 72
_cell_length_a 16.856729
_cell_length_b 16.856729
_cell_length_c 17.570451
_cell_angle_alpha 90.000000
_cell_angle_beta 90.000000
_cell_angle_gamma 120.000000
_cell_volume 4323.745774
_symmetry_space_group_name_H-M "P 64 2 2"
_symmetry_group_IT_number 181
_symmetry_cell_setting 'hexagonal'
loop_
_space_group_symop_operation_xyz
x,y,z
x-y,x,2/3+z
-y,x-y,1/3+z
-x,-y,z
-x+y,-x,2/3+z
y,-x+y,1/3+z
x-y,-y,-z
-x,-x+y,2/3-z
y,x,1/3-z
-y,-x,1/3-z
-x+y,y,-z
x,x-y,2/3-z
loop_
_atom_site_type_symbol
_atom_site_label
_atom_site_fract_x
_atom_site_fract_y
_atom_site_fract_z
Si Si1 0.578658 0.874225 0.807055
Si Si2 0.460405 0.356072 0.315567
Si Si3 0.643195 0.527469 0.306595
Si Si4 0.891931 0.645485 0.836151
Si Si5 0.907116 0.294516 0.518454
Si Si6 0.547517 0.110734 0.086523
O O1 0.614575 0.807287 0.833334
O O2 0.547741 0.852069 0.719448
O O3 0.491641 0.856792 0.858653
O O4 0.652546 0.982264 0.814919
O O5 0.568309 0.420462 0.300444
O O6 0.415666 0.421208 0.314246
O O7 0.410344 0.287090 0.247281
O O8 0.436007 0.312552 0.399013
O O9 0.705166 0.575096 0.233575
O O10 0.813506 0.672934 0.835707
O O11 0.000000 0.722486 0.833334
O O12 0.873517 0.343268 0.457534
O O13 0.500000 0.000000 0.084442
O O14 0.572528 0.145056 0.000000
#
# Coordination Sequence:
#
# PCOD9584263 Si02
#       6
#    12  12  12  12  12  12
#     4  10  20  34  53  75 101 133 169 209 252 299
#     4   9  16  32  53  70  95 130 164 200 250 301
#     4   9  17  31  51  74  96 125 163 206 250 297
#     4  10  20  31  51  78 102 134 174 210 242 293
#     4  10  19  34  54  73 101 136 170 206 251 300
#     4   9  18  33  53  72  93 128 167 205 251 302
#
# _framework density 16.652227
#
# number of rings (size 3 to 8) (size 9 to 14) (size 15 to 20)
#    0.000    2.500    1.667    1.000    2.333    2.000 
#    0.000    1.667    0.000    0.500    0.000    0.000 
#    0.000    8.000    0.000    0.000    0.000    0.667 
#
# Total GULP energy -400946.621088 kJ/mol
# GULP energy per Si atom -5568.703071 kJ/mol
# Density = 1.661433 g / cm^3
# Si number density = 16.652227 Si / 1000 Ang^3
#
#
#
# Elastic Constant Matrix: (Units=GPa)
#
#
# Indices 1 2 3 4 5 6 
#
# 1 72.3207 24.5117 18.0436 0.0000 0.0000 0.0000
# 2 24.5117 72.3207 18.0436 0.0000 0.0000 0.0000
# 3 18.0436 18.0436 103.1200 0.0000 0.0000 0.0000
# 4 0.0000 0.0000 0.0000 3.2574 0.0000 0.0000
# 5 0.0000 0.0000 0.0000 0.0000 3.2574 0.0000
# 6 0.0000 0.0000 0.0000 0.0000 0.0000 23.9045
#
#
#
# Elastic Compliance Matrix: (Units=1/GPa)
#
#
# Indices 1 2 3 4 5 6 
#
# 1 0.015982 -0.004935 -0.001933 0.000000 0.000000 0.000000
# 2 -0.004935 0.015982 -0.001933 0.000000 0.000000 0.000000
# 3 -0.001933 -0.001933 0.010374 0.000000 0.000000 0.000000
# 4 0.000000 0.000000 0.000000 0.306994 0.000000 0.000000
# 5 0.000000 0.000000 0.000000 0.000000 0.306994 0.000000
# 6 0.000000 0.000000 0.000000 0.000000 0.000000 0.041833
#
#
# Mechanical properties :
#
#
# Convention : Reuss Voigt Hill
#
# Bulk Modulus (GPa) = 40.42574 40.99551 40.71062
# Shear Modulus (GPa) = 6.90603 18.56135 12.73369
#
# Velocity S-wave (km/s) = 2.03868 3.34225 2.76829
# Velocity P-wave (km/s) = 5.46542 6.29017 5.89224
#
# Compressibility (1/GPa) = 0.02473671
#
# Stress axis : x y z
#
# Youngs Moduli (GPa) = 62.57020 62.57020 96.39558
#
# Poissons Ratio (x) = 0.30875 0.18634
# Poissons Ratio (y) = 0.30875 0.18634
# Poissons Ratio (z) = 0.12095 0.12095
#
# Static dielectric constant tensor:
#      x y z
#    x 1.567860 0.000000 0.000000 
#    y 0.000000 1.567860 0.000000 
#    z 0.000000 0.000000 1.576410 
# 
# From -- ./inp_files/7893.got.cif
#   From: 2010.05.17/outbox.cif.g08.bks.cpg/sg181_4_cif.got.tgz:7893.got - 2010.05.20 11:51:17.
