data_PCOD9584145
_publ_section_title
;
Structure prediction by ZEFSAII (Michael W. Deem and Ramdas Pophale) SiO2 
 PCOD9584145
Probable space group: P 62 2 2
;
_chemical_formula_sum "Si O2"
_cell_formula_units_Z 36
_cell_length_a 8.547712
_cell_length_b 8.547712
_cell_length_c 27.768302
_cell_angle_alpha 90.000000
_cell_angle_beta 90.000000
_cell_angle_gamma 120.000000
_cell_volume 1757.032188
_symmetry_space_group_name_H-M "P 62 2 2"
_symmetry_group_IT_number 180
_symmetry_cell_setting 'hexagonal'
loop_
_space_group_symop_operation_xyz
x,y,z
x-y,x,1/3+z
-y,x-y,2/3+z
-x,-y,z
-x+y,-x,1/3+z
y,-x+y,2/3+z
x-y,-y,-z
-x,-x+y,1/3-z
y,x,2/3-z
-y,-x,2/3-z
-x+y,y,-z
x,x-y,1/3-z
loop_
_atom_site_type_symbol
_atom_site_label
_atom_site_fract_x
_atom_site_fract_y
_atom_site_fract_z
Si Si1 0.320253 0.998228 0.057958
Si Si2 0.693571 0.017316 0.445883
Si Si3 0.297638 0.347637 0.043794
O O1 0.141629 0.829504 0.079754
O O2 0.500000 0.000000 0.076535
O O3 0.309128 0.178078 0.064146
O O4 0.331516 0.000000 0.000000
O O5 0.815687 0.211162 0.421597
O O6 0.500000 0.000000 0.447743
O O7 0.749520 0.000000 0.500000
O O8 0.500000 0.500000 0.029164
O O9 0.155718 0.311435 0.000000
#
# Coordination Sequence:
#
# PCOD9584145 Si02
#       3
#    12  12  12
#     4  11  24  41  68 100 134 177 230 281 332 401
#     4  11  25  46  70 101 140 181 226 279 344 409
#     4  12  25  41  68 101 136 180 230 284 338 402
#
# _framework density 20.489097999999998
#
# number of rings (size 3 to 8) (size 9 to 14) (size 15 to 20)
#    0.000    0.667    3.333    4.000    4.667    4.000 
#    0.000    0.000    0.000    0.000    0.000    0.000 
#    0.000    0.000    0.000    0.000    0.000    0.000 
#
# Total GULP energy -200860.471632 kJ/mol
# GULP energy per Si atom -5579.457545 kJ/mol
# Density = 2.044246 g / cm^3
# Si number density = 20.489098 Si / 1000 Ang^3
#
#
#
# Elastic Constant Matrix: (Units=GPa)
#
#
# Indices 1 2 3 4 5 6 
#
# 1 127.3100 50.3665 28.6134 0.0000 0.0000 0.0000
# 2 50.3665 127.3100 28.6134 0.0000 0.0000 0.0000
# 3 28.6134 28.6134 95.1412 0.0000 0.0000 0.0000
# 4 0.0000 0.0000 0.0000 30.0779 0.0000 0.0000
# 5 0.0000 0.0000 0.0000 0.0000 30.0779 0.0000
# 6 0.0000 0.0000 0.0000 0.0000 0.0000 38.4717
#
#
#
# Elastic Compliance Matrix: (Units=1/GPa)
#
#
# Indices 1 2 3 4 5 6 
#
# 1 0.009614 -0.003382 -0.001874 0.000000 0.000000 0.000000
# 2 -0.003382 0.009614 -0.001874 0.000000 0.000000 0.000000
# 3 -0.001874 -0.001874 0.011638 0.000000 0.000000 0.000000
# 4 0.000000 0.000000 0.000000 0.033247 0.000000 0.000000
# 5 0.000000 0.000000 0.000000 0.000000 0.033247 0.000000
# 6 0.000000 0.000000 0.000000 0.000000 0.000000 0.025993
#
#
# Mechanical properties :
#
#
# Convention : Reuss Voigt Hill
#
# Bulk Modulus (GPa) = 60.22321 62.77197 61.49759
# Shear Modulus (GPa) = 34.92841 35.87005 35.39923
#
# Velocity S-wave (km/s) = 4.13332 4.18866 4.16108
# Velocity P-wave (km/s) = 7.22743 7.35503 7.29151
#
# Compressibility (1/GPa) = 0.01660489
#
# Stress axis : x y z
#
# Youngs Moduli (GPa) = 104.01276 104.01276 85.92531
#
# Poissons Ratio (x) = 0.35181 0.16104
# Poissons Ratio (y) = 0.35181 0.16104
# Poissons Ratio (z) = 0.19494 0.19494
#
# Static dielectric constant tensor:
#      x y z
#    x 1.713130 0.000000 0.000000 
#    y 0.000000 1.713130 0.000000 
#    z 0.000000 0.000000 2.058520 
# 
# From -- ./inp_files/10756.got.cif
#   From: 2010.05.17/outbox.cif.g08.bks.cpg/sg180_6_cif.got.tgz:10756.got - 2010.05.20 11:43:55.
