data_PCOD9584908
_publ_section_title
;
Structure prediction by ZEFSAII (Michael W. Deem and Ramdas Pophale) SiO2 
 PCOD9584908
Probable space group: P 63 2 2
;
_chemical_formula_sum "Si O2"
_cell_formula_units_Z 66
_cell_length_a 21.000000
_cell_length_b 21.000000
_cell_length_c 9.000000
_cell_angle_alpha 90.000000
_cell_angle_beta 90.000000
_cell_angle_gamma 120.000000
_cell_volume 3437.254828
_symmetry_space_group_name_H-M "P 63 2 2"
_symmetry_group_IT_number 182
_symmetry_cell_setting 'hexagonal'
loop_
_space_group_symop_operation_xyz
x,y,z
x-y,x,1/2+z
-y,x-y,z
-x,-y,1/2+z
-x+y,-x,z
y,-x+y,1/2+z
x-y,-y,-z
-x,-x+y,-z
y,x,-z
-y,-x,1/2-z
-x+y,y,1/2-z
x,x-y,1/2-z
loop_
_atom_site_type_symbol
_atom_site_label
_atom_site_fract_x
_atom_site_fract_y
_atom_site_fract_z
Si Si1 0.667106 0.481862 0.427287
Si Si2 0.640601 0.717300 0.429679
Si Si3 0.126840 0.873161 0.920164
Si Si4 0.076700 0.359400 0.070321
Si Si5 0.050552 0.949449 0.750000
Si Si6 0.518138 0.185244 0.072713
O O1 0.697018 0.559280 0.513908
O O2 0.664841 0.495611 0.250000
O O3 0.729293 0.458587 0.447715
O O4 0.586207 0.413794 0.469487
O O5 0.656314 0.656314 0.500000
O O6 0.707324 0.794759 0.494932
O O7 0.643818 0.719590 0.250000
O O8 0.141250 0.858751 0.750000
O O9 0.081627 0.918375 0.886779
O O10 0.205243 0.912566 0.005067
O O11 0.137737 0.440720 0.013908
O O12 0.000000 0.343687 0.000000
O O13 0.960577 0.921154 0.750000
#
# Coordination Sequence:
#
# PCOD9584908 Si02
#       6
#    12  12  12  12   6  12
#     4  10  21  40  69 103 146 189 237 295 362 439
#     4  12  25  43  68 102 138 186 246 298 361 439
#     4  10  21  43  75 104 141 181 227 306 366 451
#     4  12  25  43  68 102 138 186 246 298 361 439
#     4   8  20  46  78 112 140 178 232 304 378 460
#     4  10  21  40  69 103 146 189 237 295 362 439
#
# _framework density 19.201370000000001
#
# number of rings (size 3 to 8) (size 9 to 14) (size 15 to 20)
#    0.727    0.727    1.818    4.182    0.000    2.909 
#    3.273    0.000    0.000    6.545    0.000    0.000 
#    0.000    0.000    0.000    0.000    0.000    0.000 
#
# Total GULP energy -367878.213152 kJ/mol
# GULP energy per Si atom -5573.912320 kJ/mol
# Density = 1.915767 g / cm^3
# Si number density = 19.201370 Si / 1000 Ang^3
#
#
#
# Elastic Constant Matrix: (Units=GPa)
#
#
# Indices 1 2 3 4 5 6 
#
# 1 144.1866 55.8852 53.0760 0.0000 0.0000 0.0000
# 2 55.8852 144.1866 53.0760 0.0000 0.0000 0.0000
# 3 53.0760 53.0760 147.0328 0.0000 0.0000 0.0000
# 4 0.0000 0.0000 0.0000 27.9939 0.0000 0.0000
# 5 0.0000 0.0000 0.0000 0.0000 27.9939 0.0000
# 6 0.0000 0.0000 0.0000 0.0000 0.0000 44.1507
#
#
#
# Elastic Compliance Matrix: (Units=1/GPa)
#
#
# Indices 1 2 3 4 5 6 
#
# 1 0.008754 -0.002571 -0.002232 0.000000 0.000000 0.000000
# 2 -0.002571 0.008754 -0.002232 0.000000 0.000000 0.000000
# 3 -0.002232 -0.002232 0.008412 0.000000 0.000000 0.000000
# 4 0.000000 0.000000 0.000000 0.035722 0.000000 0.000000
# 5 0.000000 0.000000 0.000000 0.000000 0.035722 0.000000
# 6 0.000000 0.000000 0.000000 0.000000 0.000000 0.022650
#
#
# Mechanical properties :
#
#
# Convention : Reuss Voigt Hill
#
# Bulk Modulus (GPa) = 84.38670 84.38670 84.38670
# Shear Modulus (GPa) = 36.22331 38.25230 37.23780
#
# Velocity S-wave (km/s) = 4.34809 4.46821 4.40856
# Velocity P-wave (km/s) = 8.32175 8.40616 8.36406
#
# Compressibility (1/GPa) = 0.01185021
#
# Stress axis : x y z
#
# Youngs Moduli (GPa) = 114.23927 114.23927 118.87229
#
# Poissons Ratio (x) = 0.29374 0.26528
# Poissons Ratio (y) = 0.29374 0.26528
# Poissons Ratio (z) = 0.25495 0.25495
#
# Static dielectric constant tensor:
#      x y z
#    x 1.700250 0.000000 0.000000 
#    y 0.000000 1.700250 0.000000 
#    z 0.000000 0.000000 1.664770 
# 
# From -- ./inp_files/1814.got.cif
#   From: 2010.05.17/outbox.ucp.g08.bks.cvg/sg182_1_cif.got.tgz:1814.got - 2010.06.11 15:20:57.
