data_PCOD9584725
_publ_section_title
;
Structure prediction by ZEFSAII (Michael W. Deem and Ramdas Pophale) SiO2 
 PCOD9584725
Probable space group: P 63 2 2
;
_chemical_formula_sum "Si O2"
_cell_formula_units_Z 48
_cell_length_a 11.523675
_cell_length_b 11.523675
_cell_length_c 19.252939
_cell_angle_alpha 90.000000
_cell_angle_beta 90.000000
_cell_angle_gamma 120.000000
_cell_volume 2214.163409
_symmetry_space_group_name_H-M "P 63 2 2"
_symmetry_group_IT_number 182
_symmetry_cell_setting 'hexagonal'
loop_
_space_group_symop_operation_xyz
x,y,z
x-y,x,1/2+z
-y,x-y,z
-x,-y,1/2+z
-x+y,-x,z
y,-x+y,1/2+z
x-y,-y,-z
-x,-x+y,-z
y,x,-z
-y,-x,1/2-z
-x+y,y,1/2-z
x,x-y,1/2-z
loop_
_atom_site_type_symbol
_atom_site_label
_atom_site_fract_x
_atom_site_fract_y
_atom_site_fract_z
Si Si1 0.779292 0.671362 0.682066
Si Si2 0.000000 0.440354 0.500000
Si Si3 0.010994 0.628373 0.381578
Si Si4 0.826475 0.093543 0.059185
Si Si5 0.493844 0.506157 0.750000
O O1 0.870702 0.741404 0.750000
O O2 0.766819 0.769846 0.628093
O O3 0.633705 0.564105 0.709790
O O4 0.849689 0.597901 0.645889
O O5 0.966318 0.504668 0.563903
O O6 0.111999 0.405295 0.526010
O O7 0.941839 0.703542 0.418915
O O8 0.926361 0.536569 0.314990
O O9 0.838605 0.000000 0.000000
#
# Coordination Sequence:
#
# PCOD9584725 Si02
#       5
#    12   6  12  12   6
#     4  10  22  41  66  96 134 178 233 282 345 415
#     4  10  22  42  64  98 134 172 224 280 346 412
#     4  11  22  42  70  93 141 177 224 299 335 427
#     4  10  22  43  64  99 134 172 237 277 346 422
#     4  10  20  42  62 102 132 178 226 290 344 412
#
# _framework density 21.678616000000002
#
# number of rings (size 3 to 8) (size 9 to 14) (size 15 to 20)
#    0.750    1.000    2.500    1.500    0.000    4.000 
#   23.250    5.000    2.750    0.000    0.000    0.000 
#    0.000    0.000    0.000    0.000    0.000    0.000 
#
# Total GULP energy -267433.042583 kJ/mol
# GULP energy per Si atom -5571.521720 kJ/mol
# Density = 2.162927 g / cm^3
# Si number density = 21.678616 Si / 1000 Ang^3
#
#
#
# Elastic Constant Matrix: (Units=GPa)
#
#
# Indices 1 2 3 4 5 6 
#
# 1 40.6369 17.5274 37.5512 0.0000 0.0000 0.0000
# 2 17.5274 40.6369 37.5512 0.0000 0.0000 0.0000
# 3 37.5512 37.5512 163.4225 0.0000 0.0000 0.0000
# 4 0.0000 0.0000 0.0000 26.6474 0.0000 0.0000
# 5 0.0000 0.0000 0.0000 0.0000 26.6474 0.0000
# 6 0.0000 0.0000 0.0000 0.0000 0.0000 11.5547
#
#
#
# Elastic Compliance Matrix: (Units=1/GPa)
#
#
# Indices 1 2 3 4 5 6 
#
# 1 0.033859 -0.009413 -0.005617 0.000000 0.000000 0.000000
# 2 -0.009413 0.033859 -0.005617 0.000000 0.000000 0.000000
# 3 -0.005617 -0.005617 0.008701 0.000000 0.000000 0.000000
# 4 0.000000 0.000000 0.000000 0.037527 0.000000 0.000000
# 5 0.000000 0.000000 0.000000 0.000000 0.037527 0.000000
# 6 0.000000 0.000000 0.000000 0.000000 0.000000 0.086545
#
#
# Mechanical properties :
#
#
# Convention : Reuss Voigt Hill
#
# Bulk Modulus (GPa) = 28.47120 47.77289 38.12204
# Shear Modulus (GPa) = 17.18094 23.10767 20.14431
#
# Velocity S-wave (km/s) = 2.81824 3.26839 3.05163
# Velocity P-wave (km/s) = 4.87358 6.02726 5.48086
#
# Compressibility (1/GPa) = 0.03512321
#
# Stress axis : x y z
#
# Youngs Moduli (GPa) = 29.53429 29.53429 114.93588
#
# Poissons Ratio (x) = 0.27802 0.64561
# Poissons Ratio (y) = 0.27802 0.64561
# Poissons Ratio (z) = 0.16590 0.16590
#
# Static dielectric constant tensor:
#      x y z
#    x 1.777660 0.000000 0.000000 
#    y 0.000000 1.777660 0.000000 
#    z 0.000000 0.000000 1.893240 
# 
# From -- ./inp_files/4754.got.cif
#   From: 2010.05.17/outbox.cif.g08.bks.cpg/sg182_3_cif.got.tgz:4754.got - 2010.05.20 11:58:53.
