data_PCOD9584573
_publ_section_title
;
Structure prediction by ZEFSAII (Michael W. Deem and Ramdas Pophale) SiO2 
 PCOD9584573
Probable space group: P 64 2 2
;
_chemical_formula_sum "Si O2"
_cell_formula_units_Z 54
_cell_length_a 11.715513
_cell_length_b 11.715513
_cell_length_c 22.334180
_cell_angle_alpha 90.000000
_cell_angle_beta 90.000000
_cell_angle_gamma 120.000000
_cell_volume 2654.747767
_symmetry_space_group_name_H-M "P 64 2 2"
_symmetry_group_IT_number 181
_symmetry_cell_setting 'hexagonal'
loop_
_space_group_symop_operation_xyz
x,y,z
x-y,x,2/3+z
-y,x-y,1/3+z
-x,-y,z
-x+y,-x,2/3+z
y,-x+y,1/3+z
x-y,-y,-z
-x,-x+y,2/3-z
y,x,1/3-z
-y,-x,1/3-z
-x+y,y,-z
x,x-y,2/3-z
loop_
_atom_site_type_symbol
_atom_site_label
_atom_site_fract_x
_atom_site_fract_y
_atom_site_fract_z
Si Si1 0.243533 0.621767 0.333334
Si Si2 0.154455 0.110122 0.265637
Si Si3 0.425072 0.794113 0.779779
Si Si4 0.697104 0.673468 0.856674
Si Si5 0.238616 0.329155 0.722588
O O1 0.331988 0.608822 0.383609
O O2 0.159942 0.680627 0.365565
O O3 0.193938 0.096969 0.333334
O O4 0.233060 0.072796 0.218168
O O5 0.173203 0.256404 0.261238
O O6 0.000000 0.000000 0.258301
O O7 0.382330 0.691165 0.833334
O O8 0.352720 0.876471 0.791199
O O9 0.582939 0.886779 0.783847
O O10 0.696851 0.680369 0.784563
O O11 0.247013 0.247013 0.666667
#
# Coordination Sequence:
#
# PCOD9584573 Si02
#       5
#     6  12  12  12  12
#     4  12  25  44  72  98 143 188 238 284 352 422
#     4  11  24  46  68 104 140 182 231 289 363 423
#     4  11  24  46  69 102 136 186 233 289 354 424
#     4  11  26  44  72 103 140 180 237 294 355 424
#     4  12  24  43  70 106 139 183 231 297 351 421
#
# _framework density 20.340914999999999
#
# number of rings (size 3 to 8) (size 9 to 14) (size 15 to 20)
#    0.000    0.667    4.444    3.667    7.778    0.889 
#    0.000    0.000    0.000    0.000    0.000    0.000 
#    0.000    0.000    0.000    0.000    0.000    0.000 
#
# Total GULP energy -301972.246842 kJ/mol
# GULP energy per Si atom -5592.078645 kJ/mol
# Density = 2.029462 g / cm^3
# Si number density = 20.340915 Si / 1000 Ang^3
#
#
#
# Elastic Constant Matrix: (Units=GPa)
#
#
# Indices 1 2 3 4 5 6 
#
# 1 99.8900 47.3733 55.1487 0.0000 0.0000 0.0000
# 2 47.3733 99.8900 55.1487 0.0000 0.0000 0.0000
# 3 55.1487 55.1487 182.9390 0.0000 0.0000 0.0000
# 4 0.0000 0.0000 0.0000 26.8812 0.0000 0.0000
# 5 0.0000 0.0000 0.0000 0.0000 26.8812 0.0000
# 6 0.0000 0.0000 0.0000 0.0000 0.0000 26.2583
#
#
#
# Elastic Compliance Matrix: (Units=1/GPa)
#
#
# Indices 1 2 3 4 5 6 
#
# 1 0.013906 -0.005135 -0.002644 0.000000 0.000000 0.000000
# 2 -0.005135 0.013906 -0.002644 0.000000 0.000000 0.000000
# 3 -0.002644 -0.002644 0.007060 0.000000 0.000000 0.000000
# 4 0.000000 0.000000 0.000000 0.037201 0.000000 0.000000
# 5 0.000000 0.000000 0.000000 0.000000 0.037201 0.000000
# 6 0.000000 0.000000 0.000000 0.000000 0.000000 0.038083
#
#
# Mechanical properties :
#
#
# Convention : Reuss Voigt Hill
#
# Bulk Modulus (GPa) = 71.29614 77.56226 74.42920
# Shear Modulus (GPa) = 28.92182 31.00736 29.96459
#
# Velocity S-wave (km/s) = 3.77484 3.90857 3.84229
# Velocity P-wave (km/s) = 7.35703 7.65396 7.50697
#
# Compressibility (1/GPa) = 0.01402600
#
# Stress axis : x y z
#
# Youngs Moduli (GPa) = 71.91014 71.91014 141.63370
#
# Poissons Ratio (x) = 0.36928 0.37449
# Poissons Ratio (y) = 0.36928 0.37449
# Poissons Ratio (z) = 0.19014 0.19014
#
# Static dielectric constant tensor:
#      x y z
#    x 1.726690 0.000000 0.000000 
#    y 0.000000 1.726690 0.000000 
#    z 0.000000 0.000000 1.692550 
# 
# From -- ./inp_files/8759.got.cif
#   From: 2010.05.17/outbox.cif.g08.bks.cpg/sg181_5_cif.got.tgz:8759.got - 2010.05.20 11:51:17.
