data_PCOD9584850
_publ_section_title
;
Structure prediction by ZEFSAII (Michael W. Deem and Ramdas Pophale) SiO2 
 PCOD9584850
Probable space group: P 63 2 2
;
_chemical_formula_sum "Si O2"
_cell_formula_units_Z 24
_cell_length_a 13.045680
_cell_length_b 13.045680
_cell_length_c 7.454202
_cell_angle_alpha 90.000000
_cell_angle_beta 90.000000
_cell_angle_gamma 120.000000
_cell_volume 1098.664855
_symmetry_space_group_name_H-M "P 63 2 2"
_symmetry_group_IT_number 182
_symmetry_cell_setting 'hexagonal'
loop_
_space_group_symop_operation_xyz
x,y,z
x-y,x,1/2+z
-y,x-y,z
-x,-y,1/2+z
-x+y,-x,z
y,-x+y,1/2+z
x-y,-y,-z
-x,-x+y,-z
y,x,-z
-y,-x,1/2-z
-x+y,y,1/2-z
x,x-y,1/2-z
loop_
_atom_site_type_symbol
_atom_site_label
_atom_site_fract_x
_atom_site_fract_y
_atom_site_fract_z
Si Si1 0.239619 0.998724 0.708793
Si Si2 0.415945 0.415945 0.500000
Si Si3 0.590489 0.409512 0.750000
O O1 0.247825 0.123913 0.750000
O O2 0.327886 0.977321 0.833818
O O3 0.267206 0.000000 0.500000
O O4 0.107515 0.892486 0.750000
O O5 0.539570 0.435224 0.572239
O O6 0.537886 0.268943 0.750000
#
# Coordination Sequence:
#
# PCOD9584850 Si02
#       3
#    12   6   6
#     4  12  24  42  71 112 158 206 263 322 399 471
#     4  12  26  46  80 100 150 208 252 340 400 474
#     4  10  28  52  76 114 156 194 274 334 396 496
#
# _framework density 21.844695999999999
#
# number of rings (size 3 to 8) (size 9 to 14) (size 15 to 20)
#    0.500    0.000    5.000    2.000    3.500    0.000 
#    0.000    0.000    0.000    0.000    0.000    0.000 
#    0.000    0.000    0.000    0.000    0.000    0.000 
#
# Total GULP energy -134225.708455 kJ/mol
# GULP energy per Si atom -5592.737852 kJ/mol
# Density = 2.179498 g / cm^3
# Si number density = 21.844696 Si / 1000 Ang^3
#
#
#
# Elastic Constant Matrix: (Units=GPa)
#
#
# Indices 1 2 3 4 5 6 
#
# 1 122.8239 68.8865 69.4598 0.0000 0.0000 0.0000
# 2 68.8865 122.8239 69.4598 0.0000 0.0000 0.0000
# 3 69.4598 69.4598 223.5432 0.0000 0.0000 0.0000
# 4 0.0000 0.0000 0.0000 51.4502 0.0000 0.0000
# 5 0.0000 0.0000 0.0000 0.0000 51.4502 0.0000
# 6 0.0000 0.0000 0.0000 0.0000 0.0000 26.9687
#
#
#
# Elastic Compliance Matrix: (Units=1/GPa)
#
#
# Indices 1 2 3 4 5 6 
#
# 1 0.012636 -0.005904 -0.002092 0.000000 0.000000 0.000000
# 2 -0.005904 0.012636 -0.002092 0.000000 0.000000 0.000000
# 3 -0.002092 -0.002092 0.005773 0.000000 0.000000 0.000000
# 4 0.000000 0.000000 0.000000 0.019436 0.000000 0.000000
# 5 0.000000 0.000000 0.000000 0.000000 0.019436 0.000000
# 6 0.000000 0.000000 0.000000 0.000000 0.000000 0.037080
#
#
# Mechanical properties :
#
#
# Convention : Reuss Voigt Hill
#
# Bulk Modulus (GPa) = 91.99484 98.31148 95.15316
# Shear Modulus (GPa) = 38.22737 43.39949 40.81343
#
# Velocity S-wave (km/s) = 4.18779 4.46211 4.32713
# Velocity P-wave (km/s) = 8.09864 8.46461 8.28365
#
# Compressibility (1/GPa) = 0.01087018
#
# Stress axis : x y z
#
# Youngs Moduli (GPa) = 79.13908 79.13908 173.21042
#
# Poissons Ratio (x) = 0.46724 0.36232
# Poissons Ratio (y) = 0.46724 0.36232
# Poissons Ratio (z) = 0.16554 0.16554
#
# Static dielectric constant tensor:
#      x y z
#    x 1.833730 0.000000 0.000000 
#    y 0.000000 1.833730 0.000000 
#    z 0.000000 0.000000 1.768740 
# 
# From -- ./inp_files/997.got.cif
#   From: 2010.05.17/outbox.cif.g08.bks.cpg/sg182_1_cif.got.tgz:997.got - 2010.05.20 11:58:53.
