data_PCOD9584077
_publ_section_title
;
Structure prediction by ZEFSAII (Michael W. Deem and Ramdas Pophale) SiO2 
 PCOD9584077
Probable space group: P 62 2 2
;
_chemical_formula_sum "Si O2"
_cell_formula_units_Z 84
_cell_length_a 16.265854
_cell_length_b 16.265854
_cell_length_c 23.778752
_cell_angle_alpha 90.000000
_cell_angle_beta 90.000000
_cell_angle_gamma 120.000000
_cell_volume 5448.455758
_symmetry_space_group_name_H-M "P 62 2 2"
_symmetry_group_IT_number 180
_symmetry_cell_setting 'hexagonal'
loop_
_space_group_symop_operation_xyz
x,y,z
x-y,x,1/3+z
-y,x-y,2/3+z
-x,-y,z
-x+y,-x,1/3+z
y,-x+y,2/3+z
x-y,-y,-z
-x,-x+y,1/3-z
y,x,2/3-z
-y,-x,2/3-z
-x+y,y,-z
x,x-y,1/3-z
loop_
_atom_site_type_symbol
_atom_site_label
_atom_site_fract_x
_atom_site_fract_y
_atom_site_fract_z
Si Si1 0.603902 0.009022 0.234670
Si Si2 0.347811 0.458520 0.347621
Si Si3 0.781691 0.450245 0.054790
Si Si4 0.150105 0.484175 0.521439
Si Si5 0.594145 0.989058 0.635862
Si Si6 0.200687 0.694021 0.490437
Si Si7 0.808962 0.269444 0.064326
O O1 0.586157 0.930312 0.188625
O O2 0.627251 0.001157 0.299055
O O3 0.500000 0.000000 0.237847
O O4 0.680555 0.110524 0.210968
O O5 0.387228 0.387228 0.333334
O O6 0.435503 0.564498 0.333334
O O7 0.327399 0.454000 0.414021
O O8 0.255549 0.439935 0.312034
O O9 0.724308 0.440857 0.111452
O O10 0.793243 0.358058 0.050038
O O11 0.882637 0.548497 0.054726
O O12 0.726010 0.452019 0.000000
O O13 0.245630 0.491260 0.500000
O O14 0.165731 0.590042 0.516096
O O15 0.681570 0.077103 0.605218
O O16 0.500000 0.000000 0.634053
O O17 0.233437 0.768406 0.540495
#
# Coordination Sequence:
#
# PCOD9584077 Si02
#       7
#    12  12  12  12  12  12  12
#     4   9  18  32  47  63  92 126 165 200 244 290
#     4  11  22  34  48  72 105 135 167 208 257 300
#     4  11  21  33  50  70  94 130 169 209 245 290
#     4  11  21  31  48  71  95 131 172 207 243 302
#     4   9  19  34  49  68  93 127 164 208 252 290
#     4  11  21  32  48  70  94 129 170 210 246 294
#     4  11  21  33  50  71  98 131 165 207 251 297
#
# _framework density 15.417213
#
# number of rings (size 3 to 8) (size 9 to 14) (size 15 to 20)
#    0.000    1.571    2.857    3.429    8.000    0.571 
#    0.000    2.143    0.000    0.000    0.000    0.000 
#    0.000    0.571    0.286    2.000    0.000    0.000 
#
# Total GULP energy -468335.758889 kJ/mol
# GULP energy per Si atom -5575.425701 kJ/mol
# Density = 1.538212 g / cm^3
# Si number density = 15.417213 Si / 1000 Ang^3
#
#
#
# Elastic Constant Matrix: (Units=GPa)
#
#
# Indices 1 2 3 4 5 6 
#
# 1 57.0198 -8.6667 11.9155 0.0000 0.0000 0.0000
# 2 -8.6667 57.0198 11.9155 0.0000 0.0000 0.0000
# 3 11.9155 11.9155 78.2961 0.0000 0.0000 0.0000
# 4 0.0000 0.0000 0.0000 16.8150 0.0000 0.0000
# 5 0.0000 0.0000 0.0000 0.0000 16.8150 0.0000
# 6 0.0000 0.0000 0.0000 0.0000 0.0000 32.8432
#
#
#
# Elastic Compliance Matrix: (Units=1/GPa)
#
#
# Indices 1 2 3 4 5 6 
#
# 1 0.018791 0.003567 -0.003403 0.000000 0.000000 0.000000
# 2 0.003567 0.018791 -0.003403 0.000000 0.000000 0.000000
# 3 -0.003403 -0.003403 0.013808 0.000000 0.000000 0.000000
# 4 0.000000 0.000000 0.000000 0.059471 0.000000 0.000000
# 5 0.000000 0.000000 0.000000 0.000000 0.059471 0.000000
# 6 0.000000 0.000000 0.000000 0.000000 0.000000 0.030448
#
#
# Mechanical properties :
#
#
# Convention : Reuss Voigt Hill
#
# Bulk Modulus (GPa) = 22.26493 24.74049 23.50271
# Shear Modulus (GPa) = 22.49960 25.10606 23.80283
#
# Velocity S-wave (km/s) = 3.82433 4.03978 3.93353
# Velocity P-wave (km/s) = 5.82869 6.15157 5.99231
#
# Compressibility (1/GPa) = 0.04491369
#
# Stress axis : x y z
#
# Youngs Moduli (GPa) = 53.21692 53.21692 72.42343
#
# Poissons Ratio (x) = -0.18983 0.24643
# Poissons Ratio (y) = -0.18983 0.24643
# Poissons Ratio (z) = 0.18108 0.18108
#
# Static dielectric constant tensor:
#      x y z
#    x 1.481920 0.000000 0.000000 
#    y 0.000000 1.481920 0.000000 
#    z 0.000000 0.000000 1.582970 
# 
# From -- ./inp_files/10258.got.cif
#   From: 2010.05.17/outbox.cif.g08.bks.cpg/sg180_6_cif.got.tgz:10258.got - 2010.05.20 11:43:55.
