data_PCOD9584914
_publ_section_title
;
Structure prediction by ZEFSAII (Michael W. Deem and Ramdas Pophale) SiO2 
 PCOD9584914
Probable space group: P 6 M M
;
_chemical_formula_sum "Si O2"
_cell_formula_units_Z 96
_cell_length_a 23.724120
_cell_length_b 23.724120
_cell_length_c 12.174439
_cell_angle_alpha 90.000000
_cell_angle_beta 90.000000
_cell_angle_gamma 120.000000
_cell_volume 5934.167680
_symmetry_space_group_name_H-M "P 6 M M"
_symmetry_group_IT_number 183
_symmetry_cell_setting 'hexagonal'
loop_
_space_group_symop_operation_xyz
x,y,z
x-y,x,z
-y,x-y,z
-x,-y,z
-x+y,-x,z
y,-x+y,z
-x+y,y,z
x,x-y,z
-y,-x,z
y,x,z
x-y,-y,z
-x,-x+y,z
loop_
_atom_site_type_symbol
_atom_site_label
_atom_site_fract_x
_atom_site_fract_y
_atom_site_fract_z
Si Si1 0.728607 0.593957 0.166070
Si Si2 0.925394 0.204076 0.305593
Si Si3 0.335787 0.800627 0.781298
Si Si4 0.176095 0.688650 0.540608
Si Si5 0.865351 0.593958 0.915139
Si Si6 0.535160 0.335787 0.299915
Si Si7 0.074606 0.278680 0.775622
Si Si8 0.260818 0.335725 0.540609
O O1 0.796450 0.592899 0.164555
O O2 0.746865 0.659700 0.231058
O O3 0.679148 0.528480 0.230190
O O4 0.708830 0.594636 0.040605
O O5 0.869571 0.130430 0.278906
O O6 0.914673 0.219306 0.430832
O O7 0.000000 0.222114 0.293429
O O8 0.399080 0.798159 0.818752
O O9 0.271175 0.728826 0.787847
O O10 0.344608 0.823139 0.654234
O O11 0.320854 0.849334 0.851021
O O12 0.243163 0.756838 0.540609
O O13 0.176861 0.655394 0.426979
O O14 0.120384 0.707718 0.540611
O O15 0.796449 0.592898 0.916653
O O16 0.912835 0.659702 0.850154
O O17 0.542350 0.271175 0.293366
O O18 0.600921 0.399080 0.262464
O O19 0.130428 0.260856 0.802312
O O20 0.085327 0.304630 0.650383
O O21 0.000000 0.222112 0.787786
O O22 0.316564 0.316564 0.540611
#
# Coordination Sequence:
#
# PCOD9584914 Si02
#       8
#    12  12  12  12  12  12  12  12
#     4   9  18  32  49  69  94 128 169 209 246 285
#     4  10  19  32  53  79 105 130 160 199 240 284
#     4  10  19  30  47  70  98 129 165 209 258 307
#     4  10  17  29  48  68  95 129 166 206 250 301
#     4   9  18  32  49  69  94 128 169 209 246 285
#     4  10  19  30  47  70  98 129 165 209 258 307
#     4  10  19  32  53  79 105 130 160 199 240 284
#     4  10  18  29  51  78 101 125 158 201 247 290
#
# _framework density 16.177499000000001
#
# number of rings (size 3 to 8) (size 9 to 14) (size 15 to 20)
#    0.000    2.250    2.500    1.750    0.000    1.000 
#    0.000    1.250    0.000    5.500    0.000    1.750 
#    0.000    3.000    0.000    6.250    0.000    0.000 
#
# Total GULP energy -535025.956989 kJ/mol
# GULP energy per Si atom -5573.187052 kJ/mol
# Density = 1.614068 g / cm^3
# Si number density = 16.177499 Si / 1000 Ang^3
#
#
#
# Elastic Constant Matrix: (Units=GPa)
#
#
# Indices 1 2 3 4 5 6 
#
# 1 85.7451 44.8315 32.1276 0.0000 0.0000 0.0000
# 2 44.8315 85.7451 32.1276 0.0000 0.0000 0.0000
# 3 32.1276 32.1276 107.0555 0.0000 0.0000 0.0000
# 4 0.0000 0.0000 0.0000 0.5121 0.0000 0.0000
# 5 0.0000 0.0000 0.0000 0.0000 0.5121 0.0000
# 6 0.0000 0.0000 0.0000 0.0000 0.0000 20.4568
#
#
#
# Elastic Compliance Matrix: (Units=1/GPa)
#
#
# Indices 1 2 3 4 5 6 
#
# 1 0.016714 -0.007728 -0.002696 0.000000 0.000000 0.000000
# 2 -0.007728 0.016714 -0.002696 0.000000 0.000000 0.000000
# 3 -0.002696 -0.002696 0.010959 0.000000 0.000000 0.000000
# 4 0.000000 0.000000 0.000000 1.952773 0.000000 0.000000
# 5 0.000000 0.000000 0.000000 0.000000 1.952773 0.000000
# 6 0.000000 0.000000 0.000000 0.000000 0.000000 0.048884
#
#
# Mechanical properties :
#
#
# Convention : Reuss Voigt Hill
#
# Bulk Modulus (GPa) = 55.11486 55.19100 55.15293
# Shear Modulus (GPa) = 1.24035 15.59345 8.41690
#
# Velocity S-wave (km/s) = 0.87657 3.10804 2.28345
# Velocity P-wave (km/s) = 5.93020 6.86075 6.41238
#
# Compressibility (1/GPa) = 0.01814393
#
# Stress axis : x y z
#
# Youngs Moduli (GPa) = 59.83178 59.83178 91.24585
#
# Poissons Ratio (x) = 0.46240 0.24604
# Poissons Ratio (y) = 0.46240 0.24604
# Poissons Ratio (z) = 0.16134 0.16134
#
# Static dielectric constant tensor:
#      x y z
#    x 1.528000 0.000000 0.000000 
#    y 0.000000 1.528000 0.000000 
#    z 0.000000 0.000000 1.564480 
# 
# From -- ./inp_files/1974.got.cif
#   From: 2010.05.17/outbox.cif.g08.bks.cpg/sg183_1_cif.got.tgz:1974.got - 2010.05.20 12:02:58.
