data_PCOD9584793
_publ_section_title
;
Structure prediction by ZEFSAII (Michael W. Deem and Ramdas Pophale) SiO2 
 PCOD9584793
Probable space group: P 63 2 2
;
_chemical_formula_sum "Si O2"
_cell_formula_units_Z 70
_cell_length_a 14.883586
_cell_length_b 14.883586
_cell_length_c 17.846076
_cell_angle_alpha 90.000000
_cell_angle_beta 90.000000
_cell_angle_gamma 120.000000
_cell_volume 3423.643473
_symmetry_space_group_name_H-M "P 63 2 2"
_symmetry_group_IT_number 182
_symmetry_cell_setting 'hexagonal'
loop_
_space_group_symop_operation_xyz
x,y,z
x-y,x,1/2+z
-y,x-y,z
-x,-y,1/2+z
-x+y,-x,z
y,-x+y,1/2+z
x-y,-y,-z
-x,-x+y,-z
y,x,-z
-y,-x,1/2-z
-x+y,y,1/2-z
x,x-y,1/2-z
loop_
_atom_site_type_symbol
_atom_site_label
_atom_site_fract_x
_atom_site_fract_y
_atom_site_fract_z
Si Si1 0.973373 0.311468 0.622235
Si Si2 0.364709 0.286999 0.271884
Si Si3 0.859582 0.508387 0.413606
Si Si4 0.841815 0.073430 0.634563
Si Si5 0.712674 0.712674 0.000000
Si Si6 0.000000 0.000000 0.160756
Si Si7 0.456010 0.142825 0.478594
O O1 0.918423 0.193706 0.652102
O O2 0.891481 0.320477 0.565801
O O3 0.022311 0.377629 0.697948
O O4 0.073789 0.349849 0.568390
O O5 0.345000 0.172500 0.250000
O O6 0.466916 0.335988 0.325152
O O7 0.260782 0.271306 0.314520
O O8 0.941794 0.619270 0.444612
O O9 0.887340 0.424493 0.443700
O O10 0.755900 0.493533 0.454276
O O11 0.809050 0.075925 0.549366
O O12 0.904196 0.012309 0.635895
O O13 0.000000 0.000000 0.250000
#
# Coordination Sequence:
#
# PCOD9584793 Si02
#       7
#    12  12  12  12   6   4  12
#     4  11  22  41  63  99 131 178 217 283 337 411
#     4  11  22  41  68  99 142 178 223 273 335 415
#     4  11  23  45  66 100 127 174 221 288 344 403
#     4  11  23  36  63  92 141 183 222 261 323 397
#     4  10  22  40  60  94 130 170 222 270 320 406
#     4  12  24  34  53  94 141 186 229 260 313 385
#     4  11  24  41  72  93 132 166 232 285 350 405
#
# _framework density 20.446055000000001
#
# number of rings (size 3 to 8) (size 9 to 14) (size 15 to 20)
#    0.000    1.029    3.429    4.457    2.400    1.371 
#    0.000    0.000    0.000    0.000    0.000    0.000 
#    0.000    0.000    0.000    0.000    0.000    0.000 
#
# Total GULP energy -390015.645620 kJ/mol
# GULP energy per Si atom -5571.652080 kJ/mol
# Density = 2.039952 g / cm^3
# Si number density = 20.446055 Si / 1000 Ang^3
#
#
#
# Elastic Constant Matrix: (Units=GPa)
#
#
# Indices 1 2 3 4 5 6 
#
# 1 64.6075 10.2078 33.2154 0.0000 0.0000 0.0000
# 2 10.2078 64.6075 33.2154 0.0000 0.0000 0.0000
# 3 33.2154 33.2154 124.1830 0.0000 0.0000 0.0000
# 4 0.0000 0.0000 0.0000 25.2270 0.0000 0.0000
# 5 0.0000 0.0000 0.0000 0.0000 25.2270 0.0000
# 6 0.0000 0.0000 0.0000 0.0000 0.0000 27.1999
#
#
#
# Elastic Compliance Matrix: (Units=1/GPa)
#
#
# Indices 1 2 3 4 5 6 
#
# 1 0.017956 -0.000427 -0.004689 0.000000 0.000000 0.000000
# 2 -0.000427 0.017956 -0.004689 0.000000 0.000000 0.000000
# 3 -0.004689 -0.004689 0.010561 0.000000 0.000000 0.000000
# 4 0.000000 0.000000 0.000000 0.039640 0.000000 0.000000
# 5 0.000000 0.000000 0.000000 0.000000 0.039640 0.000000
# 6 0.000000 0.000000 0.000000 0.000000 0.000000 0.036765
#
#
# Mechanical properties :
#
#
# Convention : Reuss Voigt Hill
#
# Bulk Modulus (GPa) = 37.22294 45.18611 41.20452
# Shear Modulus (GPa) = 26.16703 27.31474 26.74089
#
# Velocity S-wave (km/s) = 3.58132 3.65902 3.62038
# Velocity P-wave (km/s) = 5.94526 6.32451 6.13781
#
# Compressibility (1/GPa) = 0.02686515
#
# Stress axis : x y z
#
# Youngs Moduli (GPa) = 55.69189 55.69189 94.69007
#
# Poissons Ratio (x) = 0.02375 0.44396
# Poissons Ratio (y) = 0.02375 0.44396
# Poissons Ratio (z) = 0.26112 0.26112
#
# Static dielectric constant tensor:
#      x y z
#    x 1.721960 0.000000 0.000000 
#    y 0.000000 1.721960 0.000000 
#    z 0.000000 0.000000 1.863460 
# 
# From -- ./inp_files/4374.got.cif
#   From: 2010.05.17/outbox.cif.g08.bks.cpg/sg182_3_cif.got.tgz:4374.got - 2010.05.20 11:58:53.
