data_PCOD9584102
_publ_section_title
;
Structure prediction by ZEFSAII (Michael W. Deem and Ramdas Pophale) SiO2 
 PCOD9584102
Probable space group: P 62 2 2
;
_chemical_formula_sum "Si O2"
_cell_formula_units_Z 75
_cell_length_a 19.483633
_cell_length_b 19.483633
_cell_length_c 12.009469
_cell_angle_alpha 90.000000
_cell_angle_beta 90.000000
_cell_angle_gamma 120.000000
_cell_volume 3948.156126
_symmetry_space_group_name_H-M "P 62 2 2"
_symmetry_group_IT_number 180
_symmetry_cell_setting 'hexagonal'
loop_
_space_group_symop_operation_xyz
x,y,z
x-y,x,1/3+z
-y,x-y,2/3+z
-x,-y,z
-x+y,-x,1/3+z
y,-x+y,2/3+z
x-y,-y,-z
-x,-x+y,1/3-z
y,x,2/3-z
-y,-x,2/3-z
-x+y,y,-z
x,x-y,1/3-z
loop_
_atom_site_type_symbol
_atom_site_label
_atom_site_fract_x
_atom_site_fract_y
_atom_site_fract_z
Si Si1 0.700203 0.400473 0.244762
Si Si2 0.500000 0.000000 0.500000
Si Si3 0.093836 0.435868 0.021294
Si Si4 0.929925 0.583133 0.429806
Si Si5 0.397323 0.305374 0.340963
Si Si6 0.823653 0.241740 0.101356
Si Si7 0.542429 0.404953 0.499555
O O1 0.668230 0.331771 0.333334
O O2 0.748754 0.374377 0.166667
O O3 0.756247 0.492053 0.262024
O O4 0.616411 0.391822 0.205372
O O5 0.577707 0.053791 0.427451
O O6 0.136718 0.407566 0.110145
O O7 0.154538 0.499486 0.935189
O O8 0.022312 0.379124 0.935411
O O9 0.889882 0.591708 0.542558
O O10 0.888648 0.595207 0.323015
O O11 0.914221 0.493652 0.452498
O O12 0.333165 0.333165 0.333334
O O13 0.373531 0.225266 0.408256
O O14 0.477196 0.377340 0.399795
#
# Coordination Sequence:
#
# PCOD9584102 Si02
#       7
#    12   3  12  12  12  12  12
#     4  11  25  37  51  74 106 148 187 239 309 364
#     4  12  20  36  52  90 108 144 192 244 312 380
#     4  12  22  35  59  83 106 143 190 250 313 369
#     4  12  21  39  61  79 106 146 193 242 304 376
#     4  11  24  40  56  81 109 153 196 247 304 370
#     4  11  25  39  58  81 112 143 195 256 309 362
#     4  11  22  37  56  78 109 142 192 248 300 371
#
# _framework density 18.996210000000001
#
# number of rings (size 3 to 8) (size 9 to 14) (size 15 to 20)
#    0.000    0.640    4.800    3.840    5.600    2.560 
#    0.000    0.000    0.000    0.000    0.000    0.000 
#    0.000    0.000    0.000    0.000    0.000   38.400 
#
# Total GULP energy -417757.484502 kJ/mol
# GULP energy per Si atom -5570.099793 kJ/mol
# Density = 1.895297 g / cm^3
# Si number density = 18.996210 Si / 1000 Ang^3
#
#
#
# Elastic Constant Matrix: (Units=GPa)
#
#
# Indices 1 2 3 4 5 6 
#
# 1 58.0263 20.2234 14.6852 0.0000 0.0000 0.0000
# 2 20.2234 58.0263 14.6852 0.0000 0.0000 0.0000
# 3 14.6852 14.6852 99.4518 0.0000 0.0000 0.0000
# 4 0.0000 0.0000 0.0000 18.5246 0.0000 0.0000
# 5 0.0000 0.0000 0.0000 0.0000 18.5246 0.0000
# 6 0.0000 0.0000 0.0000 0.0000 0.0000 18.9015
#
#
#
# Elastic Compliance Matrix: (Units=1/GPa)
#
#
# Indices 1 2 3 4 5 6 
#
# 1 0.019991 -0.006462 -0.001998 0.000000 0.000000 0.000000
# 2 -0.006462 0.019991 -0.001998 0.000000 0.000000 0.000000
# 3 -0.001998 -0.001998 0.010645 0.000000 0.000000 0.000000
# 4 0.000000 0.000000 0.000000 0.053982 0.000000 0.000000
# 5 0.000000 0.000000 0.000000 0.000000 0.053982 0.000000
# 6 0.000000 0.000000 0.000000 0.000000 0.000000 0.052906
#
#
# Mechanical properties :
#
#
# Convention : Reuss Voigt Hill
#
# Bulk Modulus (GPa) = 33.65541 34.96578 34.31060
# Shear Modulus (GPa) = 20.63414 22.25085 21.44249
#
# Velocity S-wave (km/s) = 3.29937 3.42618 3.36337
# Velocity P-wave (km/s) = 5.68065 5.83938 5.76056
#
# Compressibility (1/GPa) = 0.02971290
#
# Stress axis : x y z
#
# Youngs Moduli (GPa) = 50.02199 50.02199 93.93985
#
# Poissons Ratio (x) = 0.32323 0.18767
# Poissons Ratio (y) = 0.32323 0.18767
# Poissons Ratio (z) = 0.09993 0.09993
#
# Static dielectric constant tensor:
#      x y z
#    x 1.710850 0.000000 0.000000 
#    y 0.000000 1.710850 0.000000 
#    z 0.000000 0.000000 2.196240 
# 
# From -- ./inp_files/5001.got.cif
#   From: 2010.05.17/outbox.cif.g08.bks.cpg/sg180_3_cif.got.tgz:5001.got - 2010.05.20 11:43:55.
