data_PCOD9584375
_publ_section_title
;
Structure prediction by ZEFSAII (Michael W. Deem and Ramdas Pophale) SiO2 
 PCOD9584375
Probable space group: P 64 2 2
;
_chemical_formula_sum "Si O2"
_cell_formula_units_Z 60
_cell_length_a 14.668913
_cell_length_b 14.668913
_cell_length_c 14.466310
_cell_angle_alpha 90.000000
_cell_angle_beta 90.000000
_cell_angle_gamma 120.000000
_cell_volume 2695.778869
_symmetry_space_group_name_H-M "P 64 2 2"
_symmetry_group_IT_number 181
_symmetry_cell_setting 'hexagonal'
loop_
_space_group_symop_operation_xyz
x,y,z
x-y,x,2/3+z
-y,x-y,1/3+z
-x,-y,z
-x+y,-x,2/3+z
y,-x+y,1/3+z
x-y,-y,-z
-x,-x+y,2/3-z
y,x,1/3-z
-y,-x,1/3-z
-x+y,y,-z
x,x-y,2/3-z
loop_
_atom_site_type_symbol
_atom_site_label
_atom_site_fract_x
_atom_site_fract_y
_atom_site_fract_z
Si Si1 0.650692 0.975199 0.147273
Si Si2 0.114905 0.314055 0.818811
Si Si3 0.651036 0.554377 0.346994
Si Si4 0.804564 0.341070 0.747502
Si Si5 0.310457 0.833811 0.014073
O O1 0.724383 0.924762 0.163849
O O2 0.618974 0.009365 0.241281
O O3 0.681773 0.073654 0.079913
O O4 0.565425 0.873238 0.090545
O O5 0.096931 0.359149 0.721700
O O6 0.146096 0.415720 0.885530
O O7 0.000000 0.217157 0.833334
O O8 0.562007 0.453824 0.293262
O O9 0.726016 0.510735 0.385391
O O10 0.722893 0.277108 0.666667
O O11 0.760660 0.380330 0.833334
O O12 0.413233 0.826466 0.000000
#
# Coordination Sequence:
#
# PCOD9584375 Si02
#       5
#    12  12  12  12  12
#     4  10  21  38  66  90 121 176 224 270 335 396
#     4  10  24  43  57  88 130 172 230 286 329 403
#     4  10  22  38  64  91 126 176 215 273 341 409
#     4  10  23  40  60  94 138 179 226 277 341 419
#     4  10  21  40  61  95 135 163 216 281 329 419
#
# _framework density 22.257019
#
# number of rings (size 3 to 8) (size 9 to 14) (size 15 to 20)
#    0.000    2.000    0.000    2.400    2.800   11.600 
#    0.000    1.000    0.000    2.400    0.000   11.200 
#    0.000    0.000    0.000    0.000    0.000    0.000 
#
# Total GULP energy -334114.926934 kJ/mol
# GULP energy per Si atom -5568.582116 kJ/mol
# Density = 2.220636 g / cm^3
# Si number density = 22.257019 Si / 1000 Ang^3
#
#
#
# Elastic Constant Matrix: (Units=GPa)
#
#
# Indices 1 2 3 4 5 6 
#
# 1 59.9354 18.9324 23.9109 0.0000 0.0000 0.0000
# 2 18.9324 59.9354 23.9109 0.0000 0.0000 0.0000
# 3 23.9109 23.9109 119.5072 0.0000 0.0000 0.0000
# 4 0.0000 0.0000 0.0000 9.5881 0.0000 0.0000
# 5 0.0000 0.0000 0.0000 0.0000 9.5881 0.0000
# 6 0.0000 0.0000 0.0000 0.0000 0.0000 20.5015
#
#
#
# Elastic Compliance Matrix: (Units=1/GPa)
#
#
# Indices 1 2 3 4 5 6 
#
# 1 0.019409 -0.004979 -0.002887 0.000000 0.000000 0.000000
# 2 -0.004979 0.019409 -0.002887 0.000000 0.000000 0.000000
# 3 -0.002887 -0.002887 0.009523 0.000000 0.000000 0.000000
# 4 0.000000 0.000000 0.000000 0.104296 0.000000 0.000000
# 5 0.000000 0.000000 0.000000 0.000000 0.104296 0.000000
# 6 0.000000 0.000000 0.000000 0.000000 0.000000 0.048777
#
#
# Mechanical properties :
#
#
# Convention : Reuss Voigt Hill
#
# Bulk Modulus (GPa) = 37.26540 41.43182 39.34861
# Shear Modulus (GPa) = 14.87380 19.44382 17.15881
#
# Velocity S-wave (km/s) = 2.58791 2.95889 2.77959
# Velocity P-wave (km/s) = 5.07043 5.50717 5.29331
#
# Compressibility (1/GPa) = 0.02683454
#
# Stress axis : x y z
#
# Youngs Moduli (GPa) = 51.52181 51.52181 105.00879
#
# Poissons Ratio (x) = 0.25654 0.30318
# Poissons Ratio (y) = 0.25654 0.30318
# Poissons Ratio (z) = 0.14875 0.14875
#
# Static dielectric constant tensor:
#      x y z
#    x 2.100250 0.000000 0.000000 
#    y 0.000000 2.100250 0.000000 
#    z 0.000000 0.000000 1.986520 
# 
# From -- ./inp_files/6161.got.cif
#   From: 2010.05.17/outbox.cif.g08.bks.cpg/sg181_4_cif.got.tgz:6161.got - 2010.05.20 11:51:17.
