data_PCOD9584452
_publ_section_title
;
Structure prediction by ZEFSAII (Michael W. Deem and Ramdas Pophale) SiO2 
 PCOD9584452
Probable space group: P 64 2 2
;
_chemical_formula_sum "Si O2"
_cell_formula_units_Z 45
_cell_length_a 15.187616
_cell_length_b 15.187616
_cell_length_c 10.496438
_cell_angle_alpha 90.000000
_cell_angle_beta 90.000000
_cell_angle_gamma 120.000000
_cell_volume 2096.774820
_symmetry_space_group_name_H-M "P 64 2 2"
_symmetry_group_IT_number 181
_symmetry_cell_setting 'hexagonal'
loop_
_space_group_symop_operation_xyz
x,y,z
x-y,x,2/3+z
-y,x-y,1/3+z
-x,-y,z
-x+y,-x,2/3+z
y,-x+y,1/3+z
x-y,-y,-z
-x,-x+y,2/3-z
y,x,1/3-z
-y,-x,1/3-z
-x+y,y,-z
x,x-y,2/3-z
loop_
_atom_site_type_symbol
_atom_site_label
_atom_site_fract_x
_atom_site_fract_y
_atom_site_fract_z
Si Si1 0.297504 0.501150 0.637060
Si Si2 0.226663 0.109246 0.481999
Si Si3 0.283440 0.837559 0.540644
Si Si4 0.000000 0.500000 0.833334
Si Si5 0.000000 0.283455 0.333334
O O1 0.411058 0.588943 0.666667
O O2 0.256318 0.512635 0.500000
O O3 0.231708 0.508770 0.754317
O O4 0.292953 0.392241 0.641742
O O5 0.236483 0.118242 0.333334
O O6 0.331545 0.111983 0.517300
O O7 0.231558 0.205200 0.549839
O O8 0.129032 0.000000 0.500000
O O9 0.228155 0.771846 0.666667
O O10 0.397076 0.924310 0.574571
#
# Coordination Sequence:
#
# PCOD9584452 Si02
#       5
#    12  12  12   3   6
#     4  11  27  46  73 106 151 195 250 317 380 463
#     4  10  22  43  69  99 137 178 242 300 361 452
#     4  10  25  44  66 103 140 186 244 296 363 460
#     4  12  24  40  80 102 144 198 232 310 390 420
#     4  10  25  46  75 102 148 200 248 309 401 452
#
# _framework density 21.461531000000001
#
# number of rings (size 3 to 8) (size 9 to 14) (size 15 to 20)
#    0.000    1.600    1.333    0.400   13.067    2.133 
#    0.000    2.000    0.000    0.000    0.000    0.000 
#    0.000    0.000    0.000    0.000    0.000    0.000 
#
# Total GULP energy -250970.720467 kJ/mol
# GULP energy per Si atom -5577.127121 kJ/mol
# Density = 2.141268 g / cm^3
# Si number density = 21.461531 Si / 1000 Ang^3
#
#
#
# Elastic Constant Matrix: (Units=GPa)
#
#
# Indices 1 2 3 4 5 6 
#
# 1 130.4199 49.3010 51.6797 0.0000 0.0000 0.0000
# 2 49.3010 130.4199 51.6797 0.0000 0.0000 0.0000
# 3 51.6797 51.6797 135.3071 0.0000 0.0000 0.0000
# 4 0.0000 0.0000 0.0000 18.8999 0.0000 0.0000
# 5 0.0000 0.0000 0.0000 0.0000 18.8999 0.0000
# 6 0.0000 0.0000 0.0000 0.0000 0.0000 40.5594
#
#
#
# Elastic Compliance Matrix: (Units=1/GPa)
#
#
# Indices 1 2 3 4 5 6 
#
# 1 0.009729 -0.002599 -0.002723 0.000000 0.000000 0.000000
# 2 -0.002599 0.009729 -0.002723 0.000000 0.000000 0.000000
# 3 -0.002723 -0.002723 0.009471 0.000000 0.000000 0.000000
# 4 0.000000 0.000000 0.000000 0.052910 0.000000 0.000000
# 5 0.000000 0.000000 0.000000 0.000000 0.052910 0.000000
# 6 0.000000 0.000000 0.000000 0.000000 0.000000 0.024655
#
#
# Mechanical properties :
#
#
# Convention : Reuss Voigt Hill
#
# Bulk Modulus (GPa) = 77.89269 77.94085 77.91677
# Shear Modulus (GPa) = 27.81252 31.90428 29.85840
#
# Velocity S-wave (km/s) = 3.60380 3.85980 3.73400
# Velocity P-wave (km/s) = 7.32730 7.50063 7.41447
#
# Compressibility (1/GPa) = 0.01283817
#
# Stress axis : x y z
#
# Youngs Moduli (GPa) = 102.78526 102.78526 105.58556
#
# Poissons Ratio (x) = 0.26709 0.28756
# Poissons Ratio (y) = 0.26709 0.28756
# Poissons Ratio (z) = 0.27993 0.27993
#
# Static dielectric constant tensor:
#      x y z
#    x 1.791710 0.000000 0.000000 
#    y 0.000000 1.791710 0.000000 
#    z 0.000000 0.000000 1.738410 
# 
# From -- ./inp_files/4458.got.cif
#   From: 2010.05.17/outbox.cif.g08.bks.cpg/sg181_3_cif.got.tgz:4458.got - 2010.05.20 11:51:17.
