data_PCOD9584637
_publ_section_title
;
Structure prediction by ZEFSAII (Michael W. Deem and Ramdas Pophale) SiO2 
 PCOD9584637
Probable space group: P 63 2 2
;
_chemical_formula_sum "Si O2"
_cell_formula_units_Z 96
_cell_length_a 18.241975
_cell_length_b 18.241975
_cell_length_c 20.263830
_cell_angle_alpha 90.000000
_cell_angle_beta 90.000000
_cell_angle_gamma 120.000000
_cell_volume 5839.771812
_symmetry_space_group_name_H-M "P 63 2 2"
_symmetry_group_IT_number 182
_symmetry_cell_setting 'hexagonal'
loop_
_space_group_symop_operation_xyz
x,y,z
x-y,x,1/2+z
-y,x-y,z
-x,-y,1/2+z
-x+y,-x,z
y,-x+y,1/2+z
x-y,-y,-z
-x,-x+y,-z
y,x,-z
-y,-x,1/2-z
-x+y,y,1/2-z
x,x-y,1/2-z
loop_
_atom_site_type_symbol
_atom_site_label
_atom_site_fract_x
_atom_site_fract_y
_atom_site_fract_z
Si Si1 0.167987 0.666170 0.394591
Si Si2 0.264656 0.360075 0.498808
Si Si3 0.333648 0.493036 0.617518
Si Si4 0.610849 0.049729 0.249999
Si Si5 0.866501 0.297574 0.750000
Si Si6 0.501817 0.333829 0.894590
Si Si7 0.506964 0.840612 0.882484
Si Si8 0.360076 0.095420 0.501193
O O1 0.110954 0.696094 0.432586
O O2 0.157274 0.671327 0.316562
O O3 0.146944 0.573472 0.414141
O O4 0.264536 0.735464 0.412239
O O5 0.285394 0.285394 0.500000
O O6 0.310592 0.425665 0.558841
O O7 0.166562 0.333124 0.501462
O O8 0.350500 0.456902 0.684889
O O9 0.253578 0.507156 0.625217
O O10 0.418597 0.581402 0.602623
O O11 0.510279 0.020557 0.250000
O O12 0.649499 0.106401 0.184887
O O13 0.622793 0.968137 0.250000
O O14 0.804881 0.195119 0.750000
O O15 0.842724 0.328673 0.683439
O O16 0.414859 0.303905 0.932584
O O17 0.574333 0.884926 0.941161
O O18 0.285395 0.000000 0.500000
#
# Coordination Sequence:
#
# PCOD9584637 Si02
#       8
#    12  12  12  12  12  12  12  12
#     4  10  19  30  45  66  94 127 161 195 231 274
#     4  10  21  35  51  71  94 122 155 194 239 284
#     4  10  20  33  50  72  99 130 162 195 231 274
#     4  10  19  31  48  68  92 125 163 201 239 279
#     4  10  20  31  44  64  90 123 163 205 243 277
#     4  10  19  30  45  66  94 127 161 195 231 274
#     4  10  20  33  50  72  99 130 162 195 231 274
#     4  10  21  35  51  71  94 122 155 194 239 284
#
# _framework density 16.438998000000002
#
# number of rings (size 3 to 8) (size 9 to 14) (size 15 to 20)
#    0.000    2.000    0.000    4.250    0.000    4.000 
#    0.000    5.000    0.000    0.500    0.000    0.000 
#    0.000    0.000    0.000    3.000    0.000   30.750 
#
# Total GULP energy -535678.345336 kJ/mol
# GULP energy per Si atom -5579.982764 kJ/mol
# Density = 1.640158 g / cm^3
# Si number density = 16.438998 Si / 1000 Ang^3
#
#
#
# Elastic Constant Matrix: (Units=GPa)
#
#
# Indices 1 2 3 4 5 6 
#
# 1 96.4228 72.7292 28.0396 0.0000 0.0000 0.0000
# 2 72.7292 96.4228 28.0396 0.0000 0.0000 0.0000
# 3 28.0396 28.0396 66.9379 0.0000 0.0000 0.0000
# 4 0.0000 0.0000 0.0000 16.3479 0.0000 0.0000
# 5 0.0000 0.0000 0.0000 0.0000 16.3479 0.0000
# 6 0.0000 0.0000 0.0000 0.0000 0.0000 11.8468
#
#
#
# Elastic Compliance Matrix: (Units=1/GPa)
#
#
# Indices 1 2 3 4 5 6 
#
# 1 0.024535 -0.017670 -0.002876 0.000000 0.000000 0.000000
# 2 -0.017670 0.024535 -0.002876 0.000000 0.000000 0.000000
# 3 -0.002876 -0.002876 0.017348 0.000000 0.000000 0.000000
# 4 0.000000 0.000000 0.000000 0.061170 0.000000 0.000000
# 5 0.000000 0.000000 0.000000 0.000000 0.061170 0.000000
# 6 0.000000 0.000000 0.000000 0.000000 0.000000 0.084411
#
#
# Mechanical properties :
#
#
# Convention : Reuss Voigt Hill
#
# Bulk Modulus (GPa) = 51.08331 57.48892 54.28611
# Shear Modulus (GPa) = 15.31215 17.64023 16.47619
#
# Velocity S-wave (km/s) = 3.05528 3.27933 3.16929
# Velocity P-wave (km/s) = 6.60214 7.02749 6.81813
#
# Compressibility (1/GPa) = 0.01957587
#
# Stress axis : x y z
#
# Youngs Moduli (GPa) = 40.75756 40.75756 57.64192
#
# Poissons Ratio (x) = 0.72019 0.16577
# Poissons Ratio (y) = 0.72019 0.16577
# Poissons Ratio (z) = 0.11721 0.11721
#
# Static dielectric constant tensor:
#      x y z
#    x 1.544850 0.000000 0.000000 
#    y 0.000000 1.544850 0.000000 
#    z 0.000000 0.000000 1.567490 
# 
# From -- ./inp_files/5033.got.cif
#   From: 2010.05.17/outbox.cif.g08.bks.cpg/sg182_3_cif.got.tgz:5033.got - 2010.05.20 11:58:53.
