data_PCOD9584051
_publ_section_title
;
Structure prediction by ZEFSAII (Michael W. Deem and Ramdas Pophale) SiO2 
 PCOD9584051
Probable space group: P 62 2 2
;
_chemical_formula_sum "Si O2"
_cell_formula_units_Z 60
_cell_length_a 11.937610
_cell_length_b 11.937610
_cell_length_c 26.482893
_cell_angle_alpha 90.000000
_cell_angle_beta 90.000000
_cell_angle_gamma 120.000000
_cell_volume 3268.367102
_symmetry_space_group_name_H-M "P 62 2 2"
_symmetry_group_IT_number 180
_symmetry_cell_setting 'hexagonal'
loop_
_space_group_symop_operation_xyz
x,y,z
x-y,x,1/3+z
-y,x-y,2/3+z
-x,-y,z
-x+y,-x,1/3+z
y,-x+y,2/3+z
x-y,-y,-z
-x,-x+y,1/3-z
y,x,2/3-z
-y,-x,2/3-z
-x+y,y,-z
x,x-y,1/3-z
loop_
_atom_site_type_symbol
_atom_site_label
_atom_site_fract_x
_atom_site_fract_y
_atom_site_fract_z
Si Si1 0.831653 0.319143 0.525742
Si Si2 0.597924 0.700856 0.038343
Si Si3 0.114130 0.723198 0.786478
Si Si4 0.514352 0.828625 0.739098
Si Si5 0.142691 0.610560 0.067005
O O1 0.844455 0.457944 0.538856
O O2 0.826098 0.297706 0.465987
O O3 0.705265 0.213836 0.553811
O O4 0.959792 0.320013 0.544864
O O5 0.635237 0.831250 0.068335
O O6 0.691877 0.641771 0.048403
O O7 0.461298 0.598522 0.063863
O O8 0.558406 0.691863 0.980017
O O9 0.178394 0.821607 0.833334
O O10 0.463223 0.684144 0.719313
O O11 0.000000 0.500000 0.080063
#
# Coordination Sequence:
#
# PCOD9584051 Si02
#       5
#    12  12  12  12  12
#     4  11  22  34  59  90 120 152 197 256 310 358
#     4  11  21  35  62  84 117 159 202 243 301 375
#     4  11  18  35  60  88 115 152 203 248 302 370
#     4  11  20  37  57  83 116 164 196 231 306 375
#     4  12  25  37  57  90 130 154 198 252 308 368
#
# _framework density 18.357792
#
# number of rings (size 3 to 8) (size 9 to 14) (size 15 to 20)
#    0.000    0.800    8.000    2.400    0.000    2.400 
#    0.000    2.000    0.000    1.200    0.000    2.800 
#    0.000    0.000    0.000    0.000    0.000    0.000 
#
# Total GULP energy -335053.244929 kJ/mol
# GULP energy per Si atom -5584.220749 kJ/mol
# Density = 1.831601 g / cm^3
# Si number density = 18.357792 Si / 1000 Ang^3
#
#
#
# Elastic Constant Matrix: (Units=GPa)
#
#
# Indices 1 2 3 4 5 6 
#
# 1 62.3981 13.8236 -5.5267 0.0000 0.0000 0.0000
# 2 13.8236 62.3981 -5.5267 0.0000 0.0000 0.0000
# 3 -5.5267 -5.5267 49.3205 0.0000 0.0000 0.0000
# 4 0.0000 0.0000 0.0000 11.8584 0.0000 0.0000
# 5 0.0000 0.0000 0.0000 0.0000 11.8584 0.0000
# 6 0.0000 0.0000 0.0000 0.0000 0.0000 24.2872
#
#
#
# Elastic Compliance Matrix: (Units=1/GPa)
#
#
# Indices 1 2 3 4 5 6 
#
# 1 0.016962 -0.003625 0.001494 0.000000 0.000000 0.000000
# 2 -0.003625 0.016962 0.001494 0.000000 0.000000 0.000000
# 3 0.001494 0.001494 0.020610 0.000000 0.000000 0.000000
# 4 0.000000 0.000000 0.000000 0.084328 0.000000 0.000000
# 5 0.000000 0.000000 0.000000 0.000000 0.084328 0.000000
# 6 0.000000 0.000000 0.000000 0.000000 0.000000 0.041174
#
#
# Mechanical properties :
#
#
# Convention : Reuss Voigt Hill
#
# Bulk Modulus (GPa) = 18.77549 19.96187 19.36868
# Shear Modulus (GPa) = 17.64350 21.02392 19.33371
#
# Velocity S-wave (km/s) = 3.10351 3.38780 3.24877
# Velocity P-wave (km/s) = 4.80542 5.11862 4.96449
#
# Compressibility (1/GPa) = 0.05326093
#
# Stress axis : x y z
#
# Youngs Moduli (GPa) = 58.95653 58.95653 48.51906
#
# Poissons Ratio (x) = 0.21373 -0.07251
# Poissons Ratio (y) = 0.21373 -0.07251
# Poissons Ratio (z) = -0.08811 -0.08811
#
# Static dielectric constant tensor:
#      x y z
#    x 1.636050 0.000000 0.000000 
#    y 0.000000 1.636050 0.000000 
#    z 0.000000 0.000000 1.675030 
# 
# From -- ./inp_files/11242.got.cif
#   From: 2010.05.17/outbox.cif.g08.bks.cpg/sg180_6_cif.got.tgz:11242.got - 2010.05.20 11:43:55.
