data_PCOD9584638
_publ_section_title
;
Structure prediction by ZEFSAII (Michael W. Deem and Ramdas Pophale) SiO2 
 PCOD9584638
Probable space group: P 63 2 2
;
_chemical_formula_sum "Si O2"
_cell_formula_units_Z 48
_cell_length_a 19.619649
_cell_length_b 19.619649
_cell_length_c 7.784745
_cell_angle_alpha 90.000000
_cell_angle_beta 90.000000
_cell_angle_gamma 120.000000
_cell_volume 2595.120270
_symmetry_space_group_name_H-M "P 63 2 2"
_symmetry_group_IT_number 182
_symmetry_cell_setting 'hexagonal'
loop_
_space_group_symop_operation_xyz
x,y,z
x-y,x,1/2+z
-y,x-y,z
-x,-y,1/2+z
-x+y,-x,z
y,-x+y,1/2+z
x-y,-y,-z
-x,-x+y,-z
y,x,-z
-y,-x,1/2-z
-x+y,y,1/2-z
x,x-y,1/2-z
loop_
_atom_site_type_symbol
_atom_site_label
_atom_site_fract_x
_atom_site_fract_y
_atom_site_fract_z
Si Si1 0.579622 0.572164 0.204266
Si Si2 0.036717 0.815717 0.179835
Si Si3 0.902520 0.242321 0.165804
Si Si4 0.605211 0.874384 0.268082
O O1 0.515865 0.484136 0.250000
O O2 0.671188 0.606870 0.249431
O O3 0.560265 0.638687 0.271910
O O4 0.575989 0.575989 0.000000
O O5 0.097985 0.902016 0.250000
O O6 0.089375 0.773587 0.152846
O O7 0.965886 0.752287 0.299717
O O8 0.000000 0.819144 0.000000
O O9 0.821499 0.178502 0.250000
O O10 0.894092 0.255296 0.963901
O O11 0.561659 0.780830 0.250000
#
# Coordination Sequence:
#
# PCOD9584638 Si02
#       4
#    12  12  12  12
#     4   9  19  32  49  76 108 134 165 209 254 300
#     4  10  19  31  49  75 101 131 168 212 261 303
#     4  10  19  33  53  78 103 132 175 218 254 305
#     4   9  18  32  49  75 104 133 171 215 256 302
#
# _framework density 18.496251999999998
#
# number of rings (size 3 to 8) (size 9 to 14) (size 15 to 20)
#    0.000    2.500    0.000    5.250    0.000    6.000 
#    0.000    0.000    0.000    1.500    0.000   15.750 
#    0.000    0.000    0.000    0.000    0.000    0.000 
#
# Total GULP energy -267429.277021 kJ/mol
# GULP energy per Si atom -5571.443271 kJ/mol
# Density = 1.845415 g / cm^3
# Si number density = 18.496252 Si / 1000 Ang^3
#
#
#
# Elastic Constant Matrix: (Units=GPa)
#
#
# Indices 1 2 3 4 5 6 
#
# 1 103.2302 60.8584 25.8848 0.0000 0.0000 0.0000
# 2 60.8584 103.2302 25.8848 0.0000 0.0000 0.0000
# 3 25.8848 25.8848 57.3732 0.0000 0.0000 0.0000
# 4 0.0000 0.0000 0.0000 24.2430 0.0000 0.0000
# 5 0.0000 0.0000 0.0000 0.0000 24.2430 0.0000
# 6 0.0000 0.0000 0.0000 0.0000 0.0000 21.1859
#
#
#
# Elastic Compliance Matrix: (Units=1/GPa)
#
#
# Indices 1 2 3 4 5 6 
#
# 1 0.015353 -0.008247 -0.003206 0.000000 0.000000 0.000000
# 2 -0.008247 0.015353 -0.003206 0.000000 0.000000 0.000000
# 3 -0.003206 -0.003206 0.020322 0.000000 0.000000 0.000000
# 4 0.000000 0.000000 0.000000 0.041249 0.000000 0.000000
# 5 0.000000 0.000000 0.000000 0.000000 0.041249 0.000000
# 6 0.000000 0.000000 0.000000 0.000000 0.000000 0.047201
#
#
# Mechanical properties :
#
#
# Convention : Reuss Voigt Hill
#
# Bulk Modulus (GPa) = 46.06070 54.34331 50.20201
# Shear Modulus (GPa) = 23.01144 24.01474 23.51309
#
# Velocity S-wave (km/s) = 3.53103 3.60718 3.56931
# Velocity P-wave (km/s) = 6.44833 6.84058 6.64735
#
# Compressibility (1/GPa) = 0.02171048
#
# Stress axis : x y z
#
# Youngs Moduli (GPa) = 65.13315 65.13315 49.20661
#
# Poissons Ratio (x) = 0.53718 0.15775
# Poissons Ratio (y) = 0.53718 0.15775
# Poissons Ratio (z) = 0.20881 0.20881
#
# Static dielectric constant tensor:
#      x y z
#    x 1.669090 0.000000 0.000000 
#    y 0.000000 1.669090 0.000000 
#    z 0.000000 0.000000 1.711920 
# 
# From -- ./inp_files/1665.got.cif
#   From: 2010.05.17/outbox.cif.g08.bks.cpg/sg182_1_cif.got.tgz:1665.got - 2010.05.20 11:58:53.
