data_PCOD9584916
_publ_section_title
;
Structure prediction by ZEFSAII (Michael W. Deem and Ramdas Pophale) SiO2 
 PCOD9584916
Probable space group: P 6 M M
;
_chemical_formula_sum "Si O2"
_cell_formula_units_Z 96
_cell_length_a 18.123010
_cell_length_b 18.123010
_cell_length_c 21.408396
_cell_angle_alpha 90.000000
_cell_angle_beta 90.000000
_cell_angle_gamma 120.000000
_cell_volume 6089.412878
_symmetry_space_group_name_H-M "P 6 M M"
_symmetry_group_IT_number 183
_symmetry_cell_setting 'hexagonal'
loop_
_space_group_symop_operation_xyz
x,y,z
x-y,x,z
-y,x-y,z
-x,-y,z
-x+y,-x,z
y,-x+y,z
-x+y,y,z
x,x-y,z
-y,-x,z
y,x,z
x-y,-y,z
-x,-x+y,z
loop_
_atom_site_type_symbol
_atom_site_label
_atom_site_fract_x
_atom_site_fract_y
_atom_site_fract_z
Si Si1 0.540417 0.901646 0.603350
Si Si2 0.101962 0.466330 0.001106
Si Si3 0.100010 0.731468 0.122678
Si Si4 0.669514 0.501772 0.868751
Si Si5 0.159264 0.667460 0.240555
Si Si6 0.730842 0.097042 0.357450
Si Si7 0.496094 0.330966 0.468051
Si Si8 0.102661 0.465619 0.738449
O O1 0.450734 0.901467 0.607711
O O2 0.533808 0.853146 0.539957
O O3 0.551392 0.869374 0.671065
O O4 0.612608 0.000000 0.596067
O O5 0.134224 0.567112 0.010040
O O6 0.121756 0.424816 0.059747
O O7 0.000000 0.419463 0.997258
O O8 0.134613 0.452096 0.934842
O O9 0.168176 0.831824 0.129021
O O10 0.116561 0.684347 0.180390
O O11 0.000000 0.702475 0.121326
O O12 0.731437 0.462874 0.867274
O O13 0.570955 0.429046 0.869675
O O14 0.685076 0.552934 0.804208
O O15 0.149487 0.574744 0.240407
O O16 0.258646 0.741354 0.240204
O O17 0.117930 0.684485 0.301433
O O18 0.830244 0.169757 0.354705
O O19 0.692311 0.111068 0.421345
O O20 0.708550 0.000000 0.352451
O O21 0.527247 0.263624 0.454030
O O22 0.573110 0.426891 0.459722
O O23 0.132049 0.566025 0.739792
O O24 0.000000 0.414593 0.737400
#
# Coordination Sequence:
#
# PCOD9584916 Si02
#       8
#    12  12  12  12  12  12  12  12
#     4   8  14  25  40  55  71  97 137 182 223 261
#     4   9  17  29  45  63  82 107 140 176 213 256
#     4  10  20  33  49  69  92 118 149 186 227 269
#     4  10  18  26  36  52  76 104 133 166 207 255
#     4  10  20  33  50  73 101 131 160 189 220 254
#     4  10  21  35  51  71  93 119 151 188 229 270
#     4  10  19  29  42  62  90 122 153 184 218 258
#     4   8  14  25  39  52  67  93 133 178 218 253
#
# _framework density 15.765067
#
# number of rings (size 3 to 8) (size 9 to 14) (size 15 to 20)
#    0.000    2.625    0.000    3.375    0.000    4.750 
#    0.000    1.250    0.000    5.750    0.000    0.000 
#    0.000    3.000    0.000    0.000    0.000    0.000 
#
# Total GULP energy -534463.096901 kJ/mol
# GULP energy per Si atom -5567.323926 kJ/mol
# Density = 1.572919 g / cm^3
# Si number density = 15.765067 Si / 1000 Ang^3
#
#
#
# Elastic Constant Matrix: (Units=GPa)
#
#
# Indices 1 2 3 4 5 6 
#
# 1 60.5935 42.7293 30.5699 0.0000 0.0000 0.0000
# 2 42.7293 60.5935 30.5699 0.0000 0.0000 0.0000
# 3 30.5699 30.5699 125.1025 0.0000 0.0000 0.0000
# 4 0.0000 0.0000 0.0000 2.6319 0.0000 0.0000
# 5 0.0000 0.0000 0.0000 0.0000 2.6319 0.0000
# 6 0.0000 0.0000 0.0000 0.0000 0.0000 8.9321
#
#
#
# Elastic Compliance Matrix: (Units=1/GPa)
#
#
# Indices 1 2 3 4 5 6 
#
# 1 0.033646 -0.022332 -0.002765 0.000000 0.000000 0.000000
# 2 -0.022332 0.033646 -0.002765 0.000000 0.000000 0.000000
# 3 -0.002765 -0.002765 0.009345 0.000000 0.000000 0.000000
# 4 0.000000 0.000000 0.000000 0.379957 0.000000 0.000000
# 5 0.000000 0.000000 0.000000 0.000000 0.379957 0.000000
# 6 0.000000 0.000000 0.000000 0.000000 0.000000 0.111955
#
#
# Mechanical properties :
#
#
# Convention : Reuss Voigt Hill
#
# Bulk Modulus (GPa) = 47.81401 50.44752 49.13077
# Shear Modulus (GPa) = 4.94462 12.33388 8.63925
#
# Velocity S-wave (km/s) = 1.77292 2.80010 2.34348
# Velocity P-wave (km/s) = 5.88098 6.52097 6.20923
#
# Compressibility (1/GPa) = 0.02091437
#
# Stress axis : x y z
#
# Youngs Moduli (GPa) = 29.72117 29.72117 107.01320
#
# Poissons Ratio (x) = 0.66372 0.29587
# Poissons Ratio (y) = 0.66372 0.29587
# Poissons Ratio (z) = 0.08217 0.08217
#
# Static dielectric constant tensor:
#      x y z
#    x 1.518460 0.000000 0.000000 
#    y 0.000000 1.518460 0.000000 
#    z 0.000000 0.000000 1.575270 
# 
# From -- ./inp_files/2945.got.cif
#   From: 2010.05.17/outbox.cif.g08.bks.cpg/sg183_2_cif.got.tgz:2945.got - 2010.05.20 12:02:58.
