data_PCOD9584227
_publ_section_title
;
Structure prediction by ZEFSAII (Michael W. Deem and Ramdas Pophale) SiO2 
 PCOD9584227
Probable space group: P 64 2 2
;
_chemical_formula_sum "Si O2"
_cell_formula_units_Z 60
_cell_length_a 28.665822
_cell_length_b 28.665822
_cell_length_c 5.157485
_cell_angle_alpha 90.000000
_cell_angle_beta 90.000000
_cell_angle_gamma 120.000000
_cell_volume 3670.264853
_symmetry_space_group_name_H-M "P 64 2 2"
_symmetry_group_IT_number 181
_symmetry_cell_setting 'hexagonal'
loop_
_space_group_symop_operation_xyz
x,y,z
x-y,x,2/3+z
-y,x-y,1/3+z
-x,-y,z
-x+y,-x,2/3+z
y,-x+y,1/3+z
x-y,-y,-z
-x,-x+y,2/3-z
y,x,1/3-z
-y,-x,1/3-z
-x+y,y,-z
x,x-y,2/3-z
loop_
_atom_site_type_symbol
_atom_site_label
_atom_site_fract_x
_atom_site_fract_y
_atom_site_fract_z
Si Si1 0.750128 0.713568 0.407820
Si Si2 0.743578 0.143093 0.170949
Si Si3 0.412176 0.651203 0.409710
Si Si4 0.464518 0.288500 0.340946
Si Si5 0.963927 0.142548 0.078557
O O1 0.730030 0.730030 0.666667
O O2 0.747210 0.656827 0.438284
O O3 0.812157 0.759662 0.353158
O O4 0.716155 0.716155 0.166667
O O5 0.803352 0.196649 0.166667
O O6 0.708453 0.151702 0.391186
O O7 0.717522 0.139964 0.892576
O O8 0.377720 0.622281 0.666667
O O9 0.408658 0.704329 0.333334
O O10 0.474974 0.669083 0.426445
O O11 0.387786 0.612215 0.166667
O O12 0.464198 0.232099 0.333334
O O13 0.913270 0.086731 0.166667
O O14 0.000000 0.162485 0.333334
O O15 0.000000 0.143921 0.833334
#
# Coordination Sequence:
#
# PCOD9584227 Si02
#       5
#    12  12  12  12  12
#     4  10  20  32  49  75 102 125 156 196 237 293
#     4  10  18  32  50  68  97 132 159 188 237 290
#     4  11  20  31  46  68  99 132 167 201 238 277
#     4   9  19  31  46  68  94 128 165 199 231 280
#     4  10  20  34  52  74 100 130 163 199 240 284
#
# _framework density 16.347593
#
# number of rings (size 3 to 8) (size 9 to 14) (size 15 to 20)
#    0.000    2.000    0.000    4.800    0.000    3.200 
#    0.000    6.000    0.000    3.000    0.000    0.000 
#    0.000   56.000    0.000    0.000    0.000    0.000 
#
# Total GULP energy -334493.298468 kJ/mol
# GULP energy per Si atom -5574.888308 kJ/mol
# Density = 1.631039 g / cm^3
# Si number density = 16.347593 Si / 1000 Ang^3
#
#
#
# Elastic Constant Matrix: (Units=GPa)
#
#
# Indices 1 2 3 4 5 6 
#
# 1 89.5475 34.9592 31.4270 0.0000 0.0000 0.0000
# 2 34.9592 89.5475 31.4270 0.0000 0.0000 0.0000
# 3 31.4270 31.4270 115.9561 0.0000 0.0000 0.0000
# 4 0.0000 0.0000 0.0000 25.3156 0.0000 0.0000
# 5 0.0000 0.0000 0.0000 0.0000 25.3156 0.0000
# 6 0.0000 0.0000 0.0000 0.0000 0.0000 27.2942
#
#
#
# Elastic Compliance Matrix: (Units=1/GPa)
#
#
# Indices 1 2 3 4 5 6 
#
# 1 0.013812 -0.004507 -0.002522 0.000000 0.000000 0.000000
# 2 -0.004507 0.013812 -0.002522 0.000000 0.000000 0.000000
# 3 -0.002522 -0.002522 0.009991 0.000000 0.000000 0.000000
# 4 0.000000 0.000000 0.000000 0.039501 0.000000 0.000000
# 5 0.000000 0.000000 0.000000 0.000000 0.039501 0.000000
# 6 0.000000 0.000000 0.000000 0.000000 0.000000 0.036638
#
#
# Mechanical properties :
#
#
# Convention : Reuss Voigt Hill
#
# Bulk Modulus (GPa) = 54.01563 54.51970 54.26767
# Shear Modulus (GPa) = 28.00684 28.73426 28.37055
#
# Velocity S-wave (km/s) = 4.14358 4.19705 4.17040
# Velocity P-wave (km/s) = 7.48372 7.54385 7.51384
#
# Compressibility (1/GPa) = 0.01851316
#
# Stress axis : x y z
#
# Youngs Moduli (GPa) = 72.40157 72.40157 100.09102
#
# Poissons Ratio (x) = 0.32632 0.25241
# Poissons Ratio (y) = 0.32632 0.25241
# Poissons Ratio (z) = 0.18258 0.18258
#
# Static dielectric constant tensor:
#      x y z
#    x 1.548040 0.000000 0.000000 
#    y 0.000000 1.548040 0.000000 
#    z 0.000000 0.000000 1.562320 
# 
# From -- ./inp_files/1467.got.cif
#   From: 2010.05.17/outbox.cif.g08.bks.cpg/sg181_1_cif.got.tgz:1467.got - 2010.05.20 11:51:17.
