data_PCOD9584345
_publ_section_title
;
Structure prediction by ZEFSAII (Michael W. Deem and Ramdas Pophale) SiO2 
 PCOD9584345
Probable space group: P 64 2 2
;
_chemical_formula_sum "Si O2"
_cell_formula_units_Z 45
_cell_length_a 9.360639
_cell_length_b 9.360639
_cell_length_c 31.880290
_cell_angle_alpha 90.000000
_cell_angle_beta 90.000000
_cell_angle_gamma 120.000000
_cell_volume 2419.156075
_symmetry_space_group_name_H-M "P 64 2 2"
_symmetry_group_IT_number 181
_symmetry_cell_setting 'hexagonal'
loop_
_space_group_symop_operation_xyz
x,y,z
x-y,x,2/3+z
-y,x-y,1/3+z
-x,-y,z
-x+y,-x,2/3+z
y,-x+y,1/3+z
x-y,-y,-z
-x,-x+y,2/3-z
y,x,1/3-z
-y,-x,1/3-z
-x+y,y,-z
x,x-y,2/3-z
loop_
_atom_site_type_symbol
_atom_site_label
_atom_site_fract_x
_atom_site_fract_y
_atom_site_fract_z
Si Si1 0.500000 0.000000 0.500000
Si Si2 0.830753 0.995343 0.949755
Si Si3 0.330787 0.489788 0.417561
Si Si4 0.500000 0.500000 0.499835
Si Si5 0.757776 0.231510 0.897969
O O1 0.532841 0.891580 0.532856
O O2 0.824662 0.152388 0.931461
O O3 0.671356 0.828822 0.933079
O O4 0.000000 0.000000 0.937247
O O5 0.825337 0.000000 0.000000
O O6 0.500000 0.500000 0.399672
O O7 0.359542 0.480107 0.467374
O O8 0.303173 0.647466 0.414319
O O9 0.558669 0.647528 0.531814
#
# Coordination Sequence:
#
# PCOD9584345 Si02
#       5
#     3  12  12   6  12
#     4  12  24  40  60 116 130 168 214 282 332 412
#     4  11  27  48  64  95 131 180 234 272 319 396
#     4  10  22  41  68  97 132 170 209 272 335 393
#     4  10  20  40  64 100 134 160 216 264 338 408
#     4  12  23  41  69  95 140 172 214 269 339 401
#
# _framework density 18.601528999999999
#
# number of rings (size 3 to 8) (size 9 to 14) (size 15 to 20)
#    0.800    0.267    5.333    0.000    7.467    2.133 
#    2.400    0.000    0.000    0.000    0.000    0.000 
#    0.000    0.000    0.000    0.000    0.000    0.000 
#
# Total GULP energy -250604.732021 kJ/mol
# GULP energy per Si atom -5568.994045 kJ/mol
# Density = 1.855919 g / cm^3
# Si number density = 18.601529 Si / 1000 Ang^3
#
#
#
# Elastic Constant Matrix: (Units=GPa)
#
#
# Indices 1 2 3 4 5 6 
#
# 1 155.1423 59.1199 47.6214 0.0000 0.0000 0.0000
# 2 59.1199 155.1423 47.6214 0.0000 0.0000 0.0000
# 3 47.6214 47.6214 70.4771 0.0000 0.0000 0.0000
# 4 0.0000 0.0000 0.0000 76.6032 0.0000 0.0000
# 5 0.0000 0.0000 0.0000 0.0000 76.6032 0.0000
# 6 0.0000 0.0000 0.0000 0.0000 0.0000 48.0112
#
#
#
# Elastic Compliance Matrix: (Units=1/GPa)
#
#
# Indices 1 2 3 4 5 6 
#
# 1 0.008543 -0.001872 -0.004507 0.000000 0.000000 0.000000
# 2 -0.001872 0.008543 -0.004507 0.000000 0.000000 0.000000
# 3 -0.004507 -0.004507 0.020280 0.000000 0.000000 0.000000
# 4 0.000000 0.000000 0.000000 0.013054 0.000000 0.000000
# 5 0.000000 0.000000 0.000000 0.000000 0.013054 0.000000
# 6 0.000000 0.000000 0.000000 0.000000 0.000000 0.020828
#
#
# Mechanical properties :
#
#
# Convention : Reuss Voigt Hill
#
# Bulk Modulus (GPa) = 64.13486 76.60969 70.37228
# Shear Modulus (GPa) = 44.93444 55.33677 50.13561
#
# Velocity S-wave (km/s) = 4.92024 5.46014 5.19720
# Velocity P-wave (km/s) = 8.17505 9.00138 8.59815
#
# Compressibility (1/GPa) = 0.01559214
#
# Stress axis : x y z
#
# Youngs Moduli (GPa) = 117.06137 117.06137 49.30866
#
# Poissons Ratio (x) = 0.21910 0.22226
# Poissons Ratio (y) = 0.21910 0.22226
# Poissons Ratio (z) = 0.52765 0.52765
#
# Static dielectric constant tensor:
#      x y z
#    x 1.632020 0.000000 0.000000 
#    y 0.000000 1.632020 0.000000 
#    z 0.000000 0.000000 1.588640 
# 
# From -- ./inp_files/12030.got.cif
#   From: 2010.05.17/outbox.cif.g08.bks.cpg/sg181_7_cif.got.tgz:12030.got - 2010.05.20 11:51:17.
