data_PCOD9584777
_publ_section_title
;
Structure prediction by ZEFSAII (Michael W. Deem and Ramdas Pophale) SiO2 
 PCOD9584777
Probable space group: P 63 2 2
;
_chemical_formula_sum "Si O2"
_cell_formula_units_Z 76
_cell_length_a 17.316145
_cell_length_b 17.316145
_cell_length_c 14.828425
_cell_angle_alpha 90.000000
_cell_angle_beta 90.000000
_cell_angle_gamma 120.000000
_cell_volume 3850.597143
_symmetry_space_group_name_H-M "P 63 2 2"
_symmetry_group_IT_number 182
_symmetry_cell_setting 'hexagonal'
loop_
_space_group_symop_operation_xyz
x,y,z
x-y,x,1/2+z
-y,x-y,z
-x,-y,1/2+z
-x+y,-x,z
y,-x+y,1/2+z
x-y,-y,-z
-x,-x+y,-z
y,x,-z
-y,-x,1/2-z
-x+y,y,1/2-z
x,x-y,1/2-z
loop_
_atom_site_type_symbol
_atom_site_label
_atom_site_fract_x
_atom_site_fract_y
_atom_site_fract_z
Si Si1 0.125574 0.365123 0.025072
Si Si2 0.662725 0.502906 0.274138
Si Si3 0.000000 0.000000 0.356911
Si Si4 0.796823 0.759438 0.294187
Si Si5 0.297728 0.391096 0.946914
Si Si6 0.642877 0.984327 0.649525
Si Si7 0.902113 0.078853 0.928042
O O1 0.090755 0.260871 0.043836
O O2 0.080260 0.397905 0.100307
O O3 0.231339 0.404285 0.013653
O O4 0.084162 0.371908 0.930897
O O5 0.599663 0.400338 0.250000
O O6 0.765647 0.531294 0.250000
O O7 0.655218 0.525931 0.378243
O O8 0.627128 0.556410 0.212396
O O9 0.911686 0.993009 0.400501
O O10 0.000000 0.000000 0.250000
O O11 0.887235 0.774469 0.250000
O O12 0.764054 0.687408 0.375570
O O13 0.724444 0.720058 0.216400
O O14 0.803294 0.846045 0.336893
O O15 0.358625 0.358625 0.000000
O O16 0.847398 0.000000 0.000000
#
# Coordination Sequence:
#
# PCOD9584777 Si02
#       7
#    12  12   4  12  12  12  12
#     4  11  20  35  57  80 117 157 201 241 297 346
#     4  11  23  45  69  93 120 152 194 248 313 381
#     4  12  31  35  37  63 109 158 244 280 284 319
#     4  11  18  32  50  70 107 154 207 251 289 330
#     4  11  19  39  59  89 124 159 198 244 294 355
#     4  10  22  34  59  84 113 151 193 245 292 358
#     4  12  23  35  46  66 106 162 219 262 301 325
#
# _framework density 19.737197999999999
#
# number of rings (size 3 to 8) (size 9 to 14) (size 15 to 20)
#    0.000    0.947    6.316    2.053    8.842    0.000 
#    2.842    0.000    0.000    0.000    0.000    0.000 
#    0.000    0.000    0.000    0.000    0.000    0.000 
#
# Total GULP energy -424052.377974 kJ/mol
# GULP energy per Si atom -5579.636552 kJ/mol
# Density = 1.969228 g / cm^3
# Si number density = 19.737198 Si / 1000 Ang^3
#
#
#
# Elastic Constant Matrix: (Units=GPa)
#
#
# Indices 1 2 3 4 5 6 
#
# 1 45.6467 11.3138 19.9014 0.0000 0.0000 0.0000
# 2 11.3138 45.6467 19.9014 0.0000 0.0000 0.0000
# 3 19.9014 19.9014 94.0697 0.0000 0.0000 0.0000
# 4 0.0000 0.0000 0.0000 20.3297 0.0000 0.0000
# 5 0.0000 0.0000 0.0000 0.0000 20.3297 0.0000
# 6 0.0000 0.0000 0.0000 0.0000 0.0000 17.1664
#
#
#
# Elastic Compliance Matrix: (Units=1/GPa)
#
#
# Indices 1 2 3 4 5 6 
#
# 1 0.024864 -0.004262 -0.004358 0.000000 0.000000 0.000000
# 2 -0.004262 0.024864 -0.004358 0.000000 0.000000 0.000000
# 3 -0.004358 -0.004358 0.012475 0.000000 0.000000 0.000000
# 4 0.000000 0.000000 0.000000 0.049189 0.000000 0.000000
# 5 0.000000 0.000000 0.000000 0.000000 0.049189 0.000000
# 6 0.000000 0.000000 0.000000 0.000000 0.000000 0.058253
#
#
# Mechanical properties :
#
#
# Convention : Reuss Voigt Hill
#
# Bulk Modulus (GPa) = 27.59081 31.95513 29.77297
# Shear Modulus (GPa) = 19.46476 20.51493 19.98984
#
# Velocity S-wave (km/s) = 3.14378 3.22748 3.18591
# Velocity P-wave (km/s) = 5.21414 5.48765 5.35264
#
# Compressibility (1/GPa) = 0.03624396
#
# Stress axis : x y z
#
# Youngs Moduli (GPa) = 40.21856 40.21856 80.16298
#
# Poissons Ratio (x) = 0.17143 0.34939
# Poissons Ratio (y) = 0.17143 0.34939
# Poissons Ratio (z) = 0.17529 0.17529
#
# Static dielectric constant tensor:
#      x y z
#    x 1.755400 0.000000 0.000000 
#    y 0.000000 1.755400 0.000000 
#    z 0.000000 0.000000 1.828520 
# 
# From -- ./inp_files/3653.got.cif
#   From: 2010.05.17/outbox.cif.g08.bks.cpg/sg182_2_cif.got.tgz:3653.got - 2010.05.20 11:58:53.
