data_PCOD9584047
_publ_section_title
;
Structure prediction by ZEFSAII (Michael W. Deem and Ramdas Pophale) SiO2 
 PCOD9584047
Probable space group: P 62 2 2
;
_chemical_formula_sum "Si O2"
_cell_formula_units_Z 69
_cell_length_a 14.004400
_cell_length_b 14.004400
_cell_length_c 18.022075
_cell_angle_alpha 90.000000
_cell_angle_beta 90.000000
_cell_angle_gamma 120.000000
_cell_volume 3061.007812
_symmetry_space_group_name_H-M "P 62 2 2"
_symmetry_group_IT_number 180
_symmetry_cell_setting 'hexagonal'
loop_
_space_group_symop_operation_xyz
x,y,z
x-y,x,1/3+z
-y,x-y,2/3+z
-x,-y,z
-x+y,-x,1/3+z
y,-x+y,2/3+z
x-y,-y,-z
-x,-x+y,1/3-z
y,x,2/3-z
-y,-x,2/3-z
-x+y,y,-z
x,x-y,1/3-z
loop_
_atom_site_type_symbol
_atom_site_label
_atom_site_fract_x
_atom_site_fract_y
_atom_site_fract_z
Si Si1 0.671514 0.888763 0.909645
Si Si2 0.760632 0.523226 0.380806
Si Si3 0.898159 0.101842 0.333334
Si Si4 0.500000 0.500000 0.833334
Si Si5 0.559417 0.931246 0.166345
Si Si6 0.135180 0.398304 0.104910
Si Si7 0.883361 0.883361 0.333334
Si Si8 0.710844 0.421688 0.000000
O O1 0.635113 0.790097 0.852238
O O2 0.796612 0.945792 0.934622
O O3 0.654130 0.981117 0.870803
O O4 0.601361 0.843364 0.984561
O O5 0.659846 0.494373 0.438064
O O6 0.870415 0.577522 0.430923
O O7 0.756646 0.418339 0.342372
O O8 0.800444 0.089047 0.387555
O O9 0.012215 0.121254 0.369718
O O10 0.540604 0.605911 0.780705
O O11 0.500000 0.000000 0.186699
O O12 0.248083 0.494451 0.069066
#
# Coordination Sequence:
#
# PCOD9584047 Si02
#       8
#    12  12   6   3  12  12   6   6
#     4  12  24  45  73 107 146 195 246 321 376 459
#     4  11  24  42  70 107 148 191 253 307 382 453
#     4  10  26  47  72 108 141 196 252 312 382 470
#     4  12  24  48  68 106 140 192 240 314 376 468
#     4  11  24  43  68 108 143 198 245 311 373 453
#     4  11  26  46  73 103 149 192 252 307 391 465
#     4  11  24  46  73 102 144 186 245 318 380 447
#     4  11  24  47  67 105 147 200 243 318 374 474
#
# _framework density 22.541595000000001
#
# number of rings (size 3 to 8) (size 9 to 14) (size 15 to 20)
#    0.000    0.870    1.739    4.174    2.435    4.174 
#    9.391    1.739    0.000    0.000    0.000    0.000 
#    0.000    0.000    0.000    0.000    0.000    0.000 
#
# Total GULP energy -385469.446949 kJ/mol
# GULP energy per Si atom -5586.513724 kJ/mol
# Density = 2.249029 g / cm^3
# Si number density = 22.541595 Si / 1000 Ang^3
#
#
#
# Elastic Constant Matrix: (Units=GPa)
#
#
# Indices 1 2 3 4 5 6 
#
# 1 117.1909 49.1728 28.8456 0.0000 0.0000 0.0000
# 2 49.1728 117.1909 28.8456 0.0000 0.0000 0.0000
# 3 28.8456 28.8456 87.5189 0.0000 0.0000 0.0000
# 4 0.0000 0.0000 0.0000 21.1032 0.0000 0.0000
# 5 0.0000 0.0000 0.0000 0.0000 21.1032 0.0000
# 6 0.0000 0.0000 0.0000 0.0000 0.0000 34.0091
#
#
#
# Elastic Compliance Matrix: (Units=1/GPa)
#
#
# Indices 1 2 3 4 5 6 
#
# 1 0.010744 -0.003958 -0.002237 0.000000 0.000000 0.000000
# 2 -0.003958 0.010744 -0.002237 0.000000 0.000000 0.000000
# 3 -0.002237 -0.002237 0.012901 0.000000 0.000000 0.000000
# 4 0.000000 0.000000 0.000000 0.047386 0.000000 0.000000
# 5 0.000000 0.000000 0.000000 0.000000 0.047386 0.000000
# 6 0.000000 0.000000 0.000000 0.000000 0.000000 0.029404
#
#
# Mechanical properties :
#
#
# Convention : Reuss Voigt Hill
#
# Bulk Modulus (GPa) = 57.05636 59.51429 58.28532
# Shear Modulus (GPa) = 27.58315 29.57889 28.58102
#
# Velocity S-wave (km/s) = 3.50187 3.62635 3.56465
# Velocity P-wave (km/s) = 6.45890 6.63273 6.54639
#
# Compressibility (1/GPa) = 0.01752653
#
# Stress axis : x y z
#
# Youngs Moduli (GPa) = 93.07274 93.07274 77.51590
#
# Poissons Ratio (x) = 0.36835 0.17339
# Poissons Ratio (y) = 0.36835 0.17339
# Poissons Ratio (z) = 0.20819 0.20819
#
# Static dielectric constant tensor:
#      x y z
#    x 1.857860 0.000000 0.000000 
#    y 0.000000 1.857860 0.000000 
#    z 0.000000 0.000000 1.861550 
# 
# From -- ./inp_files/7880.got.cif
#   From: 2010.05.17/outbox.cif.g08.bks.cpg/sg180_4_cif.got.tgz:7880.got - 2010.05.20 11:43:55.
