data_PCOD9584941
_publ_section_title
;
Structure prediction by ZEFSAII (Michael W. Deem and Ramdas Pophale) SiO2 
 PCOD9584941
Probable space group: P 6 M M
;
_chemical_formula_sum "Si O2"
_cell_formula_units_Z 84
_cell_length_a 22.395799
_cell_length_b 22.395799
_cell_length_c 12.791570
_cell_angle_alpha 90.000000
_cell_angle_beta 90.000000
_cell_angle_gamma 120.000000
_cell_volume 5556.324554
_symmetry_space_group_name_H-M "P 6 M M"
_symmetry_group_IT_number 183
_symmetry_cell_setting 'hexagonal'
loop_
_space_group_symop_operation_xyz
x,y,z
x-y,x,z
-y,x-y,z
-x,-y,z
-x+y,-x,z
y,-x+y,z
-x+y,y,z
x,x-y,z
-y,-x,z
y,x,z
x-y,-y,z
-x,-x+y,z
loop_
_atom_site_type_symbol
_atom_site_label
_atom_site_fract_x
_atom_site_fract_y
_atom_site_fract_z
Si Si1 0.435086 0.147635 0.870520
Si Si2 0.809241 0.334048 0.074741
Si Si3 0.710653 0.788806 0.984847
Si Si4 0.294074 0.443930 0.280303
Si Si5 0.524433 0.334025 0.492490
Si Si6 0.469133 0.080606 0.676548
Si Si7 0.707505 0.922703 0.234954
O O1 0.444938 0.222469 0.840130
O O2 0.446308 0.108692 0.775138
O O3 0.487406 0.160052 0.965105
O O4 0.359246 0.104250 0.920447
O O5 0.803325 0.401663 0.078784
O O6 0.733911 0.266090 0.083575
O O7 0.853541 0.332452 0.172779
O O8 0.736987 0.868493 0.963913
O O9 0.764412 0.764412 0.959443
O O10 0.695025 0.777708 0.109243
O O11 0.220718 0.441436 0.273352
O O12 0.331353 0.489625 0.380865
O O13 0.272148 0.364101 0.286462
O O14 0.521561 0.260781 0.508441
O O15 0.603232 0.396769 0.493327
O O16 0.483538 0.350756 0.580578
O O17 0.542186 0.084372 0.698588
O O18 0.414880 0.000000 0.654500
O O19 0.722412 0.861206 0.263386
O O20 0.767376 0.000000 0.257920
#
# Coordination Sequence:
#
# PCOD9584941 Si02
#       7
#    12  12  12  12  12  12  12
#     4  10  18  30  48  67  89 117 152 190 228 274
#     4  10  18  28  43  65  92 119 147 184 231 279
#     4   9  16  27  45  67  90 116 146 181 220 264
#     4   9  17  30  46  67  93 120 151 186 226 273
#     4  10  20  34  52  71  92 121 159 200 240 285
#     4  10  21  35  48  63  87 120 156 196 242 286
#     4   9  16  28  46  68  93 121 153 188 227 272
#
# _framework density 15.117907000000001
#
# number of rings (size 3 to 8) (size 9 to 14) (size 15 to 20)
#    0.000    2.429    1.429    2.000    0.000    0.571 
#    0.000    1.429    0.000    7.000    0.000    2.000 
#    0.000    0.000    0.000    0.000    0.000    0.000 
#
# Total GULP energy -468013.248704 kJ/mol
# GULP energy per Si atom -5571.586294 kJ/mol
# Density = 1.508350 g / cm^3
# Si number density = 15.117907 Si / 1000 Ang^3
#
#
#
# Elastic Constant Matrix: (Units=GPa)
#
#
# Indices 1 2 3 4 5 6 
#
# 1 85.4011 45.8197 40.3026 0.0000 0.0000 0.0000
# 2 45.8197 85.4011 40.3026 0.0000 0.0000 0.0000
# 3 40.3026 40.3026 54.5052 0.0000 0.0000 0.0000
# 4 0.0000 0.0000 0.0000 17.4715 0.0000 0.0000
# 5 0.0000 0.0000 0.0000 0.0000 17.4715 0.0000
# 6 0.0000 0.0000 0.0000 0.0000 0.0000 19.7907
#
#
#
# Elastic Compliance Matrix: (Units=1/GPa)
#
#
# Indices 1 2 3 4 5 6 
#
# 1 0.019614 -0.005651 -0.010324 0.000000 0.000000 0.000000
# 2 -0.005651 0.019614 -0.010324 0.000000 0.000000 0.000000
# 3 -0.010324 -0.010324 0.033615 0.000000 0.000000 0.000000
# 4 0.000000 0.000000 0.000000 0.057236 0.000000 0.000000
# 5 0.000000 0.000000 0.000000 0.000000 0.057236 0.000000
# 6 0.000000 0.000000 0.000000 0.000000 0.000000 0.050529
#
#
# Mechanical properties :
#
#
# Convention : Reuss Voigt Hill
#
# Bulk Modulus (GPa) = 49.39988 53.12859 51.26424
# Shear Modulus (GPa) = 16.82424 17.53891 17.18157
#
# Velocity S-wave (km/s) = 3.33959 3.40978 3.37487
# Velocity P-wave (km/s) = 6.90056 7.12189 7.01210
#
# Compressibility (1/GPa) = 0.02024296
#
# Stress axis : x y z
#
# Youngs Moduli (GPa) = 50.98516 50.98516 29.74840
#
# Poissons Ratio (x) = 0.28811 0.30714
# Poissons Ratio (y) = 0.28811 0.30714
# Poissons Ratio (z) = 0.52639 0.52639
#
# Static dielectric constant tensor:
#      x y z
#    x 1.496240 0.000000 0.000000 
#    y 0.000000 1.496240 0.000000 
#    z 0.000000 0.000000 1.491640 
# 
# From -- ./inp_files/1745.got.cif
#   From: 2010.05.17/outbox.cif.g08.bks.cpg/sg183_1_cif.got.tgz:1745.got - 2010.05.20 12:02:58.
