data_PCOD9584876
_publ_section_title
;
Structure prediction by ZEFSAII (Michael W. Deem and Ramdas Pophale) SiO2 
 PCOD9584876
Probable space group: P 63 2 2
;
_chemical_formula_sum "Si O2"
_cell_formula_units_Z 28
_cell_length_a 10.120983
_cell_length_b 10.120983
_cell_length_c 13.032007
_cell_angle_alpha 90.000000
_cell_angle_beta 90.000000
_cell_angle_gamma 120.000000
_cell_volume 1156.078507
_symmetry_space_group_name_H-M "P 63 2 2"
_symmetry_group_IT_number 182
_symmetry_cell_setting 'hexagonal'
loop_
_space_group_symop_operation_xyz
x,y,z
x-y,x,1/2+z
-y,x-y,z
-x,-y,1/2+z
-x+y,-x,z
y,-x+y,1/2+z
x-y,-y,-z
-x,-x+y,-z
y,x,-z
-y,-x,1/2-z
-x+y,y,1/2-z
x,x-y,1/2-z
loop_
_atom_site_type_symbol
_atom_site_label
_atom_site_fract_x
_atom_site_fract_y
_atom_site_fract_z
Si Si1 0.776911 0.113224 0.149246
Si Si2 0.712002 0.520673 0.578096
Si Si3 0.000000 0.000000 0.880257
O O1 0.790234 0.209767 0.250000
O O2 0.935495 0.111249 0.146940
O O3 0.649440 0.934762 0.148856
O O4 0.742679 0.166368 0.040605
O O5 0.546009 0.370582 0.595356
O O6 0.000000 0.000000 0.000000
#
# Coordination Sequence:
#
# PCOD9584876 Si02
#       3
#    12  12   4
#     4  11  23  42  72 108 145 192 263 310 375 459
#     4   9  22  43  69 104 146 196 234 302 395 438
#     4  12  22  41  67 100 134 196 253 317 379 433
#
# _framework density 24.219811
#
# number of rings (size 3 to 8) (size 9 to 14) (size 15 to 20)
#    0.857    0.857    4.286    1.286    0.000    8.571 
#    0.000    4.286    0.000    0.000    0.000    0.000 
#    0.000    0.000    0.000    0.000    0.000    0.000 
#
# Total GULP energy -156184.285421 kJ/mol
# GULP energy per Si atom -5578.010194 kJ/mol
# Density = 2.416469 g / cm^3
# Si number density = 24.219811 Si / 1000 Ang^3
#
#
#
# Elastic Constant Matrix: (Units=GPa)
#
#
# Indices 1 2 3 4 5 6 
#
# 1 109.2097 18.7051 23.7134 0.0000 0.0000 0.0000
# 2 18.7051 109.2097 23.7134 0.0000 0.0000 0.0000
# 3 23.7134 23.7134 151.3483 0.0000 0.0000 0.0000
# 4 0.0000 0.0000 0.0000 -64.5195 0.0000 0.0000
# 5 0.0000 0.0000 0.0000 0.0000 -64.5195 0.0000
# 6 0.0000 0.0000 0.0000 0.0000 0.0000 45.2523
#
#
#
# Elastic Compliance Matrix: (Units=1/GPa)
#
#
# Indices 1 2 3 4 5 6 
#
# 1 0.009675 -0.001375 -0.001300 0.000000 0.000000 0.000000
# 2 -0.001375 0.009675 -0.001300 0.000000 0.000000 0.000000
# 3 -0.001300 -0.001300 0.007015 0.000000 0.000000 0.000000
# 4 0.000000 0.000000 0.000000 -0.015499 0.000000 0.000000
# 5 0.000000 0.000000 0.000000 0.000000 -0.015499 0.000000
# 6 0.000000 0.000000 0.000000 0.000000 0.000000 0.022098
#
#
# Mechanical properties :
#
#
# Convention : Reuss Voigt Hill
#
# Bulk Modulus (GPa) = 54.31011 55.78130 55.04571
# Shear Modulus (GPa) = 158.46670 3.48504 80.97587
#
# Velocity S-wave (km/s) = 8.09757 1.20085 5.78846
# Velocity P-wave (km/s) = 10.48332 5.00040 8.21292
#
# Compressibility (1/GPa) = 0.01841278
#
# Stress axis : x y z
#
# Youngs Moduli (GPa) = 103.36441 103.36441 142.55610
#
# Poissons Ratio (x) = 0.14209 0.18538
# Poissons Ratio (y) = 0.14209 0.18538
# Poissons Ratio (z) = 0.13442 0.13442
#
# Static dielectric constant tensor:
#      x y z
#    x 1.984800 0.000000 0.000000 
#    y 0.000000 1.984800 0.000000 
#    z 0.000000 0.000000 2.049060 
# 
# From -- ./inp_files/2869.got.cif
#   From: 2010.05.17/outbox.cif.g08.bks.cpg/sg182_2_cif.got.tgz:2869.got - 2010.05.20 11:58:53.
