data_PCOD9584586
_publ_section_title
;
Structure prediction by ZEFSAII (Michael W. Deem and Ramdas Pophale) SiO2 
 PCOD9584586
Probable space group: P 64 2 2
;
_chemical_formula_sum "Si O2"
_cell_formula_units_Z 42
_cell_length_a 14.289630
_cell_length_b 14.289630
_cell_length_c 10.191159
_cell_angle_alpha 90.000000
_cell_angle_beta 90.000000
_cell_angle_gamma 120.000000
_cell_volume 1802.171746
_symmetry_space_group_name_H-M "P 64 2 2"
_symmetry_group_IT_number 181
_symmetry_cell_setting 'hexagonal'
loop_
_space_group_symop_operation_xyz
x,y,z
x-y,x,2/3+z
-y,x-y,1/3+z
-x,-y,z
-x+y,-x,2/3+z
y,-x+y,1/3+z
x-y,-y,-z
-x,-x+y,2/3-z
y,x,1/3-z
-y,-x,1/3-z
-x+y,y,-z
x,x-y,2/3-z
loop_
_atom_site_type_symbol
_atom_site_label
_atom_site_fract_x
_atom_site_fract_y
_atom_site_fract_z
Si Si1 0.967522 0.249523 0.689953
Si Si2 0.404597 0.891068 0.717804
Si Si3 0.249368 0.730871 0.378986
Si Si4 0.829691 0.659382 0.500000
O O1 0.859055 0.140945 0.666667
O O2 0.939453 0.345251 0.700377
O O3 0.000000 0.233364 0.833334
O O4 0.055932 0.275824 0.575306
O O5 0.309629 0.806559 0.813854
O O6 0.457532 0.829052 0.643431
O O7 0.500000 0.000000 0.786793
O O8 0.254950 0.627475 0.333334
O O9 0.174063 0.753304 0.281684
#
# Coordination Sequence:
#
# PCOD9584586 Si02
#       4
#    12  12  12   6
#     4  12  29  52  79 115 157 209 269 338 402 482
#     4  12  26  48  75 116 160 214 264 328 411 491
#     4  12  23  46  75 112 157 207 265 323 397 493
#     4  12  26  52  77 112 155 210 264 326 406 482
#
# _framework density 23.305216000000001
#
# number of rings (size 3 to 8) (size 9 to 14) (size 15 to 20)
#    0.000    0.000    5.714    2.571    0.000   10.286 
#    0.000    2.143    0.000    0.000    0.000    0.000 
#    0.000    0.000    0.000    0.000    0.000    0.000 
#
# Total GULP energy -234900.027029 kJ/mol
# GULP energy per Si atom -5592.857786 kJ/mol
# Density = 2.325217 g / cm^3
# Si number density = 23.305216 Si / 1000 Ang^3
#
#
#
# Elastic Constant Matrix: (Units=GPa)
#
#
# Indices 1 2 3 4 5 6 
#
# 1 144.3077 78.3817 61.6363 0.0000 0.0000 0.0000
# 2 78.3817 144.3077 61.6363 0.0000 0.0000 0.0000
# 3 61.6363 61.6363 131.0622 0.0000 0.0000 0.0000
# 4 0.0000 0.0000 0.0000 19.7523 0.0000 0.0000
# 5 0.0000 0.0000 0.0000 0.0000 19.7523 0.0000
# 6 0.0000 0.0000 0.0000 0.0000 0.0000 32.9630
#
#
#
# Elastic Compliance Matrix: (Units=1/GPa)
#
#
# Indices 1 2 3 4 5 6 
#
# 1 0.010620 -0.004549 -0.002855 0.000000 0.000000 0.000000
# 2 -0.004549 0.010620 -0.002855 0.000000 0.000000 0.000000
# 3 -0.002855 -0.002855 0.010315 0.000000 0.000000 0.000000
# 4 0.000000 0.000000 0.000000 0.050627 0.000000 0.000000
# 5 0.000000 0.000000 0.000000 0.000000 0.050627 0.000000
# 6 0.000000 0.000000 0.000000 0.000000 0.000000 0.030337
#
#
# Mechanical properties :
#
#
# Convention : Reuss Voigt Hill
#
# Bulk Modulus (GPa) = 90.60405 91.44293 91.02349
# Shear Modulus (GPa) = 26.68901 29.02840 27.85871
#
# Velocity S-wave (km/s) = 3.38774 3.53310 3.46118
# Velocity P-wave (km/s) = 7.36641 7.48104 7.42395
#
# Compressibility (1/GPa) = 0.01103703
#
# Stress axis : x y z
#
# Youngs Moduli (GPa) = 94.16390 94.16390 96.94263
#
# Poissons Ratio (x) = 0.42833 0.27678
# Poissons Ratio (y) = 0.42833 0.27678
# Poissons Ratio (z) = 0.26885 0.26885
#
# Static dielectric constant tensor:
#      x y z
#    x 1.832600 0.000000 0.000000 
#    y 0.000000 1.832600 0.000000 
#    z 0.000000 0.000000 1.895980 
# 
# From -- ./inp_files/4233.got.cif
#   From: 2010.05.17/outbox.cif.g08.bks.cpg/sg181_3_cif.got.tgz:4233.got - 2010.05.20 11:51:17.
