data_PCOD9584433
_publ_section_title
;
Structure prediction by ZEFSAII (Michael W. Deem and Ramdas Pophale) SiO2 
 PCOD9584433
Probable space group: P 64 2 2
;
_chemical_formula_sum "Si O2"
_cell_formula_units_Z 75
_cell_length_a 11.658328
_cell_length_b 11.658328
_cell_length_c 29.272336
_cell_angle_alpha 90.000000
_cell_angle_beta 90.000000
_cell_angle_gamma 120.000000
_cell_volume 3445.565837
_symmetry_space_group_name_H-M "P 64 2 2"
_symmetry_group_IT_number 181
_symmetry_cell_setting 'hexagonal'
loop_
_space_group_symop_operation_xyz
x,y,z
x-y,x,2/3+z
-y,x-y,1/3+z
-x,-y,z
-x+y,-x,2/3+z
y,-x+y,1/3+z
x-y,-y,-z
-x,-x+y,2/3-z
y,x,1/3-z
-y,-x,1/3-z
-x+y,y,-z
x,x-y,2/3-z
loop_
_atom_site_type_symbol
_atom_site_label
_atom_site_fract_x
_atom_site_fract_y
_atom_site_fract_z
Si Si1 0.657457 0.404398 0.418716
Si Si2 0.500000 0.000000 0.500000
Si Si3 0.355057 0.144009 0.260284
Si Si4 0.581809 0.649474 0.983795
Si Si5 0.707255 0.625281 0.248066
Si Si6 0.462103 0.096674 0.093271
Si Si7 0.627760 0.689098 0.848710
O O1 0.515980 0.279022 0.405450
O O2 0.716022 0.511772 0.377312
O O3 0.765880 0.365636 0.432200
O O4 0.639476 0.487051 0.459465
O O5 0.452219 0.075667 0.535883
O O6 0.293901 0.237566 0.251818
O O7 0.309903 0.041109 0.303033
O O8 0.321183 0.046187 0.217687
O O9 0.500000 0.500000 0.965058
O O10 0.556099 0.644086 0.037086
O O11 0.850472 0.637583 0.252549
O O12 0.500000 0.000000 0.065395
O O13 0.393465 0.012033 0.138061
O O14 0.675433 0.837717 0.833334
#
# Coordination Sequence:
#
# PCOD9584433 Si02
#       7
#    12   3  12  12  12  12  12
#     4  10  22  39  68  99 129 172 234 269 340 420
#     4  12  24  36  64 104 142 168 196 302 360 402
#     4  10  22  40  68 100 127 175 225 278 342 414
#     4   9  20  42  67  95 131 177 224 270 334 428
#     4  12  24  41  61  98 139 170 222 283 354 398
#     4  12  25  41  65  99 137 183 221 291 348 403
#     4  11  22  40  67  93 134 181 227 276 339 417
#
# _framework density 21.767105999999998
#
# number of rings (size 3 to 8) (size 9 to 14) (size 15 to 20)
#    0.000    1.280    2.400    4.800    0.000    1.920 
#    0.000    3.200    0.000    0.000    4.160    0.000 
#    0.000    0.000    0.000    0.000    0.000    0.000 
#
# Total GULP energy -418253.629504 kJ/mol
# GULP energy per Si atom -5576.715060 kJ/mol
# Density = 2.171756 g / cm^3
# Si number density = 21.767106 Si / 1000 Ang^3
#
#
#
# Elastic Constant Matrix: (Units=GPa)
#
#
# Indices 1 2 3 4 5 6 
#
# 1 118.2188 42.9263 23.7355 0.0000 0.0000 0.0000
# 2 42.9263 118.2188 23.7355 0.0000 0.0000 0.0000
# 3 23.7355 23.7355 80.7794 0.0000 0.0000 0.0000
# 4 0.0000 0.0000 0.0000 7.1873 0.0000 0.0000
# 5 0.0000 0.0000 0.0000 0.0000 7.1873 0.0000
# 6 0.0000 0.0000 0.0000 0.0000 0.0000 37.6463
#
#
#
# Elastic Compliance Matrix: (Units=1/GPa)
#
#
# Indices 1 2 3 4 5 6 
#
# 1 0.010038 -0.003244 -0.001996 0.000000 0.000000 0.000000
# 2 -0.003244 0.010038 -0.001996 0.000000 0.000000 0.000000
# 3 -0.001996 -0.001996 0.013552 0.000000 0.000000 0.000000
# 4 0.000000 0.000000 0.000000 0.139135 0.000000 0.000000
# 5 0.000000 0.000000 0.000000 0.000000 0.139135 0.000000
# 6 0.000000 0.000000 0.000000 0.000000 0.000000 0.026563
#
#
# Mechanical properties :
#
#
# Convention : Reuss Voigt Hill
#
# Bulk Modulus (GPa) = 52.20565 55.33462 53.77014
# Shear Modulus (GPa) = 13.91523 25.52548 19.72036
#
# Velocity S-wave (km/s) = 2.53114 3.42813 3.01320
# Velocity P-wave (km/s) = 5.70772 6.41450 6.07140
#
# Compressibility (1/GPa) = 0.01915501
#
# Stress axis : x y z
#
# Youngs Moduli (GPa) = 99.62562 99.62562 73.78730
#
# Poissons Ratio (x) = 0.32318 0.14729
# Poissons Ratio (y) = 0.32318 0.14729
# Poissons Ratio (z) = 0.19887 0.19887
#
# Static dielectric constant tensor:
#      x y z
#    x 1.872600 0.000000 0.000000 
#    y 0.000000 1.872600 0.000000 
#    z 0.000000 0.000000 1.833250 
# 
# From -- ./inp_files/12374.got.cif
#   From: 2010.05.17/outbox.cif.g08.bks.cpg/sg181_7_cif.got.tgz:12374.got - 2010.05.20 11:51:17.
