data_PCOD9584395
_publ_section_title
;
Structure prediction by ZEFSAII (Michael W. Deem and Ramdas Pophale) SiO2 
 PCOD9584395
Probable space group: P 64 2 2
;
_chemical_formula_sum "Si O2"
_cell_formula_units_Z 57
_cell_length_a 12.635490
_cell_length_b 12.635490
_cell_length_c 16.663036
_cell_angle_alpha 90.000000
_cell_angle_beta 90.000000
_cell_angle_gamma 120.000000
_cell_volume 2303.928203
_symmetry_space_group_name_H-M "P 64 2 2"
_symmetry_group_IT_number 181
_symmetry_cell_setting 'hexagonal'
loop_
_space_group_symop_operation_xyz
x,y,z
x-y,x,2/3+z
-y,x-y,1/3+z
-x,-y,z
-x+y,-x,2/3+z
y,-x+y,1/3+z
x-y,-y,-z
-x,-x+y,2/3-z
y,x,1/3-z
-y,-x,1/3-z
-x+y,y,-z
x,x-y,2/3-z
loop_
_atom_site_type_symbol
_atom_site_label
_atom_site_fract_x
_atom_site_fract_y
_atom_site_fract_z
Si Si1 0.339411 0.802162 0.889626
Si Si2 0.675469 0.041875 0.754501
Si Si3 0.000000 0.500000 0.333334
Si Si4 0.872643 0.832580 0.082123
Si Si5 0.064925 0.666542 0.918821
Si Si6 0.454571 0.227286 0.833334
O O1 0.350232 0.863048 0.802517
O O2 0.382777 0.916978 0.947005
O O3 0.203786 0.697035 0.910696
O O4 0.323447 0.771152 0.103129
O O5 0.822855 0.107518 0.755854
O O6 0.616846 0.013056 0.665508
O O7 0.623683 0.909339 0.797930
O O8 0.899233 0.899233 0.166667
O O9 0.730637 0.792691 0.072053
O O10 0.942891 0.885781 0.000000
O O11 0.000000 0.612660 0.833334
#
# Coordination Sequence:
#
# PCOD9584395 Si02
#       6
#    12  12   3  12  12   6
#     4  12  24  45  74 103 149 188 242 308 358 441
#     4  11  22  43  73 101 146 188 235 308 356 445
#     4  12  24  44  72 100 140 208 244 300 360 424
#     4   9  17  35  68 102 142 184 235 293 370 442
#     4  10  21  41  72 107 139 186 238 290 377 441
#     4  12  26  46  68 110 136 190 256 292 370 426
#
# _framework density 24.740355999999998
#
# number of rings (size 3 to 8) (size 9 to 14) (size 15 to 20)
#    0.000    1.263    6.316    1.263    0.000    0.000 
#    0.000    9.474    0.000    1.263    0.000    0.000 
#    0.000    0.000    0.000    0.000    0.000    0.000 
#
# Total GULP energy -318063.197452 kJ/mol
# GULP energy per Si atom -5580.056096 kJ/mol
# Density = 2.468405 g / cm^3
# Si number density = 24.740356 Si / 1000 Ang^3
#
#
#
# Elastic Constant Matrix: (Units=GPa)
#
#
# Indices 1 2 3 4 5 6 
#
# 1 -1660.5800 1751.3056 13.5105 0.0000 0.0000 0.0001
# 2 1751.3056-1660.5800 13.5105 0.0000 0.0000 -0.0001
# 3 13.5105 13.5105 186.1778 0.0000 0.0000 0.0000
# 4 0.0000 0.0000 0.0000 42.8181 0.0000 0.0000
# 5 0.0000 0.0000 0.0000 0.0000 42.8181 0.0000
# 6 0.0001 -0.0001 0.0000 0.0000 0.0000-1705.9429
#
#
#
# Elastic Compliance Matrix: (Units=1/GPa)
#
#
# Indices 1 2 3 4 5 6 
#
# 1 0.005486 0.005779 -0.000818 0.000000 0.000000 0.000000
# 2 0.005779 0.005486 -0.000818 0.000000 0.000000 0.000000
# 3 -0.000818 -0.000818 0.005490 0.000000 0.000000 0.000000
# 4 0.000000 0.000000 0.000000 0.023355 0.000000 0.000000
# 5 0.000000 0.000000 0.000000 0.000000 0.023355 0.000000
# 6 0.000000 0.000000 0.000000 0.000000 0.000000 -0.000586
#
#
# Mechanical properties :
#
#
# Convention : Reuss Voigt Hill
#
# Bulk Modulus (GPa) = 40.40205 46.85234 43.62719
# Shear Modulus (GPa) = 79.93953 -651.61527 -285.83787
#
# Velocity S-wave (km/s) = 5.69048 -16.24664 -10.76038
# Velocity P-wave (km/s) = 7.71630 18.24716 11.69226
#
# Compressibility (1/GPa) = 0.02475122
#
# Stress axis : x y z
#
# Youngs Moduli (GPa) = 182.27139 182.27139 182.15397
#
# Poissons Ratio (x) = -1.05342 0.14892
# Poissons Ratio (y) = -1.05342 0.14892
# Poissons Ratio (z) = 0.14901 0.14901
#
# Static dielectric constant tensor:
#      x y z
#    x 1.916590 0.000000 0.000000 
#    y 0.000000 1.916590 0.000000 
#    z 0.000000 0.000000 2.022650 
# 
# From -- ./inp_files/6179.got.cif
#   From: 2010.05.17/outbox.cif.g08.bks.cpg/sg181_4_cif.got.tgz:6179.got - 2010.05.20 11:51:17.
