data_PCOD9584234
_publ_section_title
;
Structure prediction by ZEFSAII (Michael W. Deem and Ramdas Pophale) SiO2 
 PCOD9584234
Probable space group: P 64 2 2
;
_chemical_formula_sum "Si O2"
_cell_formula_units_Z 60
_cell_length_a 17.973598
_cell_length_b 17.973598
_cell_length_c 12.145203
_cell_angle_alpha 90.000000
_cell_angle_beta 90.000000
_cell_angle_gamma 120.000000
_cell_volume 3397.859819
_symmetry_space_group_name_H-M "P 64 2 2"
_symmetry_group_IT_number 181
_symmetry_cell_setting 'hexagonal'
loop_
_space_group_symop_operation_xyz
x,y,z
x-y,x,2/3+z
-y,x-y,1/3+z
-x,-y,z
-x+y,-x,2/3+z
y,-x+y,1/3+z
x-y,-y,-z
-x,-x+y,2/3-z
y,x,1/3-z
-y,-x,1/3-z
-x+y,y,-z
x,x-y,2/3-z
loop_
_atom_site_type_symbol
_atom_site_label
_atom_site_fract_x
_atom_site_fract_y
_atom_site_fract_z
Si Si1 0.909671 0.743212 0.270424
Si Si2 0.093013 0.561793 0.155741
Si Si3 0.854894 0.546343 0.314233
Si Si4 0.410999 0.741553 0.712219
Si Si5 0.863028 0.996735 0.742932
O O1 0.872500 0.641173 0.285905
O O2 0.858397 0.784698 0.332910
O O3 0.000000 0.785314 0.333334
O O4 0.937329 0.781979 0.147081
O O5 0.110717 0.497653 0.229389
O O6 0.105641 0.640790 0.235733
O O7 0.160754 0.601400 0.059452
O O8 0.000000 0.500000 0.111433
O O9 0.753251 0.480589 0.315931
O O10 0.316724 0.683277 0.666667
O O11 0.409682 0.704841 0.833334
O O12 0.879854 0.939927 0.833334
O O13 0.945107 0.054893 0.666667
#
# Coordination Sequence:
#
# PCOD9584234 Si02
#       5
#    12  12  12  12  12
#     4  10  21  33  52  78 111 142 185 239 298 345
#     4  10  19  31  55  84 113 142 185 238 287 337
#     4  10  18  33  54  80 113 142 179 239 291 341
#     4  10  18  34  57  84 109 148 188 227 282 344
#     4  10  22  37  55  79 107 152 200 247 294 349
#
# _framework density 17.658175
#
# number of rings (size 3 to 8) (size 9 to 14) (size 15 to 20)
#    0.000    2.000    4.000    3.000    0.000   16.400 
#    0.000    1.000    0.000    3.000    0.000    0.000 
#    0.000    0.000    0.000    0.000    0.000    0.000 
#
# Total GULP energy -334099.805972 kJ/mol
# GULP energy per Si atom -5568.330100 kJ/mol
# Density = 1.761798 g / cm^3
# Si number density = 17.658175 Si / 1000 Ang^3
#
#
#
# Elastic Constant Matrix: (Units=GPa)
#
#
# Indices 1 2 3 4 5 6 
#
# 1 118.0512 46.0584 30.3716 0.0000 0.0000 0.0000
# 2 46.0584 118.0512 30.3716 0.0000 0.0000 0.0000
# 3 30.3716 30.3716 35.2927 0.0000 0.0000 0.0000
# 4 0.0000 0.0000 0.0000 18.4942 0.0000 0.0000
# 5 0.0000 0.0000 0.0000 0.0000 18.4942 0.0000
# 6 0.0000 0.0000 0.0000 0.0000 0.0000 35.9964
#
#
#
# Elastic Compliance Matrix: (Units=1/GPa)
#
#
# Indices 1 2 3 4 5 6 
#
# 1 0.011416 -0.002474 -0.007695 0.000000 0.000000 0.000000
# 2 -0.002474 0.011416 -0.007695 0.000000 0.000000 0.000000
# 3 -0.007695 -0.007695 0.041578 0.000000 0.000000 0.000000
# 4 0.000000 0.000000 0.000000 0.054071 0.000000 0.000000
# 5 0.000000 0.000000 0.000000 0.000000 0.054071 0.000000
# 6 0.000000 0.000000 0.000000 0.000000 0.000000 0.027781
#
#
# Mechanical properties :
#
#
# Convention : Reuss Voigt Hill
#
# Bulk Modulus (GPa) = 34.86483 53.88872 44.37678
# Shear Modulus (GPa) = 20.35651 25.56987 22.96319
#
# Velocity S-wave (km/s) = 3.39899 3.80945 3.61006
# Velocity P-wave (km/s) = 5.93223 7.06634 6.52398
#
# Compressibility (1/GPa) = 0.02868220
#
# Stress axis : x y z
#
# Youngs Moduli (GPa) = 87.59664 87.59664 24.05096
#
# Poissons Ratio (x) = 0.21674 0.18507
# Poissons Ratio (y) = 0.21674 0.18507
# Poissons Ratio (z) = 0.67405 0.67405
#
# Static dielectric constant tensor:
#      x y z
#    x 1.651730 0.000000 0.000000 
#    y 0.000000 1.651730 0.000000 
#    z 0.000000 0.000000 1.638880 
# 
# From -- ./inp_files/4866.got.cif
#   From: 2010.05.17/outbox.cif.g08.bks.cpg/sg181_3_cif.got.tgz:4866.got - 2010.05.20 11:51:17.
