data_PCOD9584387
_publ_section_title
;
Structure prediction by ZEFSAII (Michael W. Deem and Ramdas Pophale) SiO2 
 PCOD9584387
Probable space group: P 64 2 2
;
_chemical_formula_sum "Si O2"
_cell_formula_units_Z 42
_cell_length_a 10.439203
_cell_length_b 10.439203
_cell_length_c 22.199244
_cell_angle_alpha 90.000000
_cell_angle_beta 90.000000
_cell_angle_gamma 120.000000
_cell_volume 2095.093948
_symmetry_space_group_name_H-M "P 64 2 2"
_symmetry_group_IT_number 181
_symmetry_cell_setting 'hexagonal'
loop_
_space_group_symop_operation_xyz
x,y,z
x-y,x,2/3+z
-y,x-y,1/3+z
-x,-y,z
-x+y,-x,2/3+z
y,-x+y,1/3+z
x-y,-y,-z
-x,-x+y,2/3-z
y,x,1/3-z
-y,-x,1/3-z
-x+y,y,-z
x,x-y,2/3-z
loop_
_atom_site_type_symbol
_atom_site_label
_atom_site_fract_x
_atom_site_fract_y
_atom_site_fract_z
Si Si1 0.655665 0.327833 0.333334
Si Si2 0.217866 0.217866 0.166667
Si Si3 0.244988 0.122494 0.833334
Si Si4 0.926973 0.600459 0.953138
Si Si5 0.164769 0.836322 0.029688
O O1 0.528701 0.283242 0.281795
O O2 0.761445 0.501476 0.341976
O O3 0.311259 0.296853 0.225231
O O4 0.054353 0.194892 0.168388
O O5 0.325852 0.164410 0.768908
O O6 0.000000 0.500000 0.965450
O O7 0.998730 0.726926 0.004925
O O8 0.231995 0.000000 0.000000
#
# Coordination Sequence:
#
# PCOD9584387 Si02
#       5
#     6   6   6  12  12
#     4  10  23  42  65  94 132 184 222 278 353 410
#     4  11  21  40  62 100 127 165 228 276 348 397
#     4  11  24  38  68 100 125 174 226 284 339 406
#     4  10  21  40  65  89 129 173 221 273 334 411
#     4  11  22  45  65  97 139 177 228 284 348 413
#
# _framework density 20.046831999999998
#
# number of rings (size 3 to 8) (size 9 to 14) (size 15 to 20)
#    0.000    1.429    2.857    2.571    0.000    0.000 
#   10.286    5.714    0.000    0.000    0.000    0.000 
#    0.000    0.000    0.000    0.000    0.000    0.000 
#
# Total GULP energy -233888.844814 kJ/mol
# GULP energy per Si atom -5568.782019 kJ/mol
# Density = 2.000120 g / cm^3
# Si number density = 20.046832 Si / 1000 Ang^3
#
#
#
# Elastic Constant Matrix: (Units=GPa)
#
#
# Indices 1 2 3 4 5 6 
#
# 1 104.5256 55.1549 26.9679 0.0000 0.0000 0.0000
# 2 55.1549 104.5256 26.9679 0.0000 0.0000 0.0000
# 3 26.9679 26.9679 134.8698 0.0000 0.0000 0.0000
# 4 0.0000 0.0000 0.0000 32.3541 0.0000 0.0000
# 5 0.0000 0.0000 0.0000 0.0000 32.3541 0.0000
# 6 0.0000 0.0000 0.0000 0.0000 0.0000 24.6853
#
#
#
# Elastic Compliance Matrix: (Units=1/GPa)
#
#
# Indices 1 2 3 4 5 6 
#
# 1 0.013486 -0.006769 -0.001343 0.000000 0.000000 0.000000
# 2 -0.006769 0.013486 -0.001343 0.000000 0.000000 0.000000
# 3 -0.001343 -0.001343 0.007952 0.000000 0.000000 0.000000
# 4 0.000000 0.000000 0.000000 0.030908 0.000000 0.000000
# 5 0.000000 0.000000 0.000000 0.000000 0.030908 0.000000
# 6 0.000000 0.000000 0.000000 0.000000 0.000000 0.040510
#
#
# Mechanical properties :
#
#
# Convention : Reuss Voigt Hill
#
# Bulk Modulus (GPa) = 62.45260 62.45582 62.45421
# Shear Modulus (GPa) = 30.96045 33.53407 32.24726
#
# Velocity S-wave (km/s) = 3.93416 4.09441 4.01508
# Velocity P-wave (km/s) = 7.20123 7.31948 7.26060
#
# Compressibility (1/GPa) = 0.01601214
#
# Stress axis : x y z
#
# Youngs Moduli (GPa) = 74.15359 74.15359 125.76083
#
# Poissons Ratio (x) = 0.50198 0.16889
# Poissons Ratio (y) = 0.50198 0.16889
# Poissons Ratio (z) = 0.09958 0.09958
#
# Static dielectric constant tensor:
#      x y z
#    x 1.681930 0.000000 0.000000 
#    y 0.000000 1.681930 0.000000 
#    z 0.000000 0.000000 1.738060 
# 
# From -- ./inp_files/8531.got.cif
#   From: 2010.05.17/outbox.cif.g08.bks.cpg/sg181_5_cif.got.tgz:8531.got - 2010.05.20 11:51:17.
