data_PCOD9584538
_publ_section_title
;
Structure prediction by ZEFSAII (Michael W. Deem and Ramdas Pophale) SiO2 
 PCOD9584538
Probable space group: P 64 2 2
;
_chemical_formula_sum "Si O2"
_cell_formula_units_Z 54
_cell_length_a 12.565735
_cell_length_b 12.565735
_cell_length_c 19.022695
_cell_angle_alpha 90.000000
_cell_angle_beta 90.000000
_cell_angle_gamma 120.000000
_cell_volume 2601.228296
_symmetry_space_group_name_H-M "P 64 2 2"
_symmetry_group_IT_number 181
_symmetry_cell_setting 'hexagonal'
loop_
_space_group_symop_operation_xyz
x,y,z
x-y,x,2/3+z
-y,x-y,1/3+z
-x,-y,z
-x+y,-x,2/3+z
y,-x+y,1/3+z
x-y,-y,-z
-x,-x+y,2/3-z
y,x,1/3-z
-y,-x,1/3-z
-x+y,y,-z
x,x-y,2/3-z
loop_
_atom_site_type_symbol
_atom_site_label
_atom_site_fract_x
_atom_site_fract_y
_atom_site_fract_z
Si Si1 0.551791 0.216412 0.934594
Si Si2 0.224947 0.347161 0.198269
Si Si3 0.636380 0.014062 0.166502
Si Si4 0.770888 0.385444 0.833334
Si Si5 0.569278 0.643296 0.988732
O O1 0.434220 0.129727 0.886733
O O2 0.675007 0.290003 0.889649
O O3 0.532897 0.322524 0.966894
O O4 0.574605 0.149210 0.000000
O O5 0.232644 0.232644 0.166667
O O6 0.322550 0.469277 0.153777
O O7 0.274042 0.363091 0.277857
O O8 0.096716 0.346881 0.195172
O O9 0.668774 0.024531 0.249269
O O10 0.500000 0.000000 0.167636
O O11 0.500000 0.500000 0.006884
#
# Coordination Sequence:
#
# PCOD9584538 Si02
#       5
#    12  12  12   6  12
#     4  12  22  38  70 104 137 186 231 299 367 419
#     4  12  26  40  62  97 143 191 238 293 366 442
#     4  11  22  43  64  98 140 180 248 291 353 436
#     4  12  19  40  60 100 145 178 230 292 357 444
#     4  11  22  40  62  96 137 183 230 299 357 426
#
# _framework density 20.759423000000002
#
# number of rings (size 3 to 8) (size 9 to 14) (size 15 to 20)
#    0.000    0.444    6.667    3.000    0.000    4.000 
#    0.000    0.000    0.000    2.667    0.000    6.222 
#    0.000    0.000    0.000    0.000    0.000    0.000 
#
# Total GULP energy -301059.694376 kJ/mol
# GULP energy per Si atom -5575.179525 kJ/mol
# Density = 2.071217 g / cm^3
# Si number density = 20.759423 Si / 1000 Ang^3
#
#
#
# Elastic Constant Matrix: (Units=GPa)
#
#
# Indices 1 2 3 4 5 6 
#
# 1 106.7388 33.3897 50.7135 0.0000 0.0000 0.0000
# 2 33.3897 106.7388 50.7135 0.0000 0.0000 0.0000
# 3 50.7135 50.7135 160.3164 0.0000 0.0000 0.0000
# 4 0.0000 0.0000 0.0000 20.9973 0.0000 0.0000
# 5 0.0000 0.0000 0.0000 0.0000 20.9973 0.0000
# 6 0.0000 0.0000 0.0000 0.0000 0.0000 36.6746
#
#
#
# Elastic Compliance Matrix: (Units=1/GPa)
#
#
# Indices 1 2 3 4 5 6 
#
# 1 0.011444 -0.002189 -0.002928 0.000000 0.000000 0.000000
# 2 -0.002189 0.011444 -0.002928 0.000000 0.000000 0.000000
# 3 -0.002928 -0.002928 0.008090 0.000000 0.000000 0.000000
# 4 0.000000 0.000000 0.000000 0.047625 0.000000 0.000000
# 5 0.000000 0.000000 0.000000 0.000000 0.047625 0.000000
# 6 0.000000 0.000000 0.000000 0.000000 0.000000 0.027267
#
#
# Mechanical properties :
#
#
# Convention : Reuss Voigt Hill
#
# Bulk Modulus (GPa) = 67.16046 71.49193 69.32619
# Shear Modulus (GPa) = 28.64527 31.66563 30.15545
#
# Velocity S-wave (km/s) = 3.71869 3.90983 3.81545
# Velocity P-wave (km/s) = 7.13163 7.40914 7.27171
#
# Compressibility (1/GPa) = 0.01488971
#
# Stress axis : x y z
#
# Youngs Moduli (GPa) = 87.37841 87.37841 123.60918
#
# Poissons Ratio (x) = 0.19127 0.36191
# Poissons Ratio (y) = 0.19127 0.36191
# Poissons Ratio (z) = 0.25583 0.25583
#
# Static dielectric constant tensor:
#      x y z
#    x 1.772220 0.000000 0.000000 
#    y 0.000000 1.772220 0.000000 
#    z 0.000000 0.000000 1.865340 
# 
# From -- ./inp_files/8809.got.cif
#   From: 2010.05.17/outbox.cif.g08.bks.cpg/sg181_5_cif.got.tgz:8809.got - 2010.05.20 11:51:17.
