data_PCOD9584087
_publ_section_title
;
Structure prediction by ZEFSAII (Michael W. Deem and Ramdas Pophale) SiO2 
 PCOD9584087
Probable space group: P 62 2 2
;
_chemical_formula_sum "Si O2"
_cell_formula_units_Z 72
_cell_length_a 14.588824
_cell_length_b 14.588824
_cell_length_c 18.751968
_cell_angle_alpha 90.000000
_cell_angle_beta 90.000000
_cell_angle_gamma 120.000000
_cell_volume 3456.352713
_symmetry_space_group_name_H-M "P 62 2 2"
_symmetry_group_IT_number 180
_symmetry_cell_setting 'hexagonal'
loop_
_space_group_symop_operation_xyz
x,y,z
x-y,x,1/3+z
-y,x-y,2/3+z
-x,-y,z
-x+y,-x,1/3+z
y,-x+y,2/3+z
x-y,-y,-z
-x,-x+y,1/3-z
y,x,2/3-z
-y,-x,2/3-z
-x+y,y,-z
x,x-y,1/3-z
loop_
_atom_site_type_symbol
_atom_site_label
_atom_site_fract_x
_atom_site_fract_y
_atom_site_fract_z
Si Si1 0.453945 0.224426 0.335078
Si Si2 0.896086 0.813009 0.891013
Si Si3 0.125116 0.915901 0.683315
Si Si4 0.849197 0.598687 0.822123
Si Si5 0.375591 0.431875 0.434894
Si Si6 0.378153 0.790515 0.785497
O O1 0.334853 0.136446 0.314584
O O2 0.454814 0.226749 0.420706
O O3 0.454158 0.325492 0.300321
O O4 0.547058 0.217774 0.292993
O O5 0.885637 0.885637 0.833334
O O6 0.844151 0.692834 0.862095
O O7 0.016992 0.858359 0.912615
O O8 0.832183 0.825446 0.956505
O O9 0.000000 0.837077 0.666667
O O10 0.833008 0.503023 0.873879
O O11 0.965950 0.652291 0.785914
O O12 0.500000 0.500000 0.426793
O O13 0.351197 0.481642 0.503862
O O14 0.315694 0.684307 0.833334
#
# Coordination Sequence:
#
# PCOD9584087 Si02
#       6
#    12  12  12  12  12  12
#     4  11  21  38  61  96 130 167 215 276 341 416
#     4  11  23  41  60  91 130 187 227 281 323 407
#     4  11  24  42  61  96 136 181 233 272 344 405
#     4  11  21  38  63  89 128 172 221 273 341 397
#     4   9  19  35  57  90 126 161 203 262 342 400
#     4   9  21  38  60  93 125 161 210 277 339 413
#
# _framework density 20.831209000000001
#
# number of rings (size 3 to 8) (size 9 to 14) (size 15 to 20)
#    0.000    1.667    1.667    3.500    0.000    9.333 
#    0.000    3.333    0.000    0.500    0.000    0.000 
#    0.000    0.000    0.000    0.000    0.000    0.000 
#
# Total GULP energy -401913.656691 kJ/mol
# GULP energy per Si atom -5582.134121 kJ/mol
# Density = 2.078380 g / cm^3
# Si number density = 20.831209 Si / 1000 Ang^3
#
#
#
# Elastic Constant Matrix: (Units=GPa)
#
#
# Indices 1 2 3 4 5 6 
#
# 1 81.9284 34.1230 41.0964 0.0000 0.0000 0.0000
# 2 34.1230 81.9284 41.0964 0.0000 0.0000 0.0000
# 3 41.0964 41.0964 92.5857 0.0000 0.0000 0.0000
# 4 0.0000 0.0000 0.0000 25.2115 0.0000 0.0000
# 5 0.0000 0.0000 0.0000 0.0000 25.2115 0.0000
# 6 0.0000 0.0000 0.0000 0.0000 0.0000 23.9027
#
#
#
# Elastic Compliance Matrix: (Units=1/GPa)
#
#
# Indices 1 2 3 4 5 6 
#
# 1 0.016743 -0.004175 -0.005579 0.000000 0.000000 0.000000
# 2 -0.004175 0.016743 -0.005579 0.000000 0.000000 0.000000
# 3 -0.005579 -0.005579 0.015753 0.000000 0.000000 0.000000
# 4 0.000000 0.000000 0.000000 0.039664 0.000000 0.000000
# 5 0.000000 0.000000 0.000000 0.000000 0.039664 0.000000
# 6 0.000000 0.000000 0.000000 0.000000 0.000000 0.041836
#
#
# Mechanical properties :
#
#
# Convention : Reuss Voigt Hill
#
# Bulk Modulus (GPa) = 53.83676 54.34156 54.08916
# Shear Modulus (GPa) = 24.12423 24.20690 24.16557
#
# Velocity S-wave (km/s) = 3.40675 3.41258 3.40967
# Velocity P-wave (km/s) = 6.43234 6.45530 6.44383
#
# Compressibility (1/GPa) = 0.01857467
#
# Stress axis : x y z
#
# Youngs Moduli (GPa) = 59.72646 59.72646 63.47934
#
# Poissons Ratio (x) = 0.24937 0.35412
# Poissons Ratio (y) = 0.24937 0.35412
# Poissons Ratio (z) = 0.33319 0.33319
#
# Static dielectric constant tensor:
#      x y z
#    x 1.794170 0.000000 0.000000 
#    y 0.000000 1.794170 0.000000 
#    z 0.000000 0.000000 1.685430 
# 
# From -- ./inp_files/7812.got.cif
#   From: 2010.05.17/outbox.cif.g08.bks.cpg/sg180_4_cif.got.tgz:7812.got - 2010.05.20 11:43:55.
