data_PCOD9584246
_publ_section_title
;
Structure prediction by ZEFSAII (Michael W. Deem and Ramdas Pophale) SiO2 
 PCOD9584246
Probable space group: P 64 2 2
;
_chemical_formula_sum "Si O2"
_cell_formula_units_Z 36
_cell_length_a 7.316780
_cell_length_b 7.316780
_cell_length_c 27.395353
_cell_angle_alpha 90.000000
_cell_angle_beta 90.000000
_cell_angle_gamma 120.000000
_cell_volume 1270.128106
_symmetry_space_group_name_H-M "P 64 2 2"
_symmetry_group_IT_number 181
_symmetry_cell_setting 'hexagonal'
loop_
_space_group_symop_operation_xyz
x,y,z
x-y,x,2/3+z
-y,x-y,1/3+z
-x,-y,z
-x+y,-x,2/3+z
y,-x+y,1/3+z
x-y,-y,-z
-x,-x+y,2/3-z
y,x,1/3-z
-y,-x,1/3-z
-x+y,y,-z
x,x-y,2/3-z
loop_
_atom_site_type_symbol
_atom_site_label
_atom_site_fract_x
_atom_site_fract_y
_atom_site_fract_z
Si Si1 0.832933 0.255138 0.983044
Si Si2 0.037726 0.810793 0.085486
Si Si3 0.655366 0.305973 0.555825
O O1 0.743173 0.841463 0.972027
O O2 0.792352 0.242062 0.924225
O O3 0.000000 0.500000 0.989486
O O4 0.608475 0.216950 0.000000
O O5 0.172109 0.418574 0.090939
O O6 0.224041 0.785402 0.109732
O O7 0.000000 0.000000 0.101840
O O8 0.618775 0.237550 0.500000
#
# Coordination Sequence:
#
# PCOD9584246 Si02
#       3
#    12  12  12
#     4  10  18  41  76 110 156 216 265 333 427 508
#     4  10  21  44  82 119 162 220 293 342 432 546
#     4  10  22  44  77 115 176 221 274 371 437 497
#
# _framework density 28.343595000000001
#
# number of rings (size 3 to 8) (size 9 to 14) (size 15 to 20)
#    0.000    2.000    6.667    0.000    0.000    1.333 
#    0.000   21.667   14.667   12.000    0.000    0.000 
#    0.000    0.000    0.000    0.000    0.000    0.000 
#
# Total GULP energy -201360.675669 kJ/mol
# GULP energy per Si atom -5593.352102 kJ/mol
# Density = 2.827908 g / cm^3
# Si number density = 28.343595 Si / 1000 Ang^3
#
#
#
# Elastic Constant Matrix: (Units=GPa)
#
#
# Indices 1 2 3 4 5 6 
#
# 1 120.3527 42.3627 34.7582 0.0000 0.0000 0.0000
# 2 42.3627 120.3527 34.7582 0.0000 0.0000 0.0000
# 3 34.7582 34.7582 264.4090 0.0000 0.0000 0.0000
# 4 0.0000 0.0000 0.0000 27.0450 0.0000 0.0000
# 5 0.0000 0.0000 0.0000 0.0000 27.0450 0.0000
# 6 0.0000 0.0000 0.0000 0.0000 0.0000 38.9950
#
#
#
# Elastic Compliance Matrix: (Units=1/GPa)
#
#
# Indices 1 2 3 4 5 6 
#
# 1 0.009667 -0.003155 -0.000856 0.000000 0.000000 0.000000
# 2 -0.003155 0.009667 -0.000856 0.000000 0.000000 0.000000
# 3 -0.000856 -0.000856 0.004007 0.000000 0.000000 0.000000
# 4 0.000000 0.000000 0.000000 0.036975 0.000000 0.000000
# 5 0.000000 0.000000 0.000000 0.000000 0.036975 0.000000
# 6 0.000000 0.000000 0.000000 0.000000 0.000000 0.025644
#
#
# Mechanical properties :
#
#
# Convention : Reuss Voigt Hill
#
# Bulk Modulus (GPa) = 73.49705 80.98586 77.24145
# Shear Modulus (GPa) = 36.44167 44.83270 40.63719
#
# Velocity S-wave (km/s) = 3.58957 3.98145 3.79058
# Velocity P-wave (km/s) = 6.57016 7.05484 6.81681
#
# Compressibility (1/GPa) = 0.01360599
#
# Stress axis : x y z
#
# Youngs Moduli (GPa) = 103.44714 103.44714 249.55934
#
# Poissons Ratio (x) = 0.32642 0.21361
# Poissons Ratio (y) = 0.32642 0.21361
# Poissons Ratio (z) = 0.08855 0.08855
#
# Static dielectric constant tensor:
#      x y z
#    x 2.170080 0.000000 0.000000 
#    y 0.000000 2.170080 0.000000 
#    z 0.000000 0.000000 2.268550 
# 
# From -- ./inp_files/11612.got.cif
#   From: 2010.05.17/outbox.cif.g08.bks.cpg/sg181_6_cif.got.tgz:11612.got - 2010.05.20 11:51:17.
