data_PCOD9584877
_publ_section_title
;
Structure prediction by ZEFSAII (Michael W. Deem and Ramdas Pophale) SiO2 
 PCOD9584877
Probable space group: P 63 2 2
;
_chemical_formula_sum "Si O2"
_cell_formula_units_Z 60
_cell_length_a 17.446164
_cell_length_b 17.446164
_cell_length_c 11.637142
_cell_angle_alpha 90.000000
_cell_angle_beta 90.000000
_cell_angle_gamma 120.000000
_cell_volume 3067.445582
_symmetry_space_group_name_H-M "P 63 2 2"
_symmetry_group_IT_number 182
_symmetry_cell_setting 'hexagonal'
loop_
_space_group_symop_operation_xyz
x,y,z
x-y,x,1/2+z
-y,x-y,z
-x,-y,1/2+z
-x+y,-x,z
y,-x+y,1/2+z
x-y,-y,-z
-x,-x+y,-z
y,x,-z
-y,-x,1/2-z
-x+y,y,1/2-z
x,x-y,1/2-z
loop_
_atom_site_type_symbol
_atom_site_label
_atom_site_fract_x
_atom_site_fract_y
_atom_site_fract_z
Si Si1 0.549158 0.152082 0.882568
Si Si2 0.266999 0.810472 0.441846
Si Si3 0.669547 0.834774 0.250000
Si Si4 0.000000 0.613248 0.500000
Si Si5 0.085632 0.280380 0.581912
Si Si6 0.975066 0.236684 0.158202
O O1 0.581565 0.163130 0.750000
O O2 0.511410 0.216500 0.917797
O O3 0.632348 0.163873 0.955154
O O4 0.467770 0.058502 0.917455
O O5 0.248466 0.852439 0.327864
O O6 0.230802 0.850040 0.538337
O O7 0.726387 0.806921 0.168881
O O8 0.956072 0.651355 0.411786
O O9 0.143293 0.231507 0.596707
O O10 0.053899 0.283151 0.710190
O O11 0.000000 0.230732 0.500000
#
# Coordination Sequence:
#
# PCOD9584877 Si02
#       6
#    12  12   6   6  12  12
#     4  12  24  39  65  97 137 179 231 293 341 416
#     4  12  23  42  64 101 138 179 232 287 361 412
#     4  12  20  40  74 100 142 186 228 294 366 418
#     4  12  24  42  66 104 142 176 230 290 358 422
#     4  11  24  42  69 103 139 189 236 290 355 436
#     4  11  23  43  70 103 140 182 238 290 355 427
#
# _framework density 19.56025
#
# number of rings (size 3 to 8) (size 9 to 14) (size 15 to 20)
#    0.000    0.400    8.000    0.400    1.400    0.000 
#    0.000    0.000    0.000    3.200   20.800    0.000 
#    0.000    0.000    0.000    0.000    0.000    0.000 
#
# Total GULP energy -334553.245133 kJ/mol
# GULP energy per Si atom -5575.887419 kJ/mol
# Density = 1.951573 g / cm^3
# Si number density = 19.560250 Si / 1000 Ang^3
#
#
#
# Elastic Constant Matrix: (Units=GPa)
#
#
# Indices 1 2 3 4 5 6 
#
# 1 113.9961 63.2281 31.3284 0.0000 0.0000 0.0000
# 2 63.2281 113.9961 31.3284 0.0000 0.0000 0.0000
# 3 31.3284 31.3284 98.1029 0.0000 0.0000 0.0000
# 4 0.0000 0.0000 0.0000 17.4906 0.0000 0.0000
# 5 0.0000 0.0000 0.0000 0.0000 17.4906 0.0000
# 6 0.0000 0.0000 0.0000 0.0000 0.0000 25.3840
#
#
#
# Elastic Compliance Matrix: (Units=1/GPa)
#
#
# Indices 1 2 3 4 5 6 
#
# 1 0.013029 -0.006668 -0.002031 0.000000 0.000000 0.000000
# 2 -0.006668 0.013029 -0.002031 0.000000 0.000000 0.000000
# 3 -0.002031 -0.002031 0.011491 0.000000 0.000000 0.000000
# 4 0.000000 0.000000 0.000000 0.057174 0.000000 0.000000
# 5 0.000000 0.000000 0.000000 0.000000 0.057174 0.000000
# 6 0.000000 0.000000 0.000000 0.000000 0.000000 0.039395
#
#
# Mechanical properties :
#
#
# Convention : Reuss Voigt Hill
#
# Bulk Modulus (GPa) = 62.16145 64.20723 63.18434
# Shear Modulus (GPa) = 22.92368 25.42038 24.17203
#
# Velocity S-wave (km/s) = 3.42709 3.60890 3.51917
# Velocity P-wave (km/s) = 6.89264 7.08958 6.99180
#
# Compressibility (1/GPa) = 0.01608714
#
# Stress axis : x y z
#
# Youngs Moduli (GPa) = 76.75142 76.75142 87.02693
#
# Poissons Ratio (x) = 0.51181 0.17677
# Poissons Ratio (y) = 0.51181 0.17677
# Poissons Ratio (z) = 0.15590 0.15590
#
# Static dielectric constant tensor:
#      x y z
#    x 1.746350 0.000000 0.000000 
#    y 0.000000 1.746350 0.000000 
#    z 0.000000 0.000000 1.697890 
# 
# From -- ./inp_files/2680.got.cif
#   From: 2010.05.17/outbox.cif.g08.bks.cpg/sg182_2_cif.got.tgz:2680.got - 2010.05.20 11:58:53.
