data_PCOD9584336
_publ_section_title
;
Structure prediction by ZEFSAII (Michael W. Deem and Ramdas Pophale) SiO2 
 PCOD9584336
Probable space group: P 64 2 2
;
_chemical_formula_sum "Si O2"
_cell_formula_units_Z 54
_cell_length_a 12.555491
_cell_length_b 12.555491
_cell_length_c 19.281550
_cell_angle_alpha 90.000000
_cell_angle_beta 90.000000
_cell_angle_gamma 120.000000
_cell_volume 2632.327839
_symmetry_space_group_name_H-M "P 64 2 2"
_symmetry_group_IT_number 181
_symmetry_cell_setting 'hexagonal'
loop_
_space_group_symop_operation_xyz
x,y,z
x-y,x,2/3+z
-y,x-y,1/3+z
-x,-y,z
-x+y,-x,2/3+z
y,-x+y,1/3+z
x-y,-y,-z
-x,-x+y,2/3-z
y,x,1/3-z
-y,-x,1/3-z
-x+y,y,-z
x,x-y,2/3-z
loop_
_atom_site_type_symbol
_atom_site_label
_atom_site_fract_x
_atom_site_fract_y
_atom_site_fract_z
Si Si1 0.189821 0.327482 0.650003
Si Si2 0.116240 0.834976 0.869604
Si Si3 0.663645 0.409026 0.388661
Si Si4 0.793361 0.896681 0.833334
Si Si5 0.480152 0.866980 0.145385
O O1 0.303531 0.303531 0.666667
O O2 0.099033 0.257952 0.714197
O O3 0.213239 0.464388 0.651120
O O4 0.146887 0.283312 0.571566
O O5 0.250747 0.848596 0.860549
O O6 0.000000 0.721317 0.833334
O O7 0.131173 0.957188 0.833940
O O8 0.600983 0.300492 0.333334
O O9 0.762942 0.391142 0.432740
O O10 0.569370 0.412032 0.442539
O O11 0.500000 0.000000 0.124371
#
# Coordination Sequence:
#
# PCOD9584336 Si02
#       5
#    12  12  12   6  12
#     4  10  20  38  66  95 123 165 213 274 330 380
#     4  11  23  41  64  95 135 175 211 261 336 398
#     4  11  22  39  62  92 122 157 217 275 316 373
#     4  10  21  40  64 100 126 158 219 274 315 386
#     4  11  23  42  65  91 125 167 214 269 322 389
#
# _framework density 20.514161000000001
#
# number of rings (size 3 to 8) (size 9 to 14) (size 15 to 20)
#    0.000    1.333    2.222    5.667    0.000    0.889 
#    8.000    5.556    0.000    0.000    0.000    0.000 
#    0.000    0.000    0.000    0.000    0.000    0.000 
#
# Total GULP energy -301293.817628 kJ/mol
# GULP energy per Si atom -5579.515141 kJ/mol
# Density = 2.046747 g / cm^3
# Si number density = 20.514161 Si / 1000 Ang^3
#
#
#
# Elastic Constant Matrix: (Units=GPa)
#
#
# Indices 1 2 3 4 5 6 
#
# 1 62.8291 31.7637 21.3124 0.0000 0.0000 0.0000
# 2 31.7637 62.8291 21.3124 0.0000 0.0000 0.0000
# 3 21.3124 21.3124 116.9585 0.0000 0.0000 0.0000
# 4 0.0000 0.0000 0.0000 29.0490 0.0000 0.0000
# 5 0.0000 0.0000 0.0000 0.0000 29.0490 0.0000
# 6 0.0000 0.0000 0.0000 0.0000 0.0000 15.5327
#
#
#
# Elastic Compliance Matrix: (Units=1/GPa)
#
#
# Indices 1 2 3 4 5 6 
#
# 1 0.021854 -0.010336 -0.002099 0.000000 0.000000 0.000000
# 2 -0.010336 0.021854 -0.002099 0.000000 0.000000 0.000000
# 3 -0.002099 -0.002099 0.009315 0.000000 0.000000 0.000000
# 4 0.000000 0.000000 0.000000 0.034425 0.000000 0.000000
# 5 0.000000 0.000000 0.000000 0.000000 0.034425 0.000000
# 6 0.000000 0.000000 0.000000 0.000000 0.000000 0.064380
#
#
# Mechanical properties :
#
#
# Convention : Reuss Voigt Hill
#
# Bulk Modulus (GPa) = 41.74541 43.48820 42.61680
# Shear Modulus (GPa) = 22.39093 25.94133 24.16613
#
# Velocity S-wave (km/s) = 3.30735 3.55992 3.43596
# Velocity P-wave (km/s) = 5.91426 6.17596 6.04653
#
# Compressibility (1/GPa) = 0.02395473
#
# Stress axis : x y z
#
# Youngs Moduli (GPa) = 45.75871 45.75871 107.35482
#
# Poissons Ratio (x) = 0.47298 0.22531
# Poissons Ratio (y) = 0.47298 0.22531
# Poissons Ratio (z) = 0.09603 0.09603
#
# Static dielectric constant tensor:
#      x y z
#    x 1.756140 0.000000 0.000000 
#    y 0.000000 1.756140 0.000000 
#    z 0.000000 0.000000 1.761990 
# 
# From -- ./inp_files/8753.got.cif
#   From: 2010.05.17/outbox.cif.g08.bks.cpg/sg181_5_cif.got.tgz:8753.got - 2010.05.20 11:51:17.
