data_PCOD9584454
_publ_section_title
;
Structure prediction by ZEFSAII (Michael W. Deem and Ramdas Pophale) SiO2 
 PCOD9584454
Probable space group: P 64 2 2
;
_chemical_formula_sum "Si O2"
_cell_formula_units_Z 45
_cell_length_a 13.760368
_cell_length_b 13.760368
_cell_length_c 11.889258
_cell_angle_alpha 90.000000
_cell_angle_beta 90.000000
_cell_angle_gamma 120.000000
_cell_volume 1949.599839
_symmetry_space_group_name_H-M "P 64 2 2"
_symmetry_group_IT_number 181
_symmetry_cell_setting 'hexagonal'
loop_
_space_group_symop_operation_xyz
x,y,z
x-y,x,2/3+z
-y,x-y,1/3+z
-x,-y,z
-x+y,-x,2/3+z
y,-x+y,1/3+z
x-y,-y,-z
-x,-x+y,2/3-z
y,x,1/3-z
-y,-x,1/3-z
-x+y,y,-z
x,x-y,2/3-z
loop_
_atom_site_type_symbol
_atom_site_label
_atom_site_fract_x
_atom_site_fract_y
_atom_site_fract_z
Si Si1 0.200260 0.100130 0.833334
Si Si2 0.000000 0.000000 0.000000
Si Si3 0.042192 0.682420 0.452075
Si Si4 0.693918 0.387835 0.500000
Si Si5 0.500000 0.000000 0.308006
Si Si6 0.722052 0.518350 0.272316
O O1 0.276261 0.231668 0.813841
O O2 0.112737 0.078945 0.932189
O O3 0.162764 0.792846 0.423119
O O4 0.000000 0.615622 0.333334
O O5 0.041303 0.604953 0.554474
O O6 0.725620 0.466289 0.392685
O O7 0.564073 0.297682 0.517216
O O8 0.602087 0.091699 0.384658
#
# Coordination Sequence:
#
# PCOD9584454 Si02
#       6
#     6   3  12   6   6  12
#     4  11  24  49  75 108 141 194 249 321 388 452
#     4  10  24  50  72 104 140 182 256 314 386 460
#     4  12  24  43  73 108 142 195 249 315 374 462
#     4  10  22  44  65  96 143 197 235 296 378 436
#     4  12  25  41  72 110 144 194 258 294 386 454
#     4  11  23  44  67 102 145 190 244 306 368 457
#
# _framework density 23.081659999999999
#
# number of rings (size 3 to 8) (size 9 to 14) (size 15 to 20)
#    0.000    0.800    4.000    3.600    3.733    0.533 
#    4.800    0.000    0.000    0.000    0.000    0.000 
#    0.000    0.000    0.000    0.000    0.000    0.000 
#
# Total GULP energy -251124.209833 kJ/mol
# GULP energy per Si atom -5580.537996 kJ/mol
# Density = 2.302913 g / cm^3
# Si number density = 23.081660 Si / 1000 Ang^3
#
#
#
# Elastic Constant Matrix: (Units=GPa)
#
#
# Indices 1 2 3 4 5 6 
#
# 1 154.1279 92.6265 45.7148 0.0000 0.0000 0.0000
# 2 92.6265 154.1279 45.7148 0.0000 0.0000 0.0000
# 3 45.7148 45.7148 63.1504 0.0000 0.0000 0.0000
# 4 0.0000 0.0000 0.0000 42.0664 0.0000 0.0000
# 5 0.0000 0.0000 0.0000 0.0000 42.0664 0.0000
# 6 0.0000 0.0000 0.0000 0.0000 0.0000 30.7507
#
#
#
# Elastic Compliance Matrix: (Units=1/GPa)
#
#
# Indices 1 2 3 4 5 6 
#
# 1 0.010899 -0.005361 -0.004009 0.000000 0.000000 0.000000
# 2 -0.005361 0.010899 -0.004009 0.000000 0.000000 0.000000
# 3 -0.004009 -0.004009 0.021640 0.000000 0.000000 0.000000
# 4 0.000000 0.000000 0.000000 0.023772 0.000000 0.000000
# 5 0.000000 0.000000 0.000000 0.000000 0.023772 0.000000
# 6 0.000000 0.000000 0.000000 0.000000 0.000000 0.032520
#
#
# Mechanical properties :
#
#
# Convention : Reuss Voigt Hill
#
# Bulk Modulus (GPa) = 59.95368 82.16872 71.06120
# Shear Modulus (GPa) = 32.08859 35.46670 33.77765
#
# Velocity S-wave (km/s) = 3.73261 3.92417 3.82959
# Velocity P-wave (km/s) = 6.67888 7.49724 7.09986
#
# Compressibility (1/GPa) = 0.01667954
#
# Stress axis : x y z
#
# Youngs Moduli (GPa) = 91.75207 91.75207 46.21167
#
# Poissons Ratio (x) = 0.49187 0.18526
# Poissons Ratio (y) = 0.49187 0.18526
# Poissons Ratio (z) = 0.36784 0.36784
#
# Static dielectric constant tensor:
#      x y z
#    x 1.933780 0.000000 0.000000 
#    y 0.000000 1.933780 0.000000 
#    z 0.000000 0.000000 1.911710 
# 
# From -- ./inp_files/4522.got.cif
#   From: 2010.05.17/outbox.cif.g08.bks.cpg/sg181_3_cif.got.tgz:4522.got - 2010.05.20 11:51:17.
