data_PCOD9584203
_publ_section_title
;
Structure prediction by ZEFSAII (Michael W. Deem and Ramdas Pophale) SiO2 
 PCOD9584203
Probable space group: P 64 2 2
;
_chemical_formula_sum "Si O2"
_cell_formula_units_Z 75
_cell_length_a 14.434371
_cell_length_b 14.434371
_cell_length_c 19.612661
_cell_angle_alpha 90.000000
_cell_angle_beta 90.000000
_cell_angle_gamma 120.000000
_cell_volume 3538.855914
_symmetry_space_group_name_H-M "P 64 2 2"
_symmetry_group_IT_number 181
_symmetry_cell_setting 'hexagonal'
loop_
_space_group_symop_operation_xyz
x,y,z
x-y,x,2/3+z
-y,x-y,1/3+z
-x,-y,z
-x+y,-x,2/3+z
y,-x+y,1/3+z
x-y,-y,-z
-x,-x+y,2/3-z
y,x,1/3-z
-y,-x,1/3-z
-x+y,y,-z
x,x-y,2/3-z
loop_
_atom_site_type_symbol
_atom_site_label
_atom_site_fract_x
_atom_site_fract_y
_atom_site_fract_z
Si Si1 0.624337 0.263859 0.096162
Si Si2 0.665893 0.527522 0.279842
Si Si3 0.500000 0.000000 0.275962
Si Si4 0.799919 0.799919 0.666667
Si Si5 0.863237 0.601246 0.432829
Si Si6 0.000000 0.500000 0.833334
Si Si7 0.847914 0.742886 0.215736
Si Si8 0.584480 0.920430 0.162151
O O1 0.675870 0.324131 0.166667
O O2 0.582696 0.330135 0.053391
O O3 0.701077 0.218591 0.071976
O O4 0.508704 0.163816 0.114679
O O5 0.602753 0.529312 0.345667
O O6 0.595927 0.519338 0.214429
O O7 0.766072 0.644325 0.263922
O O8 0.469366 0.074434 0.231797
O O9 0.693271 0.778158 0.709031
O O10 0.820061 0.882953 0.604861
O O11 0.812459 0.624918 0.500000
O O12 0.963314 0.595927 0.463022
O O13 0.796186 0.796186 0.166667
O O14 0.895764 0.682179 0.169523
#
# Coordination Sequence:
#
# PCOD9584203 Si02
#       8
#    12  12   6   6  12   3  12  12
#     4  10  19  36  62  89 133 175 215 263 327 399
#     4  10  21  34  63  93 135 181 227 266 330 410
#     4  11  22  37  62  99 134 179 224 274 336 423
#     4  10  24  42  73 105 124 176 234 280 363 429
#     4  10  21  40  70  91 132 175 216 283 340 402
#     4  10  16  36  56  84 140 190 218 270 318 394
#     4  10  22  44  71  98 133 180 231 295 356 415
#     4  10  21  40  63  92 133 174 214 280 348 397
#
# _framework density 21.193290000000001
#
# number of rings (size 3 to 8) (size 9 to 14) (size 15 to 20)
#    0.000    1.920    3.200    0.000    2.240    0.000 
#    0.000   22.400    0.000   11.520    0.000    0.000 
#    0.000    0.000    0.000    0.000    0.000    0.000 
#
# Total GULP energy -417938.104510 kJ/mol
# GULP energy per Si atom -5572.508060 kJ/mol
# Density = 2.114505 g / cm^3
# Si number density = 21.193290 Si / 1000 Ang^3
#
#
#
# Elastic Constant Matrix: (Units=GPa)
#
#
# Indices 1 2 3 4 5 6 
#
# 1 80.1409 15.9786 29.2576 0.0000 0.0000 0.0000
# 2 15.9786 80.1409 29.2576 0.0000 0.0000 0.0000
# 3 29.2576 29.2576 94.0246 0.0000 0.0000 0.0000
# 4 0.0000 0.0000 0.0000 45.2285 0.0000 0.0000
# 5 0.0000 0.0000 0.0000 0.0000 45.2285 0.0000
# 6 0.0000 0.0000 0.0000 0.0000 0.0000 32.0812
#
#
#
# Elastic Compliance Matrix: (Units=1/GPa)
#
#
# Indices 1 2 3 4 5 6 
#
# 1 0.014210 -0.001375 -0.003994 0.000000 0.000000 0.000000
# 2 -0.001375 0.014210 -0.003994 0.000000 0.000000 0.000000
# 3 -0.003994 -0.003994 0.013121 0.000000 0.000000 0.000000
# 4 0.000000 0.000000 0.000000 0.022110 0.000000 0.000000
# 5 0.000000 0.000000 0.000000 0.000000 0.022110 0.000000
# 6 0.000000 0.000000 0.000000 0.000000 0.000000 0.031171
#
#
# Mechanical properties :
#
#
# Convention : Reuss Voigt Hill
#
# Bulk Modulus (GPa) = 43.82947 44.81045 44.31996
# Shear Modulus (GPa) = 34.90070 36.49515 35.69792
#
# Velocity S-wave (km/s) = 4.06246 4.15422 4.10859
# Velocity P-wave (km/s) = 6.53685 6.64828 6.59280
#
# Compressibility (1/GPa) = 0.02281570
#
# Stress axis : x y z
#
# Youngs Moduli (GPa) = 70.37158 70.37158 76.21334
#
# Poissons Ratio (x) = 0.09677 0.30439
# Poissons Ratio (y) = 0.09677 0.30439
# Poissons Ratio (z) = 0.28106 0.28106
#
# Static dielectric constant tensor:
#      x y z
#    x 1.803180 0.000000 0.000000 
#    y 0.000000 1.803180 0.000000 
#    z 0.000000 0.000000 1.763840 
# 
# From -- ./inp_files/9127.got.cif
#   From: 2010.05.17/outbox.cif.g08.bks.cpg/sg181_5_cif.got.tgz:9127.got - 2010.05.20 11:51:17.
