data_PCOD9584532
_publ_section_title
;
Structure prediction by ZEFSAII (Michael W. Deem and Ramdas Pophale) SiO2 
 PCOD9584532
Probable space group: P 64 2 2
;
_chemical_formula_sum "Si O2"
_cell_formula_units_Z 48
_cell_length_a 25.518162
_cell_length_b 25.518162
_cell_length_c 5.167354
_cell_angle_alpha 90.000000
_cell_angle_beta 90.000000
_cell_angle_gamma 120.000000
_cell_volume 2914.054211
_symmetry_space_group_name_H-M "P 64 2 2"
_symmetry_group_IT_number 181
_symmetry_cell_setting 'hexagonal'
loop_
_space_group_symop_operation_xyz
x,y,z
x-y,x,2/3+z
-y,x-y,1/3+z
-x,-y,z
-x+y,-x,2/3+z
y,-x+y,1/3+z
x-y,-y,-z
-x,-x+y,2/3-z
y,x,1/3-z
-y,-x,1/3-z
-x+y,y,-z
x,x-y,2/3-z
loop_
_atom_site_type_symbol
_atom_site_label
_atom_site_fract_x
_atom_site_fract_y
_atom_site_fract_z
Si Si1 0.887934 0.411036 0.569969
Si Si2 0.229122 0.521642 0.251666
Si Si3 0.619611 0.659911 0.418598
Si Si4 0.374782 0.155007 0.084047
O O1 0.917284 0.458642 0.333334
O O2 0.823125 0.360758 0.456334
O O3 0.922704 0.374781 0.640992
O O4 0.882591 0.441296 0.833334
O O5 0.272198 0.544396 0.500000
O O6 0.192433 0.448169 0.266076
O O7 0.270167 0.540333 0.000000
O O8 0.627326 0.627326 0.666667
O O9 0.640712 0.727636 0.520712
O O10 0.653744 0.653744 0.166667
O O11 0.356053 0.178027 0.333334
O O12 0.352861 0.176431 0.833334
#
# Coordination Sequence:
#
# PCOD9584532 Si02
#       4
#    12  12  12  12
#     4  11  22  34  49  69  93 124 156 184 233 313
#     4   9  17  31  50  66  80 103 143 194 234 270
#     4  11  22  34  49  72 101 129 158 197 243 286
#     4   9  17  31  50  69  88 116 155 193 230 273
#
# _framework density 16.471896999999998
#
# number of rings (size 3 to 8) (size 9 to 14) (size 15 to 20)
#    0.000    2.000    0.000    4.500    0.000   11.000 
#    0.000    0.000    0.000    7.500    0.000    0.000 
#    0.000    0.000    0.000    0.000    0.000    0.000 
#
# Total GULP energy -267561.637551 kJ/mol
# GULP energy per Si atom -5574.200782 kJ/mol
# Density = 1.643441 g / cm^3
# Si number density = 16.471897 Si / 1000 Ang^3
#
#
#
# Elastic Constant Matrix: (Units=GPa)
#
#
# Indices 1 2 3 4 5 6 
#
# 1 53.9519 40.8466 41.7408 0.0000 0.0000 0.0000
# 2 40.8466 53.9519 41.7408 0.0000 0.0000 0.0000
# 3 41.7408 41.7408 154.3946 0.0000 0.0000 0.0000
# 4 0.0000 0.0000 0.0000 23.6882 0.0000 0.0000
# 5 0.0000 0.0000 0.0000 0.0000 23.6882 0.0000
# 6 0.0000 0.0000 0.0000 0.0000 0.0000 6.5527
#
#
#
# Elastic Compliance Matrix: (Units=1/GPa)
#
#
# Indices 1 2 3 4 5 6 
#
# 1 0.045075 -0.031230 -0.003743 0.000000 0.000000 0.000000
# 2 -0.031230 0.045075 -0.003743 0.000000 0.000000 0.000000
# 3 -0.003743 -0.003743 0.008501 0.000000 0.000000 0.000000
# 4 0.000000 0.000000 0.000000 0.042215 0.000000 0.000000
# 5 0.000000 0.000000 0.000000 0.000000 0.042215 0.000000
# 6 0.000000 0.000000 0.000000 0.000000 0.000000 0.152609
#
#
# Mechanical properties :
#
#
# Convention : Reuss Voigt Hill
#
# Bulk Modulus (GPa) = 47.12862 56.77275 51.95069
# Shear Modulus (GPa) = 11.89926 19.98382 15.94154
#
# Velocity S-wave (km/s) = 2.69066 3.48689 3.11433
# Velocity P-wave (km/s) = 6.19084 7.12408 6.67379
#
# Compressibility (1/GPa) = 0.02121853
#
# Stress axis : x y z
#
# Youngs Moduli (GPa) = 22.18539 22.18539 117.63681
#
# Poissons Ratio (x) = 0.69285 0.44031
# Poissons Ratio (y) = 0.69285 0.44031
# Poissons Ratio (z) = 0.08304 0.08304
#
# Static dielectric constant tensor:
#      x y z
#    x 1.574890 0.000000 0.000000 
#    y 0.000000 1.574890 0.000000 
#    z 0.000000 0.000000 1.563170 
# 
# From -- ./inp_files/1095.got.cif
#   From: 2010.05.17/outbox.cif.g08.bks.cpg/sg181_1_cif.got.tgz:1095.got - 2010.05.20 11:51:17.
