data_PCOD9584130
_publ_section_title
;
Structure prediction by ZEFSAII (Michael W. Deem and Ramdas Pophale) SiO2 
 PCOD9584130
Probable space group: P 62 2 2
;
_chemical_formula_sum "Si O2"
_cell_formula_units_Z 60
_cell_length_a 13.922106
_cell_length_b 13.922106
_cell_length_c 14.037057
_cell_angle_alpha 90.000000
_cell_angle_beta 90.000000
_cell_angle_gamma 120.000000
_cell_volume 2356.223956
_symmetry_space_group_name_H-M "P 62 2 2"
_symmetry_group_IT_number 180
_symmetry_cell_setting 'hexagonal'
loop_
_space_group_symop_operation_xyz
x,y,z
x-y,x,1/3+z
-y,x-y,2/3+z
-x,-y,z
-x+y,-x,1/3+z
y,-x+y,2/3+z
x-y,-y,-z
-x,-x+y,1/3-z
y,x,2/3-z
-y,-x,2/3-z
-x+y,y,-z
x,x-y,1/3-z
loop_
_atom_site_type_symbol
_atom_site_label
_atom_site_fract_x
_atom_site_fract_y
_atom_site_fract_z
Si Si1 0.756643 0.546497 0.752500
Si Si2 0.537447 0.122440 0.127000
Si Si3 0.800129 0.691378 0.403344
Si Si4 0.463907 0.846465 0.658619
Si Si5 0.089936 0.780868 0.248357
O O1 0.801118 0.459401 0.746674
O O2 0.792797 0.642672 0.673425
O O3 0.625707 0.470634 0.746868
O O4 0.811750 0.614865 0.848314
O O5 0.426818 0.126549 0.106028
O O6 0.560176 0.131914 0.239275
O O7 0.500000 0.000000 0.097263
O O8 0.757294 0.757294 0.333334
O O9 0.872633 0.745266 0.500000
O O10 0.446424 0.723212 0.666667
O O11 0.591698 0.923711 0.628600
O O12 0.128353 0.871648 0.333334
O O13 0.000000 0.761958 0.166667
#
# Coordination Sequence:
#
# PCOD9584130 Si02
#       5
#    12  12  12  12  12
#     4  12  24  40  64  95 147 198 270 334 409 469
#     4  12  24  40  63  95 144 201 266 324 398 470
#     4  12  26  43  66  99 142 205 270 339 409 485
#     4  11  23  39  61  93 137 201 269 333 394 471
#     4  11  26  45  68  99 144 203 278 338 414 481
#
# _framework density 25.464473999999999
#
# number of rings (size 3 to 8) (size 9 to 14) (size 15 to 20)
#    0.000    0.400    8.000    2.400    2.800    2.400 
#    0.000    0.000    0.000    0.000    0.000    0.000 
#    0.000    8.000    0.000    0.200    0.000    0.600 
#
# Total GULP energy -334785.249902 kJ/mol
# GULP energy per Si atom -5579.754165 kJ/mol
# Density = 2.540652 g / cm^3
# Si number density = 25.464474 Si / 1000 Ang^3
#
#
#
# Elastic Constant Matrix: (Units=GPa)
#
#
# Indices 1 2 3 4 5 6 
#
# 1 90.0983 40.5497 43.9483 0.0000 0.0000 0.0000
# 2 40.5497 90.0983 43.9483 0.0000 0.0000 0.0000
# 3 43.9483 43.9483 215.0655 0.0000 0.0000 0.0000
# 4 0.0000 0.0000 0.0000 115.5390 0.0000 0.0000
# 5 0.0000 0.0000 0.0000 0.0000 115.5390 0.0000
# 6 0.0000 0.0000 0.0000 0.0000 0.0000 24.7743
#
#
#
# Elastic Compliance Matrix: (Units=1/GPa)
#
#
# Indices 1 2 3 4 5 6 
#
# 1 0.014528 -0.005654 -0.001813 0.000000 0.000000 0.000000
# 2 -0.005654 0.014528 -0.001813 0.000000 0.000000 0.000000
# 3 -0.001813 -0.001813 0.005391 0.000000 0.000000 0.000000
# 4 0.000000 0.000000 0.000000 0.008655 0.000000 0.000000
# 5 0.000000 0.000000 0.000000 0.000000 0.008655 0.000000
# 6 0.000000 0.000000 0.000000 0.000000 0.000000 0.040364
#
#
# Mechanical properties :
#
#
# Convention : Reuss Voigt Hill
#
# Bulk Modulus (GPa) = 62.95031 72.46163 67.70597
# Shear Modulus (GPa) = 43.11136 68.95819 56.03477
#
# Velocity S-wave (km/s) = 4.11907 5.20951 4.69605
# Velocity P-wave (km/s) = 6.88454 8.04382 7.48665
#
# Compressibility (1/GPa) = 0.01588555
#
# Stress axis : x y z
#
# Youngs Moduli (GPa) = 68.83172 68.83172 185.49824
#
# Poissons Ratio (x) = 0.38918 0.33639
# Poissons Ratio (y) = 0.38918 0.33639
# Poissons Ratio (z) = 0.12482 0.12482
#
# Static dielectric constant tensor:
#      x y z
#    x 1.251160 0.000000 0.000000 
#    y 0.000000 1.251160 0.000000 
#    z 0.000000 0.000000 1.847490 
# 
# From -- ./inp_files/6111.got.cif
#   From: 2010.05.17/outbox.cif.g08.bks.cpg/sg180_4_cif.got.tgz:6111.got - 2010.05.20 11:43:55.
