data_PCOD9584440
_publ_section_title
;
Structure prediction by ZEFSAII (Michael W. Deem and Ramdas Pophale) SiO2 
 PCOD9584440
Probable space group: P 64 2 2
;
_chemical_formula_sum "Si O2"
_cell_formula_units_Z 54
_cell_length_a 11.690255
_cell_length_b 11.690255
_cell_length_c 19.665101
_cell_angle_alpha 90.000000
_cell_angle_beta 90.000000
_cell_angle_gamma 120.000000
_cell_volume 2327.420108
_symmetry_space_group_name_H-M "P 64 2 2"
_symmetry_group_IT_number 181
_symmetry_cell_setting 'hexagonal'
loop_
_space_group_symop_operation_xyz
x,y,z
x-y,x,2/3+z
-y,x-y,1/3+z
-x,-y,z
-x+y,-x,2/3+z
y,-x+y,1/3+z
x-y,-y,-z
-x,-x+y,2/3-z
y,x,1/3-z
-y,-x,1/3-z
-x+y,y,-z
x,x-y,2/3-z
loop_
_atom_site_type_symbol
_atom_site_label
_atom_site_fract_x
_atom_site_fract_y
_atom_site_fract_z
Si Si1 0.261298 0.905599 0.558496
Si Si2 0.722206 0.990214 0.849331
Si Si3 0.125007 0.252596 0.691401
Si Si4 0.116495 0.468661 0.593393
Si Si5 0.719771 0.280230 0.666667
O O1 0.308000 0.839134 0.615053
O O2 0.124676 0.791627 0.527714
O O3 0.362576 0.000000 0.500000
O O4 0.222696 0.003689 0.594692
O O5 0.778413 0.889207 0.833334
O O6 0.575861 0.908644 0.818199
O O7 0.746768 0.048341 0.925436
O O8 0.122099 0.122099 0.666667
O O9 0.119765 0.350938 0.635578
O O10 0.245696 0.599054 0.617078
O O11 0.000000 0.500000 0.611582
#
# Coordination Sequence:
#
# PCOD9584440 Si02
#       5
#    12  12  12  12   6
#     4  10  22  40  69 109 139 184 244 307 386 460
#     4  11  23  45  69 109 152 188 242 319 388 459
#     4  11  23  44  72 109 150 189 246 314 386 469
#     4  12  24  48  74 102 151 203 255 310 382 474
#     4  12  24  48  74 102 144 212 248 312 386 454
#
# _framework density 23.201656
#
# number of rings (size 3 to 8) (size 9 to 14) (size 15 to 20)
#    0.000    0.889    6.667    0.000    0.000    4.000 
#    8.000    8.333    0.000    0.000    0.000    0.000 
#    0.000    0.000    0.000    0.000    0.000    0.000 
#
# Total GULP energy -300858.479342 kJ/mol
# GULP energy per Si atom -5571.453321 kJ/mol
# Density = 2.314885 g / cm^3
# Si number density = 23.201656 Si / 1000 Ang^3
#
#
#
# Elastic Constant Matrix: (Units=GPa)
#
#
# Indices 1 2 3 4 5 6 
#
# 1 72.8100 34.8096 28.8610 0.0000 0.0000 0.0000
# 2 34.8096 72.8100 28.8610 0.0000 0.0000 0.0000
# 3 28.8610 28.8610 106.2929 0.0000 0.0000 0.0000
# 4 0.0000 0.0000 0.0000 23.0114 0.0000 0.0000
# 5 0.0000 0.0000 0.0000 0.0000 23.0114 0.0000
# 6 0.0000 0.0000 0.0000 0.0000 0.0000 19.0002
#
#
#
# Elastic Compliance Matrix: (Units=1/GPa)
#
#
# Indices 1 2 3 4 5 6 
#
# 1 0.018596 -0.007720 -0.002953 0.000000 0.000000 0.000000
# 2 -0.007720 0.018596 -0.002953 0.000000 0.000000 0.000000
# 3 -0.002953 -0.002953 0.011012 0.000000 0.000000 0.000000
# 4 0.000000 0.000000 0.000000 0.043457 0.000000 0.000000
# 5 0.000000 0.000000 0.000000 0.000000 0.043457 0.000000
# 6 0.000000 0.000000 0.000000 0.000000 0.000000 0.052631
#
#
# Mechanical properties :
#
#
# Convention : Reuss Voigt Hill
#
# Bulk Modulus (GPa) = 47.73010 48.55289 48.14150
# Shear Modulus (GPa) = 22.52425 23.63002 23.07713
#
# Velocity S-wave (km/s) = 3.11915 3.19480 3.15720
# Velocity P-wave (km/s) = 5.79557 5.88055 5.83822
#
# Compressibility (1/GPa) = 0.02095114
#
# Stress axis : x y z
#
# Youngs Moduli (GPa) = 53.77597 53.77597 90.81319
#
# Poissons Ratio (x) = 0.41514 0.26818
# Poissons Ratio (y) = 0.41514 0.26818
# Poissons Ratio (z) = 0.15880 0.15880
#
# Static dielectric constant tensor:
#      x y z
#    x 1.906580 0.000000 0.000000 
#    y 0.000000 1.906580 0.000000 
#    z 0.000000 0.000000 2.033340 
# 
# From -- ./inp_files/10006.got.cif
#   From: 2010.05.17/outbox.cif.g08.bks.cpg/sg181_6_cif.got.tgz:10006.got - 2010.05.20 11:51:17.
