data_PCOD9584089
_publ_section_title
;
Structure prediction by ZEFSAII (Michael W. Deem and Ramdas Pophale) SiO2 
 PCOD9584089
Probable space group: P 62 2 2
;
_chemical_formula_sum "Si O2"
_cell_formula_units_Z 72
_cell_length_a 14.959070
_cell_length_b 14.959070
_cell_length_c 17.109330
_cell_angle_alpha 90.000000
_cell_angle_beta 90.000000
_cell_angle_gamma 120.000000
_cell_volume 3315.681633
_symmetry_space_group_name_H-M "P 62 2 2"
_symmetry_group_IT_number 180
_symmetry_cell_setting 'hexagonal'
loop_
_space_group_symop_operation_xyz
x,y,z
x-y,x,1/3+z
-y,x-y,2/3+z
-x,-y,z
-x+y,-x,1/3+z
y,-x+y,2/3+z
x-y,-y,-z
-x,-x+y,1/3-z
y,x,2/3-z
-y,-x,2/3-z
-x+y,y,-z
x,x-y,1/3-z
loop_
_atom_site_type_symbol
_atom_site_label
_atom_site_fract_x
_atom_site_fract_y
_atom_site_fract_z
Si Si1 0.532611 0.286868 0.379364
Si Si2 0.379490 0.948625 0.583851
Si Si3 0.554382 0.945530 0.832819
Si Si4 0.638200 0.729504 0.271447
Si Si5 0.754421 0.063974 0.298003
Si Si6 0.076462 0.929332 0.744092
O O1 0.640725 0.359276 0.333334
O O2 0.504382 0.176540 0.417141
O O3 0.508367 0.356262 0.441370
O O4 0.446844 0.252990 0.311527
O O5 0.500000 0.000000 0.605050
O O6 0.381724 0.000000 0.500000
O O7 0.321839 0.986113 0.643868
O O8 0.622226 0.918950 0.777624
O O9 0.500000 0.000000 0.787661
O O10 0.638415 0.048593 0.877150
O O11 0.681426 0.681426 0.333334
O O12 0.739292 0.830655 0.245291
O O13 0.824167 0.175834 0.333334
O O14 0.829720 0.019799 0.277239
O O15 0.051513 0.948488 0.833334
O O16 0.000000 0.903647 0.666667
#
# Coordination Sequence:
#
# PCOD9584089 Si02
#       6
#    12  12  12  12  12  12
#     4  11  21  39  73 114 142 184 239 306 395 468
#     4  11  26  48  68  90 137 198 252 306 365 453
#     4  11  21  38  69 113 148 173 225 307 387 469
#     4   9  18  34  65 102 144 176 216 293 392 455
#     4  12  26  43  67  96 136 194 244 291 368 453
#     4  11  23  43  71 102 141 188 246 317 385 457
#
# _framework density 21.714991999999999
#
# number of rings (size 3 to 8) (size 9 to 14) (size 15 to 20)
#    0.000    1.167    5.000    1.500    0.000    2.333 
#    0.000    4.167    3.667    0.000    0.000    0.000 
#    0.000    0.000    0.000    0.000    0.000    0.000 
#
# Total GULP energy -401065.046247 kJ/mol
# GULP energy per Si atom -5570.347865 kJ/mol
# Density = 2.166557 g / cm^3
# Si number density = 21.714992 Si / 1000 Ang^3
#
#
#
# Elastic Constant Matrix: (Units=GPa)
#
#
# Indices 1 2 3 4 5 6 
#
# 1 144.5299 -0.0195 35.7482 0.0000 0.0000 0.0000
# 2 -0.0195 144.5299 35.7482 0.0000 0.0000 0.0000
# 3 35.7482 35.7482 125.8751 0.0000 0.0000 0.0000
# 4 0.0000 0.0000 0.0000 37.4273 0.0000 0.0000
# 5 0.0000 0.0000 0.0000 0.0000 37.4273 0.0000
# 6 0.0000 0.0000 0.0000 0.0000 0.0000 72.2747
#
#
#
# Elastic Compliance Matrix: (Units=1/GPa)
#
#
# Indices 1 2 3 4 5 6 
#
# 1 0.007485 0.000567 -0.002287 0.000000 0.000000 0.000000
# 2 0.000567 0.007485 -0.002287 0.000000 0.000000 0.000000
# 3 -0.002287 -0.002287 0.009243 0.000000 0.000000 0.000000
# 4 0.000000 0.000000 0.000000 0.026718 0.000000 0.000000
# 5 0.000000 0.000000 0.000000 0.000000 0.026718 0.000000
# 6 0.000000 0.000000 0.000000 0.000000 0.000000 0.013836
#
#
# Mechanical properties :
#
#
# Convention : Reuss Voigt Hill
#
# Bulk Modulus (GPa) = 61.73068 61.98764 61.85916
# Shear Modulus (GPa) = 47.66533 52.32308 49.99420
#
# Velocity S-wave (km/s) = 4.69021 4.91403 4.80342
# Velocity P-wave (km/s) = 7.60396 7.79775 7.70146
#
# Compressibility (1/GPa) = 0.01619940
#
# Stress axis : x y z
#
# Youngs Moduli (GPa) = 133.60757 133.60757 108.18876
#
# Poissons Ratio (x) = -0.07570 0.24737
# Poissons Ratio (y) = -0.07570 0.24737
# Poissons Ratio (z) = 0.30549 0.30549
#
# Static dielectric constant tensor:
#      x y z
#    x 1.832650 0.000000 0.000000 
#    y 0.000000 1.832650 0.000000 
#    z 0.000000 0.000000 1.722100 
# 
# From -- ./inp_files/7754.got.cif
#   From: 2010.05.17/outbox.cif.g08.bks.cpg/sg180_4_cif.got.tgz:7754.got - 2010.05.20 11:43:55.
