data_PCOD9584720
_publ_section_title
;
Structure prediction by ZEFSAII (Michael W. Deem and Ramdas Pophale) SiO2 
 PCOD9584720
Probable space group: P 63 2 2
;
_chemical_formula_sum "Si O2"
_cell_formula_units_Z 46
_cell_length_a 14.196998
_cell_length_b 14.196998
_cell_length_c 12.663862
_cell_angle_alpha 90.000000
_cell_angle_beta 90.000000
_cell_angle_gamma 120.000000
_cell_volume 2210.496560
_symmetry_space_group_name_H-M "P 63 2 2"
_symmetry_group_IT_number 182
_symmetry_cell_setting 'hexagonal'
loop_
_space_group_symop_operation_xyz
x,y,z
x-y,x,1/2+z
-y,x-y,z
-x,-y,1/2+z
-x+y,-x,z
y,-x+y,1/2+z
x-y,-y,-z
-x,-x+y,-z
y,x,-z
-y,-x,1/2-z
-x+y,y,1/2-z
x,x-y,1/2-z
loop_
_atom_site_type_symbol
_atom_site_label
_atom_site_fract_x
_atom_site_fract_y
_atom_site_fract_z
Si Si1 0.886576 0.770430 0.027629
Si Si2 0.333334 0.666668 0.621742
Si Si3 0.927028 0.072973 0.250000
Si Si4 0.582114 0.778304 0.371680
Si Si5 0.555037 0.428589 0.529133
O O1 0.892518 0.772923 0.152288
O O2 0.786669 0.786669 0.000000
O O3 0.879413 0.677337 0.952961
O O4 0.000000 0.876935 0.000000
O O5 0.333334 0.666667 0.750000
O O6 0.211341 0.605562 0.570046
O O7 0.058101 0.116201 0.250000
O O8 0.614491 0.807246 0.250000
O O9 0.533493 0.850949 0.416500
O O10 0.490467 0.653437 0.388053
O O11 0.502350 0.502350 0.500000
#
# Coordination Sequence:
#
# PCOD9584720 Si02
#       5
#    12   4   6  12  12
#     4  12  23  40  61  98 134 172 221 255 313 387
#     4   9  21  39  67  98 133 168 210 271 338 391
#     4  10  20  40  64  86 134 196 212 248 308 374
#     4  11  25  42  69  95 125 167 223 275 327 384
#     4  10  22  47  65  93 128 168 218 270 329 396
#
# _framework density 20.809804
#
# number of rings (size 3 to 8) (size 9 to 14) (size 15 to 20)
#    0.261    1.043    2.609    3.130    3.652    2.087 
#    9.391    0.000    0.000    0.000    0.000    0.000 
#    0.000    0.000    0.000    0.000    0.000    0.000 
#
# Total GULP energy -256523.314006 kJ/mol
# GULP energy per Si atom -5576.593783 kJ/mol
# Density = 2.076244 g / cm^3
# Si number density = 20.809804 Si / 1000 Ang^3
#
#
#
# Elastic Constant Matrix: (Units=GPa)
#
#
# Indices 1 2 3 4 5 6 
#
# 1 91.9688 32.6176 45.6526 -0.0001 0.0001 0.0000
# 2 32.6176 91.9687 45.6528 -0.0001 0.0000 0.0000
# 3 45.6526 45.6528 218.2516 0.0000 -0.0002 0.0001
# 4 -0.0001 -0.0001 0.0000 -3.9815 -0.0003 0.0000
# 5 0.0001 0.0000 -0.0002 -0.0003 -3.9812 0.0000
# 6 0.0000 0.0000 0.0001 0.0000 0.0000 29.6757
#
#
#
# Elastic Compliance Matrix: (Units=1/GPa)
#
#
# Indices 1 2 3 4 5 6 
#
# 1 0.013164 -0.003685 -0.001983 0.000000 0.000000 0.000000
# 2 -0.003685 0.013164 -0.001983 0.000000 0.000000 0.000000
# 3 -0.001983 -0.001983 0.005411 0.000000 0.000000 0.000000
# 4 0.000000 0.000000 0.000000 -0.251164 0.000020 0.000000
# 5 0.000000 0.000000 0.000000 0.000020 -0.251183 0.000000
# 6 0.000000 0.000000 0.000000 0.000000 0.000000 0.033698
#
#
# Mechanical properties :
#
#
# Convention : Reuss Voigt Hill
#
# Bulk Modulus (GPa) = 60.82992 72.22613 66.52802
# Shear Modulus (GPa) = -12.01549 22.89368 5.43910
#
# Velocity S-wave (km/s) = -2.40551 3.32043 1.61845
# Velocity P-wave (km/s) = 4.64538 7.03445 5.96083
#
# Compressibility (1/GPa) = 0.01643928
#
# Stress axis : x y z
#
# Youngs Moduli (GPa) = 75.96296 75.96281 184.79411
#
# Poissons Ratio (x) = 0.27989 0.36643
# Poissons Ratio (y) = 0.27989 0.36644
# Poissons Ratio (z) = 0.15063 0.15063
#
# Static dielectric constant tensor:
#      x y z
#    x 1.752160 0.000000 0.000000 
#    y 0.000000 1.752160 0.000000 
#    z 0.000000 0.000000 1.810000 
# 
# From -- ./inp_files/2423.got.cif
#   From: 2010.05.17/outbox.cif.g08.bks.cpg/sg182_2_cif.got.tgz:2423.got - 2010.05.20 11:58:53.
