data_PCOD9584931
_publ_section_title
;
Structure prediction by ZEFSAII (Michael W. Deem and Ramdas Pophale) SiO2 
 PCOD9584931
Probable space group: P 6 M M
;
_chemical_formula_sum "Si O2"
_cell_formula_units_Z 84
_cell_length_a 18.452220
_cell_length_b 18.452220
_cell_length_c 18.248726
_cell_angle_alpha 90.000000
_cell_angle_beta 90.000000
_cell_angle_gamma 120.000000
_cell_volume 5380.968255
_symmetry_space_group_name_H-M "P 6 M M"
_symmetry_group_IT_number 183
_symmetry_cell_setting 'hexagonal'
loop_
_space_group_symop_operation_xyz
x,y,z
x-y,x,z
-y,x-y,z
-x,-y,z
-x+y,-x,z
y,-x+y,z
-x+y,y,z
x,x-y,z
-y,-x,z
y,x,z
x-y,-y,z
-x,-x+y,z
loop_
_atom_site_type_symbol
_atom_site_label
_atom_site_fract_x
_atom_site_fract_y
_atom_site_fract_z
Si Si1 0.736459 0.638863 0.048950
Si Si2 0.533222 0.633479 0.604003
Si Si3 0.499709 0.168737 0.758570
Si Si4 0.262218 0.361845 0.467961
Si Si5 0.099590 0.632017 0.332365
Si Si6 0.533158 0.899745 0.913261
Si Si7 0.500940 0.833619 0.170224
O O1 0.834961 0.669922 0.051864
O O2 0.708770 0.708770 0.043160
O O3 0.693305 0.581646 0.120323
O O4 0.696313 0.575543 0.980216
O O5 0.434520 0.565481 0.593060
O O6 0.579601 0.579601 0.608020
O O7 0.546501 0.679182 0.681870
O O8 0.575489 0.695747 0.536635
O O9 0.573779 0.147558 0.758483
O O10 0.533896 0.266948 0.758735
O O11 0.453586 0.132424 0.835249
O O12 0.163177 0.326354 0.469193
O O13 0.294912 0.294912 0.470326
O O14 0.301299 0.417626 0.395064
O O15 0.119724 0.559862 0.357782
O O16 0.145601 0.667929 0.255782
O O17 0.000000 0.583978 0.317777
O O18 0.434370 0.868740 0.924387
O O19 0.579565 0.000000 0.909521
O O20 0.424851 0.849702 0.152575
O O21 0.474968 0.737484 0.156930
#
# Coordination Sequence:
#
# PCOD9584931 Si02
#       7
#    12  12  12  12  12  12  12
#     4  10  20  33  49  68  89 114 146 185 227 269
#     4   9  17  29  45  63  83 110 143 179 220 264
#     4  10  18  27  39  57  84 116 148 178 208 244
#     4  10  19  31  47  66  88 114 147 186 226 268
#     4   9  17  29  46  67  90 118 151 184 217 255
#     4   9  17  29  45  64  86 114 147 180 214 254
#     4  10  19  30  45  67  96 127 156 184 214 249
#
# _framework density 15.610574
#
# number of rings (size 3 to 8) (size 9 to 14) (size 15 to 20)
#    0.000    2.429    0.000    3.286    0.000    4.857 
#    0.000    0.000    0.000    8.857    0.000    0.000 
#    0.000    0.000    0.000    4.571    0.000   29.714 
#
# Total GULP energy -467948.567528 kJ/mol
# GULP energy per Si atom -5570.816280 kJ/mol
# Density = 1.557504 g / cm^3
# Si number density = 15.610574 Si / 1000 Ang^3
#
#
#
# Elastic Constant Matrix: (Units=GPa)
#
#
# Indices 1 2 3 4 5 6 
#
# 1 60.4151 35.7927 29.9217 0.0000 0.0000 0.0000
# 2 35.7927 60.4151 29.9217 0.0000 0.0000 0.0000
# 3 29.9217 29.9217 74.2296 0.0000 0.0000 0.0000
# 4 0.0000 0.0000 0.0000 10.9720 0.0000 0.0000
# 5 0.0000 0.0000 0.0000 0.0000 10.9720 0.0000
# 6 0.0000 0.0000 0.0000 0.0000 0.0000 12.3112
#
#
#
# Elastic Compliance Matrix: (Units=1/GPa)
#
#
# Indices 1 2 3 4 5 6 
#
# 1 0.027243 -0.013370 -0.005592 0.000000 0.000000 0.000000
# 2 -0.013370 0.027243 -0.005592 0.000000 0.000000 0.000000
# 3 -0.005592 -0.005592 0.017980 0.000000 0.000000 0.000000
# 4 0.000000 0.000000 0.000000 0.091141 0.000000 0.000000
# 5 0.000000 0.000000 0.000000 0.000000 0.091141 0.000000
# 6 0.000000 0.000000 0.000000 0.000000 0.000000 0.081227
#
#
# Mechanical properties :
#
#
# Convention : Reuss Voigt Hill
#
# Bulk Modulus (GPa) = 42.81355 42.92575 42.86965
# Shear Modulus (GPa) = 12.72686 13.47927 13.10307
#
# Velocity S-wave (km/s) = 2.85839 2.94167 2.90033
# Velocity P-wave (km/s) = 6.19511 6.25264 6.22394
#
# Compressibility (1/GPa) = 0.02335709
#
# Stress axis : x y z
#
# Youngs Moduli (GPa) = 36.70673 36.70673 55.61764
#
# Poissons Ratio (x) = 0.49079 0.31101
# Poissons Ratio (y) = 0.49079 0.31101
# Poissons Ratio (z) = 0.20526 0.20526
#
# Static dielectric constant tensor:
#      x y z
#    x 1.512110 0.000000 0.000000 
#    y 0.000000 1.512110 0.000000 
#    z 0.000000 0.000000 1.538260 
# 
# From -- ./inp_files/2924.got.cif
#   From: 2010.05.17/outbox.cif.g08.bks.cpg/sg183_2_cif.got.tgz:2924.got - 2010.05.20 12:02:58.
