data_PCOD9584132
_publ_section_title
;
Structure prediction by ZEFSAII (Michael W. Deem and Ramdas Pophale) SiO2 
 PCOD9584132
Probable space group: P 62 2 2
;
_chemical_formula_sum "Si O2"
_cell_formula_units_Z 48
_cell_length_a 14.751881
_cell_length_b 14.751881
_cell_length_c 11.694020
_cell_angle_alpha 90.000000
_cell_angle_beta 90.000000
_cell_angle_gamma 120.000000
_cell_volume 2203.886703
_symmetry_space_group_name_H-M "P 62 2 2"
_symmetry_group_IT_number 180
_symmetry_cell_setting 'hexagonal'
loop_
_space_group_symop_operation_xyz
x,y,z
x-y,x,1/3+z
-y,x-y,2/3+z
-x,-y,z
-x+y,-x,1/3+z
y,-x+y,2/3+z
x-y,-y,-z
-x,-x+y,1/3-z
y,x,2/3-z
-y,-x,2/3-z
-x+y,y,-z
x,x-y,1/3-z
loop_
_atom_site_type_symbol
_atom_site_label
_atom_site_fract_x
_atom_site_fract_y
_atom_site_fract_z
Si Si1 0.052751 0.744792 0.284574
Si Si2 0.531630 0.888502 0.937639
Si Si3 0.626937 0.465520 0.012491
Si Si4 0.155990 0.413247 0.378807
O O1 0.147563 0.852438 0.333334
O O2 0.099642 0.666599 0.266119
O O3 0.000000 0.750086 0.166667
O O4 0.957984 0.687369 0.375000
O O5 0.509517 0.885150 0.804774
O O6 0.417937 0.835874 0.000000
O O7 0.594260 0.828512 0.957161
O O8 0.594371 0.000000 0.000000
O O9 0.513721 0.364656 0.004526
O O10 0.717283 0.434566 0.000000
O O11 0.215371 0.430741 0.500000
#
# Coordination Sequence:
#
# PCOD9584132 Si02
#       4
#    12  12  12  12
#     4  11  26  48  70  99 143 195 250 313 380 455
#     4  11  23  40  63  98 145 184 235 298 360 447
#     4  11  24  40  64 102 148 188 234 294 375 460
#     4  12  23  38  69 102 137 186 245 301 371 445
#
# _framework density 21.779703999999999
#
# number of rings (size 3 to 8) (size 9 to 14) (size 15 to 20)
#    0.000    0.750    2.500    6.000    3.500    4.000 
#    0.000    0.000    0.000    6.000    0.000    0.000 
#    0.000    0.000    0.000    0.000    0.000    0.000 
#
# Total GULP energy -268402.666601 kJ/mol
# GULP energy per Si atom -5591.722221 kJ/mol
# Density = 2.173013 g / cm^3
# Si number density = 21.779704 Si / 1000 Ang^3
#
#
#
# Elastic Constant Matrix: (Units=GPa)
#
#
# Indices 1 2 3 4 5 6 
#
# 1 137.9455 75.5800 33.7012 0.0000 0.0000 0.0000
# 2 75.5800 137.9455 33.7012 0.0000 0.0000 0.0000
# 3 33.7012 33.7012 97.8646 0.0000 0.0000 0.0000
# 4 0.0000 0.0000 0.0000 16.6569 0.0000 0.0000
# 5 0.0000 0.0000 0.0000 0.0000 16.6569 0.0000
# 6 0.0000 0.0000 0.0000 0.0000 0.0000 31.1828
#
#
#
# Elastic Compliance Matrix: (Units=1/GPa)
#
#
# Indices 1 2 3 4 5 6 
#
# 1 0.010644 -0.005390 -0.001809 0.000000 0.000000 0.000000
# 2 -0.005390 0.010644 -0.001809 0.000000 0.000000 0.000000
# 3 -0.001809 -0.001809 0.011464 0.000000 0.000000 0.000000
# 4 0.000000 0.000000 0.000000 0.060035 0.000000 0.000000
# 5 0.000000 0.000000 0.000000 0.000000 0.060035 0.000000
# 6 0.000000 0.000000 0.000000 0.000000 0.000000 0.032069
#
#
# Mechanical properties :
#
#
# Convention : Reuss Voigt Hill
#
# Bulk Modulus (GPa) = 67.86320 73.30227 70.58273
# Shear Modulus (GPa) = 24.05900 28.28419 26.17159
#
# Velocity S-wave (km/s) = 3.32724 3.60759 3.47024
# Velocity P-wave (km/s) = 6.78139 7.14718 6.96669
#
# Compressibility (1/GPa) = 0.01473553
#
# Stress axis : x y z
#
# Youngs Moduli (GPa) = 93.94538 93.94538 87.22632
#
# Poissons Ratio (x) = 0.50637 0.15783
# Poissons Ratio (y) = 0.50637 0.15783
# Poissons Ratio (z) = 0.16999 0.16999
#
# Static dielectric constant tensor:
#      x y z
#    x 1.828010 0.000000 0.000000 
#    y 0.000000 1.828010 0.000000 
#    z 0.000000 0.000000 1.910450 
# 
# From -- ./inp_files/4368.got.cif
#   From: 2010.05.17/outbox.cif.g08.bks.cpg/sg180_3_cif.got.tgz:4368.got - 2010.05.20 11:43:55.
