data_PCOD9584008
_publ_section_title
;
Structure prediction by ZEFSAII (Michael W. Deem and Ramdas Pophale) SiO2 
 PCOD9584008
Probable space group: P 62 2 2
;
_chemical_formula_sum "Si O2"
_cell_formula_units_Z 48
_cell_length_a 12.426265
_cell_length_b 12.426265
_cell_length_c 13.712659
_cell_angle_alpha 90.000000
_cell_angle_beta 90.000000
_cell_angle_gamma 120.000000
_cell_volume 1833.722146
_symmetry_space_group_name_H-M "P 62 2 2"
_symmetry_group_IT_number 180
_symmetry_cell_setting 'hexagonal'
loop_
_space_group_symop_operation_xyz
x,y,z
x-y,x,1/3+z
-y,x-y,2/3+z
-x,-y,z
-x+y,-x,1/3+z
y,-x+y,2/3+z
x-y,-y,-z
-x,-x+y,1/3-z
y,x,2/3-z
-y,-x,2/3-z
-x+y,y,-z
x,x-y,1/3-z
loop_
_atom_site_type_symbol
_atom_site_label
_atom_site_fract_x
_atom_site_fract_y
_atom_site_fract_z
Si Si1 0.354816 0.821202 0.890380
Si Si2 0.913966 0.541043 0.354588
Si Si3 0.612581 0.387420 0.833334
Si Si4 0.812308 0.793666 0.718652
Si Si5 0.302478 0.000000 0.000000
O O1 0.432942 0.759626 0.836090
O O2 0.350179 0.948227 0.912795
O O3 0.406041 0.812082 0.000000
O O4 0.199381 0.712448 0.906036
O O5 0.858817 0.453779 0.259947
O O6 0.000000 0.500000 0.409254
O O7 0.998706 0.683078 0.323661
O O8 0.809031 0.809031 0.833334
O O9 0.847493 0.923747 0.666667
O O10 0.896563 0.730866 0.700607
#
# Coordination Sequence:
#
# PCOD9584008 Si02
#       5
#    12  12   6  12   6
#     4  10  24  47  76 109 150 202 264 329 410 492
#     4  12  25  48  73 109 152 204 259 332 410 494
#     4  10  23  46  76 104 151 196 260 332 412 482
#     4  12  27  45  74 110 148 203 261 322 405 492
#     4  12  25  50  73 104 160 190 264 334 406 496
#
# _framework density 26.176268
#
# number of rings (size 3 to 8) (size 9 to 14) (size 15 to 20)
#    0.750    0.000    2.500    4.500    0.000    7.000 
#    4.500    1.250    0.000    0.000    0.000    0.000 
#    0.000    0.000    0.000    0.000    0.000    0.000 
#
# Total GULP energy -267532.552998 kJ/mol
# GULP energy per Si atom -5573.594854 kJ/mol
# Density = 2.611669 g / cm^3
# Si number density = 26.176268 Si / 1000 Ang^3
#
#
#
# Elastic Constant Matrix: (Units=GPa)
#
#
# Indices 1 2 3 4 5 6 
#
# 1 154.3605 55.7364 59.4817 0.0000 0.0000 0.0000
# 2 55.7364 154.3605 59.4817 0.0000 0.0000 0.0000
# 3 59.4817 59.4817 189.4949 0.0000 0.0000 0.0000
# 4 0.0000 0.0000 0.0000 -110.2321 0.0000 0.0000
# 5 0.0000 0.0000 0.0000 0.0000 -110.2321 0.0000
# 6 0.0000 0.0000 0.0000 0.0000 0.0000 49.3121
#
#
#
# Elastic Compliance Matrix: (Units=1/GPa)
#
#
# Indices 1 2 3 4 5 6 
#
# 1 0.007964 -0.002175 -0.001817 0.000000 0.000000 0.000000
# 2 -0.002175 0.007964 -0.001817 0.000000 0.000000 0.000000
# 3 -0.001817 -0.001817 0.006418 0.000000 0.000000 0.000000
# 4 0.000000 0.000000 0.000000 -0.009072 0.000000 0.000000
# 5 0.000000 0.000000 0.000000 0.000000 -0.009072 0.000000
# 6 0.000000 0.000000 0.000000 0.000000 0.000000 0.020279
#
#
# Mechanical properties :
#
#
# Convention : Reuss Voigt Hill
#
# Bulk Modulus (GPa) = 93.22292 94.17951 93.70121
# Shear Modulus (GPa) = 126.02058 -12.66268 56.67895
#
# Velocity S-wave (km/s) = 6.94605 -2.20181 4.65831
# Velocity P-wave (km/s) = 10.00105 5.43996 8.05028
#
# Compressibility (1/GPa) = 0.01072698
#
# Stress axis : x y z
#
# Youngs Moduli (GPa) = 125.56457 125.56457 155.81447
#
# Poissons Ratio (x) = 0.27316 0.28312
# Poissons Ratio (y) = 0.27316 0.28312
# Poissons Ratio (z) = 0.22815 0.22815
#
# Static dielectric constant tensor:
#      x y z
#    x 2.260220 0.000000 0.000000 
#    y 0.000000 2.260220 0.000000 
#    z 0.000000 0.000000 2.189760 
# 
# From -- ./inp_files/8750.got.cif
#   From: 2010.05.17/outbox.cif.g08.bks.cpg/sg180_5_cif.got.tgz:8750.got - 2010.05.20 11:43:55.
