data_PCOD9584880
_publ_section_title
;
Structure prediction by ZEFSAII (Michael W. Deem and Ramdas Pophale) SiO2 
 PCOD9584880
Probable space group: P 63 2 2
;
_chemical_formula_sum "Si O2"
_cell_formula_units_Z 60
_cell_length_a 16.070403
_cell_length_b 16.070403
_cell_length_c 12.325745
_cell_angle_alpha 90.000000
_cell_angle_beta 90.000000
_cell_angle_gamma 120.000000
_cell_volume 2756.749763
_symmetry_space_group_name_H-M "P 63 2 2"
_symmetry_group_IT_number 182
_symmetry_cell_setting 'hexagonal'
loop_
_space_group_symop_operation_xyz
x,y,z
x-y,x,1/2+z
-y,x-y,z
-x,-y,1/2+z
-x+y,-x,z
y,-x+y,1/2+z
x-y,-y,-z
-x,-x+y,-z
y,x,-z
-y,-x,1/2-z
-x+y,y,1/2-z
x,x-y,1/2-z
loop_
_atom_site_type_symbol
_atom_site_label
_atom_site_fract_x
_atom_site_fract_y
_atom_site_fract_z
Si Si1 0.207818 0.603909 0.250000
Si Si2 0.439283 0.560717 0.750000
Si Si3 0.528256 0.564954 0.115731
Si Si4 0.181910 0.181910 0.500000
Si Si5 0.930134 0.241946 0.793803
Si Si6 0.571000 0.785500 0.750000
Si Si7 0.260737 0.064266 0.398570
O O1 0.282231 0.564462 0.250000
O O2 0.138584 0.564473 0.144526
O O3 0.490084 0.538684 0.650835
O O4 0.497595 0.673307 0.772158
O O5 0.608054 0.648173 0.191526
O O6 0.575635 0.575635 0.000000
O O7 0.207373 0.263743 0.410599
O O8 0.183955 0.096433 0.434163
O O9 0.823804 0.176197 0.750000
O O10 0.997011 0.229651 0.706676
O O11 0.641371 0.841936 0.852982
O O12 0.262543 0.000000 0.500000
#
# Coordination Sequence:
#
# PCOD9584880 Si02
#       7
#     6   6  12   6  12   6  12
#     4   9  22  48  69 110 158 193 254 326 389 450
#     4  11  25  46  72 100 152 194 244 319 385 456
#     4  11  23  45  73 108 149 204 256 317 390 476
#     4  12  22  42  68 104 146 194 254 320 378 464
#     4  12  23  42  73 106 144 203 255 321 391 466
#     4  12  25  50  73 112 154 195 266 317 392 476
#     4  12  25  44  74 107 153 204 260 318 393 475
#
# _framework density 21.764759999999999
#
# number of rings (size 3 to 8) (size 9 to 14) (size 15 to 20)
#    0.200    0.400    7.000    0.800    0.000    0.800 
#    4.200    0.000    2.200    0.000    0.000    0.000 
#    0.000    0.000    0.000    0.000    0.000    0.000 
#
# Total GULP energy -334318.198380 kJ/mol
# GULP energy per Si atom -5571.969973 kJ/mol
# Density = 2.171522 g / cm^3
# Si number density = 21.764760 Si / 1000 Ang^3
#
#
#
# Elastic Constant Matrix: (Units=GPa)
#
#
# Indices 1 2 3 4 5 6 
#
# 1 122.7492 68.3523 46.7967 0.0000 0.0000 0.0000
# 2 68.3523 122.7492 46.7967 0.0000 0.0000 0.0000
# 3 46.7967 46.7967 121.5099 0.0000 0.0000 0.0000
# 4 0.0000 0.0000 0.0000 23.5012 0.0000 0.0000
# 5 0.0000 0.0000 0.0000 0.0000 23.5012 0.0000
# 6 0.0000 0.0000 0.0000 0.0000 0.0000 27.1985
#
#
#
# Elastic Compliance Matrix: (Units=1/GPa)
#
#
# Indices 1 2 3 4 5 6 
#
# 1 0.012416 -0.005967 -0.002484 0.000000 0.000000 0.000000
# 2 -0.005967 0.012416 -0.002484 0.000000 0.000000 0.000000
# 3 -0.002484 -0.002484 0.010143 0.000000 0.000000 0.000000
# 4 0.000000 0.000000 0.000000 0.042551 0.000000 0.000000
# 5 0.000000 0.000000 0.000000 0.000000 0.042551 0.000000
# 6 0.000000 0.000000 0.000000 0.000000 0.000000 0.036767
#
#
# Mechanical properties :
#
#
# Convention : Reuss Voigt Hill
#
# Bulk Modulus (GPa) = 76.29902 76.76663 76.53282
# Shear Modulus (GPa) = 27.31010 28.51102 27.91056
#
# Velocity S-wave (km/s) = 3.54614 3.62327 3.58491
# Velocity P-wave (km/s) = 7.20410 7.26992 7.23709
#
# Compressibility (1/GPa) = 0.01310633
#
# Stress axis : x y z
#
# Youngs Moduli (GPa) = 80.53908 80.53908 98.59087
#
# Poissons Ratio (x) = 0.48058 0.24488
# Poissons Ratio (y) = 0.48058 0.24488
# Poissons Ratio (z) = 0.20004 0.20004
#
# Static dielectric constant tensor:
#      x y z
#    x 1.840380 0.000000 0.000000 
#    y 0.000000 1.840380 0.000000 
#    z 0.000000 0.000000 1.868520 
# 
# From -- ./inp_files/2690.got.cif
#   From: 2010.05.17/outbox.cif.g08.bks.cpg/sg182_2_cif.got.tgz:2690.got - 2010.05.20 11:58:53.
