data_PCOD9584588
_publ_section_title
;
Structure prediction by ZEFSAII (Michael W. Deem and Ramdas Pophale) SiO2 
 PCOD9584588
Probable space group: P 64 2 2
;
_chemical_formula_sum "Si O2"
_cell_formula_units_Z 42
_cell_length_a 8.032309
_cell_length_b 8.032309
_cell_length_c 34.908165
_cell_angle_alpha 90.000000
_cell_angle_beta 90.000000
_cell_angle_gamma 120.000000
_cell_volume 1950.466369
_symmetry_space_group_name_H-M "P 64 2 2"
_symmetry_group_IT_number 181
_symmetry_cell_setting 'hexagonal'
loop_
_space_group_symop_operation_xyz
x,y,z
x-y,x,2/3+z
-y,x-y,1/3+z
-x,-y,z
-x+y,-x,2/3+z
y,-x+y,1/3+z
x-y,-y,-z
-x,-x+y,2/3-z
y,x,1/3-z
-y,-x,1/3-z
-x+y,y,-z
x,x-y,2/3-z
loop_
_atom_site_type_symbol
_atom_site_label
_atom_site_fract_x
_atom_site_fract_y
_atom_site_fract_z
Si Si1 0.127395 0.891816 0.622810
Si Si2 0.431981 0.200405 0.569157
Si Si3 0.500000 0.500000 0.166667
Si Si4 0.500000 0.000000 0.000000
Si Si5 0.234367 0.803215 0.070438
O O1 0.151860 0.848141 0.666667
O O2 0.992120 0.695553 0.600077
O O3 0.320753 0.031928 0.600234
O O4 0.000000 0.000000 0.623588
O O5 0.648738 0.352895 0.581433
O O6 0.313147 0.314198 0.571227
O O7 0.442468 0.120508 0.528251
O O8 0.554305 0.876060 0.972242
#
# Coordination Sequence:
#
# PCOD9584588 Si02
#       5
#    12  12   3   3  12
#     4   9  15  29  59  92 117 139 179 243 305 363
#     4   9  20  35  54  76 113 149 195 236 294 349
#     4  12  24  44  50  64 114 170 188 254 292 340
#     4   8  12  24  58  88 120 136 160 232 296 352
#     4   9  16  33  56  93 106 144 188 236 293 368
#
# _framework density 21.53331
#
# number of rings (size 3 to 8) (size 9 to 14) (size 15 to 20)
#    0.000    3.143    0.000    5.143    0.000    0.000 
#   10.286    5.000   18.857    0.000    0.000    0.000 
#    0.000    0.000    0.000    0.000    0.000    0.000 
#
# Total GULP energy -234482.793904 kJ/mol
# GULP energy per Si atom -5582.923664 kJ/mol
# Density = 2.148430 g / cm^3
# Si number density = 21.533310 Si / 1000 Ang^3
#
#
#
# Elastic Constant Matrix: (Units=GPa)
#
#
# Indices 1 2 3 4 5 6 
#
# 1 122.1153 56.2047 59.0795 0.0000 0.0000 0.0000
# 2 56.2047 122.1153 59.0795 0.0000 0.0000 0.0000
# 3 59.0795 59.0795 156.2993 0.0000 0.0000 0.0000
# 4 0.0000 0.0000 0.0000 7.0277 0.0000 0.0000
# 5 0.0000 0.0000 0.0000 0.0000 7.0277 0.0000
# 6 0.0000 0.0000 0.0000 0.0000 0.0000 32.9553
#
#
#
# Elastic Compliance Matrix: (Units=1/GPa)
#
#
# Indices 1 2 3 4 5 6 
#
# 1 0.011327 -0.003845 -0.002828 0.000000 0.000000 0.000000
# 2 -0.003845 0.011327 -0.002828 0.000000 0.000000 0.000000
# 3 -0.002828 -0.002828 0.008536 0.000000 0.000000 0.000000
# 4 0.000000 0.000000 0.000000 0.142294 0.000000 0.000000
# 5 0.000000 0.000000 0.000000 0.000000 0.142294 0.000000
# 6 0.000000 0.000000 0.000000 0.000000 0.000000 0.030344
#
#
# Mechanical properties :
#
#
# Convention : Reuss Voigt Hill
#
# Bulk Modulus (GPa) = 82.05212 83.25082 82.65147
# Shear Modulus (GPa) = 13.54326 24.47988 19.01157
#
# Velocity S-wave (km/s) = 2.51060 3.37536 2.97457
# Velocity P-wave (km/s) = 6.82580 7.34412 7.08970
#
# Compressibility (1/GPa) = 0.01218738
#
# Stress axis : x y z
#
# Youngs Moduli (GPa) = 88.28502 88.28502 117.15180
#
# Poissons Ratio (x) = 0.33947 0.33131
# Poissons Ratio (y) = 0.33947 0.33131
# Poissons Ratio (z) = 0.24967 0.24967
#
# Static dielectric constant tensor:
#      x y z
#    x 1.891190 0.000000 0.000000 
#    y 0.000000 1.891190 0.000000 
#    z 0.000000 0.000000 1.710630 
# 
# From -- ./inp_files/12012.got.cif
#   From: 2010.05.17/outbox.cif.g08.bks.cpg/sg181_7_cif.got.tgz:12012.got - 2010.05.20 11:51:17.
