data_PCOD9584188
_publ_section_title
;
Structure prediction by ZEFSAII (Michael W. Deem and Ramdas Pophale) SiO2 
 PCOD9584188
Probable space group: P 62 2 2
;
_chemical_formula_sum "Si O2"
_cell_formula_units_Z 30
_cell_length_a 17.075894
_cell_length_b 17.075894
_cell_length_c 4.942338
_cell_angle_alpha 90.000000
_cell_angle_beta 90.000000
_cell_angle_gamma 120.000000
_cell_volume 1248.044225
_symmetry_space_group_name_H-M "P 62 2 2"
_symmetry_group_IT_number 180
_symmetry_cell_setting 'hexagonal'
loop_
_space_group_symop_operation_xyz
x,y,z
x-y,x,1/3+z
-y,x-y,2/3+z
-x,-y,z
-x+y,-x,1/3+z
y,-x+y,2/3+z
x-y,-y,-z
-x,-x+y,1/3-z
y,x,2/3-z
-y,-x,2/3-z
-x+y,y,-z
x,x-y,1/3-z
loop_
_atom_site_type_symbol
_atom_site_label
_atom_site_fract_x
_atom_site_fract_y
_atom_site_fract_z
Si Si1 0.000000 0.740451 0.666667
Si Si2 0.182013 0.091007 0.666667
Si Si3 0.459785 0.816070 0.267347
Si Si4 0.624873 0.000000 0.500000
O O1 0.078219 0.837699 0.564003
O O2 0.000922 0.682663 0.418656
O O3 0.123050 0.123050 0.833334
O O4 0.384123 0.768245 0.500000
O O5 0.492700 0.746350 0.166667
O O6 0.533058 0.907230 0.425308
O O7 0.419312 0.838624 0.000000
#
# Coordination Sequence:
#
# PCOD9584188 Si02
#       4
#     6   6  12   6
#     4  12  28  47  75 114 156 210 282 330 428 500
#     4  12  28  49  76 108 158 208 290 346 430 499
#     4  12  27  51  86 124 169 219 286 352 429 514
#     4  12  29  50  82 117 172 220 274 342 443 500
#
# _framework density 24.037610999999998
#
# number of rings (size 3 to 8) (size 9 to 14) (size 15 to 20)
#    0.000    0.000    2.000    6.600    5.600    5.600 
#    0.000    0.000    0.000    0.000    0.000    0.000 
#    0.000    0.000    0.000    0.000    0.000    0.000 
#
# Total GULP energy -167419.180499 kJ/mol
# GULP energy per Si atom -5580.639350 kJ/mol
# Density = 2.398290 g / cm^3
# Si number density = 24.037611 Si / 1000 Ang^3
#
#
#
# Elastic Constant Matrix: (Units=GPa)
#
#
# Indices 1 2 3 4 5 6 
#
# 1 -18.7800 258.0925 86.4880 0.0000 0.0000 0.0000
# 2 258.0925 -18.7800 86.4880 0.0000 0.0000 0.0000
# 3 86.4880 86.4880 266.3675 0.0000 0.0000 0.0000
# 4 0.0000 0.0000 0.0000 38.2332 0.0000 0.0000
# 5 0.0000 0.0000 0.0000 0.0000 38.2332 0.0000
# 6 0.0000 0.0000 0.0000 0.0000 0.0000 -138.4362
#
#
#
# Elastic Compliance Matrix: (Units=1/GPa)
#
#
# Indices 1 2 3 4 5 6 
#
# 1 0.000924 0.004536 -0.001773 0.000000 0.000000 0.000000
# 2 0.004536 0.000924 -0.001773 0.000000 0.000000 0.000000
# 3 -0.001773 -0.001773 0.004905 0.000000 0.000000 0.000000
# 4 0.000000 0.000000 0.000000 0.026155 0.000000 0.000000
# 5 0.000000 0.000000 0.000000 0.000000 0.026155 0.000000
# 6 0.000000 0.000000 0.000000 0.000000 0.000000 -0.007224
#
#
# Mechanical properties :
#
#
# Convention : Reuss Voigt Hill
#
# Bulk Modulus (GPa) = 114.49247 121.21607 117.85427
# Shear Modulus (GPa) = 94.74769 -25.87802 34.43483
#
# Velocity S-wave (km/s) = 6.28506 -3.28466 3.78900
# Velocity P-wave (km/s) = 10.02014 6.01264 8.26302
#
# Compressibility (1/GPa) = 0.00873420
#
# Stress axis : x y z
#
# Youngs Moduli (GPa) = 1082.08100 1082.08100 203.85357
#
# Poissons Ratio (x) = -4.90823 0.36140
# Poissons Ratio (y) = -4.90823 0.36140
# Poissons Ratio (z) = 1.91837 1.91837
#
# Static dielectric constant tensor:
#      x y z
#    x 2.253330 0.000000 0.000000 
#    y 0.000000 2.253330 0.000000 
#    z 0.000000 0.000000 1.869110 
# 
# From -- ./inp_files/406.got.cif
#   From: 2010.05.17/outbox.cif.g08.bks.cpg/sg180_1_cif.got.tgz:406.got - 2010.05.20 11:43:55.
