data_PCOD9584302
_publ_section_title
;
Structure prediction by ZEFSAII (Michael W. Deem and Ramdas Pophale) SiO2 
 PCOD9584302
Probable space group: P 64 2 2
;
_chemical_formula_sum "Si O2"
_cell_formula_units_Z 75
_cell_length_a 22.055241
_cell_length_b 22.055241
_cell_length_c 12.297533
_cell_angle_alpha 90.000000
_cell_angle_beta 90.000000
_cell_angle_gamma 120.000000
_cell_volume 5180.506749
_symmetry_space_group_name_H-M "P 64 2 2"
_symmetry_group_IT_number 181
_symmetry_cell_setting 'hexagonal'
loop_
_space_group_symop_operation_xyz
x,y,z
x-y,x,2/3+z
-y,x-y,1/3+z
-x,-y,z
-x+y,-x,2/3+z
y,-x+y,1/3+z
x-y,-y,-z
-x,-x+y,2/3-z
y,x,1/3-z
-y,-x,1/3-z
-x+y,y,-z
x,x-y,2/3-z
loop_
_atom_site_type_symbol
_atom_site_label
_atom_site_fract_x
_atom_site_fract_y
_atom_site_fract_z
Si Si1 0.601784 0.601784 0.666667
Si Si2 0.000000 0.500000 0.833334
Si Si3 0.316776 0.775822 0.264669
Si Si4 0.576798 0.671536 0.485134
Si Si5 0.887566 0.458815 0.448700
Si Si6 0.588834 0.650555 0.244023
Si Si7 0.297857 0.595713 0.000000
Si Si8 0.743249 0.525300 0.173563
O O1 0.617785 0.665564 0.587890
O O2 0.532506 0.581644 0.738936
O O3 0.048282 0.477560 0.901052
O O4 0.265856 0.734145 0.166667
O O5 0.372945 0.847662 0.208490
O O6 0.357242 0.735742 0.302485
O O7 0.276921 0.782190 0.368087
O O8 0.501920 0.599934 0.501176
O O9 0.607667 0.667330 0.369748
O O10 0.563421 0.736652 0.490076
O O11 0.847434 0.423717 0.333334
O O12 0.644784 0.644784 0.166667
O O13 0.567533 0.705758 0.200490
O O14 0.288077 0.545016 0.100800
#
# Coordination Sequence:
#
# PCOD9584302 Si02
#       8
#     6   3  12  12  12  12   6  12
#     4  10  23  32  56  74  94 128 170 210 263 312
#     4   8  24  32  48  78  92 116 176 216 254 290
#     4  12  24  32  50  67  98 123 169 200 258 326
#     4  11  20  37  52  69 100 124 162 209 264 308
#     4  10  20  34  49  69  91 123 161 202 257 308
#     4  10  23  34  54  72  93 125 165 207 257 303
#     4  12  24  34  50  62 100 135 162 200 260 327
#     4  12  23  39  50  76  96 133 162 214 269 319
#
# _framework density 14.477349
#
# number of rings (size 3 to 8) (size 9 to 14) (size 15 to 20)
#    0.480    0.640    3.200    5.520   10.080    0.000 
#    0.000    0.000    0.000    0.000    0.000    0.000 
#    0.000    0.000    0.000    0.000    0.000    0.000 
#
# Total GULP energy -418273.469771 kJ/mol
# GULP energy per Si atom -5576.979597 kJ/mol
# Density = 1.444440 g / cm^3
# Si number density = 14.477349 Si / 1000 Ang^3
#
#
#
# Elastic Constant Matrix: (Units=GPa)
#
#
# Indices 1 2 3 4 5 6 
#
# 1 48.3883 20.7665 28.2638 0.0000 0.0000 0.0000
# 2 20.7665 48.3883 28.2638 0.0000 0.0000 0.0000
# 3 28.2638 28.2638 111.2111 0.0000 0.0000 0.0000
# 4 0.0000 0.0000 0.0000 -8.9533 0.0000 0.0000
# 5 0.0000 0.0000 0.0000 0.0000 -8.9533 0.0000
# 6 0.0000 0.0000 0.0000 0.0000 0.0000 13.8109
#
#
#
# Elastic Compliance Matrix: (Units=1/GPa)
#
#
# Indices 1 2 3 4 5 6 
#
# 1 0.027228 -0.008976 -0.004639 0.000000 0.000000 0.000000
# 2 -0.008976 0.027228 -0.004639 0.000000 0.000000 0.000000
# 3 -0.004639 -0.004639 0.011350 0.000000 0.000000 0.000000
# 4 0.000000 0.000000 0.000000 -0.111690 0.000000 0.000000
# 5 0.000000 0.000000 0.000000 0.000000 -0.111690 0.000000
# 6 0.000000 0.000000 0.000000 0.000000 0.000000 0.072406
#
#
# Mechanical properties :
#
#
# Convention : Reuss Voigt Hill
#
# Bulk Modulus (GPa) = 34.13084 40.28622 37.20853
# Shear Modulus (GPa) = -128.54401 7.89377 -60.32512
#
# Velocity S-wave (km/s) = -9.43305 2.33759 -6.46213
# Velocity P-wave (km/s) = 9.74766 5.93070 5.47008
#
# Compressibility (1/GPa) = 0.02929902
#
# Stress axis : x y z
#
# Youngs Moduli (GPa) = 36.72744 36.72744 88.10811
#
# Poissons Ratio (x) = 0.32965 0.40870
# Poissons Ratio (y) = 0.32965 0.40870
# Poissons Ratio (z) = 0.17037 0.17037
#
# Static dielectric constant tensor:
#      x y z
#    x 1.515250 0.000000 0.000000 
#    y 0.000000 1.515250 0.000000 
#    z 0.000000 0.000000 1.483340 
# 
# From -- ./inp_files/5049.got.cif
#   From: 2010.05.17/outbox.cif.g08.bks.cpg/sg181_3_cif.got.tgz:5049.got - 2010.05.20 11:51:17.
