data_PCOD9584237
_publ_section_title
;
Structure prediction by ZEFSAII (Michael W. Deem and Ramdas Pophale) SiO2 
 PCOD9584237
Probable space group: P 64 2 2
;
_chemical_formula_sum "Si O2"
_cell_formula_units_Z 90
_cell_length_a 18.816108
_cell_length_b 18.816108
_cell_length_c 17.056995
_cell_angle_alpha 90.000000
_cell_angle_beta 90.000000
_cell_angle_gamma 120.000000
_cell_volume 5229.892332
_symmetry_space_group_name_H-M "P 64 2 2"
_symmetry_group_IT_number 181
_symmetry_cell_setting 'hexagonal'
loop_
_space_group_symop_operation_xyz
x,y,z
x-y,x,2/3+z
-y,x-y,1/3+z
-x,-y,z
-x+y,-x,2/3+z
y,-x+y,1/3+z
x-y,-y,-z
-x,-x+y,2/3-z
y,x,1/3-z
-y,-x,1/3-z
-x+y,y,-z
x,x-y,2/3-z
loop_
_atom_site_type_symbol
_atom_site_label
_atom_site_fract_x
_atom_site_fract_y
_atom_site_fract_z
Si Si1 0.900159 0.368787 0.319706
Si Si2 0.630683 0.733194 0.824979
Si Si3 0.635828 0.282012 0.747677
Si Si4 0.608601 0.678452 0.528837
Si Si5 0.535849 0.904338 0.517427
Si Si6 0.781368 0.234451 0.577972
Si Si7 0.500000 0.000000 0.215781
Si Si8 0.652960 0.128824 0.300548
O O1 0.872529 0.436264 0.333334
O O2 0.874672 0.318946 0.237971
O O3 0.877017 0.307619 0.392715
O O4 0.000000 0.419123 0.333334
O O5 0.655136 0.827568 0.833334
O O6 0.690731 0.699559 0.797424
O O7 0.603218 0.700371 0.912903
O O8 0.666037 0.333964 0.666667
O O9 0.643691 0.321846 0.833334
O O10 0.691012 0.238531 0.755007
O O11 0.541486 0.218620 0.728741
O O12 0.601690 0.734509 0.464101
O O13 0.549464 0.582093 0.503038
O O14 0.445486 0.890972 0.500000
O O15 0.549454 0.842672 0.464093
O O16 0.538723 0.881635 0.607755
O O17 0.598895 0.000000 0.500000
O O18 0.786646 0.213355 0.666667
O O19 0.440364 0.927349 0.272284
#
# Coordination Sequence:
#
# PCOD9584237 Si02
#       8
#    12  12  12  12  12  12   6  12
#     4   9  17  33  53  77  97 132 179 217 259 315
#     4  10  22  35  53  78 106 132 172 221 273 331
#     4  11  22  37  52  74 109 144 187 237 287 326
#     4  10  20  35  58  74 103 141 177 227 267 319
#     4  11  24  39  58  78 105 144 184 228 273 320
#     4  11  23  37  55  79 103 141 191 228 266 317
#     4  10  18  34  56  74  94 142 182 216 263 323
#     4  11  21  35  54  74 105 135 181 225 279 316
#
# _framework density 17.208769
#
# number of rings (size 3 to 8) (size 9 to 14) (size 15 to 20)
#    0.000    1.600    1.333    6.400    5.600    0.000 
#    2.400    0.000    0.000    0.000    0.000    0.000 
#    0.000    0.533    0.000    1.200    0.000    0.000 
#
# Total GULP energy -501938.895404 kJ/mol
# GULP energy per Si atom -5577.098838 kJ/mol
# Density = 1.716960 g / cm^3
# Si number density = 17.208769 Si / 1000 Ang^3
#
#
#
# Elastic Constant Matrix: (Units=GPa)
#
#
# Indices 1 2 3 4 5 6 
#
# 1 62.9268 25.0322 27.4837 0.0000 0.0000 0.0000
# 2 25.0322 62.9268 27.4837 0.0000 0.0000 0.0000
# 3 27.4837 27.4837 149.0008 0.0000 0.0000 0.0000
# 4 0.0000 0.0000 0.0000 12.0881 0.0000 0.0000
# 5 0.0000 0.0000 0.0000 0.0000 12.0881 0.0000
# 6 0.0000 0.0000 0.0000 0.0000 0.0000 18.9473
#
#
#
# Elastic Compliance Matrix: (Units=1/GPa)
#
#
# Indices 1 2 3 4 5 6 
#
# 1 0.019620 -0.006769 -0.002370 0.000000 0.000000 0.000000
# 2 -0.006769 0.019620 -0.002370 0.000000 0.000000 0.000000
# 3 -0.002370 -0.002370 0.007586 0.000000 0.000000 0.000000
# 4 0.000000 0.000000 0.000000 0.082726 0.000000 0.000000
# 5 0.000000 0.000000 0.000000 0.000000 0.082726 0.000000
# 6 0.000000 0.000000 0.000000 0.000000 0.000000 0.052778
#
#
# Mechanical properties :
#
#
# Convention : Reuss Voigt Hill
#
# Bulk Modulus (GPa) = 42.00788 48.31709 45.16248
# Shear Modulus (GPa) = 16.89138 21.61504 19.25321
#
# Velocity S-wave (km/s) = 3.13638 3.54792 3.34848
# Velocity P-wave (km/s) = 6.13022 6.70236 6.42266
#
# Compressibility (1/GPa) = 0.02380506
#
# Stress axis : x y z
#
# Youngs Moduli (GPa) = 50.96955 50.96955 131.82567
#
# Poissons Ratio (x) = 0.34503 0.31246
# Poissons Ratio (y) = 0.34503 0.31246
# Poissons Ratio (z) = 0.12081 0.12081
#
# Static dielectric constant tensor:
#      x y z
#    x 1.621710 0.000000 0.000000 
#    y 0.000000 1.621710 0.000000 
#    z 0.000000 0.000000 1.743390 
# 
# From -- ./inp_files/7985.got.cif
#   From: 2010.05.17/outbox.cif.g08.bks.cpg/sg181_4_cif.got.tgz:7985.got - 2010.05.20 11:51:17.
