data_PCOD9584849
_publ_section_title
;
Structure prediction by ZEFSAII (Michael W. Deem and Ramdas Pophale) SiO2 
 PCOD9584849
Probable space group: P 63 2 2
;
_chemical_formula_sum "Si O2"
_cell_formula_units_Z 30
_cell_length_a 14.060058
_cell_length_b 14.060058
_cell_length_c 7.324862
_cell_angle_alpha 90.000000
_cell_angle_beta 90.000000
_cell_angle_gamma 120.000000
_cell_volume 1254.019539
_symmetry_space_group_name_H-M "P 63 2 2"
_symmetry_group_IT_number 182
_symmetry_cell_setting 'hexagonal'
loop_
_space_group_symop_operation_xyz
x,y,z
x-y,x,1/2+z
-y,x-y,z
-x,-y,1/2+z
-x+y,-x,z
y,-x+y,1/2+z
x-y,-y,-z
-x,-x+y,-z
y,x,-z
-y,-x,1/2-z
-x+y,y,1/2-z
x,x-y,1/2-z
loop_
_atom_site_type_symbol
_atom_site_label
_atom_site_fract_x
_atom_site_fract_y
_atom_site_fract_z
Si Si1 0.875980 0.756004 0.458661
Si Si2 0.130309 0.682230 0.164525
Si Si3 0.537902 0.537902 0.000000
O O1 0.858213 0.858213 0.500000
O O2 0.861245 0.722490 0.250000
O O3 0.781266 0.659085 0.574889
O O4 0.000000 0.792582 0.500000
O O5 0.252635 0.747366 0.250000
O O6 0.037496 0.617788 0.323018
O O7 0.102416 0.588362 0.012610
#
# Coordination Sequence:
#
# PCOD9584849 Si02
#       3
#    12  12   6
#     4  12  26  44  73 117 171 226 270 348 443 566
#     4  11  25  47  83 118 169 229 301 376 462 561
#     4  10  26  52  76 124 170 238 310 390 474 554
#
# _framework density 23.923074
#
# number of rings (size 3 to 8) (size 9 to 14) (size 15 to 20)
#    0.000    0.800    2.000    4.000    8.400    0.000 
#    9.600    0.000    0.000    0.000   41.600    0.000 
#    0.000    0.000    0.000    0.000    0.000    0.000 
#
# Total GULP energy -167280.724051 kJ/mol
# GULP energy per Si atom -5576.024135 kJ/mol
# Density = 2.386862 g / cm^3
# Si number density = 23.923074 Si / 1000 Ang^3
#
#
#
# Elastic Constant Matrix: (Units=GPa)
#
#
# Indices 1 2 3 4 5 6 
#
# 1 163.2217 66.2519 75.5312 0.0000 0.0000 0.0000
# 2 66.2519 163.2217 75.5312 0.0000 0.0000 0.0000
# 3 75.5312 75.5312 175.9210 0.0000 0.0000 0.0000
# 4 0.0000 0.0000 0.0000 54.1362 0.0000 0.0000
# 5 0.0000 0.0000 0.0000 0.0000 54.1362 0.0000
# 6 0.0000 0.0000 0.0000 0.0000 0.0000 48.4849
#
#
#
# Elastic Compliance Matrix: (Units=1/GPa)
#
#
# Indices 1 2 3 4 5 6 
#
# 1 0.008194 -0.002119 -0.002608 0.000000 0.000000 0.000000
# 2 -0.002119 0.008194 -0.002608 0.000000 0.000000 0.000000
# 3 -0.002608 -0.002608 0.007924 0.000000 0.000000 0.000000
# 4 0.000000 0.000000 0.000000 0.018472 0.000000 0.000000
# 5 0.000000 0.000000 0.000000 0.000000 0.018472 0.000000
# 6 0.000000 0.000000 0.000000 0.000000 0.000000 0.020625
#
#
# Mechanical properties :
#
#
# Convention : Reuss Voigt Hill
#
# Bulk Modulus (GPa) = 103.72582 104.11031 103.91806
# Shear Modulus (GPa) = 50.11822 50.35482 50.23652
#
# Velocity S-wave (km/s) = 4.58205 4.59286 4.58746
# Velocity P-wave (km/s) = 8.45256 8.46989 8.46123
#
# Compressibility (1/GPa) = 0.00964080
#
# Stress axis : x y z
#
# Youngs Moduli (GPa) = 122.04612 122.04612 126.19890
#
# Poissons Ratio (x) = 0.25860 0.32915
# Poissons Ratio (y) = 0.25860 0.32915
# Poissons Ratio (z) = 0.31832 0.31832
#
# Static dielectric constant tensor:
#      x y z
#    x 2.015390 0.000000 0.000000 
#    y 0.000000 2.015390 0.000000 
#    z 0.000000 0.000000 1.999980 
# 
# From -- ./inp_files/1076.got.cif
#   From: 2010.05.17/outbox.cif.g08.bks.cpg/sg182_1_cif.got.tgz:1076.got - 2010.05.20 11:58:53.
