data_PCOD9584463
_publ_section_title
;
Structure prediction by ZEFSAII (Michael W. Deem and Ramdas Pophale) SiO2 
 PCOD9584463
Probable space group: P 64 2 2
;
_chemical_formula_sum "Si O2"
_cell_formula_units_Z 36
_cell_length_a 9.330465
_cell_length_b 9.330465
_cell_length_c 23.798651
_cell_angle_alpha 90.000000
_cell_angle_beta 90.000000
_cell_angle_gamma 120.000000
_cell_volume 1794.277240
_symmetry_space_group_name_H-M "P 64 2 2"
_symmetry_group_IT_number 181
_symmetry_cell_setting 'hexagonal'
loop_
_space_group_symop_operation_xyz
x,y,z
x-y,x,2/3+z
-y,x-y,1/3+z
-x,-y,z
-x+y,-x,2/3+z
y,-x+y,1/3+z
x-y,-y,-z
-x,-x+y,2/3-z
y,x,1/3-z
-y,-x,1/3-z
-x+y,y,-z
x,x-y,2/3-z
loop_
_atom_site_type_symbol
_atom_site_label
_atom_site_fract_x
_atom_site_fract_y
_atom_site_fract_z
Si Si1 0.302509 0.401075 0.113642
Si Si2 0.882732 0.765464 0.000000
Si Si3 0.404069 0.702035 0.833334
Si Si4 0.740715 0.000000 0.000000
Si Si5 0.000000 0.500000 0.420927
O O1 0.500000 0.500000 0.104249
O O2 0.281122 0.281122 0.166667
O O3 0.214125 0.325082 0.055846
O O4 0.253972 0.535361 0.133005
O O5 0.787936 0.863642 0.981007
O O6 0.497072 0.642380 0.791318
O O7 0.662283 0.062161 0.951801
#
# Coordination Sequence:
#
# PCOD9584463 Si02
#       5
#    12   6   6   6   6
#     4   9  20  40  62  96 133 164 223 283 335 417
#     4  11  22  40  70  95 130 188 222 271 360 410
#     4  10  23  38  64  93 124 180 220 276 346 401
#     4  10  24  42  60  98 134 170 226 288 326 412
#     4  11  24  44  62  92 140 168 225 286 338 402
#
# _framework density 20.063789
#
# number of rings (size 3 to 8) (size 9 to 14) (size 15 to 20)
#    0.000    2.333    0.000    4.000    4.667    5.333 
#    0.000    1.667    0.000    0.000    0.000    0.000 
#    0.000    0.000    0.000    0.000    0.000    0.000 
#
# Total GULP energy -200528.663850 kJ/mol
# GULP energy per Si atom -5570.240662 kJ/mol
# Density = 2.001812 g / cm^3
# Si number density = 20.063789 Si / 1000 Ang^3
#
#
#
# Elastic Constant Matrix: (Units=GPa)
#
#
# Indices 1 2 3 4 5 6 
#
# 1 50.9931 26.4429 41.7642 0.0000 0.0000 0.0000
# 2 26.4429 50.9931 41.7642 0.0000 0.0000 0.0000
# 3 41.7642 41.7642 132.8689 0.0000 0.0000 0.0000
# 4 0.0000 0.0000 0.0000 12.6404 0.0000 0.0000
# 5 0.0000 0.0000 0.0000 0.0000 12.6404 0.0000
# 6 0.0000 0.0000 0.0000 0.0000 0.0000 12.2751
#
#
#
# Elastic Compliance Matrix: (Units=1/GPa)
#
#
# Indices 1 2 3 4 5 6 
#
# 1 0.030136 -0.010597 -0.006141 0.000000 0.000000 0.000000
# 2 -0.010597 0.030136 -0.006141 0.000000 0.000000 0.000000
# 3 -0.006141 -0.006141 0.011387 0.000000 0.000000 0.000000
# 4 0.000000 0.000000 0.000000 0.079111 0.000000 0.000000
# 5 0.000000 0.000000 0.000000 0.000000 0.079111 0.000000
# 6 0.000000 0.000000 0.000000 0.000000 0.000000 0.081466
#
#
# Mechanical properties :
#
#
# Convention : Reuss Voigt Hill
#
# Bulk Modulus (GPa) = 38.61264 50.53307 44.57285
# Shear Modulus (GPa) = 13.67089 15.83676 14.75383
#
# Velocity S-wave (km/s) = 2.61314 2.81253 2.71467
# Velocity P-wave (km/s) = 5.32836 5.98231 5.66478
#
# Compressibility (1/GPa) = 0.02589826
#
# Stress axis : x y z
#
# Youngs Moduli (GPa) = 33.18316 33.18316 87.81891
#
# Poissons Ratio (x) = 0.35165 0.53934
# Poissons Ratio (y) = 0.35165 0.53934
# Poissons Ratio (z) = 0.20379 0.20379
#
# Static dielectric constant tensor:
#      x y z
#    x 1.745400 0.000000 0.000000 
#    y 0.000000 1.745400 0.000000 
#    z 0.000000 0.000000 1.767470 
# 
# From -- ./inp_files/10884.got.cif
#   From: 2010.05.17/outbox.cif.g08.bks.cpg/sg181_6_cif.got.tgz:10884.got - 2010.05.20 11:51:17.
