data_PCOD9584545
_publ_section_title
;
Structure prediction by ZEFSAII (Michael W. Deem and Ramdas Pophale) SiO2 
 PCOD9584545
Probable space group: P 64 2 2
;
_chemical_formula_sum "Si O2"
_cell_formula_units_Z 54
_cell_length_a 13.600285
_cell_length_b 13.600285
_cell_length_c 15.819497
_cell_angle_alpha 90.000000
_cell_angle_beta 90.000000
_cell_angle_gamma 120.000000
_cell_volume 2534.074162
_symmetry_space_group_name_H-M "P 64 2 2"
_symmetry_group_IT_number 181
_symmetry_cell_setting 'hexagonal'
loop_
_space_group_symop_operation_xyz
x,y,z
x-y,x,2/3+z
-y,x-y,1/3+z
-x,-y,z
-x+y,-x,2/3+z
y,-x+y,1/3+z
x-y,-y,-z
-x,-x+y,2/3-z
y,x,1/3-z
-y,-x,1/3-z
-x+y,y,-z
x,x-y,2/3-z
loop_
_atom_site_type_symbol
_atom_site_label
_atom_site_fract_x
_atom_site_fract_y
_atom_site_fract_z
Si Si1 0.887421 0.545300 0.613474
Si Si2 0.298115 0.149058 0.833334
Si Si3 0.157167 0.094240 0.575954
Si Si4 0.839945 0.529512 0.078857
Si Si5 0.114063 0.725972 0.881654
O O1 0.838532 0.619489 0.574979
O O2 0.834205 0.423752 0.569005
O O3 0.860119 0.522019 0.712082
O O4 0.024238 0.627699 0.605844
O O5 0.212500 0.190419 0.802439
O O6 0.100329 0.100329 0.666667
O O7 0.268404 0.085099 0.592129
O O8 0.094458 0.000000 0.500000
O O9 0.796068 0.575892 0.154258
O O10 0.763338 0.526676 0.000000
O O11 0.000000 0.639232 0.833334
#
# Coordination Sequence:
#
# PCOD9584545 Si02
#       5
#    12   6  12  12  12
#     4  11  25  42  69 100 140 185 234 296 357 429
#     4  12  23  42  64  98 149 182 226 286 360 434
#     4  11  24  41  67 105 145 189 239 291 365 447
#     4  11  24  45  68 103 137 177 242 304 356 421
#     4  11  22  43  74  99 139 187 231 294 369 425
#
# _framework density 21.309559
#
# number of rings (size 3 to 8) (size 9 to 14) (size 15 to 20)
#    0.000    0.889    6.667    0.333    0.000    4.444 
#    0.000    0.000    0.000    4.000    0.000    0.000 
#    0.000    0.000    0.000    0.000    0.000    0.000 
#
# Total GULP energy -301068.143207 kJ/mol
# GULP energy per Si atom -5575.335985 kJ/mol
# Density = 2.126106 g / cm^3
# Si number density = 21.309559 Si / 1000 Ang^3
#
#
#
# Elastic Constant Matrix: (Units=GPa)
#
#
# Indices 1 2 3 4 5 6 
#
# 1 64.7447 44.9814 34.4751 0.0000 0.0000 0.0000
# 2 44.9814 64.7447 34.4751 0.0000 0.0000 0.0000
# 3 34.4751 34.4751 126.4800 0.0000 0.0000 0.0000
# 4 0.0000 0.0000 0.0000 16.4318 0.0000 0.0000
# 5 0.0000 0.0000 0.0000 0.0000 16.4318 0.0000
# 6 0.0000 0.0000 0.0000 0.0000 0.0000 9.8816
#
#
#
# Elastic Compliance Matrix: (Units=1/GPa)
#
#
# Indices 1 2 3 4 5 6 
#
# 1 0.030798 -0.019801 -0.002998 0.000000 0.000000 0.000000
# 2 -0.019801 0.030798 -0.002998 0.000000 0.000000 0.000000
# 3 -0.002998 -0.002998 0.009541 0.000000 0.000000 0.000000
# 4 0.000000 0.000000 0.000000 0.060858 0.000000 0.000000
# 5 0.000000 0.000000 0.000000 0.000000 0.060858 0.000000
# 6 0.000000 0.000000 0.000000 0.000000 0.000000 0.101198
#
#
# Mechanical properties :
#
#
# Convention : Reuss Voigt Hill
#
# Bulk Modulus (GPa) = 51.16471 53.75919 52.46195
# Shear Modulus (GPa) = 14.19823 18.01822 16.10822
#
# Velocity S-wave (km/s) = 2.58405 2.91098 2.75237
# Velocity P-wave (km/s) = 5.74155 6.04822 5.89688
#
# Compressibility (1/GPa) = 0.01954472
#
# Stress axis : x y z
#
# Youngs Moduli (GPa) = 32.46954 32.46954 104.81628
#
# Poissons Ratio (x) = 0.64293 0.31419
# Poissons Ratio (y) = 0.64293 0.31419
# Poissons Ratio (z) = 0.09733 0.09733
#
# Static dielectric constant tensor:
#      x y z
#    x 1.787900 0.000000 0.000000 
#    y 0.000000 1.787900 0.000000 
#    z 0.000000 0.000000 1.838700 
# 
# From -- ./inp_files/6029.got.cif
#   From: 2010.05.17/outbox.cif.g08.bks.cpg/sg181_4_cif.got.tgz:6029.got - 2010.05.20 11:51:17.
