data_PCOD9584107
_publ_section_title
;
Structure prediction by ZEFSAII (Michael W. Deem and Ramdas Pophale) SiO2 
 PCOD9584107
Probable space group: P 62 2 2
;
_chemical_formula_sum "Si O2"
_cell_formula_units_Z 48
_cell_length_a 14.416230
_cell_length_b 14.416230
_cell_length_c 14.087182
_cell_angle_alpha 90.000000
_cell_angle_beta 90.000000
_cell_angle_gamma 120.000000
_cell_volume 2535.468167
_symmetry_space_group_name_H-M "P 62 2 2"
_symmetry_group_IT_number 180
_symmetry_cell_setting 'hexagonal'
loop_
_space_group_symop_operation_xyz
x,y,z
x-y,x,1/3+z
-y,x-y,2/3+z
-x,-y,z
-x+y,-x,1/3+z
y,-x+y,2/3+z
x-y,-y,-z
-x,-x+y,1/3-z
y,x,2/3-z
-y,-x,2/3-z
-x+y,y,-z
x,x-y,1/3-z
loop_
_atom_site_type_symbol
_atom_site_label
_atom_site_fract_x
_atom_site_fract_y
_atom_site_fract_z
Si Si1 0.769212 0.690787 0.151419
Si Si2 0.170280 0.085140 0.666667
Si Si3 0.179458 0.693922 0.167523
Si Si4 0.836009 0.000000 0.000000
Si Si5 0.001272 0.397370 0.005679
O O1 0.880692 0.756691 0.093353
O O2 0.750670 0.572394 0.171161
O O3 0.781724 0.760646 0.243006
O O4 0.679577 0.677220 0.076637
O O5 0.098256 0.140848 0.657150
O O6 0.228167 0.614084 0.166667
O O7 0.108457 0.663981 0.263479
O O8 0.096201 0.658872 0.079786
O O9 0.000000 0.500000 0.964119
#
# Coordination Sequence:
#
# PCOD9584107 Si02
#       5
#    12   6  12   6  12
#     4  12  20  36  59  83 116 161 195 245 306 356
#     4  11  22  38  54  80 122 166 204 237 284 358
#     4   9  18  33  57  86 103 134 197 259 293 339
#     4  11  26  34  51  86 128 160 199 236 290 379
#     4   9  18  33  56  82 105 138 190 244 297 350
#
# _framework density 18.931415000000001
#
# number of rings (size 3 to 8) (size 9 to 14) (size 15 to 20)
#    0.000    1.750    2.500    4.500    3.500    2.000 
#    0.000    0.625    0.000   15.000    0.000    0.000 
#    0.000    0.000    0.000    0.000    0.000    0.000 
#
# Total GULP energy -267734.905289 kJ/mol
# GULP energy per Si atom -5577.810527 kJ/mol
# Density = 1.888833 g / cm^3
# Si number density = 18.931415 Si / 1000 Ang^3
#
#
#
# Elastic Constant Matrix: (Units=GPa)
#
#
# Indices 1 2 3 4 5 6 
#
# 1 76.1731 31.8525 44.6219 0.0000 0.0000 0.0000
# 2 31.8525 76.1731 44.6219 0.0000 0.0000 0.0000
# 3 44.6219 44.6219 122.1064 0.0000 0.0000 0.0000
# 4 0.0000 0.0000 0.0000 23.7678 0.0000 0.0000
# 5 0.0000 0.0000 0.0000 0.0000 23.7678 0.0000
# 6 0.0000 0.0000 0.0000 0.0000 0.0000 22.1603
#
#
#
# Elastic Compliance Matrix: (Units=1/GPa)
#
#
# Indices 1 2 3 4 5 6 
#
# 1 0.017912 -0.004651 -0.004846 0.000000 0.000000 0.000000
# 2 -0.004651 0.017912 -0.004846 0.000000 0.000000 0.000000
# 3 -0.004846 -0.004846 0.011731 0.000000 0.000000 0.000000
# 4 0.000000 0.000000 0.000000 0.042074 0.000000 0.000000
# 5 0.000000 0.000000 0.000000 0.000000 0.042074 0.000000
# 6 0.000000 0.000000 0.000000 0.000000 0.000000 0.045126
#
#
# Mechanical properties :
#
#
# Convention : Reuss Voigt Hill
#
# Bulk Modulus (GPa) = 52.99770 57.40503 55.20137
# Shear Modulus (GPa) = 23.60686 24.16294 23.88490
#
# Velocity S-wave (km/s) = 3.53507 3.57647 3.55583
# Velocity P-wave (km/s) = 6.68713 6.88791 6.78826
#
# Compressibility (1/GPa) = 0.01886874
#
# Stress axis : x y z
#
# Youngs Moduli (GPa) = 55.82972 55.82972 85.24269
#
# Poissons Ratio (x) = 0.25968 0.41307
# Poissons Ratio (y) = 0.25968 0.41307
# Poissons Ratio (z) = 0.27054 0.27054
#
# Static dielectric constant tensor:
#      x y z
#    x 1.696840 0.000000 0.000000 
#    y 0.000000 1.696840 0.000000 
#    z 0.000000 0.000000 1.635790 
# 
# From -- ./inp_files/4459.got.cif
#   From: 2010.05.17/outbox.cif.g08.bks.cpg/sg180_3_cif.got.tgz:4459.got - 2010.05.20 11:43:55.
