data_PCOD9584377
_publ_section_title
;
Structure prediction by ZEFSAII (Michael W. Deem and Ramdas Pophale) SiO2 
 PCOD9584377
Probable space group: P 64 2 2
;
_chemical_formula_sum "Si O2"
_cell_formula_units_Z 75
_cell_length_a 14.013913
_cell_length_b 14.013913
_cell_length_c 21.758811
_cell_angle_alpha 90.000000
_cell_angle_beta 90.000000
_cell_angle_gamma 120.000000
_cell_volume 3700.706352
_symmetry_space_group_name_H-M "P 64 2 2"
_symmetry_group_IT_number 181
_symmetry_cell_setting 'hexagonal'
loop_
_space_group_symop_operation_xyz
x,y,z
x-y,x,2/3+z
-y,x-y,1/3+z
-x,-y,z
-x+y,-x,2/3+z
y,-x+y,1/3+z
x-y,-y,-z
-x,-x+y,2/3-z
y,x,1/3-z
-y,-x,1/3-z
-x+y,y,-z
x,x-y,2/3-z
loop_
_atom_site_type_symbol
_atom_site_label
_atom_site_fract_x
_atom_site_fract_y
_atom_site_fract_z
Si Si1 0.824589 0.409786 0.761839
Si Si2 0.611665 0.696968 0.851213
Si Si3 0.635404 0.364597 0.666667
Si Si4 0.316743 0.911795 0.049889
Si Si5 0.356516 0.980946 0.624500
Si Si6 0.500000 0.500000 0.400451
Si Si7 0.823577 0.058091 0.290963
Si Si8 0.000000 0.000000 0.666667
O O1 0.797141 0.398571 0.833334
O O2 0.724869 0.379017 0.716615
O O3 0.915806 0.536481 0.741112
O O4 0.878874 0.332245 0.751268
O O5 0.587159 0.793580 0.833334
O O6 0.615974 0.651568 0.784468
O O7 0.516917 0.600459 0.891117
O O8 0.721135 0.752906 0.894140
O O9 0.522914 0.328930 0.703776
O O10 0.189775 0.876922 0.038693
O O11 0.389284 0.000000 0.000000
O O12 0.265777 0.008268 0.649840
O O13 0.398500 0.950961 0.687295
O O14 0.918492 0.026841 0.293935
#
# Coordination Sequence:
#
# PCOD9584377 Si02
#       8
#    12  12   6  12  12   6  12   3
#     4  10  21  39  65  98 131 175 221 259 314 395
#     4   9  20  36  62  91 124 167 213 254 323 382
#     4  12  25  39  60 104 137 171 220 264 322 398
#     4  11  23  42  63  91 133 176 210 270 327 388
#     4   9  18  40  67  87 136 168 211 267 332 374
#     4   8  16  32  58  94 118 174 206 246 316 390
#     4  10  21  43  69  93 123 171 213 279 333 390
#     4  12  24  42  78  94 120 164 236 280 340 386
#
# _framework density 20.266401999999999
#
# number of rings (size 3 to 8) (size 9 to 14) (size 15 to 20)
#    0.000    2.240    2.400    1.200    4.480    2.560 
#    0.000    5.200    0.000    0.000    0.000    0.000 
#    0.000    0.000    0.000    0.000    0.000    0.000 
#
# Total GULP energy -417988.601238 kJ/mol
# GULP energy per Si atom -5573.181350 kJ/mol
# Density = 2.022027 g / cm^3
# Si number density = 20.266402 Si / 1000 Ang^3
#
#
#
# Elastic Constant Matrix: (Units=GPa)
#
#
# Indices 1 2 3 4 5 6 
#
# 1 86.3974 39.0621 43.1440 0.0000 0.0000 0.0000
# 2 39.0621 86.3974 43.1440 0.0000 0.0000 0.0000
# 3 43.1440 43.1440 153.1887 0.0000 0.0000 0.0000
# 4 0.0000 0.0000 0.0000 -1.0485 0.0000 0.0000
# 5 0.0000 0.0000 0.0000 0.0000 -1.0485 0.0000
# 6 0.0000 0.0000 0.0000 0.0000 0.0000 23.6676
#
#
#
# Elastic Compliance Matrix: (Units=1/GPa)
#
#
# Indices 1 2 3 4 5 6 
#
# 1 0.015506 -0.005620 -0.002784 0.000000 0.000000 0.000000
# 2 -0.005620 0.015506 -0.002784 0.000000 0.000000 0.000000
# 3 -0.002784 -0.002784 0.008096 0.000000 0.000000 0.000000
# 4 0.000000 0.000000 0.000000 -0.953782 0.000000 0.000000
# 5 0.000000 0.000000 0.000000 0.000000 -0.953782 0.000000
# 6 0.000000 0.000000 0.000000 0.000000 0.000000 0.042252
#
#
# Mechanical properties :
#
#
# Convention : Reuss Voigt Hill
#
# Bulk Modulus (GPa) = 59.77057 64.07598 61.92327
# Shear Modulus (GPa) = -2.78048 17.68970 7.45461
#
# Velocity S-wave (km/s) = -1.17258 2.95762 1.91997
# Velocity P-wave (km/s) = 5.26528 6.58399 5.96121
#
# Compressibility (1/GPa) = 0.01673064
#
# Stress axis : x y z
#
# Youngs Moduli (GPa) = 64.49225 64.49225 123.51530
#
# Poissons Ratio (x) = 0.36246 0.34389
# Poissons Ratio (y) = 0.36246 0.34389
# Poissons Ratio (z) = 0.17956 0.17956
#
# Static dielectric constant tensor:
#      x y z
#    x 1.752820 0.000000 0.000000 
#    y 0.000000 1.752820 0.000000 
#    z 0.000000 0.000000 1.767790 
# 
# From -- ./inp_files/9131.got.cif
#   From: 2010.05.17/outbox.cif.g08.bks.cpg/sg181_5_cif.got.tgz:9131.got - 2010.05.20 11:51:17.
