data_PCOD9584618
_publ_section_title
;
Structure prediction by ZEFSAII (Michael W. Deem and Ramdas Pophale) SiO2 
 PCOD9584618
Probable space group: P 63 2 2
;
_chemical_formula_sum "Si O2"
_cell_formula_units_Z 40
_cell_length_a 16.611598
_cell_length_b 16.611598
_cell_length_c 6.801012
_cell_angle_alpha 90.000000
_cell_angle_beta 90.000000
_cell_angle_gamma 120.000000
_cell_volume 1625.275535
_symmetry_space_group_name_H-M "P 63 2 2"
_symmetry_group_IT_number 182
_symmetry_cell_setting 'hexagonal'
loop_
_space_group_symop_operation_xyz
x,y,z
x-y,x,1/2+z
-y,x-y,z
-x,-y,1/2+z
-x+y,-x,z
y,-x+y,1/2+z
x-y,-y,-z
-x,-x+y,-z
y,x,-z
-y,-x,1/2-z
-x+y,y,1/2-z
x,x-y,1/2-z
loop_
_atom_site_type_symbol
_atom_site_label
_atom_site_fract_x
_atom_site_fract_y
_atom_site_fract_z
Si Si1 0.102362 0.441900 0.440528
Si Si2 0.675817 0.837909 0.250000
Si Si3 0.699446 0.000000 0.500000
Si Si4 0.639010 0.497174 0.018868
Si Si5 0.333335 0.666667 0.013632
O O1 0.159750 0.387791 0.429469
O O2 0.117046 0.532767 0.555432
O O3 0.120301 0.477378 0.213323
O O4 0.000000 0.366329 0.500000
O O5 0.723411 0.940203 0.347279
O O6 0.674166 0.074206 0.396746
O O7 0.688640 0.435649 0.047028
O O8 0.333334 0.666667 0.250000
#
# Coordination Sequence:
#
# PCOD9584618 Si02
#       5
#    12   6   6  12   4
#     4  10  18  32  54  86 127 169 225 280 343 407
#     4  10  22  38  58  86 126 174 228 296 366 440
#     4  10  20  36  58  90 132 172 242 300 358 424
#     4  10  19  30  51  87 124 182 239 282 327 420
#     4  12  18  30  57  87 132 190 246 270 333 433
#
# _framework density 24.611211000000001
#
# number of rings (size 3 to 8) (size 9 to 14) (size 15 to 20)
#    0.000    1.800    4.500    3.600    2.100    0.000 
#    0.000    6.000    0.000    0.000    0.000    8.400 
#   15.000    0.000    0.000    0.000    0.000    0.000 
#
# Total GULP energy -222843.782788 kJ/mol
# GULP energy per Si atom -5571.094570 kJ/mol
# Density = 2.455520 g / cm^3
# Si number density = 24.611211 Si / 1000 Ang^3
#
#
#
# Elastic Constant Matrix: (Units=GPa)
#
#
# Indices 1 2 3 4 5 6 
#
# 1 157.0089 64.8085 43.5898 0.0000 0.0000 0.0000
# 2 64.8085 157.0074 43.5895 -0.0001 0.0000 0.0000
# 3 43.5898 43.5895 111.5438 0.0000 0.0000 -0.0001
# 4 0.0000 -0.0001 0.0000 45.8423 0.0001 0.0000
# 5 0.0000 0.0000 0.0000 0.0001 45.8422 -0.0001
# 6 0.0000 0.0000 -0.0001 0.0000 -0.0001 46.0996
#
#
#
# Elastic Compliance Matrix: (Units=1/GPa)
#
#
# Indices 1 2 3 4 5 6 
#
# 1 0.008086 -0.002760 -0.002081 0.000000 0.000000 0.000000
# 2 -0.002760 0.008086 -0.002081 0.000000 0.000000 0.000000
# 3 -0.002081 -0.002081 0.010592 0.000000 0.000000 0.000000
# 4 0.000000 0.000000 0.000000 0.021814 0.000000 0.000000
# 5 0.000000 0.000000 0.000000 0.000000 0.021814 0.000000
# 6 0.000000 0.000000 0.000000 0.000000 0.000000 0.021692
#
#
# Mechanical properties :
#
#
# Convention : Reuss Voigt Hill
#
# Bulk Modulus (GPa) = 77.40711 81.05952 79.23332
# Shear Modulus (GPa) = 45.35728 45.79499 45.57613
#
# Velocity S-wave (km/s) = 4.29762 4.31831 4.30797
# Velocity P-wave (km/s) = 7.49308 7.60731 7.55041
#
# Compressibility (1/GPa) = 0.01291871
#
# Stress axis : x y z
#
# Youngs Moduli (GPa) = 123.66871 123.66771 94.41205
#
# Poissons Ratio (x) = 0.34131 0.19651
# Poissons Ratio (y) = 0.34131 0.19651
# Poissons Ratio (z) = 0.25741 0.25741
#
# Static dielectric constant tensor:
#      x y z
#    x 2.035570 0.000000 0.000000 
#    y 0.000000 2.035580 0.000000 
#    z 0.000000 0.000000 2.159830 
# 
# From -- ./inp_files/1390.got.cif
#   From: 2010.05.17/outbox.cif.g08.bks.cpg/sg182_1_cif.got.tgz:1390.got - 2010.05.20 11:58:53.
