data_PCOD9584032
_publ_section_title
;
Structure prediction by ZEFSAII (Michael W. Deem and Ramdas Pophale) SiO2 
 PCOD9584032
Probable space group: P 62 2 2
;
_chemical_formula_sum "Si O2"
_cell_formula_units_Z 54
_cell_length_a 12.742942
_cell_length_b 12.742942
_cell_length_c 19.975235
_cell_angle_alpha 90.000000
_cell_angle_beta 90.000000
_cell_angle_gamma 120.000000
_cell_volume 2809.065991
_symmetry_space_group_name_H-M "P 62 2 2"
_symmetry_group_IT_number 180
_symmetry_cell_setting 'hexagonal'
loop_
_space_group_symop_operation_xyz
x,y,z
x-y,x,1/3+z
-y,x-y,2/3+z
-x,-y,z
-x+y,-x,1/3+z
y,-x+y,2/3+z
x-y,-y,-z
-x,-x+y,1/3-z
y,x,2/3-z
-y,-x,2/3-z
-x+y,y,-z
x,x-y,1/3-z
loop_
_atom_site_type_symbol
_atom_site_label
_atom_site_fract_x
_atom_site_fract_y
_atom_site_fract_z
Si Si1 0.308662 0.691339 0.333334
Si Si2 0.000000 0.000000 0.833334
Si Si3 0.418290 0.857788 0.221266
Si Si4 0.806235 0.027692 0.079037
Si Si5 0.739485 0.521694 0.771866
Si Si6 0.000000 0.500000 0.166667
Si Si7 0.610390 0.805195 0.166667
O O1 0.350181 0.812877 0.291362
O O2 0.418485 0.719208 0.382662
O O3 0.967918 0.886729 0.784935
O O4 0.313740 0.791881 0.166233
O O5 0.518650 0.817437 0.216365
O O6 0.500000 0.000000 0.211457
O O7 0.805626 0.152943 0.084298
O O8 0.692717 0.923157 0.121391
O O9 0.804722 0.000000 0.000000
O O10 0.619936 0.527507 0.792061
#
# Coordination Sequence:
#
# PCOD9584032 Si02
#       7
#     6   3  12  12  12   3   6
#     4  12  24  42  67 104 132 181 234 284 344 442
#     4  10  24  48  66  92 148 170 228 298 344 410
#     4  12  24  43  66  97 138 175 223 290 356 409
#     4  11  24  43  71 101 131 186 234 286 351 423
#     4  12  25  43  70  98 140 183 231 289 357 415
#     4  12  24  48  66  98 150 188 230 280 364 438
#     4  11  21  43  66  97 137 169 228 294 340 413
#
# _framework density 19.223471
#
# number of rings (size 3 to 8) (size 9 to 14) (size 15 to 20)
#    0.000    0.444    6.667    2.333    1.556    0.000 
#    0.000    0.000    0.000    0.000    0.000    0.000 
#    0.000    0.000    0.000    0.000    0.000    0.000 
#
# Total GULP energy -301538.119128 kJ/mol
# GULP energy per Si atom -5584.039243 kJ/mol
# Density = 1.917972 g / cm^3
# Si number density = 19.223471 Si / 1000 Ang^3
#
#
#
# Elastic Constant Matrix: (Units=GPa)
#
#
# Indices 1 2 3 4 5 6 
#
# 1 121.7605 66.3171 50.4756 0.0000 0.0000 0.0000
# 2 66.3171 121.7605 50.4756 0.0000 0.0000 0.0000
# 3 50.4756 50.4756 129.8786 0.0000 0.0000 0.0000
# 4 0.0000 0.0000 0.0000 18.3372 0.0000 0.0000
# 5 0.0000 0.0000 0.0000 0.0000 18.3372 0.0000
# 6 0.0000 0.0000 0.0000 0.0000 0.0000 27.7217
#
#
#
# Elastic Compliance Matrix: (Units=1/GPa)
#
#
# Indices 1 2 3 4 5 6 
#
# 1 0.012377 -0.005659 -0.002611 0.000000 0.000000 0.000000
# 2 -0.005659 0.012377 -0.002611 0.000000 0.000000 0.000000
# 3 -0.002611 -0.002611 0.009729 0.000000 0.000000 0.000000
# 4 0.000000 0.000000 0.000000 0.054534 0.000000 0.000000
# 5 0.000000 0.000000 0.000000 0.000000 0.054534 0.000000
# 6 0.000000 0.000000 0.000000 0.000000 0.000000 0.036073
#
#
# Mechanical properties :
#
#
# Convention : Reuss Voigt Hill
#
# Bulk Modulus (GPa) = 78.60570 78.65960 78.63265
# Shear Modulus (GPa) = 24.31584 26.62130 25.46857
#
# Velocity S-wave (km/s) = 3.56041 3.72537 3.64382
# Velocity P-wave (km/s) = 7.60797 7.71439 7.66137
#
# Compressibility (1/GPa) = 0.01272172
#
# Stress axis : x y z
#
# Youngs Moduli (GPa) = 80.79226 80.79226 102.78565
#
# Poissons Ratio (x) = 0.45720 0.26838
# Poissons Ratio (y) = 0.45720 0.26838
# Poissons Ratio (z) = 0.21095 0.21095
#
# Static dielectric constant tensor:
#      x y z
#    x 1.674000 0.000000 0.000000 
#    y 0.000000 1.674000 0.000000 
#    z 0.000000 0.000000 1.710960 
# 
# From -- ./inp_files/8961.got.cif
#   From: 2010.05.17/outbox.cif.g08.bks.cpg/sg180_5_cif.got.tgz:8961.got - 2010.05.20 11:43:55.
