data_PCOD9584822
_publ_section_title
;
Structure prediction by ZEFSAII (Michael W. Deem and Ramdas Pophale) SiO2 
 PCOD9584822
Probable space group: P 63 2 2
;
_chemical_formula_sum "Si O2"
_cell_formula_units_Z 46
_cell_length_a 15.902162
_cell_length_b 15.902162
_cell_length_c 9.426912
_cell_angle_alpha 90.000000
_cell_angle_beta 90.000000
_cell_angle_gamma 120.000000
_cell_volume 2064.488326
_symmetry_space_group_name_H-M "P 63 2 2"
_symmetry_group_IT_number 182
_symmetry_cell_setting 'hexagonal'
loop_
_space_group_symop_operation_xyz
x,y,z
x-y,x,1/2+z
-y,x-y,z
-x,-y,1/2+z
-x+y,-x,z
y,-x+y,1/2+z
x-y,-y,-z
-x,-x+y,-z
y,x,-z
-y,-x,1/2-z
-x+y,y,1/2-z
x,x-y,1/2-z
loop_
_atom_site_type_symbol
_atom_site_label
_atom_site_fract_x
_atom_site_fract_y
_atom_site_fract_z
Si Si1 0.896521 0.298259 0.263657
Si Si2 0.138403 0.478306 0.038153
Si Si3 0.456254 0.000000 0.500000
Si Si4 0.208832 0.948208 0.149526
Si Si5 0.666667 0.333334 0.581068
O O1 0.786700 0.213301 0.250000
O O2 0.932716 0.365901 0.398950
O O3 0.964912 0.251872 0.245830
O O4 0.905405 0.355473 0.119931
O O5 0.077362 0.527722 0.091120
O O6 0.115481 0.376507 0.108555
O O7 0.250364 0.559945 0.034590
O O8 0.116675 0.883326 0.250000
O O9 0.206091 0.000000 0.000000
O O10 0.666668 0.333334 0.750000
#
# Coordination Sequence:
#
# PCOD9584822 Si02
#       5
#    12  12   6  12   4
#     4  11  25  43  68  99 138 191 253 307 385 445
#     4  11  24  43  60 102 141 196 246 316 361 446
#     4  12  24  40  72  92 146 198 254 308 382 450
#     4  10  23  43  68  96 143 185 251 311 386 462
#     4  12  27  36  70 101 148 201 265 296 373 438
#
# _framework density 22.281549999999999
#
# number of rings (size 3 to 8) (size 9 to 14) (size 15 to 20)
#    0.000    1.043    3.913    3.130   14.609    0.000 
#    0.000    2.609    0.000    0.522    0.000    0.000 
#    0.000    0.000    0.000    0.000    0.000    0.000 
#
# Total GULP energy -256696.466797 kJ/mol
# GULP energy per Si atom -5580.357974 kJ/mol
# Density = 2.223084 g / cm^3
# Si number density = 22.281550 Si / 1000 Ang^3
#
#
#
# Elastic Constant Matrix: (Units=GPa)
#
#
# Indices 1 2 3 4 5 6 
#
# 1 60.0800 47.2101 40.3741 0.0006 0.0013 -0.0018
# 2 47.2101 60.0794 40.3735 -0.0004 -0.0012 0.0008
# 3 40.3741 40.3735 112.6517 0.0000 -0.0004 0.0001
# 4 0.0006 -0.0004 0.0000 24.2907 -0.0004 0.0013
# 5 0.0013 -0.0012 -0.0004 -0.0004 24.2877 -0.0005
# 6 -0.0018 0.0008 0.0001 0.0013 -0.0005 6.4409
#
#
#
# Elastic Compliance Matrix: (Units=1/GPa)
#
#
# Indices 1 2 3 4 5 6 
#
# 1 0.045233 -0.032470 -0.004574 -0.000002 -0.000004 0.000017
# 2 -0.032470 0.045233 -0.004574 0.000002 0.000004 -0.000015
# 3 -0.004574 -0.004574 0.012156 0.000000 0.000000 -0.000001
# 4 -0.000002 0.000002 0.000000 0.041168 0.000001 -0.000008
# 5 -0.000004 0.000004 0.000000 0.000001 0.041173 0.000003
# 6 0.000017 -0.000015 -0.000001 -0.000008 0.000003 0.155259
#
#
# Mechanical properties :
#
#
# Convention : Reuss Voigt Hill
#
# Bulk Modulus (GPa) = 51.58616 54.30294 52.94455
# Shear Modulus (GPa) = 11.63009 17.99408 14.81209
#
# Velocity S-wave (km/s) = 2.28712 2.84487 2.58111
# Velocity P-wave (km/s) = 5.49334 5.93424 5.71804
#
# Compressibility (1/GPa) = 0.01938504
#
# Stress axis : x y z
#
# Youngs Moduli (GPa) = 22.10785 22.10777 82.26586
#
# Poissons Ratio (x) = 0.71783 0.37632
# Poissons Ratio (y) = 0.71783 0.37629
# Poissons Ratio (z) = 0.10113 0.10112
#
# Static dielectric constant tensor:
#      x y z
#    x 1.981990 0.000000 0.000000 
#    y 0.000000 1.981990 0.000000 
#    z 0.000000 0.000000 1.832920 
# 
# From -- ./inp_files/1499.got.cif
#   From: 2010.05.17/outbox.cif.g08.bks.cpg/sg182_1_cif.got.tgz:1499.got - 2010.05.20 11:58:53.
