data_PCOD9584342
_publ_section_title
;
Structure prediction by ZEFSAII (Michael W. Deem and Ramdas Pophale) SiO2 
 PCOD9584342
Probable space group: P 64 2 2
;
_chemical_formula_sum "Si O2"
_cell_formula_units_Z 48
_cell_length_a 16.542276
_cell_length_b 16.542276
_cell_length_c 9.178901
_cell_angle_alpha 90.000000
_cell_angle_beta 90.000000
_cell_angle_gamma 120.000000
_cell_volume 2175.263349
_symmetry_space_group_name_H-M "P 64 2 2"
_symmetry_group_IT_number 181
_symmetry_cell_setting 'hexagonal'
loop_
_space_group_symop_operation_xyz
x,y,z
x-y,x,2/3+z
-y,x-y,1/3+z
-x,-y,z
-x+y,-x,2/3+z
y,-x+y,1/3+z
x-y,-y,-z
-x,-x+y,2/3-z
y,x,1/3-z
-y,-x,1/3-z
-x+y,y,-z
x,x-y,2/3-z
loop_
_atom_site_type_symbol
_atom_site_label
_atom_site_fract_x
_atom_site_fract_y
_atom_site_fract_z
Si Si1 0.212777 0.859897 0.926757
Si Si2 0.327327 0.570536 0.807154
Si Si3 0.047161 0.318130 0.576114
Si Si4 0.515704 0.424208 0.002121
O O1 0.249601 0.788397 0.878884
O O2 0.247570 0.940092 0.802282
O O3 0.260020 0.904553 0.083619
O O4 0.105057 0.816873 0.981518
O O5 0.392418 0.607583 0.666667
O O6 0.298473 0.649237 0.833334
O O7 0.401225 0.582173 0.928995
O O8 0.070793 0.411493 0.661071
O O9 0.500000 0.500000 0.916817
O O10 0.545378 0.454623 0.166667
#
# Coordination Sequence:
#
# PCOD9584342 Si02
#       4
#    12  12  12  12
#     4  10  21  37  63  89 121 171 238 300 353 424
#     4  12  24  38  58  88 125 174 244 314 349 409
#     4  10  20  39  61  88 121 170 240 293 360 422
#     4  11  23  40  61  83 128 179 241 301 362 411
#
# _framework density 22.066292000000001
#
# number of rings (size 3 to 8) (size 9 to 14) (size 15 to 20)
#    0.000    1.250    5.000    1.500    0.000    4.500 
#    0.000    0.000    0.000    0.000    0.000    0.000 
#    0.000    0.000    0.000    0.000  190.000  441.500 
#
# Total GULP energy -267213.975936 kJ/mol
# GULP energy per Si atom -5566.957832 kJ/mol
# Density = 2.201607 g / cm^3
# Si number density = 22.066292 Si / 1000 Ang^3
#
#
#
# Elastic Constant Matrix: (Units=GPa)
#
#
# Indices 1 2 3 4 5 6 
#
# 1 119.5427 79.8997 56.2651 0.0000 0.0000 0.0000
# 2 79.8997 119.5427 56.2651 0.0000 0.0000 0.0000
# 3 56.2651 56.2651 112.7840 0.0000 0.0000 0.0000
# 4 0.0000 0.0000 0.0000 -198.6635 0.0000 0.0000
# 5 0.0000 0.0000 0.0000 0.0000 -198.6635 0.0000
# 6 0.0000 0.0000 0.0000 0.0000 0.0000 19.8215
#
#
#
# Elastic Compliance Matrix: (Units=1/GPa)
#
#
# Indices 1 2 3 4 5 6 
#
# 1 0.016102 -0.009123 -0.003481 0.000000 0.000000 0.000000
# 2 -0.009123 0.016102 -0.003481 0.000000 0.000000 0.000000
# 3 -0.003481 -0.003481 0.012340 0.000000 0.000000 0.000000
# 4 0.000000 0.000000 0.000000 -0.005034 0.000000 0.000000
# 5 0.000000 0.000000 0.000000 0.000000 -0.005034 0.000000
# 6 0.000000 0.000000 0.000000 0.000000 0.000000 0.050450
#
#
# Mechanical properties :
#
#
# Convention : Reuss Voigt Hill
#
# Bulk Modulus (GPa) = 80.83214 81.85879 81.34547
# Shear Modulus (GPa) = 41.24666 -64.87178 -11.81256
#
# Velocity S-wave (km/s) = 4.32813 -5.42793 -2.31621
# Velocity P-wave (km/s) = 7.85417 1.45118 5.45812
#
# Compressibility (1/GPa) = 0.01237132
#
# Stress axis : x y z
#
# Youngs Moduli (GPa) = 62.10539 62.10539 81.03794
#
# Poissons Ratio (x) = 0.56662 0.28211
# Poissons Ratio (y) = 0.56662 0.28211
# Poissons Ratio (z) = 0.21620 0.21620
#
# Static dielectric constant tensor:
#      x y z
#    x 2.009880 0.000000 0.000000 
#    y 0.000000 2.009880 0.000000 
#    z 0.000000 0.000000 1.821020 
# 
# From -- ./inp_files/2619.got.cif
#   From: 2010.05.17/outbox.cif.g08.bks.cpg/sg181_2_cif.got.tgz:2619.got - 2010.05.20 11:51:17.
