data_PCOD9584110
_publ_section_title
;
Structure prediction by ZEFSAII (Michael W. Deem and Ramdas Pophale) SiO2 
 PCOD9584110
Probable space group: P 62 2 2
;
_chemical_formula_sum "Si O2"
_cell_formula_units_Z 36
_cell_length_a 12.249780
_cell_length_b 12.249780
_cell_length_c 13.992573
_cell_angle_alpha 90.000000
_cell_angle_beta 90.000000
_cell_angle_gamma 120.000000
_cell_volume 1818.380608
_symmetry_space_group_name_H-M "P 62 2 2"
_symmetry_group_IT_number 180
_symmetry_cell_setting 'hexagonal'
loop_
_space_group_symop_operation_xyz
x,y,z
x-y,x,1/3+z
-y,x-y,2/3+z
-x,-y,z
-x+y,-x,1/3+z
y,-x+y,2/3+z
x-y,-y,-z
-x,-x+y,1/3-z
y,x,2/3-z
-y,-x,2/3-z
-x+y,y,-z
x,x-y,1/3-z
loop_
_atom_site_type_symbol
_atom_site_label
_atom_site_fract_x
_atom_site_fract_y
_atom_site_fract_z
Si Si1 0.349066 0.416577 0.744228
Si Si2 0.075762 0.688397 0.862800
Si Si3 0.478927 0.835348 0.898031
O O1 0.500000 0.500000 0.737582
O O2 0.324662 0.324662 0.833334
O O3 0.310603 0.356256 0.640115
O O4 0.283711 0.500647 0.764352
O O5 0.170566 0.829435 0.833334
O O6 0.151271 0.610272 0.847833
O O7 0.955352 0.614216 0.794897
O O8 0.422845 0.845690 0.000000
#
# Coordination Sequence:
#
# PCOD9584110 Si02
#       3
#    12  12  12
#     4  11  25  38  55  93 135 175 220 286 357 413
#     4  11  22  40  66  98 129 180 229 285 352 429
#     4  11  23  41  66  96 136 182 234 284 352 436
#
# _framework density 19.797836
#
# number of rings (size 3 to 8) (size 9 to 14) (size 15 to 20)
#    0.000    1.000    6.667    2.000    4.667    1.333 
#    0.000    0.000    0.000    1.000    0.000    4.667 
#    0.000    0.000    0.000    0.000    0.000    0.000 
#
# Total GULP energy -200804.661986 kJ/mol
# GULP energy per Si atom -5577.907277 kJ/mol
# Density = 1.975278 g / cm^3
# Si number density = 19.797836 Si / 1000 Ang^3
#
#
#
# Elastic Constant Matrix: (Units=GPa)
#
#
# Indices 1 2 3 4 5 6 
#
# 1 109.7277 28.7675 40.0883 0.0000 0.0000 0.0000
# 2 28.7675 109.7277 40.0883 0.0000 0.0000 0.0000
# 3 40.0883 40.0883 182.5815 0.0000 0.0000 0.0000
# 4 0.0000 0.0000 0.0000 21.6171 0.0000 0.0000
# 5 0.0000 0.0000 0.0000 0.0000 21.6171 0.0000
# 6 0.0000 0.0000 0.0000 0.0000 0.0000 40.4801
#
#
#
# Elastic Compliance Matrix: (Units=1/GPa)
#
#
# Indices 1 2 3 4 5 6 
#
# 1 0.010312 -0.002040 -0.001816 0.000000 0.000000 0.000000
# 2 -0.002040 0.010312 -0.001816 0.000000 0.000000 0.000000
# 3 -0.001816 -0.001816 0.006275 0.000000 0.000000 0.000000
# 4 0.000000 0.000000 0.000000 0.046260 0.000000 0.000000
# 5 0.000000 0.000000 0.000000 0.000000 0.046260 0.000000
# 6 0.000000 0.000000 0.000000 0.000000 0.000000 0.024703
#
#
# Mechanical properties :
#
#
# Convention : Reuss Voigt Hill
#
# Bulk Modulus (GPa) = 64.29420 68.88057 66.58739
# Shear Modulus (GPa) = 31.12351 36.28239 33.70295
#
# Velocity S-wave (km/s) = 3.96923 4.28558 4.13044
# Velocity P-wave (km/s) = 7.31794 7.70427 7.51359
#
# Compressibility (1/GPa) = 0.01555350
#
# Stress axis : x y z
#
# Youngs Moduli (GPa) = 96.97614 96.97614 159.37387
#
# Poissons Ratio (x) = 0.19782 0.28946
# Poissons Ratio (y) = 0.19782 0.28946
# Poissons Ratio (z) = 0.17613 0.17613
#
# Static dielectric constant tensor:
#      x y z
#    x 1.727660 0.000000 0.000000 
#    y 0.000000 1.727660 0.000000 
#    z 0.000000 0.000000 1.796710 
# 
# From -- ./inp_files/5428.got.cif
#   From: 2010.05.17/outbox.cif.g08.bks.cpg/sg180_3_cif.got.tgz:5428.got - 2010.05.20 11:43:55.
