data_PCOD9584391
_publ_section_title
;
Structure prediction by ZEFSAII (Michael W. Deem and Ramdas Pophale) SiO2 
 PCOD9584391
Probable space group: P 64 2 2
;
_chemical_formula_sum "Si O2"
_cell_formula_units_Z 84
_cell_length_a 17.750599
_cell_length_b 17.750599
_cell_length_c 15.439156
_cell_angle_alpha 90.000000
_cell_angle_beta 90.000000
_cell_angle_gamma 120.000000
_cell_volume 4212.890907
_symmetry_space_group_name_H-M "P 64 2 2"
_symmetry_group_IT_number 181
_symmetry_cell_setting 'hexagonal'
loop_
_space_group_symop_operation_xyz
x,y,z
x-y,x,2/3+z
-y,x-y,1/3+z
-x,-y,z
-x+y,-x,2/3+z
y,-x+y,1/3+z
x-y,-y,-z
-x,-x+y,2/3-z
y,x,1/3-z
-y,-x,1/3-z
-x+y,y,-z
x,x-y,2/3-z
loop_
_atom_site_type_symbol
_atom_site_label
_atom_site_fract_x
_atom_site_fract_y
_atom_site_fract_z
Si Si1 0.317754 0.817232 0.797961
Si Si2 0.701805 0.935548 0.432117
Si Si3 0.367351 0.269997 0.814072
Si Si4 0.485931 0.343626 0.145243
Si Si5 0.407248 0.500667 0.380706
Si Si6 0.310890 0.245539 0.422114
Si Si7 0.896894 0.365732 0.348126
O O1 0.242248 0.720604 0.823076
O O2 0.404305 0.833640 0.749596
O O3 0.285086 0.870695 0.741106
O O4 0.337266 0.870217 0.887743
O O5 0.605507 0.907236 0.470316
O O6 0.716233 0.853876 0.431244
O O7 0.718066 0.979128 0.337998
O O8 0.767864 0.000000 0.500000
O O9 0.347101 0.173551 0.833334
O O10 0.434821 0.345566 0.879026
O O11 0.283662 0.280978 0.832689
O O12 0.416078 0.291635 0.721533
O O13 0.557749 0.442252 0.166667
O O14 0.476504 0.353075 0.042157
O O15 0.500000 0.500000 0.374219
O O16 0.857077 0.428539 0.333334
O O17 0.000000 0.423711 0.333334
#
# Coordination Sequence:
#
# PCOD9584391 Si02
#       7
#    12  12  12  12  12  12  12
#     4  11  22  42  60  82 122 171 210 253 328 382
#     4  10  22  40  67  93 124 165 212 255 327 395
#     4  12  24  39  63  96 122 161 219 271 314 378
#     4  11  26  39  59  94 124 162 212 274 320 381
#     4  12  23  41  67  87 126 175 218 269 324 386
#     4  10  21  41  63  91 129 163 201 268 319 384
#     4  11  20  37  60  81 114 162 208 246 304 378
#
# _framework density 19.938801999999999
#
# number of rings (size 3 to 8) (size 9 to 14) (size 15 to 20)
#    0.000    1.000    4.286    2.571    2.000    3.429 
#    2.571    0.000    0.000    0.429    0.000    2.000 
#    0.000    0.000    0.000    0.000    0.000    0.000 
#
# Total GULP energy -468173.635266 kJ/mol
# GULP energy per Si atom -5573.495658 kJ/mol
# Density = 1.989342 g / cm^3
# Si number density = 19.938802 Si / 1000 Ang^3
#
#
#
# Elastic Constant Matrix: (Units=GPa)
#
#
# Indices 1 2 3 4 5 6 
#
# 1 62.1429 20.1483 7.3576 0.0000 0.0000 0.0000
# 2 20.1483 62.1429 7.3576 0.0000 0.0000 0.0000
# 3 7.3576 7.3576 88.7814 0.0000 0.0000 0.0000
# 4 0.0000 0.0000 0.0000 24.6237 0.0000 0.0000
# 5 0.0000 0.0000 0.0000 0.0000 24.6237 0.0000
# 6 0.0000 0.0000 0.0000 0.0000 0.0000 20.9973
#
#
#
# Elastic Compliance Matrix: (Units=1/GPa)
#
#
# Indices 1 2 3 4 5 6 
#
# 1 0.018074 -0.005739 -0.001022 0.000000 0.000000 0.000000
# 2 -0.005739 0.018074 -0.001022 0.000000 0.000000 0.000000
# 3 -0.001022 -0.001022 0.011433 0.000000 0.000000 0.000000
# 4 0.000000 0.000000 0.000000 0.040611 0.000000 0.000000
# 5 0.000000 0.000000 0.000000 0.000000 0.040611 0.000000
# 6 0.000000 0.000000 0.000000 0.000000 0.000000 0.047625
#
#
# Mechanical properties :
#
#
# Convention : Reuss Voigt Hill
#
# Bulk Modulus (GPa) = 31.23666 31.42160 31.32913
# Shear Modulus (GPa) = 24.67112 25.92919 25.30015
#
# Velocity S-wave (km/s) = 3.52140 3.61007 3.56601
# Velocity P-wave (km/s) = 5.67750 5.75934 5.71857
#
# Compressibility (1/GPa) = 0.03201366
#
# Stress axis : x y z
#
# Youngs Moduli (GPa) = 55.32909 55.32909 87.46576
#
# Poissons Ratio (x) = 0.31753 0.08941
# Poissons Ratio (y) = 0.31753 0.08941
# Poissons Ratio (z) = 0.05656 0.05656
#
# Static dielectric constant tensor:
#      x y z
#    x 1.758640 0.000000 0.000000 
#    y 0.000000 1.758640 0.000000 
#    z 0.000000 0.000000 1.948270 
# 
# From -- ./inp_files/6484.got.cif
#   From: 2010.05.17/outbox.cif.g08.bks.cpg/sg181_4_cif.got.tgz:6484.got - 2010.05.20 11:51:17.
