data_PCOD9584958
_publ_section_title
;
Structure prediction by ZEFSAII (Michael W. Deem and Ramdas Pophale) SiO2 
 PCOD9584958
Probable space group: P 6 M M
;
_chemical_formula_sum "Si O2"
_cell_formula_units_Z 96
_cell_length_a 23.910865
_cell_length_b 23.910865
_cell_length_c 11.832318
_cell_angle_alpha 90.000000
_cell_angle_beta 90.000000
_cell_angle_gamma 120.000000
_cell_volume 5858.562125
_symmetry_space_group_name_H-M "P 6 M M"
_symmetry_group_IT_number 183
_symmetry_cell_setting 'hexagonal'
loop_
_space_group_symop_operation_xyz
x,y,z
x-y,x,z
-y,x-y,z
-x,-y,z
-x+y,-x,z
y,-x+y,z
-x+y,y,z
x,x-y,z
-y,-x,z
y,x,z
x-y,-y,z
-x,-x+y,z
loop_
_atom_site_type_symbol
_atom_site_label
_atom_site_fract_x
_atom_site_fract_y
_atom_site_fract_z
Si Si1 0.798709 0.333979 0.278360
Si Si2 0.615943 0.692075 0.658910
Si Si3 0.927484 0.727741 0.305114
Si Si4 0.603511 0.528536 0.854241
Si Si5 0.700895 0.171296 0.039042
Si Si6 0.862717 0.271582 0.416233
Si Si7 0.724748 0.925290 0.813235
Si Si8 0.072816 0.749558 0.065698
O O1 0.801571 0.400786 0.304418
O O2 0.727260 0.272741 0.300088
O O3 0.813361 0.330109 0.146200
O O4 0.849600 0.322261 0.349202
O O5 0.655460 0.655460 0.631315
O O6 0.558287 0.645531 0.741951
O O7 0.592726 0.708250 0.544132
O O8 0.664831 0.755119 0.731099
O O9 0.870592 0.741183 0.341333
O O10 0.912060 0.658754 0.356419
O O11 0.000000 0.781134 0.336478
O O12 0.923986 0.717890 0.169602
O O13 0.539831 0.460170 0.834742
O O14 0.578337 0.578337 0.888828
O O15 0.648664 0.521586 0.946585
O O16 0.760828 0.239173 0.996071
O O17 0.731214 0.127905 0.081388
O O18 0.794842 0.205158 0.413899
O O19 0.747351 0.873676 0.793768
O O20 0.699935 0.918860 0.942534
O O21 0.777837 0.000000 0.795761
O O22 0.000000 0.688667 0.068194
#
# Coordination Sequence:
#
# PCOD9584958 Si02
#       8
#    12  12  12  12  12  12  12  12
#     4  10  21  36  54  75 100 131 167 209 257 306
#     4  10  20  33  50  73  99 132 167 205 253 301
#     4  10  19  32  51  75 105 136 166 205 251 297
#     4  10  21  36  52  73 103 136 167 200 245 302
#     4  11  19  31  53  78 103 130 166 206 248 298
#     4  10  20  34  52  74  98 128 168 213 254 297
#     4  10  19  31  50  76 104 133 167 207 250 296
#     4  10  18  29  49  76 105 131 160 203 252 298
#
# _framework density 16.386272999999999
#
# number of rings (size 3 to 8) (size 9 to 14) (size 15 to 20)
#    0.000    1.875    2.500    2.750    0.000    1.000 
#    0.000    0.000    0.000    3.875    0.000    0.875 
#    0.000    3.000    0.000    4.000    0.000    0.000 
#
# Total GULP energy -535465.579164 kJ/mol
# GULP energy per Si atom -5577.766450 kJ/mol
# Density = 1.634898 g / cm^3
# Si number density = 16.386273 Si / 1000 Ang^3
#
#
#
# Elastic Constant Matrix: (Units=GPa)
#
#
# Indices 1 2 3 4 5 6 
#
# 1 89.7670 49.9803 32.2808 0.0000 0.0000 0.0000
# 2 49.9803 89.7670 32.2808 0.0000 0.0000 0.0000
# 3 32.2808 32.2808 73.5110 0.0000 0.0000 0.0000
# 4 0.0000 0.0000 0.0000 12.9529 0.0000 0.0000
# 5 0.0000 0.0000 0.0000 0.0000 12.9529 0.0000
# 6 0.0000 0.0000 0.0000 0.0000 0.0000 19.8934
#
#
#
# Elastic Compliance Matrix: (Units=1/GPa)
#
#
# Indices 1 2 3 4 5 6 
#
# 1 0.017055 -0.008079 -0.003942 0.000000 0.000000 0.000000
# 2 -0.008079 0.017055 -0.003942 0.000000 0.000000 0.000000
# 3 -0.003942 -0.003942 0.017066 0.000000 0.000000 0.000000
# 4 0.000000 0.000000 0.000000 0.077203 0.000000 0.000000
# 5 0.000000 0.000000 0.000000 0.000000 0.077203 0.000000
# 6 0.000000 0.000000 0.000000 0.000000 0.000000 0.050268
#
#
# Mechanical properties :
#
#
# Convention : Reuss Voigt Hill
#
# Bulk Modulus (GPa) = 51.94458 53.56986 52.75722
# Shear Modulus (GPa) = 16.99566 18.39337 17.69451
#
# Velocity S-wave (km/s) = 3.22404 3.35399 3.28965
# Velocity P-wave (km/s) = 6.75486 6.91100 6.83337
#
# Compressibility (1/GPa) = 0.01925128
#
# Stress axis : x y z
#
# Youngs Moduli (GPa) = 58.63219 58.63219 58.59766
#
# Poissons Ratio (x) = 0.47366 0.23099
# Poissons Ratio (y) = 0.47366 0.23099
# Poissons Ratio (z) = 0.23113 0.23113
#
# Static dielectric constant tensor:
#      x y z
#    x 1.549860 0.000000 0.000000 
#    y 0.000000 1.549860 0.000000 
#    z 0.000000 0.000000 1.547020 
# 
# From -- ./inp_files/2056.got.cif
#   From: 2010.05.17/outbox.cif.g08.bks.cpg/sg183_2_cif.got.tgz:2056.got - 2010.05.20 12:02:58.
