data_PCOD9584082
_publ_section_title
;
Structure prediction by ZEFSAII (Michael W. Deem and Ramdas Pophale) SiO2 
 PCOD9584082
Probable space group: P 62 2 2
;
_chemical_formula_sum "Si O2"
_cell_formula_units_Z 24
_cell_length_a 16.212121
_cell_length_b 16.212121
_cell_length_c 5.021070
_cell_angle_alpha 90.000000
_cell_angle_beta 90.000000
_cell_angle_gamma 120.000000
_cell_volume 1142.895652
_symmetry_space_group_name_H-M "P 62 2 2"
_symmetry_group_IT_number 180
_symmetry_cell_setting 'hexagonal'
loop_
_space_group_symop_operation_xyz
x,y,z
x-y,x,1/3+z
-y,x-y,2/3+z
-x,-y,z
-x+y,-x,1/3+z
y,-x+y,2/3+z
x-y,-y,-z
-x,-x+y,1/3-z
y,x,2/3-z
-y,-x,2/3-z
-x+y,y,-z
x,x-y,1/3-z
loop_
_atom_site_type_symbol
_atom_site_label
_atom_site_fract_x
_atom_site_fract_y
_atom_site_fract_z
Si Si1 0.527417 0.359911 0.090854
Si Si2 0.895533 0.217873 0.079483
O O1 0.566384 0.433617 0.333334
O O2 0.540244 0.270122 0.166667
O O3 0.588596 0.411405 0.833334
O O4 0.416339 0.312771 0.022229
O O5 0.825527 0.174474 0.333334
O O6 0.000000 0.243993 0.166667
O O7 0.854456 0.145545 0.833334
#
# Coordination Sequence:
#
# PCOD9584082 Si02
#       2
#    12  12
#     4  11  21  35  57  86 124 169 211 250 294 350
#     4  11  24  43  66  93 125 166 212 264 328 386
#
# _framework density 20.999295
#
# number of rings (size 3 to 8) (size 9 to 14) (size 15 to 20)
#    0.000    1.000    0.000   10.500    0.000    1.000 
#    0.000    7.500    0.000    7.500    0.000    0.000 
#    0.000    0.000    0.000    0.000    0.000    0.000 
#
# Total GULP energy -134403.300865 kJ/mol
# GULP energy per Si atom -5600.137536 kJ/mol
# Density = 2.095150 g / cm^3
# Si number density = 20.999295 Si / 1000 Ang^3
#
#
#
# Elastic Constant Matrix: (Units=GPa)
#
#
# Indices 1 2 3 4 5 6 
#
# 1 62.8899 53.2560 49.1277 0.0000 0.0000 0.0000
# 2 53.2560 62.8899 49.1277 0.0000 0.0000 0.0000
# 3 49.1277 49.1277 178.3309 0.0000 0.0000 0.0000
# 4 0.0000 0.0000 0.0000 36.4354 0.0000 0.0000
# 5 0.0000 0.0000 0.0000 0.0000 36.4354 0.0000
# 6 0.0000 0.0000 0.0000 0.0000 0.0000 4.8169
#
#
#
# Elastic Compliance Matrix: (Units=1/GPa)
#
#
# Indices 1 2 3 4 5 6 
#
# 1 0.057513 -0.046287 -0.003093 0.000000 0.000000 0.000000
# 2 -0.046287 0.057513 -0.003093 0.000000 0.000000 0.000000
# 3 -0.003093 -0.003093 0.007312 0.000000 0.000000 0.000000
# 4 0.000000 0.000000 0.000000 0.027446 0.000000 0.000000
# 5 0.000000 0.000000 0.000000 0.000000 0.027446 0.000000
# 6 0.000000 0.000000 0.000000 0.000000 0.000000 0.207601
#
#
# Mechanical properties :
#
#
# Convention : Reuss Voigt Hill
#
# Bulk Modulus (GPa) = 57.49375 67.45929 62.47652
# Shear Modulus (GPa) = 10.08934 25.71083 17.90009
#
# Velocity S-wave (km/s) = 2.19432 3.50289 2.92278
# Velocity P-wave (km/s) = 5.81880 6.96811 6.41923
#
# Compressibility (1/GPa) = 0.01739319
#
# Stress axis : x y z
#
# Youngs Moduli (GPa) = 17.38731 17.38731 136.77061
#
# Poissons Ratio (x) = 0.80481 0.42298
# Poissons Ratio (y) = 0.80481 0.42298
# Poissons Ratio (z) = 0.05377 0.05377
#
# Static dielectric constant tensor:
#      x y z
#    x 1.768160 0.000000 0.000000 
#    y 0.000000 1.768160 0.000000 
#    z 0.000000 0.000000 1.739200 
# 
# From -- ./inp_files/136.got.cif
#   From: 2010.05.17/outbox.cif.g08.bks.cpg/sg180_1_cif.got.tgz:136.got - 2010.05.20 11:43:55.
