data_PCOD9584348
_publ_section_title
;
Structure prediction by ZEFSAII (Michael W. Deem and Ramdas Pophale) SiO2 
 PCOD9584348
Probable space group: P 64 2 2
;
_chemical_formula_sum "Si O2"
_cell_formula_units_Z 69
_cell_length_a 26.252271
_cell_length_b 26.252271
_cell_length_c 6.117688
_cell_angle_alpha 90.000000
_cell_angle_beta 90.000000
_cell_angle_gamma 120.000000
_cell_volume 3651.335282
_symmetry_space_group_name_H-M "P 64 2 2"
_symmetry_group_IT_number 181
_symmetry_cell_setting 'hexagonal'
loop_
_space_group_symop_operation_xyz
x,y,z
x-y,x,2/3+z
-y,x-y,1/3+z
-x,-y,z
-x+y,-x,2/3+z
y,-x+y,1/3+z
x-y,-y,-z
-x,-x+y,2/3-z
y,x,1/3-z
-y,-x,1/3-z
-x+y,y,-z
x,x-y,2/3-z
loop_
_atom_site_type_symbol
_atom_site_label
_atom_site_fract_x
_atom_site_fract_y
_atom_site_fract_z
Si Si1 0.000000 0.500000 0.333334
Si Si2 0.220348 0.339270 0.116106
Si Si3 0.349631 0.815154 0.456892
Si Si4 0.702115 0.547379 0.835980
Si Si5 0.672324 0.672324 0.166667
Si Si6 0.396401 0.198201 0.833334
Si Si7 0.301646 0.603291 0.500000
Si Si8 0.556856 0.627038 0.861447
O O1 0.037120 0.479934 0.486018
O O2 0.263508 0.313734 0.085173
O O3 0.213970 0.353565 0.366108
O O4 0.156605 0.313210 0.000000
O O5 0.260545 0.402542 0.008748
O O6 0.415570 0.831140 0.500000
O O7 0.322599 0.810323 0.697571
O O8 0.320259 0.756853 0.309200
O O9 0.352417 0.871138 0.337570
O O10 0.750655 0.560402 0.657515
O O11 0.655006 0.559447 0.711737
O O12 0.649280 0.619407 0.348519
O O13 0.353835 0.646166 0.666667
#
# Coordination Sequence:
#
# PCOD9584348 Si02
#       8
#     3  12  12  12   6   6   6  12
#     4  12  28  42  64  84 134 152 200 254 336 428
#     4  10  22  40  64  96 134 168 213 264 318 377
#     4  12  28  48  68  90 123 157 215 272 350 429
#     4  11  22  45  64  95 119 162 207 265 331 392
#     4  12  22  45  66 100 132 166 226 263 316 406
#     4  10  20  41  64  98 130 154 220 259 316 392
#     4  12  30  57  70  96 122 163 216 290 362 435
#     4  12  27  44  67  96 120 173 206 274 340 400
#
# _framework density 18.897196000000001
#
# number of rings (size 3 to 8) (size 9 to 14) (size 15 to 20)
#    0.000    0.696    4.348    2.087    6.087    5.565 
#    3.130    0.000    0.000    0.000    0.000    0.000 
#    0.000    0.000    0.000    0.000    0.000    4.348 
#
# Total GULP energy -385382.045006 kJ/mol
# GULP energy per Si atom -5585.247029 kJ/mol
# Density = 1.885419 g / cm^3
# Si number density = 18.897196 Si / 1000 Ang^3
#
#
#
# Elastic Constant Matrix: (Units=GPa)
#
#
# Indices 1 2 3 4 5 6 
#
# 1 107.0795 47.4072 35.2774 0.0000 0.0000 0.0000
# 2 47.4072 107.0795 35.2774 0.0000 0.0000 0.0000
# 3 35.2774 35.2774 80.7044 0.0000 0.0000 0.0000
# 4 0.0000 0.0000 0.0000 29.1148 0.0000 0.0000
# 5 0.0000 0.0000 0.0000 0.0000 29.1148 0.0000
# 6 0.0000 0.0000 0.0000 0.0000 0.0000 29.8362
#
#
#
# Elastic Compliance Matrix: (Units=1/GPa)
#
#
# Indices 1 2 3 4 5 6 
#
# 1 0.012423 -0.004335 -0.003535 0.000000 0.000000 0.000000
# 2 -0.004335 0.012423 -0.003535 0.000000 0.000000 0.000000
# 3 -0.003535 -0.003535 0.015482 0.000000 0.000000 0.000000
# 4 0.000000 0.000000 0.000000 0.034347 0.000000 0.000000
# 5 0.000000 0.000000 0.000000 0.000000 0.034347 0.000000
# 6 0.000000 0.000000 0.000000 0.000000 0.000000 0.033516
#
#
# Mechanical properties :
#
#
# Convention : Reuss Voigt Hill
#
# Bulk Modulus (GPa) = 57.09139 58.97640 58.03389
# Shear Modulus (GPa) = 29.20775 29.40658 29.30717
#
# Velocity S-wave (km/s) = 3.93569 3.94907 3.94239
# Velocity P-wave (km/s) = 7.13653 7.21598 7.17636
#
# Compressibility (1/GPa) = 0.01751578
#
# Stress axis : x y z
#
# Youngs Moduli (GPa) = 80.49653 80.49653 64.59298
#
# Poissons Ratio (x) = 0.34898 0.22835
# Poissons Ratio (y) = 0.34898 0.22835
# Poissons Ratio (z) = 0.28458 0.28458
#
# Static dielectric constant tensor:
#      x y z
#    x 1.744920 0.000000 0.000000 
#    y 0.000000 1.744920 0.000000 
#    z 0.000000 0.000000 1.805690 
# 
# From -- ./inp_files/1582.got.cif
#   From: 2010.05.17/outbox.cif.g08.bks.cpg/sg181_1_cif.got.tgz:1582.got - 2010.05.20 11:51:17.
