data_PCOD9584627
_publ_section_title
;
Structure prediction by ZEFSAII (Michael W. Deem and Ramdas Pophale) SiO2 
 PCOD9584627
Probable space group: P 63 2 2
;
_chemical_formula_sum "Si O2"
_cell_formula_units_Z 66
_cell_length_a 17.628704
_cell_length_b 17.628704
_cell_length_c 13.747529
_cell_angle_alpha 90.000000
_cell_angle_beta 90.000000
_cell_angle_gamma 120.000000
_cell_volume 3699.951639
_symmetry_space_group_name_H-M "P 63 2 2"
_symmetry_group_IT_number 182
_symmetry_cell_setting 'hexagonal'
loop_
_space_group_symop_operation_xyz
x,y,z
x-y,x,1/2+z
-y,x-y,z
-x,-y,1/2+z
-x+y,-x,z
y,-x+y,1/2+z
x-y,-y,-z
-x,-x+y,-z
y,x,-z
-y,-x,1/2-z
-x+y,y,1/2-z
x,x-y,1/2-z
loop_
_atom_site_type_symbol
_atom_site_label
_atom_site_fract_x
_atom_site_fract_y
_atom_site_fract_z
Si Si1 0.511149 0.046537 0.639069
Si Si2 0.782107 0.266227 0.362713
Si Si3 0.976793 0.306767 0.388790
Si Si4 0.830565 0.000029 0.206888
Si Si5 0.902003 0.902003 0.500000
Si Si6 0.401114 0.539237 0.558976
O O1 0.537658 0.075315 0.750000
O O2 0.568614 0.112127 0.552900
O O3 0.411024 0.023140 0.625240
O O4 0.507452 0.953944 0.617937
O O5 0.752972 0.247029 0.250000
O O6 0.872452 0.266261 0.378977
O O7 0.805054 0.363148 0.396563
O O8 0.702211 0.193116 0.425229
O O9 0.000000 0.295772 0.500000
O O10 0.003844 0.261852 0.303676
O O11 0.827756 0.913878 0.250000
O O12 0.909912 0.090089 0.250000
O O13 0.856325 0.001934 0.095854
O O14 0.000000 0.917734 0.500000
#
# Coordination Sequence:
#
# PCOD9584627 Si02
#       6
#    12  12  12  12   6  12
#     4  10  20  41  62  82 120 173 196 238 322 374
#     4  11  20  36  62  95 118 153 204 255 309 356
#     4  11  22  41  60  85 131 165 192 257 319 363
#     4  12  22  37  61  88 117 163 217 257 307 370
#     4  10  18  34  58  78 108 154 200 258 306 348
#     4  10  20  36  63  90 120 149 206 254 297 369
#
# _framework density 17.838072
#
# number of rings (size 3 to 8) (size 9 to 14) (size 15 to 20)
#    0.182    1.091    6.364    3.818    0.000    0.000 
#    3.273    0.909    4.000    0.000    0.000    0.000 
#    0.000    0.000    0.000    0.000    0.000    0.000 
#
# Total GULP energy -367984.010337 kJ/mol
# GULP energy per Si atom -5575.515308 kJ/mol
# Density = 1.779747 g / cm^3
# Si number density = 17.838072 Si / 1000 Ang^3
#
#
#
# Elastic Constant Matrix: (Units=GPa)
#
#
# Indices 1 2 3 4 5 6 
#
# 1 81.3999 42.1818 44.9910 0.0000 0.0000 0.0000
# 2 42.1818 81.3999 44.9910 0.0000 0.0000 0.0000
# 3 44.9910 44.9910 148.0376 0.0000 0.0000 0.0000
# 4 0.0000 0.0000 0.0000 40.8120 0.0000 0.0000
# 5 0.0000 0.0000 0.0000 0.0000 40.8120 0.0000
# 6 0.0000 0.0000 0.0000 0.0000 0.0000 19.6090
#
#
#
# Elastic Compliance Matrix: (Units=1/GPa)
#
#
# Indices 1 2 3 4 5 6 
#
# 1 0.017945 -0.007554 -0.003158 0.000000 0.000000 0.000000
# 2 -0.007554 0.017945 -0.003158 0.000000 0.000000 0.000000
# 3 -0.003158 -0.003158 0.008675 0.000000 0.000000 0.000000
# 4 0.000000 0.000000 0.000000 0.024503 0.000000 0.000000
# 5 0.000000 0.000000 0.000000 0.000000 0.024503 0.000000
# 6 0.000000 0.000000 0.000000 0.000000 0.000000 0.050997
#
#
# Mechanical properties :
#
#
# Convention : Reuss Voigt Hill
#
# Bulk Modulus (GPa) = 59.43587 63.90721 61.67154
# Shear Modulus (GPa) = 28.10343 32.15818 30.13080
#
# Velocity S-wave (km/s) = 3.97353 4.25053 4.11436
# Velocity P-wave (km/s) = 7.37861 7.74554 7.56430
#
# Compressibility (1/GPa) = 0.01682486
#
# Stress axis : x y z
#
# Youngs Moduli (GPa) = 55.72625 55.72625 115.27882
#
# Poissons Ratio (x) = 0.42093 0.36406
# Poissons Ratio (y) = 0.42093 0.36406
# Poissons Ratio (z) = 0.17599 0.17599
#
# Static dielectric constant tensor:
#      x y z
#    x 1.665580 0.000000 0.000000 
#    y 0.000000 1.665580 0.000000 
#    z 0.000000 0.000000 1.598830 
# 
# From -- ./inp_files/3617.got.cif
#   From: 2010.05.17/outbox.cif.g08.bks.cpg/sg182_2_cif.got.tgz:3617.got - 2010.05.20 11:58:53.
