data_PCOD9584662
_publ_section_title
;
Structure prediction by ZEFSAII (Michael W. Deem and Ramdas Pophale) SiO2 
 PCOD9584662
Probable space group: P 63 2 2
;
_chemical_formula_sum "Si O2"
_cell_formula_units_Z 60
_cell_length_a 14.368346
_cell_length_b 14.368346
_cell_length_c 15.941504
_cell_angle_alpha 90.000000
_cell_angle_beta 90.000000
_cell_angle_gamma 120.000000
_cell_volume 2850.187817
_symmetry_space_group_name_H-M "P 63 2 2"
_symmetry_group_IT_number 182
_symmetry_cell_setting 'hexagonal'
loop_
_space_group_symop_operation_xyz
x,y,z
x-y,x,1/2+z
-y,x-y,z
-x,-y,1/2+z
-x+y,-x,z
y,-x+y,1/2+z
x-y,-y,-z
-x,-x+y,-z
y,x,-z
-y,-x,1/2-z
-x+y,y,1/2-z
x,x-y,1/2-z
loop_
_atom_site_type_symbol
_atom_site_label
_atom_site_fract_x
_atom_site_fract_y
_atom_site_fract_z
Si Si1 0.784005 0.157587 0.367411
Si Si2 0.555813 0.479225 0.582546
Si Si3 0.958883 0.362918 0.275015
Si Si4 0.418358 0.189379 0.938923
Si Si5 0.190811 0.242816 0.312538
O O1 0.878729 0.272387 0.340435
O O2 0.678662 0.118640 0.308059
O O3 0.759649 0.157437 0.463739
O O4 0.818941 0.069261 0.346081
O O5 0.512533 0.512533 0.500000
O O6 0.542634 0.530603 0.669059
O O7 0.682840 0.525572 0.570331
O O8 0.493086 0.351037 0.591569
O O9 0.049681 0.335119 0.245811
O O10 0.305966 0.129847 0.889179
O O11 0.091934 0.183868 0.250000
#
# Coordination Sequence:
#
# PCOD9584662 Si02
#       5
#    12  12  12  12  12
#     4   9  19  39  62  87 122 172 214 260 327 409
#     4  12  24  41  63  95 134 174 225 288 344 394
#     4   9  20  39  62  87 123 169 217 262 329 397
#     4  12  23  40  61  94 130 175 222 277 336 413
#     4  10  19  36  60  93 122 158 216 264 328 394
#
# _framework density 21.051244000000001
#
# number of rings (size 3 to 8) (size 9 to 14) (size 15 to 20)
#    1.200    0.400    4.000    2.200    0.000    0.800 
#    0.000    0.000    0.000    3.200    0.000    0.000 
#    0.000    0.000    0.000    0.000    0.000    0.000 
#
# Total GULP energy -334393.650446 kJ/mol
# GULP energy per Si atom -5573.227507 kJ/mol
# Density = 2.100333 g / cm^3
# Si number density = 21.051244 Si / 1000 Ang^3
#
#
#
# Elastic Constant Matrix: (Units=GPa)
#
#
# Indices 1 2 3 4 5 6 
#
# 1 64.6221 30.1937 28.1318 0.0000 0.0000 0.0000
# 2 30.1937 64.6221 28.1318 0.0000 0.0000 0.0000
# 3 28.1318 28.1318 146.9348 0.0000 0.0000 0.0000
# 4 0.0000 0.0000 0.0000 25.9777 0.0000 0.0000
# 5 0.0000 0.0000 0.0000 0.0000 25.9777 0.0000
# 6 0.0000 0.0000 0.0000 0.0000 0.0000 17.2142
#
#
#
# Elastic Compliance Matrix: (Units=1/GPa)
#
#
# Indices 1 2 3 4 5 6 
#
# 1 0.020472 -0.008574 -0.002278 0.000000 0.000000 0.000000
# 2 -0.008574 0.020472 -0.002278 0.000000 0.000000 0.000000
# 3 -0.002278 -0.002278 0.007678 0.000000 0.000000 0.000000
# 4 0.000000 0.000000 0.000000 0.038495 0.000000 0.000000
# 5 0.000000 0.000000 0.000000 0.000000 0.038495 0.000000
# 6 0.000000 0.000000 0.000000 0.000000 0.000000 0.058092
#
#
# Mechanical properties :
#
#
# Convention : Reuss Voigt Hill
#
# Bulk Modulus (GPa) = 44.71691 49.89929 47.30810
# Shear Modulus (GPa) = 22.99728 26.48202 24.73965
#
# Velocity S-wave (km/s) = 3.30880 3.55065 3.43185
# Velocity P-wave (km/s) = 5.99046 6.36904 6.18265
#
# Compressibility (1/GPa) = 0.02236291
#
# Stress axis : x y z
#
# Youngs Moduli (GPa) = 48.84673 48.84673 130.24137
#
# Poissons Ratio (x) = 0.41879 0.29670
# Poissons Ratio (y) = 0.41879 0.29670
# Poissons Ratio (z) = 0.11128 0.11128
#
# Static dielectric constant tensor:
#      x y z
#    x 1.794620 0.000000 0.000000 
#    y 0.000000 1.794620 0.000000 
#    z 0.000000 0.000000 1.782350 
# 
# From -- ./inp_files/3443.got.cif
#   From: 2010.05.17/outbox.cif.g08.bks.cpg/sg182_2_cif.got.tgz:3443.got - 2010.05.20 11:58:53.
