data_PCOD9584894
_publ_section_title
;
Structure prediction by ZEFSAII (Michael W. Deem and Ramdas Pophale) SiO2 
 PCOD9584894
Probable space group: P 63 2 2
;
_chemical_formula_sum "Si O2"
_cell_formula_units_Z 36
_cell_length_a 8.454170
_cell_length_b 8.454170
_cell_length_c 27.213499
_cell_angle_alpha 90.000000
_cell_angle_beta 90.000000
_cell_angle_gamma 120.000000
_cell_volume 1684.445523
_symmetry_space_group_name_H-M "P 63 2 2"
_symmetry_group_IT_number 182
_symmetry_cell_setting 'hexagonal'
loop_
_space_group_symop_operation_xyz
x,y,z
x-y,x,1/2+z
-y,x-y,z
-x,-y,1/2+z
-x+y,-x,z
y,-x+y,1/2+z
x-y,-y,-z
-x,-x+y,-z
y,x,-z
-y,-x,1/2-z
-x+y,y,1/2-z
x,x-y,1/2-z
loop_
_atom_site_type_symbol
_atom_site_label
_atom_site_fract_x
_atom_site_fract_y
_atom_site_fract_z
Si Si1 0.425077 0.186276 0.804243
Si Si2 0.687125 0.692031 0.097645
Si Si3 0.360138 0.358472 0.942766
O O1 0.591958 0.140876 0.808805
O O2 0.344746 0.172373 0.750000
O O3 0.292452 0.063953 0.847268
O O4 0.601089 0.797678 0.069431
O O5 0.535241 0.481150 0.090345
O O6 0.867942 0.718232 0.071962
O O7 0.400243 0.400243 0.000000
#
# Coordination Sequence:
#
# PCOD9584894 Si02
#       3
#    12  12  12
#     4   8  15  35  68  91 116 160 200 254 326 382
#     4  12  23  42  63  94 130 173 219 268 320 386
#     4  12  24  39  61  91 130 174 219 264 318 380
#
# _framework density 21.372018000000001
#
# number of rings (size 3 to 8) (size 9 to 14) (size 15 to 20)
#    0.667    0.667    3.333    5.000    0.000    0.000 
#    0.000    1.667    0.000    0.000    0.000    0.000 
#    0.000    0.000    0.000    0.000    0.000    0.000 
#
# Total GULP energy -200439.197692 kJ/mol
# GULP energy per Si atom -5567.755491 kJ/mol
# Density = 2.132337 g / cm^3
# Si number density = 21.372018 Si / 1000 Ang^3
#
#
#
# Elastic Constant Matrix: (Units=GPa)
#
#
# Indices 1 2 3 4 5 6 
#
# 1 46.9137 3.4724 13.0826 0.0000 0.0000 0.0000
# 2 3.4724 46.9137 13.0826 0.0000 0.0000 0.0000
# 3 13.0826 13.0826 177.9603 0.0000 0.0000 0.0000
# 4 0.0000 0.0000 0.0000 11.0660 0.0000 0.0000
# 5 0.0000 0.0000 0.0000 0.0000 11.0660 0.0000
# 6 0.0000 0.0000 0.0000 0.0000 0.0000 21.7206
#
#
#
# Elastic Compliance Matrix: (Units=1/GPa)
#
#
# Indices 1 2 3 4 5 6 
#
# 1 0.021827 -0.001193 -0.001517 0.000000 0.000000 0.000000
# 2 -0.001193 0.021827 -0.001517 0.000000 0.000000 0.000000
# 3 -0.001517 -0.001517 0.005842 0.000000 0.000000 0.000000
# 4 0.000000 0.000000 0.000000 0.090367 0.000000 0.000000
# 5 0.000000 0.000000 0.000000 0.000000 0.090367 0.000000
# 6 0.000000 0.000000 0.000000 0.000000 0.000000 0.046039
#
#
# Mechanical properties :
#
#
# Convention : Reuss Voigt Hill
#
# Bulk Modulus (GPa) = 24.36436 36.78474 30.57455
# Shear Modulus (GPa) = 16.75582 24.91385 20.83484
#
# Velocity S-wave (km/s) = 2.80305 3.41797 3.12567
# Velocity P-wave (km/s) = 4.67985 5.72937 5.23100
#
# Compressibility (1/GPa) = 0.04104355
#
# Stress axis : x y z
#
# Youngs Moduli (GPa) = 45.81474 45.81474 171.16661
#
# Poissons Ratio (x) = 0.05464 0.25965
# Poissons Ratio (y) = 0.05464 0.25965
# Poissons Ratio (z) = 0.06950 0.06950
#
# Static dielectric constant tensor:
#      x y z
#    x 1.770970 0.000000 0.000000 
#    y 0.000000 1.770970 0.000000 
#    z 0.000000 0.000000 1.876050 
# 
# From -- ./inp_files/5386.got.cif
#   From: 2010.05.17/outbox.cif.g08.bks.cpg/sg182_3_cif.got.tgz:5386.got - 2010.05.20 11:58:53.
