data_PCOD9584652
_publ_section_title
;
Structure prediction by ZEFSAII (Michael W. Deem and Ramdas Pophale) SiO2 
 PCOD9584652
Probable space group: P 63 2 2
;
_chemical_formula_sum "Si O2"
_cell_formula_units_Z 36
_cell_length_a 9.884955
_cell_length_b 9.884955
_cell_length_c 24.122036
_cell_angle_alpha 90.000000
_cell_angle_beta 90.000000
_cell_angle_gamma 120.000000
_cell_volume 2041.239605
_symmetry_space_group_name_H-M "P 63 2 2"
_symmetry_group_IT_number 182
_symmetry_cell_setting 'hexagonal'
loop_
_space_group_symop_operation_xyz
x,y,z
x-y,x,1/2+z
-y,x-y,z
-x,-y,1/2+z
-x+y,-x,z
y,-x+y,1/2+z
x-y,-y,-z
-x,-x+y,-z
y,x,-z
-y,-x,1/2-z
-x+y,y,1/2-z
x,x-y,1/2-z
loop_
_atom_site_type_symbol
_atom_site_label
_atom_site_fract_x
_atom_site_fract_y
_atom_site_fract_z
Si Si1 0.000000 0.000000 0.816494
Si Si2 0.805072 0.663091 0.315724
Si Si3 0.970057 0.510741 0.378852
Si Si4 0.333334 0.666667 0.414334
Si Si5 0.333334 0.666668 0.546758
O O1 0.838124 0.985478 0.832704
O O2 0.000000 0.000000 0.750000
O O3 0.825816 0.651631 0.250000
O O4 0.924169 0.626097 0.348326
O O5 0.631089 0.549527 0.335682
O O6 0.843852 0.431632 0.428985
O O7 0.152202 0.590071 0.394496
O O8 0.333334 0.666667 0.480962
#
# Coordination Sequence:
#
# PCOD9584652 Si02
#       5
#     4  12  12   4   4
#     4   9  18  30  48  69 100 137 166 201 258 309
#     4  10  19  35  52  74 105 139 172 210 258 328
#     4  10  21  34  56  80 102 141 181 216 273 320
#     4  12  21  36  55  83 112 129 180 249 262 293
#     4   9  21  39  55  74 106 150 180 210 277 338
#
# _framework density 17.636343
#
# number of rings (size 3 to 8) (size 9 to 14) (size 15 to 20)
#    0.000    2.000    0.000    4.667    0.000    0.000 
#    0.000    5.000    0.000    0.000    0.000   18.667 
#    0.000    0.000    0.000    0.000    0.000    0.000 
#
# Total GULP energy -200617.897213 kJ/mol
# GULP energy per Si atom -5572.719367 kJ/mol
# Density = 1.759620 g / cm^3
# Si number density = 17.636343 Si / 1000 Ang^3
#
#
#
# Elastic Constant Matrix: (Units=GPa)
#
#
# Indices 1 2 3 4 5 6 
#
# 1 89.1719 58.1404 35.5220 -0.0029 -0.0001 0.0003
# 2 58.1404 89.1740 35.5218 0.0002 0.0002 0.0001
# 3 35.5220 35.5218 95.5518 0.0001 -0.0003 -0.0001
# 4 -0.0029 0.0002 0.0001 -67.4927 0.0017 -0.0001
# 5 -0.0001 0.0002 -0.0003 0.0017 -67.4773 0.0015
# 6 0.0003 0.0001 -0.0001 -0.0001 0.0015 15.5168
#
#
#
# Elastic Compliance Matrix: (Units=1/GPa)
#
#
# Indices 1 2 3 4 5 6 
#
# 1 0.020248 -0.011977 -0.003075 -0.000001 0.000000 0.000000
# 2 -0.011977 0.020247 -0.003075 0.000001 0.000000 0.000000
# 3 -0.003075 -0.003075 0.012752 0.000000 0.000000 0.000000
# 4 -0.000001 0.000001 0.000000 -0.014816 0.000000 0.000000
# 5 0.000000 0.000000 0.000000 0.000000 -0.014820 0.000001
# 6 0.000000 0.000000 0.000000 0.000000 0.000001 0.064446
#
#
# Mechanical properties :
#
#
# Convention : Reuss Voigt Hill
#
# Bulk Modulus (GPa) = 58.84218 59.14069 58.99143
# Shear Modulus (GPa) = 38.46914 -14.24306 12.11304
#
# Velocity S-wave (km/s) = 4.67544 -2.84491 2.62357
# Velocity P-wave (km/s) = 7.91094 4.77649 6.53444
#
# Compressibility (1/GPa) = 0.01699461
#
# Stress axis : x y z
#
# Youngs Moduli (GPa) = 49.38765 49.38905 78.42087
#
# Poissons Ratio (x) = 0.59151 0.24114
# Poissons Ratio (y) = 0.59149 0.24112
# Poissons Ratio (z) = 0.15187 0.15186
#
# Static dielectric constant tensor:
#      x y z
#    x 1.694220 0.000000 0.000000 
#    y 0.000000 1.694200 0.000000 
#    z 0.000000 0.000000 1.573000 
# 
# From -- ./inp_files/5413.got.cif
#   From: 2010.05.17/outbox.cif.g08.bks.cpg/sg182_3_cif.got.tgz:5413.got - 2010.05.20 11:58:53.
