data_PCOD9584165
_publ_section_title
;
Structure prediction by ZEFSAII (Michael W. Deem and Ramdas Pophale) SiO2 
 PCOD9584165
Probable space group: P 62 2 2
;
_chemical_formula_sum "Si O2"
_cell_formula_units_Z 45
_cell_length_a 11.273820
_cell_length_b 11.273820
_cell_length_c 18.570196
_cell_angle_alpha 90.000000
_cell_angle_beta 90.000000
_cell_angle_gamma 120.000000
_cell_volume 2044.039633
_symmetry_space_group_name_H-M "P 62 2 2"
_symmetry_group_IT_number 180
_symmetry_cell_setting 'hexagonal'
loop_
_space_group_symop_operation_xyz
x,y,z
x-y,x,1/3+z
-y,x-y,2/3+z
-x,-y,z
-x+y,-x,1/3+z
y,-x+y,2/3+z
x-y,-y,-z
-x,-x+y,1/3-z
y,x,2/3-z
-y,-x,2/3-z
-x+y,y,-z
x,x-y,1/3-z
loop_
_atom_site_type_symbol
_atom_site_label
_atom_site_fract_x
_atom_site_fract_y
_atom_site_fract_z
Si Si1 0.469309 0.615514 0.071239
Si Si2 0.685603 0.842802 0.166667
Si Si3 0.885119 0.744897 0.224787
Si Si4 0.000000 0.000000 0.333334
Si Si5 0.439297 0.798852 0.424959
O O1 0.500000 0.500000 0.103352
O O2 0.594662 0.758637 0.098418
O O3 0.338604 0.628787 0.093330
O O4 0.444594 0.583859 0.986556
O O5 0.780488 0.781693 0.187638
O O6 0.801515 0.584270 0.244207
O O7 0.000000 0.767953 0.166667
O O8 0.959318 0.863143 0.286073
O O9 0.432048 0.864095 0.500000
#
# Coordination Sequence:
#
# PCOD9584165 Si02
#       5
#    12   6  12   3  12
#     4  11  26  47  75 111 154 203 254 332 406 479
#     4  12  23  48  72 112 153 200 254 330 405 484
#     4  12  26  45  76 109 154 209 267 329 396 481
#     4  12  22  52  68 128 156 216 284 334 420 474
#     4  11  26  49  74 111 152 201 266 322 401 484
#
# _framework density 22.015229000000001
#
# number of rings (size 3 to 8) (size 9 to 14) (size 15 to 20)
#    0.000    0.533    4.000    3.200    3.733    0.000 
#    0.000    2.667    0.000    0.000    0.000    0.000 
#    0.000    0.000    0.000    0.000    0.000    0.000 
#
# Total GULP energy -250791.757046 kJ/mol
# GULP energy per Si atom -5573.150157 kJ/mol
# Density = 2.196512 g / cm^3
# Si number density = 22.015229 Si / 1000 Ang^3
#
#
#
# Elastic Constant Matrix: (Units=GPa)
#
#
# Indices 1 2 3 4 5 6 
#
# 1 213.4878 22.6827 28.8140 0.0000 0.0000 0.0000
# 2 22.6827 213.4878 28.8140 0.0000 0.0000 0.0000
# 3 28.8140 28.8140 123.4925 0.0000 0.0000 0.0000
# 4 0.0000 0.0000 0.0000 23.5518 0.0000 0.0000
# 5 0.0000 0.0000 0.0000 0.0000 23.5518 0.0000
# 6 0.0000 0.0000 0.0000 0.0000 0.0000 95.4025
#
#
#
# Elastic Compliance Matrix: (Units=1/GPa)
#
#
# Indices 1 2 3 4 5 6 
#
# 1 0.004865 -0.000376 -0.001048 0.000000 0.000000 0.000000
# 2 -0.000376 0.004865 -0.001048 0.000000 0.000000 0.000000
# 3 -0.001048 -0.001048 0.008587 0.000000 0.000000 0.000000
# 4 0.000000 0.000000 0.000000 0.042460 0.000000 0.000000
# 5 0.000000 0.000000 0.000000 0.000000 0.042460 0.000000
# 6 0.000000 0.000000 0.000000 0.000000 0.000000 0.010482
#
#
# Mechanical properties :
#
#
# Convention : Reuss Voigt Hill
#
# Bulk Modulus (GPa) = 74.76172 79.00995 76.88584
# Shear Modulus (GPa) = 40.61124 59.84504 50.22814
#
# Velocity S-wave (km/s) = 4.29964 5.21943 4.78171
# Velocity P-wave (km/s) = 7.66042 8.50235 8.09234
#
# Compressibility (1/GPa) = 0.01337583
#
# Stress axis : x y z
#
# Youngs Moduli (GPa) = 205.53282 205.53282 116.46157
#
# Poissons Ratio (x) = 0.07719 0.12201
# Poissons Ratio (y) = 0.07719 0.12201
# Poissons Ratio (z) = 0.21532 0.21532
#
# Static dielectric constant tensor:
#      x y z
#    x 1.936490 0.000000 0.000000 
#    y 0.000000 1.936490 0.000000 
#    z 0.000000 0.000000 1.848220 
# 
# From -- ./inp_files/7432.got.cif
#   From: 2010.05.17/outbox.cif.g08.bks.cpg/sg180_4_cif.got.tgz:7432.got - 2010.05.20 11:43:55.
