data_PCOD9584740
_publ_section_title
;
Structure prediction by ZEFSAII (Michael W. Deem and Ramdas Pophale) SiO2 
 PCOD9584740
Probable space group: P 63 2 2
;
_chemical_formula_sum "Si O2"
_cell_formula_units_Z 70
_cell_length_a 15.693342
_cell_length_b 15.693342
_cell_length_c 16.683071
_cell_angle_alpha 90.000000
_cell_angle_beta 90.000000
_cell_angle_gamma 120.000000
_cell_volume 3558.258606
_symmetry_space_group_name_H-M "P 63 2 2"
_symmetry_group_IT_number 182
_symmetry_cell_setting 'hexagonal'
loop_
_space_group_symop_operation_xyz
x,y,z
x-y,x,1/2+z
-y,x-y,z
-x,-y,1/2+z
-x+y,-x,z
y,-x+y,1/2+z
x-y,-y,-z
-x,-x+y,-z
y,x,-z
-y,-x,1/2-z
-x+y,y,1/2-z
x,x-y,1/2-z
loop_
_atom_site_type_symbol
_atom_site_label
_atom_site_fract_x
_atom_site_fract_y
_atom_site_fract_z
Si Si1 0.509028 0.969393 0.338785
Si Si2 0.666667 0.333335 0.846884
Si Si3 0.214465 0.000000 0.500000
Si Si4 0.687314 0.896397 0.534522
Si Si5 0.313406 0.962577 0.350966
Si Si6 0.750791 0.549768 0.895147
Si Si7 0.603794 0.887271 0.705649
O O1 0.465673 0.931345 0.250000
O O2 0.417172 0.971508 0.378484
O O3 0.542529 0.894994 0.372371
O O4 0.606376 0.076510 0.327897
O O5 0.666668 0.333334 0.750000
O O6 0.732731 0.441716 0.881034
O O7 0.221352 0.104423 0.492440
O O8 0.272690 0.998930 0.578431
O O9 0.593575 0.814490 0.484639
O O10 0.666812 0.890463 0.628603
O O11 0.708420 0.000000 0.500000
O O12 0.230978 0.847781 0.342162
O O13 0.334847 0.028197 0.271727
O O14 0.565539 0.782770 0.750000
#
# Coordination Sequence:
#
# PCOD9584740 Si02
#       7
#    12   4   6  12  12  12  12
#     4  10  21  36  59  95 125 166 209 255 316 381
#     4  12  24  36  60  96 151 167 202 267 333 384
#     4  10  22  42  62  96 122 160 212 282 330 380
#     4  11  23  42  64  92 123 167 221 266 328 389
#     4  10  22  37  64  93 126 170 215 260 325 391
#     4  11  22  37  60  99 135 169 206 265 328 386
#     4  11  22  41  62  86 124 169 216 263 310 386
#
# _framework density 19.672543000000001
#
# number of rings (size 3 to 8) (size 9 to 14) (size 15 to 20)
#    0.000    1.371    5.143    0.514    2.400    1.371 
#    0.514    0.000    0.000    9.257    0.000    0.000 
#    0.000    0.000    0.000    0.000    0.000    0.000 
#
# Total GULP energy -390038.572587 kJ/mol
# GULP energy per Si atom -5571.979608 kJ/mol
# Density = 1.962777 g / cm^3
# Si number density = 19.672543 Si / 1000 Ang^3
#
#
#
# Elastic Constant Matrix: (Units=GPa)
#
#
# Indices 1 2 3 4 5 6 
#
# 1 86.9837 17.9745 31.3055 0.0000 0.0000 0.0001
# 2 17.9745 86.9843 31.3056 0.0001 0.0001 0.0001
# 3 31.3055 31.3056 76.6713 0.0000 0.0000 0.0000
# 4 0.0000 0.0001 0.0000 19.5741 0.0000 0.0000
# 5 0.0000 0.0001 0.0000 0.0000 19.5741 0.0000
# 6 0.0001 0.0001 0.0000 0.0000 0.0000 34.5046
#
#
#
# Elastic Compliance Matrix: (Units=1/GPa)
#
#
# Indices 1 2 3 4 5 6 
#
# 1 0.013543 -0.000948 -0.005143 0.000000 0.000000 0.000000
# 2 -0.000948 0.013543 -0.005143 0.000000 0.000000 0.000000
# 3 -0.005143 -0.005143 0.017242 0.000000 0.000000 0.000000
# 4 0.000000 0.000000 0.000000 0.051088 0.000000 0.000000
# 5 0.000000 0.000000 0.000000 0.000000 0.051088 0.000000
# 6 0.000000 0.000000 0.000000 0.000000 0.000000 0.028982
#
#
# Mechanical properties :
#
#
# Convention : Reuss Voigt Hill
#
# Bulk Modulus (GPa) = 45.74149 45.75671 45.74910
# Shear Modulus (GPa) = 24.36171 26.06747 25.21459
#
# Velocity S-wave (km/s) = 3.52285 3.64410 3.58399
# Velocity P-wave (km/s) = 6.31263 6.40434 6.35865
#
# Compressibility (1/GPa) = 0.02186199
#
# Stress axis : x y z
#
# Youngs Moduli (GPa) = 73.83813 73.83866 57.99655
#
# Poissons Ratio (x) = 0.06997 0.29827
# Poissons Ratio (y) = 0.06997 0.29827
# Poissons Ratio (z) = 0.37974 0.37974
#
# Static dielectric constant tensor:
#      x y z
#    x 1.733810 0.000000 0.000000 
#    y 0.000000 1.733810 0.000000 
#    z 0.000000 0.000000 1.701730 
# 
# From -- ./inp_files/4369.got.cif
#   From: 2010.05.17/outbox.cif.g08.bks.cpg/sg182_3_cif.got.tgz:4369.got - 2010.05.20 11:58:53.
