data_PCOD9584642
_publ_section_title
;
Structure prediction by ZEFSAII (Michael W. Deem and Ramdas Pophale) SiO2 
 PCOD9584642
Probable space group: P 63 2 2
;
_chemical_formula_sum "Si O2"
_cell_formula_units_Z 76
_cell_length_a 18.655285
_cell_length_b 18.655285
_cell_length_c 13.801769
_cell_angle_alpha 90.000000
_cell_angle_beta 90.000000
_cell_angle_gamma 120.000000
_cell_volume 4159.768506
_symmetry_space_group_name_H-M "P 63 2 2"
_symmetry_group_IT_number 182
_symmetry_cell_setting 'hexagonal'
loop_
_space_group_symop_operation_xyz
x,y,z
x-y,x,1/2+z
-y,x-y,z
-x,-y,1/2+z
-x+y,-x,z
y,-x+y,1/2+z
x-y,-y,-z
-x,-x+y,-z
y,x,-z
-y,-x,1/2-z
-x+y,y,1/2-z
x,x-y,1/2-z
loop_
_atom_site_type_symbol
_atom_site_label
_atom_site_fract_x
_atom_site_fract_y
_atom_site_fract_z
Si Si1 0.530785 0.588330 0.171254
Si Si2 0.899922 0.237082 0.302693
Si Si3 0.333334 0.666668 0.366313
Si Si4 0.410176 0.099671 0.501132
Si Si5 0.501497 0.138105 0.187472
Si Si6 0.653760 0.905563 0.213266
Si Si7 0.171752 0.570026 0.008831
O O1 0.457983 0.542018 0.250000
O O2 0.574751 0.533502 0.164795
O O3 0.589462 0.679305 0.212908
O O4 0.498361 0.592297 0.067043
O O5 0.850418 0.149583 0.250000
O O6 0.882990 0.245375 0.415446
O O7 0.868144 0.292826 0.246316
O O8 0.998380 0.274982 0.293584
O O9 0.333334 0.666667 0.250000
O O10 0.395162 0.754921 0.413674
O O11 0.389030 0.119118 0.607316
O O12 0.508244 0.148503 0.482060
O O13 0.375537 0.000000 0.500000
O O14 0.584069 0.168137 0.250000
O O15 0.530159 0.186762 0.086538
O O16 0.677755 0.838878 0.250000
#
# Coordination Sequence:
#
# PCOD9584642 Si02
#       7
#    12  12   4  12  12  12  12
#     4  10  19  32  55  83 110 145 189 241 284 334
#     4  10  22  39  60  86 118 151 190 244 292 340
#     4  12  33  42  46  77 109 159 204 240 304 338
#     4  10  20  37  62  83 106 152 195 230 286 350
#     4  10  20  34  56  83 106 143 195 237 286 343
#     4  10  22  37  61  89 114 151 195 238 290 349
#     4  12  23  37  54  74 114 154 195 241 288 342
#
# _framework density 18.270247999999999
#
# number of rings (size 3 to 8) (size 9 to 14) (size 15 to 20)
#    0.000    1.579    3.158    1.895    4.421    0.000 
#    0.000    2.368    0.000    0.316    0.000    0.000 
#    0.000    0.000    0.000    0.000    0.000    0.000 
#
# Total GULP energy -424316.454158 kJ/mol
# GULP energy per Si atom -5583.111239 kJ/mol
# Density = 1.822866 g / cm^3
# Si number density = 18.270248 Si / 1000 Ang^3
#
#
#
# Elastic Constant Matrix: (Units=GPa)
#
#
# Indices 1 2 3 4 5 6 
#
# 1 41.5149 22.0844 23.8718 0.0000 -0.0001 0.0000
# 2 22.0844 41.5156 23.8717 0.0000 0.0000 0.0001
# 3 23.8718 23.8717 107.8177 0.0000 0.0000 -0.0001
# 4 0.0000 0.0000 0.0000 21.3681 0.0000 0.0000
# 5 -0.0001 0.0000 0.0000 0.0000 21.3680 0.0000
# 6 0.0000 0.0001 -0.0001 0.0000 0.0000 9.7154
#
#
#
# Elastic Compliance Matrix: (Units=1/GPa)
#
#
# Indices 1 2 3 4 5 6 
#
# 1 0.035161 -0.016303 -0.004175 0.000000 0.000000 0.000000
# 2 -0.016303 0.035161 -0.004175 0.000000 0.000000 0.000000
# 3 -0.004175 -0.004175 0.011124 0.000000 0.000000 0.000000
# 4 0.000000 0.000000 0.000000 0.046799 0.000000 0.000000
# 5 0.000000 0.000000 0.000000 0.000000 0.046799 0.000000
# 6 0.000000 0.000000 0.000000 0.000000 0.000000 0.102930
#
#
# Mechanical properties :
#
#
# Convention : Reuss Voigt Hill
#
# Bulk Modulus (GPa) = 31.11567 36.72265 33.91916
# Shear Modulus (GPa) = 14.79316 18.55831 16.67574
#
# Velocity S-wave (km/s) = 2.84859 3.19057 3.02441
# Velocity P-wave (km/s) = 5.28082 5.80657 5.54992
#
# Compressibility (1/GPa) = 0.03213814
#
# Stress axis : x y z
#
# Youngs Moduli (GPa) = 28.44021 28.44084 89.89744
#
# Poissons Ratio (x) = 0.46368 0.37535
# Poissons Ratio (y) = 0.46367 0.37533
# Poissons Ratio (z) = 0.11875 0.11874
#
# Static dielectric constant tensor:
#      x y z
#    x 1.647820 0.000000 0.000000 
#    y 0.000000 1.647820 0.000000 
#    z 0.000000 0.000000 1.660090 
# 
# From -- ./inp_files/3667.got.cif
#   From: 2010.05.17/outbox.cif.g08.bks.cpg/sg182_2_cif.got.tgz:3667.got - 2010.05.20 11:58:53.
