data_PCOD9584241
_publ_section_title
;
Structure prediction by ZEFSAII (Michael W. Deem and Ramdas Pophale) SiO2 
 PCOD9584241
Probable space group: P 64 2 2
;
_chemical_formula_sum "Si O2"
_cell_formula_units_Z 54
_cell_length_a 13.045119
_cell_length_b 13.045119
_cell_length_c 18.444248
_cell_angle_alpha 90.000000
_cell_angle_beta 90.000000
_cell_angle_gamma 120.000000
_cell_volume 2718.239225
_symmetry_space_group_name_H-M "P 64 2 2"
_symmetry_group_IT_number 181
_symmetry_cell_setting 'hexagonal'
loop_
_space_group_symop_operation_xyz
x,y,z
x-y,x,2/3+z
-y,x-y,1/3+z
-x,-y,z
-x+y,-x,2/3+z
y,-x+y,1/3+z
x-y,-y,-z
-x,-x+y,2/3-z
y,x,1/3-z
-y,-x,1/3-z
-x+y,y,-z
x,x-y,2/3-z
loop_
_atom_site_type_symbol
_atom_site_label
_atom_site_fract_x
_atom_site_fract_y
_atom_site_fract_z
Si Si1 0.691496 0.748165 0.064554
Si Si2 0.362106 0.110715 0.766065
Si Si3 0.000000 0.500000 0.708373
Si Si4 0.370004 0.588666 0.940915
Si Si5 0.160479 0.357099 0.127662
O O1 0.572437 0.622988 0.081626
O O2 0.794555 0.714950 0.076921
O O3 0.687517 0.831391 0.126015
O O4 0.680448 0.788500 0.983843
O O5 0.325423 0.162711 0.833334
O O6 0.505490 0.182134 0.762873
O O7 0.300380 0.972297 0.782546
O O8 0.896127 0.405155 0.657535
O O9 0.263017 0.498328 0.889099
O O10 0.323800 0.647599 0.000000
#
# Coordination Sequence:
#
# PCOD9584241 Si02
#       5
#    12  12   6  12  12
#     4  10  22  37  64  94 116 160 216 261 318 382
#     4  11  24  40  58  87 130 170 204 254 323 383
#     4  10  18  35  58  92 125 152 202 262 312 379
#     4  11  19  37  63  87 128 167 203 255 323 385
#     4  11  20  38  65  90 121 159 206 269 324 374
#
# _framework density 19.865801000000001
#
# number of rings (size 3 to 8) (size 9 to 14) (size 15 to 20)
#    0.000    1.333    6.667    0.667    0.000    6.222 
#    0.000    2.222    0.000    8.000    0.000    0.000 
#    0.000    0.000    0.000    0.000    0.000    0.000 
#
# Total GULP energy -300625.667045 kJ/mol
# GULP energy per Si atom -5567.141982 kJ/mol
# Density = 1.982059 g / cm^3
# Si number density = 19.865801 Si / 1000 Ang^3
#
#
#
# Elastic Constant Matrix: (Units=GPa)
#
#
# Indices 1 2 3 4 5 6 
#
# 1 62.5259 16.9913 31.8482 0.0000 0.0000 0.0000
# 2 16.9913 62.5259 31.8482 0.0000 0.0000 0.0000
# 3 31.8482 31.8482 127.7992 0.0000 0.0000 0.0000
# 4 0.0000 0.0000 0.0000 29.7250 0.0000 0.0000
# 5 0.0000 0.0000 0.0000 0.0000 29.7250 0.0000
# 6 0.0000 0.0000 0.0000 0.0000 0.0000 22.7673
#
#
#
# Elastic Compliance Matrix: (Units=1/GPa)
#
#
# Indices 1 2 3 4 5 6 
#
# 1 0.018837 -0.003124 -0.003916 0.000000 0.000000 0.000000
# 2 -0.003124 0.018837 -0.003916 0.000000 0.000000 0.000000
# 3 -0.003916 -0.003916 0.009776 0.000000 0.000000 0.000000
# 4 0.000000 0.000000 0.000000 0.033642 0.000000 0.000000
# 5 0.000000 0.000000 0.000000 0.000000 0.033642 0.000000
# 6 0.000000 0.000000 0.000000 0.000000 0.000000 0.043923
#
#
# Mechanical properties :
#
#
# Convention : Reuss Voigt Hill
#
# Bulk Modulus (GPa) = 39.15610 46.02515 42.59063
# Shear Modulus (GPa) = 26.44374 27.92099 27.18237
#
# Velocity S-wave (km/s) = 3.65241 3.75304 3.70307
# Velocity P-wave (km/s) = 6.12698 6.48064 6.30629
#
# Compressibility (1/GPa) = 0.02553881
#
# Stress axis : x y z
#
# Youngs Moduli (GPa) = 53.08726 53.08726 102.28755
#
# Poissons Ratio (x) = 0.16587 0.40052
# Poissons Ratio (y) = 0.16587 0.40052
# Poissons Ratio (z) = 0.20787 0.20787
#
# Static dielectric constant tensor:
#      x y z
#    x 1.750510 0.000000 0.000000 
#    y 0.000000 1.750510 0.000000 
#    z 0.000000 0.000000 1.759850 
# 
# From -- ./inp_files/7578.got.cif
#   From: 2010.05.17/outbox.cif.g08.bks.cpg/sg181_4_cif.got.tgz:7578.got - 2010.05.20 11:51:17.
