data_PCOD9584456
_publ_section_title
;
Structure prediction by ZEFSAII (Michael W. Deem and Ramdas Pophale) SiO2 
 PCOD9584456
Probable space group: P 64 2 2
;
_chemical_formula_sum "Si O2"
_cell_formula_units_Z 24
_cell_length_a 15.196841
_cell_length_b 15.196841
_cell_length_c 5.327484
_cell_angle_alpha 90.000000
_cell_angle_beta 90.000000
_cell_angle_gamma 120.000000
_cell_volume 1065.514649
_symmetry_space_group_name_H-M "P 64 2 2"
_symmetry_group_IT_number 181
_symmetry_cell_setting 'hexagonal'
loop_
_space_group_symop_operation_xyz
x,y,z
x-y,x,2/3+z
-y,x-y,1/3+z
-x,-y,z
-x+y,-x,2/3+z
y,-x+y,1/3+z
x-y,-y,-z
-x,-x+y,2/3-z
y,x,1/3-z
-y,-x,1/3-z
-x+y,y,-z
x,x-y,2/3-z
loop_
_atom_site_type_symbol
_atom_site_label
_atom_site_fract_x
_atom_site_fract_y
_atom_site_fract_z
Si Si1 0.276615 0.553230 0.500000
Si Si2 0.825504 0.825504 0.166667
Si Si3 0.322082 0.941844 0.263049
O O1 0.371469 0.628532 0.666667
O O2 0.169884 0.474672 0.621092
O O3 0.782368 0.726148 0.347050
O O4 0.843081 0.921541 0.333334
O O5 0.390161 0.000000 0.500000
O O6 0.367147 0.000000 0.000000
#
# Coordination Sequence:
#
# PCOD9584456 Si02
#       3
#     6   6  12
#     4  12  30  50  81 121 160 208 278 340 386 488
#     4  10  22  44  88 114 162 208 274 327 410 487
#     4  10  25  50  84 110 161 218 259 327 413 483
#
# _framework density 22.524327
#
# number of rings (size 3 to 8) (size 9 to 14) (size 15 to 20)
#    1.500    0.000    0.000    3.000    7.000    1.000 
#    0.000    0.000   27.500    3.000    0.000    0.000 
#    0.000    0.000    0.000    0.000    0.000    0.000 
#
# Total GULP energy -133879.968945 kJ/mol
# GULP energy per Si atom -5578.332039 kJ/mol
# Density = 2.247306 g / cm^3
# Si number density = 22.524327 Si / 1000 Ang^3
#
#
#
# Elastic Constant Matrix: (Units=GPa)
#
#
# Indices 1 2 3 4 5 6 
#
# 1 176.4525 88.7836 61.8508 0.0000 0.0000 0.0000
# 2 88.7836 176.4525 61.8508 0.0000 0.0000 0.0000
# 3 61.8508 61.8508 138.1248 0.0000 0.0000 0.0000
# 4 0.0000 0.0000 0.0000 -7.8427 0.0000 0.0000
# 5 0.0000 0.0000 0.0000 0.0000 -7.8427 0.0000
# 6 0.0000 0.0000 0.0000 0.0000 0.0000 43.8345
#
#
#
# Elastic Compliance Matrix: (Units=1/GPa)
#
#
# Indices 1 2 3 4 5 6 
#
# 1 0.008086 -0.003321 -0.002134 0.000000 0.000000 0.000000
# 2 -0.003321 0.008086 -0.002134 0.000000 0.000000 0.000000
# 3 -0.002134 -0.002134 0.009151 0.000000 0.000000 0.000000
# 4 0.000000 0.000000 0.000000 -0.127507 0.000000 0.000000
# 5 0.000000 0.000000 0.000000 0.000000 -0.127507 0.000000
# 6 0.000000 0.000000 0.000000 0.000000 0.000000 0.022813
#
#
# Mechanical properties :
#
#
# Convention : Reuss Voigt Hill
#
# Bulk Modulus (GPa) = 98.55953 101.77777 100.16865
# Shear Modulus (GPa) = -26.55076 24.19944 -1.17566
#
# Velocity S-wave (km/s) = -3.43703 3.28131 -0.72325
# Velocity P-wave (km/s) = 5.30104 7.72268 6.62347
#
# Compressibility (1/GPa) = 0.01014615
#
# Stress axis : x y z
#
# Youngs Moduli (GPa) = 123.67055 123.67055 109.27863
#
# Poissons Ratio (x) = 0.41065 0.23319
# Poissons Ratio (y) = 0.41065 0.23319
# Poissons Ratio (z) = 0.26390 0.26390
#
# Static dielectric constant tensor:
#      x y z
#    x 1.607590 0.000000 0.000000 
#    y 0.000000 1.607590 0.000000 
#    z 0.000000 0.000000 1.825490 
# 
# From -- ./inp_files/225.got.cif
#   From: 2010.05.17/outbox.cif.g08.bks.cpg/sg181_1_cif.got.tgz:225.got - 2010.05.20 11:51:17.
