data_PCOD9584607
_publ_section_title
;
Structure prediction by ZEFSAII (Michael W. Deem and Ramdas Pophale) SiO2 
 PCOD9584607
Probable space group: P 63 2 2
;
_chemical_formula_sum "Si O2"
_cell_formula_units_Z 60
_cell_length_a 30.338833
_cell_length_b 30.338833
_cell_length_c 5.186000
_cell_angle_alpha 90.000000
_cell_angle_beta 90.000000
_cell_angle_gamma 120.000000
_cell_volume 4133.908759
_symmetry_space_group_name_H-M "P 63 2 2"
_symmetry_group_IT_number 182
_symmetry_cell_setting 'hexagonal'
loop_
_space_group_symop_operation_xyz
x,y,z
x-y,x,1/2+z
-y,x-y,z
-x,-y,1/2+z
-x+y,-x,z
y,-x+y,1/2+z
x-y,-y,-z
-x,-x+y,-z
y,x,-z
-y,-x,1/2-z
-x+y,y,1/2-z
x,x-y,1/2-z
loop_
_atom_site_type_symbol
_atom_site_label
_atom_site_fract_x
_atom_site_fract_y
_atom_site_fract_z
Si Si1 0.817649 0.543192 0.304844
Si Si2 0.607984 0.483864 0.194282
Si Si3 0.243135 0.390127 0.195765
Si Si4 0.941778 0.518746 0.805298
Si Si5 0.365037 0.332847 0.751228
O O1 0.758145 0.516290 0.250000
O O2 0.841991 0.508744 0.256184
O O3 0.829040 0.564232 0.594775
O O4 0.842434 0.589280 0.097123
O O5 0.575565 0.424436 0.250000
O O6 0.586517 0.508773 0.400423
O O7 0.598150 0.494530 0.903829
O O8 0.181760 0.363519 0.250000
O O9 0.280733 0.367461 0.243004
O O10 0.968445 0.484223 0.750000
O O11 0.963477 0.578773 0.758437
O O12 0.337616 0.337616 0.500000
O O13 0.336187 0.336187 0.000000
#
# Coordination Sequence:
#
# PCOD9584607 Si02
#       5
#    12  12  12  12  12
#     4  10  17  29  49  66  81 105 143 182 219 259
#     4  10  17  29  46  62  85 111 142 176 214 265
#     4  10  20  34  50  67  88 112 145 181 217 257
#     4  10  20  32  45  61  90 122 146 173 214 269
#     4  12  22  32  49  68  94 118 147 184 222 260
#
# _framework density 14.514106999999999
#
# number of rings (size 3 to 8) (size 9 to 14) (size 15 to 20)
#    0.000    1.600    4.000    2.400    0.000    0.800 
#    0.000    0.000    0.000    0.400    0.000    0.000 
#    0.000    9.600    0.000    0.000    0.000    1.600 
#
# Total GULP energy -334071.757183 kJ/mol
# GULP energy per Si atom -5567.862620 kJ/mol
# Density = 1.448107 g / cm^3
# Si number density = 14.514107 Si / 1000 Ang^3
#
#
#
# Elastic Constant Matrix: (Units=GPa)
#
#
# Indices 1 2 3 4 5 6 
#
# 1 74.2029 33.6189 16.8163 0.0000 0.0000 0.0000
# 2 33.6189 74.2029 16.8163 0.0000 0.0000 0.0000
# 3 16.8163 16.8163 71.4760 0.0000 0.0000 0.0000
# 4 0.0000 0.0000 0.0000 26.4800 0.0000 0.0000
# 5 0.0000 0.0000 0.0000 0.0000 26.4800 0.0000
# 6 0.0000 0.0000 0.0000 0.0000 0.0000 20.2920
#
#
#
# Elastic Compliance Matrix: (Units=1/GPa)
#
#
# Indices 1 2 3 4 5 6 
#
# 1 0.017325 -0.007316 -0.002355 0.000000 0.000000 0.000000
# 2 -0.007316 0.017325 -0.002355 0.000000 0.000000 0.000000
# 3 -0.002355 -0.002355 0.015099 0.000000 0.000000 0.000000
# 4 0.000000 0.000000 0.000000 0.037764 0.000000 0.000000
# 5 0.000000 0.000000 0.000000 0.000000 0.037764 0.000000
# 6 0.000000 0.000000 0.000000 0.000000 0.000000 0.049281
#
#
# Mechanical properties :
#
#
# Convention : Reuss Voigt Hill
#
# Bulk Modulus (GPa) = 38.91421 39.37608 39.14515
# Shear Modulus (GPa) = 24.13432 24.82575 24.48004
#
# Velocity S-wave (km/s) = 4.08219 4.14025 4.11132
# Velocity P-wave (km/s) = 7.00632 7.07418 7.04033
#
# Compressibility (1/GPa) = 0.02569755
#
# Stress axis : x y z
#
# Youngs Moduli (GPa) = 57.72109 57.72109 66.23052
#
# Poissons Ratio (x) = 0.42226 0.15596
# Poissons Ratio (y) = 0.42226 0.15596
# Poissons Ratio (z) = 0.13592 0.13592
#
# Static dielectric constant tensor:
#      x y z
#    x 1.492250 0.000000 0.000000 
#    y 0.000000 1.492250 0.000000 
#    z 0.000000 0.000000 1.500350 
# 
# From -- ./inp_files/714.got.cif
#   From: 2010.05.17/outbox.cif.g08.bks.cpg/sg182_1_cif.got.tgz:714.got - 2010.05.20 11:58:53.
