data_PCOD9584323
_publ_section_title
;
Structure prediction by ZEFSAII (Michael W. Deem and Ramdas Pophale) SiO2 
 PCOD9584323
Probable space group: P 64 2 2
;
_chemical_formula_sum "Si O2"
_cell_formula_units_Z 69
_cell_length_a 15.389021
_cell_length_b 15.389021
_cell_length_c 15.864715
_cell_angle_alpha 90.000000
_cell_angle_beta 90.000000
_cell_angle_gamma 120.000000
_cell_volume 3253.755318
_symmetry_space_group_name_H-M "P 64 2 2"
_symmetry_group_IT_number 181
_symmetry_cell_setting 'hexagonal'
loop_
_space_group_symop_operation_xyz
x,y,z
x-y,x,2/3+z
-y,x-y,1/3+z
-x,-y,z
-x+y,-x,2/3+z
y,-x+y,1/3+z
x-y,-y,-z
-x,-x+y,2/3-z
y,x,1/3-z
-y,-x,1/3-z
-x+y,y,-z
x,x-y,2/3-z
loop_
_atom_site_type_symbol
_atom_site_label
_atom_site_fract_x
_atom_site_fract_y
_atom_site_fract_z
Si Si1 0.000000 0.500000 0.833334
Si Si2 0.399930 0.510603 0.471164
Si Si3 0.514534 0.343250 0.055089
Si Si4 0.843887 0.669315 0.804497
Si Si5 0.951932 0.706689 0.519199
Si Si6 0.746221 0.961592 0.367228
Si Si7 0.331088 0.665544 0.833334
O O1 0.070186 0.477981 0.774994
O O2 0.500000 0.500000 0.478122
O O3 0.372924 0.514845 0.373611
O O4 0.310168 0.408197 0.507948
O O5 0.388451 0.602314 0.507141
O O6 0.432627 0.231915 0.084672
O O7 0.623462 0.368409 0.087638
O O8 0.769896 0.712886 0.806589
O O9 0.942679 0.752044 0.757462
O O10 0.880244 0.662083 0.900707
O O11 0.870468 0.740935 0.500000
O O12 0.990375 0.717371 0.616961
O O13 0.796621 0.898311 0.333334
#
# Coordination Sequence:
#
# PCOD9584323 Si02
#       7
#     3  12  12  12  12  12   6
#     4  10  20  36  64 100 126 156 198 270 344 382
#     4  12  24  44  67  94 133 179 224 278 340 412
#     4  11  22  40  67  98 132 165 216 280 337 402
#     4  10  20  38  65  95 129 170 219 281 339 403
#     4  11  23  40  61  90 130 181 224 269 330 408
#     4   9  19  37  62  92 129 165 215 276 329 396
#     4  11  26  43  64 100 138 173 224 279 346 406
#
# _framework density 21.206267
#
# number of rings (size 3 to 8) (size 9 to 14) (size 15 to 20)
#    0.000    1.391    3.478    2.609    0.000    0.696 
#    0.000   13.043    0.000    1.043    0.000    0.000 
#    0.000    0.000    0.000    0.000    0.000    0.000 
#
# Total GULP energy -384496.336877 kJ/mol
# GULP energy per Si atom -5572.410679 kJ/mol
# Density = 2.115800 g / cm^3
# Si number density = 21.206267 Si / 1000 Ang^3
#
#
#
# Elastic Constant Matrix: (Units=GPa)
#
#
# Indices 1 2 3 4 5 6 
#
# 1 87.0834 38.4648 -3.2646 0.0000 0.0000 0.0000
# 2 38.4648 87.0834 -3.2646 0.0000 0.0000 0.0000
# 3 -3.2646 -3.2646 26.8773 0.0000 0.0000 0.0000
# 4 0.0000 0.0000 0.0000 12.5099 0.0000 0.0000
# 5 0.0000 0.0000 0.0000 0.0000 12.5099 0.0000
# 6 0.0000 0.0000 0.0000 0.0000 0.0000 24.3093
#
#
#
# Elastic Compliance Matrix: (Units=1/GPa)
#
#
# Indices 1 2 3 4 5 6 
#
# 1 0.014292 -0.006276 0.000974 0.000000 0.000000 0.000000
# 2 -0.006276 0.014292 0.000974 0.000000 0.000000 0.000000
# 3 0.000974 0.000974 0.037443 0.000000 0.000000 0.000000
# 4 0.000000 0.000000 0.000000 0.079937 0.000000 0.000000
# 5 0.000000 0.000000 0.000000 0.000000 0.079937 0.000000
# 6 0.000000 0.000000 0.000000 0.000000 0.000000 0.041136
#
#
# Mechanical properties :
#
#
# Convention : Reuss Voigt Hill
#
# Bulk Modulus (GPa) = 17.43119 29.43503 23.43311
# Shear Modulus (GPa) = 16.95962 21.13971 19.04967
#
# Velocity S-wave (km/s) = 2.83105 3.16074 3.00042
# Velocity P-wave (km/s) = 4.35018 5.21832 4.80390
#
# Compressibility (1/GPa) = 0.05736844
#
# Stress axis : x y z
#
# Youngs Moduli (GPa) = 69.96933 69.96933 26.70756
#
# Poissons Ratio (x) = 0.43915 -0.02600
# Poissons Ratio (y) = 0.43915 -0.02600
# Poissons Ratio (z) = -0.06812 -0.06812
#
# Static dielectric constant tensor:
#      x y z
#    x 1.815650 0.000000 0.000000 
#    y 0.000000 1.815650 0.000000 
#    z 0.000000 0.000000 1.865270 
# 
# From -- ./inp_files/7816.got.cif
#   From: 2010.05.17/outbox.cif.g08.bks.cpg/sg181_4_cif.got.tgz:7816.got - 2010.05.20 11:51:17.
