data_PCOD9584327
_publ_section_title
;
Structure prediction by ZEFSAII (Michael W. Deem and Ramdas Pophale) SiO2 
 PCOD9584327
Probable space group: P 64 2 2
;
_chemical_formula_sum "Si O2"
_cell_formula_units_Z 69
_cell_length_a 21.830948
_cell_length_b 21.830948
_cell_length_c 8.044113
_cell_angle_alpha 90.000000
_cell_angle_beta 90.000000
_cell_angle_gamma 120.000000
_cell_volume 3320.121559
_symmetry_space_group_name_H-M "P 64 2 2"
_symmetry_group_IT_number 181
_symmetry_cell_setting 'hexagonal'
loop_
_space_group_symop_operation_xyz
x,y,z
x-y,x,2/3+z
-y,x-y,1/3+z
-x,-y,z
-x+y,-x,2/3+z
y,-x+y,1/3+z
x-y,-y,-z
-x,-x+y,2/3-z
y,x,1/3-z
-y,-x,1/3-z
-x+y,y,-z
x,x-y,2/3-z
loop_
_atom_site_type_symbol
_atom_site_label
_atom_site_fract_x
_atom_site_fract_y
_atom_site_fract_z
Si Si1 0.131809 0.484127 0.798997
Si Si2 0.222009 0.586586 0.502879
Si Si3 0.272324 0.727677 0.666667
Si Si4 0.115592 0.879374 0.470570
Si Si5 0.270384 0.000000 0.000000
Si Si6 0.918879 0.918879 0.166667
Si Si7 0.500000 0.000000 0.500000
Si Si8 0.112995 0.759583 0.075208
O O1 0.168242 0.544417 0.653102
O O2 0.062004 0.480217 0.878095
O O3 0.114772 0.412558 0.707837
O O4 0.194446 0.500140 0.926742
O O5 0.280285 0.560570 0.500000
O O6 0.184665 0.592333 0.333334
O O7 0.267195 0.670238 0.537255
O O8 0.123956 0.876045 0.666667
O O9 0.055368 0.801778 0.422047
O O10 0.092198 0.936767 0.434002
O O11 0.185672 0.899866 0.366006
O O12 0.331135 0.049601 0.872485
O O13 0.933297 0.966649 0.333334
O O14 0.188213 0.811788 0.166667
#
# Coordination Sequence:
#
# PCOD9584327 Si02
#       8
#    12  12   6  12   6   6   3  12
#     4  12  26  47  67 106 145 190 240 301 373 448
#     4  12  21  39  72 105 135 178 236 305 355 420
#     4  12  22  42  76 100 142 183 244 298 367 426
#     4  10  21  40  68  94 124 172 232 287 352 422
#     4  10  22  44  63  89 136 178 222 294 348 408
#     4  10  20  37  61  94 133 171 226 282 360 434
#     4  12  28  50  66 100 162 188 222 304 390 444
#     4  10  23  43  68  97 133 174 239 294 348 432
#
# _framework density 20.782371999999999
#
# number of rings (size 3 to 8) (size 9 to 14) (size 15 to 20)
#    0.000    1.043    4.348    2.609    1.217    2.087 
#    6.261    2.174    0.000    0.000    0.000    0.000 
#    0.000    0.000    0.000    0.000    0.000    0.000 
#
# Total GULP energy -384337.905474 kJ/mol
# GULP energy per Si atom -5570.114572 kJ/mol
# Density = 2.073507 g / cm^3
# Si number density = 20.782372 Si / 1000 Ang^3
#
#
#
# Elastic Constant Matrix: (Units=GPa)
#
#
# Indices 1 2 3 4 5 6 
#
# 1 93.4450 44.9411 18.9416 0.0000 0.0000 0.0000
# 2 44.9411 93.4450 18.9416 0.0000 0.0000 0.0000
# 3 18.9416 18.9416 75.0115 0.0000 0.0000 0.0000
# 4 0.0000 0.0000 0.0000 -94.0049 0.0000 0.0000
# 5 0.0000 0.0000 0.0000 0.0000 -94.0049 0.0000
# 6 0.0000 0.0000 0.0000 0.0000 0.0000 24.2519
#
#
#
# Elastic Compliance Matrix: (Units=1/GPa)
#
#
# Indices 1 2 3 4 5 6 
#
# 1 0.014190 -0.006427 -0.001960 0.000000 0.000000 0.000000
# 2 -0.006427 0.014190 -0.001960 0.000000 0.000000 0.000000
# 3 -0.001960 -0.001960 0.014321 0.000000 0.000000 0.000000
# 4 0.000000 0.000000 0.000000 -0.010638 0.000000 0.000000
# 5 0.000000 0.000000 0.000000 0.000000 -0.010638 0.000000
# 6 0.000000 0.000000 0.000000 0.000000 0.000000 0.041234
#
#
# Mechanical properties :
#
#
# Convention : Reuss Voigt Hill
#
# Bulk Modulus (GPa) = 45.44233 47.50556 46.47394
# Shear Modulus (GPa) = 55.13313 -20.81308 17.16002
#
# Velocity S-wave (km/s) = 5.15620 -3.16805 2.87662
# Velocity P-wave (km/s) = 7.57376 3.08645 5.78308
#
# Compressibility (1/GPa) = 0.02200592
#
# Stress axis : x y z
#
# Youngs Moduli (GPa) = 70.47297 70.47297 69.82627
#
# Poissons Ratio (x) = 0.45293 0.13687
# Poissons Ratio (y) = 0.45293 0.13687
# Poissons Ratio (z) = 0.13814 0.13814
#
# Static dielectric constant tensor:
#      x y z
#    x 1.677520 0.000000 0.000000 
#    y 0.000000 1.677520 0.000000 
#    z 0.000000 0.000000 1.883720 
# 
# From -- ./inp_files/3243.got.cif
#   From: 2010.05.17/outbox.cif.g08.bks.cpg/sg181_2_cif.got.tgz:3243.got - 2010.05.20 11:51:17.
