data_PCOD9584759
_publ_section_title
;
Structure prediction by ZEFSAII (Michael W. Deem and Ramdas Pophale) SiO2 
 PCOD9584759
Probable space group: P 63 2 2
;
_chemical_formula_sum "Si O2"
_cell_formula_units_Z 66
_cell_length_a 20.371303
_cell_length_b 20.371303
_cell_length_c 8.576559
_cell_angle_alpha 90.000000
_cell_angle_beta 90.000000
_cell_angle_gamma 120.000000
_cell_volume 3082.345578
_symmetry_space_group_name_H-M "P 63 2 2"
_symmetry_group_IT_number 182
_symmetry_cell_setting 'hexagonal'
loop_
_space_group_symop_operation_xyz
x,y,z
x-y,x,1/2+z
-y,x-y,z
-x,-y,1/2+z
-x+y,-x,z
y,-x+y,1/2+z
x-y,-y,-z
-x,-x+y,-z
y,x,-z
-y,-x,1/2-z
-x+y,y,1/2-z
x,x-y,1/2-z
loop_
_atom_site_type_symbol
_atom_site_label
_atom_site_fract_x
_atom_site_fract_y
_atom_site_fract_z
Si Si1 0.174282 0.506518 0.091209
Si Si2 0.544570 0.951323 0.843887
Si Si3 0.637557 0.931758 0.601300
Si Si4 0.483007 0.817154 0.058378
Si Si5 0.141064 0.858937 0.750000
Si Si6 0.137352 0.000031 0.189235
O O1 0.189339 0.590607 0.065536
O O2 0.254660 0.513723 0.055205
O O3 0.149723 0.483390 0.270726
O O4 0.110292 0.443313 0.984821
O O5 0.477638 0.955275 0.750000
O O6 0.619117 0.969799 0.746923
O O7 0.519441 0.867703 0.907946
O O8 0.560272 0.000000 0.000000
O O9 0.663071 0.869672 0.632076
O O10 0.700021 0.000000 0.500000
O O11 0.050702 0.830494 0.771575
O O12 0.101123 0.050562 0.250000
O O13 0.084861 0.915139 0.250000
O O14 0.141621 0.000000 0.000000
#
# Coordination Sequence:
#
# PCOD9584759 Si02
#       6
#    12  12  12  12   6  12
#     4  10  21  39  70  96 141 175 227 290 354 434
#     4  12  25  41  65  95 126 179 238 286 337 420
#     4  12  24  46  67  98 140 188 229 294 367 433
#     4  10  21  39  65 103 130 177 223 284 353 414
#     4  10  26  42  72  98 144 178 226 292 366 434
#     4  10  21  41  71 104 133 175 228 288 350 424
#
# _framework density 21.412264
#
# number of rings (size 3 to 8) (size 9 to 14) (size 15 to 20)
#    0.545    0.727    1.818    4.364    2.545    1.455 
#    3.273    0.000    8.000    0.000    0.000    0.000 
#    0.000    0.000    0.000    0.000    0.000    0.000 
#
# Total GULP energy -367569.792325 kJ/mol
# GULP energy per Si atom -5569.239278 kJ/mol
# Density = 2.136353 g / cm^3
# Si number density = 21.412264 Si / 1000 Ang^3
#
#
#
# Elastic Constant Matrix: (Units=GPa)
#
#
# Indices 1 2 3 4 5 6 
#
# 1 73.9971 15.1415 41.1308 0.0000 0.0000 0.0000
# 2 15.1415 73.9971 41.1308 0.0000 0.0000 0.0000
# 3 41.1308 41.1308 95.3195 0.0000 0.0000 0.0000
# 4 0.0000 0.0000 0.0000 31.1385 0.0000 0.0000
# 5 0.0000 0.0000 0.0000 0.0000 31.1385 0.0000
# 6 0.0000 0.0000 0.0000 0.0000 0.0000 29.4278
#
#
#
# Elastic Compliance Matrix: (Units=1/GPa)
#
#
# Indices 1 2 3 4 5 6 
#
# 1 0.017816 0.000826 -0.008044 0.000000 0.000000 0.000000
# 2 0.000826 0.017816 -0.008044 0.000000 0.000000 0.000000
# 3 -0.008044 -0.008044 0.017433 0.000000 0.000000 0.000000
# 4 0.000000 0.000000 0.000000 0.032115 0.000000 0.000000
# 5 0.000000 0.000000 0.000000 0.000000 0.032115 0.000000
# 6 0.000000 0.000000 0.000000 0.000000 0.000000 0.033982
#
#
# Mechanical properties :
#
#
# Convention : Reuss Voigt Hill
#
# Bulk Modulus (GPa) = 44.36412 48.67997 46.52205
# Shear Modulus (GPa) = 26.41096 28.06831 27.23963
#
# Velocity S-wave (km/s) = 3.51586 3.62450 3.57059
# Velocity P-wave (km/s) = 6.10293 6.34822 6.22678
#
# Compressibility (1/GPa) = 0.02254074
#
# Stress axis : x y z
#
# Youngs Moduli (GPa) = 56.12815 56.12815 57.36192
#
# Poissons Ratio (x) = -0.04634 0.46143
# Poissons Ratio (y) = -0.04634 0.46143
# Poissons Ratio (z) = 0.45150 0.45150
#
# Static dielectric constant tensor:
#      x y z
#    x 1.867890 0.000000 0.000000 
#    y 0.000000 1.867890 0.000000 
#    z 0.000000 0.000000 1.845040 
# 
# From -- ./inp_files/1809.got.cif
#   From: 2010.05.17/outbox.cif.g08.bks.cpg/sg182_1_cif.got.tgz:1809.got - 2010.05.20 11:58:53.
