data_PCOD9584552
_publ_section_title
;
Structure prediction by ZEFSAII (Michael W. Deem and Ramdas Pophale) SiO2 
 PCOD9584552
Probable space group: P 64 2 2
;
_chemical_formula_sum "Si O2"
_cell_formula_units_Z 54
_cell_length_a 11.490683
_cell_length_b 11.490683
_cell_length_c 20.742571
_cell_angle_alpha 90.000000
_cell_angle_beta 90.000000
_cell_angle_gamma 120.000000
_cell_volume 2371.837354
_symmetry_space_group_name_H-M "P 64 2 2"
_symmetry_group_IT_number 181
_symmetry_cell_setting 'hexagonal'
loop_
_space_group_symop_operation_xyz
x,y,z
x-y,x,2/3+z
-y,x-y,1/3+z
-x,-y,z
-x+y,-x,2/3+z
y,-x+y,1/3+z
x-y,-y,-z
-x,-x+y,2/3-z
y,x,1/3-z
-y,-x,1/3-z
-x+y,y,-z
x,x-y,2/3-z
loop_
_atom_site_type_symbol
_atom_site_label
_atom_site_fract_x
_atom_site_fract_y
_atom_site_fract_z
Si Si1 0.016899 0.145768 0.060379
Si Si2 0.444406 0.177582 0.134803
Si Si3 0.778717 0.000000 0.500000
Si Si4 0.754529 0.625172 0.570684
Si Si5 0.380480 0.723118 0.262920
O O1 0.094377 0.203698 0.126424
O O2 0.869857 0.121888 0.057098
O O3 0.110313 0.220625 0.000000
O O4 0.000000 0.000000 0.062352
O O5 0.344209 0.237295 0.125550
O O6 0.506165 0.189622 0.208247
O O7 0.573814 0.289051 0.097722
O O8 0.372285 0.022861 0.107241
O O9 0.814218 0.628435 0.500000
O O10 0.752630 0.496005 0.602049
O O11 0.435918 0.717959 0.333334
#
# Coordination Sequence:
#
# PCOD9584552 Si02
#       5
#    12  12   6  12  12
#     4  11  23  38  65 111 140 170 228 291 368 425
#     4  11  25  46  73 102 143 194 237 296 372 431
#     4  12  23  43  72  96 150 185 221 304 362 428
#     4  12  22  44  76 104 141 188 234 303 366 431
#     4  11  28  47  70 105 146 194 252 296 350 442
#
# _framework density 22.767157999999998
#
# number of rings (size 3 to 8) (size 9 to 14) (size 15 to 20)
#    0.000    0.667    6.667    1.000    3.111    4.444 
#    0.000    2.222    0.000    0.000    0.000    0.000 
#    0.000    0.000    0.000    0.000    0.000    0.000 
#
# Total GULP energy -300676.812842 kJ/mol
# GULP energy per Si atom -5568.089127 kJ/mol
# Density = 2.271534 g / cm^3
# Si number density = 22.767158 Si / 1000 Ang^3
#
#
#
# Elastic Constant Matrix: (Units=GPa)
#
#
# Indices 1 2 3 4 5 6 
#
# 1 104.7118 39.1582 3.5357 0.0000 0.0000 0.0000
# 2 39.1582 104.7118 3.5357 0.0000 0.0000 0.0000
# 3 3.5357 3.5357 91.5550 0.0000 0.0000 0.0000
# 4 0.0000 0.0000 0.0000 28.2752 0.0000 0.0000
# 5 0.0000 0.0000 0.0000 0.0000 28.2752 0.0000
# 6 0.0000 0.0000 0.0000 0.0000 0.0000 32.7768
#
#
#
# Elastic Compliance Matrix: (Units=1/GPa)
#
#
# Indices 1 2 3 4 5 6 
#
# 1 0.011109 -0.004145 -0.000269 0.000000 0.000000 0.000000
# 2 -0.004145 0.011109 -0.000269 0.000000 0.000000 0.000000
# 3 -0.000269 -0.000269 0.010943 0.000000 0.000000 0.000000
# 4 0.000000 0.000000 0.000000 0.035367 0.000000 0.000000
# 5 0.000000 0.000000 0.000000 0.000000 0.035367 0.000000
# 6 0.000000 0.000000 0.000000 0.000000 0.000000 0.030509
#
#
# Mechanical properties :
#
#
# Convention : Reuss Voigt Hill
#
# Bulk Modulus (GPa) = 42.02509 43.71530 42.87019
# Shear Modulus (GPa) = 32.95918 34.84872 33.90395
#
# Velocity S-wave (km/s) = 3.80895 3.91661 3.86315
# Velocity P-wave (km/s) = 6.15165 6.30046 6.22650
#
# Compressibility (1/GPa) = 0.02379531
#
# Stress axis : x y z
#
# Youngs Moduli (GPa) = 90.01456 90.01456 91.38126
#
# Poissons Ratio (x) = 0.37314 0.02458
# Poissons Ratio (y) = 0.37314 0.02458
# Poissons Ratio (z) = 0.02421 0.02421
#
# Static dielectric constant tensor:
#      x y z
#    x 1.859690 0.000000 0.000000 
#    y 0.000000 1.859690 0.000000 
#    z 0.000000 0.000000 1.794450 
# 
# From -- ./inp_files/8776.got.cif
#   From: 2010.05.17/outbox.cif.g08.bks.cpg/sg181_5_cif.got.tgz:8776.got - 2010.05.20 11:51:17.
