data_PCOD9584486
_publ_section_title
;
Structure prediction by ZEFSAII (Michael W. Deem and Ramdas Pophale) SiO2 
 PCOD9584486
Probable space group: P 64 2 2
;
_chemical_formula_sum "Si O2"
_cell_formula_units_Z 66
_cell_length_a 20.522252
_cell_length_b 20.522252
_cell_length_c 9.304784
_cell_angle_alpha 90.000000
_cell_angle_beta 90.000000
_cell_angle_gamma 120.000000
_cell_volume 3393.805584
_symmetry_space_group_name_H-M "P 64 2 2"
_symmetry_group_IT_number 181
_symmetry_cell_setting 'hexagonal'
loop_
_space_group_symop_operation_xyz
x,y,z
x-y,x,2/3+z
-y,x-y,1/3+z
-x,-y,z
-x+y,-x,2/3+z
y,-x+y,1/3+z
x-y,-y,-z
-x,-x+y,2/3-z
y,x,1/3-z
-y,-x,1/3-z
-x+y,y,-z
x,x-y,2/3-z
loop_
_atom_site_type_symbol
_atom_site_label
_atom_site_fract_x
_atom_site_fract_y
_atom_site_fract_z
Si Si1 0.510304 0.686937 0.909484
Si Si2 0.565415 0.206235 0.356776
Si Si3 0.613357 0.918905 0.011638
Si Si4 0.386555 0.169021 0.498826
Si Si5 0.590796 0.043444 0.721488
Si Si6 0.325808 0.325808 0.166667
O O1 0.500789 0.750395 0.833334
O O2 0.568127 0.678968 0.803802
O O3 0.426825 0.615672 0.912776
O O4 0.545275 0.720091 0.066773
O O5 0.613301 0.226601 0.500000
O O6 0.552632 0.276316 0.333334
O O7 0.494343 0.122936 0.361753
O O8 0.631363 0.857870 0.080574
O O9 0.561293 0.934415 0.121102
O O10 0.687246 0.000000 0.000000
O O11 0.397330 0.198665 0.333334
O O12 0.327270 0.079335 0.496825
O O13 0.625116 0.999683 0.635966
O O14 0.500000 0.000000 0.716322
#
# Coordination Sequence:
#
# PCOD9584486 Si02
#       6
#    12  12  12  12  12   6
#     4  10  24  43  61  90 131 173 225 285 343 404
#     4  12  27  40  62  88 128 174 234 287 346 405
#     4  11  24  43  68  96 133 176 220 283 350 407
#     4  11  23  42  72  96 131 172 224 278 340 406
#     4  12  25  41  66  95 131 176 233 288 350 415
#     4  12  23  40  68  98 130 175 222 286 332 410
#
# _framework density 19.447196000000002
#
# number of rings (size 3 to 8) (size 9 to 14) (size 15 to 20)
#    0.000    0.727    1.818    6.273    7.636    2.545 
#    0.000    0.000    0.000    0.000    0.000    0.000 
#    0.000    2.182    0.000    0.000    0.000    0.000 
#
# Total GULP energy -368302.338022 kJ/mol
# GULP energy per Si atom -5580.338455 kJ/mol
# Density = 1.940293 g / cm^3
# Si number density = 19.447196 Si / 1000 Ang^3
#
#
#
# Elastic Constant Matrix: (Units=GPa)
#
#
# Indices 1 2 3 4 5 6 
#
# 1 137.1490 75.0364 49.2077 0.0000 0.0000 0.0000
# 2 75.0364 137.1490 49.2077 0.0000 0.0000 0.0000
# 3 49.2077 49.2077 121.4117 0.0000 0.0000 0.0000
# 4 0.0000 0.0000 0.0000 28.3656 0.0000 0.0000
# 5 0.0000 0.0000 0.0000 0.0000 28.3656 0.0000
# 6 0.0000 0.0000 0.0000 0.0000 0.0000 31.0563
#
#
#
# Elastic Compliance Matrix: (Units=1/GPa)
#
#
# Indices 1 2 3 4 5 6 
#
# 1 0.010952 -0.005148 -0.002352 0.000000 0.000000 0.000000
# 2 -0.005148 0.010952 -0.002352 0.000000 0.000000 0.000000
# 3 -0.002352 -0.002352 0.010143 0.000000 0.000000 0.000000
# 4 0.000000 0.000000 0.000000 0.035254 0.000000 0.000000
# 5 0.000000 0.000000 0.000000 0.000000 0.035254 0.000000
# 6 0.000000 0.000000 0.000000 0.000000 0.000000 0.032200
#
#
# Mechanical properties :
#
#
# Convention : Reuss Voigt Hill
#
# Bulk Modulus (GPa) = 81.02548 82.51260 81.76904
# Shear Modulus (GPa) = 31.53115 32.37470 31.95293
#
# Velocity S-wave (km/s) = 4.03100 4.08456 4.05787
# Velocity P-wave (km/s) = 7.96367 8.04773 8.00581
#
# Compressibility (1/GPa) = 0.01234180
#
# Stress axis : x y z
#
# Youngs Moduli (GPa) = 91.30880 91.30880 98.58828
#
# Poissons Ratio (x) = 0.47005 0.23191
# Poissons Ratio (y) = 0.47005 0.23191
# Poissons Ratio (z) = 0.21479 0.21479
#
# Static dielectric constant tensor:
#      x y z
#    x 1.734530 0.000000 0.000000 
#    y 0.000000 1.734530 0.000000 
#    z 0.000000 0.000000 1.800080 
# 
# From -- ./inp_files/3200.got.cif
#   From: 2010.05.17/outbox.cif.g08.bks.cpg/sg181_2_cif.got.tgz:3200.got - 2010.05.20 11:51:17.
