data_PCOD9584364
_publ_section_title
;
Structure prediction by ZEFSAII (Michael W. Deem and Ramdas Pophale) SiO2 
 PCOD9584364
Probable space group: P 64 2 2
;
_chemical_formula_sum "Si O2"
_cell_formula_units_Z 75
_cell_length_a 12.432196
_cell_length_b 12.432196
_cell_length_c 28.681046
_cell_angle_alpha 90.000000
_cell_angle_beta 90.000000
_cell_angle_gamma 120.000000
_cell_volume 3839.028308
_symmetry_space_group_name_H-M "P 64 2 2"
_symmetry_group_IT_number 181
_symmetry_cell_setting 'hexagonal'
loop_
_space_group_symop_operation_xyz
x,y,z
x-y,x,2/3+z
-y,x-y,1/3+z
-x,-y,z
-x+y,-x,2/3+z
y,-x+y,1/3+z
x-y,-y,-z
-x,-x+y,2/3-z
y,x,1/3-z
-y,-x,1/3-z
-x+y,y,-z
x,x-y,2/3-z
loop_
_atom_site_type_symbol
_atom_site_label
_atom_site_fract_x
_atom_site_fract_y
_atom_site_fract_z
Si Si1 0.681875 0.834279 0.555315
Si Si2 0.185389 0.881567 0.550978
Si Si3 0.555406 0.869194 0.022196
Si Si4 0.000000 0.000000 0.333334
Si Si5 0.827479 0.512208 0.044447
Si Si6 0.920623 0.815409 0.582071
Si Si7 0.424707 0.115073 0.711599
O O1 0.648239 0.831374 0.501024
O O2 0.585260 0.723978 0.589790
O O3 0.811241 0.833282 0.561687
O O4 0.717882 0.976832 0.565601
O O5 0.202721 0.792247 0.585878
O O6 0.050146 0.870980 0.554960
O O7 0.429302 0.858603 0.000000
O O8 0.565933 0.757860 0.000357
O O9 0.660407 0.000000 0.000000
O O10 0.922011 0.038058 0.299103
O O11 0.829822 0.392951 0.064354
O O12 0.971367 0.605630 0.031890
O O13 0.739500 0.478999 0.000000
O O14 0.873377 0.670198 0.587535
#
# Coordination Sequence:
#
# PCOD9584364 Si02
#       7
#    12  12  12   3  12  12  12
#     4  11  20  38  58  92 133 161 207 274 339 419
#     4  10  22  34  61  91 128 170 206 268 349 403
#     4  11  22  37  59  86 119 162 216 268 328 388
#     4  12  20  28  58 100 134 164 210 272 326 400
#     4  10  21  38  61  87 119 162 218 264 313 383
#     4  11  20  32  56  93 130 171 203 264 343 404
#     4  10  21  36  58  86 118 156 211 266 316 380
#
# _framework density 19.536192
#
# number of rings (size 3 to 8) (size 9 to 14) (size 15 to 20)
#    0.000    1.440    3.200    2.880    4.480    1.280 
#    0.000    6.400    0.000    2.880    0.000   11.200 
#    0.000    0.000    0.000    0.000    0.000    0.000 
#
# Total GULP energy -417791.371405 kJ/mol
# GULP energy per Si atom -5570.551619 kJ/mol
# Density = 1.949173 g / cm^3
# Si number density = 19.536192 Si / 1000 Ang^3
#
#
#
# Elastic Constant Matrix: (Units=GPa)
#
#
# Indices 1 2 3 4 5 6 
#
# 1 74.0731 46.0772 42.6939 0.0000 0.0000 0.0000
# 2 46.0772 74.0731 42.6939 0.0000 0.0000 0.0000
# 3 42.6939 42.6939 79.6421 0.0000 0.0000 0.0000
# 4 0.0000 0.0000 0.0000 9.3239 0.0000 0.0000
# 5 0.0000 0.0000 0.0000 0.0000 9.3239 0.0000
# 6 0.0000 0.0000 0.0000 0.0000 0.0000 13.9980
#
#
#
# Elastic Compliance Matrix: (Units=1/GPa)
#
#
# Indices 1 2 3 4 5 6 
#
# 1 0.024582 -0.011137 -0.007208 0.000000 0.000000 0.000000
# 2 -0.011137 0.024582 -0.007208 0.000000 0.000000 0.000000
# 3 -0.007208 -0.007208 0.020284 0.000000 0.000000 0.000000
# 4 0.000000 0.000000 0.000000 0.107252 0.000000 0.000000
# 5 0.000000 0.000000 0.000000 0.000000 0.107252 0.000000
# 6 0.000000 0.000000 0.000000 0.000000 0.000000 0.071439
#
#
# Mechanical properties :
#
#
# Convention : Reuss Voigt Hill
#
# Bulk Modulus (GPa) = 54.51449 54.52426 54.51938
# Shear Modulus (GPa) = 12.11798 12.95070 12.53434
#
# Velocity S-wave (km/s) = 2.49325 2.57749 2.53572
# Velocity P-wave (km/s) = 6.02107 6.06860 6.04488
#
# Compressibility (1/GPa) = 0.01834375
#
# Stress axis : x y z
#
# Youngs Moduli (GPa) = 40.67970 40.67970 49.30063
#
# Poissons Ratio (x) = 0.45306 0.35534
# Poissons Ratio (y) = 0.45306 0.35534
# Poissons Ratio (z) = 0.29320 0.29320
#
# Static dielectric constant tensor:
#      x y z
#    x 1.720380 0.000000 0.000000 
#    y 0.000000 1.720380 0.000000 
#    z 0.000000 0.000000 1.685470 
# 
# From -- ./inp_files/12393.got.cif
#   From: 2010.05.17/outbox.cif.g08.bks.cpg/sg181_7_cif.got.tgz:12393.got - 2010.05.20 11:51:17.
