data_PCOD9584200
_publ_section_title
;
Structure prediction by ZEFSAII (Michael W. Deem and Ramdas Pophale) SiO2 
 PCOD9584200
Probable space group: P 64 2 2
;
_chemical_formula_sum "Si O2"
_cell_formula_units_Z 66
_cell_length_a 20.428569
_cell_length_b 20.428569
_cell_length_c 10.111432
_cell_angle_alpha 90.000000
_cell_angle_beta 90.000000
_cell_angle_gamma 120.000000
_cell_volume 3654.426141
_symmetry_space_group_name_H-M "P 64 2 2"
_symmetry_group_IT_number 181
_symmetry_cell_setting 'hexagonal'
loop_
_space_group_symop_operation_xyz
x,y,z
x-y,x,2/3+z
-y,x-y,1/3+z
-x,-y,z
-x+y,-x,2/3+z
y,-x+y,1/3+z
x-y,-y,-z
-x,-x+y,2/3-z
y,x,1/3-z
-y,-x,1/3-z
-x+y,y,-z
x,x-y,2/3-z
loop_
_atom_site_type_symbol
_atom_site_label
_atom_site_fract_x
_atom_site_fract_y
_atom_site_fract_z
Si Si1 0.425378 0.212689 0.333334
Si Si2 0.071168 0.928833 0.166667
Si Si3 0.242635 0.000000 0.500000
Si Si4 0.509265 0.870910 0.496716
Si Si5 0.991802 0.422562 0.052098
Si Si6 0.799631 0.878098 0.547655
Si Si7 0.955235 0.679621 0.104554
O O1 0.469763 0.190334 0.441515
O O2 0.373885 0.240357 0.407622
O O3 0.089533 0.898195 0.298437
O O4 0.980805 0.883037 0.161027
O O5 0.232648 0.072664 0.484122
O O6 0.284816 0.000978 0.367306
O O7 0.419887 0.839774 0.500000
O O8 0.540391 0.913500 0.637569
O O9 0.545228 0.940231 0.390719
O O10 0.000000 0.500000 0.108521
O O11 0.009147 0.371073 0.149767
O O12 0.747432 0.789379 0.520988
#
# Coordination Sequence:
#
# PCOD9584200 Si02
#       7
#     6   6   6  12  12  12  12
#     4  10  16  24  42  74 103 126 166 202 263 334
#     4  10  24  39  50  64  98 146 198 226 272 326
#     4  12  20  33  49  78 106 140 176 232 290 322
#     4   8  14  24  38  62 104 140 163 198 257 327
#     4   8  15  27  43  67 106 139 157 203 270 331
#     4  11  22  37  51  70 101 143 186 237 272 327
#     4  11  19  29  50  78 108 133 171 224 282 333
#
# _framework density 18.060290999999999
#
# number of rings (size 3 to 8) (size 9 to 14) (size 15 to 20)
#    0.000    2.182    3.636    3.273    0.000    0.364 
#    0.000    1.818    0.000    0.000    0.000    2.545 
#   60.000    0.000    0.000    0.000    0.000    0.000 
#
# Total GULP energy -367554.386475 kJ/mol
# GULP energy per Si atom -5569.005856 kJ/mol
# Density = 1.801918 g / cm^3
# Si number density = 18.060291 Si / 1000 Ang^3
#
#
#
# Elastic Constant Matrix: (Units=GPa)
#
#
# Indices 1 2 3 4 5 6 
#
# 1 99.9825 51.5410 16.7304 0.0000 0.0000 0.0000
# 2 51.5410 99.9825 16.7304 0.0000 0.0000 0.0000
# 3 16.7304 16.7304 46.0390 0.0000 0.0000 0.0000
# 4 0.0000 0.0000 0.0000 11.4774 0.0000 0.0000
# 5 0.0000 0.0000 0.0000 0.0000 11.4774 0.0000
# 6 0.0000 0.0000 0.0000 0.0000 0.0000 24.2208
#
#
#
# Elastic Compliance Matrix: (Units=1/GPa)
#
#
# Indices 1 2 3 4 5 6 
#
# 1 0.013909 -0.006734 -0.002608 0.000000 0.000000 0.000000
# 2 -0.006734 0.013909 -0.002608 0.000000 0.000000 0.000000
# 3 -0.002608 -0.002608 0.023616 0.000000 0.000000 0.000000
# 4 0.000000 0.000000 0.000000 0.087128 0.000000 0.000000
# 5 0.000000 0.000000 0.000000 0.000000 0.087128 0.000000
# 6 0.000000 0.000000 0.000000 0.000000 0.000000 0.041287
#
#
# Mechanical properties :
#
#
# Convention : Reuss Voigt Hill
#
# Bulk Modulus (GPa) = 36.31527 46.22308 41.26918
# Shear Modulus (GPa) = 16.66363 20.16858 18.41611
#
# Velocity S-wave (km/s) = 3.04084 3.34539 3.19674
# Velocity P-wave (km/s) = 5.69916 6.36957 6.04367
#
# Compressibility (1/GPa) = 0.02753662
#
# Stress axis : x y z
#
# Youngs Moduli (GPa) = 71.89360 71.89360 42.34442
#
# Poissons Ratio (x) = 0.48413 0.11041
# Poissons Ratio (y) = 0.48413 0.11041
# Poissons Ratio (z) = 0.18747 0.18747
#
# Static dielectric constant tensor:
#      x y z
#    x 1.673180 0.000000 0.000000 
#    y 0.000000 1.673180 0.000000 
#    z 0.000000 0.000000 1.649830 
# 
# From -- ./inp_files/5006.got.cif
#   From: 2010.05.17/outbox.cif.g08.bks.cpg/sg181_3_cif.got.tgz:5006.got - 2010.05.20 11:51:17.
