data_PCOD9584072
_publ_section_title
;
Structure prediction by ZEFSAII (Michael W. Deem and Ramdas Pophale) SiO2 
 PCOD9584072
Probable space group: P 62 2 2
;
_chemical_formula_sum "Si O2"
_cell_formula_units_Z 60
_cell_length_a 11.372490
_cell_length_b 11.372490
_cell_length_c 26.903312
_cell_angle_alpha 90.000000
_cell_angle_beta 90.000000
_cell_angle_gamma 120.000000
_cell_volume 3013.335633
_symmetry_space_group_name_H-M "P 62 2 2"
_symmetry_group_IT_number 180
_symmetry_cell_setting 'hexagonal'
loop_
_space_group_symop_operation_xyz
x,y,z
x-y,x,1/3+z
-y,x-y,2/3+z
-x,-y,z
-x+y,-x,1/3+z
y,-x+y,2/3+z
x-y,-y,-z
-x,-x+y,1/3-z
y,x,2/3-z
-y,-x,2/3-z
-x+y,y,-z
x,x-y,1/3-z
loop_
_atom_site_type_symbol
_atom_site_label
_atom_site_fract_x
_atom_site_fract_y
_atom_site_fract_z
Si Si1 0.311322 0.857018 0.702493
Si Si2 0.853987 0.308191 0.785731
Si Si3 0.380304 0.030155 0.406091
Si Si4 0.561771 0.838867 0.740946
Si Si5 0.274943 0.445790 0.192605
O O1 0.177069 0.754260 0.731064
O O2 0.308594 0.882593 0.644540
O O3 0.422021 0.810212 0.714449
O O4 0.352789 0.000727 0.729245
O O5 0.787690 0.212311 0.833334
O O6 0.788973 0.406204 0.787063
O O7 0.012038 0.370860 0.795180
O O8 0.376051 0.127380 0.448693
O O9 0.500000 0.000000 0.420381
O O10 0.250474 0.882085 0.393475
O O11 0.543062 0.814865 0.799970
#
# Coordination Sequence:
#
# PCOD9584072 Si02
#       5
#    12  12  12  12  12
#     4  11  22  40  69  91 123 180 217 261 329 399
#     4  11  20  41  68  92 127 165 224 261 318 407
#     4  12  26  38  61 100 138 163 212 281 338 375
#     4  11  21  41  64  93 130 170 219 259 327 405
#     4  11  24  39  65 103 122 169 216 275 329 385
#
# _framework density 19.911489
#
# number of rings (size 3 to 8) (size 9 to 14) (size 15 to 20)
#    0.000    0.800    6.000    3.600    0.000    4.000 
#    0.000    3.000    0.000    2.400    0.000    0.000 
#    0.000    0.000    0.000    0.000    0.000    0.000 
#
# Total GULP energy -334591.029781 kJ/mol
# GULP energy per Si atom -5576.517163 kJ/mol
# Density = 1.986617 g / cm^3
# Si number density = 19.911489 Si / 1000 Ang^3
#
#
#
# Elastic Constant Matrix: (Units=GPa)
#
#
# Indices 1 2 3 4 5 6 
#
# 1 64.0232 16.0016 25.8554 0.0000 0.0000 0.0000
# 2 16.0016 64.0232 25.8554 0.0000 0.0000 0.0000
# 3 25.8554 25.8554 106.1714 0.0000 0.0000 0.0000
# 4 0.0000 0.0000 0.0000 39.9654 0.0000 0.0000
# 5 0.0000 0.0000 0.0000 0.0000 39.9654 0.0000
# 6 0.0000 0.0000 0.0000 0.0000 0.0000 24.0108
#
#
#
# Elastic Compliance Matrix: (Units=1/GPa)
#
#
# Indices 1 2 3 4 5 6 
#
# 1 0.017827 -0.002997 -0.003611 0.000000 0.000000 0.000000
# 2 -0.002997 0.017827 -0.003611 0.000000 0.000000 0.000000
# 3 -0.003611 -0.003611 0.011178 0.000000 0.000000 0.000000
# 4 0.000000 0.000000 0.000000 0.025022 0.000000 0.000000
# 5 0.000000 0.000000 0.000000 0.000000 0.025022 0.000000
# 6 0.000000 0.000000 0.000000 0.000000 0.000000 0.041648
#
#
# Mechanical properties :
#
#
# Convention : Reuss Voigt Hill
#
# Bulk Modulus (GPa) = 37.89095 41.07141 39.48118
# Shear Modulus (GPa) = 29.80455 31.88868 30.84662
#
# Velocity S-wave (km/s) = 3.87311 4.00624 3.94024
# Velocity P-wave (km/s) = 6.25079 6.48627 6.36962
#
# Compressibility (1/GPa) = 0.02639153
#
# Stress axis : x y z
#
# Youngs Moduli (GPa) = 56.09512 56.09512 89.46406
#
# Poissons Ratio (x) = 0.16812 0.32309
# Poissons Ratio (y) = 0.16812 0.32309
# Poissons Ratio (z) = 0.20258 0.20258
#
# Static dielectric constant tensor:
#      x y z
#    x 1.698280 0.000000 0.000000 
#    y 0.000000 1.698280 0.000000 
#    z 0.000000 0.000000 1.708300 
# 
# From -- ./inp_files/11176.got.cif
#   From: 2010.05.17/outbox.cif.g08.bks.cpg/sg180_6_cif.got.tgz:11176.got - 2010.05.20 11:43:55.
