data_PCOD9584675
_publ_section_title
;
Structure prediction by ZEFSAII (Michael W. Deem and Ramdas Pophale) SiO2 
 PCOD9584675
Probable space group: P 63 2 2
;
_chemical_formula_sum "Si O2"
_cell_formula_units_Z 30
_cell_length_a 16.305291
_cell_length_b 16.305291
_cell_length_c 5.660192
_cell_angle_alpha 90.000000
_cell_angle_beta 90.000000
_cell_angle_gamma 120.000000
_cell_volume 1303.223501
_symmetry_space_group_name_H-M "P 63 2 2"
_symmetry_group_IT_number 182
_symmetry_cell_setting 'hexagonal'
loop_
_space_group_symop_operation_xyz
x,y,z
x-y,x,1/2+z
-y,x-y,z
-x,-y,1/2+z
-x+y,-x,z
y,-x+y,1/2+z
x-y,-y,-z
-x,-x+y,-z
y,x,-z
-y,-x,1/2-z
-x+y,y,1/2-z
x,x-y,1/2-z
loop_
_atom_site_type_symbol
_atom_site_label
_atom_site_fract_x
_atom_site_fract_y
_atom_site_fract_z
Si Si1 0.604079 0.208157 0.250000
Si Si2 0.683190 0.683190 0.500000
Si Si3 0.852850 0.322541 0.859755
Si Si4 0.171292 0.342584 0.750000
O O1 0.716367 0.283634 0.250000
O O2 0.593467 0.149784 0.488891
O O3 0.657072 0.596091 0.683230
O O4 0.706285 0.783188 0.604285
O O5 0.748284 0.251717 0.750000
O O6 0.856516 0.256267 0.065072
#
# Coordination Sequence:
#
# PCOD9584675 Si02
#       4
#     6   6  12   6
#     4  10  21  40  68 102 138 202 254 306 358 446
#     4  10  22  38  74 100 144 180 234 316 374 450
#     4  10  21  40  68 103 142 182 250 305 368 440
#     4  10  19  42  68  98 138 180 232 294 368 446
#
# _framework density 23.019845
#
# number of rings (size 3 to 8) (size 9 to 14) (size 15 to 20)
#    0.400    1.600    2.000    1.200    0.000    1.600 
#    0.000    0.000    8.800   24.000    0.000    0.000 
#  630.000    0.000    0.000    0.000    0.000    0.000 
#
# Total GULP energy -167103.201240 kJ/mol
# GULP energy per Si atom -5570.106708 kJ/mol
# Density = 2.296745 g / cm^3
# Si number density = 23.019845 Si / 1000 Ang^3
#
#
#
# Elastic Constant Matrix: (Units=GPa)
#
#
# Indices 1 2 3 4 5 6 
#
# 1 87.3463 63.2125 32.6293 0.0000 0.0000 0.0000
# 2 63.2125 87.3463 32.6293 0.0000 0.0000 0.0000
# 3 32.6293 32.6293 105.6942 0.0000 0.0000 0.0000
# 4 0.0000 0.0000 0.0000 24.6819 0.0000 0.0000
# 5 0.0000 0.0000 0.0000 0.0000 24.6819 0.0000
# 6 0.0000 0.0000 0.0000 0.0000 0.0000 12.0669
#
#
#
# Elastic Compliance Matrix: (Units=1/GPa)
#
#
# Indices 1 2 3 4 5 6 
#
# 1 0.024552 -0.016884 -0.002367 0.000000 0.000000 0.000000
# 2 -0.016884 0.024552 -0.002367 0.000000 0.000000 0.000000
# 3 -0.002367 -0.002367 0.010923 0.000000 0.000000 0.000000
# 4 0.000000 0.000000 0.000000 0.040516 0.000000 0.000000
# 5 0.000000 0.000000 0.000000 0.000000 0.040516 0.000000
# 6 0.000000 0.000000 0.000000 0.000000 0.000000 0.082871
#
#
# Mechanical properties :
#
#
# Convention : Reuss Voigt Hill
#
# Bulk Modulus (GPa) = 59.55949 59.70324 59.63136
# Shear Modulus (GPa) = 18.33099 22.41384 20.37242
#
# Velocity S-wave (km/s) = 2.82496 3.12376 2.97811
# Velocity P-wave (km/s) = 6.04730 6.24519 6.14704
#
# Compressibility (1/GPa) = 0.01678993
#
# Stress axis : x y z
#
# Youngs Moduli (GPa) = 40.73019 40.73019 91.55129
#
# Poissons Ratio (x) = 0.68768 0.21672
# Poissons Ratio (y) = 0.68768 0.21672
# Poissons Ratio (z) = 0.09642 0.09642
#
# Static dielectric constant tensor:
#      x y z
#    x 1.882260 0.000000 0.000000 
#    y 0.000000 1.882260 0.000000 
#    z 0.000000 0.000000 2.088300 
# 
# From -- ./inp_files/205.got.cif
#   From: 2010.05.17/outbox.cif.g08.bks.cpg/sg182_1_cif.got.tgz:205.got - 2010.05.20 11:58:53.
