data_PCOD9584737
_publ_section_title
;
Structure prediction by ZEFSAII (Michael W. Deem and Ramdas Pophale) SiO2 
 PCOD9584737
Probable space group: P 63 2 2
;
_chemical_formula_sum "Si O2"
_cell_formula_units_Z 74
_cell_length_a 15.300375
_cell_length_b 15.300375
_cell_length_c 21.701669
_cell_angle_alpha 90.000000
_cell_angle_beta 90.000000
_cell_angle_gamma 120.000000
_cell_volume 4399.749162
_symmetry_space_group_name_H-M "P 63 2 2"
_symmetry_group_IT_number 182
_symmetry_cell_setting 'hexagonal'
loop_
_space_group_symop_operation_xyz
x,y,z
x-y,x,1/2+z
-y,x-y,z
-x,-y,1/2+z
-x+y,-x,z
y,-x+y,1/2+z
x-y,-y,-z
-x,-x+y,-z
y,x,-z
-y,-x,1/2-z
-x+y,y,1/2-z
x,x-y,1/2-z
loop_
_atom_site_type_symbol
_atom_site_label
_atom_site_fract_x
_atom_site_fract_y
_atom_site_fract_z
Si Si1 0.800100 0.001082 0.734288
Si Si2 0.090804 0.347562 0.125464
Si Si3 0.444622 0.547378 0.324175
Si Si4 0.666668 0.333334 0.675579
Si Si5 0.000000 0.000000 0.924407
Si Si6 0.045965 0.706214 0.151435
Si Si7 0.839652 0.782818 0.436441
Si Si8 0.737063 0.000000 0.500000
O O1 0.915276 0.084725 0.750000
O O2 0.773169 0.019569 0.665460
O O3 0.733381 0.027829 0.779849
O O4 0.782949 0.891475 0.750000
O O5 0.079860 0.438242 0.154086
O O6 0.202365 0.360363 0.132740
O O7 0.061976 0.340665 0.053790
O O8 0.451600 0.548401 0.250000
O O9 0.402892 0.621603 0.343532
O O10 0.557859 0.599567 0.350129
O O11 0.666668 0.333334 0.750000
O O12 0.096356 0.105254 0.906307
O O13 0.000000 0.000000 0.000000
O O14 0.963888 0.713789 0.108986
O O15 0.791392 0.791392 0.500000
O O16 0.921820 0.755810 0.460460
#
# Coordination Sequence:
#
# PCOD9584737 Si02
#       8
#    12  12  12   4   4  12  12   6
#     4  10  21  35  52  81 119 151 182 229 286 340
#     4  11  22  36  55  81 113 150 190 235 284 343
#     4  11  20  37  58  84 110 138 183 241 306 347
#     4   9  18  27  60  81 105 141 165 225 307 350
#     4   9  15  30  51  78 108 163 201 205 248 331
#     4  11  21  34  57  84 111 146 191 239 284 340
#     4  11  18  32  54  82 117 157 192 221 260 338
#     4  12  22  38  54  80 122 164 196 222 274 342
#
# _framework density 16.819141999999999
#
# number of rings (size 3 to 8) (size 9 to 14) (size 15 to 20)
#    0.000    1.297    7.297    1.135    0.000    1.297 
#    1.459    0.000    0.000    0.000    0.000    0.000 
#   22.703    0.000    0.000    0.000    0.000    0.000 
#
# Total GULP energy -412751.255670 kJ/mol
# GULP energy per Si atom -5577.719671 kJ/mol
# Density = 1.678086 g / cm^3
# Si number density = 16.819142 Si / 1000 Ang^3
#
#
#
# Elastic Constant Matrix: (Units=GPa)
#
#
# Indices 1 2 3 4 5 6 
#
# 1 71.6996 41.8081 29.9602 0.0000 0.0000 0.0000
# 2 41.8081 71.6993 29.9602 0.0000 0.0000 -0.0001
# 3 29.9602 29.9602 91.0467 0.0000 0.0000 -0.0001
# 4 0.0000 0.0000 0.0000 18.8890 0.0000 0.0000
# 5 0.0000 0.0000 0.0000 0.0000 18.8891 0.0000
# 6 0.0000 -0.0001 -0.0001 0.0000 0.0000 14.9457
#
#
#
# Elastic Compliance Matrix: (Units=1/GPa)
#
#
# Indices 1 2 3 4 5 6 
#
# 1 0.022058 -0.011396 -0.003508 0.000000 0.000000 0.000000
# 2 -0.011396 0.022058 -0.003509 0.000000 0.000000 0.000000
# 3 -0.003508 -0.003509 0.013292 0.000000 0.000000 0.000000
# 4 0.000000 0.000000 0.000000 0.052941 0.000000 0.000000
# 5 0.000000 0.000000 0.000000 0.000000 0.052941 0.000000
# 6 0.000000 0.000000 0.000000 0.000000 0.000000 0.066909
#
#
# Mechanical properties :
#
#
# Convention : Reuss Voigt Hill
#
# Bulk Modulus (GPa) = 48.58473 48.65583 48.62028
# Shear Modulus (GPa) = 18.25571 19.39256 18.82413
#
# Velocity S-wave (km/s) = 3.29813 3.39928 3.34909
# Velocity P-wave (km/s) = 6.59188 6.66321 6.62764
#
# Compressibility (1/GPa) = 0.02058260
#
# Stress axis : x y z
#
# Youngs Moduli (GPa) = 45.33452 45.33424 75.23079
#
# Poissons Ratio (x) = 0.51664 0.26395
# Poissons Ratio (y) = 0.51664 0.26395
# Poissons Ratio (z) = 0.15906 0.15906
#
# Static dielectric constant tensor:
#      x y z
#    x 1.586070 0.000000 0.000000 
#    y 0.000000 1.586080 0.000000 
#    z 0.000000 0.000000 1.612940 
# 
# From -- ./inp_files/4974.got.cif
#   From: 2010.05.17/outbox.cif.g08.bks.cpg/sg182_3_cif.got.tgz:4974.got - 2010.05.20 11:58:53.
