data_PCOD9584010
_publ_section_title
;
Structure prediction by ZEFSAII (Michael W. Deem and Ramdas Pophale) SiO2 
 PCOD9584010
Probable space group: P 62 2 2
;
_chemical_formula_sum "Si O2"
_cell_formula_units_Z 54
_cell_length_a 12.077842
_cell_length_b 12.077842
_cell_length_c 21.250485
_cell_angle_alpha 90.000000
_cell_angle_beta 90.000000
_cell_angle_gamma 120.000000
_cell_volume 2684.591223
_symmetry_space_group_name_H-M "P 62 2 2"
_symmetry_group_IT_number 180
_symmetry_cell_setting 'hexagonal'
loop_
_space_group_symop_operation_xyz
x,y,z
x-y,x,1/3+z
-y,x-y,2/3+z
-x,-y,z
-x+y,-x,1/3+z
y,-x+y,2/3+z
x-y,-y,-z
-x,-x+y,1/3-z
y,x,2/3-z
-y,-x,2/3-z
-x+y,y,-z
x,x-y,1/3-z
loop_
_atom_site_type_symbol
_atom_site_label
_atom_site_fract_x
_atom_site_fract_y
_atom_site_fract_z
Si Si1 0.174430 0.825571 0.333334
Si Si2 0.065434 0.150459 0.099830
Si Si3 0.932087 0.295854 0.867463
Si Si4 0.789011 0.394506 0.666667
Si Si5 0.000000 0.500000 0.562097
Si Si6 0.427855 0.870957 0.684015
O O1 0.182972 0.933669 0.381464
O O2 0.150807 0.696739 0.368609
O O3 0.217624 0.210276 0.110204
O O4 0.000000 0.146132 0.166667
O O5 0.000000 0.000000 0.080323
O O6 0.800912 0.199089 0.833334
O O7 0.899101 0.364906 0.922817
O O8 0.017600 0.402998 0.816197
O O9 0.689711 0.247396 0.651301
O O10 0.880185 0.461152 0.607685
O O11 0.500000 0.000000 0.643811
#
# Coordination Sequence:
#
# PCOD9584010 Si02
#       6
#     6  12  12   6   6  12
#     4  11  23  41  67  93 135 174 222 272 331 415
#     4  11  23  41  65 101 133 171 225 279 348 406
#     4  12  21  41  64  90 128 172 210 267 336 397
#     4  10  24  37  57 100 120 156 224 266 312 390
#     4  11  22  38  64  92 126 160 211 278 316 374
#     4  11  22  41  63  87 127 178 211 257 334 393
#
# _framework density 20.114795999999998
#
# number of rings (size 3 to 8) (size 9 to 14) (size 15 to 20)
#    0.000    0.889    7.778    0.333    0.000    1.778 
#    0.000    0.000    0.000    0.000    0.000    0.000 
#    0.000    0.000    0.000    0.000    0.000    0.000 
#
# Total GULP energy -300627.259388 kJ/mol
# GULP energy per Si atom -5567.171470 kJ/mol
# Density = 2.006901 g / cm^3
# Si number density = 20.114796 Si / 1000 Ang^3
#
#
#
# Elastic Constant Matrix: (Units=GPa)
#
#
# Indices 1 2 3 4 5 6 
#
# 1 122.8375 42.3609 29.9651 0.0000 0.0000 0.0000
# 2 42.3609 122.8375 29.9651 0.0000 0.0000 0.0000
# 3 29.9651 29.9651 64.7360 0.0000 0.0000 0.0000
# 4 0.0000 0.0000 0.0000 19.4031 0.0000 0.0000
# 5 0.0000 0.0000 0.0000 0.0000 19.4031 0.0000
# 6 0.0000 0.0000 0.0000 0.0000 0.0000 40.2383
#
#
#
# Elastic Compliance Matrix: (Units=1/GPa)
#
#
# Indices 1 2 3 4 5 6 
#
# 1 0.009850 -0.002576 -0.003367 0.000000 0.000000 0.000000
# 2 -0.002576 0.009850 -0.003367 0.000000 0.000000 0.000000
# 3 -0.003367 -0.003367 0.018565 0.000000 0.000000 0.000000
# 4 0.000000 0.000000 0.000000 0.051538 0.000000 0.000000
# 5 0.000000 0.000000 0.000000 0.000000 0.051538 0.000000
# 6 0.000000 0.000000 0.000000 0.000000 0.000000 0.024852
#
#
# Mechanical properties :
#
#
# Convention : Reuss Voigt Hill
#
# Bulk Modulus (GPa) = 50.90367 57.22147 54.06257
# Shear Modulus (GPa) = 26.12833 29.68355 27.90594
#
# Velocity S-wave (km/s) = 3.60802 3.84566 3.72873
# Velocity P-wave (km/s) = 6.53595 6.94464 6.74339
#
# Compressibility (1/GPa) = 0.01964495
#
# Stress axis : x y z
#
# Youngs Moduli (GPa) = 101.51798 101.51798 53.86535
#
# Poissons Ratio (x) = 0.26146 0.18139
# Poissons Ratio (y) = 0.26146 0.18139
# Poissons Ratio (z) = 0.34186 0.34186
#
# Static dielectric constant tensor:
#      x y z
#    x 1.784250 0.000000 0.000000 
#    y 0.000000 1.784250 0.000000 
#    z 0.000000 0.000000 1.745950 
# 
# From -- ./inp_files/10143.got.cif
#   From: 2010.05.17/outbox.cif.g08.bks.cpg/sg180_6_cif.got.tgz:10143.got - 2010.05.20 11:43:55.
