data_PCOD9584408
_publ_section_title
;
Structure prediction by ZEFSAII (Michael W. Deem and Ramdas Pophale) SiO2 
 PCOD9584408
Probable space group: P 64 2 2
;
_chemical_formula_sum "Si O2"
_cell_formula_units_Z 42
_cell_length_a 13.233034
_cell_length_b 13.233034
_cell_length_c 13.442489
_cell_angle_alpha 90.000000
_cell_angle_beta 90.000000
_cell_angle_gamma 120.000000
_cell_volume 2038.586661
_symmetry_space_group_name_H-M "P 64 2 2"
_symmetry_group_IT_number 181
_symmetry_cell_setting 'hexagonal'
loop_
_space_group_symop_operation_xyz
x,y,z
x-y,x,2/3+z
-y,x-y,1/3+z
-x,-y,z
-x+y,-x,2/3+z
y,-x+y,1/3+z
x-y,-y,-z
-x,-x+y,2/3-z
y,x,1/3-z
-y,-x,1/3-z
-x+y,y,-z
x,x-y,2/3-z
loop_
_atom_site_type_symbol
_atom_site_label
_atom_site_fract_x
_atom_site_fract_y
_atom_site_fract_z
Si Si1 0.000000 0.000000 0.000000
Si Si2 0.179678 0.252855 0.265320
Si Si3 0.333179 0.000000 0.000000
Si Si4 0.500000 0.500000 0.512086
Si Si5 0.500000 0.500000 0.166667
Si Si6 0.089675 0.416192 0.009096
O O1 0.968738 0.086026 0.943509
O O2 0.248580 0.248580 0.166667
O O3 0.284231 0.305295 0.345860
O O4 0.100530 0.313375 0.282033
O O5 0.433979 0.047445 0.915795
O O6 0.510394 0.599503 0.436865
O O7 0.523232 0.601803 0.243044
O O8 0.201951 0.403901 0.000000
#
# Coordination Sequence:
#
# PCOD9584408 Si02
#       6
#     3  12   6   6   3  12
#     4  10  22  34  60 120 136 172 208 256 370 460
#     4  11  21  38  68 101 141 173 217 280 353 432
#     4  10  24  42  66  98 144 180 228 288 344 422
#     4  10  24  44  62  94 138 188 232 278 342 398
#     4  10  24  42  64 100 132 174 244 286 338 412
#     4  11  22  42  72  96 133 183 228 292 347 411
#
# _framework density 20.602508
#
# number of rings (size 3 to 8) (size 9 to 14) (size 15 to 20)
#    0.000    1.429    2.857    2.143    0.000    1.143 
#    0.000    5.714    0.000    0.000    0.000    0.000 
#    0.000    0.000    0.000    0.000    0.000    0.000 
#
# Total GULP energy -233837.975677 kJ/mol
# GULP energy per Si atom -5567.570849 kJ/mol
# Density = 2.055562 g / cm^3
# Si number density = 20.602508 Si / 1000 Ang^3
#
#
#
# Elastic Constant Matrix: (Units=GPa)
#
#
# Indices 1 2 3 4 5 6 
#
# 1 100.7833 65.3457 45.8793 0.0000 0.0000 0.0000
# 2 65.3457 100.7833 45.8793 0.0000 0.0000 0.0000
# 3 45.8793 45.8793 114.2393 0.0000 0.0000 0.0000
# 4 0.0000 0.0000 0.0000 41.0650 0.0000 0.0000
# 5 0.0000 0.0000 0.0000 0.0000 41.0650 0.0000
# 6 0.0000 0.0000 0.0000 0.0000 0.0000 17.7188
#
#
#
# Elastic Compliance Matrix: (Units=1/GPa)
#
#
# Indices 1 2 3 4 5 6 
#
# 1 0.017977 -0.010242 -0.003107 0.000000 0.000000 0.000000
# 2 -0.010242 0.017977 -0.003107 0.000000 0.000000 0.000000
# 3 -0.003107 -0.003107 0.011249 0.000000 0.000000 0.000000
# 4 0.000000 0.000000 0.000000 0.024352 0.000000 0.000000
# 5 0.000000 0.000000 0.000000 0.000000 0.024352 0.000000
# 6 0.000000 0.000000 0.000000 0.000000 0.000000 0.056437
#
#
# Mechanical properties :
#
#
# Convention : Reuss Voigt Hill
#
# Bulk Modulus (GPa) = 69.96358 70.00160 69.98259
# Shear Modulus (GPa) = 26.31342 30.54988 28.43165
#
# Velocity S-wave (km/s) = 3.57766 3.85492 3.71888
# Velocity P-wave (km/s) = 7.14834 7.33927 7.24443
#
# Compressibility (1/GPa) = 0.01429315
#
# Stress axis : x y z
#
# Youngs Moduli (GPa) = 55.62678 55.62678 88.89866
#
# Poissons Ratio (x) = 0.56971 0.27617
# Poissons Ratio (y) = 0.56971 0.27617
# Poissons Ratio (z) = 0.17281 0.17281
#
# Static dielectric constant tensor:
#      x y z
#    x 1.665890 0.000000 0.000000 
#    y 0.000000 1.665890 0.000000 
#    z 0.000000 0.000000 1.872630 
# 
# From -- ./inp_files/4296.got.cif
#   From: 2010.05.17/outbox.cif.g08.bks.cpg/sg181_3_cif.got.tgz:4296.got - 2010.05.20 11:51:17.
