data_PCOD9584555
_publ_section_title
;
Structure prediction by ZEFSAII (Michael W. Deem and Ramdas Pophale) SiO2 
 PCOD9584555
Probable space group: P 64 2 2
;
_chemical_formula_sum "Si O2"
_cell_formula_units_Z 84
_cell_length_a 30.290912
_cell_length_b 30.290912
_cell_length_c 5.787169
_cell_angle_alpha 90.000000
_cell_angle_beta 90.000000
_cell_angle_gamma 120.000000
_cell_volume 4598.556167
_symmetry_space_group_name_H-M "P 64 2 2"
_symmetry_group_IT_number 181
_symmetry_cell_setting 'hexagonal'
loop_
_space_group_symop_operation_xyz
x,y,z
x-y,x,2/3+z
-y,x-y,1/3+z
-x,-y,z
-x+y,-x,2/3+z
y,-x+y,1/3+z
x-y,-y,-z
-x,-x+y,2/3-z
y,x,1/3-z
-y,-x,1/3-z
-x+y,y,-z
x,x-y,2/3-z
loop_
_atom_site_type_symbol
_atom_site_label
_atom_site_fract_x
_atom_site_fract_y
_atom_site_fract_z
Si Si1 0.378244 0.238430 0.318128
Si Si2 0.666068 0.412618 0.840818
Si Si3 0.683319 0.654470 0.913069
Si Si4 0.474422 0.272250 0.648538
Si Si5 0.674863 0.121144 0.334000
Si Si6 0.605494 0.467813 0.990637
Si Si7 0.054545 0.450459 0.305491
O O1 0.354367 0.177184 0.333334
O O2 0.345414 0.262835 0.416297
O O3 0.430731 0.256679 0.461177
O O4 0.399093 0.271012 0.078909
O O5 0.632533 0.367468 0.666667
O O6 0.710952 0.468405 0.755793
O O7 0.697643 0.395286 0.000000
O O8 0.625322 0.428598 0.933896
O O9 0.679240 0.679240 0.666667
O O10 0.641416 0.594366 0.873985
O O11 0.673866 0.673866 0.166667
O O12 0.455956 0.227978 0.833334
O O13 0.476811 0.317803 0.792871
O O14 0.651193 0.137083 0.539343
O O15 0.634755 0.068496 0.215800
O O16 0.559172 0.440829 0.166667
O O17 0.593111 0.495355 0.786284
O O18 0.000000 0.445201 0.333334
#
# Coordination Sequence:
#
# PCOD9584555 Si02
#       7
#    12  12  12  12  12  12  12
#     4  12  22  36  62  97 124 154 207 254 299 359
#     4  12  26  50  73  89 112 147 184 238 303 377
#     4  11  23  40  63  90 129 175 206 247 316 379
#     4  12  22  38  65  93 116 147 185 241 295 349
#     4  12  20  40  62  90 122 148 190 236 295 352
#     4  12  26  44  68  88 114 148 188 234 292 355
#     4  11  24  40  66  90 124 158 191 234 284 361
#
# _framework density 18.266603
#
# number of rings (size 3 to 8) (size 9 to 14) (size 15 to 20)
#    0.000    0.286    7.143    3.857    0.000    0.000 
#    0.000    5.714    0.000    0.000    0.000    0.000 
#    0.000    0.000    0.000    0.000    0.000    0.000 
#
# Total GULP energy -468396.409362 kJ/mol
# GULP energy per Si atom -5576.147731 kJ/mol
# Density = 1.822503 g / cm^3
# Si number density = 18.266603 Si / 1000 Ang^3
#
#
#
# Elastic Constant Matrix: (Units=GPa)
#
#
# Indices 1 2 3 4 5 6 
#
# 1 66.2627 74.7636 45.5447 0.0000 0.0000 0.0000
# 2 74.7636 66.2627 45.5447 0.0000 0.0000 0.0000
# 3 45.5447 45.5447 90.4182 0.0000 0.0000 0.0000
# 4 0.0000 0.0000 0.0000 33.4378 0.0000 0.0000
# 5 0.0000 0.0000 0.0000 0.0000 33.4378 0.0000
# 6 0.0000 0.0000 0.0000 0.0000 0.0000 -4.2505
#
#
#
# Elastic Compliance Matrix: (Units=1/GPa)
#
#
# Indices 1 2 3 4 5 6 
#
# 1 -0.053562 0.064072 -0.005294 0.000000 0.000000 0.000000
# 2 0.064072 -0.053562 -0.005294 0.000000 0.000000 0.000000
# 3 -0.005294 -0.005294 0.016393 0.000000 0.000000 0.000000
# 4 0.000000 0.000000 0.000000 0.029906 0.000000 0.000000
# 5 0.000000 0.000000 0.000000 0.000000 0.029906 0.000000
# 6 0.000000 0.000000 0.000000 0.000000 0.000000 -0.235269
#
#
# Mechanical properties :
#
#
# Convention : Reuss Voigt Hill
#
# Bulk Modulus (GPa) = 61.58699 61.62778 61.60738
# Shear Modulus (GPa) = -13.59646 16.33107 1.36731
#
# Velocity S-wave (km/s) = -2.73121 2.99329 0.86611
# Velocity P-wave (km/s) = 4.88291 6.76444 5.89917
#
# Compressibility (1/GPa) = 0.01623720
#
# Stress axis : x y z
#
# Youngs Moduli (GPa) = -18.66994 -18.66994 61.00069
#
# Poissons Ratio (x) = 1.19623 0.32295
# Poissons Ratio (y) = 1.19623 0.32295
# Poissons Ratio (z) = -0.09884 -0.09884
#
# Static dielectric constant tensor:
#      x y z
#    x 1.742760 0.000000 0.000000 
#    y 0.000000 1.742760 0.000000 
#    z 0.000000 0.000000 1.710780 
# 
# From -- ./inp_files/1697.got.cif
#   From: 2010.05.17/outbox.cif.g08.bks.cpg/sg181_1_cif.got.tgz:1697.got - 2010.05.20 11:51:17.
