data_PCOD9584830
_publ_section_title
;
Structure prediction by ZEFSAII (Michael W. Deem and Ramdas Pophale) SiO2 
 PCOD9584830
Probable space group: P 63 2 2
;
_chemical_formula_sum "Si O2"
_cell_formula_units_Z 40
_cell_length_a 8.115309
_cell_length_b 8.115309
_cell_length_c 34.003783
_cell_angle_alpha 90.000000
_cell_angle_beta 90.000000
_cell_angle_gamma 120.000000
_cell_volume 1939.402670
_symmetry_space_group_name_H-M "P 63 2 2"
_symmetry_group_IT_number 182
_symmetry_cell_setting 'hexagonal'
loop_
_space_group_symop_operation_xyz
x,y,z
x-y,x,1/2+z
-y,x-y,z
-x,-y,1/2+z
-x+y,-x,z
y,-x+y,1/2+z
x-y,-y,-z
-x,-x+y,-z
y,x,-z
-y,-x,1/2-z
-x+y,y,1/2-z
x,x-y,1/2-z
loop_
_atom_site_type_symbol
_atom_site_label
_atom_site_fract_x
_atom_site_fract_y
_atom_site_fract_z
Si Si1 0.666668 0.333334 0.796898
Si Si2 0.692119 0.998217 0.955583
Si Si3 0.630400 0.000110 0.577045
Si Si4 0.479838 0.564986 0.834902
O O1 0.666668 0.333334 0.750000
O O2 0.579719 0.465179 0.812003
O O3 0.794445 0.201932 0.934729
O O4 0.470697 0.933405 0.954551
O O5 0.721392 0.854221 0.928907
O O6 0.755533 0.000000 0.000000
O O7 0.534954 0.970293 0.619485
O O8 0.536970 0.787279 0.827576
#
# Coordination Sequence:
#
# PCOD9584830 Si02
#       4
#     4  12  12  12
#     4  12  27  48  81 117 147 186 231 291 381 456
#     4  12  23  37  58  89 131 178 235 302 354 414
#     4  12  23  42  62  90 131 182 240 287 364 426
#     4  10  23  49  75 105 148 193 241 299 360 444
#
# _framework density 20.624904999999998
#
# number of rings (size 3 to 8) (size 9 to 14) (size 15 to 20)
#    0.600    0.000    3.000    6.300    0.000    1.200 
#    1.800    0.000    0.000    0.000    0.000    0.000 
#    0.000    0.000    0.000    0.000    0.000    0.000 
#
# Total GULP energy -223044.955136 kJ/mol
# GULP energy per Si atom -5576.123878 kJ/mol
# Density = 2.057796 g / cm^3
# Si number density = 20.624905 Si / 1000 Ang^3
#
#
#
# Elastic Constant Matrix: (Units=GPa)
#
#
# Indices 1 2 3 4 5 6 
#
# 1 122.6756 54.7598 53.0188 0.0000 0.0000 0.0000
# 2 54.7598 122.6749 53.0186 0.0000 0.0000 0.0000
# 3 53.0188 53.0186 137.2597 0.0001 0.0000 0.0001
# 4 0.0000 0.0000 0.0001 19.2303 0.0000 0.0000
# 5 0.0000 0.0000 0.0000 0.0000 19.2304 0.0000
# 6 0.0000 0.0000 0.0001 0.0000 0.0000 33.9578
#
#
#
# Elastic Compliance Matrix: (Units=1/GPa)
#
#
# Indices 1 2 3 4 5 6 
#
# 1 0.011026 -0.003698 -0.002830 0.000000 0.000000 0.000000
# 2 -0.003698 0.011026 -0.002830 0.000000 0.000000 0.000000
# 3 -0.002830 -0.002830 0.009472 0.000000 0.000000 0.000000
# 4 0.000000 0.000000 0.000000 0.052001 0.000000 0.000000
# 5 0.000000 0.000000 0.000000 0.000000 0.052001 0.000000
# 6 0.000000 0.000000 0.000000 0.000000 0.000000 0.029448
#
#
# Mechanical properties :
#
#
# Convention : Reuss Voigt Hill
#
# Bulk Modulus (GPa) = 78.09214 78.24495 78.16854
# Shear Modulus (GPa) = 26.60134 29.27123 27.93628
#
# Velocity S-wave (km/s) = 3.59523 3.77134 3.68434
# Velocity P-wave (km/s) = 7.42829 7.54874 7.48876
#
# Compressibility (1/GPa) = 0.01280539
#
# Stress axis : x y z
#
# Youngs Moduli (GPa) = 90.69712 90.69667 105.57504
#
# Poissons Ratio (x) = 0.33544 0.29881
# Poissons Ratio (y) = 0.33544 0.29881
# Poissons Ratio (z) = 0.25670 0.25670
#
# Static dielectric constant tensor:
#      x y z
#    x 1.813520 0.000000 0.000000 
#    y 0.000000 1.813520 0.000000 
#    z 0.000000 0.000000 1.681950 
# 
# From -- ./inp_files/5615.got.cif
#   From: 2010.05.17/outbox.cif.g08.bks.cpg/sg182_3_cif.got.tgz:5615.got - 2010.05.20 11:58:53.
