data_PCOD9584370
_publ_section_title
;
Structure prediction by ZEFSAII (Michael W. Deem and Ramdas Pophale) SiO2 
 PCOD9584370
Probable space group: P 64 2 2
;
_chemical_formula_sum "Si O2"
_cell_formula_units_Z 54
_cell_length_a 14.500080
_cell_length_b 14.500080
_cell_length_c 15.050249
_cell_angle_alpha 90.000000
_cell_angle_beta 90.000000
_cell_angle_gamma 120.000000
_cell_volume 2740.407286
_symmetry_space_group_name_H-M "P 64 2 2"
_symmetry_group_IT_number 181
_symmetry_cell_setting 'hexagonal'
loop_
_space_group_symop_operation_xyz
x,y,z
x-y,x,2/3+z
-y,x-y,1/3+z
-x,-y,z
-x+y,-x,2/3+z
y,-x+y,1/3+z
x-y,-y,-z
-x,-x+y,2/3-z
y,x,1/3-z
-y,-x,1/3-z
-x+y,y,-z
x,x-y,2/3-z
loop_
_atom_site_type_symbol
_atom_site_label
_atom_site_fract_x
_atom_site_fract_y
_atom_site_fract_z
Si Si1 0.694021 0.512100 0.679847
Si Si2 0.187916 0.375831 0.500000
Si Si3 0.594780 0.797390 0.333334
Si Si4 0.940485 0.287135 0.504686
Si Si5 0.412039 0.841801 0.400034
Si Si6 0.500000 0.500000 0.927393
O O1 0.567829 0.432172 0.666667
O O2 0.751065 0.550345 0.584722
O O3 0.729462 0.616487 0.741100
O O4 0.737590 0.441260 0.728729
O O5 0.246875 0.306416 0.491162
O O6 0.660101 0.866874 0.248611
O O7 0.511792 0.832246 0.367577
O O8 0.946309 0.397720 0.533059
O O9 0.439660 0.879319 0.500000
O O10 0.408792 0.922094 0.328789
#
# Coordination Sequence:
#
# PCOD9584370 Si02
#       6
#    12   6   6  12  12   6
#     4  12  25  38  62  93 132 175 213 254 313 387
#     4  12  26  44  62  90 127 175 218 270 318 384
#     4  10  22  36  62  92 130 164 210 262 318 382
#     4  11  23  42  61  91 127 168 214 267 321 380
#     4  11  20  35  58  90 128 171 207 249 311 374
#     4  10  21  38  59  88 130 162 210 255 299 392
#
# _framework density 19.705100999999999
#
# number of rings (size 3 to 8) (size 9 to 14) (size 15 to 20)
#    0.000    0.889    5.556    2.333    4.667    0.889 
#    0.000    1.111    0.000    0.000    0.000    9.333 
#    0.000    0.000    0.000    0.000    0.000    0.000 
#
# Total GULP energy -301124.399059 kJ/mol
# GULP energy per Si atom -5576.377760 kJ/mol
# Density = 1.966025 g / cm^3
# Si number density = 19.705101 Si / 1000 Ang^3
#
#
#
# Elastic Constant Matrix: (Units=GPa)
#
#
# Indices 1 2 3 4 5 6 
#
# 1 74.1939 27.8523 38.8813 0.0000 0.0000 0.0000
# 2 27.8523 74.1939 38.8813 0.0000 0.0000 0.0000
# 3 38.8813 38.8813 150.3209 0.0000 0.0000 0.0000
# 4 0.0000 0.0000 0.0000 24.0940 0.0000 0.0000
# 5 0.0000 0.0000 0.0000 0.0000 24.0940 0.0000
# 6 0.0000 0.0000 0.0000 0.0000 0.0000 23.1708
#
#
#
# Elastic Compliance Matrix: (Units=1/GPa)
#
#
# Indices 1 2 3 4 5 6 
#
# 1 0.016892 -0.004687 -0.003157 0.000000 0.000000 0.000000
# 2 -0.004687 0.016892 -0.003157 0.000000 0.000000 0.000000
# 3 -0.003157 -0.003157 0.008286 0.000000 0.000000 0.000000
# 4 0.000000 0.000000 0.000000 0.041504 0.000000 0.000000
# 5 0.000000 0.000000 0.000000 0.000000 0.041504 0.000000
# 6 0.000000 0.000000 0.000000 0.000000 0.000000 0.043158
#
#
# Mechanical properties :
#
#
# Convention : Reuss Voigt Hill
#
# Bulk Modulus (GPa) = 49.83018 56.65983 53.24500
# Shear Modulus (GPa) = 25.39017 27.14466 26.26741
#
# Velocity S-wave (km/s) = 3.59347 3.71556 3.65502
# Velocity P-wave (km/s) = 6.52382 6.87193 6.70014
#
# Compressibility (1/GPa) = 0.02006816
#
# Stress axis : x y z
#
# Youngs Moduli (GPa) = 59.19950 59.19950 120.69201
#
# Poissons Ratio (x) = 0.27746 0.38102
# Poissons Ratio (y) = 0.27746 0.38102
# Poissons Ratio (z) = 0.18689 0.18689
#
# Static dielectric constant tensor:
#      x y z
#    x 1.763320 0.000000 0.000000 
#    y 0.000000 1.763320 0.000000 
#    z 0.000000 0.000000 1.720690 
# 
# From -- ./inp_files/6065.got.cif
#   From: 2010.05.17/outbox.cif.g08.bks.cpg/sg181_4_cif.got.tgz:6065.got - 2010.05.20 11:51:17.
