data_PCOD9584111
_publ_section_title
;
Structure prediction by ZEFSAII (Michael W. Deem and Ramdas Pophale) SiO2 
 PCOD9584111
Probable space group: P 62 2 2
;
_chemical_formula_sum "Si O2"
_cell_formula_units_Z 75
_cell_length_a 12.105741
_cell_length_b 12.105741
_cell_length_c 27.420999
_cell_angle_alpha 90.000000
_cell_angle_beta 90.000000
_cell_angle_gamma 120.000000
_cell_volume 3480.139563
_symmetry_space_group_name_H-M "P 62 2 2"
_symmetry_group_IT_number 180
_symmetry_cell_setting 'hexagonal'
loop_
_space_group_symop_operation_xyz
x,y,z
x-y,x,1/3+z
-y,x-y,2/3+z
-x,-y,z
-x+y,-x,1/3+z
y,-x+y,2/3+z
x-y,-y,-z
-x,-x+y,1/3-z
y,x,2/3-z
-y,-x,2/3-z
-x+y,y,-z
x,x-y,1/3-z
loop_
_atom_site_type_symbol
_atom_site_label
_atom_site_fract_x
_atom_site_fract_y
_atom_site_fract_z
Si Si1 0.571989 0.646330 0.561600
Si Si2 0.175627 0.480093 0.046716
Si Si3 0.000000 0.000000 0.000000
Si Si4 0.374195 0.863748 0.948783
Si Si5 0.460915 0.696428 0.470469
Si Si6 0.898394 0.312317 0.056236
Si Si7 0.903079 0.177518 0.957626
O O1 0.500000 0.500000 0.575876
O O2 0.497710 0.710859 0.585809
O O3 0.545077 0.658999 0.505057
O O4 0.713432 0.704487 0.584729
O O5 0.152019 0.595912 0.034109
O O6 0.044074 0.388610 0.073532
O O7 0.212845 0.425690 0.000000
O O8 0.042273 0.917680 0.966074
O O9 0.373354 0.788017 0.900909
O O10 0.247634 0.876321 0.947638
O O11 0.500000 0.000000 0.943983
O O12 0.407065 0.814129 0.000000
O O13 0.365201 0.730401 0.500000
O O14 0.559493 0.808889 0.435312
O O15 0.907758 0.234637 0.011348
#
# Coordination Sequence:
#
# PCOD9584111 Si02
#       7
#    12  12   3  12  12  12  12
#     4  12  25  45  73 114 155 198 253 324 399 467
#     4  11  22  40  68 110 148 195 253 310 395 463
#     4  12  28  52  78 114 148 212 272 330 376 468
#     4  11  24  44  73 108 142 201 269 327 386 460
#     4  12  25  45  71 114 159 196 245 326 413 469
#     4  11  24  41  73 106 154 195 248 324 384 472
#     4  12  25  46  78 110 149 206 271 318 380 479
#
# _framework density 21.550858000000002
#
# number of rings (size 3 to 8) (size 9 to 14) (size 15 to 20)
#    0.000    0.480    4.800    4.320    2.240    0.640 
#    0.000    0.000    0.000    0.960    0.000    0.000 
#    0.000    0.000    0.000    0.000    0.000    0.000 
#
# Total GULP energy -418224.926844 kJ/mol
# GULP energy per Si atom -5576.332358 kJ/mol
# Density = 2.150181 g / cm^3
# Si number density = 21.550858 Si / 1000 Ang^3
#
#
#
# Elastic Constant Matrix: (Units=GPa)
#
#
# Indices 1 2 3 4 5 6 
#
# 1 151.6087 70.2270 47.7881 0.0000 0.0000 0.0000
# 2 70.2270 151.6087 47.7881 0.0000 0.0000 0.0000
# 3 47.7881 47.7881 86.8303 0.0000 0.0000 0.0000
# 4 0.0000 0.0000 0.0000 203.4038 0.0000 0.0000
# 5 0.0000 0.0000 0.0000 0.0000 203.4038 0.0000
# 6 0.0000 0.0000 0.0000 0.0000 0.0000 40.6908
#
#
#
# Elastic Compliance Matrix: (Units=1/GPa)
#
#
# Indices 1 2 3 4 5 6 
#
# 1 0.009098 -0.003189 -0.003252 0.000000 0.000000 0.000000
# 2 -0.003189 0.009098 -0.003252 0.000000 0.000000 0.000000
# 3 -0.003252 -0.003252 0.015096 0.000000 0.000000 0.000000
# 4 0.000000 0.000000 0.000000 0.004916 0.000000 0.000000
# 5 0.000000 0.000000 0.000000 0.000000 0.004916 0.000000
# 6 0.000000 0.000000 0.000000 0.000000 0.000000 0.024576
#
#
# Mechanical properties :
#
#
# Convention : Reuss Voigt Hill
#
# Bulk Modulus (GPa) = 71.91142 80.18381 76.04761
# Shear Modulus (GPa) = 54.51147 104.44932 79.48040
#
# Velocity S-wave (km/s) = 5.03480 6.96934 6.07951
# Velocity P-wave (km/s) = 8.19998 10.10197 9.20026
#
# Compressibility (1/GPa) = 0.01390600
#
# Stress axis : x y z
#
# Youngs Moduli (GPa) = 109.90967 109.90967 66.24113
#
# Poissons Ratio (x) = 0.35055 0.21542
# Poissons Ratio (y) = 0.35055 0.21542
# Poissons Ratio (z) = 0.35743 0.35743
#
# Static dielectric constant tensor:
#      x y z
#    x 1.817400 0.000000 0.000000 
#    y 0.000000 1.817400 0.000000 
#    z 0.000000 0.000000 1.889740 
# 
# From -- ./inp_files/12371.got.cif
#   From: 2010.05.17/outbox.cif.g08.bks.cpg/sg180_7_cif.got.tgz:12371.got - 2010.05.20 11:43:55.
