data_PCOD9584678
_publ_section_title
;
Structure prediction by ZEFSAII (Michael W. Deem and Ramdas Pophale) SiO2 
 PCOD9584678
Probable space group: P 63 2 2
;
_chemical_formula_sum "Si O2"
_cell_formula_units_Z 80
_cell_length_a 18.534578
_cell_length_b 18.534578
_cell_length_c 18.571779
_cell_angle_alpha 90.000000
_cell_angle_beta 90.000000
_cell_angle_gamma 120.000000
_cell_volume 5525.219596
_symmetry_space_group_name_H-M "P 63 2 2"
_symmetry_group_IT_number 182
_symmetry_cell_setting 'hexagonal'
loop_
_space_group_symop_operation_xyz
x,y,z
x-y,x,1/2+z
-y,x-y,z
-x,-y,1/2+z
-x+y,-x,z
y,-x+y,1/2+z
x-y,-y,-z
-x,-x+y,-z
y,x,-z
-y,-x,1/2-z
-x+y,y,1/2-z
x,x-y,1/2-z
loop_
_atom_site_type_symbol
_atom_site_label
_atom_site_fract_x
_atom_site_fract_y
_atom_site_fract_z
Si Si1 0.507882 0.753942 0.907924
Si Si2 0.504074 0.752037 0.427455
Si Si3 0.616162 0.554721 0.932599
Si Si4 0.938559 0.554721 0.932599
Si Si5 0.666668 0.333335 0.662090
Si Si6 0.911174 0.541033 0.333881
Si Si7 0.333334 0.666668 0.833424
Si Si8 0.458966 0.088825 0.333881
O O1 0.555342 0.705381 0.885179
O O2 0.426832 0.713418 0.859279
O O3 0.555344 0.849963 0.885179
O O4 0.475768 0.737884 0.989155
O O5 0.554459 0.852490 0.423489
O O6 0.554461 0.701970 0.423490
O O7 0.426907 0.713451 0.371780
O O8 0.541587 0.458413 0.941746
O O9 0.596414 0.591628 0.861944
O O10 0.603293 0.603293 0.000000
O O11 0.995213 0.591628 0.861943
O O12 0.000000 0.603294 0.000000
O O13 0.666668 0.333334 0.750000
O O14 0.891622 0.445810 0.343262
O O15 0.900405 0.553484 0.250000
O O16 0.333334 0.666667 0.750000
#
# Coordination Sequence:
#
# PCOD9584678 Si02
#       8
#    12  12  12  12   4  12   4  12
#     4  12  20  30  50  73  97 129 167 206 261 307
#     4  12  22  38  56  66  95 130 171 216 247 285
#     4  10  20  34  50  71  93 125 169 206 245 294
#     4  10  20  34  50  71  93 125 169 206 245 294
#     4  12  28  38  46  75 100 131 187 222 238 266
#     4  10  20  32  47  70 101 128 159 208 257 298
#     4  12  22  26  37  69 106 128 160 195 247 311
#     4  10  20  32  47  70 101 128 159 208 257 298
#
# _framework density 14.479062000000001
#
# number of rings (size 3 to 8) (size 9 to 14) (size 15 to 20)
#    0.000    1.200    6.000    2.250    0.000    1.200 
#    0.000    0.000    0.000    0.000    0.000    0.000 
#    0.000    0.000    0.000    8.100    0.000    5.100 
#
# Total GULP energy -445967.501612 kJ/mol
# GULP energy per Si atom -5574.593770 kJ/mol
# Density = 1.444611 g / cm^3
# Si number density = 14.479062 Si / 1000 Ang^3
#
#
#
# Elastic Constant Matrix: (Units=GPa)
#
#
# Indices 1 2 3 4 5 6 
#
# 1 79.3848 33.5851 21.8774 -0.0002 0.0002 0.0000
# 2 33.5851 79.3848 21.8772 0.0006 -0.0001 0.0000
# 3 21.8774 21.8772 94.0191 -0.0006 -0.0003 0.0000
# 4 -0.0002 0.0006 -0.0006 48.1729 0.0002 0.0002
# 5 0.0002 -0.0001 -0.0003 0.0002 48.1530 0.0004
# 6 0.0000 0.0000 0.0000 0.0002 0.0004 22.8997
#
#
#
# Elastic Compliance Matrix: (Units=1/GPa)
#
#
# Indices 1 2 3 4 5 6 
#
# 1 0.015781 -0.006053 -0.002264 0.000000 0.000000 0.000000
# 2 -0.006053 0.015781 -0.002264 0.000000 0.000000 0.000000
# 3 -0.002264 -0.002264 0.011690 0.000000 0.000000 0.000000
# 4 0.000000 0.000000 0.000000 0.020759 0.000000 0.000000
# 5 0.000000 0.000000 0.000000 0.000000 0.020767 0.000000
# 6 0.000000 0.000000 0.000000 0.000000 0.000000 0.043669
#
#
# Mechanical properties :
#
#
# Convention : Reuss Voigt Hill
#
# Bulk Modulus (GPa) = 45.26533 45.27424 45.26978
# Shear Modulus (GPa) = 31.85291 35.54173 33.69732
#
# Velocity S-wave (km/s) = 4.69543 4.95987 4.82946
# Velocity P-wave (km/s) = 7.79272 8.00856 7.90138
#
# Compressibility (1/GPa) = 0.02209197
#
# Stress axis : x y z
#
# Youngs Moduli (GPa) = 63.36547 63.36551 85.54575
#
# Poissons Ratio (x) = 0.38354 0.19366
# Poissons Ratio (y) = 0.38354 0.19365
# Poissons Ratio (z) = 0.14345 0.14344
#
# Static dielectric constant tensor:
#      x y z
#    x 1.484460 0.000000 0.000000 
#    y 0.000000 1.484450 0.000000 
#    z 0.000000 0.000000 1.506880 
# 
# From -- ./inp_files/4489.got.cif
#   From: 2010.05.17/outbox.cif.g08.bks.cpg/sg182_3_cif.got.tgz:4489.got - 2010.05.20 11:58:53.
