data_PCOD9584430
_publ_section_title
;
Structure prediction by ZEFSAII (Michael W. Deem and Ramdas Pophale) SiO2 
 PCOD9584430
Probable space group: P 64 2 2
;
_chemical_formula_sum "Si O2"
_cell_formula_units_Z 60
_cell_length_a 15.221271
_cell_length_b 15.221271
_cell_length_c 14.643397
_cell_angle_alpha 90.000000
_cell_angle_beta 90.000000
_cell_angle_gamma 120.000000
_cell_volume 2938.152307
_symmetry_space_group_name_H-M "P 64 2 2"
_symmetry_group_IT_number 181
_symmetry_cell_setting 'hexagonal'
loop_
_space_group_symop_operation_xyz
x,y,z
x-y,x,2/3+z
-y,x-y,1/3+z
-x,-y,z
-x+y,-x,2/3+z
y,-x+y,1/3+z
x-y,-y,-z
-x,-x+y,2/3-z
y,x,1/3-z
-y,-x,1/3-z
-x+y,y,-z
x,x-y,2/3-z
loop_
_atom_site_type_symbol
_atom_site_label
_atom_site_fract_x
_atom_site_fract_y
_atom_site_fract_z
Si Si1 0.895489 0.829742 0.392817
Si Si2 0.182944 0.312784 0.902767
Si Si3 0.752289 0.113794 0.389585
Si Si4 0.554952 0.614602 0.371204
Si Si5 0.403809 0.642383 0.059889
O O1 0.913068 0.826135 0.500000
O O2 0.802991 0.852642 0.406399
O O3 0.838958 0.719733 0.344124
O O4 0.000000 0.900048 0.333334
O O5 0.118104 0.322206 0.823322
O O6 0.179376 0.358752 0.000000
O O7 0.302511 0.385104 0.883242
O O8 0.723592 0.201273 0.383407
O O9 0.646395 0.013928 0.363767
O O10 0.500000 0.500000 0.407904
O O11 0.465010 0.617498 0.316041
O O12 0.374158 0.625843 0.166667
O O13 0.337193 0.674386 0.000000
#
# Coordination Sequence:
#
# PCOD9584430 Si02
#       5
#    12  12  12  12  12
#     4  11  23  44  66  92 130 174 222 273 331 396
#     4  11  22  38  63  92 125 162 219 274 333 397
#     4  10  22  39  65  92 126 173 218 275 334 401
#     4   9  20  36  58  90 124 167 215 273 340 403
#     4  11  22  37  60  92 132 168 216 276 340 404
#
# _framework density 20.420998000000001
#
# number of rings (size 3 to 8) (size 9 to 14) (size 15 to 20)
#    0.000    1.600    2.000    3.000    0.000   12.800 
#    0.000    3.000    0.000    0.000    0.000    0.000 
#    0.000    0.000    0.000    0.000    0.000    0.000 
#
# Total GULP energy -334241.336392 kJ/mol
# GULP energy per Si atom -5570.688940 kJ/mol
# Density = 2.037452 g / cm^3
# Si number density = 20.420998 Si / 1000 Ang^3
#
#
#
# Elastic Constant Matrix: (Units=GPa)
#
#
# Indices 1 2 3 4 5 6 
#
# 1 97.6238 81.0479 38.3617 0.0000 0.0000 0.0000
# 2 81.0479 97.6238 38.3617 0.0000 0.0000 0.0000
# 3 38.3617 38.3617 89.4760 0.0000 0.0000 0.0000
# 4 0.0000 0.0000 0.0000 12.8874 0.0000 0.0000
# 5 0.0000 0.0000 0.0000 0.0000 12.8874 0.0000
# 6 0.0000 0.0000 0.0000 0.0000 0.0000 8.2879
#
#
#
# Elastic Compliance Matrix: (Units=1/GPa)
#
#
# Indices 1 2 3 4 5 6 
#
# 1 0.033594 -0.026734 -0.002941 0.000000 0.000000 0.000000
# 2 -0.026734 0.033594 -0.002941 0.000000 0.000000 0.000000
# 3 -0.002941 -0.002941 0.013698 0.000000 0.000000 0.000000
# 4 0.000000 0.000000 0.000000 0.077595 0.000000 0.000000
# 5 0.000000 0.000000 0.000000 0.000000 0.077595 0.000000
# 6 0.000000 0.000000 0.000000 0.000000 0.000000 0.120657
#
#
# Mechanical properties :
#
#
# Convention : Reuss Voigt Hill
#
# Bulk Modulus (GPa) = 63.88375 66.69622 65.28998
# Shear Modulus (GPa) = 11.70455 15.27605 13.49030
#
# Velocity S-wave (km/s) = 2.39668 2.73803 2.57302
# Velocity P-wave (km/s) = 6.24580 6.53661 6.39286
#
# Compressibility (1/GPa) = 0.01565343
#
# Stress axis : x y z
#
# Youngs Moduli (GPa) = 29.76707 29.76707 73.00317
#
# Poissons Ratio (x) = 0.79580 0.21470
# Poissons Ratio (y) = 0.79580 0.21470
# Poissons Ratio (z) = 0.08755 0.08755
#
# Static dielectric constant tensor:
#      x y z
#    x 1.849380 0.000000 0.000000 
#    y 0.000000 1.849380 0.000000 
#    z 0.000000 0.000000 1.797390 
# 
# From -- ./inp_files/6151.got.cif
#   From: 2010.05.17/outbox.cif.g08.bks.cpg/sg181_4_cif.got.tgz:6151.got - 2010.05.20 11:51:17.
