data_PCOD9584752
_publ_section_title
;
Structure prediction by ZEFSAII (Michael W. Deem and Ramdas Pophale) SiO2 
 PCOD9584752
Probable space group: P 63 2 2
;
_chemical_formula_sum "Si O2"
_cell_formula_units_Z 54
_cell_length_a 25.742225
_cell_length_b 25.742225
_cell_length_c 5.152489
_cell_angle_alpha 90.000000
_cell_angle_beta 90.000000
_cell_angle_gamma 120.000000
_cell_volume 2956.922002
_symmetry_space_group_name_H-M "P 63 2 2"
_symmetry_group_IT_number 182
_symmetry_cell_setting 'hexagonal'
loop_
_space_group_symop_operation_xyz
x,y,z
x-y,x,1/2+z
-y,x-y,z
-x,-y,1/2+z
-x+y,-x,z
y,-x+y,1/2+z
x-y,-y,-z
-x,-x+y,-z
y,x,-z
-y,-x,1/2-z
-x+y,y,1/2-z
x,x-y,1/2-z
loop_
_atom_site_type_symbol
_atom_site_label
_atom_site_fract_x
_atom_site_fract_y
_atom_site_fract_z
Si Si1 0.679741 0.639023 0.740746
Si Si2 0.701063 0.228806 0.005061
Si Si3 0.163514 0.581757 0.750000
Si Si4 0.069959 0.484353 0.074764
Si Si5 0.158050 0.386889 0.501586
O O1 0.642035 0.642035 0.500000
O O2 0.647154 0.569596 0.821051
O O3 0.740806 0.652059 0.593413
O O4 0.674214 0.674214 0.000000
O O5 0.727949 0.272052 0.250000
O O6 0.629967 0.201251 0.030445
O O7 0.733254 0.266747 0.750000
O O8 0.722016 0.179202 0.042653
O O9 0.118349 0.602826 0.647298
O O10 0.079597 0.539799 0.250000
O O11 0.000000 0.451954 0.000000
O O12 0.193075 0.386149 0.250000
O O13 0.183928 0.367856 0.750000
#
# Coordination Sequence:
#
# PCOD9584752 Si02
#       5
#    12  12   6  12  12
#     4  11  24  37  58  86 121 147 176 231 288 339
#     4  10  25  43  60  82 100 135 187 227 269 340
#     4  12  26  40  68  80 110 148 172 232 302 340
#     4  11  23  35  56  89 122 143 172 209 287 381
#     4  10  21  38  61  80 109 147 191 222 262 342
#
# _framework density 18.262232000000001
#
# number of rings (size 3 to 8) (size 9 to 14) (size 15 to 20)
#    0.000    1.333    1.111    3.333   21.778    0.000 
#    0.667    0.000    0.000    0.000    0.000    0.000 
#    0.000    0.000    0.000    0.000    0.000    0.000 
#
# Total GULP energy -300972.543446 kJ/mol
# GULP energy per Si atom -5573.565619 kJ/mol
# Density = 1.822067 g / cm^3
# Si number density = 18.262232 Si / 1000 Ang^3
#
#
#
# Elastic Constant Matrix: (Units=GPa)
#
#
# Indices 1 2 3 4 5 6 
#
# 1 44.9252 31.2563 33.1748 0.0000 0.0000 0.0000
# 2 31.2563 44.9252 33.1748 0.0000 0.0000 0.0000
# 3 33.1748 33.1748 127.1163 0.0000 0.0000 0.0000
# 4 0.0000 0.0000 0.0000 25.6884 0.0000 0.0000
# 5 0.0000 0.0000 0.0000 0.0000 25.6884 0.0000
# 6 0.0000 0.0000 0.0000 0.0000 0.0000 6.8344
#
#
#
# Elastic Compliance Matrix: (Units=1/GPa)
#
#
# Indices 1 2 3 4 5 6 
#
# 1 0.045073 -0.028086 -0.004433 0.000000 0.000000 0.000000
# 2 -0.028086 0.045073 -0.004433 0.000000 0.000000 0.000000
# 3 -0.004433 -0.004433 0.010181 0.000000 0.000000 0.000000
# 4 0.000000 0.000000 0.000000 0.038928 0.000000 0.000000
# 5 0.000000 0.000000 0.000000 0.000000 0.038928 0.000000
# 6 0.000000 0.000000 0.000000 0.000000 0.000000 0.146318
#
#
# Mechanical properties :
#
#
# Convention : Reuss Voigt Hill
#
# Bulk Modulus (GPa) = 37.84628 45.79761 41.82195
# Shear Modulus (GPa) = 12.27855 19.59964 15.93910
#
# Velocity S-wave (km/s) = 2.59578 3.27958 2.95751
# Velocity P-wave (km/s) = 5.45462 6.28276 5.88328
#
# Compressibility (1/GPa) = 0.02642268
#
# Stress axis : x y z
#
# Youngs Moduli (GPa) = 22.18604 22.18604 98.22290
#
# Poissons Ratio (x) = 0.62311 0.43547
# Poissons Ratio (y) = 0.62311 0.43547
# Poissons Ratio (z) = 0.09836 0.09836
#
# Static dielectric constant tensor:
#      x y z
#    x 1.489900 0.000000 0.000000 
#    y 0.000000 1.489900 0.000000 
#    z 0.000000 0.000000 1.703530 
# 
# From -- ./inp_files/543.got.cif
#   From: 2010.05.17/outbox.cif.g08.bks.cpg/sg182_1_cif.got.tgz:543.got - 2010.05.20 11:58:53.
