data_PCOD9584789
_publ_section_title
;
Structure prediction by ZEFSAII (Michael W. Deem and Ramdas Pophale) SiO2 
 PCOD9584789
Probable space group: P 63 2 2
;
_chemical_formula_sum "Si O2"
_cell_formula_units_Z 48
_cell_length_a 18.956707
_cell_length_b 18.956707
_cell_length_c 8.397289
_cell_angle_alpha 90.000000
_cell_angle_beta 90.000000
_cell_angle_gamma 120.000000
_cell_volume 2613.337659
_symmetry_space_group_name_H-M "P 63 2 2"
_symmetry_group_IT_number 182
_symmetry_cell_setting 'hexagonal'
loop_
_space_group_symop_operation_xyz
x,y,z
x-y,x,1/2+z
-y,x-y,z
-x,-y,1/2+z
-x+y,-x,z
y,-x+y,1/2+z
x-y,-y,-z
-x,-x+y,-z
y,x,-z
-y,-x,1/2-z
-x+y,y,1/2-z
x,x-y,1/2-z
loop_
_atom_site_type_symbol
_atom_site_label
_atom_site_fract_x
_atom_site_fract_y
_atom_site_fract_z
Si Si1 0.823556 0.335158 0.179202
Si Si2 0.336226 0.247147 0.808609
Si Si3 0.921019 0.398458 0.881075
Si Si4 0.755278 0.663917 0.316033
O O1 0.738293 0.261708 0.250000
O O2 0.838109 0.419055 0.250000
O O3 0.889650 0.309849 0.232417
O O4 0.839996 0.355233 0.992196
O O5 0.324280 0.162140 0.750000
O O6 0.406688 0.323020 0.714349
O O7 0.260637 0.262121 0.786564
O O8 0.354432 0.101502 0.503629
O O9 0.922848 0.461424 0.750000
O O10 0.000000 0.444180 0.000000
O O11 0.841464 0.682928 0.250000
#
# Coordination Sequence:
#
# PCOD9584789 Si02
#       4
#    12  12  12  12
#     4  11  22  40  63  88 125 167 212 269 328 385
#     4  11  23  38  63  94 123 164 214 264 323 383
#     4  12  25  39  63  94 130 173 219 274 329 398
#     4  10  22  39  62  89 127 165 207 263 324 385
#
# _framework density 18.367315000000001
#
# number of rings (size 3 to 8) (size 9 to 14) (size 15 to 20)
#    0.000    1.000    2.500    5.500    3.500    0.000 
#    0.000    0.000    0.000    1.000    0.000    0.000 
#    0.000    0.000    0.000    0.000    0.000    0.000 
#
# Total GULP energy -267814.464965 kJ/mol
# GULP energy per Si atom -5579.468020 kJ/mol
# Density = 1.832551 g / cm^3
# Si number density = 18.367315 Si / 1000 Ang^3
#
#
#
# Elastic Constant Matrix: (Units=GPa)
#
#
# Indices 1 2 3 4 5 6 
#
# 1 60.4779 110.7150 66.5655 0.0000 0.0000 0.0000
# 2 110.7150 60.4779 66.5655 0.0000 0.0000 0.0000
# 3 66.5655 66.5655 125.8116 0.0000 0.0000 0.0000
# 4 0.0000 0.0000 0.0000 19.6163 0.0000 0.0000
# 5 0.0000 0.0000 0.0000 0.0000 19.6163 0.0000
# 6 0.0000 0.0000 0.0000 0.0000 0.0000 -25.1185
#
#
#
# Elastic Compliance Matrix: (Units=1/GPa)
#
#
# Indices 1 2 3 4 5 6 
#
# 1 -0.004990 0.014915 -0.005251 0.000000 0.000000 0.000000
# 2 0.014915 -0.004990 -0.005251 0.000000 0.000000 0.000000
# 3 -0.005251 -0.005251 0.013505 0.000000 0.000000 0.000000
# 4 0.000000 0.000000 0.000000 0.050978 0.000000 0.000000
# 5 0.000000 0.000000 0.000000 0.000000 0.050978 0.000000
# 6 0.000000 0.000000 0.000000 0.000000 0.000000 -0.039811
#
#
# Mechanical properties :
#
#
# Convention : Reuss Voigt Hill
#
# Bulk Modulus (GPa) = 80.96960 81.60660 81.28810
# Shear Modulus (GPa) = 82.02037 3.01758 42.51898
#
# Velocity S-wave (km/s) = 6.68974 1.28315 4.81659
# Velocity P-wave (km/s) = 10.19065 6.83536 8.67673
#
# Compressibility (1/GPa) = 0.01235031
#
# Stress axis : x y z
#
# Youngs Moduli (GPa) = -200.38983 -200.38983 74.04597
#
# Poissons Ratio (x) = 2.98888 0.38883
# Poissons Ratio (y) = 2.98888 0.38883
# Poissons Ratio (z) = -1.05229 -1.05229
#
# Static dielectric constant tensor:
#      x y z
#    x 1.637350 0.000000 0.000000 
#    y 0.000000 1.637350 0.000000 
#    z 0.000000 0.000000 1.671230 
# 
# From -- ./inp_files/1442.got.cif
#   From: 2010.05.17/outbox.cif.g08.bks.cpg/sg182_1_cif.got.tgz:1442.got - 2010.05.20 11:58:53.
