data_PCOD9584349
_publ_section_title
;
Structure prediction by ZEFSAII (Michael W. Deem and Ramdas Pophale) SiO2 
 PCOD9584349
Probable space group: P 64 2 2
;
_chemical_formula_sum "Si O2"
_cell_formula_units_Z 72
_cell_length_a 14.475797
_cell_length_b 14.475797
_cell_length_c 19.053205
_cell_angle_alpha 90.000000
_cell_angle_beta 90.000000
_cell_angle_gamma 120.000000
_cell_volume 3457.670784
_symmetry_space_group_name_H-M "P 64 2 2"
_symmetry_group_IT_number 181
_symmetry_cell_setting 'hexagonal'
loop_
_space_group_symop_operation_xyz
x,y,z
x-y,x,2/3+z
-y,x-y,1/3+z
-x,-y,z
-x+y,-x,2/3+z
y,-x+y,1/3+z
x-y,-y,-z
-x,-x+y,2/3-z
y,x,1/3-z
-y,-x,1/3-z
-x+y,y,-z
x,x-y,2/3-z
loop_
_atom_site_type_symbol
_atom_site_label
_atom_site_fract_x
_atom_site_fract_y
_atom_site_fract_z
Si Si1 0.843564 0.137001 0.357916
Si Si2 0.371751 0.430834 0.844849
Si Si3 0.804460 0.778814 0.549804
Si Si4 0.723368 0.641839 0.999213
Si Si5 0.218553 0.693843 0.386516
Si Si6 0.422926 0.877730 0.583063
O O1 0.908746 0.150796 0.288083
O O2 0.839472 0.245159 0.357650
O O3 0.905561 0.134811 0.427467
O O4 0.726090 0.037845 0.353987
O O5 0.500000 0.500000 0.846310
O O6 0.319805 0.309535 0.811988
O O7 0.326831 0.408848 0.924044
O O8 0.339788 0.503903 0.796973
O O9 0.903581 0.807161 0.500000
O O10 0.851120 0.702239 0.000000
O O11 0.688949 0.549621 0.057047
O O12 0.201517 0.600759 0.333334
O O13 0.343104 0.782865 0.389619
O O14 0.439707 0.879413 0.500000
O O15 0.500000 0.000000 0.609014
#
# Coordination Sequence:
#
# PCOD9584349 Si02
#       6
#    12  12  12  12  12  12
#     4  10  22  40  67  96 138 179 228 291 357 419
#     4  11  24  42  71 104 138 182 235 287 362 425
#     4  10  20  41  68  98 134 176 231 291 354 421
#     4  12  24  43  68  96 137 183 232 283 345 419
#     4  11  23  42  66 103 138 181 231 292 359 425
#     4  11  23  42  63  91 135 182 234 287 348 416
#
# _framework density 20.823266
#
# number of rings (size 3 to 8) (size 9 to 14) (size 15 to 20)
#    0.000    1.167    3.333    3.000    0.000    1.667 
#    0.000    1.667    3.667    0.000    0.000    0.000 
#    0.000    0.000    0.000    0.000    0.000    0.000 
#
# Total GULP energy -401322.265176 kJ/mol
# GULP energy per Si atom -5573.920350 kJ/mol
# Density = 2.077587 g / cm^3
# Si number density = 20.823266 Si / 1000 Ang^3
#
#
#
# Elastic Constant Matrix: (Units=GPa)
#
#
# Indices 1 2 3 4 5 6 
#
# 1 96.7549 42.1721 57.3172 0.0000 0.0000 0.0000
# 2 42.1721 96.7549 57.3172 0.0000 0.0000 0.0000
# 3 57.3172 57.3172 115.7000 0.0000 0.0000 0.0000
# 4 0.0000 0.0000 0.0000 28.6074 0.0000 0.0000
# 5 0.0000 0.0000 0.0000 0.0000 28.6074 0.0000
# 6 0.0000 0.0000 0.0000 0.0000 0.0000 27.2914
#
#
#
# Elastic Compliance Matrix: (Units=1/GPa)
#
#
# Indices 1 2 3 4 5 6 
#
# 1 0.015248 -0.003073 -0.006031 0.000000 0.000000 0.000000
# 2 -0.003073 0.015248 -0.006031 0.000000 0.000000 0.000000
# 3 -0.006031 -0.006031 0.014619 0.000000 0.000000 0.000000
# 4 0.000000 0.000000 0.000000 0.034956 0.000000 0.000000
# 5 0.000000 0.000000 0.000000 0.000000 0.034956 0.000000
# 6 0.000000 0.000000 0.000000 0.000000 0.000000 0.036642
#
#
# Mechanical properties :
#
#
# Convention : Reuss Voigt Hill
#
# Bulk Modulus (GPa) = 67.37169 69.20251 68.28710
# Shear Modulus (GPa) = 26.75420 27.06148 26.90784
#
# Velocity S-wave (km/s) = 3.58833 3.60888 3.59862
# Velocity P-wave (km/s) = 7.04219 7.11834 7.08037
#
# Compressibility (1/GPa) = 0.01484303
#
# Stress axis : x y z
#
# Youngs Moduli (GPa) = 65.58353 65.58353 68.40523
#
# Poissons Ratio (x) = 0.20154 0.41257
# Poissons Ratio (y) = 0.20154 0.41257
# Poissons Ratio (z) = 0.39555 0.39555
#
# Static dielectric constant tensor:
#      x y z
#    x 1.780340 0.000000 0.000000 
#    y 0.000000 1.780340 0.000000 
#    z 0.000000 0.000000 1.902450 
# 
# From -- ./inp_files/7790.got.cif
#   From: 2010.05.17/outbox.cif.g08.bks.cpg/sg181_4_cif.got.tgz:7790.got - 2010.05.20 11:51:17.
