data_PCOD9584007
_publ_section_title
;
Structure prediction by ZEFSAII (Michael W. Deem and Ramdas Pophale) SiO2 
 PCOD9584007
Probable space group: P 62 2 2
;
_chemical_formula_sum "Si O2"
_cell_formula_units_Z 51
_cell_length_a 11.347405
_cell_length_b 11.347405
_cell_length_c 20.623280
_cell_angle_alpha 90.000000
_cell_angle_beta 90.000000
_cell_angle_gamma 120.000000
_cell_volume 2299.754519
_symmetry_space_group_name_H-M "P 62 2 2"
_symmetry_group_IT_number 180
_symmetry_cell_setting 'hexagonal'
loop_
_space_group_symop_operation_xyz
x,y,z
x-y,x,1/3+z
-y,x-y,2/3+z
-x,-y,z
-x+y,-x,1/3+z
y,-x+y,2/3+z
x-y,-y,-z
-x,-x+y,1/3-z
y,x,2/3-z
-y,-x,2/3-z
-x+y,y,-z
x,x-y,1/3-z
loop_
_atom_site_type_symbol
_atom_site_label
_atom_site_fract_x
_atom_site_fract_y
_atom_site_fract_z
Si Si1 0.435666 0.098122 0.129120
Si Si2 0.727839 0.796348 0.564463
Si Si3 0.000000 0.000000 0.833334
Si Si4 0.632080 0.998443 0.577608
Si Si5 0.833224 0.152401 0.994680
O O1 0.490644 0.245322 0.166667
O O2 0.416589 0.129058 0.054497
O O3 0.500000 0.000000 0.130917
O O4 0.296252 0.999047 0.167702
O O5 0.635308 0.858565 0.586205
O O6 0.746484 0.715481 0.622585
O O7 0.873970 0.921262 0.547498
O O8 0.500000 0.000000 0.604049
O O9 0.627055 0.000000 0.500000
O O10 0.767233 0.132416 0.604477
O O11 0.807432 0.000000 0.000000
#
# Coordination Sequence:
#
# PCOD9584007 Si02
#       5
#    12  12   3  12  12
#     4  10  23  46  70 104 146 196 249 301 379 463
#     4  11  21  40  70 102 136 183 235 297 368 434
#     4  12  16  36  72 108 134 172 228 292 358 424
#     4  11  24  42  65  95 143 185 237 294 360 436
#     4  11  22  41  68 103 138 178 243 300 366 432
#
# _framework density 22.176279000000001
#
# number of rings (size 3 to 8) (size 9 to 14) (size 15 to 20)
#    0.000    1.176    4.706    3.529    0.000    5.176 
#    8.471    0.000    0.000    0.000    0.000    0.000 
#    0.000    0.000    0.000    0.000    0.000    0.000 
#
# Total GULP energy -284013.862257 kJ/mol
# GULP energy per Si atom -5568.899260 kJ/mol
# Density = 2.212580 g / cm^3
# Si number density = 22.176279 Si / 1000 Ang^3
#
#
#
# Elastic Constant Matrix: (Units=GPa)
#
#
# Indices 1 2 3 4 5 6 
#
# 1 98.2718 69.5514 25.8029 0.0000 0.0000 0.0000
# 2 69.5514 98.2718 25.8029 0.0000 0.0000 0.0000
# 3 25.8029 25.8029 86.1644 0.0000 0.0000 0.0000
# 4 0.0000 0.0000 0.0000 0.9796 0.0000 0.0000
# 5 0.0000 0.0000 0.0000 0.0000 0.9796 0.0000
# 6 0.0000 0.0000 0.0000 0.0000 0.0000 14.3602
#
#
#
# Elastic Compliance Matrix: (Units=1/GPa)
#
#
# Indices 1 2 3 4 5 6 
#
# 1 0.020691 -0.014128 -0.001965 0.000000 0.000000 0.000000
# 2 -0.014128 0.020691 -0.001965 0.000000 0.000000 0.000000
# 3 -0.001965 -0.001965 0.012783 0.000000 0.000000 0.000000
# 4 0.000000 0.000000 0.000000 1.020810 0.000000 0.000000
# 5 0.000000 0.000000 0.000000 0.000000 1.020809 0.000000
# 6 0.000000 0.000000 0.000000 0.000000 0.000000 0.069637
#
#
# Mechanical properties :
#
#
# Convention : Reuss Voigt Hill
#
# Bulk Modulus (GPa) = 55.40975 58.33583 56.87279
# Shear Modulus (GPa) = 2.26495 14.03393 8.14944
#
# Velocity S-wave (km/s) = 1.01171 2.51835 1.91907
# Velocity P-wave (km/s) = 5.13858 5.90074 5.53280
#
# Compressibility (1/GPa) = 0.01804736
#
# Stress axis : x y z
#
# Youngs Moduli (GPa) = 48.33079 48.33079 78.22998
#
# Poissons Ratio (x) = 0.68280 0.15375
# Poissons Ratio (y) = 0.68280 0.15375
# Poissons Ratio (z) = 0.09499 0.09499
#
# Static dielectric constant tensor:
#      x y z
#    x 1.903850 0.000000 0.000000 
#    y 0.000000 1.903850 0.000000 
#    z 0.000000 0.000000 1.895820 
# 
# From -- ./inp_files/8877.got.cif
#   From: 2010.05.17/outbox.cif.g08.bks.cpg/sg180_5_cif.got.tgz:8877.got - 2010.05.20 11:43:55.
