data_PCOD9584755
_publ_section_title
;
Structure prediction by ZEFSAII (Michael W. Deem and Ramdas Pophale) SiO2 
 PCOD9584755
Probable space group: P 63 2 2
;
_chemical_formula_sum "Si O2"
_cell_formula_units_Z 36
_cell_length_a 19.704396
_cell_length_b 19.704396
_cell_length_c 5.534430
_cell_angle_alpha 90.000000
_cell_angle_beta 90.000000
_cell_angle_gamma 120.000000
_cell_volume 1860.928917
_symmetry_space_group_name_H-M "P 63 2 2"
_symmetry_group_IT_number 182
_symmetry_cell_setting 'hexagonal'
loop_
_space_group_symop_operation_xyz
x,y,z
x-y,x,1/2+z
-y,x-y,z
-x,-y,1/2+z
-x+y,-x,z
y,-x+y,1/2+z
x-y,-y,-z
-x,-x+y,-z
y,x,-z
-y,-x,1/2-z
-x+y,y,1/2-z
x,x-y,1/2-z
loop_
_atom_site_type_symbol
_atom_site_label
_atom_site_fract_x
_atom_site_fract_y
_atom_site_fract_z
Si Si1 0.442648 0.000000 0.000000
Si Si2 0.665180 0.812060 0.503113
Si Si3 0.359805 0.000000 0.500000
Si Si4 0.143487 0.571744 0.750000
Si Si5 0.757742 0.515484 0.250000
O O1 0.398281 0.996488 0.247070
O O2 0.524732 0.081360 0.035001
O O3 0.701245 0.850623 0.250000
O O4 0.649423 0.725050 0.510270
O O5 0.578586 0.802980 0.535263
O O6 0.708526 0.854263 0.750000
O O7 0.199131 0.664763 0.790193
#
# Coordination Sequence:
#
# PCOD9584755 Si02
#       5
#     6  12   6   6   6
#     4  12  25  40  66  90 112 160 232 261 314 413
#     4  10  21  39  59  86 118 148 195 250 308 369
#     4  12  21  44  66  88 120 162 204 269 312 379
#     4  12  23  42  64  88 120 164 210 280 330 394
#     4  10  23  40  54  84 116 148 200 260 326 368
#
# _framework density 19.345179000000002
#
# number of rings (size 3 to 8) (size 9 to 14) (size 15 to 20)
#    1.000    0.000    3.333    5.333    0.000    0.000 
#    6.000    0.000    0.000    0.000    0.000    0.000 
#    0.000    0.000    0.000   10.000    0.000    1.667 
#
# Total GULP energy -200583.536876 kJ/mol
# GULP energy per Si atom -5571.764913 kJ/mol
# Density = 1.930115 g / cm^3
# Si number density = 19.345179 Si / 1000 Ang^3
#
#
#
# Elastic Constant Matrix: (Units=GPa)
#
#
# Indices 1 2 3 4 5 6 
#
# 1 77.8224 21.8304 32.6965 0.0000 0.0000 0.0000
# 2 21.8304 77.8224 32.6965 0.0000 0.0000 0.0000
# 3 32.6965 32.6965 188.3432 0.0000 0.0000 0.0000
# 4 0.0000 0.0000 0.0000 22.8040 0.0000 0.0000
# 5 0.0000 0.0000 0.0000 0.0000 22.8040 0.0000
# 6 0.0000 0.0000 0.0000 0.0000 0.0000 27.9960
#
#
#
# Elastic Compliance Matrix: (Units=1/GPa)
#
#
# Indices 1 2 3 4 5 6 
#
# 1 0.014592 -0.003267 -0.001966 0.000000 0.000000 0.000000
# 2 -0.003267 0.014592 -0.001966 0.000000 0.000000 0.000000
# 3 -0.001966 -0.001966 0.005992 0.000000 0.000000 0.000000
# 4 0.000000 0.000000 0.000000 0.043852 0.000000 0.000000
# 5 0.000000 0.000000 0.000000 0.000000 0.043852 0.000000
# 6 0.000000 0.000000 0.000000 0.000000 0.000000 0.035719
#
#
# Mechanical properties :
#
#
# Convention : Reuss Voigt Hill
#
# Bulk Modulus (GPa) = 48.12805 57.60386 52.86596
# Shear Modulus (GPa) = 27.78941 31.83845 29.81393
#
# Velocity S-wave (km/s) = 3.79423 4.06126 3.93001
# Velocity P-wave (km/s) = 6.64286 7.19953 6.92679
#
# Compressibility (1/GPa) = 0.02077790
#
# Stress axis : x y z
#
# Youngs Moduli (GPa) = 68.52917 68.52917 166.88742
#
# Poissons Ratio (x) = 0.22391 0.32810
# Poissons Ratio (y) = 0.22391 0.32810
# Poissons Ratio (z) = 0.13473 0.13473
#
# Static dielectric constant tensor:
#      x y z
#    x 1.697690 0.000000 0.000000 
#    y 0.000000 1.697690 0.000000 
#    z 0.000000 0.000000 1.755630 
# 
# From -- ./inp_files/332.got.cif
#   From: 2010.05.17/outbox.cif.g08.bks.cpg/sg182_1_cif.got.tgz:332.got - 2010.05.20 11:58:53.
