data_PCOD9584135
_publ_section_title
;
Structure prediction by ZEFSAII (Michael W. Deem and Ramdas Pophale) SiO2 
 PCOD9584135
Probable space group: P 62 2 2
;
_chemical_formula_sum "Si O2"
_cell_formula_units_Z 51
_cell_length_a 12.586198
_cell_length_b 12.586198
_cell_length_c 20.460045
_cell_angle_alpha 90.000000
_cell_angle_beta 90.000000
_cell_angle_gamma 120.000000
_cell_volume 2806.896089
_symmetry_space_group_name_H-M "P 62 2 2"
_symmetry_group_IT_number 180
_symmetry_cell_setting 'hexagonal'
loop_
_space_group_symop_operation_xyz
x,y,z
x-y,x,1/3+z
-y,x-y,2/3+z
-x,-y,z
-x+y,-x,1/3+z
y,-x+y,2/3+z
x-y,-y,-z
-x,-x+y,1/3-z
y,x,2/3-z
-y,-x,2/3-z
-x+y,y,-z
x,x-y,1/3-z
loop_
_atom_site_type_symbol
_atom_site_label
_atom_site_fract_x
_atom_site_fract_y
_atom_site_fract_z
Si Si1 0.000000 0.243878 0.666667
Si Si2 0.471435 0.361770 0.574879
Si Si3 0.000000 0.000000 0.833334
Si Si4 0.826502 0.812132 0.060437
Si Si5 0.360469 0.477434 0.244348
Si Si6 0.330735 0.669266 0.333334
O O1 0.934389 0.280659 0.611296
O O2 0.104204 0.229199 0.629874
O O3 0.500000 0.500000 0.579418
O O4 0.329018 0.271025 0.592305
O O5 0.485885 0.338219 0.498773
O O6 0.568768 0.354073 0.622622
O O7 0.116278 0.029972 0.788108
O O8 0.907689 0.815377 0.000000
O O9 0.500000 0.500000 0.251694
O O10 0.327451 0.568338 0.283113
#
# Coordination Sequence:
#
# PCOD9584135 Si02
#       6
#     6  12   3  12  12   6
#     4  12  20  42  70  94 134 164 224 272 332 378
#     4  11  26  42  66  96 132 175 222 265 336 400
#     4  12  22  44  68  98 138 172 230 278 332 396
#     4  12  24  43  65  98 132 172 211 277 327 396
#     4  11  23  41  68  99 122 174 225 274 323 385
#     4  12  21  46  64  91 140 166 214 282 324 397
#
# _framework density 18.169536999999998
#
# number of rings (size 3 to 8) (size 9 to 14) (size 15 to 20)
#    0.000    0.471    5.882    3.529    0.000    0.000 
#    0.000    0.000    0.000    1.412    0.000    0.000 
#    0.000    0.000    0.000    0.000    0.000    0.000 
#
# Total GULP energy -284706.782087 kJ/mol
# GULP energy per Si atom -5582.485923 kJ/mol
# Density = 1.812818 g / cm^3
# Si number density = 18.169537 Si / 1000 Ang^3
#
#
#
# Elastic Constant Matrix: (Units=GPa)
#
#
# Indices 1 2 3 4 5 6 
#
# 1 172.9606 64.7809 95.9132 0.0000 0.0000 0.0000
# 2 64.7809 172.9606 95.9132 0.0000 0.0000 0.0000
# 3 95.9132 95.9132 184.8629 0.0000 0.0000 0.0000
# 4 0.0000 0.0000 0.0000 69.6962 0.0000 0.0000
# 5 0.0000 0.0000 0.0000 0.0000 69.6962 0.0000
# 6 0.0000 0.0000 0.0000 0.0000 0.0000 54.0898
#
#
#
# Elastic Compliance Matrix: (Units=1/GPa)
#
#
# Indices 1 2 3 4 5 6 
#
# 1 0.008239 -0.001004 -0.003754 0.000000 0.000000 0.000000
# 2 -0.001004 0.008239 -0.003754 0.000000 0.000000 0.000000
# 3 -0.003754 -0.003754 0.009305 0.000000 0.000000 0.000000
# 4 0.000000 0.000000 0.000000 0.014348 0.000000 0.000000
# 5 0.000000 0.000000 0.000000 0.000000 0.014348 0.000000
# 6 0.000000 0.000000 0.000000 0.000000 0.000000 0.018488
#
#
# Mechanical properties :
#
#
# Convention : Reuss Voigt Hill
#
# Bulk Modulus (GPa) = 114.16107 115.99987 115.08047
# Shear Modulus (GPa) = 53.81482 56.97489 55.39486
#
# Velocity S-wave (km/s) = 5.44816 5.60584 5.52756
# Velocity P-wave (km/s) = 10.12640 10.28991 10.20848
#
# Compressibility (1/GPa) = 0.00875955
#
# Stress axis : x y z
#
# Youngs Moduli (GPa) = 121.36687 121.36687 107.47352
#
# Poissons Ratio (x) = 0.12190 0.40343
# Poissons Ratio (y) = 0.12190 0.40343
# Poissons Ratio (z) = 0.45559 0.45559
#
# Static dielectric constant tensor:
#      x y z
#    x 1.620870 0.000000 0.000000 
#    y 0.000000 1.620870 0.000000 
#    z 0.000000 0.000000 1.622270 
# 
# From -- ./inp_files/8922.got.cif
#   From: 2010.05.17/outbox.cif.g08.bks.cpg/sg180_5_cif.got.tgz:8922.got - 2010.05.20 11:43:55.
