data_PCOD9584581
_publ_section_title
;
Structure prediction by ZEFSAII (Michael W. Deem and Ramdas Pophale) SiO2 
 PCOD9584581
Probable space group: P 64 2 2
;
_chemical_formula_sum "Si O2"
_cell_formula_units_Z 51
_cell_length_a 16.528411
_cell_length_b 16.528411
_cell_length_c 10.586575
_cell_angle_alpha 90.000000
_cell_angle_beta 90.000000
_cell_angle_gamma 120.000000
_cell_volume 2504.657332
_symmetry_space_group_name_H-M "P 64 2 2"
_symmetry_group_IT_number 181
_symmetry_cell_setting 'hexagonal'
loop_
_space_group_symop_operation_xyz
x,y,z
x-y,x,2/3+z
-y,x-y,1/3+z
-x,-y,z
-x+y,-x,2/3+z
y,-x+y,1/3+z
x-y,-y,-z
-x,-x+y,2/3-z
y,x,1/3-z
-y,-x,1/3-z
-x+y,y,-z
x,x-y,2/3-z
loop_
_atom_site_type_symbol
_atom_site_label
_atom_site_fract_x
_atom_site_fract_y
_atom_site_fract_z
Si Si1 0.634841 0.000000 0.500000
Si Si2 0.500000 0.500000 0.666667
Si Si3 0.706524 0.853262 0.833334
Si Si4 0.305606 0.516882 0.134370
Si Si5 0.407616 0.285781 0.613176
Si Si6 0.779609 0.039827 0.719886
O O1 0.540093 0.901664 0.481160
O O2 0.691192 0.996076 0.379354
O O3 0.467252 0.398743 0.603569
O O4 0.640769 0.762753 0.746015
O O5 0.775084 0.831008 0.912921
O O6 0.376835 0.623166 0.166667
O O7 0.227502 0.474792 0.240976
O O8 0.252055 0.504111 0.000000
O O9 0.326239 0.246313 0.508800
O O10 0.876054 0.123947 0.666667
#
# Coordination Sequence:
#
# PCOD9584581 Si02
#       6
#     6   3   6  12  12  12
#     4  12  21  46  76 101 144 190 250 299 368 452
#     4  12  28  44  68 102 146 184 244 296 366 440
#     4  12  24  44  74 105 148 194 240 303 394 442
#     4  12  27  46  70 109 151 198 252 309 370 437
#     4  12  25  46  69 106 144 196 244 305 370 452
#     4  12  22  45  75 107 141 190 247 306 366 457
#
# _framework density 20.362068000000001
#
# number of rings (size 3 to 8) (size 9 to 14) (size 15 to 20)
#    0.000    0.000    9.412    0.353    1.647    3.765 
#    0.000    0.000    0.000   20.471    0.000    0.000 
#    0.000    0.000    0.000    0.000    0.000    0.000 
#
# Total GULP energy -284412.932747 kJ/mol
# GULP energy per Si atom -5576.724172 kJ/mol
# Density = 2.031572 g / cm^3
# Si number density = 20.362068 Si / 1000 Ang^3
#
#
#
# Elastic Constant Matrix: (Units=GPa)
#
#
# Indices 1 2 3 4 5 6 
#
# 1 114.6316 65.4541 28.2498 0.0000 0.0000 0.0000
# 2 65.4541 114.6316 28.2498 0.0000 0.0000 0.0000
# 3 28.2498 28.2498 83.0374 0.0000 0.0000 0.0000
# 4 0.0000 0.0000 0.0000 19.6430 0.0000 0.0000
# 5 0.0000 0.0000 0.0000 0.0000 19.6430 0.0000
# 6 0.0000 0.0000 0.0000 0.0000 0.0000 24.5887
#
#
#
# Elastic Compliance Matrix: (Units=1/GPa)
#
#
# Indices 1 2 3 4 5 6 
#
# 1 0.013275 -0.007059 -0.002115 0.000000 0.000000 0.000000
# 2 -0.007059 0.013275 -0.002115 0.000000 0.000000 0.000000
# 3 -0.002115 -0.002115 0.013482 0.000000 0.000000 0.000000
# 4 0.000000 0.000000 0.000000 0.050909 0.000000 0.000000
# 5 0.000000 0.000000 0.000000 0.000000 0.050909 0.000000
# 6 0.000000 0.000000 0.000000 0.000000 0.000000 0.040669
#
#
# Mechanical properties :
#
#
# Convention : Reuss Voigt Hill
#
# Bulk Modulus (GPa) = 57.28971 61.80087 59.54529
# Shear Modulus (GPa) = 23.70622 25.46473 24.58548
#
# Velocity S-wave (km/s) = 3.41579 3.54021 3.47856
# Velocity P-wave (km/s) = 6.61464 6.86496 6.74096
#
# Compressibility (1/GPa) = 0.01745514
#
# Stress axis : x y z
#
# Youngs Moduli (GPa) = 75.32684 75.32684 74.17444
#
# Poissons Ratio (x) = 0.53174 0.15687
# Poissons Ratio (y) = 0.53174 0.15687
# Poissons Ratio (z) = 0.15931 0.15931
#
# Static dielectric constant tensor:
#      x y z
#    x 1.732570 0.000000 0.000000 
#    y 0.000000 1.732570 0.000000 
#    z 0.000000 0.000000 1.838170 
# 
# From -- ./inp_files/2836.got.cif
#   From: 2010.05.17/outbox.cif.g08.bks.cpg/sg181_2_cif.got.tgz:2836.got - 2010.05.20 11:51:17.
