data_PCOD9584815
_publ_section_title
;
Structure prediction by ZEFSAII (Michael W. Deem and Ramdas Pophale) SiO2 
 PCOD9584815
Probable space group: P 63 2 2
;
_chemical_formula_sum "Si O2"
_cell_formula_units_Z 74
_cell_length_a 12.976925
_cell_length_b 12.976925
_cell_length_c 24.934341
_cell_angle_alpha 90.000000
_cell_angle_beta 90.000000
_cell_angle_gamma 120.000000
_cell_volume 3636.403906
_symmetry_space_group_name_H-M "P 63 2 2"
_symmetry_group_IT_number 182
_symmetry_cell_setting 'hexagonal'
loop_
_space_group_symop_operation_xyz
x,y,z
x-y,x,1/2+z
-y,x-y,z
-x,-y,1/2+z
-x+y,-x,z
y,-x+y,1/2+z
x-y,-y,-z
-x,-x+y,-z
y,x,-z
-y,-x,1/2-z
-x+y,y,1/2-z
x,x-y,1/2-z
loop_
_atom_site_type_symbol
_atom_site_label
_atom_site_fract_x
_atom_site_fract_y
_atom_site_fract_z
Si Si1 0.333334 0.666667 0.184622
Si Si2 0.512758 0.256379 0.250000
Si Si3 0.236425 0.334482 0.664034
Si Si4 0.572386 0.670014 0.953564
Si Si5 0.205859 0.212486 0.125947
Si Si6 0.668555 0.573783 0.453199
Si Si7 0.000000 0.000000 0.936273
Si Si8 0.239396 0.839854 0.189804
O O1 0.333334 0.666667 0.250000
O O2 0.301729 0.767596 0.167234
O O3 0.602187 0.204373 0.250000
O O4 0.436175 0.209699 0.196193
O O5 0.281965 0.358796 0.602593
O O6 0.102269 0.223294 0.663990
O O7 0.337362 0.318892 0.692871
O O8 0.448879 0.550721 0.940972
O O9 0.551143 0.776817 0.971467
O O10 0.640033 0.640033 0.000000
O O11 0.331928 0.283847 0.095182
O O12 0.183153 0.307645 0.155825
O O13 0.100039 0.128706 0.085697
O O14 0.634900 0.634900 0.500000
O O15 0.000000 0.000000 0.000000
O O16 0.203359 0.796642 0.250000
#
# Coordination Sequence:
#
# PCOD9584815 Si02
#       8
#     4   6  12  12  12  12   4  12
#     4   9  24  45  66  96 126 192 228 279 339 409
#     4  10  26  42  68 108 142 182 238 282 372 424
#     4  11  24  42  69 100 139 177 232 296 347 427
#     4  10  24  42  66  99 132 181 226 285 354 421
#     4  11  24  42  66 102 131 179 227 278 363 409
#     4  10  23  40  66  94 134 174 222 281 345 418
#     4  12  24  45  70 101 136 177 231 291 352 437
#     4  11  24  43  68  96 139 179 231 280 346 421
#
# _framework density 20.349772999999999
#
# number of rings (size 3 to 8) (size 9 to 14) (size 15 to 20)
#    0.162    1.297    1.622    1.784    9.081    4.541 
#    0.000    0.000    0.000    0.324    0.000    0.000 
#    0.000    0.000    0.000    0.000    0.000    0.000 
#
# Total GULP energy -413018.894639 kJ/mol
# GULP energy per Si atom -5581.336414 kJ/mol
# Density = 2.030346 g / cm^3
# Si number density = 20.349773 Si / 1000 Ang^3
#
#
#
# Elastic Constant Matrix: (Units=GPa)
#
#
# Indices 1 2 3 4 5 6 
#
# 1 99.6340 26.5392 19.4123 0.0002 0.0001 0.0005
# 2 26.5392 99.6322 19.4114 -0.0002 -0.0002 -0.0004
# 3 19.4123 19.4114 55.3962 0.0000 0.0000 0.0000
# 4 0.0002 -0.0002 0.0000 11.8422 -0.0002 0.0001
# 5 0.0001 -0.0002 0.0000 -0.0002 11.8409 -0.0002
# 6 0.0005 -0.0004 0.0000 0.0001 -0.0002 36.5490
#
#
#
# Elastic Compliance Matrix: (Units=1/GPa)
#
#
# Indices 1 2 3 4 5 6 
#
# 1 0.011282 -0.002399 -0.003113 0.000000 0.000000 0.000000
# 2 -0.002399 0.011282 -0.003113 0.000000 0.000000 0.000000
# 3 -0.003113 -0.003113 0.020233 0.000000 0.000000 0.000000
# 4 0.000000 0.000000 0.000000 0.084444 0.000001 0.000000
# 5 0.000000 0.000000 0.000000 0.000001 0.084453 0.000000
# 6 0.000000 0.000000 0.000000 0.000000 0.000000 0.027361
#
#
# Mechanical properties :
#
#
# Convention : Reuss Voigt Hill
#
# Bulk Modulus (GPa) = 39.14093 42.82092 40.98092
# Shear Modulus (GPa) = 18.88064 24.66636 21.77350
#
# Velocity S-wave (km/s) = 3.04930 3.48533 3.27458
# Velocity P-wave (km/s) = 5.62792 6.10613 5.87189
#
# Compressibility (1/GPa) = 0.02554871
#
# Stress axis : x y z
#
# Youngs Moduli (GPa) = 88.63510 88.63390 49.42309
#
# Poissons Ratio (x) = 0.21261 0.15386
# Poissons Ratio (y) = 0.21261 0.15385
# Poissons Ratio (z) = 0.27592 0.27591
#
# Static dielectric constant tensor:
#      x y z
#    x 1.748940 0.000000 0.000000 
#    y 0.000000 1.748940 0.000000 
#    z 0.000000 0.000000 1.761320 
# 
# From -- ./inp_files/5777.got.cif
#   From: 2010.05.17/outbox.cif.g08.bks.cpg/sg182_3_cif.got.tgz:5777.got - 2010.05.20 11:58:53.
