data_PCOD9584517
_publ_section_title
;
Structure prediction by ZEFSAII (Michael W. Deem and Ramdas Pophale) SiO2 
 PCOD9584517
Probable space group: P 64 2 2
;
_chemical_formula_sum "Si O2"
_cell_formula_units_Z 72
_cell_length_a 15.581667
_cell_length_b 15.581667
_cell_length_c 17.632419
_cell_angle_alpha 90.000000
_cell_angle_beta 90.000000
_cell_angle_gamma 120.000000
_cell_volume 3707.407862
_symmetry_space_group_name_H-M "P 64 2 2"
_symmetry_group_IT_number 181
_symmetry_cell_setting 'hexagonal'
loop_
_space_group_symop_operation_xyz
x,y,z
x-y,x,2/3+z
-y,x-y,1/3+z
-x,-y,z
-x+y,-x,2/3+z
y,-x+y,1/3+z
x-y,-y,-z
-x,-x+y,2/3-z
y,x,1/3-z
-y,-x,1/3-z
-x+y,y,-z
x,x-y,2/3-z
loop_
_atom_site_type_symbol
_atom_site_label
_atom_site_fract_x
_atom_site_fract_y
_atom_site_fract_z
Si Si1 0.554404 0.434270 0.753149
Si Si2 0.361759 0.116878 0.898118
Si Si3 0.720076 0.631589 0.994999
Si Si4 0.896598 0.620217 0.181773
Si Si5 0.443476 0.563685 0.254147
Si Si6 0.619728 0.865483 0.622815
O O1 0.500000 0.500000 0.752119
O O2 0.577356 0.422645 0.666667
O O3 0.475475 0.328888 0.785903
O O4 0.654179 0.505226 0.796116
O O5 0.324571 0.162286 0.833334
O O6 0.304105 0.997492 0.894211
O O7 0.361517 0.166386 0.977974
O O8 0.661549 0.523159 0.034885
O O9 0.685893 0.703297 0.031721
O O10 0.835824 0.671647 0.000000
O O11 0.700201 0.626564 0.905332
O O12 0.811299 0.642151 0.209287
O O13 0.500000 0.500000 0.252993
O O14 0.422941 0.577060 0.166667
O O15 0.337562 0.493197 0.292815
#
# Coordination Sequence:
#
# PCOD9584517 Si02
#       6
#    12  12  12  12  12  12
#     4   9  18  33  54  81 121 156 188 238 302 364
#     4  11  21  36  60  93 126 162 202 252 319 379
#     4  11  24  41  62  90 120 164 218 259 312 378
#     4  11  22  38  63  91 126 164 207 260 309 381
#     4   9  20  39  61  83 116 156 202 253 303 360
#     4  11  22  39  64  90 122 168 207 258 317 371
#
# _framework density 19.420576000000001
#
# number of rings (size 3 to 8) (size 9 to 14) (size 15 to 20)
#    0.000    1.667    3.333    1.500    2.333    4.000 
#    3.000    0.833    0.000    2.000    0.000    0.000 
#    0.000    0.000    0.000    0.000    0.000    0.000 
#
# Total GULP energy -401541.309313 kJ/mol
# GULP energy per Si atom -5576.962629 kJ/mol
# Density = 1.937637 g / cm^3
# Si number density = 19.420576 Si / 1000 Ang^3
#
#
#
# Elastic Constant Matrix: (Units=GPa)
#
#
# Indices 1 2 3 4 5 6 
#
# 1 85.5913 40.5559 23.3537 0.0000 0.0000 0.0000
# 2 40.5559 85.5913 23.3537 0.0000 0.0000 0.0000
# 3 23.3537 23.3537 68.8033 0.0000 0.0000 0.0000
# 4 0.0000 0.0000 0.0000 26.1097 0.0000 0.0000
# 5 0.0000 0.0000 0.0000 0.0000 26.1097 0.0000
# 6 0.0000 0.0000 0.0000 0.0000 0.0000 22.5177
#
#
#
# Elastic Compliance Matrix: (Units=1/GPa)
#
#
# Indices 1 2 3 4 5 6 
#
# 1 0.015636 -0.006569 -0.003077 0.000000 0.000000 0.000000
# 2 -0.006569 0.015636 -0.003077 0.000000 0.000000 0.000000
# 3 -0.003077 -0.003077 0.016623 0.000000 0.000000 0.000000
# 4 0.000000 0.000000 0.000000 0.038300 0.000000 0.000000
# 5 0.000000 0.000000 0.000000 0.000000 0.038300 0.000000
# 6 0.000000 0.000000 0.000000 0.000000 0.000000 0.044409
#
#
# Mechanical properties :
#
#
# Convention : Reuss Voigt Hill
#
# Bulk Modulus (GPa) = 44.54970 46.05694 45.30332
# Shear Modulus (GPa) = 24.77277 25.12892 24.95084
#
# Velocity S-wave (km/s) = 3.57542 3.60103 3.58825
# Velocity P-wave (km/s) = 6.32725 6.40757 6.36753
#
# Compressibility (1/GPa) = 0.02244684
#
# Stress axis : x y z
#
# Youngs Moduli (GPa) = 63.95609 63.95609 60.15640
#
# Poissons Ratio (x) = 0.42013 0.18513
# Poissons Ratio (y) = 0.42013 0.18513
# Poissons Ratio (z) = 0.19682 0.19682
#
# Static dielectric constant tensor:
#      x y z
#    x 1.692020 0.000000 0.000000 
#    y 0.000000 1.692020 0.000000 
#    z 0.000000 0.000000 1.758460 
# 
# From -- ./inp_files/7766.got.cif
#   From: 2010.05.17/outbox.cif.g08.bks.cpg/sg181_4_cif.got.tgz:7766.got - 2010.05.20 11:51:17.
