data_PCOD9584190
_publ_section_title
;
Structure prediction by ZEFSAII (Michael W. Deem and Ramdas Pophale) SiO2 
 PCOD9584190
Probable space group: P 62 2 2
;
_chemical_formula_sum "Si O2"
_cell_formula_units_Z 30
_cell_length_a 7.619310
_cell_length_b 7.619310
_cell_length_c 20.734405
_cell_angle_alpha 90.000000
_cell_angle_beta 90.000000
_cell_angle_gamma 120.000000
_cell_volume 1042.445830
_symmetry_space_group_name_H-M "P 62 2 2"
_symmetry_group_IT_number 180
_symmetry_cell_setting 'hexagonal'
loop_
_space_group_symop_operation_xyz
x,y,z
x-y,x,1/3+z
-y,x-y,2/3+z
-x,-y,z
-x+y,-x,1/3+z
y,-x+y,2/3+z
x-y,-y,-z
-x,-x+y,1/3-z
y,x,2/3-z
-y,-x,2/3-z
-x+y,y,-z
x,x-y,1/3-z
loop_
_atom_site_type_symbol
_atom_site_label
_atom_site_fract_x
_atom_site_fract_y
_atom_site_fract_z
Si Si1 0.164596 0.428563 0.858347
Si Si2 0.749345 0.498690 0.000000
Si Si3 0.250089 0.882981 0.055687
O O1 0.378348 0.621653 0.833334
O O2 0.172519 0.379986 0.933183
O O3 0.112989 0.291485 0.794506
O O4 0.000000 0.500000 0.862050
O O5 0.519999 0.332586 0.976577
O O6 0.500000 0.000000 0.063398
O O7 0.209529 0.000000 0.000000
#
# Coordination Sequence:
#
# PCOD9584190 Si02
#       3
#    12   6  12
#     4   9  15  23  37  56  80 114 146 179 220 266
#     4   8  13  20  32  52  76 102 127 168 218 254
#     4   7  11  20  33  49  69  98 134 170 204 243
#
# _framework density 28.778473000000002
#
# number of rings (size 3 to 8) (size 9 to 14) (size 15 to 20)
#    0.000    4.400    0.000    2.400    0.000    0.000 
#    0.000    0.000    0.000   10.800    0.000    0.000 
#    0.000    0.000    0.000  682.200    0.000    0.000 
#
# Total GULP energy -167304.072357 kJ/mol
# GULP energy per Si atom -5576.802412 kJ/mol
# Density = 2.871297 g / cm^3
# Si number density = 28.778473 Si / 1000 Ang^3
#
#
#
# Elastic Constant Matrix: (Units=GPa)
#
#
# Indices 1 2 3 4 5 6 
#
# 1 79.6079 30.1610 65.0506 0.0000 0.0000 0.0000
# 2 30.1610 79.6079 65.0506 0.0000 0.0000 0.0000
# 3 65.0506 65.0506 484.7558 0.0000 0.0000 0.0000
# 4 0.0000 0.0000 0.0000 46.4426 0.0000 0.0000
# 5 0.0000 0.0000 0.0000 0.0000 46.4426 0.0000
# 6 0.0000 0.0000 0.0000 0.0000 0.0000 24.7234
#
#
#
# Elastic Compliance Matrix: (Units=1/GPa)
#
#
# Indices 1 2 3 4 5 6 
#
# 1 0.015528 -0.004695 -0.001454 0.000000 0.000000 0.000000
# 2 -0.004695 0.015528 -0.001454 0.000000 0.000000 0.000000
# 3 -0.001454 -0.001454 0.002453 0.000000 0.000000 0.000000
# 4 0.000000 0.000000 0.000000 0.021532 0.000000 0.000000
# 5 0.000000 0.000000 0.000000 0.000000 0.021532 0.000000
# 6 0.000000 0.000000 0.000000 0.000000 0.000000 0.040447
#
#
# Mechanical properties :
#
#
# Convention : Reuss Voigt Hill
#
# Bulk Modulus (GPa) = 54.63211 107.16625 80.89918
# Shear Modulus (GPa) = 36.14593 55.76900 45.95746
#
# Velocity S-wave (km/s) = 3.54786 4.40690 4.00051
# Velocity P-wave (km/s) = 5.98398 7.95070 7.03639
#
# Compressibility (1/GPa) = 0.01830425
#
# Stress axis : x y z
#
# Youngs Moduli (GPa) = 64.39822 64.39822 407.65589
#
# Poissons Ratio (x) = 0.30237 0.59261
# Poissons Ratio (y) = 0.30237 0.59261
# Poissons Ratio (z) = 0.09362 0.09362
#
# Static dielectric constant tensor:
#      x y z
#    x 2.400960 0.000000 0.000000 
#    y 0.000000 2.400960 0.000000 
#    z 0.000000 0.000000 2.265650 
# 
# From -- ./inp_files/6879.got.cif
#   From: 2010.05.17/outbox.cif.g08.bks.cpg/sg180_4_cif.got.tgz:6879.got - 2010.05.20 11:43:55.
