data_PCOD9584024
_publ_section_title
;
Structure prediction by ZEFSAII (Michael W. Deem and Ramdas Pophale) SiO2 
 PCOD9584024
Probable space group: P 62 2 2
;
_chemical_formula_sum "Si O2"
_cell_formula_units_Z 42
_cell_length_a 13.627951
_cell_length_b 13.627951
_cell_length_c 12.251506
_cell_angle_alpha 90.000000
_cell_angle_beta 90.000000
_cell_angle_gamma 120.000000
_cell_volume 1970.521762
_symmetry_space_group_name_H-M "P 62 2 2"
_symmetry_group_IT_number 180
_symmetry_cell_setting 'hexagonal'
loop_
_space_group_symop_operation_xyz
x,y,z
x-y,x,1/3+z
-y,x-y,2/3+z
-x,-y,z
-x+y,-x,1/3+z
y,-x+y,2/3+z
x-y,-y,-z
-x,-x+y,1/3-z
y,x,2/3-z
-y,-x,2/3-z
-x+y,y,-z
x,x-y,1/3-z
loop_
_atom_site_type_symbol
_atom_site_label
_atom_site_fract_x
_atom_site_fract_y
_atom_site_fract_z
Si Si1 0.442453 0.104527 0.193579
Si Si2 0.729285 0.000000 0.000000
Si Si3 0.332114 0.233300 0.920974
Si Si4 0.537711 0.238329 0.791819
O O1 0.452274 0.226137 0.166667
O O2 0.357094 0.028558 0.100033
O O3 0.384671 0.064214 0.311696
O O4 0.572400 0.133917 0.195339
O O5 0.849895 0.108487 0.028056
O O6 0.269294 0.269294 0.833334
O O7 0.435661 0.228973 0.862827
O O8 0.650203 0.349798 0.833334
O O9 0.520233 0.260117 0.666667
#
# Coordination Sequence:
#
# PCOD9584024 Si02
#       4
#    12   6  12  12
#     4   9  21  41  67  98 135 176 228 280 352 425
#     4  10  24  45  70 101 134 184 244 299 355 428
#     4  11  25  43  67 100 140 182 235 293 353 424
#     4  11  22  41  64 100 146 185 217 280 362 444
#
# _framework density 21.314150999999999
#
# number of rings (size 3 to 8) (size 9 to 14) (size 15 to 20)
#    0.000    1.714    2.857    0.000    4.000    2.857 
#    0.000    0.000    0.000   23.143    0.000    0.000 
#    0.000    0.000    0.000    0.000    0.000    0.000 
#
# Total GULP energy -234929.091983 kJ/mol
# GULP energy per Si atom -5593.549809 kJ/mol
# Density = 2.126564 g / cm^3
# Si number density = 21.314151 Si / 1000 Ang^3
#
#
#
# Elastic Constant Matrix: (Units=GPa)
#
#
# Indices 1 2 3 4 5 6 
#
# 1 104.3698 51.9985 44.8076 0.0000 0.0000 0.0000
# 2 51.9985 104.3698 44.8076 0.0000 0.0000 0.0000
# 3 44.8076 44.8076 162.1727 0.0000 0.0000 0.0000
# 4 0.0000 0.0000 0.0000 38.3110 0.0000 0.0000
# 5 0.0000 0.0000 0.0000 0.0000 38.3110 0.0000
# 6 0.0000 0.0000 0.0000 0.0000 0.0000 26.1857
#
#
#
# Elastic Compliance Matrix: (Units=1/GPa)
#
#
# Indices 1 2 3 4 5 6 
#
# 1 0.013346 -0.005748 -0.002099 0.000000 0.000000 0.000000
# 2 -0.005748 0.013346 -0.002099 0.000000 0.000000 0.000000
# 3 -0.002099 -0.002099 0.007326 0.000000 0.000000 0.000000
# 4 0.000000 0.000000 0.000000 0.026102 0.000000 0.000000
# 5 0.000000 0.000000 0.000000 0.000000 0.026102 0.000000
# 6 0.000000 0.000000 0.000000 0.000000 0.000000 0.038189
#
#
# Mechanical properties :
#
#
# Convention : Reuss Voigt Hill
#
# Bulk Modulus (GPa) = 70.79406 72.68219 71.73812
# Shear Modulus (GPa) = 33.55383 35.84813 34.70098
#
# Velocity S-wave (km/s) = 3.97199 4.10554 4.03932
# Velocity P-wave (km/s) = 7.37036 7.52651 7.44885
#
# Compressibility (1/GPa) = 0.01412548
#
# Stress axis : x y z
#
# Youngs Moduli (GPa) = 74.92679 74.92679 136.49331
#
# Poissons Ratio (x) = 0.43068 0.28655
# Poissons Ratio (y) = 0.43068 0.28655
# Poissons Ratio (z) = 0.15730 0.15730
#
# Static dielectric constant tensor:
#      x y z
#    x 1.779920 0.000000 0.000000 
#    y 0.000000 1.779920 0.000000 
#    z 0.000000 0.000000 1.765600 
# 
# From -- ./inp_files/4193.got.cif
#   From: 2010.05.17/outbox.cif.g08.bks.cpg/sg180_3_cif.got.tgz:4193.got - 2010.05.20 11:43:55.
