data_PCOD9584335
_publ_section_title
;
Structure prediction by ZEFSAII (Michael W. Deem and Ramdas Pophale) SiO2 
 PCOD9584335
Probable space group: P 64 2 2
;
_chemical_formula_sum "Si O2"
_cell_formula_units_Z 60
_cell_length_a 13.657413
_cell_length_b 13.657413
_cell_length_c 17.757651
_cell_angle_alpha 90.000000
_cell_angle_beta 90.000000
_cell_angle_gamma 120.000000
_cell_volume 2868.487973
_symmetry_space_group_name_H-M "P 64 2 2"
_symmetry_group_IT_number 181
_symmetry_cell_setting 'hexagonal'
loop_
_space_group_symop_operation_xyz
x,y,z
x-y,x,2/3+z
-y,x-y,1/3+z
-x,-y,z
-x+y,-x,2/3+z
y,-x+y,1/3+z
x-y,-y,-z
-x,-x+y,2/3-z
y,x,1/3-z
-y,-x,1/3-z
-x+y,y,-z
x,x-y,2/3-z
loop_
_atom_site_type_symbol
_atom_site_label
_atom_site_fract_x
_atom_site_fract_y
_atom_site_fract_z
Si Si1 0.609529 0.120885 0.688362
Si Si2 0.293927 0.179830 0.638335
Si Si3 0.738284 0.197423 0.245989
Si Si4 0.253789 0.309407 0.086973
Si Si5 0.725342 0.667703 0.860867
O O1 0.554928 0.199132 0.700028
O O2 0.691173 0.120528 0.623226
O O3 0.662740 0.118374 0.768437
O O4 0.500000 0.000000 0.676117
O O5 0.185723 0.185723 0.666667
O O6 0.390408 0.237445 0.701660
O O7 0.331109 0.247224 0.559846
O O8 0.270160 0.052976 0.625495
O O9 0.744640 0.255361 0.166667
O O10 0.713637 0.072355 0.217032
O O11 0.313706 0.313706 0.166667
O O12 0.123069 0.272106 0.101953
#
# Coordination Sequence:
#
# PCOD9584335 Si02
#       5
#    12  12  12  12  12
#     4  10  20  38  62  84 121 173 209 268 331 375
#     4  11  21  37  63  96 128 176 217 257 325 406
#     4  11  22  41  66  88 129 175 219 263 337 394
#     4  10  21  38  64  96 129 166 218 269 333 389
#     4  10  21  39  63  90 129 171 209 273 324 388
#
# _framework density 20.916944000000001
#
# number of rings (size 3 to 8) (size 9 to 14) (size 15 to 20)
#    0.000    1.600    6.000    0.600    0.000    0.400 
#    0.000    7.000    0.000    0.000    0.000    0.000 
#    0.000    0.000    0.000    0.000    0.000    0.000 
#
# Total GULP energy -334006.260871 kJ/mol
# GULP energy per Si atom -5566.771015 kJ/mol
# Density = 2.086934 g / cm^3
# Si number density = 20.916944 Si / 1000 Ang^3
#
#
#
# Elastic Constant Matrix: (Units=GPa)
#
#
# Indices 1 2 3 4 5 6 
#
# 1 54.4926 13.5287 27.4242 0.0000 0.0000 0.0000
# 2 13.5287 54.4926 27.4242 0.0000 0.0000 0.0000
# 3 27.4242 27.4242 116.1575 0.0000 0.0000 0.0000
# 4 0.0000 0.0000 0.0000 24.0236 0.0000 0.0000
# 5 0.0000 0.0000 0.0000 0.0000 24.0236 0.0000
# 6 0.0000 0.0000 0.0000 0.0000 0.0000 20.4820
#
#
#
# Elastic Compliance Matrix: (Units=1/GPa)
#
#
# Indices 1 2 3 4 5 6 
#
# 1 0.021285 -0.003127 -0.004287 0.000000 0.000000 0.000000
# 2 -0.003127 0.021285 -0.004287 0.000000 0.000000 0.000000
# 3 -0.004287 -0.004287 0.010633 0.000000 0.000000 0.000000
# 4 0.000000 0.000000 0.000000 0.041626 0.000000 0.000000
# 5 0.000000 0.000000 0.000000 0.000000 0.041626 0.000000
# 6 0.000000 0.000000 0.000000 0.000000 0.000000 0.048823
#
#
# Mechanical properties :
#
#
# Convention : Reuss Voigt Hill
#
# Bulk Modulus (GPa) = 33.55552 40.21078 36.88315
# Shear Modulus (GPa) = 22.87140 24.15687 23.51414
#
# Velocity S-wave (km/s) = 3.31031 3.40206 3.35650
# Velocity P-wave (km/s) = 5.53967 5.89048 5.71777
#
# Compressibility (1/GPa) = 0.02980135
#
# Stress axis : x y z
#
# Youngs Moduli (GPa) = 46.98161 46.98161 94.04416
#
# Poissons Ratio (x) = 0.14690 0.40317
# Poissons Ratio (y) = 0.14690 0.40317
# Poissons Ratio (z) = 0.20141 0.20141
#
# Static dielectric constant tensor:
#      x y z
#    x 1.783440 0.000000 0.000000 
#    y 0.000000 1.783440 0.000000 
#    z 0.000000 0.000000 1.782210 
# 
# From -- ./inp_files/6112.got.cif
#   From: 2010.05.17/outbox.cif.g08.bks.cpg/sg181_4_cif.got.tgz:6112.got - 2010.05.20 11:51:17.
