data_PCOD9584275
_publ_section_title
;
Structure prediction by ZEFSAII (Michael W. Deem and Ramdas Pophale) SiO2 
 PCOD9584275
Probable space group: P 64 2 2
;
_chemical_formula_sum "Si O2"
_cell_formula_units_Z 84
_cell_length_a 27.237702
_cell_length_b 27.237702
_cell_length_c 6.898567
_cell_angle_alpha 90.000000
_cell_angle_beta 90.000000
_cell_angle_gamma 120.000000
_cell_volume 4432.313252
_symmetry_space_group_name_H-M "P 64 2 2"
_symmetry_group_IT_number 181
_symmetry_cell_setting 'hexagonal'
loop_
_space_group_symop_operation_xyz
x,y,z
x-y,x,2/3+z
-y,x-y,1/3+z
-x,-y,z
-x+y,-x,2/3+z
y,-x+y,1/3+z
x-y,-y,-z
-x,-x+y,2/3-z
y,x,1/3-z
-y,-x,1/3-z
-x+y,y,-z
x,x-y,2/3-z
loop_
_atom_site_type_symbol
_atom_site_label
_atom_site_fract_x
_atom_site_fract_y
_atom_site_fract_z
Si Si1 0.721233 0.785748 0.610087
Si Si2 0.605959 0.653589 0.935364
Si Si3 0.285184 0.142592 0.333334
Si Si4 0.517147 0.124569 0.623278
Si Si5 0.686755 0.196629 0.706454
Si Si6 0.589562 0.410439 0.666667
Si Si7 0.869545 0.213431 0.041670
Si Si8 0.397115 0.078788 0.172555
O O1 0.751476 0.751476 0.666667
O O2 0.749608 0.833219 0.446779
O O3 0.708879 0.804800 0.814283
O O4 0.658960 0.742528 0.523753
O O5 0.631154 0.719907 0.987070
O O6 0.591910 0.653604 0.706706
O O7 0.546500 0.621485 0.038133
O O8 0.626288 0.646129 0.374687
O O9 0.324253 0.140465 0.503359
O O10 0.551374 0.102748 0.500000
O O11 0.524429 0.178310 0.499647
O O12 0.543346 0.143243 0.836148
O O13 0.748468 0.251533 0.666667
O O14 0.687587 0.138700 0.766209
O O15 0.648146 0.207142 0.867371
O O16 0.810578 0.189423 0.166667
#
# Coordination Sequence:
#
# PCOD9584275 Si02
#       8
#    12  12   6  12  12   6  12  12
#     4  10  19  36  52  79 123 158 212 269 316 369
#     4  10  19  39  61  84 126 171 196 246 314 365
#     4  10  22  32  54  80 115 166 212 261 319 352
#     4  10  23  42  66  91 119 156 194 238 306 386
#     4  11  25  42  71  97 123 155 202 261 326 389
#     4  10  22  50  67  88 129 150 192 259 316 404
#     4   9  19  35  53  84 118 157 213 259 301 358
#     4  10  20  38  60  92 123 164 202 245 320 375
#
# _framework density 18.951729
#
# number of rings (size 3 to 8) (size 9 to 14) (size 15 to 20)
#    0.000    2.000    4.286    0.000    3.000    4.000 
#    0.000    5.714   15.714    0.000    0.000    0.000 
#    0.000    0.000    0.000    0.000    0.000    0.000 
#
# Total GULP energy -467673.608080 kJ/mol
# GULP energy per Si atom -5567.542953 kJ/mol
# Density = 1.890859 g / cm^3
# Si number density = 18.951729 Si / 1000 Ang^3
#
#
#
# Elastic Constant Matrix: (Units=GPa)
#
#
# Indices 1 2 3 4 5 6 
#
# 1 93.0254 77.5522 44.5074 0.0000 0.0000 0.0000
# 2 77.5522 93.0254 44.5074 0.0000 0.0000 0.0000
# 3 44.5074 44.5074 126.6651 0.0000 0.0000 0.0000
# 4 0.0000 0.0000 0.0000 30.1603 0.0000 0.0000
# 5 0.0000 0.0000 0.0000 0.0000 30.1603 0.0000
# 6 0.0000 0.0000 0.0000 0.0000 0.0000 7.7366
#
#
#
# Elastic Compliance Matrix: (Units=1/GPa)
#
#
# Indices 1 2 3 4 5 6 
#
# 1 0.035903 -0.028725 -0.002522 0.000000 0.000000 0.000000
# 2 -0.028725 0.035903 -0.002522 0.000000 0.000000 0.000000
# 3 -0.002522 -0.002522 0.009668 0.000000 0.000000 0.000000
# 4 0.000000 0.000000 0.000000 0.033156 0.000000 0.000000
# 5 0.000000 0.000000 0.000000 0.000000 0.033156 0.000000
# 6 0.000000 0.000000 0.000000 0.000000 0.000000 0.129256
#
#
# Mechanical properties :
#
#
# Convention : Reuss Voigt Hill
#
# Bulk Modulus (GPa) = 71.76075 71.76107 71.76091
# Shear Modulus (GPa) = 14.31736 23.35472 18.83604
#
# Velocity S-wave (km/s) = 2.75155 3.51426 3.15603
# Velocity P-wave (km/s) = 6.93123 7.37659 7.15737
#
# Compressibility (1/GPa) = 0.01393519
#
# Stress axis : x y z
#
# Youngs Moduli (GPa) = 27.85257 27.85257 103.43924
#
# Poissons Ratio (x) = 0.80005 0.26092
# Poissons Ratio (y) = 0.80005 0.26092
# Poissons Ratio (z) = 0.07026 0.07026
#
# Static dielectric constant tensor:
#      x y z
#    x 1.702730 0.000000 0.000000 
#    y 0.000000 1.702730 0.000000 
#    z 0.000000 0.000000 1.672700 
# 
# From -- ./inp_files/1711.got.cif
#   From: 2010.05.17/outbox.cif.g08.bks.cpg/sg181_1_cif.got.tgz:1711.got - 2010.05.20 11:51:17.
