data_PCOD9584328
_publ_section_title
;
Structure prediction by ZEFSAII (Michael W. Deem and Ramdas Pophale) SiO2 
 PCOD9584328
Probable space group: P 64 2 2
;
_chemical_formula_sum "Si O2"
_cell_formula_units_Z 84
_cell_length_a 17.853551
_cell_length_b 17.853551
_cell_length_c 16.124376
_cell_angle_alpha 90.000000
_cell_angle_beta 90.000000
_cell_angle_gamma 120.000000
_cell_volume 4451.052999
_symmetry_space_group_name_H-M "P 64 2 2"
_symmetry_group_IT_number 181
_symmetry_cell_setting 'hexagonal'
loop_
_space_group_symop_operation_xyz
x,y,z
x-y,x,2/3+z
-y,x-y,1/3+z
-x,-y,z
-x+y,-x,2/3+z
y,-x+y,1/3+z
x-y,-y,-z
-x,-x+y,2/3-z
y,x,1/3-z
-y,-x,1/3-z
-x+y,y,-z
x,x-y,2/3-z
loop_
_atom_site_type_symbol
_atom_site_label
_atom_site_fract_x
_atom_site_fract_y
_atom_site_fract_z
Si Si1 0.842425 0.322725 0.632434
Si Si2 0.791141 0.469965 0.368122
Si Si3 0.360868 0.869781 0.329400
Si Si4 0.067519 0.775641 0.707204
Si Si5 0.414689 0.306240 0.554001
Si Si6 0.108907 0.768936 0.899854
Si Si7 0.056071 0.452908 0.489891
O O1 0.748468 0.251532 0.666667
O O2 0.863553 0.415713 0.667428
O O3 0.904853 0.288083 0.664326
O O4 0.851159 0.319886 0.532032
O O5 0.745874 0.372937 0.333334
O O6 0.718466 0.496570 0.367926
O O7 0.862276 0.520312 0.297147
O O8 0.848900 0.494444 0.450425
O O9 0.319927 0.891502 0.408675
O O10 0.381298 0.935658 0.254363
O O11 0.130447 0.869554 0.666667
O O12 0.088863 0.773619 0.803895
O O13 0.964176 0.733912 0.708615
O O14 0.357441 0.205484 0.574643
O O15 0.363075 0.357608 0.545771
O O16 0.000000 0.500000 0.474551
#
# Coordination Sequence:
#
# PCOD9584328 Si02
#       7
#    12  12  12  12  12  12  12
#     4  11  20  37  57  78 117 170 209 256 313 364
#     4  11  22  38  55  84 116 158 211 261 305 366
#     4  11  24  35  54  86 121 155 212 262 312 364
#     4  10  20  37  62  80 118 161 205 248 316 382
#     4  11  21  36  57  85 111 153 209 257 312 371
#     4  10  22  37  54  88 117 153 205 265 305 379
#     4  12  22  37  62  79 115 165 212 255 318 371
#
# _framework density 18.871938
#
# number of rings (size 3 to 8) (size 9 to 14) (size 15 to 20)
#    0.000    1.143    5.714    2.143    0.000    0.571 
#    0.000    2.857    0.000    0.000    0.000    0.000 
#    0.000    9.143    1.143    1.143    0.000    0.571 
#
# Total GULP energy -468242.168426 kJ/mol
# GULP energy per Si atom -5574.311529 kJ/mol
# Density = 1.882899 g / cm^3
# Si number density = 18.871938 Si / 1000 Ang^3
#
#
#
# Elastic Constant Matrix: (Units=GPa)
#
#
# Indices 1 2 3 4 5 6 
#
# 1 68.6740 24.5612 6.9420 0.0000 0.0000 0.0000
# 2 24.5612 68.6740 6.9420 0.0000 0.0000 0.0000
# 3 6.9420 6.9420 66.2255 0.0000 0.0000 0.0000
# 4 0.0000 0.0000 0.0000 29.5981 0.0000 0.0000
# 5 0.0000 0.0000 0.0000 0.0000 29.5981 0.0000
# 6 0.0000 0.0000 0.0000 0.0000 0.0000 22.0564
#
#
#
# Elastic Compliance Matrix: (Units=1/GPa)
#
#
# Indices 1 2 3 4 5 6 
#
# 1 0.016782 -0.005887 -0.001142 0.000000 0.000000 0.000000
# 2 -0.005887 0.016782 -0.001142 0.000000 0.000000 0.000000
# 3 -0.001142 -0.001142 0.015339 0.000000 0.000000 0.000000
# 4 0.000000 0.000000 0.000000 0.033786 0.000000 0.000000
# 5 0.000000 0.000000 0.000000 0.000000 0.033786 0.000000
# 6 0.000000 0.000000 0.000000 0.000000 0.000000 0.045338
#
#
# Mechanical properties :
#
#
# Convention : Reuss Voigt Hill
#
# Bulk Modulus (GPa) = 30.71051 31.16267 30.93659
# Shear Modulus (GPa) = 26.45357 27.25907 26.85632
#
# Velocity S-wave (km/s) = 3.74804 3.80468 3.77647
# Velocity P-wave (km/s) = 5.91937 5.98743 5.95350
#
# Compressibility (1/GPa) = 0.03256214
#
# Stress axis : x y z
#
# Youngs Moduli (GPa) = 59.58624 59.58624 65.19177
#
# Poissons Ratio (x) = 0.35077 0.07446
# Poissons Ratio (y) = 0.35077 0.07446
# Poissons Ratio (z) = 0.06806 0.06806
#
# Static dielectric constant tensor:
#      x y z
#    x 1.719470 0.000000 0.000000 
#    y 0.000000 1.719470 0.000000 
#    z 0.000000 0.000000 1.697850 
# 
# From -- ./inp_files/6515.got.cif
#   From: 2010.05.17/outbox.cif.g08.bks.cpg/sg181_4_cif.got.tgz:6515.got - 2010.05.20 11:51:17.
