data_PCOD9584657
_publ_section_title
;
Structure prediction by ZEFSAII (Michael W. Deem and Ramdas Pophale) SiO2 
 PCOD9584657
Probable space group: P 63 2 2
;
_chemical_formula_sum "Si O2"
_cell_formula_units_Z 48
_cell_length_a 18.590200
_cell_length_b 18.590200
_cell_length_c 8.307399
_cell_angle_alpha 90.000000
_cell_angle_beta 90.000000
_cell_angle_gamma 120.000000
_cell_volume 2486.358943
_symmetry_space_group_name_H-M "P 63 2 2"
_symmetry_group_IT_number 182
_symmetry_cell_setting 'hexagonal'
loop_
_space_group_symop_operation_xyz
x,y,z
x-y,x,1/2+z
-y,x-y,z
-x,-y,1/2+z
-x+y,-x,z
y,-x+y,1/2+z
x-y,-y,-z
-x,-x+y,-z
y,x,-z
-y,-x,1/2-z
-x+y,y,1/2-z
x,x-y,1/2-z
loop_
_atom_site_type_symbol
_atom_site_label
_atom_site_fract_x
_atom_site_fract_y
_atom_site_fract_z
Si Si1 0.160220 0.000073 0.691651
Si Si2 0.522167 0.921718 0.382869
Si Si3 0.665882 0.980069 0.810296
Si Si4 0.827580 0.494726 0.307332
O O1 0.070697 0.929304 0.750000
O O2 0.230846 0.978902 0.743817
O O3 0.159552 0.000000 0.500000
O O4 0.179452 0.089726 0.750000
O O5 0.453493 0.906986 0.250000
O O6 0.501572 0.845812 0.501674
O O7 0.540176 0.000000 0.500000
O O8 0.607652 0.951095 0.288923
O O9 0.582421 0.894319 0.770951
O O10 0.672466 0.000000 0.000000
O O11 0.737594 0.475188 0.250000
O O12 0.844191 0.422096 0.250000
#
# Coordination Sequence:
#
# PCOD9584657 Si02
#       4
#    12  12  12  12
#     4  11  24  40  60  85 119 157 196 241 295 358
#     4  10  19  35  61  88 117 153 198 253 310 362
#     4  10  21  38  63  91 117 150 200 255 304 358
#     4  11  23  39  60  86 122 164 204 249 303 360
#
# _framework density 19.305337999999999
#
# number of rings (size 3 to 8) (size 9 to 14) (size 15 to 20)
#    0.000    1.500    0.000    7.250    0.000   10.000 
#    0.000    3.750    0.000    0.000    0.000    0.000 
#    0.000    0.000    0.000    0.000    0.000    0.000 
#
# Total GULP energy -268231.366887 kJ/mol
# GULP energy per Si atom -5588.153477 kJ/mol
# Density = 1.926140 g / cm^3
# Si number density = 19.305338 Si / 1000 Ang^3
#
#
#
# Elastic Constant Matrix: (Units=GPa)
#
#
# Indices 1 2 3 4 5 6 
#
# 1 114.6706 43.7090 29.8646 0.0000 0.0000 0.0000
# 2 43.7090 114.6706 29.8646 0.0000 0.0000 0.0000
# 3 29.8646 29.8646 96.1188 0.0000 0.0000 0.0000
# 4 0.0000 0.0000 0.0000 18.3397 0.0000 0.0000
# 5 0.0000 0.0000 0.0000 0.0000 18.3397 0.0000
# 6 0.0000 0.0000 0.0000 0.0000 0.0000 35.4808
#
#
#
# Elastic Compliance Matrix: (Units=1/GPa)
#
#
# Indices 1 2 3 4 5 6 
#
# 1 0.010622 -0.003470 -0.002222 0.000000 0.000000 0.000000
# 2 -0.003470 0.010622 -0.002222 0.000000 0.000000 0.000000
# 3 -0.002222 -0.002222 0.011785 0.000000 0.000000 0.000000
# 4 0.000000 0.000000 0.000000 0.054527 0.000000 0.000000
# 5 0.000000 0.000000 0.000000 0.000000 0.054527 0.000000
# 6 0.000000 0.000000 0.000000 0.000000 0.000000 0.028184
#
#
# Mechanical properties :
#
#
# Convention : Reuss Voigt Hill
#
# Bulk Modulus (GPa) = 58.13958 59.14852 58.64405
# Shear Modulus (GPa) = 26.06500 29.23350 27.64925
#
# Velocity S-wave (km/s) = 3.67842 3.89558 3.78856
# Velocity P-wave (km/s) = 6.94422 7.13716 7.04135
#
# Compressibility (1/GPa) = 0.01719999
#
# Stress axis : x y z
#
# Youngs Moduli (GPa) = 94.14378 94.14378 84.85603
#
# Poissons Ratio (x) = 0.32669 0.18856
# Poissons Ratio (y) = 0.32669 0.18856
# Poissons Ratio (z) = 0.20920 0.20920
#
# Static dielectric constant tensor:
#      x y z
#    x 1.677210 0.000000 0.000000 
#    y 0.000000 1.677210 0.000000 
#    z 0.000000 0.000000 1.674380 
# 
# From -- ./inp_files/1454.got.cif
#   From: 2010.05.17/outbox.cif.g08.bks.cpg/sg182_1_cif.got.tgz:1454.got - 2010.05.20 11:58:53.
