data_PCOD9584231
_publ_section_title
;
Structure prediction by ZEFSAII (Michael W. Deem and Ramdas Pophale) SiO2 
 PCOD9584231
Probable space group: P 64 2 2
;
_chemical_formula_sum "Si O2"
_cell_formula_units_Z 84
_cell_length_a 14.208393
_cell_length_b 14.208393
_cell_length_c 24.849830
_cell_angle_alpha 90.000000
_cell_angle_beta 90.000000
_cell_angle_gamma 120.000000
_cell_volume 4344.541758
_symmetry_space_group_name_H-M "P 64 2 2"
_symmetry_group_IT_number 181
_symmetry_cell_setting 'hexagonal'
loop_
_space_group_symop_operation_xyz
x,y,z
x-y,x,2/3+z
-y,x-y,1/3+z
-x,-y,z
-x+y,-x,2/3+z
y,-x+y,1/3+z
x-y,-y,-z
-x,-x+y,2/3-z
y,x,1/3-z
-y,-x,1/3-z
-x+y,y,-z
x,x-y,2/3-z
loop_
_atom_site_type_symbol
_atom_site_label
_atom_site_fract_x
_atom_site_fract_y
_atom_site_fract_z
Si Si1 0.118852 0.661202 0.606758
Si Si2 0.872633 0.043039 0.344069
Si Si3 0.870474 0.322663 0.735481
Si Si4 0.721734 0.601575 0.375201
Si Si5 0.212553 0.694837 0.926424
Si Si6 0.700149 0.278010 0.230210
Si Si7 0.697659 0.759847 0.112741
O O1 0.129373 0.661979 0.671434
O O2 0.195775 0.785226 0.587341
O O3 0.186621 0.608482 0.582022
O O4 0.989852 0.608814 0.600495
O O5 0.806875 0.082191 0.306884
O O6 0.844636 0.061412 0.404401
O O7 0.000000 0.111338 0.333334
O O8 0.834628 0.917314 0.333334
O O9 0.837144 0.406654 0.759016
O O10 0.985977 0.346151 0.754475
O O11 0.698734 0.532159 0.319256
O O12 0.766009 0.545554 0.416075
O O13 0.340133 0.732492 0.925310
O O14 0.177459 0.763045 0.887347
O O15 0.705457 0.294544 0.166667
O O16 0.755268 0.755268 0.166667
#
# Coordination Sequence:
#
# PCOD9584231 Si02
#       7
#    12  12  12  12  12  12  12
#     4  10  19  33  59  87 117 159 215 259 297 380
#     4  10  22  44  70  94 116 157 213 270 329 398
#     4  10  18  32  55  91 123 161 199 251 323 384
#     4  11  20  38  65  84 115 166 220 257 302 390
#     4  10  21  34  54  87 127 168 203 247 316 381
#     4  11  24  37  54  88 133 172 207 253 309 368
#     4  11  23  34  58  96 133 157 200 268 337 388
#
# _framework density 19.334606000000001
#
# number of rings (size 3 to 8) (size 9 to 14) (size 15 to 20)
#    0.000    1.571    4.286    2.143    4.000    0.571 
#    0.000    4.286    6.286    3.429    0.000    0.000 
#    0.000    0.000    0.000    0.000    0.000    0.000 
#
# Total GULP energy -468208.444035 kJ/mol
# GULP energy per Si atom -5573.910048 kJ/mol
# Density = 1.929060 g / cm^3
# Si number density = 19.334606 Si / 1000 Ang^3
#
#
#
# Elastic Constant Matrix: (Units=GPa)
#
#
# Indices 1 2 3 4 5 6 
#
# 1 100.4027 47.4596 23.9970 0.0000 0.0000 0.0000
# 2 47.4596 100.4027 23.9970 0.0000 0.0000 0.0000
# 3 23.9970 23.9970 60.5485 0.0000 0.0000 0.0000
# 4 0.0000 0.0000 0.0000 18.9998 0.0000 0.0000
# 5 0.0000 0.0000 0.0000 0.0000 18.9998 0.0000
# 6 0.0000 0.0000 0.0000 0.0000 0.0000 26.4715
#
#
#
# Elastic Compliance Matrix: (Units=1/GPa)
#
#
# Indices 1 2 3 4 5 6 
#
# 1 0.013325 -0.005563 -0.003076 0.000000 0.000000 0.000000
# 2 -0.005563 0.013325 -0.003076 0.000000 0.000000 0.000000
# 3 -0.003076 -0.003076 0.018954 0.000000 0.000000 0.000000
# 4 0.000000 0.000000 0.000000 0.052632 0.000000 0.000000
# 5 0.000000 0.000000 0.000000 0.000000 0.052632 0.000000
# 6 0.000000 0.000000 0.000000 0.000000 0.000000 0.037776
#
#
# Mechanical properties :
#
#
# Convention : Reuss Voigt Hill
#
# Bulk Modulus (GPa) = 45.10069 50.25122 47.67596
# Shear Modulus (GPa) = 22.78251 23.95422 23.36837
#
# Velocity S-wave (km/s) = 3.43640 3.52366 3.48031
# Velocity P-wave (km/s) = 6.25477 6.52699 6.39233
#
# Compressibility (1/GPa) = 0.02217261
#
# Stress axis : x y z
#
# Youngs Moduli (GPa) = 75.04767 75.04767 52.75940
#
# Poissons Ratio (x) = 0.41752 0.16229
# Poissons Ratio (y) = 0.41752 0.16229
# Poissons Ratio (z) = 0.23085 0.23085
#
# Static dielectric constant tensor:
#      x y z
#    x 1.730040 0.000000 0.000000 
#    y 0.000000 1.730040 0.000000 
#    z 0.000000 0.000000 1.711540 
# 
# From -- ./inp_files/10202.got.cif
#   From: 2010.05.17/outbox.cif.g08.bks.cpg/sg181_6_cif.got.tgz:10202.got - 2010.05.20 11:51:17.
