data_PCOD9584180
_publ_section_title
;
Structure prediction by ZEFSAII (Michael W. Deem and Ramdas Pophale) SiO2 
 PCOD9584180
Probable space group: P 62 2 2
;
_chemical_formula_sum "Si O2"
_cell_formula_units_Z 45
_cell_length_a 11.895285
_cell_length_b 11.895285
_cell_length_c 17.488846
_cell_angle_alpha 90.000000
_cell_angle_beta 90.000000
_cell_angle_gamma 120.000000
_cell_volume 2143.095325
_symmetry_space_group_name_H-M "P 62 2 2"
_symmetry_group_IT_number 180
_symmetry_cell_setting 'hexagonal'
loop_
_space_group_symop_operation_xyz
x,y,z
x-y,x,1/3+z
-y,x-y,2/3+z
-x,-y,z
-x+y,-x,1/3+z
y,-x+y,2/3+z
x-y,-y,-z
-x,-x+y,1/3-z
y,x,2/3-z
-y,-x,2/3-z
-x+y,y,-z
x,x-y,1/3-z
loop_
_atom_site_type_symbol
_atom_site_label
_atom_site_fract_x
_atom_site_fract_y
_atom_site_fract_z
Si Si1 0.000000 0.000000 0.166667
Si Si2 0.005852 0.205517 0.378611
Si Si3 0.316740 0.683261 0.333334
Si Si4 0.547035 0.900227 0.793000
Si Si5 0.864105 0.260746 0.628309
O O1 0.102163 0.106830 0.107774
O O2 0.128986 0.271154 0.323521
O O3 0.998793 0.321972 0.416029
O O4 0.873848 0.126153 0.333334
O O5 0.223287 0.678219 0.404395
O O6 0.266277 0.530787 0.317810
O O7 0.591893 0.862167 0.870331
O O8 0.500000 0.000000 0.817746
O O9 0.000000 0.371024 0.666667
#
# Coordination Sequence:
#
# PCOD9584180 Si02
#       5
#     3  12   6  12  12
#     4  12  26  44  76 106 146 190 242 312 370 438
#     4  12  24  45  70 105 145 187 240 300 371 437
#     4  12  25  48  70 107 146 192 248 304 368 439
#     4  12  25  47  73 103 151 196 242 306 368 446
#     4  12  26  44  74 107 141 192 249 303 368 438
#
# _framework density 20.997668000000001
#
# number of rings (size 3 to 8) (size 9 to 14) (size 15 to 20)
#    0.000    0.000    4.000    8.000    0.000    0.000 
#    0.000    0.000    0.000    0.000    0.000    0.000 
#    0.000    0.000    0.000    0.000    0.000    0.000 
#
# Total GULP energy -250675.846339 kJ/mol
# GULP energy per Si atom -5570.574363 kJ/mol
# Density = 2.094988 g / cm^3
# Si number density = 20.997668 Si / 1000 Ang^3
#
#
#
# Elastic Constant Matrix: (Units=GPa)
#
#
# Indices 1 2 3 4 5 6 
#
# 1 74.4633 37.6726 29.3513 0.0000 0.0000 0.0000
# 2 37.6726 74.4633 29.3513 0.0000 0.0000 0.0000
# 3 29.3513 29.3513 116.2522 0.0000 0.0000 0.0000
# 4 0.0000 0.0000 0.0000 76.5682 0.0000 0.0000
# 5 0.0000 0.0000 0.0000 0.0000 76.5682 0.0000
# 6 0.0000 0.0000 0.0000 0.0000 0.0000 18.3953
#
#
#
# Elastic Compliance Matrix: (Units=1/GPa)
#
#
# Indices 1 2 3 4 5 6 
#
# 1 0.018728 -0.008452 -0.002594 0.000000 0.000000 0.000000
# 2 -0.008452 0.018728 -0.002594 0.000000 0.000000 0.000000
# 3 -0.002594 -0.002594 0.009912 0.000000 0.000000 0.000000
# 4 0.000000 0.000000 0.000000 0.013060 0.000000 0.000000
# 5 0.000000 0.000000 0.000000 0.000000 0.013060 0.000000
# 6 0.000000 0.000000 0.000000 0.000000 0.000000 0.054362
#
#
# Mechanical properties :
#
#
# Convention : Reuss Voigt Hill
#
# Bulk Modulus (GPa) = 49.78565 50.88102 50.33334
# Shear Modulus (GPa) = 30.89679 45.55989 38.22834
#
# Velocity S-wave (km/s) = 3.84010 4.66312 4.27148
# Velocity P-wave (km/s) = 6.58964 7.29913 6.95344
#
# Compressibility (1/GPa) = 0.02008611
#
# Stress axis : x y z
#
# Youngs Moduli (GPa) = 53.39491 53.39491 100.88689
#
# Poissons Ratio (x) = 0.45132 0.26175
# Poissons Ratio (y) = 0.45132 0.26175
# Poissons Ratio (z) = 0.13853 0.13853
#
# Static dielectric constant tensor:
#      x y z
#    x 1.565000 0.000000 0.000000 
#    y 0.000000 1.565000 0.000000 
#    z 0.000000 0.000000 1.721240 
# 
# From -- ./inp_files/7417.got.cif
#   From: 2010.05.17/outbox.cif.g08.bks.cpg/sg180_4_cif.got.tgz:7417.got - 2010.05.20 11:43:55.
