data_PCOD9584806
_publ_section_title
;
Structure prediction by ZEFSAII (Michael W. Deem and Ramdas Pophale) SiO2 
 PCOD9584806
Probable space group: P 63 2 2
;
_chemical_formula_sum "Si O2"
_cell_formula_units_Z 42
_cell_length_a 14.470874
_cell_length_b 14.470874
_cell_length_c 11.004712
_cell_angle_alpha 90.000000
_cell_angle_beta 90.000000
_cell_angle_gamma 120.000000
_cell_volume 1995.716450
_symmetry_space_group_name_H-M "P 63 2 2"
_symmetry_group_IT_number 182
_symmetry_cell_setting 'hexagonal'
loop_
_space_group_symop_operation_xyz
x,y,z
x-y,x,1/2+z
-y,x-y,z
-x,-y,1/2+z
-x+y,-x,z
y,-x+y,1/2+z
x-y,-y,-z
-x,-x+y,-z
y,x,-z
-y,-x,1/2-z
-x+y,y,1/2-z
x,x-y,1/2-z
loop_
_atom_site_type_symbol
_atom_site_label
_atom_site_fract_x
_atom_site_fract_y
_atom_site_fract_z
Si Si1 0.923657 0.636893 0.240558
Si Si2 0.705566 0.705566 0.000000
Si Si3 0.787798 0.454256 0.065037
Si Si4 0.637386 0.859936 0.118257
O O1 0.837628 0.675255 0.250000
O O2 0.969748 0.639019 0.374383
O O3 0.858774 0.522641 0.176695
O O4 0.016162 0.717992 0.151349
O O5 0.811370 0.699913 0.958125
O O6 0.665573 0.431409 0.065914
O O7 0.838268 0.530306 0.950079
O O8 0.608837 0.804419 0.250000
#
# Coordination Sequence:
#
# PCOD9584806 Si02
#       4
#    12   6  12  12
#     4  11  22  43  75 102 145 189 242 308 362 437
#     4  10  22  42  68 108 140 186 238 302 366 446
#     4  10  24  44  67 101 146 190 245 294 358 437
#     4  10  22  44  70 104 146 185 241 303 368 432
#
# _framework density 21.045072999999999
#
# number of rings (size 3 to 8) (size 9 to 14) (size 15 to 20)
#    0.571    1.143    2.857    0.857    0.000    2.286 
#    5.143    2.857    0.000   25.714    0.000    0.000 
#    0.000    0.000    0.000    0.000    0.000    0.000 
#
# Total GULP energy -234073.518827 kJ/mol
# GULP energy per Si atom -5573.179020 kJ/mol
# Density = 2.099717 g / cm^3
# Si number density = 21.045073 Si / 1000 Ang^3
#
#
#
# Elastic Constant Matrix: (Units=GPa)
#
#
# Indices 1 2 3 4 5 6 
#
# 1 58.2567 38.4978 35.2974 0.0000 0.0000 0.0000
# 2 38.4978 58.2567 35.2974 0.0000 0.0000 0.0000
# 3 35.2974 35.2974 143.0614 0.0000 0.0000 0.0000
# 4 0.0000 0.0000 0.0000 47.4103 0.0000 0.0000
# 5 0.0000 0.0000 0.0000 0.0000 47.4103 0.0000
# 6 0.0000 0.0000 0.0000 0.0000 0.0000 9.8795
#
#
#
# Elastic Compliance Matrix: (Units=1/GPa)
#
#
# Indices 1 2 3 4 5 6 
#
# 1 0.031607 -0.019003 -0.003110 0.000000 0.000000 0.000000
# 2 -0.019003 0.031607 -0.003110 0.000000 0.000000 0.000000
# 3 -0.003110 -0.003110 0.008525 0.000000 0.000000 0.000000
# 4 0.000000 0.000000 0.000000 0.021092 0.000000 0.000000
# 5 0.000000 0.000000 0.000000 0.000000 0.021092 0.000000
# 6 0.000000 0.000000 0.000000 0.000000 0.000000 0.101220
#
#
# Mechanical properties :
#
#
# Convention : Reuss Voigt Hill
#
# Bulk Modulus (GPa) = 46.96150 53.08445 50.02298
# Shear Modulus (GPa) = 18.33602 30.97217 24.65409
#
# Velocity S-wave (km/s) = 2.95494 3.84044 3.42642
# Velocity P-wave (km/s) = 5.83141 6.70405 6.28290
#
# Compressibility (1/GPa) = 0.02129404
#
# Stress axis : x y z
#
# Youngs Moduli (GPa) = 31.63827 31.63827 117.30736
#
# Poissons Ratio (x) = 0.60121 0.36481
# Poissons Ratio (y) = 0.60121 0.36481
# Poissons Ratio (z) = 0.09839 0.09839
#
# Static dielectric constant tensor:
#      x y z
#    x 1.623120 0.000000 0.000000 
#    y 0.000000 1.623120 0.000000 
#    z 0.000000 0.000000 1.804830 
# 
# From -- ./inp_files/2287.got.cif
#   From: 2010.05.17/outbox.cif.g08.bks.cpg/sg182_2_cif.got.tgz:2287.got - 2010.05.20 11:58:53.
