data_PCOD9584123
_publ_section_title
;
Structure prediction by ZEFSAII (Michael W. Deem and Ramdas Pophale) SiO2 
 PCOD9584123
Probable space group: P 62 2 2
;
_chemical_formula_sum "Si O2"
_cell_formula_units_Z 48
_cell_length_a 16.818806
_cell_length_b 16.818806
_cell_length_c 10.869019
_cell_angle_alpha 90.000000
_cell_angle_beta 90.000000
_cell_angle_gamma 120.000000
_cell_volume 2662.632949
_symmetry_space_group_name_H-M "P 62 2 2"
_symmetry_group_IT_number 180
_symmetry_cell_setting 'hexagonal'
loop_
_space_group_symop_operation_xyz
x,y,z
x-y,x,1/3+z
-y,x-y,2/3+z
-x,-y,z
-x+y,-x,1/3+z
y,-x+y,2/3+z
x-y,-y,-z
-x,-x+y,1/3-z
y,x,2/3-z
-y,-x,2/3-z
-x+y,y,-z
x,x-y,1/3-z
loop_
_atom_site_type_symbol
_atom_site_label
_atom_site_fract_x
_atom_site_fract_y
_atom_site_fract_z
Si Si1 0.604069 0.888852 0.781825
Si Si2 0.548312 0.608009 0.044076
Si Si3 0.617194 0.399207 0.189451
Si Si4 0.757308 0.658797 0.831502
O O1 0.501472 0.811425 0.815653
O O2 0.616861 0.889937 0.634643
O O3 0.667534 0.856157 0.849668
O O4 0.619043 0.989988 0.803406
O O5 0.500000 0.500000 0.004102
O O6 0.473527 0.624486 0.111964
O O7 0.593149 0.681241 0.933994
O O8 0.599246 0.400755 0.333334
O O9 0.646280 0.323140 0.166667
O O10 0.751088 0.751088 0.833334
#
# Coordination Sequence:
#
# PCOD9584123 Si02
#       4
#    12  12  12  12
#     4   9  19  32  50  70  94 131 163 211 252 297
#     4   9  19  34  50  68  95 131 170 209 259 298
#     4  11  23  34  46  68  96 132 172 215 246 301
#     4   9  17  32  50  73  96 122 168 211 253 299
#
# _framework density 18.027270000000001
#
# number of rings (size 3 to 8) (size 9 to 14) (size 15 to 20)
#    0.000    2.500    0.000    1.500    3.500   16.000 
#    4.500    0.000    0.000    0.000    0.000    0.000 
#    0.000    1.000    0.000   13.750    0.000  163.750 
#
# Total GULP energy -267368.668009 kJ/mol
# GULP energy per Si atom -5570.180584 kJ/mol
# Density = 1.798624 g / cm^3
# Si number density = 18.027270 Si / 1000 Ang^3
#
#
#
# Elastic Constant Matrix: (Units=GPa)
#
#
# Indices 1 2 3 4 5 6 
#
# 1 70.6958 23.1854 9.2461 0.0000 0.0000 0.0000
# 2 23.1854 70.6958 9.2461 0.0000 0.0000 0.0000
# 3 9.2461 9.2461 49.8122 0.0000 0.0000 0.0000
# 4 0.0000 0.0000 0.0000 17.1246 0.0000 0.0000
# 5 0.0000 0.0000 0.0000 0.0000 17.1246 0.0000
# 6 0.0000 0.0000 0.0000 0.0000 0.0000 23.7552
#
#
#
# Elastic Compliance Matrix: (Units=1/GPa)
#
#
# Indices 1 2 3 4 5 6 
#
# 1 0.016052 -0.004996 -0.002052 0.000000 0.000000 0.000000
# 2 -0.004996 0.016052 -0.002052 0.000000 0.000000 0.000000
# 3 -0.002052 -0.002052 0.020837 0.000000 0.000000 0.000000
# 4 0.000000 0.000000 0.000000 0.058395 0.000000 0.000000
# 5 0.000000 0.000000 0.000000 0.000000 0.058395 0.000000
# 6 0.000000 0.000000 0.000000 0.000000 0.000000 0.042096
#
#
# Mechanical properties :
#
#
# Convention : Reuss Voigt Hill
#
# Bulk Modulus (GPa) = 28.78492 30.50656 29.64574
# Shear Modulus (GPa) = 20.69460 21.56932 21.13196
#
# Velocity S-wave (km/s) = 3.39183 3.46277 3.42749
# Velocity P-wave (km/s) = 5.59834 5.73994 5.66959
#
# Compressibility (1/GPa) = 0.03474042
#
# Stress axis : x y z
#
# Youngs Moduli (GPa) = 62.29756 62.29756 47.99094
#
# Poissons Ratio (x) = 0.31124 0.09849
# Poissons Ratio (y) = 0.31124 0.09849
# Poissons Ratio (z) = 0.12785 0.12785
#
# Static dielectric constant tensor:
#      x y z
#    x 1.683530 0.000000 0.000000 
#    y 0.000000 1.683530 0.000000 
#    z 0.000000 0.000000 1.612030 
# 
# From -- ./inp_files/2616.got.cif
#   From: 2010.05.17/outbox.cif.g08.bks.cpg/sg180_2_cif.got.tgz:2616.got - 2010.05.20 11:43:55.
