data_PCOD9584779
_publ_section_title
;
Structure prediction by ZEFSAII (Michael W. Deem and Ramdas Pophale) SiO2 
 PCOD9584779
Probable space group: P 63 2 2
;
_chemical_formula_sum "Si O2"
_cell_formula_units_Z 64
_cell_length_a 15.886830
_cell_length_b 15.886830
_cell_length_c 14.794016
_cell_angle_alpha 90.000000
_cell_angle_beta 90.000000
_cell_angle_gamma 120.000000
_cell_volume 3233.636605
_symmetry_space_group_name_H-M "P 63 2 2"
_symmetry_group_IT_number 182
_symmetry_cell_setting 'hexagonal'
loop_
_space_group_symop_operation_xyz
x,y,z
x-y,x,1/2+z
-y,x-y,z
-x,-y,1/2+z
-x+y,-x,z
y,-x+y,1/2+z
x-y,-y,-z
-x,-x+y,-z
y,x,-z
-y,-x,1/2-z
-x+y,y,1/2-z
x,x-y,1/2-z
loop_
_atom_site_type_symbol
_atom_site_label
_atom_site_fract_x
_atom_site_fract_y
_atom_site_fract_z
Si Si1 0.000000 0.000000 0.109240
Si Si2 0.979291 0.179661 0.107701
Si Si3 0.227416 0.811239 0.854976
Si Si4 0.641416 0.911206 0.270398
Si Si5 0.441970 0.963972 0.846360
Si Si6 0.376755 0.031147 0.406218
O O1 0.921098 0.891803 0.136283
O O2 0.000000 0.000000 0.000000
O O3 0.883815 0.185344 0.130248
O O4 0.062164 0.266317 0.166375
O O5 0.000000 0.194950 0.000000
O O6 0.217729 0.782272 0.750000
O O7 0.340574 0.874122 0.881602
O O8 0.148181 0.713919 0.902897
O O9 0.594692 0.797346 0.250000
O O10 0.671542 0.978653 0.179889
O O11 0.578062 0.948052 0.325169
O O12 0.466502 0.933003 0.750000
O O13 0.539332 0.997399 0.901698
O O14 0.320435 0.000000 0.500000
#
# Coordination Sequence:
#
# PCOD9584779 Si02
#       6
#     4  12  12  12  12  12
#     4   9  21  33  49  83 131 164 202 246 292 341
#     4  10  22  36  56  86 126 168 204 249 291 355
#     4  11  20  39  65  92 121 158 209 251 310 368
#     4  10  22  39  61  90 120 165 206 241 303 365
#     4   9  19  40  62  88 122 157 201 260 316 363
#     4  11  24  42  65  92 126 160 204 261 311 373
#
# _framework density 19.791958000000001
#
# number of rings (size 3 to 8) (size 9 to 14) (size 15 to 20)
#    0.000    1.875    5.625    0.000    5.250    3.750 
#    1.125    1.875    0.000   10.125    0.000    0.000 
#    0.000    0.000    0.000    0.000    0.000    0.000 
#
# Total GULP energy -356782.715082 kJ/mol
# GULP energy per Si atom -5574.729923 kJ/mol
# Density = 1.974691 g / cm^3
# Si number density = 19.791958 Si / 1000 Ang^3
#
#
#
# Elastic Constant Matrix: (Units=GPa)
#
#
# Indices 1 2 3 4 5 6 
#
# 1 55.5650 24.6169 -2.5330 0.0000 0.0000 0.0000
# 2 24.6169 55.5650 -2.5330 0.0000 0.0000 0.0000
# 3 -2.5330 -2.5330 73.3723 0.0000 0.0000 0.0000
# 4 0.0000 0.0000 0.0000 14.8279 0.0000 0.0000
# 5 0.0000 0.0000 0.0000 0.0000 14.8279 0.0000
# 6 0.0000 0.0000 0.0000 0.0000 0.0000 15.4741
#
#
#
# Elastic Compliance Matrix: (Units=1/GPa)
#
#
# Indices 1 2 3 4 5 6 
#
# 1 0.022405 -0.009907 0.000431 0.000000 0.000000 0.000000
# 2 -0.009907 0.022405 0.000431 0.000000 0.000000 0.000000
# 3 0.000431 0.000431 0.013659 0.000000 0.000000 0.000000
# 4 0.000000 0.000000 0.000000 0.067440 0.000000 0.000000
# 5 0.000000 0.000000 0.000000 0.000000 0.067440 0.000000
# 6 0.000000 0.000000 0.000000 0.000000 0.000000 0.064624
#
#
# Mechanical properties :
#
#
# Convention : Reuss Voigt Hill
#
# Bulk Modulus (GPa) = 24.76309 24.84491 24.80400
# Shear Modulus (GPa) = 17.26979 20.02275 18.64627
#
# Velocity S-wave (km/s) = 2.95713 3.18411 3.07272
# Velocity P-wave (km/s) = 4.91918 5.10866 5.01481
#
# Compressibility (1/GPa) = 0.04038268
#
# Stress axis : x y z
#
# Youngs Moduli (GPa) = 44.63192 44.63192 73.21224
#
# Poissons Ratio (x) = 0.44215 -0.03159
# Poissons Ratio (y) = 0.44215 -0.03159
# Poissons Ratio (z) = -0.01926 -0.01926
#
# Static dielectric constant tensor:
#      x y z
#    x 1.732080 0.000000 0.000000 
#    y 0.000000 1.732080 0.000000 
#    z 0.000000 0.000000 1.748650 
# 
# From -- ./inp_files/4250.got.cif
#   From: 2010.05.17/outbox.cif.g08.bks.cpg/sg182_3_cif.got.tgz:4250.got - 2010.05.20 11:58:53.
