data_PCOD9584986
_publ_section_title
;
Structure prediction by ZEFSAII (Michael W. Deem and Ramdas Pophale) SiO2 
 PCOD9584986
Probable space group: P 6 M M
;
_chemical_formula_sum "Si O2"
_cell_formula_units_Z 96
_cell_length_a 19.471191
_cell_length_b 19.471191
_cell_length_c 16.156485
_cell_angle_alpha 90.000000
_cell_angle_beta 90.000000
_cell_angle_gamma 120.000000
_cell_volume 5304.721001
_symmetry_space_group_name_H-M "P 6 M M"
_symmetry_group_IT_number 183
_symmetry_cell_setting 'hexagonal'
loop_
_space_group_symop_operation_xyz
x,y,z
x-y,x,z
-y,x-y,z
-x,-y,z
-x+y,-x,z
y,-x+y,z
-x+y,y,z
x,x-y,z
-y,-x,z
y,x,z
x-y,-y,z
-x,-x+y,z
loop_
_atom_site_type_symbol
_atom_site_label
_atom_site_fract_x
_atom_site_fract_y
_atom_site_fract_z
Si Si1 0.757689 0.088502 0.854330
Si Si2 0.665778 0.488689 0.629863
Si Si3 0.088707 0.755212 0.379829
Si Si4 0.177226 0.511514 0.430252
Si Si5 0.088887 0.758307 0.180264
Si Si6 0.329515 0.242100 0.658289
Si Si7 0.093288 0.622757 0.084337
Si Si8 0.173752 0.508280 0.907134
O O1 0.841047 0.158954 0.889817
O O2 0.769984 0.083958 0.756484
O O3 0.694654 0.118772 0.863432
O O4 0.721857 0.000000 0.889896
O O5 0.738047 0.476093 0.659865
O O6 0.581360 0.418641 0.660285
O O7 0.664903 0.484247 0.530021
O O8 0.690736 0.578504 0.650002
O O9 0.159181 0.840820 0.409081
O O10 0.113130 0.690637 0.406028
O O11 0.089280 0.757286 0.279876
O O12 0.000000 0.728132 0.408025
O O13 0.262690 0.525379 0.401363
O O14 0.161828 0.580914 0.399967
O O15 0.155808 0.844193 0.151250
O O16 0.108476 0.692524 0.146226
O O17 0.000000 0.731659 0.152654
O O18 0.321135 0.160568 0.623412
O O19 0.273113 0.273113 0.622873
O O20 0.105393 0.552697 0.120905
O O21 0.000000 0.580242 0.059525
O O22 0.147143 0.655626 0.003172
O O23 0.263958 0.527915 0.897715
O O24 0.163388 0.581694 0.879456
#
# Coordination Sequence:
#
# PCOD9584986 Si02
#       8
#    12  12  12  12  12  12  12  12
#     4   9  18  32  49  67  87 113 144 178 217 262
#     4   9  17  29  45  65  90 120 151 181 212 248
#     4   9  18  31  46  64  86 113 144 179 219 261
#     4   9  17  29  45  65  90 119 149 179 212 251
#     4   9  17  30  47  65  86 113 145 179 216 260
#     4   9  18  32  48  66  88 114 144 178 218 261
#     4   9  17  28  43  64  88 114 145 181 218 254
#     4  10  19  30  44  63  89 120 153 186 217 248
#
# _framework density 18.097086999999998
#
# number of rings (size 3 to 8) (size 9 to 14) (size 15 to 20)
#    0.000    2.875    0.000    1.125    0.000    3.750 
#    0.000    3.750    0.000    2.250    0.000    3.500 
#    0.000    0.000    0.000   10.250    0.000   12.000 
#
# Total GULP energy -534911.038382 kJ/mol
# GULP energy per Si atom -5571.989983 kJ/mol
# Density = 1.805590 g / cm^3
# Si number density = 18.097087 Si / 1000 Ang^3
#
#
#
# Elastic Constant Matrix: (Units=GPa)
#
#
# Indices 1 2 3 4 5 6 
#
# 1 118.7259 85.5682 10.7170 0.0000 0.0000 0.0000
# 2 85.5682 118.7259 10.7170 0.0000 0.0000 0.0000
# 3 10.7170 10.7170 13.9565 0.0000 0.0000 0.0000
# 4 0.0000 0.0000 0.0000 10.1055 0.0000 0.0000
# 5 0.0000 0.0000 0.0000 0.0000 10.1055 0.0000
# 6 0.0000 0.0000 0.0000 0.0000 0.0000 16.5789
#
#
#
# Elastic Compliance Matrix: (Units=1/GPa)
#
#
# Indices 1 2 3 4 5 6 
#
# 1 0.017741 -0.012418 -0.004088 0.000000 0.000000 0.000000
# 2 -0.012418 0.017741 -0.004088 0.000000 0.000000 0.000000
# 3 -0.004088 -0.004088 0.077930 0.000000 0.000000 0.000000
# 4 0.000000 0.000000 0.000000 0.098956 0.000000 0.000000
# 5 0.000000 0.000000 0.000000 0.000000 0.098956 0.000000
# 6 0.000000 0.000000 0.000000 0.000000 0.000000 0.060318
#
#
# Mechanical properties :
#
#
# Convention : Reuss Voigt Hill
#
# Bulk Modulus (GPa) = 13.84560 51.71251 32.77906
# Shear Modulus (GPa) = 11.44415 16.98506 14.21460
#
# Velocity S-wave (km/s) = 2.51744 3.06690 2.80565
# Velocity P-wave (km/s) = 4.01464 6.41703 5.35236
#
# Compressibility (1/GPa) = 0.07222511
#
# Stress axis : x y z
#
# Youngs Moduli (GPa) = 56.36550 56.36550 12.83206
#
# Poissons Ratio (x) = 0.69992 0.05246
# Poissons Ratio (y) = 0.69992 0.05246
# Poissons Ratio (z) = 0.23043 0.23043
#
# Static dielectric constant tensor:
#      x y z
#    x 1.629470 0.000000 0.000000 
#    y 0.000000 1.629470 0.000000 
#    z 0.000000 0.000000 1.642550 
# 
# From -- ./inp_files/3019.got.cif
#   From: 2010.05.17/outbox.cif.g08.bks.cpg/sg183_2_cif.got.tgz:3019.got - 2010.05.20 12:02:58.
