data_PCOD9584251
_publ_section_title
;
Structure prediction by ZEFSAII (Michael W. Deem and Ramdas Pophale) SiO2 
 PCOD9584251
Probable space group: P 64 2 2
;
_chemical_formula_sum "Si O2"
_cell_formula_units_Z 60
_cell_length_a 30.142896
_cell_length_b 30.142896
_cell_length_c 5.048857
_cell_angle_alpha 90.000000
_cell_angle_beta 90.000000
_cell_angle_gamma 120.000000
_cell_volume 3972.772099
_symmetry_space_group_name_H-M "P 64 2 2"
_symmetry_group_IT_number 181
_symmetry_cell_setting 'hexagonal'
loop_
_space_group_symop_operation_xyz
x,y,z
x-y,x,2/3+z
-y,x-y,1/3+z
-x,-y,z
-x+y,-x,2/3+z
y,-x+y,1/3+z
x-y,-y,-z
-x,-x+y,2/3-z
y,x,1/3-z
-y,-x,1/3-z
-x+y,y,-z
x,x-y,2/3-z
loop_
_atom_site_type_symbol
_atom_site_label
_atom_site_fract_x
_atom_site_fract_y
_atom_site_fract_z
Si Si1 0.381985 0.220413 0.089741
Si Si2 0.164355 0.634490 0.329849
Si Si3 0.374854 0.431538 0.611144
Si Si4 0.631079 0.944029 0.451063
Si Si5 0.295567 0.791832 0.504567
O O1 0.364843 0.182422 0.333334
O O2 0.359649 0.258194 0.125434
O O3 0.443650 0.258043 0.112259
O O4 0.371556 0.185778 0.833334
O O5 0.172563 0.586282 0.333334
O O6 0.104942 0.616876 0.280728
O O7 0.175275 0.661526 0.614152
O O8 0.201274 0.675310 0.106874
O O9 0.422352 0.422352 0.666667
O O10 0.353526 0.410170 0.321681
O O11 0.331212 0.394553 0.826852
O O12 0.679642 0.000000 0.500000
O O13 0.261213 0.738788 0.666667
#
# Coordination Sequence:
#
# PCOD9584251 Si02
#       5
#    12  12  12  12  12
#     4  11  19  30  52  75  94 119 160 201 225 264
#     4  12  22  36  55  77  97 120 156 187 225 288
#     4  10  19  33  49  70 103 132 154 180 220 282
#     4  10  19  32  49  69 103 135 153 184 237 286
#     4  11  22  37  55  73  97 115 147 192 244 276
#
# _framework density 15.102804000000001
#
# number of rings (size 3 to 8) (size 9 to 14) (size 15 to 20)
#    0.000    1.200    4.000    4.800    0.000    0.400 
#    0.000    0.000    0.000   12.000    0.000    0.000 
#    0.000    0.000    0.000    0.000    0.000    0.000 
#
# Total GULP energy -334493.613145 kJ/mol
# GULP energy per Si atom -5574.893552 kJ/mol
# Density = 1.506843 g / cm^3
# Si number density = 15.102804 Si / 1000 Ang^3
#
#
#
# Elastic Constant Matrix: (Units=GPa)
#
#
# Indices 1 2 3 4 5 6 
#
# 1 60.0963 29.2428 9.9479 0.0000 0.0000 0.0000
# 2 29.2428 60.0963 9.9479 0.0000 0.0000 0.0000
# 3 9.9479 9.9479 87.4743 0.0000 0.0000 0.0000
# 4 0.0000 0.0000 0.0000 -2.7984 0.0000 0.0000
# 5 0.0000 0.0000 0.0000 0.0000 -2.7984 0.0000
# 6 0.0000 0.0000 0.0000 0.0000 0.0000 15.4267
#
#
#
# Elastic Compliance Matrix: (Units=1/GPa)
#
#
# Indices 1 2 3 4 5 6 
#
# 1 0.021948 -0.010464 -0.001306 0.000000 0.000000 0.000000
# 2 -0.010464 0.021948 -0.001306 0.000000 0.000000 0.000000
# 3 -0.001306 -0.001306 0.011729 0.000000 0.000000 0.000000
# 4 0.000000 0.000000 0.000000 -0.357350 0.000000 0.000000
# 5 0.000000 0.000000 0.000000 0.000000 -0.357350 0.000000
# 6 0.000000 0.000000 0.000000 0.000000 0.000000 0.064823
#
#
# Mechanical properties :
#
#
# Convention : Reuss Voigt Hill
#
# Bulk Modulus (GPa) = 33.92911 33.99379 33.96145
# Shear Modulus (GPa) = -8.95613 12.53454 1.78920
#
# Velocity S-wave (km/s) = -2.43782 2.88401 1.08961
# Velocity P-wave (km/s) = 3.81972 5.80061 4.91108
#
# Compressibility (1/GPa) = 0.02947321
#
# Stress axis : x y z
#
# Youngs Moduli (GPa) = 45.56280 45.56280 85.25894
#
# Poissons Ratio (x) = 0.47675 0.11135
# Poissons Ratio (y) = 0.47675 0.11135
# Poissons Ratio (z) = 0.05951 0.05951
#
# Static dielectric constant tensor:
#      x y z
#    x 1.555180 0.000000 0.000000 
#    y 0.000000 1.555180 0.000000 
#    z 0.000000 0.000000 1.526590 
# 
# From -- ./inp_files/1464.got.cif
#   From: 2010.05.17/outbox.cif.g08.bks.cpg/sg181_1_cif.got.tgz:1464.got - 2010.05.20 11:51:17.
