data_PCOD9584754
_publ_section_title
;
Structure prediction by ZEFSAII (Michael W. Deem and Ramdas Pophale) SiO2 
 PCOD9584754
Probable space group: P 63 2 2
;
_chemical_formula_sum "Si O2"
_cell_formula_units_Z 44
_cell_length_a 12.904411
_cell_length_b 12.904411
_cell_length_c 15.259673
_cell_angle_alpha 90.000000
_cell_angle_beta 90.000000
_cell_angle_gamma 120.000000
_cell_volume 2200.656365
_symmetry_space_group_name_H-M "P 63 2 2"
_symmetry_group_IT_number 182
_symmetry_cell_setting 'hexagonal'
loop_
_space_group_symop_operation_xyz
x,y,z
x-y,x,1/2+z
-y,x-y,z
-x,-y,1/2+z
-x+y,-x,z
y,-x+y,1/2+z
x-y,-y,-z
-x,-x+y,-z
y,x,-z
-y,-x,1/2-z
-x+y,y,1/2-z
x,x-y,1/2-z
loop_
_atom_site_type_symbol
_atom_site_label
_atom_site_fract_x
_atom_site_fract_y
_atom_site_fract_z
Si Si1 0.253626 0.192967 0.166825
Si Si2 0.666667 0.333335 0.141742
Si Si3 0.619168 0.809584 0.250000
Si Si4 0.917896 0.458948 0.750000
Si Si5 0.469428 0.076454 0.413459
Si Si6 0.000000 0.000000 0.103383
O O1 0.301549 0.150775 0.250000
O O2 0.211736 0.289055 0.191212
O O3 0.357171 0.257785 0.095361
O O4 0.135354 0.074442 0.136823
O O5 0.666668 0.333334 0.250000
O O6 0.799338 0.410781 0.102503
O O7 0.525163 0.847918 0.285654
O O8 0.997600 0.538023 0.829595
O O9 0.453972 0.000000 0.500000
O O10 0.000000 0.000000 0.000000
#
# Coordination Sequence:
#
# PCOD9584754 Si02
#       6
#    12   4   6   6  12   4
#     4  11  21  40  63  93 135 181 229 285 354 428
#     4  12  24  48  78 100 143 202 237 300 369 445
#     4  10  21  38  68  92 131 180 228 278 348 428
#     4  10  23  42  66  98 137 186 232 286 364 414
#     4  11  26  43  68 105 137 180 247 296 349 438
#     4  12  22  35  61  99 142 179 223 291 364 434
#
# _framework density 19.994033999999999
#
# number of rings (size 3 to 8) (size 9 to 14) (size 15 to 20)
#    0.000    1.091    4.091    1.909    3.818    4.364 
#    0.000    2.727    0.000    0.000    0.000    0.000 
#    0.000    0.000    0.000    0.000    0.000    0.000 
#
# Total GULP energy -245306.443042 kJ/mol
# GULP energy per Si atom -5575.146433 kJ/mol
# Density = 1.994853 g / cm^3
# Si number density = 19.994034 Si / 1000 Ang^3
#
#
#
# Elastic Constant Matrix: (Units=GPa)
#
#
# Indices 1 2 3 4 5 6 
#
# 1 85.0947 21.7716 26.4836 -0.0001 -0.0002 -0.0002
# 2 21.7716 85.0929 26.4836 0.0000 -0.0001 -0.0002
# 3 26.4836 26.4836 106.7039 0.0000 0.0000 0.0001
# 4 -0.0001 0.0000 0.0000 26.6673 -0.0001 -0.0001
# 5 -0.0002 -0.0001 0.0000 -0.0001 26.6676 0.0000
# 6 -0.0002 -0.0002 0.0001 -0.0001 0.0000 31.6611
#
#
#
# Elastic Compliance Matrix: (Units=1/GPa)
#
#
# Indices 1 2 3 4 5 6 
#
# 1 0.013231 -0.002561 -0.002648 0.000000 0.000000 0.000000
# 2 -0.002561 0.013231 -0.002648 0.000000 0.000000 0.000000
# 3 -0.002648 -0.002648 0.010686 0.000000 0.000000 0.000000
# 4 0.000000 0.000000 0.000000 0.037499 0.000000 0.000000
# 5 0.000000 0.000000 0.000000 0.000000 0.037499 0.000000
# 6 0.000000 0.000000 0.000000 0.000000 0.000000 0.031584
#
#
# Mechanical properties :
#
#
# Convention : Reuss Voigt Hill
#
# Bulk Modulus (GPa) = 46.65603 47.37436 47.01520
# Shear Modulus (GPa) = 30.01364 30.47604 30.24484
#
# Velocity S-wave (km/s) = 3.87865 3.90841 3.89356
# Velocity P-wave (km/s) = 6.59122 6.64178 6.61655
#
# Compressibility (1/GPa) = 0.02143346
#
# Stress axis : x y z
#
# Youngs Moduli (GPa) = 75.57975 75.57795 93.57748
#
# Poissons Ratio (x) = 0.19356 0.24782
# Poissons Ratio (y) = 0.19356 0.24783
# Poissons Ratio (z) = 0.20016 0.20016
#
# Static dielectric constant tensor:
#      x y z
#    x 1.755250 0.000000 0.000000 
#    y 0.000000 1.755250 0.000000 
#    z 0.000000 0.000000 1.688270 
# 
# From -- ./inp_files/4143.got.cif
#   From: 2010.05.17/outbox.cif.g08.bks.cpg/sg182_3_cif.got.tgz:4143.got - 2010.05.20 11:58:53.
