data_PCOD9584776
_publ_section_title
;
Structure prediction by ZEFSAII (Michael W. Deem and Ramdas Pophale) SiO2 
 PCOD9584776
Probable space group: P 63 2 2
;
_chemical_formula_sum "Si O2"
_cell_formula_units_Z 58
_cell_length_a 16.799934
_cell_length_b 16.799934
_cell_length_c 15.248421
_cell_angle_alpha 90.000000
_cell_angle_beta 90.000000
_cell_angle_gamma 120.000000
_cell_volume 3727.096667
_symmetry_space_group_name_H-M "P 63 2 2"
_symmetry_group_IT_number 182
_symmetry_cell_setting 'hexagonal'
loop_
_space_group_symop_operation_xyz
x,y,z
x-y,x,1/2+z
-y,x-y,z
-x,-y,1/2+z
-x+y,-x,z
y,-x+y,1/2+z
x-y,-y,-z
-x,-x+y,-z
y,x,-z
-y,-x,1/2-z
-x+y,y,1/2-z
x,x-y,1/2-z
loop_
_atom_site_type_symbol
_atom_site_label
_atom_site_fract_x
_atom_site_fract_y
_atom_site_fract_z
Si Si1 0.439159 0.469079 0.102154
Si Si2 0.333334 0.666668 0.355329
Si Si3 0.455751 0.204311 0.648021
Si Si4 0.903636 0.332021 0.958596
Si Si5 0.443541 0.887082 0.750000
Si Si6 0.229171 0.666536 0.606080
O O1 0.335883 0.439406 0.129768
O O2 0.505740 0.580276 0.102519
O O3 0.485247 0.435205 0.174679
O O4 0.442866 0.442866 0.000000
O O5 0.333334 0.666667 0.250000
O O6 0.290297 0.728606 0.382748
O O7 0.450525 0.225263 0.750000
O O8 0.396672 0.238591 0.593870
O O9 0.840565 0.334437 0.036207
O O10 0.000000 0.352817 0.000000
O O11 0.470393 0.819929 0.699345
O O12 0.248552 0.580839 0.596983
#
# Coordination Sequence:
#
# PCOD9584776 Si02
#       6
#    12   4  12  12   6  12
#     4  11  22  34  49  73 101 136 167 234 277 311
#     4   9  18  24  42  66  90 121 170 232 252 297
#     4  11  21  33  51  72  95 133 185 218 273 312
#     4  11  20  34  50  70 101 133 171 233 275 303
#     4  12  20  36  50  68 108 128 180 222 276 306
#     4  10  22  34  52  72  95 136 184 223 250 311
#
# _framework density 15.561711000000001
#
# number of rings (size 3 to 8) (size 9 to 14) (size 15 to 20)
#    0.414    0.828    6.207    3.103    1.448    0.000 
#    0.000    0.000    0.000    0.000    0.000    0.000 
#    0.000    0.000    0.000    0.621    0.000    4.138 
#
# Total GULP energy -323293.790353 kJ/mol
# GULP energy per Si atom -5574.030868 kJ/mol
# Density = 1.552629 g / cm^3
# Si number density = 15.561711 Si / 1000 Ang^3
#
#
#
# Elastic Constant Matrix: (Units=GPa)
#
#
# Indices 1 2 3 4 5 6 
#
# 1 66.8330 22.2571 29.9532 0.0000 0.0000 0.0000
# 2 22.2571 66.8327 29.9531 0.0000 0.0000 0.0000
# 3 29.9532 29.9531 96.3296 0.0000 0.0000 0.0000
# 4 0.0000 0.0000 0.0000 23.0163 0.0000 0.0000
# 5 0.0000 0.0000 0.0000 0.0000 23.0164 0.0000
# 6 0.0000 0.0000 0.0000 0.0000 0.0000 22.2879
#
#
#
# Elastic Compliance Matrix: (Units=1/GPa)
#
#
# Indices 1 2 3 4 5 6 
#
# 1 0.018313 -0.004121 -0.004413 0.000000 0.000000 0.000000
# 2 -0.004121 0.018313 -0.004413 0.000000 0.000000 0.000000
# 3 -0.004413 -0.004413 0.013125 0.000000 0.000000 0.000000
# 4 0.000000 0.000000 0.000000 0.043447 0.000000 0.000000
# 5 0.000000 0.000000 0.000000 0.000000 0.043447 0.000000
# 6 0.000000 0.000000 0.000000 0.000000 0.000000 0.044867
#
#
# Mechanical properties :
#
#
# Convention : Reuss Voigt Hill
#
# Bulk Modulus (GPa) = 41.91530 43.81359 42.86444
# Shear Modulus (GPa) = 23.21702 23.51957 23.36829
#
# Velocity S-wave (km/s) = 3.86674 3.89186 3.87932
# Velocity P-wave (km/s) = 6.85047 6.95782 6.90436
#
# Compressibility (1/GPa) = 0.02385764
#
# Stress axis : x y z
#
# Youngs Moduli (GPa) = 54.60656 54.60631 76.18836
#
# Poissons Ratio (x) = 0.22503 0.33621
# Poissons Ratio (y) = 0.22503 0.33621
# Poissons Ratio (z) = 0.24097 0.24097
#
# Static dielectric constant tensor:
#      x y z
#    x 1.534340 0.000000 0.000000 
#    y 0.000000 1.534340 0.000000 
#    z 0.000000 0.000000 1.590540 
# 
# From -- ./inp_files/3563.got.cif
#   From: 2010.05.17/outbox.cif.g08.bks.cpg/sg182_2_cif.got.tgz:3563.got - 2010.05.20 11:58:53.
