data_PCOD9584705
_publ_section_title
;
Structure prediction by ZEFSAII (Michael W. Deem and Ramdas Pophale) SiO2 
 PCOD9584705
Probable space group: P 63 2 2
;
_chemical_formula_sum "Si O2"
_cell_formula_units_Z 54
_cell_length_a 11.091511
_cell_length_b 11.091511
_cell_length_c 24.291791
_cell_angle_alpha 90.000000
_cell_angle_beta 90.000000
_cell_angle_gamma 120.000000
_cell_volume 2588.043645
_symmetry_space_group_name_H-M "P 63 2 2"
_symmetry_group_IT_number 182
_symmetry_cell_setting 'hexagonal'
loop_
_space_group_symop_operation_xyz
x,y,z
x-y,x,1/2+z
-y,x-y,z
-x,-y,1/2+z
-x+y,-x,z
y,-x+y,1/2+z
x-y,-y,-z
-x,-x+y,-z
y,x,-z
-y,-x,1/2-z
-x+y,y,1/2-z
x,x-y,1/2-z
loop_
_atom_site_type_symbol
_atom_site_label
_atom_site_fract_x
_atom_site_fract_y
_atom_site_fract_z
Si Si1 0.500160 0.499841 0.750000
Si Si2 0.389628 0.342050 0.059113
Si Si3 0.931430 0.318177 0.056672
Si Si4 0.700364 0.951660 0.679179
Si Si5 0.052577 0.308035 0.323723
O O1 0.366737 0.441583 0.709114
O O2 0.446066 0.369776 0.791728
O O3 0.521873 0.495196 0.061161
O O4 0.445921 0.233615 0.058241
O O5 0.292324 0.324979 0.110990
O O6 0.317596 0.317596 0.000000
O O7 0.971236 0.276090 0.113622
O O8 0.000000 0.305683 0.000000
O O9 0.828956 0.102506 0.693042
O O10 0.724257 0.823075 0.690936
#
# Coordination Sequence:
#
# PCOD9584705 Si02
#       5
#     6  12  12  12  12
#     4  12  24  44  60  96 124 168 216 262 314 374
#     4  10  20  37  61  92 128 166 210 261 322 390
#     4  10  20  37  61  92 128 166 210 261 322 390
#     4  11  24  45  68  97 128 170 215 268 323 382
#     4  11  24  45  68  97 128 170 215 268 323 382
#
# _framework density 20.865179999999999
#
# number of rings (size 3 to 8) (size 9 to 14) (size 15 to 20)
#    0.000    1.333    2.222    3.556    0.000    0.000 
#   10.667    2.222    0.000    7.111    0.000    0.000 
#    0.000    0.000    0.000    0.000    0.000    0.000 
#
# Total GULP energy -300934.673813 kJ/mol
# GULP energy per Si atom -5572.864330 kJ/mol
# Density = 2.081769 g / cm^3
# Si number density = 20.865180 Si / 1000 Ang^3
#
#
#
# Elastic Constant Matrix: (Units=GPa)
#
#
# Indices 1 2 3 4 5 6 
#
# 1 86.1180 48.3682 24.4463 0.0000 0.0000 0.0000
# 2 48.3682 86.1180 24.4463 0.0000 0.0000 0.0000
# 3 24.4463 24.4463 153.8910 0.0000 0.0000 0.0000
# 4 0.0000 0.0000 0.0000 19.5009 0.0000 0.0000
# 5 0.0000 0.0000 0.0000 0.0000 19.5009 0.0000
# 6 0.0000 0.0000 0.0000 0.0000 0.0000 18.8749
#
#
#
# Elastic Compliance Matrix: (Units=1/GPa)
#
#
# Indices 1 2 3 4 5 6 
#
# 1 0.017191 -0.009299 -0.001254 0.000000 0.000000 0.000000
# 2 -0.009299 0.017191 -0.001254 0.000000 0.000000 0.000000
# 3 -0.001254 -0.001254 0.006896 0.000000 0.000000 0.000000
# 4 0.000000 0.000000 0.000000 0.051280 0.000000 0.000000
# 5 0.000000 0.000000 0.000000 0.000000 0.051280 0.000000
# 6 0.000000 0.000000 0.000000 0.000000 0.000000 0.052981
#
#
# Mechanical properties :
#
#
# Convention : Reuss Voigt Hill
#
# Bulk Modulus (GPa) = 56.60940 57.84986 57.22963
# Shear Modulus (GPa) = 22.09269 26.83308 24.46289
#
# Velocity S-wave (km/s) = 3.25750 3.59001 3.42779
# Velocity P-wave (km/s) = 6.42949 6.70596 6.56918
#
# Compressibility (1/GPa) = 0.01766491
#
# Stress axis : x y z
#
# Youngs Moduli (GPa) = 58.17046 58.17046 145.00347
#
# Poissons Ratio (x) = 0.54095 0.18178
# Poissons Ratio (y) = 0.54095 0.18178
# Poissons Ratio (z) = 0.07292 0.07292
#
# Static dielectric constant tensor:
#      x y z
#    x 1.740930 0.000000 0.000000 
#    y 0.000000 1.740930 0.000000 
#    z 0.000000 0.000000 1.852220 
# 
# From -- ./inp_files/5189.got.cif
#   From: 2010.05.17/outbox.cif.g08.bks.cpg/sg182_3_cif.got.tgz:5189.got - 2010.05.20 11:58:53.
