data_PCOD9584424
_publ_section_title
;
Structure prediction by ZEFSAII (Michael W. Deem and Ramdas Pophale) SiO2 
 PCOD9584424
Probable space group: P 64 2 2
;
_chemical_formula_sum "Si O2"
_cell_formula_units_Z 57
_cell_length_a 13.669214
_cell_length_b 13.669214
_cell_length_c 15.353914
_cell_angle_alpha 90.000000
_cell_angle_beta 90.000000
_cell_angle_gamma 120.000000
_cell_volume 2484.487527
_symmetry_space_group_name_H-M "P 64 2 2"
_symmetry_group_IT_number 181
_symmetry_cell_setting 'hexagonal'
loop_
_space_group_symop_operation_xyz
x,y,z
x-y,x,2/3+z
-y,x-y,1/3+z
-x,-y,z
-x+y,-x,2/3+z
y,-x+y,1/3+z
x-y,-y,-z
-x,-x+y,2/3-z
y,x,1/3-z
-y,-x,1/3-z
-x+y,y,-z
x,x-y,2/3-z
loop_
_atom_site_type_symbol
_atom_site_label
_atom_site_fract_x
_atom_site_fract_y
_atom_site_fract_z
Si Si1 0.500000 0.000000 0.500000
Si Si2 0.757955 0.626070 0.684381
Si Si3 0.408531 0.036377 0.171248
Si Si4 0.605304 0.802652 0.833334
Si Si5 0.999118 0.834109 0.933303
Si Si6 0.571724 0.688253 0.303497
O O1 0.399504 0.918983 0.561676
O O2 0.664450 0.664450 0.666667
O O3 0.713379 0.570047 0.778974
O O4 0.768502 0.558981 0.600733
O O5 0.878079 0.739264 0.699380
O O6 0.275176 0.938254 0.167834
O O7 0.500000 0.000000 0.143146
O O8 0.423347 0.056288 0.273405
O O9 0.922757 0.697865 0.936276
O O10 0.000000 0.869551 0.833334
O O11 0.938223 0.876446 0.000000
O O12 0.510025 0.755013 0.333334
#
# Coordination Sequence:
#
# PCOD9584424 Si02
#       6
#     3  12  12   6  12  12
#     4  12  24  44  74 104 146 190 242 304 364 426
#     4  10  22  38  62  93 130 177 229 287 352 425
#     4  11  23  43  70  98 140 192 243 300 369 435
#     4  10  22  40  67  93 132 176 238 296 354 434
#     4  11  22  38  64  98 134 180 226 284 354 439
#     4  11  23  41  70 104 138 188 241 292 365 435
#
# _framework density 22.942359
#
# number of rings (size 3 to 8) (size 9 to 14) (size 15 to 20)
#    0.000    1.263    4.211    2.526    2.947    4.211 
#    0.000    2.105    0.000    0.000    0.000    0.000 
#    0.000    0.000    0.000    0.000    0.000    0.000 
#
# Total GULP energy -317396.057659 kJ/mol
# GULP energy per Si atom -5568.351889 kJ/mol
# Density = 2.289014 g / cm^3
# Si number density = 22.942359 Si / 1000 Ang^3
#
#
#
# Elastic Constant Matrix: (Units=GPa)
#
#
# Indices 1 2 3 4 5 6 
#
# 1 64.3970 33.6542 53.9221 0.0000 0.0000 0.0000
# 2 33.6542 64.3970 53.9221 0.0000 0.0000 0.0000
# 3 53.9221 53.9221 221.9385 0.0000 0.0000 0.0000
# 4 0.0000 0.0000 0.0000 1321.6333 -0.0002 0.0000
# 5 0.0000 0.0000 0.0000 -0.0002 1321.6336 0.0000
# 6 0.0000 0.0000 0.0000 0.0000 0.0000 15.3714
#
#
#
# Elastic Compliance Matrix: (Units=1/GPa)
#
#
# Indices 1 2 3 4 5 6 
#
# 1 0.023223 -0.009305 -0.003382 0.000000 0.000000 0.000000
# 2 -0.009305 0.023223 -0.003382 0.000000 0.000000 0.000000
# 3 -0.003382 -0.003382 0.006149 0.000000 0.000000 0.000000
# 4 0.000000 0.000000 0.000000 0.000757 0.000000 0.000000
# 5 0.000000 0.000000 0.000000 0.000000 0.000757 0.000000
# 6 0.000000 0.000000 0.000000 0.000000 0.000000 0.065056
#
#
# Mechanical properties :
#
#
# Convention : Reuss Voigt Hill
#
# Bulk Modulus (GPa) = 48.87859 70.41434 59.64647
# Shear Modulus (GPa) = 31.62164 545.67661 288.64913
#
# Velocity S-wave (km/s) = 3.71659 15.43901 11.22889
# Velocity P-wave (km/s) = 6.30623 18.67019 13.93457
#
# Compressibility (1/GPa) = 0.02045885
#
# Stress axis : x y z
#
# Youngs Moduli (GPa) = 43.06082 43.06082 162.63096
#
# Poissons Ratio (x) = 0.40068 0.54994
# Poissons Ratio (y) = 0.40068 0.54994
# Poissons Ratio (z) = 0.14561 0.14561
#
# Static dielectric constant tensor:
#      x y z
#    x 1.592470 0.000000 0.000000 
#    y 0.000000 1.592470 0.000000 
#    z 0.000000 0.000000 2.064730 
# 
# From -- ./inp_files/6207.got.cif
#   From: 2010.05.17/outbox.cif.g08.bks.cpg/sg181_4_cif.got.tgz:6207.got - 2010.05.20 11:51:17.
