data_PCOD9584458
_publ_section_title
;
Structure prediction by ZEFSAII (Michael W. Deem and Ramdas Pophale) SiO2 
 PCOD9584458
Probable space group: P 64 2 2
;
_chemical_formula_sum "Si O2"
_cell_formula_units_Z 69
_cell_length_a 13.719374
_cell_length_b 13.719374
_cell_length_c 18.722147
_cell_angle_alpha 90.000000
_cell_angle_beta 90.000000
_cell_angle_gamma 120.000000
_cell_volume 3051.791601
_symmetry_space_group_name_H-M "P 64 2 2"
_symmetry_group_IT_number 181
_symmetry_cell_setting 'hexagonal'
loop_
_space_group_symop_operation_xyz
x,y,z
x-y,x,2/3+z
-y,x-y,1/3+z
-x,-y,z
-x+y,-x,2/3+z
y,-x+y,1/3+z
x-y,-y,-z
-x,-x+y,2/3-z
y,x,1/3-z
-y,-x,1/3-z
-x+y,y,-z
x,x-y,2/3-z
loop_
_atom_site_type_symbol
_atom_site_label
_atom_site_fract_x
_atom_site_fract_y
_atom_site_fract_z
Si Si1 0.391054 0.876236 0.200359
Si Si2 0.000000 0.000000 0.333334
Si Si3 0.362126 0.724253 0.500000
Si Si4 0.250311 0.968090 0.162902
Si Si5 0.850688 0.779154 0.239515
Si Si6 0.335347 0.052023 0.322029
Si Si7 0.184020 0.586727 0.682812
O O1 0.409147 0.772054 0.179532
O O2 0.308097 0.892953 0.147326
O O3 0.348204 0.846177 0.282852
O O4 0.500000 0.000000 0.198932
O O5 0.924147 0.893590 0.283736
O O6 0.373101 0.802410 0.432796
O O7 0.116898 0.883103 0.166667
O O8 0.272478 0.069951 0.112035
O O9 0.297423 0.016530 0.241051
O O10 0.809362 0.809362 0.166667
O O11 0.744777 0.703140 0.288761
O O12 0.321702 0.160851 0.333334
O O13 0.465071 0.096100 0.338681
O O14 0.308038 0.691963 0.666667
#
# Coordination Sequence:
#
# PCOD9584458 Si02
#       7
#    12   3   6  12  12  12  12
#     4  11  22  45  71  99 136 182 229 292 358 420
#     4  12  22  40  60  90 142 180 226 264 322 418
#     4  10  22  46  77 104 135 184 242 290 366 440
#     4  12  24  41  67  95 138 194 228 267 355 438
#     4  12  22  37  62  95 136 182 219 274 339 412
#     4  11  21  42  64  98 136 172 231 292 334 405
#     4   9  21  42  74  97 129 177 232 299 358 403
#
# _framework density 22.609667999999999
#
# number of rings (size 3 to 8) (size 9 to 14) (size 15 to 20)
#    0.000    1.043    5.217    2.348    0.000    0.000 
#    6.261    0.435    0.000    4.696    0.000    0.000 
#    0.000    0.000    0.000    0.000    0.000    0.000 
#
# Total GULP energy -385552.492691 kJ/mol
# GULP energy per Si atom -5587.717285 kJ/mol
# Density = 2.255821 g / cm^3
# Si number density = 22.609668 Si / 1000 Ang^3
#
#
#
# Elastic Constant Matrix: (Units=GPa)
#
#
# Indices 1 2 3 4 5 6 
#
# 1 84.8810 17.4773 28.9334 0.0000 0.0000 0.0000
# 2 17.4773 84.8810 28.9334 0.0000 0.0000 0.0000
# 3 28.9334 28.9334 109.9314 0.0000 0.0000 0.0000
# 4 0.0000 0.0000 0.0000 38.8579 0.0000 0.0000
# 5 0.0000 0.0000 0.0000 0.0000 38.8579 0.0000
# 6 0.0000 0.0000 0.0000 0.0000 0.0000 33.7018
#
#
#
# Elastic Compliance Matrix: (Units=1/GPa)
#
#
# Indices 1 2 3 4 5 6 
#
# 1 0.013157 -0.001679 -0.003021 0.000000 0.000000 0.000000
# 2 -0.001679 0.013157 -0.003021 0.000000 0.000000 0.000000
# 3 -0.003021 -0.003021 0.010687 0.000000 0.000000 0.000000
# 4 0.000000 0.000000 0.000000 0.025735 0.000000 0.000000
# 5 0.000000 0.000000 0.000000 0.000000 0.025735 0.000000
# 6 0.000000 0.000000 0.000000 0.000000 0.000000 0.029672
#
#
# Mechanical properties :
#
#
# Convention : Reuss Voigt Hill
#
# Bulk Modulus (GPa) = 46.38588 47.82016 47.10302
# Shear Modulus (GPa) = 35.51908 35.90683 35.71295
#
# Velocity S-wave (km/s) = 3.96784 3.98944 3.97866
# Velocity P-wave (km/s) = 6.44610 6.51284 6.47956
#
# Compressibility (1/GPa) = 0.02155828
#
# Stress axis : x y z
#
# Youngs Moduli (GPa) = 76.00704 76.00704 93.57431
#
# Poissons Ratio (x) = 0.12764 0.28267
# Poissons Ratio (y) = 0.12764 0.28267
# Poissons Ratio (z) = 0.22960 0.22960
#
# Static dielectric constant tensor:
#      x y z
#    x 1.905480 0.000000 0.000000 
#    y 0.000000 1.905480 0.000000 
#    z 0.000000 0.000000 1.825830 
# 
# From -- ./inp_files/7836.got.cif
#   From: 2010.05.17/outbox.cif.g08.bks.cpg/sg181_4_cif.got.tgz:7836.got - 2010.05.20 11:51:17.
