data_PCOD9584778
_publ_section_title
;
Structure prediction by ZEFSAII (Michael W. Deem and Ramdas Pophale) SiO2 
 PCOD9584778
Probable space group: P 63 2 2
;
_chemical_formula_sum "Si O2"
_cell_formula_units_Z 28
_cell_length_a 7.385043
_cell_length_b 7.385043
_cell_length_c 29.103654
_cell_angle_alpha 90.000000
_cell_angle_beta 90.000000
_cell_angle_gamma 120.000000
_cell_volume 1374.624902
_symmetry_space_group_name_H-M "P 63 2 2"
_symmetry_group_IT_number 182
_symmetry_cell_setting 'hexagonal'
loop_
_space_group_symop_operation_xyz
x,y,z
x-y,x,1/2+z
-y,x-y,z
-x,-y,1/2+z
-x+y,-x,z
y,-x+y,1/2+z
x-y,-y,-z
-x,-x+y,-z
y,x,-z
-y,-x,1/2-z
-x+y,y,1/2-z
x,x-y,1/2-z
loop_
_atom_site_type_symbol
_atom_site_label
_atom_site_fract_x
_atom_site_fract_y
_atom_site_fract_z
Si Si1 0.666668 0.333334 0.804454
Si Si2 0.594547 0.871393 0.043882
Si Si3 0.199736 0.252396 0.146689
O O1 0.666668 0.333334 0.750000
O O2 0.867288 0.537946 0.825053
O O3 0.378456 0.879994 0.043064
O O4 0.703741 0.949183 0.092627
O O5 0.727050 0.000000 0.000000
O O6 0.214468 0.046616 0.156769
#
# Coordination Sequence:
#
# PCOD9584778 Si02
#       3
#     4  12  12
#     4  12  24  51  75  99 141 174 225 300 352 404
#     4  10  22  35  60  94 135 182 228 271 332 399
#     4  10  24  43  71  97 138 177 226 279 346 408
#
# _framework density 20.369195000000001
#
# number of rings (size 3 to 8) (size 9 to 14) (size 15 to 20)
#    1.714    0.000    4.286    0.000    6.000    1.714 
#    2.571    0.000    0.000    0.000    0.000    0.000 
#    0.000    0.000    0.000    0.000    0.000    0.000 
#
# Total GULP energy -155922.250749 kJ/mol
# GULP energy per Si atom -5568.651812 kJ/mol
# Density = 2.032283 g / cm^3
# Si number density = 20.369195 Si / 1000 Ang^3
#
#
#
# Elastic Constant Matrix: (Units=GPa)
#
#
# Indices 1 2 3 4 5 6 
#
# 1 67.8989 10.7291 22.4510 0.0008 -0.0005 0.0002
# 2 10.7291 67.8995 22.4512 0.0000 -0.0019 0.0003
# 3 22.4510 22.4512 124.5154 0.0026 0.0017 0.0002
# 4 0.0008 0.0000 0.0026 -45.3284 0.0154 0.0007
# 5 -0.0005 -0.0019 0.0017 0.0154 -45.3325 -0.0004
# 6 0.0002 0.0003 0.0002 0.0007 -0.0004 28.5850
#
#
#
# Elastic Compliance Matrix: (Units=1/GPa)
#
#
# Indices 1 2 3 4 5 6 
#
# 1 0.015835 -0.001657 -0.002556 0.000000 0.000000 0.000000
# 2 -0.001657 0.015835 -0.002556 0.000000 -0.000001 0.000000
# 3 -0.002556 -0.002556 0.008953 0.000000 0.000000 0.000000
# 4 0.000000 0.000000 0.000000 -0.022061 -0.000007 0.000001
# 5 0.000000 -0.000001 0.000000 -0.000007 -0.022059 0.000000
# 6 0.000000 0.000000 0.000000 0.000001 0.000000 0.034983
#
#
# Mechanical properties :
#
#
# Convention : Reuss Voigt Hill
#
# Bulk Modulus (GPa) = 36.92310 41.28627 39.10469
# Shear Modulus (GPa) = 92.50253 1.23033 46.86643
#
# Velocity S-wave (km/s) = 6.74622 0.77803 4.80192
# Velocity P-wave (km/s) = 8.87966 4.59566 7.06995
#
# Compressibility (1/GPa) = 0.02708331
#
# Stress axis : x y z
#
# Youngs Moduli (GPa) = 63.15179 63.15223 111.69422
#
# Poissons Ratio (x) = 0.10463 0.28553
# Poissons Ratio (y) = 0.10463 0.28554
# Poissons Ratio (z) = 0.16144 0.16144
#
# Static dielectric constant tensor:
#      x y z
#    x 1.745770 0.000000 0.000000 
#    y 0.000000 1.745770 0.000000 
#    z 0.000000 0.000000 1.665380 
# 
# From -- ./inp_files/5352.got.cif
#   From: 2010.05.17/outbox.cif.g08.bks.cpg/sg182_3_cif.got.tgz:5352.got - 2010.05.20 11:58:53.
