data_PCOD9584133
_publ_section_title
;
Structure prediction by ZEFSAII (Michael W. Deem and Ramdas Pophale) SiO2 
 PCOD9584133
Probable space group: P 62 2 2
;
_chemical_formula_sum "Si O2"
_cell_formula_units_Z 69
_cell_length_a 20.175448
_cell_length_b 20.175448
_cell_length_c 8.934753
_cell_angle_alpha 90.000000
_cell_angle_beta 90.000000
_cell_angle_gamma 120.000000
_cell_volume 3149.630134
_symmetry_space_group_name_H-M "P 62 2 2"
_symmetry_group_IT_number 180
_symmetry_cell_setting 'hexagonal'
loop_
_space_group_symop_operation_xyz
x,y,z
x-y,x,1/3+z
-y,x-y,2/3+z
-x,-y,z
-x+y,-x,1/3+z
y,-x+y,2/3+z
x-y,-y,-z
-x,-x+y,1/3-z
y,x,2/3-z
-y,-x,2/3-z
-x+y,y,-z
x,x-y,1/3-z
loop_
_atom_site_type_symbol
_atom_site_label
_atom_site_fract_x
_atom_site_fract_y
_atom_site_fract_z
Si Si1 0.000000 0.650096 0.666667
Si Si2 0.209527 0.920907 0.439035
Si Si3 0.252808 0.365189 0.576648
Si Si4 0.471190 0.672023 0.066501
Si Si5 0.000000 0.500000 0.166667
Si Si6 0.447009 0.688860 0.535153
Si Si7 0.080667 0.649718 0.379884
O O1 0.950728 0.670292 0.553273
O O2 0.950679 0.582109 0.783311
O O3 0.138390 0.861611 0.333334
O O4 0.217639 0.887697 0.596764
O O5 0.289513 0.941639 0.355483
O O6 0.215453 0.000000 0.500000
O O7 0.185658 0.371316 0.500000
O O8 0.327178 0.449278 0.606565
O O9 0.482777 0.741389 0.166667
O O10 0.402408 0.601124 0.151350
O O11 0.458554 0.703535 0.910223
O O12 0.948841 0.425079 0.272963
O O13 0.399024 0.699512 0.666667
O O14 0.524726 0.697042 0.600018
#
# Coordination Sequence:
#
# PCOD9584133 Si02
#       7
#     6  12  12  12   3  12  12
#     4  12  24  45  66 102 128 184 239 306 372 458
#     4  12  24  46  74 105 146 196 242 303 378 468
#     4  11  24  42  70  98 143 180 237 292 372 441
#     4  11  23  41  57  89 122 171 229 306 364 439
#     4  12  28  46  64  96 136 194 260 316 382 474
#     4  12  25  38  65  86 123 169 234 298 375 432
#     4  12  26  44  66  95 138 188 247 309 385 447
#
# _framework density 21.907335
#
# number of rings (size 3 to 8) (size 9 to 14) (size 15 to 20)
#    0.000    0.348    2.609    7.826    7.304    0.348 
#    0.000    0.000    0.000    0.000    0.000    0.000 
#    0.000    3.478    0.000    0.000    0.000    0.000 
#
# Total GULP energy -384250.671582 kJ/mol
# GULP energy per Si atom -5568.850313 kJ/mol
# Density = 2.185747 g / cm^3
# Si number density = 21.907335 Si / 1000 Ang^3
#
#
#
# Elastic Constant Matrix: (Units=GPa)
#
#
# Indices 1 2 3 4 5 6 
#
# 1 73.1107 23.9532 33.4161 0.0000 0.0000 0.0000
# 2 23.9532 73.1107 33.4161 0.0000 0.0000 0.0000
# 3 33.4161 33.4161 153.8925 0.0000 0.0000 0.0000
# 4 0.0000 0.0000 0.0000 36.9598 0.0000 0.0000
# 5 0.0000 0.0000 0.0000 0.0000 36.9598 0.0000
# 6 0.0000 0.0000 0.0000 0.0000 0.0000 24.5788
#
#
#
# Elastic Compliance Matrix: (Units=1/GPa)
#
#
# Indices 1 2 3 4 5 6 
#
# 1 0.016228 -0.004115 -0.002630 0.000000 0.000000 0.000000
# 2 -0.004115 0.016228 -0.002630 0.000000 0.000000 0.000000
# 3 -0.002630 -0.002630 0.007640 0.000000 0.000000 0.000000
# 4 0.000000 0.000000 0.000000 0.027056 0.000000 0.000000
# 5 0.000000 0.000000 0.000000 0.000000 0.027056 0.000000
# 6 0.000000 0.000000 0.000000 0.000000 0.000000 0.040686
#
#
# Mechanical properties :
#
#
# Convention : Reuss Voigt Hill
#
# Bulk Modulus (GPa) = 46.84682 53.52050 50.18366
# Shear Modulus (GPa) = 31.10207 33.65489 32.37848
#
# Velocity S-wave (km/s) = 3.77199 3.92374 3.84861
# Velocity P-wave (km/s) = 6.35618 6.70903 6.53499
#
# Compressibility (1/GPa) = 0.02134617
#
# Stress axis : x y z
#
# Youngs Moduli (GPa) = 61.62124 61.62124 130.88423
#
# Poissons Ratio (x) = 0.25355 0.34427
# Poissons Ratio (y) = 0.25355 0.34427
# Poissons Ratio (z) = 0.16208 0.16208
#
# Static dielectric constant tensor:
#      x y z
#    x 2.038950 0.000000 0.000000 
#    y 0.000000 2.038950 0.000000 
#    z 0.000000 0.000000 1.880750 
# 
# From -- ./inp_files/3271.got.cif
#   From: 2010.05.17/outbox.cif.g08.bks.cpg/sg180_2_cif.got.tgz:3271.got - 2010.05.20 11:43:55.
