data_PCOD9584309
_publ_section_title
;
Structure prediction by ZEFSAII (Michael W. Deem and Ramdas Pophale) SiO2 
 PCOD9584309
Probable space group: P 64 2 2
;
_chemical_formula_sum "Si O2"
_cell_formula_units_Z 51
_cell_length_a 10.208409
_cell_length_b 10.208409
_cell_length_c 30.287112
_cell_angle_alpha 90.000000
_cell_angle_beta 90.000000
_cell_angle_gamma 120.000000
_cell_volume 2733.408992
_symmetry_space_group_name_H-M "P 64 2 2"
_symmetry_group_IT_number 181
_symmetry_cell_setting 'hexagonal'
loop_
_space_group_symop_operation_xyz
x,y,z
x-y,x,2/3+z
-y,x-y,1/3+z
-x,-y,z
-x+y,-x,2/3+z
y,-x+y,1/3+z
x-y,-y,-z
-x,-x+y,2/3-z
y,x,1/3-z
-y,-x,1/3-z
-x+y,y,-z
x,x-y,2/3-z
loop_
_atom_site_type_symbol
_atom_site_label
_atom_site_fract_x
_atom_site_fract_y
_atom_site_fract_z
Si Si1 0.315007 0.657504 0.333334
Si Si2 0.500000 0.000000 0.365187
Si Si3 0.755708 0.377854 0.833334
Si Si4 0.939668 0.744912 0.738604
Si Si5 0.000000 0.000000 0.000000
Si Si6 0.269584 0.000000 0.500000
Si Si7 0.161647 0.540877 0.244699
O O1 0.415008 0.839026 0.340141
O O2 0.210548 0.628734 0.290794
O O3 0.372368 0.010170 0.393712
O O4 0.859591 0.559017 0.837641
O O5 0.660698 0.295191 0.876669
O O6 0.992370 0.807549 0.787993
O O7 0.764528 0.621072 0.743643
O O8 0.968459 0.862385 0.699736
O O9 0.000000 0.500000 0.226458
#
# Coordination Sequence:
#
# PCOD9584309 Si02
#       7
#     6   6   6  12   3   6  12
#     4  10  20  34  60  84 118 154 210 246 299 361
#     4  10  20  37  58  92 110 162 210 251 292 366
#     4   9  18  36  60  86 110 145 210 254 272 357
#     4  10  22  37  62  84 120 154 199 247 301 360
#     4  12  26  38  54  98 132 144 188 266 314 362
#     4   9  16  37  64  82 104 156 202 238 294 356
#     4  10  21  37  58  84 117 164 195 240 308 367
#
# _framework density 18.658021999999999
#
# number of rings (size 3 to 8) (size 9 to 14) (size 15 to 20)
#    0.000    2.118    0.000    5.294    6.588    0.471 
#    2.118    4.706    0.000    0.000    0.000    0.000 
#    0.000    0.000    0.000    0.000    0.000    0.000 
#
# Total GULP energy -284102.160730 kJ/mol
# GULP energy per Si atom -5570.630603 kJ/mol
# Density = 1.861556 g / cm^3
# Si number density = 18.658022 Si / 1000 Ang^3
#
#
#
# Elastic Constant Matrix: (Units=GPa)
#
#
# Indices 1 2 3 4 5 6 
#
# 1 50.4075 18.9776 39.4314 0.0000 0.0000 0.0000
# 2 18.9776 50.4075 39.4314 0.0000 0.0000 0.0000
# 3 39.4314 39.4314 160.5700 0.0000 0.0000 0.0000
# 4 0.0000 0.0000 0.0000 12.7126 0.0000 0.0000
# 5 0.0000 0.0000 0.0000 0.0000 12.7126 0.0000
# 6 0.0000 0.0000 0.0000 0.0000 0.0000 15.7150
#
#
#
# Elastic Compliance Matrix: (Units=1/GPa)
#
#
# Indices 1 2 3 4 5 6 
#
# 1 0.025905 -0.005912 -0.004910 0.000000 0.000000 0.000000
# 2 -0.005912 0.025905 -0.004910 0.000000 0.000000 0.000000
# 3 -0.004910 -0.004910 0.008639 0.000000 0.000000 0.000000
# 4 0.000000 0.000000 0.000000 0.078662 0.000000 0.000000
# 5 0.000000 0.000000 0.000000 0.000000 0.078662 0.000000
# 6 0.000000 0.000000 0.000000 0.000000 0.000000 0.063634
#
#
# Mechanical properties :
#
#
# Convention : Reuss Voigt Hill
#
# Bulk Modulus (GPa) = 34.49960 50.78509 42.64234
# Shear Modulus (GPa) = 15.50238 19.13100 17.31669
#
# Velocity S-wave (km/s) = 2.88561 3.20558 3.04979
# Velocity P-wave (km/s) = 5.44361 6.40148 5.94188
#
# Compressibility (1/GPa) = 0.02898584
#
# Stress axis : x y z
#
# Youngs Moduli (GPa) = 38.60304 38.60304 115.75236
#
# Poissons Ratio (x) = 0.22823 0.56830
# Poissons Ratio (y) = 0.22823 0.56830
# Poissons Ratio (z) = 0.18953 0.18953
#
# Static dielectric constant tensor:
#      x y z
#    x 1.733770 0.000000 0.000000 
#    y 0.000000 1.733770 0.000000 
#    z 0.000000 0.000000 1.690800 
# 
# From -- ./inp_files/12134.got.cif
#   From: 2010.05.17/outbox.cif.g08.bks.cpg/sg181_7_cif.got.tgz:12134.got - 2010.05.20 11:51:17.
