data_PCOD9584819
_publ_section_title
;
Structure prediction by ZEFSAII (Michael W. Deem and Ramdas Pophale) SiO2 
 PCOD9584819
Probable space group: P 63 2 2
;
_chemical_formula_sum "Si O2"
_cell_formula_units_Z 36
_cell_length_a 8.245885
_cell_length_b 8.245885
_cell_length_c 29.828339
_cell_angle_alpha 90.000000
_cell_angle_beta 90.000000
_cell_angle_gamma 120.000000
_cell_volume 1756.443763
_symmetry_space_group_name_H-M "P 63 2 2"
_symmetry_group_IT_number 182
_symmetry_cell_setting 'hexagonal'
loop_
_space_group_symop_operation_xyz
x,y,z
x-y,x,1/2+z
-y,x-y,z
-x,-y,1/2+z
-x+y,-x,z
y,-x+y,1/2+z
x-y,-y,-z
-x,-x+y,-z
y,x,-z
-y,-x,1/2-z
-x+y,y,1/2-z
x,x-y,1/2-z
loop_
_atom_site_type_symbol
_atom_site_label
_atom_site_fract_x
_atom_site_fract_y
_atom_site_fract_z
Si Si1 0.003515 0.787494 0.868580
Si Si2 0.666274 0.666178 0.270153
Si Si3 0.880001 0.547833 0.043559
O O1 0.020174 0.685318 0.912238
O O2 0.827250 0.823620 0.868304
O O3 0.002973 0.683021 0.823477
O O4 0.537085 0.462916 0.250000
O O5 0.592246 0.796123 0.250000
O O6 0.871344 0.742687 0.250000
O O7 0.665692 0.507183 0.043332
O O8 0.000000 0.652182 0.000000
#
# Coordination Sequence:
#
# PCOD9584819 Si02
#       3
#    12  12  12
#     4  10  23  42  71  92 129 179 225 274 339 405
#     4  12  24  44  67 100 142 183 226 284 347 420
#     4  10  26  42  67  97 134 169 226 282 348 414
#
# _framework density 20.495961000000001
#
# number of rings (size 3 to 8) (size 9 to 14) (size 15 to 20)
#    1.333    0.000    3.333    1.000    9.333    0.000 
#    0.000    0.000    0.000    0.000    0.000    0.000 
#    0.000    0.000    0.000    0.000    0.000    0.000 
#
# Total GULP energy -200739.684425 kJ/mol
# GULP energy per Si atom -5576.102345 kJ/mol
# Density = 2.044931 g / cm^3
# Si number density = 20.495961 Si / 1000 Ang^3
#
#
#
# Elastic Constant Matrix: (Units=GPa)
#
#
# Indices 1 2 3 4 5 6 
#
# 1 71.0600 38.7175 64.8351 0.0000 0.0000 0.0000
# 2 38.7175 71.0600 64.8351 0.0000 0.0000 0.0000
# 3 64.8351 64.8351 263.9840 0.0000 0.0000 0.0000
# 4 0.0000 0.0000 0.0000 49.2895 0.0000 0.0000
# 5 0.0000 0.0000 0.0000 0.0000 49.2895 0.0000
# 6 0.0000 0.0000 0.0000 0.0000 0.0000 16.1712
#
#
#
# Elastic Compliance Matrix: (Units=1/GPa)
#
#
# Indices 1 2 3 4 5 6 
#
# 1 0.021876 -0.009044 -0.003152 0.000000 0.000000 0.000000
# 2 -0.009044 0.021876 -0.003152 0.000000 0.000000 0.000000
# 3 -0.003152 -0.003152 0.005336 0.000000 0.000000 0.000000
# 4 0.000000 0.000000 0.000000 0.020288 0.000000 0.000000
# 5 0.000000 0.000000 0.000000 0.000000 0.020288 0.000000
# 6 0.000000 0.000000 0.000000 0.000000 0.000000 0.061838
#
#
# Mechanical properties :
#
#
# Convention : Reuss Voigt Hill
#
# Bulk Modulus (GPa) = 54.36584 82.54216 68.45400
# Shear Modulus (GPa) = 26.54960 38.79779 32.67370
#
# Velocity S-wave (km/s) = 3.60301 4.35552 3.99702
# Velocity P-wave (km/s) = 6.62508 8.10271 7.40086
#
# Compressibility (1/GPa) = 0.01839390
#
# Stress axis : x y z
#
# Youngs Moduli (GPa) = 45.71314 45.71314 187.40000
#
# Poissons Ratio (x) = 0.41341 0.59061
# Poissons Ratio (y) = 0.41341 0.59061
# Poissons Ratio (z) = 0.14407 0.14407
#
# Static dielectric constant tensor:
#      x y z
#    x 1.698970 0.000000 0.000000 
#    y 0.000000 1.698970 0.000000 
#    z 0.000000 0.000000 1.674520 
# 
# From -- ./inp_files/5381.got.cif
#   From: 2010.05.17/outbox.cif.g08.bks.cpg/sg182_3_cif.got.tgz:5381.got - 2010.05.20 11:58:53.
