data_PCOD9584189
_publ_section_title
;
Structure prediction by ZEFSAII (Michael W. Deem and Ramdas Pophale) SiO2 
 PCOD9584189
Probable space group: P 62 2 2
;
_chemical_formula_sum "Si O2"
_cell_formula_units_Z 24
_cell_length_a 14.816680
_cell_length_b 14.816680
_cell_length_c 5.072803
_cell_angle_alpha 90.000000
_cell_angle_beta 90.000000
_cell_angle_gamma 120.000000
_cell_volume 964.451586
_symmetry_space_group_name_H-M "P 62 2 2"
_symmetry_group_IT_number 180
_symmetry_cell_setting 'hexagonal'
loop_
_space_group_symop_operation_xyz
x,y,z
x-y,x,1/3+z
-y,x-y,2/3+z
-x,-y,z
-x+y,-x,1/3+z
y,-x+y,2/3+z
x-y,-y,-z
-x,-x+y,1/3-z
y,x,2/3-z
-y,-x,2/3-z
-x+y,y,-z
x,x-y,1/3-z
loop_
_atom_site_type_symbol
_atom_site_label
_atom_site_fract_x
_atom_site_fract_y
_atom_site_fract_z
Si Si1 0.791440 0.895720 0.166667
Si Si2 0.695645 0.000000 0.500000
Si Si3 0.849850 0.361164 0.409981
O O1 0.861601 0.861601 0.333334
O O2 0.719507 0.917652 0.359753
O O3 0.667034 0.058941 0.277348
O O4 0.741025 0.258976 0.333334
O O5 0.843606 0.421803 0.666667
O O6 0.874494 0.437247 0.166667
#
# Coordination Sequence:
#
# PCOD9584189 Si02
#       3
#     6   6  12
#     4  12  28  53  84 126 172 228 286 361 430 530
#     4  12  31  51  84 124 178 216 298 347 447 514
#     4  12  28  53  85 122 167 226 281 351 426 510
#
# _framework density 24.884609000000001
#
# number of rings (size 3 to 8) (size 9 to 14) (size 15 to 20)
#    0.000    0.000    0.000    8.250   14.000    7.000 
#    0.000    0.000    0.000    0.000    0.000    0.000 
#    0.000    0.000    0.000    0.000    0.000    0.000 
#
# Total GULP energy -134721.060000 kJ/mol
# GULP energy per Si atom -5613.377500 kJ/mol
# Density = 2.482797 g / cm^3
# Si number density = 24.884609 Si / 1000 Ang^3
#
#
#
# Elastic Constant Matrix: (Units=GPa)
#
#
# Indices 1 2 3 4 5 6 
#
# 1 178.7701 80.3824 87.3093 0.0000 0.0000 0.0000
# 2 80.3824 178.7701 87.3093 0.0000 0.0000 0.0000
# 3 87.3093 87.3093 200.1315 0.0000 0.0000 0.0000
# 4 0.0000 0.0000 0.0000 48.7846 0.0000 0.0000
# 5 0.0000 0.0000 0.0000 0.0000 48.7846 0.0000
# 6 0.0000 0.0000 0.0000 0.0000 0.0000 49.1939
#
#
#
# Elastic Compliance Matrix: (Units=1/GPa)
#
#
# Indices 1 2 3 4 5 6 
#
# 1 0.007815 -0.002349 -0.002384 0.000000 0.000000 0.000000
# 2 -0.002349 0.007815 -0.002384 0.000000 0.000000 0.000000
# 3 -0.002384 -0.002384 0.007077 0.000000 0.000000 0.000000
# 4 0.000000 0.000000 0.000000 0.020498 0.000000 0.000000
# 5 0.000000 0.000000 0.000000 0.000000 0.020498 0.000000
# 6 0.000000 0.000000 0.000000 0.000000 0.000000 0.020328
#
#
# Mechanical properties :
#
#
# Convention : Reuss Voigt Hill
#
# Bulk Modulus (GPa) = 118.05709 118.63040 118.34375
# Shear Modulus (GPa) = 49.46104 49.53066 49.49585
#
# Velocity S-wave (km/s) = 4.46310 4.46625 4.46468
# Velocity P-wave (km/s) = 8.60836 8.62393 8.61615
#
# Compressibility (1/GPa) = 0.00847048
#
# Stress axis : x y z
#
# Youngs Moduli (GPa) = 127.96606 127.96606 141.30195
#
# Poissons Ratio (x) = 0.30063 0.33690
# Poissons Ratio (y) = 0.30063 0.33690
# Poissons Ratio (z) = 0.30511 0.30511
#
# Static dielectric constant tensor:
#      x y z
#    x 1.834730 0.000000 0.000000 
#    y 0.000000 1.834730 0.000000 
#    z 0.000000 0.000000 1.914020 
# 
# From -- ./inp_files/196.got.cif
#   From: 2010.05.17/outbox.cif.g08.bks.cpg/sg180_1_cif.got.tgz:196.got - 2010.05.20 11:43:55.
