data_PCOD9584185
_publ_section_title
;
Structure prediction by ZEFSAII (Michael W. Deem and Ramdas Pophale) SiO2 
 PCOD9584185
Probable space group: P 62 2 2
;
_chemical_formula_sum "Si O2"
_cell_formula_units_Z 24
_cell_length_a 13.524190
_cell_length_b 13.524190
_cell_length_c 5.423322
_cell_angle_alpha 90.000000
_cell_angle_beta 90.000000
_cell_angle_gamma 120.000000
_cell_volume 859.050212
_symmetry_space_group_name_H-M "P 62 2 2"
_symmetry_group_IT_number 180
_symmetry_cell_setting 'hexagonal'
loop_
_space_group_symop_operation_xyz
x,y,z
x-y,x,1/3+z
-y,x-y,2/3+z
-x,-y,z
-x+y,-x,1/3+z
y,-x+y,2/3+z
x-y,-y,-z
-x,-x+y,1/3-z
y,x,2/3-z
-y,-x,2/3-z
-x+y,y,-z
x,x-y,1/3-z
loop_
_atom_site_type_symbol
_atom_site_label
_atom_site_fract_x
_atom_site_fract_y
_atom_site_fract_z
Si Si1 0.505767 0.367261 0.087172
Si Si2 0.761165 0.040338 0.260978
O O1 0.560661 0.439340 0.333334
O O2 0.498117 0.249059 0.166667
O O3 0.376729 0.343385 0.064692
O O4 0.576445 0.423556 0.833334
O O5 0.824767 0.175234 0.333334
O O6 0.801382 0.000000 0.500000
O O7 0.781344 0.000000 0.000000
#
# Coordination Sequence:
#
# PCOD9584185 Si02
#       2
#    12  12
#     4  12  26  47  81 126 177 226 276 344 428 522
#     4  12  27  51  81 115 163 224 287 352 420 497
#
# _framework density 27.937830000000002
#
# number of rings (size 3 to 8) (size 9 to 14) (size 15 to 20)
#    0.000    0.000    0.000   10.500    0.000    6.000 
#    0.000    0.000    0.000   27.000    0.000    0.000 
#    0.000    0.000    0.000    0.000    0.000    0.000 
#
# Total GULP energy -134111.837895 kJ/mol
# GULP energy per Si atom -5587.993246 kJ/mol
# Density = 2.787424 g / cm^3
# Si number density = 27.937830 Si / 1000 Ang^3
#
#
#
# Elastic Constant Matrix: (Units=GPa)
#
#
# Indices 1 2 3 4 5 6 
#
# 1 193.1120 132.4676 103.8098 0.0000 0.0000 0.0000
# 2 132.4676 193.1120 103.8098 0.0000 0.0000 0.0000
# 3 103.8098 103.8098 377.0870 0.0000 0.0000 0.0000
# 4 0.0000 0.0000 0.0000 44.2353 0.0000 0.0000
# 5 0.0000 0.0000 0.0000 0.0000 44.2353 0.0000
# 6 0.0000 0.0000 0.0000 0.0000 0.0000 30.3222
#
#
#
# Elastic Compliance Matrix: (Units=1/GPa)
#
#
# Indices 1 2 3 4 5 6 
#
# 1 0.010108 -0.006382 -0.001026 0.000000 0.000000 0.000000
# 2 -0.006382 0.010108 -0.001026 0.000000 0.000000 0.000000
# 3 -0.001026 -0.001026 0.003217 0.000000 0.000000 0.000000
# 4 0.000000 0.000000 0.000000 0.022606 0.000000 0.000000
# 5 0.000000 0.000000 0.000000 0.000000 0.022606 0.000000
# 6 0.000000 0.000000 0.000000 0.000000 0.000000 0.032979
#
#
# Mechanical properties :
#
#
# Convention : Reuss Voigt Hill
#
# Bulk Modulus (GPa) = 152.32005 160.38724 156.35364
# Shear Modulus (GPa) = 41.43242 51.97347 46.70295
#
# Velocity S-wave (km/s) = 3.85518 4.31783 4.09305
# Velocity P-wave (km/s) = 8.62879 9.07697 8.85572
#
# Compressibility (1/GPa) = 0.00656512
#
# Stress axis : x y z
#
# Youngs Moduli (GPa) = 98.93622 98.93622 310.88831
#
# Poissons Ratio (x) = 0.63142 0.31885
# Poissons Ratio (y) = 0.63142 0.31885
# Poissons Ratio (z) = 0.10147 0.10147
#
# Static dielectric constant tensor:
#      x y z
#    x 2.525510 0.000000 0.000000 
#    y 0.000000 2.525510 0.000000 
#    z 0.000000 0.000000 2.330130 
# 
# From -- ./inp_files/132.got.cif
#   From: 2010.05.17/outbox.cif.g08.bks.cpg/sg180_1_cif.got.tgz:132.got - 2010.05.20 11:43:55.
