data_PCOD9584435
_publ_section_title
;
Structure prediction by ZEFSAII (Michael W. Deem and Ramdas Pophale) SiO2 
 PCOD9584435
Probable space group: P 64 2 2
;
_chemical_formula_sum "Si O2"
_cell_formula_units_Z 66
_cell_length_a 24.834825
_cell_length_b 24.834825
_cell_length_c 6.553410
_cell_angle_alpha 90.000000
_cell_angle_beta 90.000000
_cell_angle_gamma 120.000000
_cell_volume 3500.420183
_symmetry_space_group_name_H-M "P 64 2 2"
_symmetry_group_IT_number 181
_symmetry_cell_setting 'hexagonal'
loop_
_space_group_symop_operation_xyz
x,y,z
x-y,x,2/3+z
-y,x-y,1/3+z
-x,-y,z
-x+y,-x,2/3+z
y,-x+y,1/3+z
x-y,-y,-z
-x,-x+y,2/3-z
y,x,1/3-z
-y,-x,1/3-z
-x+y,y,-z
x,x-y,2/3-z
loop_
_atom_site_type_symbol
_atom_site_label
_atom_site_fract_x
_atom_site_fract_y
_atom_site_fract_z
Si Si1 0.071040 0.472850 0.777109
Si Si2 0.070697 0.669470 0.262386
Si Si3 0.104291 0.052146 0.833334
Si Si4 0.872252 0.658298 0.658601
Si Si5 0.437499 0.278710 0.345115
Si Si6 0.142376 0.207136 0.195818
O O1 0.072571 0.536286 0.833334
O O2 0.082225 0.459561 0.544618
O O3 0.000000 0.418547 0.833334
O O4 0.126187 0.471360 0.900141
O O5 0.075798 0.724859 0.120234
O O6 0.122407 0.702652 0.439233
O O7 0.000000 0.630027 0.333334
O O8 0.065433 0.065433 0.666667
O O9 0.150976 0.042166 0.690200
O O10 0.815047 0.630093 0.500000
O O11 0.888071 0.727445 0.707139
O O12 0.860442 0.622946 0.871459
O O13 0.468448 0.234224 0.333334
O O14 0.206402 0.206402 0.166667
O O15 0.098729 0.197457 0.000000
#
# Coordination Sequence:
#
# PCOD9584435 Si02
#       6
#    12  12   6  12  12  12
#     4  10  22  40  62  97 134 172 227 290 340 404
#     4  11  23  38  60  92 132 177 219 265 333 398
#     4  12  26  50  71  86 106 144 196 268 348 414
#     4  11  24  37  59  90 126 168 210 258 315 395
#     4  11  22  40  62  94 133 177 226 270 332 406
#     4  12  26  41  62  89 118 152 202 261 327 403
#
# _framework density 18.854877999999999
#
# number of rings (size 3 to 8) (size 9 to 14) (size 15 to 20)
#    0.000    0.909    6.364    0.545    2.545    1.455 
#    0.000    2.273    0.000    0.000    4.727    0.000 
#    0.000    0.000    0.000    0.000    0.000    0.000 
#
# Total GULP energy -367641.970977 kJ/mol
# GULP energy per Si atom -5570.332894 kJ/mol
# Density = 1.881196 g / cm^3
# Si number density = 18.854878 Si / 1000 Ang^3
#
#
#
# Elastic Constant Matrix: (Units=GPa)
#
#
# Indices 1 2 3 4 5 6 
#
# 1 88.7666 47.8026 51.8585 0.0000 0.0000 0.0000
# 2 47.8026 88.7666 51.8585 0.0000 0.0000 0.0000
# 3 51.8585 51.8585 139.9957 0.0000 0.0000 0.0000
# 4 0.0000 0.0000 0.0000 9.7268 0.0000 0.0000
# 5 0.0000 0.0000 0.0000 0.0000 9.7268 0.0000
# 6 0.0000 0.0000 0.0000 0.0000 0.0000 20.4820
#
#
#
# Elastic Compliance Matrix: (Units=1/GPa)
#
#
# Indices 1 2 3 4 5 6 
#
# 1 0.017300 -0.007112 -0.003774 0.000000 0.000000 0.000000
# 2 -0.007112 0.017300 -0.003774 0.000000 0.000000 0.000000
# 3 -0.003774 -0.003774 0.009939 0.000000 0.000000 0.000000
# 4 0.000000 0.000000 0.000000 0.102809 0.000000 0.000000
# 5 0.000000 0.000000 0.000000 0.000000 0.102809 0.000000
# 6 0.000000 0.000000 0.000000 0.000000 0.000000 0.048823
#
#
# Mechanical properties :
#
#
# Convention : Reuss Voigt Hill
#
# Bulk Modulus (GPa) = 65.70420 68.95203 67.32812
# Shear Modulus (GPa) = 14.99817 19.05438 17.02628
#
# Velocity S-wave (km/s) = 2.82344 3.18241 3.00828
# Velocity P-wave (km/s) = 6.74922 7.08187 6.91755
#
# Compressibility (1/GPa) = 0.01521973
#
# Stress axis : x y z
#
# Youngs Moduli (GPa) = 57.80305 57.80305 100.61191
#
# Poissons Ratio (x) = 0.41107 0.37972
# Poissons Ratio (y) = 0.41107 0.37972
# Poissons Ratio (z) = 0.21816 0.21816
#
# Static dielectric constant tensor:
#      x y z
#    x 1.699200 0.000000 0.000000 
#    y 0.000000 1.699200 0.000000 
#    z 0.000000 0.000000 1.739980 
# 
# From -- ./inp_files/1537.got.cif
#   From: 2010.05.17/outbox.cif.g08.bks.cpg/sg181_1_cif.got.tgz:1537.got - 2010.05.20 11:51:17.
