data_PCOD9584718
_publ_section_title
;
Structure prediction by ZEFSAII (Michael W. Deem and Ramdas Pophale) SiO2 
 PCOD9584718
Probable space group: P 63 2 2
;
_chemical_formula_sum "Si O2"
_cell_formula_units_Z 54
_cell_length_a 24.239085
_cell_length_b 24.239085
_cell_length_c 5.806763
_cell_angle_alpha 90.000000
_cell_angle_beta 90.000000
_cell_angle_gamma 120.000000
_cell_volume 2954.589675
_symmetry_space_group_name_H-M "P 63 2 2"
_symmetry_group_IT_number 182
_symmetry_cell_setting 'hexagonal'
loop_
_space_group_symop_operation_xyz
x,y,z
x-y,x,1/2+z
-y,x-y,z
-x,-y,1/2+z
-x+y,-x,z
y,-x+y,1/2+z
x-y,-y,-z
-x,-x+y,-z
y,x,-z
-y,-x,1/2-z
-x+y,y,1/2-z
x,x-y,1/2-z
loop_
_atom_site_type_symbol
_atom_site_label
_atom_site_fract_x
_atom_site_fract_y
_atom_site_fract_z
Si Si1 0.218127 0.701661 0.552595
Si Si2 0.415594 0.831188 0.250000
Si Si3 0.404618 0.000000 0.000000
Si Si4 0.199921 0.399841 0.250000
Si Si5 0.938111 0.295736 0.631776
Si Si6 0.517522 0.902959 0.854663
O O1 0.272141 0.727860 0.750000
O O2 0.214700 0.656169 0.343800
O O3 0.209794 0.759382 0.453067
O O4 0.155899 0.652132 0.688278
O O5 0.412680 0.878093 0.442911
O O6 0.423495 0.963688 0.812005
O O7 0.383975 0.044093 0.859133
O O8 0.230372 0.356131 0.186690
O O9 0.916829 0.333294 0.461760
O O10 0.000000 0.301087 0.500000
#
# Coordination Sequence:
#
# PCOD9584718 Si02
#       6
#    12   6   6   6  12  12
#     4  12  23  40  67  86 105 154 198 249 318 384
#     4  12  24  40  64  89 114 148 198 254 308 392
#     4  10  20  38  64  92 122 148 188 244 296 364
#     4  12  20  40  66  91 114 164 202 248 322 372
#     4  10  21  36  62  94 122 151 204 252 293 374
#     4  11  21  39  65  85 121 149 189 252 305 373
#
# _framework density 18.276651000000001
#
# number of rings (size 3 to 8) (size 9 to 14) (size 15 to 20)
#    0.000    0.889    6.667    0.667    0.000    0.000 
#    0.000    0.000  110.000   37.333    0.000    0.000 
#    0.000    0.000    0.000    0.000    0.000    0.000 
#
# Total GULP energy -301167.811001 kJ/mol
# GULP energy per Si atom -5577.181685 kJ/mol
# Density = 1.823505 g / cm^3
# Si number density = 18.276651 Si / 1000 Ang^3
#
#
#
# Elastic Constant Matrix: (Units=GPa)
#
#
# Indices 1 2 3 4 5 6 
#
# 1 80.0727 70.9798 41.8502 0.0000 0.0000 0.0000
# 2 70.9798 80.0727 41.8502 0.0000 0.0000 0.0000
# 3 41.8502 41.8502 89.5604 0.0000 0.0000 0.0000
# 4 0.0000 0.0000 0.0000 37.8332 0.0000 0.0000
# 5 0.0000 0.0000 0.0000 0.0000 37.8332 0.0000
# 6 0.0000 0.0000 0.0000 0.0000 0.0000 4.5464
#
#
#
# Elastic Compliance Matrix: (Units=1/GPa)
#
#
# Indices 1 2 3 4 5 6 
#
# 1 0.059455 -0.050521 -0.004174 0.000000 0.000000 0.000000
# 2 -0.050521 0.059455 -0.004174 0.000000 0.000000 0.000000
# 3 -0.004174 -0.004174 0.015067 0.000000 0.000000 0.000000
# 4 0.000000 0.000000 0.000000 0.026432 0.000000 0.000000
# 5 0.000000 0.000000 0.000000 0.000000 0.026432 0.000000
# 6 0.000000 0.000000 0.000000 0.000000 0.000000 0.219952
#
#
# Mechanical properties :
#
#
# Convention : Reuss Voigt Hill
#
# Bulk Modulus (GPa) = 61.59177 62.11849 61.85513
# Shear Modulus (GPa) = 9.43496 22.37761 15.90628
#
# Velocity S-wave (km/s) = 2.27454 3.50291 2.95330
# Velocity P-wave (km/s) = 6.37737 7.10086 6.74882
#
# Compressibility (1/GPa) = 0.01623593
#
# Stress axis : x y z
#
# Youngs Moduli (GPa) = 16.81955 16.81955 66.37055
#
# Poissons Ratio (x) = 0.84975 0.27706
# Poissons Ratio (y) = 0.84975 0.27706
# Poissons Ratio (z) = 0.07021 0.07021
#
# Static dielectric constant tensor:
#      x y z
#    x 1.637270 0.000000 0.000000 
#    y 0.000000 1.637270 0.000000 
#    z 0.000000 0.000000 1.888820 
# 
# From -- ./inp_files/611.got.cif
#   From: 2010.05.17/outbox.cif.g08.bks.cpg/sg182_1_cif.got.tgz:611.got - 2010.05.20 11:58:53.
