data_PCOD9584428
_publ_section_title
;
Structure prediction by ZEFSAII (Michael W. Deem and Ramdas Pophale) SiO2 
 PCOD9584428
Probable space group: P 64 2 2
;
_chemical_formula_sum "Si O2"
_cell_formula_units_Z 48
_cell_length_a 17.618242
_cell_length_b 17.618242
_cell_length_c 8.451775
_cell_angle_alpha 90.000000
_cell_angle_beta 90.000000
_cell_angle_gamma 120.000000
_cell_volume 2271.975798
_symmetry_space_group_name_H-M "P 64 2 2"
_symmetry_group_IT_number 181
_symmetry_cell_setting 'hexagonal'
loop_
_space_group_symop_operation_xyz
x,y,z
x-y,x,2/3+z
-y,x-y,1/3+z
-x,-y,z
-x+y,-x,2/3+z
y,-x+y,1/3+z
x-y,-y,-z
-x,-x+y,2/3-z
y,x,1/3-z
-y,-x,1/3-z
-x+y,y,-z
x,x-y,2/3-z
loop_
_atom_site_type_symbol
_atom_site_label
_atom_site_fract_x
_atom_site_fract_y
_atom_site_fract_z
Si Si1 0.000000 0.191920 0.333334
Si Si2 0.742267 0.257734 0.666667
Si Si3 0.566231 0.372250 0.832414
Si Si4 0.901727 0.569169 0.763910
Si Si5 0.248685 0.198192 0.001406
O O1 0.997420 0.231408 0.504343
O O2 0.092977 0.196035 0.337423
O O3 0.754273 0.332773 0.548595
O O4 0.705677 0.167314 0.573355
O O5 0.577063 0.422937 0.666667
O O6 0.537374 0.268687 0.833334
O O7 0.507283 0.381847 0.968049
O O8 0.893055 0.646872 0.679318
O O9 0.000000 0.608684 0.833334
O O10 0.221741 0.221741 0.166667
#
# Coordination Sequence:
#
# PCOD9584428 Si02
#       5
#     6   6  12  12  12
#     4  10  22  38  69  98 137 186 238 304 344 448
#     4  12  24  44  76  98 148 184 232 298 366 432
#     4  12  23  44  75 107 137 185 238 293 361 435
#     4  11  27  46  71 106 146 192 236 298 369 440
#     4  10  23  43  67  98 144 185 244 290 376 427
#
# _framework density 21.126985000000001
#
# number of rings (size 3 to 8) (size 9 to 14) (size 15 to 20)
#    0.000    1.000    3.750    1.500   10.500    2.000 
#    0.000    8.750    0.000    0.000    0.000    0.000 
#    0.000    0.000    0.000    0.000    0.000    0.000 
#
# Total GULP energy -267464.646417 kJ/mol
# GULP energy per Si atom -5572.180134 kJ/mol
# Density = 2.107890 g / cm^3
# Si number density = 21.126985 Si / 1000 Ang^3
#
#
#
# Elastic Constant Matrix: (Units=GPa)
#
#
# Indices 1 2 3 4 5 6 
#
# 1 88.2055 40.0443 37.6403 0.0000 0.0000 0.0000
# 2 40.0443 88.2055 37.6403 0.0000 0.0000 0.0000
# 3 37.6403 37.6403 157.5783 0.0000 0.0000 0.0000
# 4 0.0000 0.0000 0.0000 38.4026 0.0000 0.0000
# 5 0.0000 0.0000 0.0000 0.0000 38.4026 0.0000
# 6 0.0000 0.0000 0.0000 0.0000 0.0000 24.0806
#
#
#
# Elastic Compliance Matrix: (Units=1/GPa)
#
#
# Indices 1 2 3 4 5 6 
#
# 1 0.014916 -0.005847 -0.002166 0.000000 0.000000 0.000000
# 2 -0.005847 0.014916 -0.002166 0.000000 0.000000 0.000000
# 3 -0.002166 -0.002166 0.007381 0.000000 0.000000 0.000000
# 4 0.000000 0.000000 0.000000 0.026040 0.000000 0.000000
# 5 0.000000 0.000000 0.000000 0.000000 0.026040 0.000000
# 6 0.000000 0.000000 0.000000 0.000000 0.000000 0.041527
#
#
# Mechanical properties :
#
#
# Convention : Reuss Voigt Hill
#
# Bulk Modulus (GPa) = 59.33443 62.73767 61.03605
# Shear Modulus (GPa) = 31.88817 34.75481 33.32149
#
# Velocity S-wave (km/s) = 3.88926 4.06031 3.97571
# Velocity P-wave (km/s) = 6.95083 7.19316 7.07303
#
# Compressibility (1/GPa) = 0.01685362
#
# Stress axis : x y z
#
# Youngs Moduli (GPa) = 67.04112 67.04112 135.48407
#
# Poissons Ratio (x) = 0.39202 0.29349
# Poissons Ratio (y) = 0.39202 0.29349
# Poissons Ratio (z) = 0.14523 0.14523
#
# Static dielectric constant tensor:
#      x y z
#    x 1.644880 0.000000 0.000000 
#    y 0.000000 1.644880 0.000000 
#    z 0.000000 0.000000 1.855540 
# 
# From -- ./inp_files/2682.got.cif
#   From: 2010.05.17/outbox.cif.g08.bks.cpg/sg181_2_cif.got.tgz:2682.got - 2010.05.20 11:51:17.
