data_PCOD9584461
_publ_section_title
;
Structure prediction by ZEFSAII (Michael W. Deem and Ramdas Pophale) SiO2 
 PCOD9584461
Probable space group: P 64 2 2
;
_chemical_formula_sum "Si O2"
_cell_formula_units_Z 84
_cell_length_a 17.908501
_cell_length_b 17.908501
_cell_length_c 16.208834
_cell_angle_alpha 90.000000
_cell_angle_beta 90.000000
_cell_angle_gamma 120.000000
_cell_volume 4501.952176
_symmetry_space_group_name_H-M "P 64 2 2"
_symmetry_group_IT_number 181
_symmetry_cell_setting 'hexagonal'
loop_
_space_group_symop_operation_xyz
x,y,z
x-y,x,2/3+z
-y,x-y,1/3+z
-x,-y,z
-x+y,-x,2/3+z
y,-x+y,1/3+z
x-y,-y,-z
-x,-x+y,2/3-z
y,x,1/3-z
-y,-x,1/3-z
-x+y,y,-z
x,x-y,2/3-z
loop_
_atom_site_type_symbol
_atom_site_label
_atom_site_fract_x
_atom_site_fract_y
_atom_site_fract_z
Si Si1 0.094565 0.905436 0.166667
Si Si2 0.785573 0.072617 0.323630
Si Si3 0.000000 0.346741 0.333334
Si Si4 0.599923 0.072899 0.844101
Si Si5 0.226689 0.823554 0.073358
Si Si6 0.102823 0.204132 0.186181
Si Si7 0.400054 0.757699 0.908458
Si Si8 0.348708 0.109582 0.273260
O O1 0.158586 0.917172 0.241588
O O2 0.997498 0.863811 0.199417
O O3 0.757773 0.144404 0.312942
O O4 0.849303 0.102233 0.398946
O O5 0.708087 0.976359 0.327396
O O6 0.965011 0.379072 0.407997
O O7 0.920349 0.262402 0.293099
O O8 0.611399 0.164616 0.872158
O O9 0.676005 0.092482 0.777887
O O10 0.500000 0.000000 0.820162
O O11 0.195274 0.804727 0.166667
O O12 0.303692 0.804806 0.070378
O O13 0.150027 0.150027 0.166667
O O14 0.112770 0.277291 0.120719
O O15 0.380361 0.690181 0.833334
O O16 0.361030 0.722059 0.000000
O O17 0.384864 0.192432 0.333334
#
# Coordination Sequence:
#
# PCOD9584461 Si02
#       8
#     6  12   6  12  12  12  12  12
#     4  10  23  32  56  88 124 162 216 274 330 374
#     4  11  22  38  58  90 128 166 221 263 328 388
#     4  12  21  38  68  98 141 160 214 272 365 412
#     4  12  23  41  68 100 133 168 215 280 357 420
#     4  11  22  35  60  97 132 165 209 265 335 419
#     4  11  22  39  58  84 122 178 220 271 316 382
#     4  11  24  42  64  98 137 169 211 277 351 424
#     4  11  25  44  62  89 131 180 231 271 320 406
#
# _framework density 18.658573000000001
#
# number of rings (size 3 to 8) (size 9 to 14) (size 15 to 20)
#    0.000    0.857    5.000    2.571    6.000    0.571 
#    0.000    1.429    0.000    0.000    0.000    1.000 
#    0.000    0.000    0.000    0.000    0.000    0.000 
#
# Total GULP energy -468058.746959 kJ/mol
# GULP energy per Si atom -5572.127940 kJ/mol
# Density = 1.861611 g / cm^3
# Si number density = 18.658573 Si / 1000 Ang^3
#
#
#
# Elastic Constant Matrix: (Units=GPa)
#
#
# Indices 1 2 3 4 5 6 
#
# 1 86.1376 41.7608 35.2791 0.0000 0.0000 0.0000
# 2 41.7608 86.1376 35.2791 0.0000 0.0000 0.0000
# 3 35.2791 35.2791 68.4981 0.0000 0.0000 0.0000
# 4 0.0000 0.0000 0.0000 -7.8145 0.0000 0.0000
# 5 0.0000 0.0000 0.0000 0.0000 -7.8145 0.0000
# 6 0.0000 0.0000 0.0000 0.0000 0.0000 22.1884
#
#
#
# Elastic Compliance Matrix: (Units=1/GPa)
#
#
# Indices 1 2 3 4 5 6 
#
# 1 0.016728 -0.005806 -0.005625 0.000000 0.000000 0.000000
# 2 -0.005806 0.016728 -0.005625 0.000000 0.000000 0.000000
# 3 -0.005625 -0.005625 0.020393 0.000000 0.000000 0.000000
# 4 0.000000 0.000000 0.000000 -0.127967 0.000000 0.000000
# 5 0.000000 0.000000 0.000000 0.000000 -0.127967 0.000000
# 6 0.000000 0.000000 0.000000 0.000000 0.000000 0.045069
#
#
# Mechanical properties :
#
#
# Convention : Reuss Voigt Hill
#
# Bulk Modulus (GPa) = 50.66778 51.71236 51.19007
# Shear Modulus (GPa) = -42.98357 9.87550 -16.55403
#
# Velocity S-wave (km/s) = -4.80488 2.30309 -2.98183
# Velocity P-wave (km/s) = 1.88901 5.90318 3.95469
#
# Compressibility (1/GPa) = 0.01973641
#
# Stress axis : x y z
#
# Youngs Moduli (GPa) = 59.77952 59.77952 49.03554
#
# Poissons Ratio (x) = 0.34709 0.27584
# Poissons Ratio (y) = 0.34709 0.27584
# Poissons Ratio (z) = 0.33627 0.33627
#
# Static dielectric constant tensor:
#      x y z
#    x 1.878990 0.000000 0.000000 
#    y 0.000000 1.878990 0.000000 
#    z 0.000000 0.000000 1.737420 
# 
# From -- ./inp_files/6529.got.cif
#   From: 2010.05.17/outbox.cif.g08.bks.cpg/sg181_4_cif.got.tgz:6529.got - 2010.05.20 11:51:17.
