data_PCOD9584974
_publ_section_title
;
Structure prediction by ZEFSAII (Michael W. Deem and Ramdas Pophale) SiO2 
 PCOD9584974
Probable space group: P 6 M M
;
_chemical_formula_sum "Si O2"
_cell_formula_units_Z 84
_cell_length_a 18.312540
_cell_length_b 18.312540
_cell_length_c 18.268967
_cell_angle_alpha 90.000000
_cell_angle_beta 90.000000
_cell_angle_gamma 120.000000
_cell_volume 5305.689073
_symmetry_space_group_name_H-M "P 6 M M"
_symmetry_group_IT_number 183
_symmetry_cell_setting 'hexagonal'
loop_
_space_group_symop_operation_xyz
x,y,z
x-y,x,z
-y,x-y,z
-x,-y,z
-x+y,-x,z
y,-x+y,z
-x+y,y,z
x,x-y,z
-y,-x,z
y,x,z
x-y,-y,z
-x,-x+y,z
loop_
_atom_site_type_symbol
_atom_site_label
_atom_site_fract_x
_atom_site_fract_y
_atom_site_fract_z
Si Si1 0.166093 0.497239 0.525610
Si Si2 0.332841 0.494302 0.785035
Si Si3 0.902943 0.257930 0.081052
Si Si4 0.102706 0.468082 0.208338
Si Si5 0.636849 0.096710 0.367808
Si Si6 0.267093 0.363544 0.651958
Si Si7 0.265399 0.362413 0.910868
O O1 0.263369 0.526738 0.541595
O O2 0.148672 0.574336 0.536407
O O3 0.146643 0.467952 0.441327
O O4 0.111833 0.419720 0.579359
O O5 0.259637 0.519274 0.783304
O O6 0.424160 0.575841 0.778029
O O7 0.311058 0.427814 0.719483
O O8 0.320544 0.442514 0.859630
O O9 0.841145 0.158856 0.088131
O O10 0.875437 0.304616 0.139717
O O11 0.000000 0.288097 0.095089
O O12 0.896558 0.281216 0.996996
O O13 0.132249 0.566125 0.198535
O O14 0.129984 0.452637 0.288250
O O15 0.000000 0.418987 0.211810
O O16 0.547373 0.094746 0.362696
O O17 0.613484 0.000000 0.376770
O O18 0.168511 0.337021 0.653329
O O19 0.289817 0.289817 0.655797
O O20 0.167792 0.335583 0.896051
O O21 0.291860 0.291860 0.896536
#
# Coordination Sequence:
#
# PCOD9584974 Si02
#       7
#    12  12  12  12  12  12  12
#     4  10  19  29  42  62  90 123 156 188 221 257
#     4  10  20  33  49  70  97 127 156 184 214 249
#     4   9  17  29  45  64  86 113 146 184 225 269
#     4   8  14  25  41  61  84 110 142 181 223 264
#     4   8  14  25  40  57  79 110 148 187 224 261
#     4  10  21  35  51  71  93 118 148 184 225 265
#     4   9  18  31  46  65  88 115 147 184 227 270
#
# _framework density 15.832062000000001
#
# number of rings (size 3 to 8) (size 9 to 14) (size 15 to 20)
#    0.000    2.857    0.000    2.429    0.000    3.714 
#    0.000    2.857    0.000    0.714    0.000    2.000 
#    0.000    3.429    0.000    0.143    0.000   18.571 
#
# Total GULP energy -467713.518937 kJ/mol
# GULP energy per Si atom -5568.018083 kJ/mol
# Density = 1.579603 g / cm^3
# Si number density = 15.832062 Si / 1000 Ang^3
#
#
#
# Elastic Constant Matrix: (Units=GPa)
#
#
# Indices 1 2 3 4 5 6 
#
# 1 75.7130 53.3228 40.1193 0.0000 0.0000 0.0000
# 2 53.3228 75.7130 40.1193 0.0000 0.0000 0.0000
# 3 40.1193 40.1193 82.4484 0.0000 0.0000 0.0000
# 4 0.0000 0.0000 0.0000 19.4163 0.0000 0.0000
# 5 0.0000 0.0000 0.0000 0.0000 19.4163 0.0000
# 6 0.0000 0.0000 0.0000 0.0000 0.0000 11.1951
#
#
#
# Elastic Compliance Matrix: (Units=1/GPa)
#
#
# Indices 1 2 3 4 5 6 
#
# 1 0.027887 -0.016775 -0.005407 0.000000 0.000000 0.000000
# 2 -0.016775 0.027887 -0.005407 0.000000 0.000000 0.000000
# 3 -0.005407 -0.005407 0.017391 0.000000 0.000000 0.000000
# 4 0.000000 0.000000 0.000000 0.051503 0.000000 0.000000
# 5 0.000000 0.000000 0.000000 0.000000 0.051503 0.000000
# 6 0.000000 0.000000 0.000000 0.000000 0.000000 0.089325
#
#
# Mechanical properties :
#
#
# Convention : Reuss Voigt Hill
#
# Bulk Modulus (GPa) = 55.59671 55.66638 55.63154
# Shear Modulus (GPa) = 15.30592 16.69307 15.99949
#
# Velocity S-wave (km/s) = 3.11266 3.25065 3.18240
# Velocity P-wave (km/s) = 6.93621 7.02324 6.97986
#
# Compressibility (1/GPa) = 0.01798668
#
# Stress axis : x y z
#
# Youngs Moduli (GPa) = 35.85866 35.85866 57.50084
#
# Poissons Ratio (x) = 0.60153 0.31092
# Poissons Ratio (y) = 0.60153 0.31092
# Poissons Ratio (z) = 0.19389 0.19389
#
# Static dielectric constant tensor:
#      x y z
#    x 1.520080 0.000000 0.000000 
#    y 0.000000 1.520080 0.000000 
#    z 0.000000 0.000000 1.562480 
# 
# From -- ./inp_files/2268.got.cif
#   From: 2010.05.17/outbox.cif.g08.bks.cpg/sg183_2_cif.got.tgz:2268.got - 2010.05.20 12:02:58.
