data_PCOD9584824
_publ_section_title
;
Structure prediction by ZEFSAII (Michael W. Deem and Ramdas Pophale) SiO2 
 PCOD9584824
Probable space group: P 63 2 2
;
_chemical_formula_sum "Si O2"
_cell_formula_units_Z 36
_cell_length_a 8.604232
_cell_length_b 8.604232
_cell_length_c 25.369427
_cell_angle_alpha 90.000000
_cell_angle_beta 90.000000
_cell_angle_gamma 120.000000
_cell_volume 1626.542869
_symmetry_space_group_name_H-M "P 63 2 2"
_symmetry_group_IT_number 182
_symmetry_cell_setting 'hexagonal'
loop_
_space_group_symop_operation_xyz
x,y,z
x-y,x,1/2+z
-y,x-y,z
-x,-y,1/2+z
-x+y,-x,z
y,-x+y,1/2+z
x-y,-y,-z
-x,-x+y,-z
y,x,-z
-y,-x,1/2-z
-x+y,y,1/2-z
x,x-y,1/2-z
loop_
_atom_site_type_symbol
_atom_site_label
_atom_site_fract_x
_atom_site_fract_y
_atom_site_fract_z
Si Si1 0.664696 0.958286 0.799076
Si Si2 0.649323 0.669765 0.160852
Si Si3 0.460880 0.319994 0.541792
O O1 0.500404 0.994537 0.807953
O O2 0.658255 0.829128 0.750000
O O3 0.657641 0.828106 0.845430
O O4 0.692132 0.849839 0.192772
O O5 0.584487 0.679539 0.102879
O O6 0.504608 0.161562 0.533476
O O7 0.326489 0.326489 0.500000
#
# Coordination Sequence:
#
# PCOD9584824 Si02
#       3
#    12  12  12
#     4  12  26  46  78 107 152 203 255 316 385 465
#     4  12  25  49  71 113 153 200 256 318 384 457
#     4  10  23  43  73 110 151 199 246 311 378 457
#
# _framework density 22.132833000000002
#
# number of rings (size 3 to 8) (size 9 to 14) (size 15 to 20)
#    0.667    0.000    3.333    4.000    4.667    0.000 
#    0.000    3.333    0.000    0.667    0.000    0.000 
#    0.000    0.000    0.000    0.000    0.000    0.000 
#
# Total GULP energy -200728.511254 kJ/mol
# GULP energy per Si atom -5575.791979 kJ/mol
# Density = 2.208246 g / cm^3
# Si number density = 22.132833 Si / 1000 Ang^3
#
#
#
# Elastic Constant Matrix: (Units=GPa)
#
#
# Indices 1 2 3 4 5 6 
#
# 1 128.6653 35.1392 27.2804 0.0000 0.0000 0.0000
# 2 35.1392 128.6653 27.2804 0.0000 0.0000 0.0000
# 3 27.2804 27.2804 129.7054 0.0000 0.0000 0.0000
# 4 0.0000 0.0000 0.0000 41.9583 0.0000 0.0000
# 5 0.0000 0.0000 0.0000 0.0000 41.9583 0.0000
# 6 0.0000 0.0000 0.0000 0.0000 0.0000 46.7631
#
#
#
# Elastic Compliance Matrix: (Units=1/GPa)
#
#
# Indices 1 2 3 4 5 6 
#
# 1 0.008628 -0.002064 -0.001381 0.000000 0.000000 0.000000
# 2 -0.002064 0.008628 -0.001381 0.000000 0.000000 0.000000
# 3 -0.001381 -0.001381 0.008291 0.000000 0.000000 0.000000
# 4 0.000000 0.000000 0.000000 0.023833 0.000000 0.000000
# 5 0.000000 0.000000 0.000000 0.000000 0.023833 0.000000
# 6 0.000000 0.000000 0.000000 0.000000 0.000000 0.021384
#
#
# Mechanical properties :
#
#
# Convention : Reuss Voigt Hill
#
# Bulk Modulus (GPa) = 62.90444 62.93734 62.92089
# Shear Modulus (GPa) = 45.64222 45.95835 45.80028
#
# Velocity S-wave (km/s) = 4.54607 4.56178 4.55393
# Velocity P-wave (km/s) = 7.48590 7.49963 7.49276
#
# Compressibility (1/GPa) = 0.01589713
#
# Stress axis : x y z
#
# Youngs Moduli (GPa) = 115.89538 115.89538 120.61872
#
# Poissons Ratio (x) = 0.23918 0.16654
# Poissons Ratio (y) = 0.23918 0.16654
# Poissons Ratio (z) = 0.16002 0.16002
#
# Static dielectric constant tensor:
#      x y z
#    x 1.825510 0.000000 0.000000 
#    y 0.000000 1.825510 0.000000 
#    z 0.000000 0.000000 1.845410 
# 
# From -- ./inp_files/5100.got.cif
#   From: 2010.05.17/outbox.cif.g08.bks.cpg/sg182_3_cif.got.tgz:5100.got - 2010.05.20 11:58:53.
