data_PCOD9584913
_publ_section_title
;
Structure prediction by ZEFSAII (Michael W. Deem and Ramdas Pophale) SiO2 
 PCOD9584913
Probable space group: P 6 M M
;
_chemical_formula_sum "Si O2"
_cell_formula_units_Z 96
_cell_length_a 27.393871
_cell_length_b 27.393871
_cell_length_c 10.330110
_cell_angle_alpha 90.000000
_cell_angle_beta 90.000000
_cell_angle_gamma 120.000000
_cell_volume 6713.397932
_symmetry_space_group_name_H-M "P 6 M M"
_symmetry_group_IT_number 183
_symmetry_cell_setting 'hexagonal'
loop_
_space_group_symop_operation_xyz
x,y,z
x-y,x,z
-y,x-y,z
-x,-y,z
-x+y,-x,z
y,-x+y,z
-x+y,y,z
x,x-y,z
-y,-x,z
y,x,z
x-y,-y,z
-x,-x+y,z
loop_
_atom_site_type_symbol
_atom_site_label
_atom_site_fract_x
_atom_site_fract_y
_atom_site_fract_z
Si Si1 0.334906 0.225827 0.758530
Si Si2 0.829725 0.540983 0.659272
Si Si3 0.287858 0.459957 0.088578
Si Si4 0.934906 0.687162 0.312918
Si Si5 0.839633 0.277225 0.375375
Si Si6 0.216917 0.666431 0.869881
Si Si7 0.658427 0.723454 0.029471
Si Si8 0.935186 0.175720 0.540781
O O1 0.337326 0.168663 0.779438
O O2 0.397232 0.272869 0.710871
O O3 0.288962 0.211698 0.646948
O O4 0.320986 0.244613 0.893626
O O5 0.770533 0.541066 0.663479
O O6 0.841801 0.534809 0.509857
O O7 0.819868 0.490648 0.752987
O O8 0.222133 0.444266 0.073917
O O9 0.302241 0.469573 0.240717
O O10 0.293972 0.407062 0.043227
O O11 0.323101 0.514020 0.999927
O O12 0.893503 0.624084 0.360315
O O13 0.926637 0.687419 0.158245
O O14 0.924971 0.729429 0.400742
O O15 0.000000 0.705692 0.334145
O O16 0.785458 0.214543 0.384309
O O17 0.217055 0.608528 0.870496
O O18 0.280356 0.719645 0.857831
O O19 0.673443 0.673443 0.032987
O O20 0.889183 0.110818 0.561473
O O21 0.000000 0.192687 0.549696
#
# Coordination Sequence:
#
# PCOD9584913 Si02
#       8
#    12  12  12  12  12  12  12  12
#     4  10  17  27  43  65  92 120 149 183 225 271
#     4   9  16  27  44  66  88 114 147 181 222 271
#     4   9  17  29  46  66  86 115 151 185 223 267
#     4   9  17  26  39  63  93 120 147 179 221 270
#     4   9  15  26  44  63  86 113 145 182 218 261
#     4  10  19  32  49  69  92 117 149 187 228 269
#     4  10  18  27  41  66  96 122 150 182 220 266
#     4  10  19  30  44  64  92 124 156 190 232 277
#
# _framework density 14.299763
#
# number of rings (size 3 to 8) (size 9 to 14) (size 15 to 20)
#    0.000    2.500    2.500    1.250    0.000    1.500 
#    0.000    0.625    0.000    0.500    0.000    1.750 
#    0.000    1.000    0.000    0.000    0.000   16.250 
#
# Total GULP energy -534446.850738 kJ/mol
# GULP energy per Si atom -5567.154695 kJ/mol
# Density = 1.426722 g / cm^3
# Si number density = 14.299763 Si / 1000 Ang^3
#
#
#
# Elastic Constant Matrix: (Units=GPa)
#
#
# Indices 1 2 3 4 5 6 
#
# 1 69.6926 40.5710 45.6011 0.0000 0.0000 0.0000
# 2 40.5710 69.6926 45.6011 0.0000 0.0000 0.0000
# 3 45.6011 45.6011 116.8162 0.0000 0.0000 0.0000
# 4 0.0000 0.0000 0.0000 13.8797 0.0000 0.0000
# 5 0.0000 0.0000 0.0000 0.0000 13.8797 0.0000
# 6 0.0000 0.0000 0.0000 0.0000 0.0000 14.5608
#
#
#
# Elastic Compliance Matrix: (Units=1/GPa)
#
#
# Indices 1 2 3 4 5 6 
#
# 1 0.023866 -0.010472 -0.005228 0.000000 0.000000 0.000000
# 2 -0.010472 0.023866 -0.005228 0.000000 0.000000 0.000000
# 3 -0.005228 -0.005228 0.012643 0.000000 0.000000 0.000000
# 4 0.000000 0.000000 0.000000 0.072047 0.000000 0.000000
# 5 0.000000 0.000000 0.000000 0.000000 0.072047 0.000000
# 6 0.000000 0.000000 0.000000 0.000000 0.000000 0.068678
#
#
# Mechanical properties :
#
#
# Convention : Reuss Voigt Hill
#
# Bulk Modulus (GPa) = 54.00682 57.74971 55.87826
# Shear Modulus (GPa) = 15.56767 16.75927 16.16347
#
# Velocity S-wave (km/s) = 3.30307 3.42716 3.36569
# Velocity P-wave (km/s) = 7.23856 7.49222 7.36648
#
# Compressibility (1/GPa) = 0.01851618
#
# Stress axis : x y z
#
# Youngs Moduli (GPa) = 41.90011 41.90011 79.09824
#
# Poissons Ratio (x) = 0.43880 0.41356
# Poissons Ratio (y) = 0.43880 0.41356
# Poissons Ratio (z) = 0.21907 0.21907
#
# Static dielectric constant tensor:
#      x y z
#    x 1.451760 0.000000 0.000000 
#    y 0.000000 1.451760 0.000000 
#    z 0.000000 0.000000 1.511290 
# 
# From -- ./inp_files/2074.got.cif
#   From: 2010.05.17/outbox.cif.g08.bks.cpg/sg183_2_cif.got.tgz:2074.got - 2010.05.20 12:02:58.
