data_PCOD9584682
_publ_section_title
;
Structure prediction by ZEFSAII (Michael W. Deem and Ramdas Pophale) SiO2 
 PCOD9584682
Probable space group: P 63 2 2
;
_chemical_formula_sum "Si O2"
_cell_formula_units_Z 66
_cell_length_a 33.330291
_cell_length_b 33.330291
_cell_length_c 5.228145
_cell_angle_alpha 90.000000
_cell_angle_beta 90.000000
_cell_angle_gamma 120.000000
_cell_volume 5029.866594
_symmetry_space_group_name_H-M "P 63 2 2"
_symmetry_group_IT_number 182
_symmetry_cell_setting 'hexagonal'
loop_
_space_group_symop_operation_xyz
x,y,z
x-y,x,1/2+z
-y,x-y,z
-x,-y,1/2+z
-x+y,-x,z
y,-x+y,1/2+z
x-y,-y,-z
-x,-x+y,-z
y,x,-z
-y,-x,1/2-z
-x+y,y,1/2-z
x,x-y,1/2-z
loop_
_atom_site_type_symbol
_atom_site_label
_atom_site_fract_x
_atom_site_fract_y
_atom_site_fract_z
Si Si1 0.893927 0.339586 0.934877
Si Si2 0.198126 0.445194 0.001123
Si Si3 0.161630 0.555719 0.001315
Si Si4 0.515017 0.484984 0.250000
Si Si5 0.302995 0.558254 0.500224
Si Si6 0.613993 0.561033 0.416356
O O1 0.855637 0.285774 0.971337
O O2 0.866229 0.366777 0.993583
O O3 0.914688 0.355614 0.651014
O O4 0.932762 0.356959 0.154532
O O5 0.215313 0.430625 0.250000
O O6 0.215132 0.430264 0.750000
O O7 0.226387 0.501710 0.996997
O O8 0.149011 0.574506 0.250000
O O9 0.152053 0.576027 0.750000
O O10 0.216085 0.572282 0.005645
O O11 0.486579 0.486579 0.500000
O O12 0.567457 0.511630 0.354817
O O13 0.286885 0.573769 0.750000
O O14 0.286578 0.573156 0.250000
O O15 0.594138 0.594138 0.500000
#
# Coordination Sequence:
#
# PCOD9584682 Si02
#       6
#    12  12  12   6  12  12
#     4  11  22  33  49  68  85 110 137 162 196 227
#     4   9  17  31  49  67  83  96 120 155 195 233
#     4  11  22  33  46  66  83  96 119 157 187 213
#     4  10  20  34  46  58  78 118 154 172 194 216
#     4   9  17  31  49  60  72  93 110 131 175 225
#     4  11  22  35  47  62  88 117 146 164 187 221
#
# _framework density 13.12162
#
# number of rings (size 3 to 8) (size 9 to 14) (size 15 to 20)
#    0.000    1.818    0.000    6.000    3.818    5.818 
#    0.000    0.000    0.000    7.273    0.000    0.000 
#    0.000    0.000    0.000    0.000    0.000    0.000 
#
# Total GULP energy -368410.443932 kJ/mol
# GULP energy per Si atom -5581.976423 kJ/mol
# Density = 1.309176 g / cm^3
# Si number density = 13.121620 Si / 1000 Ang^3
#
#
#
# Elastic Constant Matrix: (Units=GPa)
#
#
# Indices 1 2 3 4 5 6 
#
# 1 45.8753 12.2931 21.9641 0.0000 0.0000 0.0000
# 2 12.2931 45.8753 21.9641 0.0000 0.0000 0.0000
# 3 21.9641 21.9641 111.5914 0.0000 0.0000 0.0000
# 4 0.0000 0.0000 0.0000 20.2026 0.0000 0.0000
# 5 0.0000 0.0000 0.0000 0.0000 20.2026 0.0000
# 6 0.0000 0.0000 0.0000 0.0000 0.0000 16.7911
#
#
#
# Elastic Compliance Matrix: (Units=1/GPa)
#
#
# Indices 1 2 3 4 5 6 
#
# 1 0.024985 -0.004792 -0.003975 0.000000 0.000000 0.000000
# 2 -0.004792 0.024985 -0.003975 0.000000 0.000000 0.000000
# 3 -0.003975 -0.003975 0.010526 0.000000 0.000000 0.000000
# 4 0.000000 0.000000 0.000000 0.049499 0.000000 0.000000
# 5 0.000000 0.000000 0.000000 0.000000 0.049499 0.000000
# 6 0.000000 0.000000 0.000000 0.000000 0.000000 0.059555
#
#
# Mechanical properties :
#
#
# Convention : Reuss Voigt Hill
#
# Bulk Modulus (GPa) = 28.56018 35.08716 31.82367
# Shear Modulus (GPa) = 19.51578 21.24731 20.38155
#
# Velocity S-wave (km/s) = 3.86074 4.02837 3.94544
# Velocity P-wave (km/s) = 6.45652 6.95953 6.71274
#
# Compressibility (1/GPa) = 0.03501379
#
# Stress axis : x y z
#
# Youngs Moduli (GPa) = 40.02346 40.02346 95.00429
#
# Poissons Ratio (x) = 0.19181 0.37760
# Poissons Ratio (y) = 0.19181 0.37760
# Poissons Ratio (z) = 0.15907 0.15907
#
# Static dielectric constant tensor:
#      x y z
#    x 1.433080 0.000000 0.000000 
#    y 0.000000 1.433080 0.000000 
#    z 0.000000 0.000000 1.450350 
# 
# From -- ./inp_files/797.got.cif
#   From: 2010.05.17/outbox.cif.g08.bks.cpg/sg182_1_cif.got.tgz:797.got - 2010.05.20 11:58:53.
