data_PCOD9584548
_publ_section_title
;
Structure prediction by ZEFSAII (Michael W. Deem and Ramdas Pophale) SiO2 
 PCOD9584548
Probable space group: P 64 2 2
;
_chemical_formula_sum "Si O2"
_cell_formula_units_Z 69
_cell_length_a 21.008938
_cell_length_b 21.008938
_cell_length_c 9.415148
_cell_angle_alpha 90.000000
_cell_angle_beta 90.000000
_cell_angle_gamma 120.000000
_cell_volume 3598.868530
_symmetry_space_group_name_H-M "P 64 2 2"
_symmetry_group_IT_number 181
_symmetry_cell_setting 'hexagonal'
loop_
_space_group_symop_operation_xyz
x,y,z
x-y,x,2/3+z
-y,x-y,1/3+z
-x,-y,z
-x+y,-x,2/3+z
y,-x+y,1/3+z
x-y,-y,-z
-x,-x+y,2/3-z
y,x,1/3-z
-y,-x,1/3-z
-x+y,y,-z
x,x-y,2/3-z
loop_
_atom_site_type_symbol
_atom_site_label
_atom_site_fract_x
_atom_site_fract_y
_atom_site_fract_z
Si Si1 0.784460 0.454020 0.241971
Si Si2 0.332647 0.079228 0.483833
Si Si3 0.425367 0.626091 0.010363
Si Si4 0.048673 0.618825 0.040881
Si Si5 0.500000 0.500000 0.166667
Si Si6 0.655008 0.000000 0.000000
Si Si7 0.626471 0.754665 0.503643
O O1 0.810483 0.405242 0.333334
O O2 0.709698 0.443613 0.310285
O O3 0.834547 0.540669 0.214334
O O4 0.771670 0.416524 0.088820
O O5 0.382443 0.069823 0.603007
O O6 0.340827 0.158384 0.510469
O O7 0.361074 0.092167 0.320081
O O8 0.257842 0.000000 0.500000
O O9 0.408755 0.591246 0.166667
O O10 0.492321 0.617002 0.952579
O O11 0.022986 0.625143 0.196788
O O12 0.987138 0.547555 0.956385
O O13 0.666084 0.934117 0.047983
#
# Coordination Sequence:
#
# PCOD9584548 Si02
#       7
#    12  12  12  12   3   6  12
#     4  12  25  41  58  89 124 172 224 283 336 385
#     4  11  22  47  71  92 123 175 222 261 328 403
#     4  12  24  40  60  86 118 170 227 280 331 388
#     4  12  24  41  63  89 128 170 221 271 342 390
#     4  12  24  42  64  84 124 170 216 276 334 414
#     4  12  26  43  62 100 132 165 210 270 342 396
#     4  11  25  43  69  95 133 170 216 272 330 389
#
# _framework density 19.172692999999999
#
# number of rings (size 3 to 8) (size 9 to 14) (size 15 to 20)
#    0.000    0.348    5.217    4.174    4.870    1.043 
#    0.000    0.000    0.000    0.000    0.000    0.000 
#    0.000    8.348    0.000    0.000    0.000    0.000 
#
# Total GULP energy -384544.931695 kJ/mol
# GULP energy per Si atom -5573.114952 kJ/mol
# Density = 1.912905 g / cm^3
# Si number density = 19.172693 Si / 1000 Ang^3
#
#
#
# Elastic Constant Matrix: (Units=GPa)
#
#
# Indices 1 2 3 4 5 6 
#
# 1 100.3434 40.0967 45.5907 0.0000 0.0000 0.0000
# 2 40.0967 100.3434 45.5907 0.0000 0.0000 0.0000
# 3 45.5907 45.5907 125.0826 0.0000 0.0000 0.0000
# 4 0.0000 0.0000 0.0000 26.9533 0.0000 0.0000
# 5 0.0000 0.0000 0.0000 0.0000 26.9533 0.0000
# 6 0.0000 0.0000 0.0000 0.0000 0.0000 30.1233
#
#
#
# Elastic Compliance Matrix: (Units=1/GPa)
#
#
# Indices 1 2 3 4 5 6 
#
# 1 0.012963 -0.003635 -0.003400 0.000000 0.000000 0.000000
# 2 -0.003635 0.012963 -0.003400 0.000000 0.000000 0.000000
# 3 -0.003400 -0.003400 0.010473 0.000000 0.000000 0.000000
# 4 0.000000 0.000000 0.000000 0.037101 0.000000 0.000000
# 5 0.000000 0.000000 0.000000 0.000000 0.037101 0.000000
# 6 0.000000 0.000000 0.000000 0.000000 0.000000 0.033197
#
#
# Mechanical properties :
#
#
# Convention : Reuss Voigt Hill
#
# Bulk Modulus (GPa) = 64.39411 65.36951 64.88181
# Shear Modulus (GPa) = 29.43855 29.77204 29.60529
#
# Velocity S-wave (km/s) = 3.92272 3.94488 3.93382
# Velocity P-wave (km/s) = 7.36045 7.41071 7.38562
#
# Compressibility (1/GPa) = 0.01552937
#
# Stress axis : x y z
#
# Youngs Moduli (GPa) = 77.14176 77.14176 95.48255
#
# Poissons Ratio (x) = 0.28043 0.32463
# Poissons Ratio (y) = 0.28043 0.32463
# Poissons Ratio (z) = 0.26227 0.26227
#
# Static dielectric constant tensor:
#      x y z
#    x 1.783810 0.000000 0.000000 
#    y 0.000000 1.783810 0.000000 
#    z 0.000000 0.000000 1.706780 
# 
# From -- ./inp_files/3230.got.cif
#   From: 2010.05.17/outbox.cif.g08.bks.cpg/sg181_2_cif.got.tgz:3230.got - 2010.05.20 11:51:17.
