data_PCOD9584771
_publ_section_title
;
Structure prediction by ZEFSAII (Michael W. Deem and Ramdas Pophale) SiO2 
 PCOD9584771
Probable space group: P 63 2 2
;
_chemical_formula_sum "Si O2"
_cell_formula_units_Z 46
_cell_length_a 17.184684
_cell_length_b 17.184684
_cell_length_c 8.877023
_cell_angle_alpha 90.000000
_cell_angle_beta 90.000000
_cell_angle_gamma 120.000000
_cell_volume 2270.288650
_symmetry_space_group_name_H-M "P 63 2 2"
_symmetry_group_IT_number 182
_symmetry_cell_setting 'hexagonal'
loop_
_space_group_symop_operation_xyz
x,y,z
x-y,x,1/2+z
-y,x-y,z
-x,-y,1/2+z
-x+y,-x,z
y,-x+y,1/2+z
x-y,-y,-z
-x,-x+y,-z
y,x,-z
-y,-x,1/2-z
-x+y,y,1/2-z
x,x-y,1/2-z
loop_
_atom_site_type_symbol
_atom_site_label
_atom_site_fract_x
_atom_site_fract_y
_atom_site_fract_z
Si Si1 0.159391 0.002987 0.330668
Si Si2 0.542932 0.144700 0.574563
Si Si3 0.666667 0.333335 0.069479
Si Si4 0.635909 0.725092 0.280389
Si Si5 0.409674 0.000000 0.000000
O O1 0.195325 0.097663 0.250000
O O2 0.130381 0.000000 0.500000
O O3 0.230519 0.969093 0.326967
O O4 0.070612 0.929389 0.250000
O O5 0.576775 0.153551 0.750000
O O6 0.586459 0.241178 0.497776
O O7 0.436487 0.099873 0.595392
O O8 0.572140 0.083395 0.479493
O O9 0.666668 0.333334 0.250000
O O10 0.618743 0.809372 0.250000
O O11 0.624221 0.661805 0.136372
#
# Coordination Sequence:
#
# PCOD9584771 Si02
#       5
#    12  12   4  12   6
#     4  11  25  44  70 101 138 180 227 282 349 421
#     4  10  21  43  67  94 131 183 230 289 362 424
#     4  12  25  41  67 102 136 182 241 303 358 440
#     4  10  23  41  70  97 136 182 229 285 358 425
#     4  10  22  40  70  98 132 172 232 298 338 432
#
# _framework density 20.261741000000001
#
# number of rings (size 3 to 8) (size 9 to 14) (size 15 to 20)
#    0.000    1.565    0.000    4.957    9.130    3.130 
#    0.000    0.000    0.000    0.000    0.000    0.000 
#    0.000    0.000    0.000    0.000    0.000    0.000 
#
# Total GULP energy -256784.387767 kJ/mol
# GULP energy per Si atom -5582.269299 kJ/mol
# Density = 2.021562 g / cm^3
# Si number density = 20.261741 Si / 1000 Ang^3
#
#
#
# Elastic Constant Matrix: (Units=GPa)
#
#
# Indices 1 2 3 4 5 6 
#
# 1 110.8584 50.7445 60.3538 -0.0002 0.0000 0.0001
# 2 50.7445 110.8596 60.3536 -0.0002 -0.0001 0.0003
# 3 60.3538 60.3536 110.2919 0.0001 -0.0001 0.0000
# 4 -0.0002 -0.0002 0.0001 24.9742 0.0001 0.0000
# 5 0.0000 -0.0001 -0.0001 0.0001 24.9741 0.0000
# 6 0.0001 0.0003 0.0000 0.0000 0.0000 30.0575
#
#
#
# Elastic Compliance Matrix: (Units=1/GPa)
#
#
# Indices 1 2 3 4 5 6 
#
# 1 0.013550 -0.003085 -0.005727 0.000000 0.000000 0.000000
# 2 -0.003085 0.013550 -0.005727 0.000000 0.000000 0.000000
# 3 -0.005727 -0.005727 0.015335 0.000000 0.000000 0.000000
# 4 0.000000 0.000000 0.000000 0.040041 0.000000 0.000000
# 5 0.000000 0.000000 0.000000 0.000000 0.040042 0.000000
# 6 0.000000 0.000000 0.000000 0.000000 0.000000 0.033270
#
#
# Mechanical properties :
#
#
# Convention : Reuss Voigt Hill
#
# Bulk Modulus (GPa) = 74.86134 74.99041 74.92587
# Shear Modulus (GPa) = 26.41064 26.70503 26.55783
#
# Velocity S-wave (km/s) = 3.61428 3.63437 3.62434
# Velocity P-wave (km/s) = 7.37867 7.39613 7.38740
#
# Compressibility (1/GPa) = 0.01335803
#
# Stress axis : x y z
#
# Youngs Moduli (GPa) = 73.79840 73.79972 65.21154
#
# Poissons Ratio (x) = 0.22764 0.37347
# Poissons Ratio (y) = 0.22764 0.37346
# Poissons Ratio (z) = 0.42265 0.42265
#
# Static dielectric constant tensor:
#      x y z
#    x 1.720410 0.000000 0.000000 
#    y 0.000000 1.720410 0.000000 
#    z 0.000000 0.000000 1.707020 
# 
# From -- ./inp_files/1487.got.cif
#   From: 2010.05.17/outbox.cif.g08.bks.cpg/sg182_1_cif.got.tgz:1487.got - 2010.05.20 11:58:53.
