data_PCOD9584380
_publ_section_title
;
Structure prediction by ZEFSAII (Michael W. Deem and Ramdas Pophale) SiO2 
 PCOD9584380
Probable space group: P 64 2 2
;
_chemical_formula_sum "Si O2"
_cell_formula_units_Z 42
_cell_length_a 9.136253
_cell_length_b 9.136253
_cell_length_c 24.115789
_cell_angle_alpha 90.000000
_cell_angle_beta 90.000000
_cell_angle_gamma 120.000000
_cell_volume 1743.284794
_symmetry_space_group_name_H-M "P 64 2 2"
_symmetry_group_IT_number 181
_symmetry_cell_setting 'hexagonal'
loop_
_space_group_symop_operation_xyz
x,y,z
x-y,x,2/3+z
-y,x-y,1/3+z
-x,-y,z
-x+y,-x,2/3+z
y,-x+y,1/3+z
x-y,-y,-z
-x,-x+y,2/3-z
y,x,1/3-z
-y,-x,1/3-z
-x+y,y,-z
x,x-y,2/3-z
loop_
_atom_site_type_symbol
_atom_site_label
_atom_site_fract_x
_atom_site_fract_y
_atom_site_fract_z
Si Si1 0.000000 0.000000 0.087872
Si Si2 0.644769 0.812993 0.643843
Si Si3 0.345396 0.021334 0.247825
Si Si4 0.410749 0.799607 0.437862
O O1 0.826914 0.900395 0.052959
O O2 0.008657 0.834349 0.112607
O O3 0.659546 0.659546 0.666667
O O4 0.495612 0.748338 0.600426
O O5 0.626917 0.914653 0.695459
O O6 0.452874 0.219760 0.257810
O O7 0.500000 0.000000 0.221043
O O8 0.363759 0.727517 0.500000
O O9 0.500000 0.000000 0.442880
#
# Coordination Sequence:
#
# PCOD9584380 Si02
#       4
#     6  12  12  12
#     4  10  21  40  61 100 139 176 241 316 361 440
#     4  10  21  39  69  98 131 179 247 306 358 448
#     4  11  23  40  71 100 135 190 240 309 370 449
#     4  11  24  43  69 100 146 192 230 302 396 459
#
# _framework density 24.092447
#
# number of rings (size 3 to 8) (size 9 to 14) (size 15 to 20)
#    0.000    1.429    2.857    4.714    4.000    0.000 
#    0.000   22.857    0.000    0.000    0.000    0.000 
#    0.000    0.000    0.000    0.000    0.000    0.000 
#
# Total GULP energy -233998.400755 kJ/mol
# GULP energy per Si atom -5571.390494 kJ/mol
# Density = 2.403761 g / cm^3
# Si number density = 24.092447 Si / 1000 Ang^3
#
#
#
# Elastic Constant Matrix: (Units=GPa)
#
#
# Indices 1 2 3 4 5 6 
#
# 1 157.8870 65.1143 54.5542 0.0000 0.0000 0.0000
# 2 65.1143 157.8870 54.5542 0.0000 0.0000 0.0000
# 3 54.5542 54.5542 110.5881 0.0000 0.0000 0.0000
# 4 0.0000 0.0000 0.0000 -85.1573 0.0000 0.0000
# 5 0.0000 0.0000 0.0000 0.0000 -85.1573 0.0000
# 6 0.0000 0.0000 0.0000 0.0000 0.0000 46.3863
#
#
#
# Elastic Compliance Matrix: (Units=1/GPa)
#
#
# Indices 1 2 3 4 5 6 
#
# 1 0.008345 -0.002434 -0.002916 0.000000 0.000000 0.000000
# 2 -0.002434 0.008345 -0.002916 0.000000 0.000000 0.000000
# 3 -0.002916 -0.002916 0.011919 0.000000 0.000000 0.000000
# 4 0.000000 0.000000 0.000000 -0.011743 0.000000 0.000000
# 5 0.000000 0.000000 0.000000 0.000000 -0.011743 0.000000
# 6 0.000000 0.000000 0.000000 0.000000 0.000000 0.021558
#
#
# Mechanical properties :
#
#
# Convention : Reuss Voigt Hill
#
# Bulk Modulus (GPa) = 82.79745 86.08973 84.44359
# Shear Modulus (GPa) = 105.84400 -7.97636 48.93382
#
# Velocity S-wave (km/s) = 6.63535 -1.82151 4.51165
# Velocity P-wave (km/s) = 9.65116 5.60239 7.89087
#
# Compressibility (1/GPa) = 0.01207767
#
# Stress axis : x y z
#
# Youngs Moduli (GPa) = 119.83220 119.83220 83.89617
#
# Poissons Ratio (x) = 0.29168 0.24464
# Poissons Ratio (y) = 0.29168 0.24464
# Poissons Ratio (z) = 0.34942 0.34942
#
# Static dielectric constant tensor:
#      x y z
#    x 2.048840 0.000000 0.000000 
#    y 0.000000 2.048840 0.000000 
#    z 0.000000 0.000000 1.991470 
# 
# From -- ./inp_files/11976.got.cif
#   From: 2010.05.17/outbox.cif.g08.bks.cpg/sg181_6_cif.got.tgz:11976.got - 2010.05.20 11:51:17.
