data_PCOD9584230
_publ_section_title
;
Structure prediction by ZEFSAII (Michael W. Deem and Ramdas Pophale) SiO2 
 PCOD9584230
Probable space group: P 64 2 2
;
_chemical_formula_sum "Si O2"
_cell_formula_units_Z 60
_cell_length_a 17.637880
_cell_length_b 17.637880
_cell_length_c 12.381482
_cell_angle_alpha 90.000000
_cell_angle_beta 90.000000
_cell_angle_gamma 120.000000
_cell_volume 3335.769469
_symmetry_space_group_name_H-M "P 64 2 2"
_symmetry_group_IT_number 181
_symmetry_cell_setting 'hexagonal'
loop_
_space_group_symop_operation_xyz
x,y,z
x-y,x,2/3+z
-y,x-y,1/3+z
-x,-y,z
-x+y,-x,2/3+z
y,-x+y,1/3+z
x-y,-y,-z
-x,-x+y,2/3-z
y,x,1/3-z
-y,-x,1/3-z
-x+y,y,-z
x,x-y,2/3-z
loop_
_atom_site_type_symbol
_atom_site_label
_atom_site_fract_x
_atom_site_fract_y
_atom_site_fract_z
Si Si1 0.458266 0.896228 0.671963
Si Si2 0.527047 0.823799 0.492353
Si Si3 0.879050 0.901024 0.547012
Si Si4 0.776956 0.397054 0.204841
Si Si5 0.169443 0.270183 0.120758
O O1 0.518921 0.871319 0.599862
O O2 0.366708 0.851804 0.605185
O O3 0.440143 0.856583 0.791793
O O4 0.500000 0.000000 0.672411
O O5 0.468956 0.720678 0.513251
O O6 0.626385 0.853457 0.465146
O O7 0.909108 0.909108 0.666667
O O8 0.777157 0.860899 0.529599
O O9 0.924843 0.849686 0.500000
O O10 0.923518 0.000000 0.500000
O O11 0.695508 0.304493 0.166667
O O12 0.792078 0.396039 0.333334
O O13 0.230050 0.230050 0.166667
O O14 0.124067 0.248133 0.000000
#
# Coordination Sequence:
#
# PCOD9584230 Si02
#       5
#    12  12  12  12  12
#     4  11  22  37  63  98 129 163 210 267 323 377
#     4  11  21  38  67  94 127 161 212 265 320 379
#     4  10  18  32  55  81 108 151 207 258 305 364
#     4  12  21  40  68  96 125 170 214 256 308 389
#     4  11  22  37  60  89 121 161 209 269 319 369
#
# _framework density 17.986854999999998
#
# number of rings (size 3 to 8) (size 9 to 14) (size 15 to 20)
#    0.000    1.000    4.000    7.800    0.000    0.400 
#    0.000    0.000   22.000    0.000    0.000    0.000 
#    0.000    0.000    0.000    0.000    0.000    0.000 
#
# Total GULP energy -334235.545854 kJ/mol
# GULP energy per Si atom -5570.592431 kJ/mol
# Density = 1.794592 g / cm^3
# Si number density = 17.986855 Si / 1000 Ang^3
#
#
#
# Elastic Constant Matrix: (Units=GPa)
#
#
# Indices 1 2 3 4 5 6 
#
# 1 58.9367 34.9137 32.2794 0.0000 0.0000 0.0000
# 2 34.9137 58.9367 32.2794 0.0000 0.0000 0.0000
# 3 32.2794 32.2794 156.4090 0.0000 0.0000 0.0000
# 4 0.0000 0.0000 0.0000 23.8636 0.0000 0.0000
# 5 0.0000 0.0000 0.0000 0.0000 23.8636 0.0000
# 6 0.0000 0.0000 0.0000 0.0000 0.0000 12.0115
#
#
#
# Elastic Compliance Matrix: (Units=1/GPa)
#
#
# Indices 1 2 3 4 5 6 
#
# 1 0.027023 -0.014604 -0.002563 0.000000 0.000000 0.000000
# 2 -0.014604 0.027023 -0.002563 0.000000 0.000000 0.000000
# 3 -0.002563 -0.002563 0.007451 0.000000 0.000000 0.000000
# 4 0.000000 0.000000 0.000000 0.041905 0.000000 0.000000
# 5 0.000000 0.000000 0.000000 0.000000 0.041905 0.000000
# 6 0.000000 0.000000 0.000000 0.000000 0.000000 0.083254
#
#
# Mechanical properties :
#
#
# Convention : Reuss Voigt Hill
#
# Bulk Modulus (GPa) = 45.37951 52.58081 48.98016
# Shear Modulus (GPa) = 18.15771 23.60171 20.87971
#
# Velocity S-wave (km/s) = 3.18071 3.62631 3.41079
# Velocity P-wave (km/s) = 6.22682 6.84324 6.54229
#
# Compressibility (1/GPa) = 0.02203638
#
# Stress axis : x y z
#
# Youngs Moduli (GPa) = 37.00618 37.00618 134.20422
#
# Poissons Ratio (x) = 0.54045 0.34395
# Poissons Ratio (y) = 0.54045 0.34395
# Poissons Ratio (z) = 0.09484 0.09484
#
# Static dielectric constant tensor:
#      x y z
#    x 1.627410 0.000000 0.000000 
#    y 0.000000 1.627410 0.000000 
#    z 0.000000 0.000000 1.630760 
# 
# From -- ./inp_files/4863.got.cif
#   From: 2010.05.17/outbox.cif.g08.bks.cpg/sg181_3_cif.got.tgz:4863.got - 2010.05.20 11:51:17.
