data_PCOD9584563
_publ_section_title
;
Structure prediction by ZEFSAII (Michael W. Deem and Ramdas Pophale) SiO2 
 PCOD9584563
Probable space group: P 64 2 2
;
_chemical_formula_sum "Si O2"
_cell_formula_units_Z 42
_cell_length_a 17.016801
_cell_length_b 17.016801
_cell_length_c 7.915710
_cell_angle_alpha 90.000000
_cell_angle_beta 90.000000
_cell_angle_gamma 120.000000
_cell_volume 1985.072381
_symmetry_space_group_name_H-M "P 64 2 2"
_symmetry_group_IT_number 181
_symmetry_cell_setting 'hexagonal'
loop_
_space_group_symop_operation_xyz
x,y,z
x-y,x,2/3+z
-y,x-y,1/3+z
-x,-y,z
-x+y,-x,2/3+z
y,-x+y,1/3+z
x-y,-y,-z
-x,-x+y,2/3-z
y,x,1/3-z
-y,-x,1/3-z
-x+y,y,-z
x,x-y,2/3-z
loop_
_atom_site_type_symbol
_atom_site_label
_atom_site_fract_x
_atom_site_fract_y
_atom_site_fract_z
Si Si1 0.000000 0.341210 0.833334
Si Si2 0.371646 0.595990 0.381752
Si Si3 0.373482 0.443387 0.822945
Si Si4 0.815811 0.223355 0.967564
O O1 0.979421 0.381954 0.666160
O O2 0.088545 0.336706 0.779234
O O3 0.288187 0.576373 0.500000
O O4 0.399683 0.699842 0.333334
O O5 0.450350 0.589536 0.477019
O O6 0.317467 0.505641 0.266991
O O7 0.414931 0.414931 0.666667
O O8 0.268058 0.407073 0.786481
O O9 0.803448 0.196553 0.166667
#
# Coordination Sequence:
#
# PCOD9584563 Si02
#       4
#     6  12  12  12
#     4  12  26  45  74  96 140 193 238 318 384 447
#     4  11  23  43  69  95 138 203 254 312 381 437
#     4  12  26  47  71 102 144 190 256 317 377 458
#     4  11  24  46  67 104 141 190 251 310 378 453
#
# _framework density 21.157917999999999
#
# number of rings (size 3 to 8) (size 9 to 14) (size 15 to 20)
#    0.000    0.571    5.714    2.571    0.000    2.286 
#   10.286    0.000    0.000    0.000    0.000    0.000 
#    0.000   13.714    0.000    0.000    0.000    0.000 
#
# Total GULP energy -234506.491473 kJ/mol
# GULP energy per Si atom -5583.487892 kJ/mol
# Density = 2.110976 g / cm^3
# Si number density = 21.157918 Si / 1000 Ang^3
#
#
#
# Elastic Constant Matrix: (Units=GPa)
#
#
# Indices 1 2 3 4 5 6 
#
# 1 145.0134 53.7276 49.4948 0.0000 0.0000 0.0000
# 2 53.7276 145.0134 49.4948 0.0000 0.0000 0.0000
# 3 49.4948 49.4948 135.2482 0.0000 0.0000 0.0000
# 4 0.0000 0.0000 0.0000 31.0468 0.0000 0.0000
# 5 0.0000 0.0000 0.0000 0.0000 31.0468 0.0000
# 6 0.0000 0.0000 0.0000 0.0000 0.0000 45.6429
#
#
#
# Elastic Compliance Matrix: (Units=1/GPa)
#
#
# Indices 1 2 3 4 5 6 
#
# 1 0.008554 -0.002401 -0.002252 0.000000 0.000000 0.000000
# 2 -0.002401 0.008554 -0.002252 0.000000 0.000000 0.000000
# 3 -0.002252 -0.002252 0.009042 0.000000 0.000000 0.000000
# 4 0.000000 0.000000 0.000000 0.032209 0.000000 0.000000
# 5 0.000000 0.000000 0.000000 0.000000 0.032209 0.000000
# 6 0.000000 0.000000 0.000000 0.000000 0.000000 0.021909
#
#
# Mechanical properties :
#
#
# Convention : Reuss Voigt Hill
#
# Bulk Modulus (GPa) = 81.02940 81.18992 81.10966
# Shear Modulus (GPa) = 38.34346 39.71781 39.03064
#
# Velocity S-wave (km/s) = 4.26167 4.33738 4.29969
# Velocity P-wave (km/s) = 7.91179 7.97122 7.94156
#
# Compressibility (1/GPa) = 0.01234120
#
# Stress axis : x y z
#
# Youngs Moduli (GPa) = 116.90527 116.90527 110.59565
#
# Poissons Ratio (x) = 0.28065 0.24904
# Poissons Ratio (y) = 0.28065 0.24904
# Poissons Ratio (z) = 0.26325 0.26325
#
# Static dielectric constant tensor:
#      x y z
#    x 1.791440 0.000000 0.000000 
#    y 0.000000 1.791440 0.000000 
#    z 0.000000 0.000000 1.947560 
# 
# From -- ./inp_files/2475.got.cif
#   From: 2010.05.17/outbox.cif.g08.bks.cpg/sg181_2_cif.got.tgz:2475.got - 2010.05.20 11:51:17.
