data_PCOD9584977
_publ_section_title
;
Structure prediction by ZEFSAII (Michael W. Deem and Ramdas Pophale) SiO2 
 PCOD9584977
Probable space group: P 6 M M
;
_chemical_formula_sum "Si O2"
_cell_formula_units_Z 60
_cell_length_a 18.385555
_cell_length_b 18.385555
_cell_length_c 13.254038
_cell_angle_alpha 90.000000
_cell_angle_beta 90.000000
_cell_angle_gamma 120.000000
_cell_volume 3880.005416
_symmetry_space_group_name_H-M "P 6 M M"
_symmetry_group_IT_number 183
_symmetry_cell_setting 'hexagonal'
loop_
_space_group_symop_operation_xyz
x,y,z
x-y,x,z
-y,x-y,z
-x,-y,z
-x+y,-x,z
y,-x+y,z
-x+y,y,z
x,x-y,z
-y,-x,z
y,x,z
x-y,-y,z
-x,-x+y,z
loop_
_atom_site_type_symbol
_atom_site_label
_atom_site_fract_x
_atom_site_fract_y
_atom_site_fract_z
Si Si1 0.637024 0.097902 0.640190
Si Si2 0.497365 0.166359 0.423386
Si Si3 0.460878 0.097902 0.860649
Si Si4 0.095592 0.733866 0.250420
Si Si5 0.166359 0.497364 0.077454
O O1 0.550092 0.100183 0.642605
O O2 0.680757 0.145468 0.538421
O O3 0.677904 0.129379 0.750420
O O4 0.609077 0.000000 0.631435
O O5 0.574893 0.149785 0.410704
O O6 0.526851 0.263426 0.402777
O O7 0.421932 0.112695 0.346899
O O8 0.550092 0.100183 0.858234
O O9 0.390923 0.000000 0.869404
O O10 0.464711 0.145467 0.962419
O O11 0.168379 0.831622 0.250419
O O12 0.112693 0.690762 0.153940
O O13 0.000000 0.712674 0.250421
O O14 0.263425 0.526850 0.098064
O O15 0.149785 0.574893 0.090137
#
# Coordination Sequence:
#
# PCOD9584977 Si02
#       5
#    12  12  12  12  12
#     4   8  14  25  40  56  75 105 149 197 237 268
#     4  10  19  29  42  62  90 123 157 190 221 253
#     4   8  14  25  40  56  75 105 149 197 237 268
#     4  10  21  35  51  70  89 111 140 176 219 265
#     4  10  19  29  42  62  90 123 157 190 221 253
#
# _framework density 15.463896
#
# number of rings (size 3 to 8) (size 9 to 14) (size 15 to 20)
#    0.000    2.800    0.000    3.400    0.000    4.000 
#    0.000    2.000    0.000    2.600    0.000    0.000 
#    0.000    0.000    0.000    0.000    0.000    0.000 
#
# Total GULP energy -334050.809858 kJ/mol
# GULP energy per Si atom -5567.513498 kJ/mol
# Density = 1.542870 g / cm^3
# Si number density = 15.463896 Si / 1000 Ang^3
#
#
#
# Elastic Constant Matrix: (Units=GPa)
#
#
# Indices 1 2 3 4 5 6 
#
# 1 59.8589 40.8638 30.9507 0.0000 0.0000 0.0000
# 2 40.8638 59.8589 30.9507 0.0000 0.0000 0.0000
# 3 30.9507 30.9507 100.4615 0.0000 0.0000 0.0000
# 4 0.0000 0.0000 0.0000 14.8752 0.0000 0.0000
# 5 0.0000 0.0000 0.0000 0.0000 14.8752 0.0000
# 6 0.0000 0.0000 0.0000 0.0000 0.0000 9.4976
#
#
#
# Elastic Compliance Matrix: (Units=1/GPa)
#
#
# Indices 1 2 3 4 5 6 
#
# 1 0.032446 -0.020199 -0.003773 0.000000 0.000000 0.000000
# 2 -0.020199 0.032446 -0.003773 0.000000 0.000000 0.000000
# 3 -0.003773 -0.003773 0.012279 0.000000 0.000000 0.000000
# 4 0.000000 0.000000 0.000000 0.067226 0.000000 0.000000
# 5 0.000000 0.000000 0.000000 0.000000 0.067226 0.000000
# 6 0.000000 0.000000 0.000000 0.000000 0.000000 0.105290
#
#
# Mechanical properties :
#
#
# Convention : Reuss Voigt Hill
#
# Bulk Modulus (GPa) = 46.12420 47.30108 46.71264
# Shear Modulus (GPa) = 13.17071 15.67722 14.42396
#
# Velocity S-wave (km/s) = 2.92157 3.18747 3.05741
# Velocity P-wave (km/s) = 6.42437 6.64839 6.53734
#
# Compressibility (1/GPa) = 0.02168059
#
# Stress axis : x y z
#
# Youngs Moduli (GPa) = 30.82034 30.82034 81.44001
#
# Poissons Ratio (x) = 0.62254 0.30729
# Poissons Ratio (y) = 0.62254 0.30729
# Poissons Ratio (z) = 0.11629 0.11629
#
# Static dielectric constant tensor:
#      x y z
#    x 1.500530 0.000000 0.000000 
#    y 0.000000 1.500530 0.000000 
#    z 0.000000 0.000000 1.561680 
# 
# From -- ./inp_files/1606.got.cif
#   From: 2010.05.17/outbox.cif.g08.bks.cpg/sg183_1_cif.got.tgz:1606.got - 2010.05.20 12:02:58.
