data_PCOD9584982
_publ_section_title
;
Structure prediction by ZEFSAII (Michael W. Deem and Ramdas Pophale) SiO2 
 PCOD9584982
Probable space group: P 6 M M
;
_chemical_formula_sum "Si O2"
_cell_formula_units_Z 96
_cell_length_a 21.868598
_cell_length_b 21.868598
_cell_length_c 15.513975
_cell_angle_alpha 90.000000
_cell_angle_beta 90.000000
_cell_angle_gamma 120.000000
_cell_volume 6425.332424
_symmetry_space_group_name_H-M "P 6 M M"
_symmetry_group_IT_number 183
_symmetry_cell_setting 'hexagonal'
loop_
_space_group_symop_operation_xyz
x,y,z
x-y,x,z
-y,x-y,z
-x,-y,z
-x+y,-x,z
y,-x+y,z
-x+y,y,z
x,x-y,z
-y,-x,z
y,x,z
x-y,-y,z
-x,-x+y,z
loop_
_atom_site_type_symbol
_atom_site_label
_atom_site_fract_x
_atom_site_fract_y
_atom_site_fract_z
Si Si1 0.814035 0.480017 0.492490
Si Si2 0.666262 0.185202 0.807891
Si Si3 0.297478 0.079491 0.045718
Si Si4 0.532486 0.610964 0.153037
Si Si5 0.296130 0.448329 0.311728
Si Si6 0.532882 0.917910 0.648628
Si Si7 0.427908 0.082771 0.961109
Si Si8 0.701559 0.781328 0.246866
O O1 0.740550 0.481099 0.503461
O O2 0.800032 0.400016 0.499286
O O3 0.846136 0.512029 0.398746
O O4 0.872836 0.526807 0.563591
O O5 0.599130 0.198260 0.804637
O O6 0.740479 0.259522 0.804940
O O7 0.656924 0.132451 0.729069
O O8 0.659602 0.138969 0.892308
O O9 0.277170 0.138585 0.029555
O O10 0.323303 0.088368 0.145983
O O11 0.234354 0.000000 0.038635
O O12 0.358331 0.088093 0.980908
O O13 0.463986 0.536015 0.161442
O O14 0.599592 0.599592 0.167877
O O15 0.526387 0.657974 0.226139
O O16 0.536184 0.634100 0.054802
O O17 0.229421 0.458841 0.301621
O O18 0.264606 0.364060 0.309515
O O19 0.461118 0.922237 0.649669
O O20 0.596001 0.000000 0.651784
O O21 0.400620 0.000000 0.938617
O O22 0.725197 0.862599 0.259876
O O23 0.761448 0.761448 0.258428
#
# Coordination Sequence:
#
# PCOD9584982 Si02
#       8
#    12  12  12  12  12  12  12  12
#     4  10  20  34  51  71  95 124 157 192 234 285
#     4  11  22  35  51  69  92 122 156 193 235 287
#     4   9  16  27  44  65  89 117 150 187 228 275
#     4  10  19  30  44  63  87 115 150 191 234 275
#     4  10  19  29  44  65  91 122 154 189 226 269
#     4   9  19  35  53  72  91 112 144 189 237 281
#     4  10  19  31  48  69  92 120 155 197 242 282
#     4   9  16  27  43  63  88 117 150 188 230 276
#
# _framework density 14.940861
#
# number of rings (size 3 to 8) (size 9 to 14) (size 15 to 20)
#    0.000    2.250    1.250    2.500    0.000    2.750 
#    0.000    2.500    0.000    0.500    0.000    1.750 
#    0.000    0.000    0.000    0.000    0.000    0.000 
#
# Total GULP energy -534586.219817 kJ/mol
# GULP energy per Si atom -5568.606456 kJ/mol
# Density = 1.490686 g / cm^3
# Si number density = 14.940861 Si / 1000 Ang^3
#
#
#
# Elastic Constant Matrix: (Units=GPa)
#
#
# Indices 1 2 3 4 5 6 
#
# 1 78.4654 53.6044 41.4068 0.0000 0.0000 0.0000
# 2 53.6044 78.4654 41.4068 0.0000 0.0000 0.0000
# 3 41.4068 41.4068 82.2030 0.0000 0.0000 0.0000
# 4 0.0000 0.0000 0.0000 40.9023 0.0000 0.0000
# 5 0.0000 0.0000 0.0000 0.0000 40.9023 0.0000
# 6 0.0000 0.0000 0.0000 0.0000 0.0000 12.4305
#
#
#
# Elastic Compliance Matrix: (Units=1/GPa)
#
#
# Indices 1 2 3 4 5 6 
#
# 1 0.025645 -0.014578 -0.005575 0.000000 0.000000 0.000000
# 2 -0.014578 0.025645 -0.005575 0.000000 0.000000 0.000000
# 3 -0.005575 -0.005575 0.017781 0.000000 0.000000 0.000000
# 4 0.000000 0.000000 0.000000 0.024449 0.000000 0.000000
# 5 0.000000 0.000000 0.000000 0.000000 0.024449 0.000000
# 6 0.000000 0.000000 0.000000 0.000000 0.000000 0.080447
#
#
# Mechanical properties :
#
#
# Convention : Reuss Voigt Hill
#
# Bulk Modulus (GPa) = 56.76398 56.88553 56.82475
# Shear Modulus (GPa) = 19.55080 25.69474 22.62277
#
# Velocity S-wave (km/s) = 3.62131 4.15150 3.89544
# Velocity P-wave (km/s) = 7.45386 7.81898 7.63860
#
# Compressibility (1/GPa) = 0.01761681
#
# Stress axis : x y z
#
# Youngs Moduli (GPa) = 38.99320 38.99320 56.23918
#
# Poissons Ratio (x) = 0.56845 0.31352
# Poissons Ratio (y) = 0.56845 0.31352
# Poissons Ratio (z) = 0.21738 0.21738
#
# Static dielectric constant tensor:
#      x y z
#    x 1.499060 0.000000 0.000000 
#    y 0.000000 1.499060 0.000000 
#    z 0.000000 0.000000 1.505750 
# 
# From -- ./inp_files/2055.got.cif
#   From: 2010.05.17/outbox.cif.g08.bks.cpg/sg183_2_cif.got.tgz:2055.got - 2010.05.20 12:02:58.
