data_PCOD9584018
_publ_section_title
;
Structure prediction by ZEFSAII (Michael W. Deem and Ramdas Pophale) SiO2 
 PCOD9584018
Probable space group: P 62 2 2
;
_chemical_formula_sum "Si O2"
_cell_formula_units_Z 66
_cell_length_a 19.725666
_cell_length_b 19.725666
_cell_length_c 9.182753
_cell_angle_alpha 90.000000
_cell_angle_beta 90.000000
_cell_angle_gamma 120.000000
_cell_volume 3094.331831
_symmetry_space_group_name_H-M "P 62 2 2"
_symmetry_group_IT_number 180
_symmetry_cell_setting 'hexagonal'
loop_
_space_group_symop_operation_xyz
x,y,z
x-y,x,1/3+z
-y,x-y,2/3+z
-x,-y,z
-x+y,-x,1/3+z
y,-x+y,2/3+z
x-y,-y,-z
-x,-x+y,1/3-z
y,x,2/3-z
-y,-x,2/3-z
-x+y,y,-z
x,x-y,1/3-z
loop_
_atom_site_type_symbol
_atom_site_label
_atom_site_fract_x
_atom_site_fract_y
_atom_site_fract_z
Si Si1 0.560487 0.129051 0.665750
Si Si2 0.627581 0.313791 0.666667
Si Si3 0.201541 0.283744 0.097163
Si Si4 0.828498 0.089449 0.695838
Si Si5 0.355090 0.421913 0.223094
Si Si6 0.851757 0.289205 0.848762
O O1 0.550491 0.100982 0.500000
O O2 0.580240 0.219341 0.665078
O O3 0.486839 0.085309 0.771288
O O4 0.632060 0.122220 0.731915
O O5 0.666212 0.332424 0.500000
O O6 0.114657 0.257435 0.765996
O O7 0.160710 0.321419 0.000000
O O8 0.211686 0.216434 0.016828
O O9 0.289962 0.343737 0.144870
O O10 0.885317 0.114684 0.833334
O O11 0.764402 0.117014 0.739577
O O12 0.411892 0.411892 0.333334
O O13 0.303959 0.433122 0.345071
O O14 0.759056 0.240945 0.833334
#
# Coordination Sequence:
#
# PCOD9584018 Si02
#       6
#    12   6  12  12  12  12
#     4  11  28  43  66 104 144 189 244 311 366 432
#     4  10  24  42  66 102 143 190 250 300 371 436
#     4  12  25  43  75 110 145 186 238 307 366 441
#     4  11  22  46  73 107 143 188 243 291 359 447
#     4  12  25  47  71 100 139 195 242 297 372 443
#     4  11  23  42  71  97 139 191 248 293 352 432
#
# _framework density 21.329322000000001
#
# number of rings (size 3 to 8) (size 9 to 14) (size 15 to 20)
#    0.000    0.727    5.455    2.182   11.455    1.455 
#    0.000    1.818    0.000    5.455    0.000    0.000 
#    0.000    0.000    0.000    0.000    0.000    0.000 
#
# Total GULP energy -367740.973217 kJ/mol
# GULP energy per Si atom -5571.832928 kJ/mol
# Density = 2.128078 g / cm^3
# Si number density = 21.329322 Si / 1000 Ang^3
#
#
#
# Elastic Constant Matrix: (Units=GPa)
#
#
# Indices 1 2 3 4 5 6 
#
# 1 80.2901 53.5753 27.8827 0.0000 0.0000 0.0000
# 2 53.5753 80.2901 27.8827 0.0000 0.0000 0.0000
# 3 27.8827 27.8827 102.4450 0.0000 0.0000 0.0000
# 4 0.0000 0.0000 0.0000 456.5205 0.0000 0.0000
# 5 0.0000 0.0000 0.0000 0.0000 456.5205 0.0000
# 6 0.0000 0.0000 0.0000 0.0000 0.0000 13.3574
#
#
#
# Elastic Compliance Matrix: (Units=1/GPa)
#
#
# Indices 1 2 3 4 5 6 
#
# 1 0.022929 -0.014504 -0.002293 0.000000 0.000000 0.000000
# 2 -0.014504 0.022929 -0.002293 0.000000 0.000000 0.000000
# 3 -0.002293 -0.002293 0.011010 0.000000 0.000000 0.000000
# 4 0.000000 0.000000 0.000000 0.002190 0.000000 0.000000
# 5 0.000000 0.000000 0.000000 0.000000 0.002190 0.000000
# 6 0.000000 0.000000 0.000000 0.000000 0.000000 0.074865
#
#
# Mechanical properties :
#
#
# Convention : Reuss Voigt Hill
#
# Bulk Modulus (GPa) = 53.51074 53.52298 53.51686
# Shear Modulus (GPa) = 27.69737 195.52529 111.61133
#
# Velocity S-wave (km/s) = 3.60746 9.58482 7.24163
# Velocity P-wave (km/s) = 6.51875 12.15071 9.75022
#
# Compressibility (1/GPa) = 0.01868784
#
# Stress axis : x y z
#
# Youngs Moduli (GPa) = 43.61292 43.61292 90.82966
#
# Poissons Ratio (x) = 0.63254 0.20829
# Poissons Ratio (y) = 0.63254 0.20829
# Poissons Ratio (z) = 0.10001 0.10001
#
# Static dielectric constant tensor:
#      x y z
#    x -2.389310 0.000000 0.000000 
#    y 0.000000 -2.389310 0.000000 
#    z 0.000000 0.000000 1.782870 
# 
# From -- ./inp_files/3211.got.cif
#   From: 2010.05.17/outbox.cif.g08.bks.cpg/sg180_2_cif.got.tgz:3211.got - 2010.05.20 11:43:55.
