data_PCOD9584810
_publ_section_title
;
Structure prediction by ZEFSAII (Michael W. Deem and Ramdas Pophale) SiO2 
 PCOD9584810
Probable space group: P 63 2 2
;
_chemical_formula_sum "Si O2"
_cell_formula_units_Z 32
_cell_length_a 11.292196
_cell_length_b 11.292196
_cell_length_c 14.623542
_cell_angle_alpha 90.000000
_cell_angle_beta 90.000000
_cell_angle_gamma 120.000000
_cell_volume 1614.879137
_symmetry_space_group_name_H-M "P 63 2 2"
_symmetry_group_IT_number 182
_symmetry_cell_setting 'hexagonal'
loop_
_space_group_symop_operation_xyz
x,y,z
x-y,x,1/2+z
-y,x-y,z
-x,-y,1/2+z
-x+y,-x,z
y,-x+y,1/2+z
x-y,-y,-z
-x,-x+y,-z
y,x,-z
-y,-x,1/2-z
-x+y,y,1/2-z
x,x-y,1/2-z
loop_
_atom_site_type_symbol
_atom_site_label
_atom_site_fract_x
_atom_site_fract_y
_atom_site_fract_z
Si Si1 0.333333 0.666666 0.381128
Si Si2 0.666667 0.333335 0.401051
Si Si3 0.260793 0.896296 0.833566
Si Si4 0.843741 0.000000 0.500000
Si Si5 0.550124 0.449877 0.750000
O O1 0.333334 0.666667 0.488826
O O2 0.194910 0.551578 0.333275
O O3 0.511037 0.279235 0.366919
O O4 0.154894 0.845107 0.750000
O O5 0.403329 0.006918 0.791496
O O6 0.223247 0.967732 0.914079
O O7 0.000000 0.127299 0.500000
#
# Coordination Sequence:
#
# PCOD9584810 Si02
#       5
#     4   4  12   6   6
#     4  10  25  40  67  94 143 172 238 283 361 442
#     4  12  23  44  69 112 131 184 237 317 365 417
#     4  12  23  44  75  98 143 181 237 302 355 428
#     4  10  28  50  64 108 142 196 240 276 364 444
#     4  10  22  44  64 106 126 186 234 290 364 416
#
# _framework density 19.815722999999998
#
# number of rings (size 3 to 8) (size 9 to 14) (size 15 to 20)
#    0.375    0.750    3.750    2.250    0.000   10.500 
#    3.375    0.000    0.000    0.000    0.000    0.000 
#    0.000    0.000    0.000    0.000    0.000    0.000 
#
# Total GULP energy -178565.683822 kJ/mol
# GULP energy per Si atom -5580.177619 kJ/mol
# Density = 1.977062 g / cm^3
# Si number density = 19.815723 Si / 1000 Ang^3
#
#
#
# Elastic Constant Matrix: (Units=GPa)
#
#
# Indices 1 2 3 4 5 6 
#
# 1 70.7238 83.7194 74.7684 0.0004 -0.0001 0.0000
# 2 83.7194 70.7245 74.7686 0.0002 -0.0002 0.0004
# 3 74.7684 74.7686 198.8071 -0.0003 -0.0005 -0.0001
# 4 0.0004 0.0002 -0.0003 17.0515 0.0000 0.0000
# 5 -0.0001 -0.0002 -0.0005 0.0000 17.0522 -0.0001
# 6 0.0000 0.0004 -0.0001 0.0000 -0.0001 -6.4977
#
#
#
# Elastic Compliance Matrix: (Units=1/GPa)
#
#
# Indices 1 2 3 4 5 6 
#
# 1 -0.033384 0.043567 -0.003830 0.000000 0.000000 0.000003
# 2 0.043567 -0.033384 -0.003830 -0.000001 0.000000 -0.000002
# 3 -0.003830 -0.003830 0.007911 0.000000 0.000000 0.000000
# 4 0.000000 -0.000001 0.000000 0.058646 0.000000 0.000000
# 5 0.000000 0.000000 0.000000 0.000000 0.058643 -0.000001
# 6 0.000003 -0.000002 0.000000 0.000000 -0.000001 -0.153901
#
#
# Mechanical properties :
#
#
# Convention : Reuss Voigt Hill
#
# Bulk Modulus (GPa) = 77.17421 89.64090 83.40756
# Shear Modulus (GPa) = -30.68122 12.65448 -9.01337
#
# Velocity S-wave (km/s) = -3.93915 2.52981 -2.13506
# Velocity P-wave (km/s) = 4.28268 7.33953 6.00875
#
# Compressibility (1/GPa) = 0.01295770
#
# Stress axis : x y z
#
# Youngs Moduli (GPa) = -29.95406 -29.95450 126.41396
#
# Poissons Ratio (x) = 1.30503 0.48411
# Poissons Ratio (y) = 1.30501 0.48412
# Poissons Ratio (z) = -0.11471 -0.11472
#
# Static dielectric constant tensor:
#      x y z
#    x 1.801030 0.000000 0.000000 
#    y 0.000000 1.801020 0.000010 
#    z 0.000000 0.000010 1.848450 
# 
# From -- ./inp_files/3911.got.cif
#   From: 2010.05.17/outbox.cif.g08.bks.cpg/sg182_2_cif.got.tgz:3911.got - 2010.05.20 11:58:53.
