data_PCOD9584655
_publ_section_title
;
Structure prediction by ZEFSAII (Michael W. Deem and Ramdas Pophale) SiO2 
 PCOD9584655
Probable space group: P 63 2 2
;
_chemical_formula_sum "Si O2"
_cell_formula_units_Z 74
_cell_length_a 14.993686
_cell_length_b 14.993686
_cell_length_c 20.342348
_cell_angle_alpha 90.000000
_cell_angle_beta 90.000000
_cell_angle_gamma 120.000000
_cell_volume 3960.486474
_symmetry_space_group_name_H-M "P 63 2 2"
_symmetry_group_IT_number 182
_symmetry_cell_setting 'hexagonal'
loop_
_space_group_symop_operation_xyz
x,y,z
x-y,x,1/2+z
-y,x-y,z
-x,-y,1/2+z
-x+y,-x,z
y,-x+y,1/2+z
x-y,-y,-z
-x,-x+y,-z
y,x,-z
-y,-x,1/2-z
-x+y,y,1/2-z
x,x-y,1/2-z
loop_
_atom_site_type_symbol
_atom_site_label
_atom_site_fract_x
_atom_site_fract_y
_atom_site_fract_z
Si Si1 0.494399 0.117008 0.383176
Si Si2 0.666668 0.333334 0.169756
Si Si3 0.277684 0.000000 0.000000
Si Si4 0.448298 0.252860 0.856777
Si Si5 0.879994 0.646336 0.000175
Si Si6 0.333333 0.666667 0.328911
Si Si7 0.601388 0.988607 0.234486
Si Si8 0.383081 0.409029 0.372167
O O1 0.596716 0.218984 0.359883
O O2 0.440088 0.139320 0.444490
O O3 0.420693 0.076171 0.319975
O O4 0.518731 0.022502 0.391812
O O5 0.666668 0.333334 0.250000
O O6 0.176452 0.889323 0.990566
O O7 0.342967 0.010352 0.935808
O O8 0.568106 0.335342 0.854865
O O9 0.401813 0.290659 0.798481
O O10 0.444974 0.143768 0.850186
O O11 0.403575 0.253250 0.927803
O O12 0.000000 0.722031 0.000000
O O13 0.333334 0.666667 0.250000
O O14 0.483788 0.967575 0.250000
O O15 0.651566 0.028997 0.305507
#
# Coordination Sequence:
#
# PCOD9584655 Si02
#       8
#    12   4   6  12  12   4  12  12
#     4  11  23  38  60  90 127 170 214 256 314 375
#     4  12  24  40  59  88 132 183 223 257 304 385
#     4  10  24  42  60  88 110 156 204 256 326 372
#     4  11  22  35  58  88 125 168 210 252 322 370
#     4  11  24  43  65  85 121 157 207 272 326 389
#     4  12  21  31  50  91 129 165 208 245 292 376
#     4  10  19  35  57  87 123 170 209 256 310 372
#     4  10  21  36  58  86 122 159 204 258 300 381
#
# _framework density 18.684571999999999
#
# number of rings (size 3 to 8) (size 9 to 14) (size 15 to 20)
#    0.000    1.297    1.622    6.324    1.135    2.595 
#    0.486    0.000    0.000    0.000    0.000    0.000 
#    0.000    2.595    0.000    0.000    0.000    0.000 
#
# Total GULP energy -412007.722294 kJ/mol
# GULP energy per Si atom -5567.671923 kJ/mol
# Density = 1.864205 g / cm^3
# Si number density = 18.684572 Si / 1000 Ang^3
#
#
#
# Elastic Constant Matrix: (Units=GPa)
#
#
# Indices 1 2 3 4 5 6 
#
# 1 134.2256 -27.4965 35.6339 0.0014 0.0012 -0.0408
# 2 -27.4965 134.2246 35.6323 -0.0013 -0.0012 0.0356
# 3 35.6339 35.6323 117.6776 0.0000 0.0001 -0.0001
# 4 0.0014 -0.0013 0.0000 20.4415 0.0001 0.0012
# 5 0.0012 -0.0012 0.0001 0.0001 20.4415 -0.0013
# 6 -0.0408 0.0356 -0.0001 0.0012 -0.0013 80.9578
#
#
#
# Elastic Compliance Matrix: (Units=1/GPa)
#
#
# Indices 1 2 3 4 5 6 
#
# 1 0.008964 0.002780 -0.003556 0.000000 0.000000 0.000003
# 2 0.002780 0.008964 -0.003556 0.000000 0.000000 -0.000003
# 3 -0.003556 -0.003556 0.010651 0.000000 0.000000 0.000000
# 4 0.000000 0.000000 0.000000 0.048920 0.000000 -0.000001
# 5 0.000000 0.000000 0.000000 0.000000 0.048920 0.000001
# 6 0.000003 -0.000003 0.000000 -0.000001 0.000001 0.012352
#
#
# Mechanical properties :
#
#
# Convention : Reuss Voigt Hill
#
# Bulk Modulus (GPa) = 50.21328 52.62969 51.42148
# Shear Modulus (GPa) = 32.45205 47.19204 39.82204
#
# Velocity S-wave (km/s) = 4.17206 5.03111 4.62159
# Velocity P-wave (km/s) = 7.08100 7.87261 7.48728
#
# Compressibility (1/GPa) = 0.01991505
#
# Stress axis : x y z
#
# Youngs Moduli (GPa) = 111.55995 111.55986 93.88423
#
# Poissons Ratio (x) = -0.31017 0.33387
# Poissons Ratio (y) = -0.31017 0.33386
# Poissons Ratio (z) = 0.39673 0.39672
#
# Static dielectric constant tensor:
#      x y z
#    x 1.704400 0.000000 0.000000 
#    y 0.000000 1.704400 0.000000 
#    z 0.000000 0.000000 1.675640 
# 
# From -- ./inp_files/4967.got.cif
#   From: 2010.05.17/outbox.cif.g08.bks.cpg/sg182_3_cif.got.tgz:4967.got - 2010.05.20 11:58:53.
