data_PCOD9584565
_publ_section_title
;
Structure prediction by ZEFSAII (Michael W. Deem and Ramdas Pophale) SiO2 
 PCOD9584565
Probable space group: P 64 2 2
;
_chemical_formula_sum "Si O2"
_cell_formula_units_Z 51
_cell_length_a 18.172907
_cell_length_b 18.172907
_cell_length_c 8.722380
_cell_angle_alpha 90.000000
_cell_angle_beta 90.000000
_cell_angle_gamma 120.000000
_cell_volume 2494.677690
_symmetry_space_group_name_H-M "P 64 2 2"
_symmetry_group_IT_number 181
_symmetry_cell_setting 'hexagonal'
loop_
_space_group_symop_operation_xyz
x,y,z
x-y,x,2/3+z
-y,x-y,1/3+z
-x,-y,z
-x+y,-x,2/3+z
y,-x+y,1/3+z
x-y,-y,-z
-x,-x+y,2/3-z
y,x,1/3-z
-y,-x,1/3-z
-x+y,y,-z
x,x-y,2/3-z
loop_
_atom_site_type_symbol
_atom_site_label
_atom_site_fract_x
_atom_site_fract_y
_atom_site_fract_z
Si Si1 0.000000 0.500000 0.333334
Si Si2 0.243437 0.793580 0.432626
Si Si3 0.356731 0.643270 0.166667
Si Si4 0.148243 0.851758 0.666667
Si Si5 0.102961 0.677560 0.206354
Si Si6 0.972052 0.768515 0.494148
O O1 0.945105 0.421475 0.224988
O O2 0.306398 0.766038 0.509844
O O3 0.207655 0.843718 0.534425
O O4 0.159803 0.714714 0.359001
O O5 0.292752 0.843901 0.281612
O O6 0.328302 0.664151 0.333334
O O7 0.050752 0.815833 0.611660
O O8 0.041497 0.716297 0.189660
O O9 0.877188 0.754376 0.500000
O O10 0.000000 0.816041 0.333334
#
# Coordination Sequence:
#
# PCOD9584565 Si02
#       6
#     3  12   6   6  12  12
#     4  12  24  36  74 106 132 186 238 294 364 430
#     4  11  24  44  69 100 146 192 244 296 368 442
#     4  12  26  42  70 111 154 204 256 312 365 432
#     4  12  24  46  78 102 138 194 240 304 378 450
#     4  11  23  45  67  99 146 190 235 297 368 444
#     4  12  24  47  73 105 139 186 238 297 377 456
#
# _framework density 20.443522000000002
#
# number of rings (size 3 to 8) (size 9 to 14) (size 15 to 20)
#    0.000    0.471    7.059    1.412    4.941    5.647 
#    0.000    1.765    0.000    1.412    0.000    0.000 
#    0.000    0.000    0.000    0.000    0.000    0.000 
#
# Total GULP energy -284220.026939 kJ/mol
# GULP energy per Si atom -5572.941705 kJ/mol
# Density = 2.039699 g / cm^3
# Si number density = 20.443522 Si / 1000 Ang^3
#
#
#
# Elastic Constant Matrix: (Units=GPa)
#
#
# Indices 1 2 3 4 5 6 
#
# 1 130.3855 59.2161 36.3986 0.0000 0.0000 0.0000
# 2 59.2161 130.3855 36.3986 0.0000 0.0000 0.0000
# 3 36.3986 36.3986 88.7545 0.0000 0.0000 0.0000
# 4 0.0000 0.0000 0.0000 29.6098 0.0000 0.0000
# 5 0.0000 0.0000 0.0000 0.0000 29.6098 0.0000
# 6 0.0000 0.0000 0.0000 0.0000 0.0000 35.5847
#
#
#
# Elastic Compliance Matrix: (Units=1/GPa)
#
#
# Indices 1 2 3 4 5 6 
#
# 1 0.010155 -0.003896 -0.002567 0.000000 0.000000 0.000000
# 2 -0.003896 0.010155 -0.002567 0.000000 0.000000 0.000000
# 3 -0.002567 -0.002567 0.013373 0.000000 0.000000 0.000000
# 4 0.000000 0.000000 0.000000 0.033773 0.000000 0.000000
# 5 0.000000 0.000000 0.000000 0.000000 0.033773 0.000000
# 6 0.000000 0.000000 0.000000 0.000000 0.000000 0.028102
#
#
# Mechanical properties :
#
#
# Convention : Reuss Voigt Hill
#
# Bulk Modulus (GPa) = 64.00560 68.17244 66.08902
# Shear Modulus (GPa) = 32.76571 33.46167 33.11369
#
# Velocity S-wave (km/s) = 4.00777 4.05011 4.02900
# Velocity P-wave (km/s) = 7.26586 7.43575 7.35129
#
# Compressibility (1/GPa) = 0.01562363
#
# Stress axis : x y z
#
# Youngs Moduli (GPa) = 98.46936 98.46936 74.77933
#
# Poissons Ratio (x) = 0.38359 0.19197
# Poissons Ratio (y) = 0.38359 0.19197
# Poissons Ratio (z) = 0.25279 0.25279
#
# Static dielectric constant tensor:
#      x y z
#    x 1.848870 0.000000 0.000000 
#    y 0.000000 1.848870 0.000000 
#    z 0.000000 0.000000 1.793200 
# 
# From -- ./inp_files/2813.got.cif
#   From: 2010.05.17/outbox.cif.g08.bks.cpg/sg181_2_cif.got.tgz:2813.got - 2010.05.20 11:51:17.
