data_PCOD9584297
_publ_section_title
;
Structure prediction by ZEFSAII (Michael W. Deem and Ramdas Pophale) SiO2 
 PCOD9584297
Probable space group: P 64 2 2
;
_chemical_formula_sum "Si O2"
_cell_formula_units_Z 54
_cell_length_a 24.714485
_cell_length_b 24.714485
_cell_length_c 5.629646
_cell_angle_alpha 90.000000
_cell_angle_beta 90.000000
_cell_angle_gamma 120.000000
_cell_volume 2977.932493
_symmetry_space_group_name_H-M "P 64 2 2"
_symmetry_group_IT_number 181
_symmetry_cell_setting 'hexagonal'
loop_
_space_group_symop_operation_xyz
x,y,z
x-y,x,2/3+z
-y,x-y,1/3+z
-x,-y,z
-x+y,-x,2/3+z
y,-x+y,1/3+z
x-y,-y,-z
-x,-x+y,2/3-z
y,x,1/3-z
-y,-x,1/3-z
-x+y,y,-z
x,x-y,2/3-z
loop_
_atom_site_type_symbol
_atom_site_label
_atom_site_fract_x
_atom_site_fract_y
_atom_site_fract_z
Si Si1 0.786420 0.844646 0.998662
Si Si2 0.515291 0.442382 0.418669
Si Si3 0.275916 0.275916 0.666667
Si Si4 0.150342 0.798358 0.909994
Si Si5 0.673916 0.062092 0.644636
O O1 0.813853 0.906927 0.833334
O O2 0.750771 0.781577 0.845657
O O3 0.833886 0.833886 0.166667
O O4 0.723828 0.838078 0.114674
O O5 0.500000 0.500000 0.419441
O O6 0.550060 0.449941 0.666667
O O7 0.454729 0.373771 0.418106
O O8 0.549387 0.450614 0.166667
O O9 0.337072 0.290331 0.517949
O O10 0.188799 0.811202 0.666667
O O11 0.104116 0.724778 0.884112
O O12 0.183275 0.816726 0.166667
O O13 0.629919 0.000000 0.500000
#
# Coordination Sequence:
#
# PCOD9584297 Si02
#       5
#    12  12   6  12  12
#     4  11  23  35  53  76 107 143 180 237 283 346
#     4  10  20  33  47  75 107 139 190 245 264 320
#     4  12  20  36  53  78 108 147 190 218 290 342
#     4  11  23  37  53  78 109 147 192 233 278 341
#     4  12  21  33  54  76 109 155 196 233 288 343
#
# _framework density 18.133386000000002
#
# number of rings (size 3 to 8) (size 9 to 14) (size 15 to 20)
#    0.000    0.889    6.667    4.000    0.000    0.000 
#    0.000    0.000    0.000    0.000    0.000    0.000 
#    0.000    4.444    0.444    4.000    0.000   10.889 
#
# Total GULP energy -300723.052155 kJ/mol
# GULP energy per Si atom -5568.945410 kJ/mol
# Density = 1.809211 g / cm^3
# Si number density = 18.133386 Si / 1000 Ang^3
#
#
#
# Elastic Constant Matrix: (Units=GPa)
#
#
# Indices 1 2 3 4 5 6 
#
# 1 -83.4539 185.2852 54.1399 0.0000 0.0000 0.0000
# 2 185.2852 -83.4539 54.1399 0.0000 0.0000 0.0000
# 3 54.1399 54.1399 168.7399 0.0000 0.0000 0.0000
# 4 0.0000 0.0000 0.0000 7.4411 0.0000 0.0000
# 5 0.0000 0.0000 0.0000 0.0000 7.4411 0.0000
# 6 0.0000 0.0000 0.0000 0.0000 0.0000 -134.3695
#
#
#
# Elastic Compliance Matrix: (Units=1/GPa)
#
#
# Indices 1 2 3 4 5 6 
#
# 1 0.005592 0.009313 -0.004782 0.000000 0.000000 0.000000
# 2 0.009313 0.005592 -0.004782 0.000000 0.000000 0.000000
# 3 -0.004782 -0.004782 0.008995 0.000000 0.000000 0.000000
# 4 0.000000 0.000000 0.000000 0.134389 0.000000 0.000000
# 5 0.000000 0.000000 0.000000 0.000000 0.134389 0.000000
# 6 0.000000 0.000000 0.000000 0.000000 0.000000 -0.007442
#
#
# Mechanical properties :
#
#
# Convention : Reuss Voigt Hill
#
# Bulk Modulus (GPa) = 50.82227 65.44024 58.13126
# Shear Modulus (GPa) = 17.32637 -43.34634 -13.00999
#
# Velocity S-wave (km/s) = 3.09446 -4.89449 -2.68145
# Velocity P-wave (km/s) = 6.39182 2.05553 4.74766
#
# Compressibility (1/GPa) = 0.01967641
#
# Stress axis : x y z
#
# Youngs Moduli (GPa) = 178.82187 178.82187 111.17145
#
# Poissons Ratio (x) = -1.66541 0.53166
# Poissons Ratio (y) = -1.66541 0.53166
# Poissons Ratio (z) = 0.85519 0.85519
#
# Static dielectric constant tensor:
#      x y z
#    x 1.694210 0.000000 0.000000 
#    y 0.000000 1.694210 0.000000 
#    z 0.000000 0.000000 1.711920 
# 
# From -- ./inp_files/1200.got.cif
#   From: 2010.05.17/outbox.cif.g08.bks.cpg/sg181_1_cif.got.tgz:1200.got - 2010.05.20 11:51:17.
