data_PCOD9584105
_publ_section_title
;
Structure prediction by ZEFSAII (Michael W. Deem and Ramdas Pophale) SiO2 
 PCOD9584105
Probable space group: P 62 2 2
;
_chemical_formula_sum "Si O2"
_cell_formula_units_Z 72
_cell_length_a 15.129076
_cell_length_b 15.129076
_cell_length_c 17.571276
_cell_angle_alpha 90.000000
_cell_angle_beta 90.000000
_cell_angle_gamma 120.000000
_cell_volume 3483.042239
_symmetry_space_group_name_H-M "P 62 2 2"
_symmetry_group_IT_number 180
_symmetry_cell_setting 'hexagonal'
loop_
_space_group_symop_operation_xyz
x,y,z
x-y,x,1/3+z
-y,x-y,2/3+z
-x,-y,z
-x+y,-x,1/3+z
y,-x+y,2/3+z
x-y,-y,-z
-x,-x+y,1/3-z
y,x,2/3-z
-y,-x,2/3-z
-x+y,y,-z
x,x-y,1/3-z
loop_
_atom_site_type_symbol
_atom_site_label
_atom_site_fract_x
_atom_site_fract_y
_atom_site_fract_z
Si Si1 0.867632 0.240197 0.551834
Si Si2 0.394129 0.096765 0.343764
Si Si3 0.238121 0.878416 0.402220
Si Si4 0.621863 0.909787 0.166484
Si Si5 0.594423 0.383242 0.746973
Si Si6 0.401322 0.800460 0.087400
O O1 0.817126 0.181587 0.630367
O O2 0.819477 0.159838 0.482552
O O3 0.831748 0.324148 0.541694
O O4 0.988430 0.304561 0.545569
O O5 0.383350 0.067201 0.255476
O O6 0.513421 0.151498 0.365421
O O7 0.321803 0.996641 0.392586
O O8 0.157368 0.842633 0.333334
O O9 0.301664 0.820056 0.391793
O O10 0.663239 0.831620 0.166667
O O11 0.508405 0.849928 0.130111
O O12 0.587077 0.412924 0.833334
O O13 0.676972 0.344484 0.748865
O O14 0.418832 0.837664 0.000000
#
# Coordination Sequence:
#
# PCOD9584105 Si02
#       6
#    12  12  12  12  12  12
#     4  11  25  43  63  98 128 176 219 280 337 391
#     4  11  25  42  66  98 129 178 224 278 335 408
#     4  12  23  40  66  93 136 172 219 273 342 403
#     4  12  26  43  68  94 131 175 228 277 334 403
#     4  11  22  37  62  95 135 176 217 267 328 392
#     4  11  24  43  63  94 138 181 224 265 327 395
#
# _framework density 20.671582999999998
#
# number of rings (size 3 to 8) (size 9 to 14) (size 15 to 20)
#    0.000    0.667    5.000    4.500    2.333    5.333 
#    0.000    0.000    0.000    2.000    0.000    0.000 
#    0.000    0.000    0.000    0.000    0.000    0.000 
#
# Total GULP energy -402541.028397 kJ/mol
# GULP energy per Si atom -5590.847617 kJ/mol
# Density = 2.062453 g / cm^3
# Si number density = 20.671583 Si / 1000 Ang^3
#
#
#
# Elastic Constant Matrix: (Units=GPa)
#
#
# Indices 1 2 3 4 5 6 
#
# 1 82.3123 44.2187 1.0055 0.0000 0.0000 0.0000
# 2 44.2187 82.3123 1.0055 0.0000 0.0000 0.0000
# 3 1.0055 1.0055 68.5746 0.0000 0.0000 0.0000
# 4 0.0000 0.0000 0.0000 20.2891 0.0000 0.0000
# 5 0.0000 0.0000 0.0000 0.0000 20.2891 0.0000
# 6 0.0000 0.0000 0.0000 0.0000 0.0000 19.0468
#
#
#
# Elastic Compliance Matrix: (Units=1/GPa)
#
#
# Indices 1 2 3 4 5 6 
#
# 1 0.017078 -0.009173 -0.000116 0.000000 0.000000 0.000000
# 2 -0.009173 0.017078 -0.000116 0.000000 0.000000 0.000000
# 3 -0.000116 -0.000116 0.014586 0.000000 0.000000 0.000000
# 4 0.000000 0.000000 0.000000 0.049288 0.000000 0.000000
# 5 0.000000 0.000000 0.000000 0.000000 0.049288 0.000000
# 6 0.000000 0.000000 0.000000 0.000000 0.000000 0.052502
#
#
# Mechanical properties :
#
#
# Convention : Reuss Voigt Hill
#
# Bulk Modulus (GPa) = 33.40850 36.18428 34.79639
# Shear Modulus (GPa) = 21.87160 24.38963 23.13061
#
# Velocity S-wave (km/s) = 3.25630 3.43864 3.34871
# Velocity P-wave (km/s) = 5.50769 5.77131 5.64104
#
# Compressibility (1/GPa) = 0.02993250
#
# Stress axis : x y z
#
# Youngs Moduli (GPa) = 58.55457 58.55457 68.55867
#
# Poissons Ratio (x) = 0.53712 0.00795
# Poissons Ratio (y) = 0.53712 0.00795
# Poissons Ratio (z) = 0.00679 0.00679
#
# Static dielectric constant tensor:
#      x y z
#    x 1.734710 0.000000 0.000000 
#    y 0.000000 1.734710 0.000000 
#    z 0.000000 0.000000 1.817970 
# 
# From -- ./inp_files/7779.got.cif
#   From: 2010.05.17/outbox.cif.g08.bks.cpg/sg180_4_cif.got.tgz:7779.got - 2010.05.20 11:43:55.
