data_PCOD9584373
_publ_section_title
;
Structure prediction by ZEFSAII (Michael W. Deem and Ramdas Pophale) SiO2 
 PCOD9584373
Probable space group: P 64 2 2
;
_chemical_formula_sum "Si O2"
_cell_formula_units_Z 69
_cell_length_a 21.533939
_cell_length_b 21.533939
_cell_length_c 8.194524
_cell_angle_alpha 90.000000
_cell_angle_beta 90.000000
_cell_angle_gamma 120.000000
_cell_volume 3290.798724
_symmetry_space_group_name_H-M "P 64 2 2"
_symmetry_group_IT_number 181
_symmetry_cell_setting 'hexagonal'
loop_
_space_group_symop_operation_xyz
x,y,z
x-y,x,2/3+z
-y,x-y,1/3+z
-x,-y,z
-x+y,-x,2/3+z
y,-x+y,1/3+z
x-y,-y,-z
-x,-x+y,2/3-z
y,x,1/3-z
-y,-x,1/3-z
-x+y,y,-z
x,x-y,2/3-z
loop_
_atom_site_type_symbol
_atom_site_label
_atom_site_fract_x
_atom_site_fract_y
_atom_site_fract_z
Si Si1 0.493090 0.229651 0.164284
Si Si2 0.503009 0.414261 0.496680
Si Si3 0.999750 0.331213 0.510737
Si Si4 0.644356 0.355645 0.166667
Si Si5 0.627812 0.773806 0.969653
Si Si6 0.500000 0.500000 0.166667
Si Si7 0.931323 0.737129 0.921644
O O1 0.453610 0.226805 0.333334
O O2 0.519008 0.171158 0.167637
O O3 0.559274 0.310460 0.163577
O O4 0.441844 0.221532 0.016858
O O5 0.540030 0.459971 0.666667
O O6 0.416662 0.374153 0.507850
O O7 0.513688 0.453314 0.316627
O O8 0.960710 0.263630 0.628692
O O9 0.000000 0.301528 0.333334
O O10 0.080707 0.382433 0.574558
O O11 0.666786 0.333393 0.333334
O O12 0.667044 0.833522 0.833334
O O13 0.677528 0.794285 0.124427
O O14 0.000000 0.799125 0.833334
O O15 0.881543 0.763086 0.000000
#
# Coordination Sequence:
#
# PCOD9584373 Si02
#       7
#    12  12  12   6  12   3  12
#     4  11  25  46  69  95 131 173 230 293 354 430
#     4  12  27  49  68 100 139 180 238 298 361 440
#     4  11  23  42  67  97 137 172 224 285 347 423
#     4  10  24  45  64  92 123 164 224 286 344 412
#     4  11  23  39  68  98 132 179 220 278 356 410
#     4  12  30  42  72  94 132 188 234 288 376 432
#     4  10  21  38  64  98 138 177 223 276 335 412
#
# _framework density 20.967555000000001
#
# number of rings (size 3 to 8) (size 9 to 14) (size 15 to 20)
#    0.000    1.043    0.000    6.522    7.304    2.783 
#    6.261    0.000    0.000    0.000    0.000    0.000 
#    0.000   81.391    0.000    0.000    0.000    0.000 
#
# Total GULP energy -384283.716774 kJ/mol
# GULP energy per Si atom -5569.329229 kJ/mol
# Density = 2.091983 g / cm^3
# Si number density = 20.967555 Si / 1000 Ang^3
#
#
#
# Elastic Constant Matrix: (Units=GPa)
#
#
# Indices 1 2 3 4 5 6 
#
# 1 81.7034 72.9319 51.5997 0.0000 0.0000 0.0000
# 2 72.9319 81.7034 51.5997 0.0000 0.0000 0.0000
# 3 51.5997 51.5997 174.0688 0.0000 0.0000 0.0000
# 4 0.0000 0.0000 0.0000 25.1433 0.0000 0.0000
# 5 0.0000 0.0000 0.0000 0.0000 25.1433 0.0000
# 6 0.0000 0.0000 0.0000 0.0000 0.0000 4.3857
#
#
#
# Elastic Compliance Matrix: (Units=1/GPa)
#
#
# Indices 1 2 3 4 5 6 
#
# 1 0.061034 -0.052972 -0.002390 0.000000 0.000000 0.000000
# 2 -0.052972 0.061034 -0.002390 0.000000 0.000000 0.000000
# 3 -0.002390 -0.002390 0.007162 0.000000 0.000000 0.000000
# 4 0.000000 0.000000 0.000000 0.039772 0.000000 0.000000
# 5 0.000000 0.000000 0.000000 0.000000 0.039772 0.000000
# 6 0.000000 0.000000 0.000000 0.000000 0.000000 0.228011
#
#
# Mechanical properties :
#
#
# Convention : Reuss Voigt Hill
#
# Bulk Modulus (GPa) = 72.85428 76.63756 74.74592
# Shear Modulus (GPa) = 8.97888 21.69075 15.33481
#
# Velocity S-wave (km/s) = 2.07161 3.21984 2.70730
# Velocity P-wave (km/s) = 6.36739 7.10303 6.74525
#
# Compressibility (1/GPa) = 0.01372603
#
# Stress axis : x y z
#
# Youngs Moduli (GPa) = 16.38441 16.38441 139.63262
#
# Poissons Ratio (x) = 0.86791 0.33369
# Poissons Ratio (y) = 0.86791 0.33369
# Poissons Ratio (z) = 0.03915 0.03915
#
# Static dielectric constant tensor:
#      x y z
#    x 1.978520 0.000000 0.000000 
#    y 0.000000 1.978520 0.000000 
#    z 0.000000 0.000000 1.869210 
# 
# From -- ./inp_files/3212.got.cif
#   From: 2010.05.17/outbox.cif.g08.bks.cpg/sg181_2_cif.got.tgz:3212.got - 2010.05.20 11:51:17.
