data_PCOD9584560
_publ_section_title
;
Structure prediction by ZEFSAII (Michael W. Deem and Ramdas Pophale) SiO2 
 PCOD9584560
Probable space group: P 64 2 2
;
_chemical_formula_sum "Si O2"
_cell_formula_units_Z 48
_cell_length_a 14.440527
_cell_length_b 14.440527
_cell_length_c 12.071472
_cell_angle_alpha 90.000000
_cell_angle_beta 90.000000
_cell_angle_gamma 120.000000
_cell_volume 2180.002285
_symmetry_space_group_name_H-M "P 64 2 2"
_symmetry_group_IT_number 181
_symmetry_cell_setting 'hexagonal'
loop_
_space_group_symop_operation_xyz
x,y,z
x-y,x,2/3+z
-y,x-y,1/3+z
-x,-y,z
-x+y,-x,2/3+z
y,-x+y,1/3+z
x-y,-y,-z
-x,-x+y,2/3-z
y,x,1/3-z
-y,-x,1/3-z
-x+y,y,-z
x,x-y,2/3-z
loop_
_atom_site_type_symbol
_atom_site_label
_atom_site_fract_x
_atom_site_fract_y
_atom_site_fract_z
Si Si1 0.237880 0.274702 0.990973
Si Si2 0.742060 0.471614 0.371313
Si Si3 0.891903 0.405179 0.709473
Si Si4 0.303705 0.104958 0.073444
O O1 0.248048 0.298367 0.859139
O O2 0.112253 0.224506 0.000000
O O3 0.302936 0.394521 0.044036
O O4 0.264081 0.191098 0.050418
O O5 0.751099 0.502197 0.500000
O O6 0.777275 0.388638 0.333334
O O7 0.613959 0.410165 0.349845
O O8 0.817793 0.575037 0.299255
O O9 0.885885 0.442943 0.833334
O O10 0.000000 0.500000 0.656976
O O11 0.235284 0.000000 0.000000
#
# Coordination Sequence:
#
# PCOD9584560 Si02
#       4
#    12  12  12  12
#     4  12  25  46  75 104 138 188 244 307 377 443
#     4  12  24  43  68 103 143 188 239 300 377 457
#     4  11  23  42  73 103 144 178 239 304 375 439
#     4  12  27  47  68 101 145 190 244 305 370 453
#
# _framework density 22.018324
#
# number of rings (size 3 to 8) (size 9 to 14) (size 15 to 20)
#    0.000    0.250    2.500    7.500    3.500    1.000 
#    0.000    2.500    0.000    0.000    0.000    0.000 
#    0.000    0.000    0.000    0.000    0.000    0.000 
#
# Total GULP energy -267560.316667 kJ/mol
# GULP energy per Si atom -5574.173264 kJ/mol
# Density = 2.196821 g / cm^3
# Si number density = 22.018324 Si / 1000 Ang^3
#
#
#
# Elastic Constant Matrix: (Units=GPa)
#
#
# Indices 1 2 3 4 5 6 
#
# 1 143.0309 21.0641 2.6998 0.0000 0.0000 0.0000
# 2 21.0641 143.0309 2.6998 0.0000 0.0000 0.0000
# 3 2.6998 2.6998 109.7623 0.0000 0.0000 0.0000
# 4 0.0000 0.0000 0.0000 21.2379 0.0000 0.0000
# 5 0.0000 0.0000 0.0000 0.0000 21.2379 0.0000
# 6 0.0000 0.0000 0.0000 0.0000 0.0000 60.9834
#
#
#
# Elastic Compliance Matrix: (Units=1/GPa)
#
#
# Indices 1 2 3 4 5 6 
#
# 1 0.007149 -0.001050 -0.000150 0.000000 0.000000 0.000000
# 2 -0.001050 0.007149 -0.000150 0.000000 0.000000 0.000000
# 3 -0.000150 -0.000150 0.009118 0.000000 0.000000 0.000000
# 4 0.000000 0.000000 0.000000 0.047086 0.000000 0.000000
# 5 0.000000 0.000000 0.000000 0.000000 0.047086 0.000000
# 6 0.000000 0.000000 0.000000 0.000000 0.000000 0.016398
#
#
# Mechanical properties :
#
#
# Convention : Reuss Voigt Hill
#
# Bulk Modulus (GPa) = 48.27220 49.86126 49.06673
# Shear Modulus (GPa) = 34.82123 45.31585 40.06854
#
# Velocity S-wave (km/s) = 3.98108 4.54155 4.27052
# Velocity P-wave (km/s) = 6.56531 7.08487 6.83003
#
# Compressibility (1/GPa) = 0.02071586
#
# Stress axis : x y z
#
# Youngs Moduli (GPa) = 139.88047 139.88047 109.67345
#
# Poissons Ratio (x) = 0.14687 0.01645
# Poissons Ratio (y) = 0.14687 0.01645
# Poissons Ratio (z) = 0.02098 0.02098
#
# Static dielectric constant tensor:
#      x y z
#    x 1.823910 0.000000 0.000000 
#    y 0.000000 1.823910 0.000000 
#    z 0.000000 0.000000 1.918650 
# 
# From -- ./inp_files/4409.got.cif
#   From: 2010.05.17/outbox.cif.g08.bks.cpg/sg181_3_cif.got.tgz:4409.got - 2010.05.20 11:51:17.
