data_PCOD9584244
_publ_section_title
;
Structure prediction by ZEFSAII (Michael W. Deem and Ramdas Pophale) SiO2 
 PCOD9584244
Probable space group: P 64 2 2
;
_chemical_formula_sum "Si O2"
_cell_formula_units_Z 81
_cell_length_a 20.971790
_cell_length_b 20.971790
_cell_length_c 10.838440
_cell_angle_alpha 90.000000
_cell_angle_beta 90.000000
_cell_angle_gamma 120.000000
_cell_volume 4128.273008
_symmetry_space_group_name_H-M "P 64 2 2"
_symmetry_group_IT_number 181
_symmetry_cell_setting 'hexagonal'
loop_
_space_group_symop_operation_xyz
x,y,z
x-y,x,2/3+z
-y,x-y,1/3+z
-x,-y,z
-x+y,-x,2/3+z
y,-x+y,1/3+z
x-y,-y,-z
-x,-x+y,2/3-z
y,x,1/3-z
-y,-x,1/3-z
-x+y,y,-z
x,x-y,2/3-z
loop_
_atom_site_type_symbol
_atom_site_label
_atom_site_fract_x
_atom_site_fract_y
_atom_site_fract_z
Si Si1 0.226739 0.768278 0.982242
Si Si2 0.429665 0.083231 0.361830
Si Si3 0.455359 0.775378 0.248275
Si Si4 0.500000 0.000000 0.500000
Si Si5 0.622911 0.981551 0.859312
Si Si6 0.723914 0.723914 0.166667
Si Si7 0.696667 0.800106 0.941449
Si Si8 0.155910 0.641547 0.153188
O O1 0.264924 0.769748 0.856988
O O2 0.176510 0.806080 0.995442
O O3 0.173274 0.683976 0.022930
O O4 0.293723 0.806414 0.079522
O O5 0.487480 0.167494 0.346298
O O6 0.355085 0.058844 0.438881
O O7 0.474770 0.046955 0.418151
O O8 0.403244 0.052277 0.224658
O O9 0.407367 0.703684 0.333334
O O10 0.409104 0.808360 0.186033
O O11 0.659374 0.936258 0.800810
O O12 0.534871 0.930151 0.845745
O O13 0.644181 0.000000 0.000000
O O14 0.783451 0.738553 0.277517
O O15 0.728844 0.864422 0.833334
#
# Coordination Sequence:
#
# PCOD9584244 Si02
#       8
#    12  12  12   3  12   6  12  12
#     4  10  20  38  54  71 100 136 178 224 301 373
#     4  10  21  35  53  73 101 135 179 243 303 367
#     4  12  25  35  50  75 102 138 185 246 306 372
#     4  10  20  40  54  68 100 140 176 238 328 382
#     4  10  19  35  60  85 106 133 184 244 307 367
#     4   9  20  35  56  82 104 136 196 222 281 377
#     4  10  18  36  61  81 109 153 172 229 300 353
#     4  10  21  37  54  75  99 140 181 234 309 377
#
# _framework density 19.620795000000001
#
# number of rings (size 3 to 8) (size 9 to 14) (size 15 to 20)
#    0.000    1.778    2.963    3.111    0.000    6.519 
#    0.000    2.593    0.000    0.000    0.000    0.000 
#    0.000    0.000    0.000    0.000    0.000    0.000 
#
# Total GULP energy -451669.723302 kJ/mol
# GULP energy per Si atom -5576.169423 kJ/mol
# Density = 1.957614 g / cm^3
# Si number density = 19.620795 Si / 1000 Ang^3
#
#
#
# Elastic Constant Matrix: (Units=GPa)
#
#
# Indices 1 2 3 4 5 6 
#
# 1 15.6956 42.0468 26.7605 0.0000 0.0000 0.0000
# 2 42.0468 15.6956 26.7605 0.0000 0.0000 0.0000
# 3 26.7605 26.7605 96.1937 0.0000 0.0000 0.0000
# 4 0.0000 0.0000 0.0000 13.2345 0.0000 0.0000
# 5 0.0000 0.0000 0.0000 0.0000 13.2345 0.0000
# 6 0.0000 0.0000 0.0000 0.0000 0.0000 -13.1756
#
#
#
# Elastic Compliance Matrix: (Units=1/GPa)
#
#
# Indices 1 2 3 4 5 6 
#
# 1 -0.007307 0.030642 -0.006492 0.000000 0.000000 0.000000
# 2 0.030642 -0.007307 -0.006492 0.000000 0.000000 0.000000
# 3 -0.006492 -0.006492 0.014008 0.000000 0.000000 0.000000
# 4 0.000000 0.000000 0.000000 0.075560 0.000000 0.000000
# 5 0.000000 0.000000 0.000000 0.000000 0.075560 0.000000
# 6 0.000000 0.000000 0.000000 0.000000 0.000000 -0.075898
#
#
# Mechanical properties :
#
#
# Convention : Reuss Voigt Hill
#
# Bulk Modulus (GPa) = 28.80897 35.41340 32.11119
# Shear Modulus (GPa) = 98.29168 4.79318 51.54243
#
# Velocity S-wave (km/s) = 7.08551 1.56468 5.13092
# Velocity P-wave (km/s) = 9.03626 4.62086 7.17657
#
# Compressibility (1/GPa) = 0.03471141
#
# Stress axis : x y z
#
# Youngs Moduli (GPa) = -136.85950 -136.85950 71.38975
#
# Poissons Ratio (x) = 4.19367 0.46344
# Poissons Ratio (y) = 4.19367 0.46344
# Poissons Ratio (z) = -0.88846 -0.88846
#
# Static dielectric constant tensor:
#      x y z
#    x 1.741020 0.000000 0.000000 
#    y 0.000000 1.741020 0.000000 
#    z 0.000000 0.000000 1.750000 
# 
# From -- ./inp_files/5125.got.cif
#   From: 2010.05.17/outbox.cif.g08.bks.cpg/sg181_3_cif.got.tgz:5125.got - 2010.05.20 11:51:17.
