data_PCOD9584700
_publ_section_title
;
Structure prediction by ZEFSAII (Michael W. Deem and Ramdas Pophale) SiO2 
 PCOD9584700
Probable space group: P 63 2 2
;
_chemical_formula_sum "Si O2"
_cell_formula_units_Z 36
_cell_length_a 10.266452
_cell_length_b 10.266452
_cell_length_c 20.490563
_cell_angle_alpha 90.000000
_cell_angle_beta 90.000000
_cell_angle_gamma 120.000000
_cell_volume 1870.360340
_symmetry_space_group_name_H-M "P 63 2 2"
_symmetry_group_IT_number 182
_symmetry_cell_setting 'hexagonal'
loop_
_space_group_symop_operation_xyz
x,y,z
x-y,x,1/2+z
-y,x-y,z
-x,-y,1/2+z
-x+y,-x,z
y,-x+y,1/2+z
x-y,-y,-z
-x,-x+y,-z
y,x,-z
-y,-x,1/2-z
-x+y,y,1/2-z
x,x-y,1/2-z
loop_
_atom_site_type_symbol
_atom_site_label
_atom_site_fract_x
_atom_site_fract_y
_atom_site_fract_z
Si Si1 0.596320 0.543053 0.315151
Si Si2 0.156651 0.843350 0.250000
Si Si3 0.168641 0.000000 0.000000
Si Si4 0.063223 0.324355 0.862317
O O1 0.560063 0.439938 0.250000
O O2 0.593821 0.690500 0.290735
O O3 0.759177 0.601085 0.346629
O O4 0.457626 0.433476 0.359568
O O5 0.026048 0.796248 0.304263
O O6 0.000000 0.858126 0.000000
O O7 0.249703 0.013327 0.067533
#
# Coordination Sequence:
#
# PCOD9584700 Si02
#       4
#    12   6   6  12
#     4  10  21  38  66  96 130 165 224 278 339 391
#     4  10  20  36  62 102 128 162 218 272 332 390
#     4  10  24  44  68  92 138 174 228 268 332 430
#     4  11  22  44  66  99 130 180 221 281 337 400
#
# _framework density 19.247629
#
# number of rings (size 3 to 8) (size 9 to 14) (size 15 to 20)
#    0.333    1.333    0.000    6.667    0.000    2.667 
#   44.000    0.000    0.000    0.000    0.000    0.000 
#    0.000    0.000    0.000    0.000    0.000    0.000 
#
# Total GULP energy -200645.366870 kJ/mol
# GULP energy per Si atom -5573.482413 kJ/mol
# Density = 1.920382 g / cm^3
# Si number density = 19.247629 Si / 1000 Ang^3
#
#
#
# Elastic Constant Matrix: (Units=GPa)
#
#
# Indices 1 2 3 4 5 6 
#
# 1 103.9703 54.9623 81.1525 0.0000 0.0000 0.0000
# 2 54.9623 103.9703 81.1525 0.0000 0.0000 0.0000
# 3 81.1525 81.1525 181.1611 0.0000 0.0000 0.0000
# 4 0.0000 0.0000 0.0000 39.4440 0.0000 0.0000
# 5 0.0000 0.0000 0.0000 0.0000 39.4440 0.0000
# 6 0.0000 0.0000 0.0000 0.0000 0.0000 24.5040
#
#
#
# Elastic Compliance Matrix: (Units=1/GPa)
#
#
# Indices 1 2 3 4 5 6 
#
# 1 0.016001 -0.004404 -0.005195 0.000000 0.000000 0.000000
# 2 -0.004404 0.016001 -0.005195 0.000000 0.000000 0.000000
# 3 -0.005195 -0.005195 0.010174 0.000000 0.000000 0.000000
# 4 0.000000 0.000000 0.000000 0.025352 0.000000 0.000000
# 5 0.000000 0.000000 0.000000 0.000000 0.025352 0.000000
# 6 0.000000 0.000000 0.000000 0.000000 0.000000 0.040810
#
#
# Mechanical properties :
#
#
# Convention : Reuss Voigt Hill
#
# Bulk Modulus (GPa) = 79.43740 91.51515 85.47627
# Shear Modulus (GPa) = 29.85522 32.13405 30.99464
#
# Velocity S-wave (km/s) = 3.94269 4.09039 4.01722
# Velocity P-wave (km/s) = 7.87955 8.36408 8.12543
#
# Compressibility (1/GPa) = 0.01258853
#
# Stress axis : x y z
#
# Youngs Moduli (GPa) = 62.49587 62.49587 98.28671
#
# Poissons Ratio (x) = 0.27522 0.51061
# Poissons Ratio (y) = 0.27522 0.51061
# Poissons Ratio (z) = 0.32467 0.32467
#
# Static dielectric constant tensor:
#      x y z
#    x 1.705330 0.000000 0.000000 
#    y 0.000000 1.705330 0.000000 
#    z 0.000000 0.000000 1.691640 
# 
# From -- ./inp_files/3950.got.cif
#   From: 2010.05.17/outbox.cif.g08.bks.cpg/sg182_2_cif.got.tgz:3950.got - 2010.05.20 11:58:53.
