data_PCOD9584021
_publ_section_title
;
Structure prediction by ZEFSAII (Michael W. Deem and Ramdas Pophale) SiO2 
 PCOD9584021
Probable space group: P 62 2 2
;
_chemical_formula_sum "Si O2"
_cell_formula_units_Z 42
_cell_length_a 19.624685
_cell_length_b 19.624685
_cell_length_c 5.878101
_cell_angle_alpha 90.000000
_cell_angle_beta 90.000000
_cell_angle_gamma 120.000000
_cell_volume 1960.528070
_symmetry_space_group_name_H-M "P 62 2 2"
_symmetry_group_IT_number 180
_symmetry_cell_setting 'hexagonal'
loop_
_space_group_symop_operation_xyz
x,y,z
x-y,x,1/3+z
-y,x-y,2/3+z
-x,-y,z
-x+y,-x,1/3+z
y,-x+y,2/3+z
x-y,-y,-z
-x,-x+y,1/3-z
y,x,2/3-z
-y,-x,2/3-z
-x+y,y,-z
x,x-y,1/3-z
loop_
_atom_site_type_symbol
_atom_site_label
_atom_site_fract_x
_atom_site_fract_y
_atom_site_fract_z
Si Si1 0.926992 0.853983 0.000000
Si Si2 0.183193 0.671271 0.712195
Si Si3 0.790919 0.209082 0.333334
Si Si4 0.635244 0.927046 0.335378
Si Si5 0.000000 0.219878 0.666667
O O1 0.852939 0.803535 0.164549
O O2 0.000000 0.905141 0.166667
O O3 0.264879 0.735122 0.833334
O O4 0.179259 0.589630 0.666667
O O5 0.183053 0.711815 0.474892
O O6 0.112342 0.664802 0.867809
O O7 0.773018 0.141199 0.508695
O O8 0.654252 0.000000 0.500000
O O9 0.704502 0.950407 0.156619
#
# Coordination Sequence:
#
# PCOD9584021 Si02
#       5
#     6  12   6  12   6
#     4  12  30  48  70 101 136 176 232 290 348 411
#     4  10  24  43  71 106 140 178 231 287 348 421
#     4  10  24  45  68  99 138 177 230 283 336 419
#     4  11  25  45  69 100 139 183 232 284 346 416
#     4  12  28  47  71 100 136 184 234 288 354 410
#
# _framework density 21.422799000000001
#
# number of rings (size 3 to 8) (size 9 to 14) (size 15 to 20)
#    0.000    1.143    0.000    3.429    2.000   28.000 
#    0.000   10.714    0.000    0.000    0.000    0.000 
#    0.000    0.000    0.000    0.000    0.000    0.000 
#
# Total GULP energy -235331.723401 kJ/mol
# GULP energy per Si atom -5603.136271 kJ/mol
# Density = 2.137404 g / cm^3
# Si number density = 21.422799 Si / 1000 Ang^3
#
#
#
# Elastic Constant Matrix: (Units=GPa)
#
#
# Indices 1 2 3 4 5 6 
#
# 1 143.8034 132.4069 101.8152 0.0000 0.0000 0.0000
# 2 132.4069 143.8034 101.8152 0.0000 0.0000 0.0000
# 3 101.8152 101.8152 178.7703 0.0000 0.0000 0.0000
# 4 0.0000 0.0000 0.0000 7.1124 0.0000 0.0000
# 5 0.0000 0.0000 0.0000 0.0000 7.1124 0.0000
# 6 0.0000 0.0000 0.0000 0.0000 0.0000 5.6982
#
#
#
# Elastic Compliance Matrix: (Units=1/GPa)
#
#
# Indices 1 2 3 4 5 6 
#
# 1 0.046994 -0.040753 -0.003554 0.000000 0.000000 0.000000
# 2 -0.040753 0.046994 -0.003554 0.000000 0.000000 0.000000
# 3 -0.003554 -0.003554 0.009642 0.000000 0.000000 0.000000
# 4 0.000000 0.000000 0.000000 0.140599 0.000000 0.000000
# 5 0.000000 0.000000 0.000000 0.000000 0.140599 0.000000
# 6 0.000000 0.000000 0.000000 0.000000 0.000000 0.175493
#
#
# Mechanical properties :
#
#
# Convention : Reuss Voigt Hill
#
# Bulk Modulus (GPa) = 126.47583 126.49461 126.48522
# Shear Modulus (GPa) = 7.59094 12.67392 10.13243
#
# Velocity S-wave (km/s) = 1.88443 2.43494 2.17716
# Velocity P-wave (km/s) = 7.99380 8.19025 8.09262
#
# Compressibility (1/GPa) = 0.00790665
#
# Stress axis : x y z
#
# Youngs Moduli (GPa) = 21.27948 21.27948 103.70913
#
# Poissons Ratio (x) = 0.86720 0.36861
# Poissons Ratio (y) = 0.86720 0.36861
# Poissons Ratio (z) = 0.07563 0.07563
#
# Static dielectric constant tensor:
#      x y z
#    x 1.766700 0.000000 0.000000 
#    y 0.000000 1.766700 0.000000 
#    z 0.000000 0.000000 1.863750 
# 
# From -- ./inp_files/878.got.cif
#   From: 2010.05.17/outbox.cif.g08.bks.cpg/sg180_1_cif.got.tgz:878.got - 2010.05.20 11:43:55.
