data_PCOD9584296
_publ_section_title
;
Structure prediction by ZEFSAII (Michael W. Deem and Ramdas Pophale) SiO2 
 PCOD9584296
Probable space group: P 64 2 2
;
_chemical_formula_sum "Si O2"
_cell_formula_units_Z 36
_cell_length_a 9.265927
_cell_length_b 9.265927
_cell_length_c 21.854723
_cell_angle_alpha 90.000000
_cell_angle_beta 90.000000
_cell_angle_gamma 120.000000
_cell_volume 1625.001203
_symmetry_space_group_name_H-M "P 64 2 2"
_symmetry_group_IT_number 181
_symmetry_cell_setting 'hexagonal'
loop_
_space_group_symop_operation_xyz
x,y,z
x-y,x,2/3+z
-y,x-y,1/3+z
-x,-y,z
-x+y,-x,2/3+z
y,-x+y,1/3+z
x-y,-y,-z
-x,-x+y,2/3-z
y,x,1/3-z
-y,-x,1/3-z
-x+y,y,-z
x,x-y,2/3-z
loop_
_atom_site_type_symbol
_atom_site_label
_atom_site_fract_x
_atom_site_fract_y
_atom_site_fract_z
Si Si1 0.367584 0.735167 0.500000
Si Si2 0.000000 0.500000 0.937863
Si Si3 0.129649 0.356123 0.623767
Si Si4 0.500000 0.500000 0.480351
Si Si5 0.000000 0.500000 0.333334
Si Si6 0.000000 0.000000 0.666667
O O1 0.388128 0.848184 0.559038
O O2 0.460689 0.630622 0.513620
O O3 0.942042 0.344081 0.982983
O O4 0.329183 0.448459 0.630235
O O5 0.051686 0.159656 0.625126
O O6 0.068060 0.409289 0.564504
#
# Coordination Sequence:
#
# PCOD9584296 Si02
#       6
#     6   6  12   6   3   3
#     4  11  24  40  60  89 122 164 208 263 320 372
#     4  10  22  41  62  85 124 166 206 254 318 378
#     4  10  21  40  63  90 121 162 208 256 309 385
#     4  11  24  40  60  86 124 165 208 254 314 378
#     4  10  20  34  68 100 120 154 220 272 308 364
#     4  10  20  32  60  92 112 140 200 260 304 348
#
# _framework density 22.153829999999999
#
# number of rings (size 3 to 8) (size 9 to 14) (size 15 to 20)
#    0.000    1.667    0.000    4.000    0.000   13.333 
#    0.000    0.000    0.000    2.000    0.000    0.000 
#    0.000    0.000    0.000    0.000    0.000    0.000 
#
# Total GULP energy -201380.819729 kJ/mol
# GULP energy per Si atom -5593.911659 kJ/mol
# Density = 2.210341 g / cm^3
# Si number density = 22.153830 Si / 1000 Ang^3
#
#
#
# Elastic Constant Matrix: (Units=GPa)
#
#
# Indices 1 2 3 4 5 6 
#
# 1 146.0159 86.5793 33.7231 0.0000 0.0000 0.0000
# 2 86.5793 146.0159 33.7231 0.0000 0.0000 0.0000
# 3 33.7231 33.7231 79.5078 0.0000 0.0000 0.0000
# 4 0.0000 0.0000 0.0000 -99.4400 0.0000 0.0000
# 5 0.0000 0.0000 0.0000 0.0000 -99.4400 0.0000
# 6 0.0000 0.0000 0.0000 0.0000 0.0000 29.7183
#
#
#
# Elastic Compliance Matrix: (Units=1/GPa)
#
#
# Indices 1 2 3 4 5 6 
#
# 1 0.010863 -0.005961 -0.002079 0.000000 0.000000 0.000000
# 2 -0.005961 0.010863 -0.002079 0.000000 0.000000 0.000000
# 3 -0.002079 -0.002079 0.014341 0.000000 0.000000 0.000000
# 4 0.000000 0.000000 0.000000 -0.010056 0.000000 0.000000
# 5 0.000000 0.000000 0.000000 0.000000 -0.010056 0.000000
# 6 0.000000 0.000000 0.000000 0.000000 0.000000 0.033649
#
#
# Mechanical properties :
#
#
# Convention : Reuss Voigt Hill
#
# Bulk Modulus (GPa) = 63.17678 75.51008 69.34343
# Shear Modulus (GPa) = 66.55961 -19.33141 23.61410
#
# Velocity S-wave (km/s) = 5.48721 -2.95718 3.26838
# Velocity P-wave (km/s) = 8.29007 4.74326 6.75366
#
# Compressibility (1/GPa) = 0.01582860
#
# Stress axis : x y z
#
# Youngs Moduli (GPa) = 92.05167 92.05167 69.72902
#
# Poissons Ratio (x) = 0.54874 0.14499
# Poissons Ratio (y) = 0.54874 0.14499
# Poissons Ratio (z) = 0.19140 0.19140
#
# Static dielectric constant tensor:
#      x y z
#    x 1.914560 0.000000 0.000000 
#    y 0.000000 1.914560 0.000000 
#    z 0.000000 0.000000 1.821210 
# 
# From -- ./inp_files/10937.got.cif
#   From: 2010.05.17/outbox.cif.g08.bks.cpg/sg181_6_cif.got.tgz:10937.got - 2010.05.20 11:51:17.
