data_PCOD9584223
_publ_section_title
;
Structure prediction by ZEFSAII (Michael W. Deem and Ramdas Pophale) SiO2 
 PCOD9584223
Probable space group: P 64 2 2
;
_chemical_formula_sum "Si O2"
_cell_formula_units_Z 84
_cell_length_a 18.048769
_cell_length_b 18.048769
_cell_length_c 16.446577
_cell_angle_alpha 90.000000
_cell_angle_beta 90.000000
_cell_angle_gamma 120.000000
_cell_volume 4639.822083
_symmetry_space_group_name_H-M "P 64 2 2"
_symmetry_group_IT_number 181
_symmetry_cell_setting 'hexagonal'
loop_
_space_group_symop_operation_xyz
x,y,z
x-y,x,2/3+z
-y,x-y,1/3+z
-x,-y,z
-x+y,-x,2/3+z
y,-x+y,1/3+z
x-y,-y,-z
-x,-x+y,2/3-z
y,x,1/3-z
-y,-x,1/3-z
-x+y,y,-z
x,x-y,2/3-z
loop_
_atom_site_type_symbol
_atom_site_label
_atom_site_fract_x
_atom_site_fract_y
_atom_site_fract_z
Si Si1 0.260738 0.095227 0.023809
Si Si2 0.575628 0.590942 0.949231
Si Si3 0.649510 0.472909 0.495027
Si Si4 0.322252 0.846359 0.827170
Si Si5 0.569789 0.669878 0.676561
Si Si6 0.854510 0.167247 0.541132
Si Si7 0.732301 0.987772 0.352767
O O1 0.280481 0.101570 0.120365
O O2 0.246324 0.175033 0.010845
O O3 0.345563 0.108703 0.976542
O O4 0.186065 0.000000 0.000000
O O5 0.500000 0.500000 0.982236
O O6 0.533072 0.639214 0.903786
O O7 0.623975 0.564471 0.881243
O O8 0.646387 0.656390 0.011456
O O9 0.741007 0.482013 0.500000
O O10 0.575825 0.376497 0.475171
O O11 0.637549 0.503979 0.583277
O O12 0.226157 0.810029 0.795241
O O13 0.322273 0.855060 0.924108
O O14 0.605081 0.605081 0.666667
O O15 0.926974 0.207478 0.609547
O O16 0.789657 0.070887 0.568558
#
# Coordination Sequence:
#
# PCOD9584223 Si02
#       7
#    12  12  12  12  12  12  12
#     4  10  21  34  54  87 116 135 179 239 287 344
#     4   9  18  32  53  82 106 139 190 237 271 329
#     4  11  20  29  49  81 116 142 173 228 291 336
#     4   9  18  33  52  71 106 144 186 221 262 343
#     4  10  18  31  51  79 108 145 173 211 280 350
#     4   9  20  37  57  77 102 153 196 221 279 341
#     4  10  19  36  60  77 106 154 191 232 283 341
#
# _framework density 18.104143000000001
#
# number of rings (size 3 to 8) (size 9 to 14) (size 15 to 20)
#    0.000    2.286    1.429    1.714    2.000    1.143 
#    0.000    1.429   25.143    4.286    0.000    0.000 
#    0.000    0.000    0.000    0.000    0.000    0.000 
#
# Total GULP energy -468170.138588 kJ/mol
# GULP energy per Si atom -5573.454031 kJ/mol
# Density = 1.806294 g / cm^3
# Si number density = 18.104143 Si / 1000 Ang^3
#
#
#
# Elastic Constant Matrix: (Units=GPa)
#
#
# Indices 1 2 3 4 5 6 
#
# 1 92.5283 60.5583 16.2467 0.0000 0.0000 0.0000
# 2 60.5583 92.5283 16.2467 0.0000 0.0000 0.0000
# 3 16.2467 16.2467 41.3765 0.0000 0.0000 0.0000
# 4 0.0000 0.0000 0.0000 16.2825 0.0000 0.0000
# 5 0.0000 0.0000 0.0000 0.0000 16.2825 0.0000
# 6 0.0000 0.0000 0.0000 0.0000 0.0000 15.9850
#
#
#
# Elastic Compliance Matrix: (Units=1/GPa)
#
#
# Indices 1 2 3 4 5 6 
#
# 1 0.019203 -0.012077 -0.002798 0.000000 0.000000 0.000000
# 2 -0.012077 0.019203 -0.002798 0.000000 0.000000 0.000000
# 3 -0.002798 -0.002798 0.026366 0.000000 0.000000 0.000000
# 4 0.000000 0.000000 0.000000 0.061416 0.000000 0.000000
# 5 0.000000 0.000000 0.000000 0.000000 0.061416 0.000000
# 6 0.000000 0.000000 0.000000 0.000000 0.000000 0.062559
#
#
# Mechanical properties :
#
#
# Convention : Reuss Voigt Hill
#
# Bulk Modulus (GPa) = 33.98410 45.83740 39.91075
# Shear Modulus (GPa) = 16.93105 18.60208 17.76657
#
# Velocity S-wave (km/s) = 3.06143 3.20895 3.13605
# Velocity P-wave (km/s) = 5.59541 6.25328 5.93347
#
# Compressibility (1/GPa) = 0.02942553
#
# Stress axis : x y z
#
# Youngs Moduli (GPa) = 52.07583 52.07583 37.92806
#
# Poissons Ratio (x) = 0.62890 0.10613
# Poissons Ratio (y) = 0.62890 0.10613
# Poissons Ratio (z) = 0.14571 0.14571
#
# Static dielectric constant tensor:
#      x y z
#    x 1.667290 0.000000 0.000000 
#    y 0.000000 1.667290 0.000000 
#    z 0.000000 0.000000 1.576360 
# 
# From -- ./inp_files/6494.got.cif
#   From: 2010.05.17/outbox.cif.g08.bks.cpg/sg181_4_cif.got.tgz:6494.got - 2010.05.20 11:51:17.
