data_PCOD9584968
_publ_section_title
;
Structure prediction by ZEFSAII (Michael W. Deem and Ramdas Pophale) SiO2 
 PCOD9584968
Probable space group: P 6 M M
;
_chemical_formula_sum "Si O2"
_cell_formula_units_Z 84
_cell_length_a 21.742018
_cell_length_b 21.742018
_cell_length_c 14.483743
_cell_angle_alpha 90.000000
_cell_angle_beta 90.000000
_cell_angle_gamma 120.000000
_cell_volume 5929.405388
_symmetry_space_group_name_H-M "P 6 M M"
_symmetry_group_IT_number 183
_symmetry_cell_setting 'hexagonal'
loop_
_space_group_symop_operation_xyz
x,y,z
x-y,x,z
-y,x-y,z
-x,-y,z
-x+y,-x,z
y,-x+y,z
-x+y,y,z
x,x-y,z
-y,-x,z
y,x,z
x-y,-y,z
-x,-x+y,z
loop_
_atom_site_type_symbol
_atom_site_label
_atom_site_fract_x
_atom_site_fract_y
_atom_site_fract_z
Si Si1 0.223911 0.305076 0.686860
Si Si2 0.472319 0.666414 0.684736
Si Si3 0.421157 0.338380 0.817464
Si Si4 0.531675 0.917263 0.017048
Si Si5 0.416529 0.137398 0.523106
Si Si6 0.666203 0.186851 0.187649
Si Si7 0.387764 0.918540 0.359326
O O1 0.142098 0.284195 0.689832
O O2 0.242698 0.242698 0.690620
O O3 0.266189 0.359418 0.770950
O O4 0.257316 0.350761 0.592850
O O5 0.481570 0.740785 0.717249
O O6 0.391319 0.608682 0.672124
O O7 0.509317 0.641202 0.758792
O O8 0.514910 0.681719 0.589450
O O9 0.395528 0.395528 0.804713
O O10 0.436726 0.338479 0.925421
O O11 0.455619 0.911237 0.994375
O O12 0.517719 0.862852 0.099240
O O13 0.583292 0.000000 0.043993
O O14 0.411639 0.205820 0.490142
O O15 0.428165 0.095727 0.440988
O O16 0.602769 0.205537 0.184101
O O17 0.742334 0.257667 0.189552
O O18 0.650844 0.137831 0.277868
O O19 0.455071 0.910141 0.390794
O O20 0.422599 0.000000 0.326204
#
# Coordination Sequence:
#
# PCOD9584968 Si02
#       7
#    12  12  12  12  12  12  12
#     4   9  17  29  45  65  88 112 136 164 199 239
#     4  10  19  29  40  57  83 113 141 168 201 242
#     4   9  17  29  45  63  82 105 135 171 208 243
#     4   9  17  30  46  62  80 103 133 170 209 244
#     4   9  17  29  44  61  82 106 135 170 204 239
#     4  10  20  32  45  60  79 104 134 167 203 243
#     4  10  19  30  44  61  80 103 133 169 206 242
#
# _framework density 14.166682
#
# number of rings (size 3 to 8) (size 9 to 14) (size 15 to 20)
#    0.000    2.571    0.000    3.714    0.000    4.286 
#    0.000    0.000    0.000    6.429    0.000    0.000 
#    0.000    0.000    0.000    0.000    0.000    0.000 
#
# Total GULP energy -467994.981097 kJ/mol
# GULP energy per Si atom -5571.368823 kJ/mol
# Density = 1.413444 g / cm^3
# Si number density = 14.166682 Si / 1000 Ang^3
#
#
#
# Elastic Constant Matrix: (Units=GPa)
#
#
# Indices 1 2 3 4 5 6 
#
# 1 80.6261 43.8830 43.4719 0.0000 0.0000 0.0000
# 2 43.8830 80.6261 43.4719 0.0000 0.0000 0.0000
# 3 43.4719 43.4719 57.8444 0.0000 0.0000 0.0000
# 4 0.0000 0.0000 0.0000 15.7388 0.0000 0.0000
# 5 0.0000 0.0000 0.0000 0.0000 15.7388 0.0000
# 6 0.0000 0.0000 0.0000 0.0000 0.0000 18.3715
#
#
#
# Elastic Compliance Matrix: (Units=1/GPa)
#
#
# Indices 1 2 3 4 5 6 
#
# 1 0.022059 -0.005158 -0.012702 0.000000 0.000000 0.000000
# 2 -0.005158 0.022059 -0.012702 0.000000 0.000000 0.000000
# 3 -0.012702 -0.012702 0.036379 0.000000 0.000000 0.000000
# 4 0.000000 0.000000 0.000000 0.063537 0.000000 0.000000
# 5 0.000000 0.000000 0.000000 0.000000 0.063537 0.000000
# 6 0.000000 0.000000 0.000000 0.000000 0.000000 0.054432
#
#
# Mechanical properties :
#
#
# Convention : Reuss Voigt Hill
#
# Bulk Modulus (GPa) = 51.61404 53.41669 52.51536
# Shear Modulus (GPa) = 15.17072 15.85449 15.51260
#
# Velocity S-wave (km/s) = 3.27597 3.34898 3.31268
# Velocity P-wave (km/s) = 7.12894 7.26237 7.19596
#
# Compressibility (1/GPa) = 0.01937457
#
# Stress axis : x y z
#
# Youngs Moduli (GPa) = 45.33395 45.33395 27.48831
#
# Poissons Ratio (x) = 0.23381 0.34915
# Poissons Ratio (y) = 0.23381 0.34915
# Poissons Ratio (z) = 0.57582 0.57582
#
# Static dielectric constant tensor:
#      x y z
#    x 1.457930 0.000000 0.000000 
#    y 0.000000 1.457930 0.000000 
#    z 0.000000 0.000000 1.462660 
# 
# From -- ./inp_files/1773.got.cif
#   From: 2010.05.17/outbox.cif.g08.bks.cpg/sg183_1_cif.got.tgz:1773.got - 2010.05.20 12:02:58.
