data_PCOD9584255
_publ_section_title
;
Structure prediction by ZEFSAII (Michael W. Deem and Ramdas Pophale) SiO2 
 PCOD9584255
Probable space group: P 64 2 2
;
_chemical_formula_sum "Si O2"
_cell_formula_units_Z 75
_cell_length_a 12.177301
_cell_length_b 12.177301
_cell_length_c 29.328527
_cell_angle_alpha 90.000000
_cell_angle_beta 90.000000
_cell_angle_gamma 120.000000
_cell_volume 3766.369857
_symmetry_space_group_name_H-M "P 64 2 2"
_symmetry_group_IT_number 181
_symmetry_cell_setting 'hexagonal'
loop_
_space_group_symop_operation_xyz
x,y,z
x-y,x,2/3+z
-y,x-y,1/3+z
-x,-y,z
-x+y,-x,2/3+z
y,-x+y,1/3+z
x-y,-y,-z
-x,-x+y,2/3-z
y,x,1/3-z
-y,-x,1/3-z
-x+y,y,-z
x,x-y,2/3-z
loop_
_atom_site_type_symbol
_atom_site_label
_atom_site_fract_x
_atom_site_fract_y
_atom_site_fract_z
Si Si1 0.004183 0.631862 0.164300
Si Si2 0.233539 0.419958 0.570458
Si Si3 0.000000 0.000000 0.000000
Si Si4 0.224263 0.973628 0.302468
Si Si5 0.687590 0.317282 0.945367
Si Si6 0.597230 0.800865 0.430703
Si Si7 0.601431 0.955162 0.607729
O O1 0.052476 0.706437 0.211613
O O2 0.121174 0.712613 0.129156
O O3 0.000000 0.500000 0.169178
O O4 0.872394 0.609350 0.143681
O O5 0.159376 0.355621 0.616047
O O6 0.338037 0.562000 0.583757
O O7 0.028211 0.907008 0.029002
O O8 0.287403 0.986730 0.351236
O O9 0.317852 0.090162 0.270844
O O10 0.731426 0.456298 0.924116
O O11 0.804349 0.292433 0.936165
O O12 0.657979 0.315957 0.000000
O O13 0.640050 0.949963 0.432071
O O14 0.500000 0.000000 0.620239
#
# Coordination Sequence:
#
# PCOD9584255 Si02
#       7
#    12  12   3  12  12  12  12
#     4  10  20  39  62  84 122 175 230 272 309 404
#     4  10  22  37  60  93 120 173 226 271 338 410
#     4  12  24  40  60  84 136 188 216 270 336 424
#     4  11  21  37  58  88 127 172 217 269 338 415
#     4  11  19  32  61 102 141 158 198 289 369 424
#     4  10  19  34  61  94 122 169 221 268 342 400
#     4  10  19  32  59 100 136 160 205 277 359 422
#
# _framework density 19.913072
#
# number of rings (size 3 to 8) (size 9 to 14) (size 15 to 20)
#    0.000    1.600    4.800    1.920    0.000    0.000 
#    2.880    0.000    0.000   12.480    0.000    0.000 
#    0.000    0.000    0.000    0.000    0.000    0.000 
#
# Total GULP energy -418201.673805 kJ/mol
# GULP energy per Si atom -5576.022317 kJ/mol
# Density = 1.986775 g / cm^3
# Si number density = 19.913072 Si / 1000 Ang^3
#
#
#
# Elastic Constant Matrix: (Units=GPa)
#
#
# Indices 1 2 3 4 5 6 
#
# 1 81.6468 32.2490 16.7079 0.0000 0.0000 0.0000
# 2 32.2490 81.6468 16.7079 0.0000 0.0000 0.0000
# 3 16.7079 16.7079 40.3457 0.0000 0.0000 0.0000
# 4 0.0000 0.0000 0.0000 9.9864 0.0000 0.0000
# 5 0.0000 0.0000 0.0000 0.0000 9.9864 0.0000
# 6 0.0000 0.0000 0.0000 0.0000 0.0000 24.6989
#
#
#
# Elastic Compliance Matrix: (Units=1/GPa)
#
#
# Indices 1 2 3 4 5 6 
#
# 1 0.015119 -0.005125 -0.004139 0.000000 0.000000 0.000000
# 2 -0.005125 0.015119 -0.004139 0.000000 0.000000 0.000000
# 3 -0.004139 -0.004139 0.028214 0.000000 0.000000 0.000000
# 4 0.000000 0.000000 0.000000 0.100136 0.000000 0.000000
# 5 0.000000 0.000000 0.000000 0.000000 0.100136 0.000000
# 6 0.000000 0.000000 0.000000 0.000000 0.000000 0.040488
#
#
# Mechanical properties :
#
#
# Convention : Reuss Voigt Hill
#
# Bulk Modulus (GPa) = 31.59857 37.21875 34.40866
# Shear Modulus (GPa) = 14.85597 18.13266 16.49431
#
# Velocity S-wave (km/s) = 2.73434 3.02087 2.88117
# Velocity P-wave (km/s) = 5.08640 5.55866 5.32777
#
# Compressibility (1/GPa) = 0.03164700
#
# Stress axis : x y z
#
# Youngs Moduli (GPa) = 66.14188 66.14188 35.44381
#
# Poissons Ratio (x) = 0.33896 0.14669
# Poissons Ratio (y) = 0.33896 0.14669
# Poissons Ratio (z) = 0.27375 0.27375
#
# Static dielectric constant tensor:
#      x y z
#    x 1.889510 0.000000 0.000000 
#    y 0.000000 1.889510 0.000000 
#    z 0.000000 0.000000 1.709700 
# 
# From -- ./inp_files/12371.got.cif
#   From: 2010.05.17/outbox.cif.g08.bks.cpg/sg181_7_cif.got.tgz:12371.got - 2010.05.20 11:51:17.
