data_PCOD9584124
_publ_section_title
;
Structure prediction by ZEFSAII (Michael W. Deem and Ramdas Pophale) SiO2 
 PCOD9584124
Probable space group: P 62 2 2
;
_chemical_formula_sum "Si O2"
_cell_formula_units_Z 72
_cell_length_a 15.049993
_cell_length_b 15.049993
_cell_length_c 18.798011
_cell_angle_alpha 90.000000
_cell_angle_beta 90.000000
_cell_angle_gamma 120.000000
_cell_volume 3687.356491
_symmetry_space_group_name_H-M "P 62 2 2"
_symmetry_group_IT_number 180
_symmetry_cell_setting 'hexagonal'
loop_
_space_group_symop_operation_xyz
x,y,z
x-y,x,1/3+z
-y,x-y,2/3+z
-x,-y,z
-x+y,-x,1/3+z
y,-x+y,2/3+z
x-y,-y,-z
-x,-x+y,1/3-z
y,x,2/3-z
-y,-x,2/3-z
-x+y,y,-z
x,x-y,1/3-z
loop_
_atom_site_type_symbol
_atom_site_label
_atom_site_fract_x
_atom_site_fract_y
_atom_site_fract_z
Si Si1 0.916506 0.242778 0.225089
Si Si2 0.801104 0.393744 0.988111
Si Si3 0.365833 0.297700 0.616990
Si Si4 0.123274 0.572894 0.584548
Si Si5 0.702422 0.136819 0.798717
Si Si6 0.780617 0.301502 0.132060
O O1 0.815952 0.136437 0.250181
O O2 0.965412 0.290333 0.302054
O O3 0.861211 0.298139 0.185792
O O4 0.000000 0.250896 0.166667
O O5 0.866911 0.510603 0.960486
O O6 0.806250 0.316865 0.932829
O O7 0.688692 0.377384 0.000000
O O8 0.835578 0.367464 0.062159
O O9 0.339594 0.363350 0.563858
O O10 0.153625 0.576813 0.666667
O O11 0.149168 0.509592 0.529049
O O12 0.187390 0.690541 0.556249
O O13 0.000000 0.500000 0.584447
O O14 0.814419 0.185582 0.833334
O O15 0.732330 0.366165 0.166667
#
# Coordination Sequence:
#
# PCOD9584124 Si02
#       6
#    12  12  12  12  12  12
#     4  11  23  39  62  91 121 166 211 269 340 400
#     4  12  21  37  61  92 131 176 210 262 317 388
#     4  11  23  43  60  89 132 166 215 273 336 398
#     4  11  23  37  55  81 118 168 217 257 303 370
#     4  12  24  38  60  87 120 169 215 261 322 387
#     4  12  21  36  58  87 128 163 210 258 316 393
#
# _framework density 19.526183
#
# number of rings (size 3 to 8) (size 9 to 14) (size 15 to 20)
#    0.000    0.500    3.333    8.500    0.000    0.333 
#    0.000    0.000    0.000    0.500    0.000    2.333 
#    0.000    0.000    0.000    0.000    0.000    0.000 
#
# Total GULP energy -401596.582960 kJ/mol
# GULP energy per Si atom -5577.730319 kJ/mol
# Density = 1.948174 g / cm^3
# Si number density = 19.526183 Si / 1000 Ang^3
#
#
#
# Elastic Constant Matrix: (Units=GPa)
#
#
# Indices 1 2 3 4 5 6 
#
# 1 70.3681 41.3765 37.3825 0.0000 0.0000 0.0000
# 2 41.3765 70.3681 37.3825 0.0000 0.0000 0.0000
# 3 37.3825 37.3825 145.6796 0.0000 0.0000 0.0000
# 4 0.0000 0.0000 0.0000 38.2104 0.0000 0.0000
# 5 0.0000 0.0000 0.0000 0.0000 38.2104 0.0000
# 6 0.0000 0.0000 0.0000 0.0000 0.0000 14.4958
#
#
#
# Elastic Compliance Matrix: (Units=1/GPa)
#
#
# Indices 1 2 3 4 5 6 
#
# 1 0.022648 -0.011844 -0.002772 0.000000 0.000000 0.000000
# 2 -0.011844 0.022648 -0.002772 0.000000 0.000000 0.000000
# 3 -0.002772 -0.002772 0.008287 0.000000 0.000000 0.000000
# 4 0.000000 0.000000 0.000000 0.026171 0.000000 0.000000
# 5 0.000000 0.000000 0.000000 0.000000 0.026171 0.000000
# 6 0.000000 0.000000 0.000000 0.000000 0.000000 0.068985
#
#
# Mechanical properties :
#
#
# Convention : Reuss Voigt Hill
#
# Bulk Modulus (GPa) = 53.17590 57.63324 55.40457
# Shear Modulus (GPa) = 23.15266 29.53492 26.34379
#
# Velocity S-wave (km/s) = 3.44717 3.89341 3.67707
# Velocity P-wave (km/s) = 6.56782 7.05631 6.81644
#
# Compressibility (1/GPa) = 0.01880551
#
# Stress axis : x y z
#
# Youngs Moduli (GPa) = 44.15341 44.15341 120.66805
#
# Poissons Ratio (x) = 0.52297 0.33454
# Poissons Ratio (y) = 0.52297 0.33454
# Poissons Ratio (z) = 0.12241 0.12241
#
# Static dielectric constant tensor:
#      x y z
#    x 1.732270 0.000000 0.000000 
#    y 0.000000 1.732270 0.000000 
#    z 0.000000 0.000000 1.732730 
# 
# From -- ./inp_files/7776.got.cif
#   From: 2010.05.17/outbox.cif.g08.bks.cpg/sg180_4_cif.got.tgz:7776.got - 2010.05.20 11:43:55.
