data_PCOD9584254
_publ_section_title
;
Structure prediction by ZEFSAII (Michael W. Deem and Ramdas Pophale) SiO2 
 PCOD9584254
Probable space group: P 64 2 2
;
_chemical_formula_sum "Si O2"
_cell_formula_units_Z 48
_cell_length_a 24.307734
_cell_length_b 24.307734
_cell_length_c 5.088151
_cell_angle_alpha 90.000000
_cell_angle_beta 90.000000
_cell_angle_gamma 120.000000
_cell_volume 2603.631837
_symmetry_space_group_name_H-M "P 64 2 2"
_symmetry_group_IT_number 181
_symmetry_cell_setting 'hexagonal'
loop_
_space_group_symop_operation_xyz
x,y,z
x-y,x,2/3+z
-y,x-y,1/3+z
-x,-y,z
-x+y,-x,2/3+z
y,-x+y,1/3+z
x-y,-y,-z
-x,-x+y,2/3-z
y,x,1/3-z
-y,-x,1/3-z
-x+y,y,-z
x,x-y,2/3-z
loop_
_atom_site_type_symbol
_atom_site_label
_atom_site_fract_x
_atom_site_fract_y
_atom_site_fract_z
Si Si1 0.891836 0.783672 0.000000
Si Si2 0.414242 0.247009 0.580306
Si Si3 0.000000 0.103649 0.333334
Si Si4 0.557657 0.239137 0.081178
Si Si5 0.958355 0.705445 0.076265
O O1 0.921174 0.738609 0.939911
O O2 0.945312 0.832431 0.199295
O O3 0.408987 0.204494 0.333334
O O4 0.486169 0.305933 0.566865
O O5 0.360810 0.265991 0.535146
O O6 0.405039 0.202520 0.833334
O O7 0.042606 0.085212 0.500000
O O8 0.572113 0.286057 0.333334
O O9 0.610966 0.221932 0.000000
O O10 0.555726 0.277863 0.833334
O O11 0.000000 0.742832 0.333334
O O12 0.000000 0.703128 0.833334
#
# Coordination Sequence:
#
# PCOD9584254 Si02
#       5
#     6  12   6  12  12
#     4  12  26  41  60  78 106 140 184 244 294 364
#     4  10  21  38  59  85 122 158 196 245 299 352
#     4  12  26  43  54  76 104 140 179 226 300 370
#     4  10  19  32  56  91 128 165 195 235 286 348
#     4  12  25  41  63  87 114 150 195 252 303 355
#
# _framework density 18.435786
#
# number of rings (size 3 to 8) (size 9 to 14) (size 15 to 20)
#    0.000    1.000    2.500    5.250    0.000    2.500 
#    0.000    0.000    0.000    0.750    0.000    1.750 
#    0.000    0.000    0.000    0.000    0.000    0.000 
#
# Total GULP energy -267319.239068 kJ/mol
# GULP energy per Si atom -5569.150814 kJ/mol
# Density = 1.839383 g / cm^3
# Si number density = 18.435786 Si / 1000 Ang^3
#
#
#
# Elastic Constant Matrix: (Units=GPa)
#
#
# Indices 1 2 3 4 5 6 
#
# 1 143.4057 50.2875 37.1734 0.0000 0.0000 0.0000
# 2 50.2875 143.4057 37.1734 0.0000 0.0000 0.0000
# 3 37.1734 37.1734 118.6698 0.0000 0.0000 0.0000
# 4 0.0000 0.0000 0.0000 44.3319 0.0000 0.0000
# 5 0.0000 0.0000 0.0000 0.0000 44.3319 0.0000
# 6 0.0000 0.0000 0.0000 0.0000 0.0000 46.5591
#
#
#
# Elastic Compliance Matrix: (Units=1/GPa)
#
#
# Indices 1 2 3 4 5 6 
#
# 1 0.008304 -0.002435 -0.001838 0.000000 0.000000 0.000000
# 2 -0.002435 0.008304 -0.001838 0.000000 0.000000 0.000000
# 3 -0.001838 -0.001838 0.009578 0.000000 0.000000 0.000000
# 4 0.000000 0.000000 0.000000 0.022557 0.000000 0.000000
# 5 0.000000 0.000000 0.000000 0.000000 0.022557 0.000000
# 6 0.000000 0.000000 0.000000 0.000000 0.000000 0.021478
#
#
# Mechanical properties :
#
#
# Convention : Reuss Voigt Hill
#
# Bulk Modulus (GPa) = 71.62239 72.74997 72.18618
# Shear Modulus (GPa) = 45.59712 45.76769 45.68241
#
# Velocity S-wave (km/s) = 4.97862 4.98792 4.98327
# Velocity P-wave (km/s) = 8.48427 8.52757 8.50595
#
# Compressibility (1/GPa) = 0.01396211
#
# Stress axis : x y z
#
# Youngs Moduli (GPa) = 120.42788 120.42788 104.40122
#
# Poissons Ratio (x) = 0.29328 0.19192
# Poissons Ratio (y) = 0.29328 0.19192
# Poissons Ratio (z) = 0.22138 0.22138
#
# Static dielectric constant tensor:
#      x y z
#    x 1.551170 0.000000 0.000000 
#    y 0.000000 1.551170 0.000000 
#    z 0.000000 0.000000 1.733130 
# 
# From -- ./inp_files/1161.got.cif
#   From: 2010.05.17/outbox.cif.g08.bks.cpg/sg181_1_cif.got.tgz:1161.got - 2010.05.20 11:51:17.
