data_PCOD9584991
_publ_section_title
;
Structure prediction by ZEFSAII (Michael W. Deem and Ramdas Pophale) SiO2 
 PCOD9584991
Probable space group: P 6 M M
;
_chemical_formula_sum "Si O2"
_cell_formula_units_Z 96
_cell_length_a 18.260888
_cell_length_b 18.260888
_cell_length_c 20.861930
_cell_angle_alpha 90.000000
_cell_angle_beta 90.000000
_cell_angle_gamma 120.000000
_cell_volume 6024.609484
_symmetry_space_group_name_H-M "P 6 M M"
_symmetry_group_IT_number 183
_symmetry_cell_setting 'hexagonal'
loop_
_space_group_symop_operation_xyz
x,y,z
x-y,x,z
-y,x-y,z
-x,-y,z
-x+y,-x,z
y,-x+y,z
-x+y,y,z
x,x-y,z
-y,-x,z
y,x,z
x-y,-y,z
-x,-x+y,z
loop_
_atom_site_type_symbol
_atom_site_label
_atom_site_fract_x
_atom_site_fract_y
_atom_site_fract_z
Si Si1 0.734353 0.101179 0.566430
Si Si2 0.533245 0.898777 0.689596
Si Si3 0.366329 0.468346 0.197544
Si Si4 0.532452 0.634372 0.444161
Si Si5 0.263755 0.901648 0.082621
Si Si6 0.093970 0.738601 0.934976
Si Si7 0.101617 0.733536 0.320559
Si Si8 0.163993 0.667936 0.830402
O O1 0.834781 0.165220 0.563333
O O2 0.697946 0.118595 0.631553
O O3 0.690900 0.122950 0.507563
O O4 0.700554 0.000000 0.563407
O O5 0.435596 0.871192 0.674848
O O6 0.536483 0.860193 0.757626
O O7 0.582059 0.000000 0.697342
O O8 0.432009 0.567992 0.203301
O O9 0.422991 0.422991 0.197720
O O10 0.314772 0.439068 0.131439
O O11 0.304159 0.425873 0.257304
O O12 0.432191 0.567810 0.443317
O O13 0.577328 0.577328 0.444506
O O14 0.569937 0.691833 0.381361
O O15 0.165145 0.834856 0.924753
O O16 0.293608 0.000000 0.095490
O O17 0.284463 0.896206 0.008146
O O18 0.164516 0.835485 0.091308
O O19 0.109969 0.684433 0.882631
O O20 0.000000 0.721469 0.928845
O O21 0.165716 0.834285 0.322174
O O22 0.000000 0.699318 0.321247
O O23 0.150514 0.575257 0.836839
O O24 0.260873 0.739128 0.841323
#
# Coordination Sequence:
#
# PCOD9584991 Si02
#       8
#    12  12  12  12  12  12  12  12
#     4  10  19  31  48  69  93 122 157 194 230 270
#     4   9  17  29  46  67  89 115 149 188 227 269
#     4   9  17  29  46  67  89 115 149 188 227 268
#     4   9  17  30  49  70  90 115 148 186 228 273
#     4   9  17  30  48  69  92 119 152 188 226 269
#     4   9  18  31  47  67  90 117 150 189 230 270
#     4  10  19  31  49  72  97 126 161 198 234 274
#     4  10  19  30  44  64  92 123 153 184 221 266
#
# _framework density 15.934642
#
# number of rings (size 3 to 8) (size 9 to 14) (size 15 to 20)
#    0.000    2.625    0.000    2.375    0.000    4.250 
#    0.000    1.250    0.000   10.750    0.000    1.750 
#    0.000    6.000    0.000    4.125    0.000    3.250 
#
# Total GULP energy -534517.410838 kJ/mol
# GULP energy per Si atom -5567.889696 kJ/mol
# Density = 1.589837 g / cm^3
# Si number density = 15.934642 Si / 1000 Ang^3
#
#
#
# Elastic Constant Matrix: (Units=GPa)
#
#
# Indices 1 2 3 4 5 6 
#
# 1 74.7438 46.6797 45.4826 0.0000 0.0000 0.0000
# 2 46.6797 74.7438 45.4826 0.0000 0.0000 0.0000
# 3 45.4826 45.4826 94.7754 0.0000 0.0000 0.0000
# 4 0.0000 0.0000 0.0000 16.2383 0.0000 0.0000
# 5 0.0000 0.0000 0.0000 0.0000 16.2383 0.0000
# 6 0.0000 0.0000 0.0000 0.0000 0.0000 14.0321
#
#
#
# Elastic Compliance Matrix: (Units=1/GPa)
#
#
# Indices 1 2 3 4 5 6 
#
# 1 0.024246 -0.011387 -0.006171 0.000000 0.000000 0.000000
# 2 -0.011387 0.024246 -0.006171 0.000000 0.000000 0.000000
# 3 -0.006171 -0.006171 0.016474 0.000000 0.000000 0.000000
# 4 0.000000 0.000000 0.000000 0.061583 0.000000 0.000000
# 5 0.000000 0.000000 0.000000 0.000000 0.061583 0.000000
# 6 0.000000 0.000000 0.000000 0.000000 0.000000 0.071265
#
#
# Mechanical properties :
#
#
# Convention : Reuss Voigt Hill
#
# Bulk Modulus (GPa) = 57.11719 57.72808 57.42263
# Shear Modulus (GPa) = 15.99034 16.40964 16.19999
#
# Velocity S-wave (km/s) = 3.17124 3.21254 3.19196
# Velocity P-wave (km/s) = 7.02364 7.07582 7.04978
#
# Compressibility (1/GPa) = 0.01750786
#
# Stress axis : x y z
#
# Youngs Moduli (GPa) = 41.24462 41.24462 60.70185
#
# Poissons Ratio (x) = 0.46965 0.37458
# Poissons Ratio (y) = 0.46965 0.37458
# Poissons Ratio (z) = 0.25451 0.25451
#
# Static dielectric constant tensor:
#      x y z
#    x 1.530910 0.000000 0.000000 
#    y 0.000000 1.530910 0.000000 
#    z 0.000000 0.000000 1.545260 
# 
# From -- ./inp_files/2982.got.cif
#   From: 2010.05.17/outbox.cif.g08.bks.cpg/sg183_2_cif.got.tgz:2982.got - 2010.05.20 12:02:58.
