data_PCOD9584731
_publ_section_title
;
Structure prediction by ZEFSAII (Michael W. Deem and Ramdas Pophale) SiO2 
 PCOD9584731
Probable space group: P 63 2 2
;
_chemical_formula_sum "Si O2"
_cell_formula_units_Z 42
_cell_length_a 8.321663
_cell_length_b 8.321663
_cell_length_c 32.251593
_cell_angle_alpha 90.000000
_cell_angle_beta 90.000000
_cell_angle_gamma 120.000000
_cell_volume 1934.202993
_symmetry_space_group_name_H-M "P 63 2 2"
_symmetry_group_IT_number 182
_symmetry_cell_setting 'hexagonal'
loop_
_space_group_symop_operation_xyz
x,y,z
x-y,x,1/2+z
-y,x-y,z
-x,-y,1/2+z
-x+y,-x,z
y,-x+y,1/2+z
x-y,-y,-z
-x,-x+y,-z
y,x,-z
-y,-x,1/2-z
-x+y,y,1/2-z
x,x-y,1/2-z
loop_
_atom_site_type_symbol
_atom_site_label
_atom_site_fract_x
_atom_site_fract_y
_atom_site_fract_z
Si Si1 0.336872 0.981672 0.129861
Si Si2 0.898712 0.381650 0.043362
Si Si3 0.122291 0.244581 0.750000
Si Si4 0.660385 0.968362 0.835391
O O1 0.132975 0.860358 0.149452
O O2 0.374213 0.964222 0.081710
O O3 0.475227 0.949650 0.158665
O O4 0.396484 0.196175 0.133631
O O5 0.816850 0.522931 0.045045
O O6 0.000000 0.406279 0.000000
O O7 0.222536 0.352212 0.791343
O O8 0.199062 0.099531 0.750000
#
# Coordination Sequence:
#
# PCOD9584731 Si02
#       4
#    12  12   6  12
#     4  12  24  45  69 104 140 192 235 294 358 437
#     4  10  23  41  65 101 141 181 236 290 351 423
#     4  10  20  44  66 100 132 172 228 290 356 412
#     4  12  24  44  73 100 145 185 240 296 359 432
#
# _framework density 21.714371
#
# number of rings (size 3 to 8) (size 9 to 14) (size 15 to 20)
#    0.857    0.000    5.714    1.714    4.000    1.143 
#    0.000    0.000    0.000    0.571    0.000    0.000 
#    0.000    0.000    0.000    0.000    0.000    0.000 
#
# Total GULP energy -233893.796582 kJ/mol
# GULP energy per Si atom -5568.899919 kJ/mol
# Density = 2.166495 g / cm^3
# Si number density = 21.714371 Si / 1000 Ang^3
#
#
#
# Elastic Constant Matrix: (Units=GPa)
#
#
# Indices 1 2 3 4 5 6 
#
# 1 62.1329 7.3723 37.3886 0.0000 0.0000 0.0000
# 2 7.3723 62.1329 37.3886 0.0000 0.0000 0.0000
# 3 37.3886 37.3886 223.7631 0.0000 0.0000 0.0000
# 4 0.0000 0.0000 0.0000 26.7690 0.0000 0.0000
# 5 0.0000 0.0000 0.0000 0.0000 26.7690 0.0000
# 6 0.0000 0.0000 0.0000 0.0000 0.0000 27.3803
#
#
#
# Elastic Compliance Matrix: (Units=1/GPa)
#
#
# Indices 1 2 3 4 5 6 
#
# 1 0.017901 -0.000360 -0.002931 0.000000 0.000000 0.000000
# 2 -0.000360 0.017901 -0.002931 0.000000 0.000000 0.000000
# 3 -0.002931 -0.002931 0.005448 0.000000 0.000000 0.000000
# 4 0.000000 0.000000 0.000000 0.037357 0.000000 0.000000
# 5 0.000000 0.000000 0.000000 0.000000 0.037357 0.000000
# 6 0.000000 0.000000 0.000000 0.000000 0.000000 0.036523
#
#
# Mechanical properties :
#
#
# Convention : Reuss Voigt Hill
#
# Bulk Modulus (GPa) = 34.71477 56.92530 45.82003
# Shear Modulus (GPa) = 28.64798 33.90896 31.27847
#
# Velocity S-wave (km/s) = 3.63617 3.95598 3.79944
# Velocity P-wave (km/s) = 5.80092 6.86577 6.35569
#
# Compressibility (1/GPa) = 0.02880618
#
# Stress axis : x y z
#
# Youngs Moduli (GPa) = 55.86300 55.86300 183.53855
#
# Poissons Ratio (x) = 0.02013 0.53793
# Poissons Ratio (y) = 0.02013 0.53793
# Poissons Ratio (z) = 0.16373 0.16373
#
# Static dielectric constant tensor:
#      x y z
#    x 1.817420 0.000000 0.000000 
#    y 0.000000 1.817420 0.000000 
#    z 0.000000 0.000000 1.850050 
# 
# From -- ./inp_files/5667.got.cif
#   From: 2010.05.17/outbox.cif.g08.bks.cpg/sg182_3_cif.got.tgz:5667.got - 2010.05.20 11:58:53.
