data_PCOD9584957
_publ_section_title
;
Structure prediction by ZEFSAII (Michael W. Deem and Ramdas Pophale) SiO2 
 PCOD9584957
Probable space group: P 6 M M
;
_chemical_formula_sum "Si O2"
_cell_formula_units_Z 96
_cell_length_a 23.033131
_cell_length_b 23.033131
_cell_length_c 12.643513
_cell_angle_alpha 90.000000
_cell_angle_beta 90.000000
_cell_angle_gamma 120.000000
_cell_volume 5809.039725
_symmetry_space_group_name_H-M "P 6 M M"
_symmetry_group_IT_number 183
_symmetry_cell_setting 'hexagonal'
loop_
_space_group_symop_operation_xyz
x,y,z
x-y,x,z
-y,x-y,z
-x,-y,z
-x+y,-x,z
y,-x+y,z
-x+y,y,z
x,x-y,z
-y,-x,z
y,x,z
x-y,-y,z
-x,-x+y,z
loop_
_atom_site_type_symbol
_atom_site_label
_atom_site_fract_x
_atom_site_fract_y
_atom_site_fract_z
Si Si1 0.150135 0.711092 0.262580
Si Si2 0.077488 0.417027 0.679313
Si Si3 0.663688 0.467458 0.815693
Si Si4 0.925559 0.674799 0.975600
Si Si5 0.305881 0.828561 0.035214
Si Si6 0.078126 0.607739 0.446203
Si Si7 0.282362 0.206012 0.208578
Si Si8 0.716988 0.792999 0.737976
O O1 0.225425 0.774576 0.274240
O O2 0.144896 0.671271 0.153653
O O3 0.125459 0.662008 0.361267
O O4 0.103281 0.744618 0.246843
O O5 0.134094 0.475012 0.750859
O O6 0.085358 0.444222 0.560525
O O7 0.085727 0.351689 0.687655
O O8 0.000000 0.391009 0.712951
O O9 0.737503 0.475006 0.806448
O O10 0.605650 0.394351 0.780574
O O11 0.651344 0.477502 0.938808
O O12 0.918302 0.703659 0.864770
O O13 0.000000 0.684650 0.974683
O O14 0.870007 0.598200 0.989926
O O15 0.922503 0.712510 0.080325
O O16 0.247316 0.752685 0.050987
O O17 0.091584 0.545792 0.455032
O O18 0.000000 0.575743 0.413753
O O19 0.262477 0.131239 0.242068
O O20 0.234184 0.234184 0.242350
O O21 0.731135 0.865568 0.704375
O O22 0.774271 0.774271 0.715271
#
# Coordination Sequence:
#
# PCOD9584957 Si02
#       8
#    12  12  12  12  12  12  12  12
#     4   9  18  32  52  76  98 125 164 207 248 292
#     4  10  21  36  54  75  97 128 168 212 259 297
#     4  11  22  35  52  73 101 134 167 204 248 302
#     4   9  15  24  42  68  97 126 159 201 250 298
#     4   9  17  30  47  68  97 128 161 203 247 289
#     4  10  21  37  54  72  99 131 161 196 243 303
#     4   9  16  26  43  68  98 130 165 207 253 298
#     4  10  18  29  48  74 102 131 166 206 250 298
#
# _framework density 16.525967000000001
#
# number of rings (size 3 to 8) (size 9 to 14) (size 15 to 20)
#    0.000    2.375    1.250    3.125    0.000    2.750 
#    0.000    0.000    0.000    0.500    0.000    0.000 
#    0.000    3.000    0.000    0.000    0.000   16.250 
#
# Total GULP energy -534762.761151 kJ/mol
# GULP energy per Si atom -5570.445429 kJ/mol
# Density = 1.648835 g / cm^3
# Si number density = 16.525967 Si / 1000 Ang^3
#
#
#
# Elastic Constant Matrix: (Units=GPa)
#
#
# Indices 1 2 3 4 5 6 
#
# 1 92.1300 54.3760 47.2534 0.0000 0.0000 0.0000
# 2 54.3760 92.1300 47.2534 0.0000 0.0000 0.0000
# 3 47.2534 47.2534 72.3232 0.0000 0.0000 0.0000
# 4 0.0000 0.0000 0.0000 10.1620 0.0000 0.0000
# 5 0.0000 0.0000 0.0000 0.0000 10.1620 0.0000
# 6 0.0000 0.0000 0.0000 0.0000 0.0000 18.8770
#
#
#
# Elastic Compliance Matrix: (Units=1/GPa)
#
#
# Indices 1 2 3 4 5 6 
#
# 1 0.019143 -0.007345 -0.007709 0.000000 0.000000 0.000000
# 2 -0.007345 0.019143 -0.007709 0.000000 0.000000 0.000000
# 3 -0.007709 -0.007709 0.023900 0.000000 0.000000 0.000000
# 4 0.000000 0.000000 0.000000 0.098406 0.000000 0.000000
# 5 0.000000 0.000000 0.000000 0.000000 0.098406 0.000000
# 6 0.000000 0.000000 0.000000 0.000000 0.000000 0.052975
#
#
# Mechanical properties :
#
#
# Convention : Reuss Voigt Hill
#
# Bulk Modulus (GPa) = 60.01651 61.59431 60.80541
# Shear Modulus (GPa) = 13.77223 15.02021 14.39622
#
# Velocity S-wave (km/s) = 2.88995 3.01804 2.95469
# Velocity P-wave (km/s) = 6.89428 7.03540 6.96520
#
# Compressibility (1/GPa) = 0.01666208
#
# Stress axis : x y z
#
# Youngs Moduli (GPa) = 52.23912 52.23912 41.84139
#
# Poissons Ratio (x) = 0.38367 0.32254
# Poissons Ratio (y) = 0.38367 0.32254
# Poissons Ratio (z) = 0.40269 0.40269
#
# Static dielectric constant tensor:
#      x y z
#    x 1.557870 0.000000 0.000000 
#    y 0.000000 1.557870 0.000000 
#    z 0.000000 0.000000 1.565780 
# 
# From -- ./inp_files/2075.got.cif
#   From: 2010.05.17/outbox.cif.g08.bks.cpg/sg183_2_cif.got.tgz:2075.got - 2010.05.20 12:02:58.
