data_PCOD9584053
_publ_section_title
;
Structure prediction by ZEFSAII (Michael W. Deem and Ramdas Pophale) SiO2 
 PCOD9584053
Probable space group: P 62 2 2
;
_chemical_formula_sum "Si O2"
_cell_formula_units_Z 60
_cell_length_a 11.955676
_cell_length_b 11.955676
_cell_length_c 26.658648
_cell_angle_alpha 90.000000
_cell_angle_beta 90.000000
_cell_angle_gamma 120.000000
_cell_volume 3300.023451
_symmetry_space_group_name_H-M "P 62 2 2"
_symmetry_group_IT_number 180
_symmetry_cell_setting 'hexagonal'
loop_
_space_group_symop_operation_xyz
x,y,z
x-y,x,1/3+z
-y,x-y,2/3+z
-x,-y,z
-x+y,-x,1/3+z
y,-x+y,2/3+z
x-y,-y,-z
-x,-x+y,1/3-z
y,x,2/3-z
-y,-x,2/3-z
-x+y,y,-z
x,x-y,1/3-z
loop_
_atom_site_type_symbol
_atom_site_label
_atom_site_fract_x
_atom_site_fract_y
_atom_site_fract_z
Si Si1 0.655048 0.978311 0.251893
Si Si2 0.608913 0.215808 0.878939
Si Si3 0.421140 0.639674 0.616952
Si Si4 0.323184 0.000472 0.133382
Si Si5 0.042508 0.893551 0.722654
O O1 0.517977 0.875717 0.277912
O O2 0.767138 0.963681 0.276549
O O3 0.679338 0.122222 0.257822
O O4 0.661498 0.958017 0.191960
O O5 0.696299 0.303702 0.833334
O O6 0.650998 0.317623 0.923046
O O7 0.457268 0.134446 0.868048
O O8 0.650459 0.109039 0.890443
O O9 0.449320 0.724660 0.666667
O O10 0.208468 0.995458 0.100464
O O11 0.000000 0.837078 0.666667
O O12 0.000000 0.000000 0.731300
#
# Coordination Sequence:
#
# PCOD9584053 Si02
#       5
#    12  12  12  12  12
#     4  11  22  43  64  92 126 176 219 256 330 399
#     4  11  18  36  61 102 129 156 205 267 328 381
#     4  11  23  37  65  95 131 168 207 264 328 393
#     4  11  21  37  71  94 132 167 216 272 323 392
#     4  11  26  43  63  91 133 173 222 277 325 388
#
# _framework density 18.181688999999999
#
# number of rings (size 3 to 8) (size 9 to 14) (size 15 to 20)
#    0.000    1.000    6.000    1.800    5.600    1.600 
#    0.000    2.000    0.000    0.000    0.000    0.000 
#    0.000    0.000    0.000    0.000    0.000    0.000 
#
# Total GULP energy -334205.897755 kJ/mol
# GULP energy per Si atom -5570.098296 kJ/mol
# Density = 1.814031 g / cm^3
# Si number density = 18.181689 Si / 1000 Ang^3
#
#
#
# Elastic Constant Matrix: (Units=GPa)
#
#
# Indices 1 2 3 4 5 6 
#
# 1 101.2436 45.9113 41.0217 0.0000 0.0000 0.0000
# 2 45.9113 101.2436 41.0217 0.0000 0.0000 0.0000
# 3 41.0217 41.0217 93.0450 0.0000 0.0000 0.0000
# 4 0.0000 0.0000 0.0000 24.3524 0.0000 0.0000
# 5 0.0000 0.0000 0.0000 0.0000 24.3524 0.0000
# 6 0.0000 0.0000 0.0000 0.0000 0.0000 27.6661
#
#
#
# Elastic Compliance Matrix: (Units=1/GPa)
#
#
# Indices 1 2 3 4 5 6 
#
# 1 0.013541 -0.004531 -0.003972 0.000000 0.000000 0.000000
# 2 -0.004531 0.013541 -0.003972 0.000000 0.000000 0.000000
# 3 -0.003972 -0.003972 0.014250 0.000000 0.000000 0.000000
# 4 0.000000 0.000000 0.000000 0.041064 0.000000 0.000000
# 5 0.000000 0.000000 0.000000 0.000000 0.041064 0.000000
# 6 0.000000 0.000000 0.000000 0.000000 0.000000 0.036145
#
#
# Mechanical properties :
#
#
# Convention : Reuss Voigt Hill
#
# Bulk Modulus (GPa) = 61.04628 61.27132 61.15880
# Shear Modulus (GPa) = 26.31325 26.44604 26.37964
#
# Velocity S-wave (km/s) = 3.80839 3.81798 3.81319
# Velocity P-wave (km/s) = 7.27922 7.29442 7.28682
#
# Compressibility (1/GPa) = 0.01638101
#
# Stress axis : x y z
#
# Youngs Moduli (GPa) = 73.84715 73.84715 70.17417
#
# Poissons Ratio (x) = 0.33461 0.27877
# Poissons Ratio (y) = 0.33461 0.27877
# Poissons Ratio (z) = 0.29336 0.29336
#
# Static dielectric constant tensor:
#      x y z
#    x 1.661920 0.000000 0.000000 
#    y 0.000000 1.661920 0.000000 
#    z 0.000000 0.000000 1.737270 
# 
# From -- ./inp_files/11212.got.cif
#   From: 2010.05.17/outbox.cif.g08.bks.cpg/sg180_6_cif.got.tgz:11212.got - 2010.05.20 11:43:55.
