data_PCOD9584715
_publ_section_title
;
Structure prediction by ZEFSAII (Michael W. Deem and Ramdas Pophale) SiO2 
 PCOD9584715
Probable space group: P 63 2 2
;
_chemical_formula_sum "Si O2"
_cell_formula_units_Z 42
_cell_length_a 11.708708
_cell_length_b 11.708708
_cell_length_c 17.389602
_cell_angle_alpha 90.000000
_cell_angle_beta 90.000000
_cell_angle_gamma 120.000000
_cell_volume 2064.610943
_symmetry_space_group_name_H-M "P 63 2 2"
_symmetry_group_IT_number 182
_symmetry_cell_setting 'hexagonal'
loop_
_space_group_symop_operation_xyz
x,y,z
x-y,x,1/2+z
-y,x-y,z
-x,-y,1/2+z
-x+y,-x,z
y,-x+y,1/2+z
x-y,-y,-z
-x,-x+y,-z
y,x,-z
-y,-x,1/2-z
-x+y,y,1/2-z
x,x-y,1/2-z
loop_
_atom_site_type_symbol
_atom_site_label
_atom_site_fract_x
_atom_site_fract_y
_atom_site_fract_z
Si Si1 0.429436 0.214718 0.750000
Si Si2 0.000000 0.000000 0.342144
Si Si3 0.374941 0.153803 0.024719
Si Si4 0.333334 0.666668 0.348412
Si Si5 0.228766 0.959435 0.381018
Si Si6 0.333334 0.666668 0.529277
O O1 0.530847 0.215680 0.813390
O O2 0.342224 0.259587 0.798911
O O3 0.852119 0.919490 0.372747
O O4 0.000000 0.000000 0.250000
O O5 0.309888 0.199978 0.090946
O O6 0.525441 0.209903 0.050038
O O7 0.363091 0.229080 0.948818
O O8 0.300715 0.000000 0.000000
O O9 0.333334 0.666667 0.437431
#
# Coordination Sequence:
#
# PCOD9584715 Si02
#       6
#     6   4  12   4  12   4
#     4  10  20  38  62  90 124 174 216 290 314 394
#     4  12  21  34  62  97 126 157 221 268 336 394
#     4  11  25  40  62  94 132 170 214 270 335 402
#     4  10  22  39  63  93 126 169 248 263 335 394
#     4  11  22  38  60  94 129 165 212 273 336 382
#     4  12  25  43  66  96 130 178 217 272 340 406
#
# _framework density 20.342818000000001
#
# number of rings (size 3 to 8) (size 9 to 14) (size 15 to 20)
#    0.000    1.143    7.143    0.000    4.000    0.000 
#    0.000    0.000    0.000    0.000    0.000    0.000 
#    0.000    0.000    0.000    0.000    0.000    0.000 
#
# Total GULP energy -233944.395502 kJ/mol
# GULP energy per Si atom -5570.104655 kJ/mol
# Density = 2.029652 g / cm^3
# Si number density = 20.342818 Si / 1000 Ang^3
#
#
#
# Elastic Constant Matrix: (Units=GPa)
#
#
# Indices 1 2 3 4 5 6 
#
# 1 89.8932 49.8871 22.1584 -0.0001 0.0001 0.0003
# 2 49.8871 89.8941 22.1586 -0.0003 0.0000 0.0004
# 3 22.1584 22.1586 73.9178 -0.0002 0.0000 0.0001
# 4 -0.0001 -0.0003 -0.0002 26.7350 0.0002 0.0001
# 5 0.0001 0.0000 0.0000 0.0002 26.7345 -0.0001
# 6 0.0003 0.0004 0.0001 0.0001 -0.0001 20.0038
#
#
#
# Elastic Compliance Matrix: (Units=1/GPa)
#
#
# Indices 1 2 3 4 5 6 
#
# 1 0.016451 -0.008545 -0.002370 0.000000 0.000000 0.000000
# 2 -0.008545 0.016451 -0.002370 0.000000 0.000000 0.000000
# 3 -0.002370 -0.002370 0.014949 0.000000 0.000000 0.000000
# 4 0.000000 0.000000 0.000000 0.037404 0.000000 0.000000
# 5 0.000000 0.000000 0.000000 0.000000 0.037405 0.000000
# 6 0.000000 0.000000 0.000000 0.000000 0.000000 0.049990
#
#
# Mechanical properties :
#
#
# Convention : Reuss Voigt Hill
#
# Bulk Modulus (GPa) = 46.99054 49.12370 48.05712
# Shear Modulus (GPa) = 24.23497 25.32808 24.78152
#
# Velocity S-wave (km/s) = 3.45531 3.53237 3.49405
# Velocity P-wave (km/s) = 6.25047 6.39040 6.32082
#
# Compressibility (1/GPa) = 0.02128088
#
# Stress axis : x y z
#
# Youngs Moduli (GPa) = 60.78761 60.78813 66.89256
#
# Poissons Ratio (x) = 0.51945 0.15852
# Poissons Ratio (y) = 0.51944 0.15852
# Poissons Ratio (z) = 0.14405 0.14406
#
# Static dielectric constant tensor:
#      x y z
#    x 1.759230 0.000000 0.000000 
#    y 0.000000 1.759230 0.000000 
#    z 0.000000 0.000000 1.754300 
# 
# From -- ./inp_files/4697.got.cif
#   From: 2010.05.17/outbox.cif.g08.bks.cpg/sg182_3_cif.got.tgz:4697.got - 2010.05.20 11:58:53.
