data_PCOD9584431
_publ_section_title
;
Structure prediction by ZEFSAII (Michael W. Deem and Ramdas Pophale) SiO2 
 PCOD9584431
Probable space group: P 64 2 2
;
_chemical_formula_sum "Si O2"
_cell_formula_units_Z 51
_cell_length_a 12.355674
_cell_length_b 12.355674
_cell_length_c 19.690903
_cell_angle_alpha 90.000000
_cell_angle_beta 90.000000
_cell_angle_gamma 120.000000
_cell_volume 2603.329542
_symmetry_space_group_name_H-M "P 64 2 2"
_symmetry_group_IT_number 181
_symmetry_cell_setting 'hexagonal'
loop_
_space_group_symop_operation_xyz
x,y,z
x-y,x,2/3+z
-y,x-y,1/3+z
-x,-y,z
-x+y,-x,2/3+z
y,-x+y,1/3+z
x-y,-y,-z
-x,-x+y,2/3-z
y,x,1/3-z
-y,-x,1/3-z
-x+y,y,-z
x,x-y,2/3-z
loop_
_atom_site_type_symbol
_atom_site_label
_atom_site_fract_x
_atom_site_fract_y
_atom_site_fract_z
Si Si1 0.388839 0.194420 0.333334
Si Si2 0.768791 0.963579 0.751681
Si Si3 0.644171 0.042966 0.857769
Si Si4 0.310057 0.862334 0.526419
Si Si5 0.278320 0.000000 0.000000
Si Si6 0.000000 0.000000 0.166667
O O1 0.300129 0.234159 0.371133
O O2 0.456167 0.296066 0.274303
O O3 0.743042 0.848098 0.703590
O O4 0.905944 0.019370 0.785498
O O5 0.679202 0.952628 0.814504
O O6 0.748211 0.181653 0.834853
O O7 0.669866 0.042898 0.937517
O O8 0.500000 0.000000 0.844885
O O9 0.426240 0.852479 0.500000
O O10 0.338591 0.000000 0.500000
#
# Coordination Sequence:
#
# PCOD9584431 Si02
#       6
#     6  12  12  12   6   3
#     4  10  22  39  66 102 127 178 218 286 362 410
#     4  11  23  38  67 102 141 167 234 285 367 423
#     4  11  25  44  62  97 141 180 228 287 345 428
#     4  10  23  46  69  96 131 177 239 293 337 420
#     4  12  21  43  64 100 128 189 217 284 346 428
#     4  12  20  38  64 104 140 176 210 306 356 416
#
# _framework density 19.590298000000001
#
# number of rings (size 3 to 8) (size 9 to 14) (size 15 to 20)
#    0.000    1.176    2.353    3.176    6.588    1.882 
#   29.647    0.000    0.000    0.000    0.000    0.000 
#    0.000    0.000    0.000    0.000    0.000    0.000 
#
# Total GULP energy -284323.482861 kJ/mol
# GULP energy per Si atom -5574.970252 kJ/mol
# Density = 1.954571 g / cm^3
# Si number density = 19.590298 Si / 1000 Ang^3
#
#
#
# Elastic Constant Matrix: (Units=GPa)
#
#
# Indices 1 2 3 4 5 6 
#
# 1 130.1006 69.8805 60.7992 0.0000 0.0000 0.0000
# 2 69.8805 130.1006 60.7992 0.0000 0.0000 0.0000
# 3 60.7992 60.7992 178.3741 0.0000 0.0000 0.0000
# 4 0.0000 0.0000 0.0000 44.9823 0.0000 0.0000
# 5 0.0000 0.0000 0.0000 0.0000 44.9823 0.0000
# 6 0.0000 0.0000 0.0000 0.0000 0.0000 30.1101
#
#
#
# Elastic Compliance Matrix: (Units=1/GPa)
#
#
# Indices 1 2 3 4 5 6 
#
# 1 0.011457 -0.005149 -0.002150 0.000000 0.000000 0.000000
# 2 -0.005149 0.011457 -0.002150 0.000000 0.000000 0.000000
# 3 -0.002150 -0.002150 0.007072 0.000000 0.000000 0.000000
# 4 0.000000 0.000000 0.000000 0.022231 0.000000 0.000000
# 5 0.000000 0.000000 0.000000 0.000000 0.022231 0.000000
# 6 0.000000 0.000000 0.000000 0.000000 0.000000 0.033211
#
#
# Mechanical properties :
#
#
# Convention : Reuss Voigt Hill
#
# Bulk Modulus (GPa) = 90.19279 91.28147 90.73713
# Shear Modulus (GPa) = 38.38694 40.48805 39.43750
#
# Velocity S-wave (km/s) = 4.43141 4.55107 4.49164
# Velocity P-wave (km/s) = 8.50427 8.62048 8.56258
#
# Compressibility (1/GPa) = 0.01108736
#
# Stress axis : x y z
#
# Youngs Moduli (GPa) = 87.28466 87.28466 141.40515
#
# Poissons Ratio (x) = 0.44943 0.30402
# Poissons Ratio (y) = 0.44943 0.30402
# Poissons Ratio (z) = 0.18766 0.18766
#
# Static dielectric constant tensor:
#      x y z
#    x 1.708090 0.000000 0.000000 
#    y 0.000000 1.708090 0.000000 
#    z 0.000000 0.000000 1.771130 
# 
# From -- ./inp_files/8883.got.cif
#   From: 2010.05.17/outbox.cif.g08.bks.cpg/sg181_5_cif.got.tgz:8883.got - 2010.05.20 11:51:17.
