data_PCOD9584048
_publ_section_title
;
Structure prediction by ZEFSAII (Michael W. Deem and Ramdas Pophale) SiO2 
 PCOD9584048
Probable space group: P 62 2 2
;
_chemical_formula_sum "Si O2"
_cell_formula_units_Z 48
_cell_length_a 13.062508
_cell_length_b 13.062508
_cell_length_c 14.488869
_cell_angle_alpha 90.000000
_cell_angle_beta 90.000000
_cell_angle_gamma 120.000000
_cell_volume 2141.007834
_symmetry_space_group_name_H-M "P 62 2 2"
_symmetry_group_IT_number 180
_symmetry_cell_setting 'hexagonal'
loop_
_space_group_symop_operation_xyz
x,y,z
x-y,x,1/3+z
-y,x-y,2/3+z
-x,-y,z
-x+y,-x,1/3+z
y,-x+y,2/3+z
x-y,-y,-z
-x,-x+y,1/3-z
y,x,2/3-z
-y,-x,2/3-z
-x+y,y,-z
x,x-y,1/3-z
loop_
_atom_site_type_symbol
_atom_site_label
_atom_site_fract_x
_atom_site_fract_y
_atom_site_fract_z
Si Si1 0.000000 0.000000 0.000000
Si Si2 0.500000 0.000000 0.000000
Si Si3 0.912684 0.087317 0.833334
Si Si4 0.725067 0.201621 0.495025
Si Si5 0.003586 0.355892 0.819652
Si Si6 0.617671 0.620639 0.968945
O O1 0.898135 0.921496 0.073869
O O2 0.607553 0.057478 0.926735
O O3 0.973987 0.223378 0.803826
O O4 0.613605 0.227209 0.500000
O O5 0.856412 0.309906 0.509023
O O6 0.713902 0.125030 0.403250
O O7 0.713905 0.110290 0.574741
O O8 0.965918 0.354699 0.924738
O O9 0.500000 0.500000 0.945528
#
# Coordination Sequence:
#
# PCOD9584048 Si02
#       6
#     3   3   6  12  12  12
#     4  10  26  50  64 122 132 194 254 294 362 464
#     4  12  30  48  60  98 144 188 250 276 368 458
#     4  11  28  44  78  98 156 190 246 303 378 444
#     4   9  21  41  72 103 131 171 235 295 359 425
#     4  12  25  46  66 101 141 193 229 299 363 434
#     4   9  19  40  67 100 132 173 228 286 348 431
#
# _framework density 22.419347999999999
#
# number of rings (size 3 to 8) (size 9 to 14) (size 15 to 20)
#    0.000    1.750    1.250    3.000   10.500    2.000 
#   11.250    0.000    0.000    0.000    0.000    0.000 
#    0.000    0.000    0.000    0.000    0.000    0.000 
#
# Total GULP energy -267253.402725 kJ/mol
# GULP energy per Si atom -5567.779223 kJ/mol
# Density = 2.236832 g / cm^3
# Si number density = 22.419348 Si / 1000 Ang^3
#
#
#
# Elastic Constant Matrix: (Units=GPa)
#
#
# Indices 1 2 3 4 5 6 
#
# 1 66.7218 38.2382 32.3294 0.0000 0.0000 0.0000
# 2 38.2382 66.7218 32.3294 0.0000 0.0000 0.0000
# 3 32.3294 32.3294 185.1088 0.0000 0.0000 0.0000
# 4 0.0000 0.0000 0.0000 17.4471 0.0000 0.0000
# 5 0.0000 0.0000 0.0000 0.0000 17.4471 0.0000
# 6 0.0000 0.0000 0.0000 0.0000 0.0000 14.2418
#
#
#
# Elastic Compliance Matrix: (Units=1/GPa)
#
#
# Indices 1 2 3 4 5 6 
#
# 1 0.022892 -0.012216 -0.001865 0.000000 0.000000 0.000000
# 2 -0.012216 0.022892 -0.001865 0.000000 0.000000 0.000000
# 3 -0.001865 -0.001865 0.006054 0.000000 0.000000 0.000000
# 4 0.000000 0.000000 0.000000 0.057316 0.000000 0.000000
# 5 0.000000 0.000000 0.000000 0.000000 0.057316 0.000000
# 6 0.000000 0.000000 0.000000 0.000000 0.000000 0.070216
#
#
# Mechanical properties :
#
#
# Convention : Reuss Voigt Hill
#
# Bulk Modulus (GPa) = 50.13198 58.26071 54.19635
# Shear Modulus (GPa) = 18.16695 24.20423 21.18559
#
# Velocity S-wave (km/s) = 2.84971 3.28931 3.07737
# Velocity P-wave (km/s) = 5.76519 6.36155 6.07069
#
# Compressibility (1/GPa) = 0.01994735
#
# Stress axis : x y z
#
# Youngs Moduli (GPa) = 43.68339 43.68339 165.19294
#
# Poissons Ratio (x) = 0.53363 0.30802
# Poissons Ratio (y) = 0.53363 0.30802
# Poissons Ratio (z) = 0.08145 0.08145
#
# Static dielectric constant tensor:
#      x y z
#    x 1.996390 0.000000 0.000000 
#    y 0.000000 1.996390 0.000000 
#    z 0.000000 0.000000 1.783450 
# 
# From -- ./inp_files/5910.got.cif
#   From: 2010.05.17/outbox.cif.g08.bks.cpg/sg180_3_cif.got.tgz:5910.got - 2010.05.20 11:43:55.
