data_PCOD9584609
_publ_section_title
;
Structure prediction by ZEFSAII (Michael W. Deem and Ramdas Pophale) SiO2 
 PCOD9584609
Probable space group: P 63 2 2
;
_chemical_formula_sum "Si O2"
_cell_formula_units_Z 64
_cell_length_a 15.867963
_cell_length_b 15.867963
_cell_length_c 16.701808
_cell_angle_alpha 90.000000
_cell_angle_beta 90.000000
_cell_angle_gamma 120.000000
_cell_volume 3641.970946
_symmetry_space_group_name_H-M "P 63 2 2"
_symmetry_group_IT_number 182
_symmetry_cell_setting 'hexagonal'
loop_
_space_group_symop_operation_xyz
x,y,z
x-y,x,1/2+z
-y,x-y,z
-x,-y,1/2+z
-x+y,-x,z
y,-x+y,1/2+z
x-y,-y,-z
-x,-x+y,-z
y,x,-z
-y,-x,1/2-z
-x+y,y,1/2-z
x,x-y,1/2-z
loop_
_atom_site_type_symbol
_atom_site_label
_atom_site_fract_x
_atom_site_fract_y
_atom_site_fract_z
Si Si1 0.178358 0.024338 0.322231
Si Si2 0.634883 0.024508 0.408909
Si Si3 0.000000 0.000000 0.593877
Si Si4 0.205560 0.384947 0.846708
Si Si5 0.524749 0.573033 0.670437
Si Si6 0.633834 0.909790 0.254019
O O1 0.159855 0.079928 0.250000
O O2 0.272767 0.105298 0.369531
O O3 0.081211 0.976059 0.373646
O O4 0.213727 0.954520 0.284991
O O5 0.718950 0.133880 0.387300
O O6 0.532474 0.019428 0.391867
O O7 0.643210 0.000000 0.500000
O O8 0.643160 0.953524 0.343203
O O9 0.000000 0.000000 0.500000
O O10 0.192220 0.384440 0.750000
O O11 0.320650 0.448391 0.860776
O O12 0.456872 0.543129 0.750000
O O13 0.624731 0.581101 0.702578
O O14 0.588237 0.794119 0.250000
#
# Coordination Sequence:
#
# PCOD9584609 Si02
#       6
#    12  12   4  12  12  12
#     4  10  18  35  54  75 110 153 193 225 267 338
#     4  11  22  39  61  89 121 148 191 257 303 336
#     4  12  25  32  46  81 124 152 187 240 283 320
#     4  10  17  36  62  86 112 151 198 233 288 362
#     4   9  18  36  61  86 117 150 197 241 294 359
#     4  10  19  36  61  83 107 162 201 221 277 361
#
# _framework density 17.572901999999999
#
# number of rings (size 3 to 8) (size 9 to 14) (size 15 to 20)
#    0.000    1.875    7.500    1.688    0.000    0.750 
#    4.500    2.812    0.000   10.125    0.000    0.000 
#    0.000    0.000    0.000    0.000    0.000    0.000 
#
# Total GULP energy -356781.140146 kJ/mol
# GULP energy per Si atom -5574.705315 kJ/mol
# Density = 1.753291 g / cm^3
# Si number density = 17.572902 Si / 1000 Ang^3
#
#
#
# Elastic Constant Matrix: (Units=GPa)
#
#
# Indices 1 2 3 4 5 6 
#
# 1 90.4849 51.1105 41.3941 0.0000 0.0000 0.0000
# 2 51.1105 90.4849 41.3941 0.0000 0.0000 0.0000
# 3 41.3941 41.3941 81.7415 0.0000 0.0000 0.0000
# 4 0.0000 0.0000 0.0000 12.7703 0.0000 0.0000
# 5 0.0000 0.0000 0.0000 0.0000 12.7703 0.0000
# 6 0.0000 0.0000 0.0000 0.0000 0.0000 19.6872
#
#
#
# Elastic Compliance Matrix: (Units=1/GPa)
#
#
# Indices 1 2 3 4 5 6 
#
# 1 0.017715 -0.007682 -0.005081 0.000000 0.000000 0.000000
# 2 -0.007682 0.017715 -0.005081 0.000000 0.000000 0.000000
# 3 -0.005081 -0.005081 0.017379 0.000000 0.000000 0.000000
# 4 0.000000 0.000000 0.000000 0.078307 0.000000 0.000000
# 5 0.000000 0.000000 0.000000 0.000000 0.078307 0.000000
# 6 0.000000 0.000000 0.000000 0.000000 0.000000 0.050794
#
#
# Mechanical properties :
#
#
# Convention : Reuss Voigt Hill
#
# Bulk Modulus (GPa) = 58.40259 58.94541 58.67400
# Shear Modulus (GPa) = 16.57760 17.63307 17.10533
#
# Velocity S-wave (km/s) = 3.07475 3.17112 3.12331
# Velocity P-wave (km/s) = 6.77584 6.85742 6.81675
#
# Compressibility (1/GPa) = 0.01712253
#
# Stress axis : x y z
#
# Youngs Moduli (GPa) = 56.44901 56.44901 57.53914
#
# Poissons Ratio (x) = 0.43365 0.29234
# Poissons Ratio (y) = 0.43365 0.29234
# Poissons Ratio (z) = 0.28680 0.28680
#
# Static dielectric constant tensor:
#      x y z
#    x 1.637420 0.000000 0.000000 
#    y 0.000000 1.637420 0.000000 
#    z 0.000000 0.000000 1.594030 
# 
# From -- ./inp_files/4270.got.cif
#   From: 2010.05.17/outbox.cif.g08.bks.cpg/sg182_3_cif.got.tgz:4270.got - 2010.05.20 11:58:53.
