data_PCOD9584175
_publ_section_title
;
Structure prediction by ZEFSAII (Michael W. Deem and Ramdas Pophale) SiO2 
 PCOD9584175
Probable space group: P 62 2 2
;
_chemical_formula_sum "Si O2"
_cell_formula_units_Z 18
_cell_length_a 7.143024
_cell_length_b 7.143024
_cell_length_c 20.973666
_cell_angle_alpha 90.000000
_cell_angle_beta 90.000000
_cell_angle_gamma 120.000000
_cell_volume 926.764091
_symmetry_space_group_name_H-M "P 62 2 2"
_symmetry_group_IT_number 180
_symmetry_cell_setting 'hexagonal'
loop_
_space_group_symop_operation_xyz
x,y,z
x-y,x,1/3+z
-y,x-y,2/3+z
-x,-y,z
-x+y,-x,1/3+z
y,-x+y,2/3+z
x-y,-y,-z
-x,-x+y,1/3-z
y,x,2/3-z
-y,-x,2/3-z
-x+y,y,-z
x,x-y,1/3-z
loop_
_atom_site_type_symbol
_atom_site_label
_atom_site_fract_x
_atom_site_fract_y
_atom_site_fract_z
Si Si1 0.000000 0.000000 0.333334
Si Si2 0.000000 0.500000 0.166667
Si Si3 0.293565 0.027468 0.778042
O O1 0.960794 0.807172 0.380521
O O2 0.874372 0.589249 0.123800
O O3 0.500000 0.000000 0.775575
O O4 0.124903 0.875098 0.833334
#
# Coordination Sequence:
#
# PCOD9584175 Si02
#       3
#     3   3  12
#     4  12  26  44  70 116 136 174 246 292 336 422
#     4  12  22  48  72  96 144 188 226 282 352 420
#     4  12  26  46  71 102 144 189 231 288 357 417
#
# _framework density 19.422416999999999
#
# number of rings (size 3 to 8) (size 9 to 14) (size 15 to 20)
#    0.000    0.000   10.000    0.000    4.667    0.000 
#    0.000    3.333    0.000    0.000    0.000    0.000 
#    0.000    0.000    0.000    0.000    0.000    0.000 
#
# Total GULP energy -100304.486369 kJ/mol
# GULP energy per Si atom -5572.471465 kJ/mol
# Density = 1.937821 g / cm^3
# Si number density = 19.422417 Si / 1000 Ang^3
#
#
#
# Elastic Constant Matrix: (Units=GPa)
#
#
# Indices 1 2 3 4 5 6 
#
# 1 165.3937 72.7754 71.6009 0.0000 0.0000 0.0000
# 2 72.7754 165.3937 71.6009 0.0000 0.0000 0.0000
# 3 71.6009 71.6009 164.4711 0.0000 0.0000 0.0000
# 4 0.0000 0.0000 0.0000 10.3654 0.0000 0.0000
# 5 0.0000 0.0000 0.0000 0.0000 10.3654 0.0000
# 6 0.0000 0.0000 0.0000 0.0000 0.0000 46.3091
#
#
#
# Elastic Compliance Matrix: (Units=1/GPa)
#
#
# Indices 1 2 3 4 5 6 
#
# 1 0.008242 -0.002555 -0.002476 0.000000 0.000000 0.000000
# 2 -0.002555 0.008242 -0.002476 0.000000 0.000000 0.000000
# 3 -0.002476 -0.002476 0.008236 0.000000 0.000000 0.000000
# 4 0.000000 0.000000 0.000000 0.096475 0.000000 0.000000
# 5 0.000000 0.000000 0.000000 0.000000 0.096475 0.000000
# 6 0.000000 0.000000 0.000000 0.000000 0.000000 0.021594
#
#
# Mechanical properties :
#
#
# Convention : Reuss Voigt Hill
#
# Bulk Modulus (GPa) = 103.02016 103.02364 103.02190
# Shear Modulus (GPa) = 19.41652 32.02674 25.72163
#
# Velocity S-wave (km/s) = 3.16523 4.06514 3.64308
# Velocity P-wave (km/s) = 8.15569 8.67137 8.41748
#
# Compressibility (1/GPa) = 0.00970684
#
# Stress axis : x y z
#
# Youngs Moduli (GPa) = 121.32685 121.32685 121.42027
#
# Poissons Ratio (x) = 0.30997 0.30063
# Poissons Ratio (y) = 0.30997 0.30063
# Poissons Ratio (z) = 0.30040 0.30040
#
# Static dielectric constant tensor:
#      x y z
#    x 1.768790 0.000000 0.000000 
#    y 0.000000 1.768790 0.000000 
#    z 0.000000 0.000000 1.680460 
# 
# From -- ./inp_files/6622.got.cif
#   From: 2010.05.17/outbox.cif.g08.bks.cpg/sg180_4_cif.got.tgz:6622.got - 2010.05.20 11:43:55.
