data_PCOD9584690
_publ_section_title
;
Structure prediction by ZEFSAII (Michael W. Deem and Ramdas Pophale) SiO2 
 PCOD9584690
Probable space group: P 63 2 2
;
_chemical_formula_sum "Si O2"
_cell_formula_units_Z 46
_cell_length_a 17.379276
_cell_length_b 17.379276
_cell_length_c 8.808211
_cell_angle_alpha 90.000000
_cell_angle_beta 90.000000
_cell_angle_gamma 120.000000
_cell_volume 2303.995900
_symmetry_space_group_name_H-M "P 63 2 2"
_symmetry_group_IT_number 182
_symmetry_cell_setting 'hexagonal'
loop_
_space_group_symop_operation_xyz
x,y,z
x-y,x,1/2+z
-y,x-y,z
-x,-y,1/2+z
-x+y,-x,z
y,-x+y,1/2+z
x-y,-y,-z
-x,-x+y,-z
y,x,-z
-y,-x,1/2-z
-x+y,y,1/2-z
x,x-y,1/2-z
loop_
_atom_site_type_symbol
_atom_site_label
_atom_site_fract_x
_atom_site_fract_y
_atom_site_fract_z
Si Si1 0.159633 0.002481 0.327380
Si Si2 0.537275 0.135342 0.572493
Si Si3 0.666666 0.333333 0.933930
Si Si4 0.635651 0.726082 0.278660
Si Si5 0.410237 0.000000 0.000000
O O1 0.194416 0.097208 0.250000
O O2 0.134621 0.000000 0.500000
O O3 0.228880 0.967422 0.317968
O O4 0.069725 0.930276 0.250000
O O5 0.566653 0.133305 0.750000
O O6 0.588506 0.236920 0.520392
O O7 0.432802 0.097831 0.591291
O O8 0.568058 0.079336 0.469710
O O9 0.666668 0.333334 0.750000
O O10 0.616487 0.808244 0.250000
O O11 0.621208 0.662901 0.133064
#
# Coordination Sequence:
#
# PCOD9584690 Si02
#       5
#    12  12   4  12   6
#     4  11  25  43  68  95 131 170 219 269 335 403
#     4   9  17  32  53  86 119 164 211 270 328 390
#     4   9  15  30  57  84 118 158 220 267 322 404
#     4  10  22  37  62  89 130 174 223 272 338 406
#     4  10  20  34  58  88 132 166 222 280 326 392
#
# _framework density 19.965312999999998
#
# number of rings (size 3 to 8) (size 9 to 14) (size 15 to 20)
#    0.000    2.087    0.000    4.957    9.130    0.000 
#    0.000    0.000    0.000    0.000    0.000    0.000 
#    0.000    0.000    0.000    0.000    0.000    0.000 
#
# Total GULP energy -256467.614899 kJ/mol
# GULP energy per Si atom -5575.382933 kJ/mol
# Density = 1.991987 g / cm^3
# Si number density = 19.965313 Si / 1000 Ang^3
#
#
#
# Elastic Constant Matrix: (Units=GPa)
#
#
# Indices 1 2 3 4 5 6 
#
# 1 122.8918 64.7071 43.9108 0.0001 0.0000 -0.0001
# 2 64.7071 122.8915 43.9109 -0.0001 0.0000 -0.0001
# 3 43.9108 43.9109 74.3164 0.0000 0.0000 0.0000
# 4 0.0001 -0.0001 0.0000 18.4278 0.0000 0.0000
# 5 0.0000 0.0000 0.0000 0.0000 18.4276 -0.0001
# 6 -0.0001 -0.0001 0.0000 0.0000 -0.0001 29.0925
#
#
#
# Elastic Compliance Matrix: (Units=1/GPa)
#
#
# Indices 1 2 3 4 5 6 
#
# 1 0.012278 -0.004909 -0.004354 0.000000 0.000000 0.000000
# 2 -0.004909 0.012278 -0.004354 0.000000 0.000000 0.000000
# 3 -0.004354 -0.004354 0.018601 0.000000 0.000000 0.000000
# 4 0.000000 0.000000 0.000000 0.054266 0.000000 0.000000
# 5 0.000000 0.000000 0.000000 0.000000 0.054266 0.000000
# 6 0.000000 0.000000 0.000000 0.000000 0.000000 0.034373
#
#
# Mechanical properties :
#
#
# Convention : Reuss Voigt Hill
#
# Bulk Modulus (GPa) = 62.80251 69.46192 66.13221
# Shear Modulus (GPa) = 22.87248 24.36097 23.61673
#
# Velocity S-wave (km/s) = 3.38836 3.49688 3.44304
# Velocity P-wave (km/s) = 6.84340 7.15339 7.00011
#
# Compressibility (1/GPa) = 0.01592293
#
# Stress axis : x y z
#
# Youngs Moduli (GPa) = 81.44850 81.44816 53.76013
#
# Poissons Ratio (x) = 0.39983 0.23407
# Poissons Ratio (y) = 0.39983 0.23407
# Poissons Ratio (z) = 0.35462 0.35462
#
# Static dielectric constant tensor:
#      x y z
#    x 1.726540 0.000000 0.000000 
#    y 0.000000 1.726540 0.000000 
#    z 0.000000 0.000000 1.698630 
# 
# From -- ./inp_files/1488.got.cif
#   From: 2010.05.17/outbox.cif.g08.bks.cpg/sg182_1_cif.got.tgz:1488.got - 2010.05.20 11:58:53.
