data_PCOD9584236
_publ_section_title
;
Structure prediction by ZEFSAII (Michael W. Deem and Ramdas Pophale) SiO2 
 PCOD9584236
Probable space group: P 64 2 2
;
_chemical_formula_sum "Si O2"
_cell_formula_units_Z 84
_cell_length_a 14.147788
_cell_length_b 14.147788
_cell_length_c 22.564472
_cell_angle_alpha 90.000000
_cell_angle_beta 90.000000
_cell_angle_gamma 120.000000
_cell_volume 3911.405969
_symmetry_space_group_name_H-M "P 64 2 2"
_symmetry_group_IT_number 181
_symmetry_cell_setting 'hexagonal'
loop_
_space_group_symop_operation_xyz
x,y,z
x-y,x,2/3+z
-y,x-y,1/3+z
-x,-y,z
-x+y,-x,2/3+z
y,-x+y,1/3+z
x-y,-y,-z
-x,-x+y,2/3-z
y,x,1/3-z
-y,-x,1/3-z
-x+y,y,-z
x,x-y,2/3-z
loop_
_atom_site_type_symbol
_atom_site_label
_atom_site_fract_x
_atom_site_fract_y
_atom_site_fract_z
Si Si1 0.254877 0.627274 0.227492
Si Si2 0.572799 0.947544 0.934397
Si Si3 0.056537 0.620885 0.607317
Si Si4 0.371304 0.144990 0.444657
Si Si5 0.362896 0.234467 0.558678
Si Si6 0.587974 0.431560 0.061853
Si Si7 0.719280 0.659470 0.298108
O O1 0.306626 0.693374 0.166667
O O2 0.179688 0.666910 0.260442
O O3 0.187512 0.495106 0.217620
O O4 0.351485 0.636684 0.268204
O O5 0.500000 0.000000 0.913332
O O6 0.680176 0.000540 0.894080
O O7 0.609808 0.000000 0.000000
O O8 0.142582 0.730800 0.575455
O O9 0.117376 0.611720 0.666180
O O10 0.000000 0.500000 0.578082
O O11 0.964130 0.643185 0.634569
O O12 0.321508 0.143068 0.508069
O O13 0.479546 0.134073 0.445616
O O14 0.295807 0.050423 0.398534
O O15 0.331912 0.165898 0.619353
O O16 0.457559 0.363850 0.066337
#
# Coordination Sequence:
#
# PCOD9584236 Si02
#       7
#    12  12  12  12  12  12  12
#     4  10  18  34  52  77  99 136 193 231 278 333
#     4   9  20  39  52  68 102 145 187 242 288 345
#     4   9  19  33  46  75 117 155 185 223 271 331
#     4  11  18  31  50  76 114 147 178 224 273 327
#     4  10  20  33  50  74 103 138 184 227 284 322
#     4   9  17  31  47  75 104 148 186 218 265 333
#     4   9  18  31  49  72 108 146 188 212 263 342
#
# _framework density 21.475653000000001
#
# number of rings (size 3 to 8) (size 9 to 14) (size 15 to 20)
#    0.000    2.429    1.429    3.429    0.000    1.714 
#   18.000    2.857    0.000    0.000    0.000    0.000 
#    0.000   13.714    0.000    0.571    0.000    0.000 
#
# Total GULP energy -468005.592442 kJ/mol
# GULP energy per Si atom -5571.495148 kJ/mol
# Density = 2.142677 g / cm^3
# Si number density = 21.475653 Si / 1000 Ang^3
#
#
#
# Elastic Constant Matrix: (Units=GPa)
#
#
# Indices 1 2 3 4 5 6 
#
# 1 74.2751 18.0792 10.1816 0.0000 0.0000 0.0000
# 2 18.0792 74.2751 10.1816 0.0000 0.0000 0.0000
# 3 10.1816 10.1816 35.3450 0.0000 0.0000 0.0000
# 4 0.0000 0.0000 0.0000 13.9121 0.0000 0.0000
# 5 0.0000 0.0000 0.0000 0.0000 13.9121 0.0000
# 6 0.0000 0.0000 0.0000 0.0000 0.0000 28.0980
#
#
#
# Elastic Compliance Matrix: (Units=1/GPa)
#
#
# Indices 1 2 3 4 5 6 
#
# 1 0.014679 -0.003116 -0.003331 0.000000 0.000000 0.000000
# 2 -0.003116 0.014679 -0.003331 0.000000 0.000000 0.000000
# 3 -0.003331 -0.003331 0.030211 0.000000 0.000000 0.000000
# 4 0.000000 0.000000 0.000000 0.071880 0.000000 0.000000
# 5 0.000000 0.000000 0.000000 0.000000 0.071880 0.000000
# 6 0.000000 0.000000 0.000000 0.000000 0.000000 0.035590
#
#
# Mechanical properties :
#
#
# Convention : Reuss Voigt Hill
#
# Bulk Modulus (GPa) = 24.99171 28.97556 26.98364
# Shear Modulus (GPa) = 18.39511 20.88128 19.63819
#
# Velocity S-wave (km/s) = 2.92987 3.12159 3.02725
# Velocity P-wave (km/s) = 4.80708 5.14918 4.98107
#
# Compressibility (1/GPa) = 0.04001326
#
# Stress axis : x y z
#
# Youngs Moduli (GPa) = 68.12656 68.12656 33.10010
#
# Poissons Ratio (x) = 0.21230 0.11024
# Poissons Ratio (y) = 0.21230 0.11024
# Poissons Ratio (z) = 0.22691 0.22691
#
# Static dielectric constant tensor:
#      x y z
#    x 1.815550 0.000000 0.000000 
#    y 0.000000 1.815550 0.000000 
#    z 0.000000 0.000000 1.884380 
# 
# From -- ./inp_files/11359.got.cif
#   From: 2010.05.17/outbox.cif.g08.bks.cpg/sg181_6_cif.got.tgz:11359.got - 2010.05.20 11:51:17.
