data_PCOD9584360
_publ_section_title
;
Structure prediction by ZEFSAII (Michael W. Deem and Ramdas Pophale) SiO2 
 PCOD9584360
Probable space group: P 64 2 2
;
_chemical_formula_sum "Si O2"
_cell_formula_units_Z 69
_cell_length_a 17.941666
_cell_length_b 17.941666
_cell_length_c 14.387172
_cell_angle_alpha 90.000000
_cell_angle_beta 90.000000
_cell_angle_gamma 120.000000
_cell_volume 4010.805508
_symmetry_space_group_name_H-M "P 64 2 2"
_symmetry_group_IT_number 181
_symmetry_cell_setting 'hexagonal'
loop_
_space_group_symop_operation_xyz
x,y,z
x-y,x,2/3+z
-y,x-y,1/3+z
-x,-y,z
-x+y,-x,2/3+z
y,-x+y,1/3+z
x-y,-y,-z
-x,-x+y,2/3-z
y,x,1/3-z
-y,-x,1/3-z
-x+y,y,-z
x,x-y,2/3-z
loop_
_atom_site_type_symbol
_atom_site_label
_atom_site_fract_x
_atom_site_fract_y
_atom_site_fract_z
Si Si1 0.145553 0.812611 0.319603
Si Si2 0.594340 0.881290 0.176472
Si Si3 0.381249 0.082428 0.809925
Si Si4 0.556101 0.105111 0.108207
Si Si5 0.000000 0.000000 0.666667
Si Si6 0.979404 0.824466 0.728694
Si Si7 0.308543 0.154272 0.333334
O O1 0.129057 0.749445 0.405116
O O2 0.089609 0.761737 0.230340
O O3 0.241674 0.864168 0.277074
O O4 0.129054 0.886346 0.358114
O O5 0.495245 0.857827 0.165996
O O6 0.629458 0.835323 0.246611
O O7 0.642458 0.981318 0.207266
O O8 0.478538 0.123406 0.846364
O O9 0.500000 0.000000 0.107710
O O10 0.565919 0.131838 0.000000
O O11 0.015823 0.083691 0.722947
O O12 0.000000 0.812522 0.833334
O O13 0.052330 0.814549 0.673538
#
# Coordination Sequence:
#
# PCOD9584360 Si02
#       7
#    12  12  12  12   3  12   6
#     4  11  21  32  57  82 115 150 195 247 293 336
#     4  11  20  35  57  82 112 150 189 239 284 349
#     4  10  21  35  54  87 111 141 187 245 305 342
#     4   9  17  33  57  81 106 126 167 232 299 348
#     4  10  26  36  48  74 108 168 220 258 304 326
#     4  11  22  38  50  72 113 165 210 253 284 330
#     4  11  22  35  52  78 114 162 206 230 279 328
#
# _framework density 17.203527000000001
#
# number of rings (size 3 to 8) (size 9 to 14) (size 15 to 20)
#    0.000    1.565    5.217    0.783    2.435    0.000 
#    3.130    0.000    0.000    5.217    0.000    4.870 
#    0.000    0.000    0.000    0.000    0.000    0.000 
#
# Total GULP energy -384179.490513 kJ/mol
# GULP energy per Si atom -5567.818703 kJ/mol
# Density = 1.716437 g / cm^3
# Si number density = 17.203527 Si / 1000 Ang^3
#
#
#
# Elastic Constant Matrix: (Units=GPa)
#
#
# Indices 1 2 3 4 5 6 
#
# 1 60.6844 21.6614 9.5062 0.0000 0.0000 0.0000
# 2 21.6614 60.6844 9.5062 0.0000 0.0000 0.0000
# 3 9.5062 9.5062 33.9846 0.0000 0.0000 0.0000
# 4 0.0000 0.0000 0.0000 707.2234 0.0001 0.0000
# 5 0.0000 0.0000 0.0000 0.0001 707.2233 0.0000
# 6 0.0000 0.0000 0.0000 0.0000 0.0000 19.5115
#
#
#
# Elastic Compliance Matrix: (Units=1/GPa)
#
#
# Indices 1 2 3 4 5 6 
#
# 1 0.019304 -0.006322 -0.003631 0.000000 0.000000 0.000000
# 2 -0.006322 0.019304 -0.003631 0.000000 0.000000 0.000000
# 3 -0.003631 -0.003631 0.031457 0.000000 0.000000 0.000000
# 4 0.000000 0.000000 0.000000 0.001414 0.000000 0.000000
# 5 0.000000 0.000000 0.000000 0.000000 0.001414 0.000000
# 6 0.000000 0.000000 0.000000 0.000000 0.000000 0.051252
#
#
# Mechanical properties :
#
#
# Convention : Reuss Voigt Hill
#
# Bulk Modulus (GPa) = 23.31238 26.30011 24.80624
# Shear Modulus (GPa) = 30.19094 294.43694 162.31394
#
# Velocity S-wave (km/s) = 4.19373 13.09659 9.72389
# Velocity P-wave (km/s) = 6.08524 15.62098 11.85422
#
# Compressibility (1/GPa) = 0.04289567
#
# Stress axis : x y z
#
# Youngs Moduli (GPa) = 51.80239 51.80239 31.78973
#
# Poissons Ratio (x) = 0.32748 0.11544
# Poissons Ratio (y) = 0.32748 0.11544
# Poissons Ratio (z) = 0.18812 0.18812
#
# Static dielectric constant tensor:
#      x y z
#    x 1.273960 0.000000 0.000000 
#    y 0.000000 1.273960 0.000000 
#    z 0.000000 0.000000 1.640100 
# 
# From -- ./inp_files/6407.got.cif
#   From: 2010.05.17/outbox.cif.g08.bks.cpg/sg181_4_cif.got.tgz:6407.got - 2010.05.20 11:51:17.
