data_PCOD9584775
_publ_section_title
;
Structure prediction by ZEFSAII (Michael W. Deem and Ramdas Pophale) SiO2 
 PCOD9584775
Probable space group: P 63 2 2
;
_chemical_formula_sum "Si O2"
_cell_formula_units_Z 58
_cell_length_a 13.725961
_cell_length_b 13.725961
_cell_length_c 16.089738
_cell_angle_alpha 90.000000
_cell_angle_beta 90.000000
_cell_angle_gamma 120.000000
_cell_volume 2625.216499
_symmetry_space_group_name_H-M "P 63 2 2"
_symmetry_group_IT_number 182
_symmetry_cell_setting 'hexagonal'
loop_
_space_group_symop_operation_xyz
x,y,z
x-y,x,1/2+z
-y,x-y,z
-x,-y,1/2+z
-x+y,-x,z
y,-x+y,1/2+z
x-y,-y,-z
-x,-x+y,-z
y,x,-z
-y,-x,1/2-z
-x+y,y,1/2-z
x,x-y,1/2-z
loop_
_atom_site_type_symbol
_atom_site_label
_atom_site_fract_x
_atom_site_fract_y
_atom_site_fract_z
Si Si1 0.744753 0.997616 0.137681
Si Si2 0.375949 0.965931 0.793722
Si Si3 0.928149 0.071852 0.250000
Si Si4 0.333334 0.666668 0.847773
Si Si5 0.898431 0.648802 0.562152
Si Si6 0.761306 0.550251 0.411978
O O1 0.709319 0.875551 0.102370
O O2 0.680875 0.995510 0.222459
O O3 0.875952 0.080274 0.164468
O O4 0.726325 0.081460 0.080217
O O5 0.480921 0.961842 0.750000
O O6 0.279836 0.848268 0.835711
O O7 0.400191 0.053248 0.868594
O O8 0.061533 0.123065 0.250000
O O9 0.333334 0.666667 0.750000
O O10 0.220924 0.655010 0.885914
O O11 0.814928 0.551679 0.499750
O O12 0.000000 0.731853 0.500000
#
# Coordination Sequence:
#
# PCOD9584775 Si02
#       6
#    12  12   6   4  12  12
#     4  12  21  42  67  96 138 183 230 280 345 424
#     4  11  22  41  68  96 133 182 237 283 339 416
#     4  10  22  32  60  98 126 172 230 270 314 402
#     4  12  24  42  69 102 121 167 232 303 351 411
#     4  10  25  41  63  99 142 181 223 285 352 424
#     4  11  23  41  64  98 135 168 222 291 353 409
#
# _framework density 22.093413999999999
#
# number of rings (size 3 to 8) (size 9 to 14) (size 15 to 20)
#    0.207    0.828    2.069    5.586    2.897    1.655 
#    0.000    4.138    0.000    3.310    0.000    0.000 
#    0.000    0.000    0.000    0.000    0.000    0.000 
#
# Total GULP energy -323169.366229 kJ/mol
# GULP energy per Si atom -5571.885625 kJ/mol
# Density = 2.204313 g / cm^3
# Si number density = 22.093414 Si / 1000 Ang^3
#
#
#
# Elastic Constant Matrix: (Units=GPa)
#
#
# Indices 1 2 3 4 5 6 
#
# 1 95.8968 33.5867 45.4843 0.0001 0.0000 0.0001
# 2 33.5867 95.8979 45.4848 0.0001 -0.0002 0.0002
# 3 45.4843 45.4848 144.6803 -0.0001 0.0000 0.0001
# 4 0.0001 0.0001 -0.0001 38.4241 0.0001 0.0001
# 5 0.0000 -0.0002 0.0000 0.0001 38.4237 0.0000
# 6 0.0001 0.0002 0.0001 0.0001 0.0000 31.1557
#
#
#
# Elastic Compliance Matrix: (Units=1/GPa)
#
#
# Indices 1 2 3 4 5 6 
#
# 1 0.012980 -0.003068 -0.003116 0.000000 0.000000 0.000000
# 2 -0.003068 0.012980 -0.003116 0.000000 0.000000 0.000000
# 3 -0.003116 -0.003116 0.008871 0.000000 0.000000 0.000000
# 4 0.000000 0.000000 0.000000 0.026025 0.000000 0.000000
# 5 0.000000 0.000000 0.000000 0.000000 0.026026 0.000000
# 6 0.000000 0.000000 0.000000 0.000000 0.000000 0.032097
#
#
# Mechanical properties :
#
#
# Convention : Reuss Voigt Hill
#
# Bulk Modulus (GPa) = 61.61125 65.06518 63.33821
# Shear Modulus (GPa) = 34.96719 35.72866 35.34793
#
# Velocity S-wave (km/s) = 3.98263 4.02576 4.00425
# Velocity P-wave (km/s) = 7.00683 7.15003 7.07879
#
# Compressibility (1/GPa) = 0.01623080
#
# Stress axis : x y z
#
# Youngs Moduli (GPa) = 77.03872 77.03941 112.72509
#
# Poissons Ratio (x) = 0.23637 0.35127
# Poissons Ratio (y) = 0.23637 0.35128
# Poissons Ratio (z) = 0.24007 0.24007
#
# Static dielectric constant tensor:
#      x y z
#    x 1.939280 0.000000 0.000000 
#    y 0.000000 1.939280 0.000000 
#    z 0.000000 0.000000 1.852180 
# 
# From -- ./inp_files/3496.got.cif
#   From: 2010.05.17/outbox.cif.g08.bks.cpg/sg182_2_cif.got.tgz:3496.got - 2010.05.20 11:58:53.
