data_PCOD9584994
_publ_section_title
;
Structure prediction by ZEFSAII (Michael W. Deem and Ramdas Pophale) SiO2 
 PCOD9584994
Probable space group: P 6 M M
;
_chemical_formula_sum "Si O2"
_cell_formula_units_Z 72
_cell_length_a 18.404416
_cell_length_b 18.404416
_cell_length_c 15.347100
_cell_angle_alpha 90.000000
_cell_angle_beta 90.000000
_cell_angle_gamma 120.000000
_cell_volume 4501.953832
_symmetry_space_group_name_H-M "P 6 M M"
_symmetry_group_IT_number 183
_symmetry_cell_setting 'hexagonal'
loop_
_space_group_symop_operation_xyz
x,y,z
x-y,x,z
-y,x-y,z
-x,-y,z
-x+y,-x,z
y,-x+y,z
-x+y,y,z
x,x-y,z
-y,-x,z
y,x,z
x-y,-y,z
-x,-x+y,z
loop_
_atom_site_type_symbol
_atom_site_label
_atom_site_fract_x
_atom_site_fract_y
_atom_site_fract_z
Si Si1 0.901352 0.265597 0.595510
Si Si2 0.633277 0.532851 0.430993
Si Si3 0.360404 0.263917 0.899538
Si Si4 0.502798 0.667643 0.239119
Si Si5 0.667199 0.505273 0.752937
Si Si6 0.258664 0.351759 0.103508
O O1 0.833217 0.166784 0.602991
O O2 0.881903 0.301617 0.507888
O O3 0.883617 0.312092 0.675019
O O4 0.000000 0.294137 0.595363
O O5 0.563565 0.436436 0.453295
O O6 0.581741 0.581741 0.419741
O O7 0.673451 0.533323 0.338469
O O8 0.333664 0.166832 0.881124
O O9 0.291237 0.291237 0.880171
O O10 0.442234 0.319365 0.841369
O O11 0.379729 0.278084 0.002591
O O12 0.478544 0.739272 0.225017
O O13 0.423671 0.576330 0.227770
O O14 0.574541 0.685063 0.169991
O O15 0.740470 0.480939 0.750255
O O16 0.576181 0.423820 0.745925
O O17 0.163666 0.327331 0.120229
O O18 0.276336 0.276336 0.115587
#
# Coordination Sequence:
#
# PCOD9584994 Si02
#       6
#    12  12  12  12  12  12
#     4  10  20  33  49  69  93 121 153 189 229 272
#     4   9  17  29  46  68  92 118 150 188 227 267
#     4   9  18  32  49  69  92 119 151 187 228 272
#     4  10  19  30  44  64  92 125 159 192 225 262
#     4  10  20  33  49  70  96 125 155 187 223 263
#     4   9  18  32  49  68  90 117 150 188 230 275
#
# _framework density 15.993055999999999
#
# number of rings (size 3 to 8) (size 9 to 14) (size 15 to 20)
#    0.000    2.500    0.000    2.333    0.000    3.667 
#    0.000    1.667    0.000    7.833    0.000    2.333 
#    0.000    4.000    0.000    5.500    0.000    3.667 
#
# Total GULP energy -401258.460942 kJ/mol
# GULP energy per Si atom -5573.034180 kJ/mol
# Density = 1.595666 g / cm^3
# Si number density = 15.993056 Si / 1000 Ang^3
#
#
#
# Elastic Constant Matrix: (Units=GPa)
#
#
# Indices 1 2 3 4 5 6 
#
# 1 84.1841 67.7128 46.7795 0.0000 0.0000 0.0000
# 2 67.7128 84.1841 46.7795 0.0000 0.0000 0.0000
# 3 46.7795 46.7795 62.5868 0.0000 0.0000 0.0000
# 4 0.0000 0.0000 0.0000 21.7942 0.0000 0.0000
# 5 0.0000 0.0000 0.0000 0.0000 21.7942 0.0000
# 6 0.0000 0.0000 0.0000 0.0000 0.0000 8.2357
#
#
#
# Elastic Compliance Matrix: (Units=1/GPa)
#
#
# Indices 1 2 3 4 5 6 
#
# 1 0.036456 -0.024256 -0.009119 0.000000 0.000000 0.000000
# 2 -0.024256 0.036456 -0.009119 0.000000 0.000000 0.000000
# 3 -0.009119 -0.009119 0.029609 0.000000 0.000000 0.000000
# 4 0.000000 0.000000 0.000000 0.045884 0.000000 0.000000
# 5 0.000000 0.000000 0.000000 0.000000 0.045884 0.000000
# 6 0.000000 0.000000 0.000000 0.000000 0.000000 0.121423
#
#
# Mechanical properties :
#
#
# Convention : Reuss Voigt Hill
#
# Bulk Modulus (GPa) = 57.03120 61.49985 59.26553
# Shear Modulus (GPa) = 12.29886 15.01038 13.65462
#
# Velocity S-wave (km/s) = 2.77612 3.06691 2.92513
# Velocity P-wave (km/s) = 6.78330 7.14694 6.96750
#
# Compressibility (1/GPa) = 0.01753426
#
# Stress axis : x y z
#
# Youngs Moduli (GPa) = 27.43054 27.43054 33.77356
#
# Poissons Ratio (x) = 0.66535 0.30797
# Poissons Ratio (y) = 0.66535 0.30797
# Poissons Ratio (z) = 0.25013 0.25013
#
# Static dielectric constant tensor:
#      x y z
#    x 1.524620 0.000000 0.000000 
#    y 0.000000 1.524620 0.000000 
#    z 0.000000 0.000000 1.544990 
# 
# From -- ./inp_files/2478.got.cif
#   From: 2010.05.17/outbox.cif.g08.bks.cpg/sg183_2_cif.got.tgz:2478.got - 2010.05.20 12:02:58.
