data_PCOD9584927
_publ_section_title
;
Structure prediction by ZEFSAII (Michael W. Deem and Ramdas Pophale) SiO2 
 PCOD9584927
Probable space group: P 6 M M
;
_chemical_formula_sum "Si O2"
_cell_formula_units_Z 96
_cell_length_a 18.488337
_cell_length_b 18.488337
_cell_length_c 20.717125
_cell_angle_alpha 90.000000
_cell_angle_beta 90.000000
_cell_angle_gamma 120.000000
_cell_volume 6132.757830
_symmetry_space_group_name_H-M "P 6 M M"
_symmetry_group_IT_number 183
_symmetry_cell_setting 'hexagonal'
loop_
_space_group_symop_operation_xyz
x,y,z
x-y,x,z
-y,x-y,z
-x,-y,z
-x+y,-x,z
y,-x+y,z
-x+y,y,z
x,x-y,z
-y,-x,z
y,x,z
x-y,-y,z
-x,-x+y,z
loop_
_atom_site_type_symbol
_atom_site_label
_atom_site_fract_x
_atom_site_fract_y
_atom_site_fract_z
Si Si1 0.635186 0.540267 0.060690
Si Si2 0.360581 0.263259 0.451873
Si Si3 0.498723 0.164583 0.557997
Si Si4 0.501238 0.668789 0.923034
Si Si5 0.094938 0.359183 0.815829
Si Si6 0.366803 0.466918 0.332784
Si Si7 0.669166 0.167719 0.195642
Si Si8 0.835306 0.501196 0.710161
O O1 0.547726 0.452275 0.064468
O O2 0.611290 0.611290 0.050603
O O3 0.678801 0.551125 0.129711
O O4 0.678644 0.530717 0.997303
O O5 0.330113 0.165057 0.454450
O O6 0.290625 0.290625 0.446521
O O7 0.417661 0.306739 0.514734
O O8 0.424081 0.303671 0.391490
O O9 0.576574 0.153148 0.538877
O O10 0.522076 0.261038 0.549802
O O11 0.482594 0.145143 0.634109
O O12 0.472457 0.736229 0.909049
O O13 0.424654 0.575347 0.913693
O O14 0.578411 0.691665 0.876097
O O15 0.167095 0.334189 0.816510
O O16 0.111253 0.417616 0.753254
O O17 0.000000 0.285336 0.817197
O O18 0.434688 0.565313 0.343134
O O19 0.420417 0.420417 0.329011
O O20 0.321784 0.454493 0.264031
O O21 0.575554 0.151108 0.196375
O O22 0.734809 0.265192 0.192945
O O23 0.738841 0.477681 0.718702
O O24 0.846185 0.423093 0.729505
#
# Coordination Sequence:
#
# PCOD9584927 Si02
#       8
#    12  12  12  12  12  12  12  12
#     4   9  17  28  41  56  76 107 148 191 228 257
#     4  10  20  33  48  66  88 114 146 184 227 272
#     4   9  17  29  46  69  97 128 158 186 215 250
#     4  10  19  30  45  66  93 123 153 183 216 258
#     4  10  21  35  50  68  90 117 149 187 230 272
#     4   9  17  29  45  64  86 112 141 173 210 257
#     4  10  18  27  39  56  80 109 142 179 218 258
#     4   9  17  29  46  69  98 130 160 186 213 249
#
# _framework density 15.653643000000001
#
# number of rings (size 3 to 8) (size 9 to 14) (size 15 to 20)
#    0.000    2.500    0.000    2.750    0.000    5.250 
#    0.000    3.750    0.000    4.250    0.000    0.000 
#    0.000    0.000    0.000    6.250    0.000    0.000 
#
# Total GULP energy -534946.873608 kJ/mol
# GULP energy per Si atom -5572.363267 kJ/mol
# Density = 1.561801 g / cm^3
# Si number density = 15.653643 Si / 1000 Ang^3
#
#
#
# Elastic Constant Matrix: (Units=GPa)
#
#
# Indices 1 2 3 4 5 6 
#
# 1 61.6129 44.0355 30.8643 0.0000 0.0000 0.0000
# 2 44.0355 61.6129 30.8643 0.0000 0.0000 0.0000
# 3 30.8643 30.8643 66.2220 0.0000 0.0000 0.0000
# 4 0.0000 0.0000 0.0000 17.0093 0.0000 0.0000
# 5 0.0000 0.0000 0.0000 0.0000 17.0093 0.0000
# 6 0.0000 0.0000 0.0000 0.0000 0.0000 8.7887
#
#
#
# Elastic Compliance Matrix: (Units=1/GPa)
#
#
# Indices 1 2 3 4 5 6 
#
# 1 0.034949 -0.021942 -0.006062 0.000000 0.000000 0.000000
# 2 -0.021942 0.034949 -0.006062 0.000000 0.000000 0.000000
# 3 -0.006062 -0.006062 0.020752 0.000000 0.000000 0.000000
# 4 0.000000 0.000000 0.000000 0.058791 0.000000 0.000000
# 5 0.000000 0.000000 0.000000 0.000000 0.058791 0.000000
# 6 0.000000 0.000000 0.000000 0.000000 0.000000 0.113782
#
#
# Mechanical properties :
#
#
# Convention : Reuss Voigt Hill
#
# Bulk Modulus (GPa) = 44.41077 44.55288 44.48183
# Shear Modulus (GPa) = 12.57372 14.14038 13.35705
#
# Velocity S-wave (km/s) = 2.83723 3.00880 2.92428
# Velocity P-wave (km/s) = 6.25825 6.37134 6.31505
#
# Compressibility (1/GPa) = 0.02251706
#
# Stress axis : x y z
#
# Youngs Moduli (GPa) = 28.61281 28.61281 48.18855
#
# Poissons Ratio (x) = 0.62782 0.29214
# Poissons Ratio (y) = 0.62782 0.29214
# Poissons Ratio (z) = 0.17346 0.17346
#
# Static dielectric constant tensor:
#      x y z
#    x 1.510580 0.000000 0.000000 
#    y 0.000000 1.510580 0.000000 
#    z 0.000000 0.000000 1.553400 
# 
# From -- ./inp_files/2933.got.cif
#   From: 2010.05.17/outbox.cif.g08.bks.cpg/sg183_2_cif.got.tgz:2933.got - 2010.05.20 12:02:58.
