data_PCOD9584406
_publ_section_title
;
Structure prediction by ZEFSAII (Michael W. Deem and Ramdas Pophale) SiO2 
 PCOD9584406
Probable space group: P 64 2 2
;
_chemical_formula_sum "Si O2"
_cell_formula_units_Z 60
_cell_length_a 11.012286
_cell_length_b 11.012286
_cell_length_c 25.984404
_cell_angle_alpha 90.000000
_cell_angle_beta 90.000000
_cell_angle_gamma 120.000000
_cell_volume 2728.967449
_symmetry_space_group_name_H-M "P 64 2 2"
_symmetry_group_IT_number 181
_symmetry_cell_setting 'hexagonal'
loop_
_space_group_symop_operation_xyz
x,y,z
x-y,x,2/3+z
-y,x-y,1/3+z
-x,-y,z
-x+y,-x,2/3+z
y,-x+y,1/3+z
x-y,-y,-z
-x,-x+y,2/3-z
y,x,1/3-z
-y,-x,1/3-z
-x+y,y,-z
x,x-y,2/3-z
loop_
_atom_site_type_symbol
_atom_site_label
_atom_site_fract_x
_atom_site_fract_y
_atom_site_fract_z
Si Si1 0.209571 0.970109 0.350843
Si Si2 0.381479 0.045116 0.756716
Si Si3 0.622813 0.377188 0.166667
Si Si4 0.487291 0.632377 0.766483
Si Si5 0.338496 0.000000 0.000000
Si Si6 0.893970 0.211828 0.791640
O O1 0.098610 0.807823 0.363004
O O2 0.155377 0.077689 0.333334
O O3 0.300407 0.967016 0.302871
O O4 0.292162 0.036826 0.402614
O O5 0.245764 0.936453 0.787608
O O6 0.500000 0.000000 0.760345
O O7 0.426578 0.200149 0.776502
O O8 0.604573 0.266020 0.121798
O O9 0.679584 0.526542 0.141904
O O10 0.500000 0.500000 0.788075
O O11 0.539640 0.636160 0.707198
O O12 0.000000 0.212367 0.833334
#
# Coordination Sequence:
#
# PCOD9584406 Si02
#       6
#    12  12   6  12   6  12
#     4   9  21  42  72 103 140 185 247 306 374 437
#     4  10  21  47  74 102 139 198 252 302 370 448
#     4  12  27  44  72 102 167 194 250 304 391 452
#     4  11  26  45  72 106 148 195 248 310 375 447
#     4  10  22  46  74 106 142 191 255 320 366 444
#     4  11  25  45  71 111 150 196 241 311 380 456
#
# _framework density 21.986338
#
# number of rings (size 3 to 8) (size 9 to 14) (size 15 to 20)
#    0.000    1.600    2.000    0.900    5.600    1.600 
#    7.200    0.000   13.200    0.000    0.000    0.000 
#    0.000    0.000    0.000    0.000    0.000    0.000 
#
# Total GULP energy -334453.127086 kJ/mol
# GULP energy per Si atom -5574.218785 kJ/mol
# Density = 2.193630 g / cm^3
# Si number density = 21.986338 Si / 1000 Ang^3
#
#
#
# Elastic Constant Matrix: (Units=GPa)
#
#
# Indices 1 2 3 4 5 6 
#
# 1 131.9066 60.0580 58.0309 0.0000 0.0000 0.0000
# 2 60.0580 131.9066 58.0309 0.0000 0.0000 0.0000
# 3 58.0309 58.0309 130.7900 0.0000 0.0000 0.0000
# 4 0.0000 0.0000 0.0000 3.9857 0.0000 0.0000
# 5 0.0000 0.0000 0.0000 0.0000 3.9857 0.0000
# 6 0.0000 0.0000 0.0000 0.0000 0.0000 35.9243
#
#
#
# Elastic Compliance Matrix: (Units=1/GPa)
#
#
# Indices 1 2 3 4 5 6 
#
# 1 0.010519 -0.003400 -0.003159 0.000000 0.000000 0.000000
# 2 -0.003400 0.010519 -0.003159 0.000000 0.000000 0.000000
# 3 -0.003159 -0.003159 0.010449 0.000000 0.000000 0.000000
# 4 0.000000 0.000000 0.000000 0.250895 0.000000 0.000000
# 5 0.000000 0.000000 0.000000 0.000000 0.250895 0.000000
# 6 0.000000 0.000000 0.000000 0.000000 0.000000 0.027836
#
#
# Mechanical properties :
#
#
# Convention : Reuss Voigt Hill
#
# Bulk Modulus (GPa) = 82.97263 82.98254 82.97758
# Shear Modulus (GPa) = 8.55339 23.34470 15.94905
#
# Velocity S-wave (km/s) = 1.97453 3.26203 2.69626
# Velocity P-wave (km/s) = 6.55885 7.21197 6.89315
#
# Compressibility (1/GPa) = 0.01205217
#
# Stress axis : x y z
#
# Youngs Moduli (GPa) = 95.06967 95.06967 95.70451
#
# Poissons Ratio (x) = 0.32320 0.30230
# Poissons Ratio (y) = 0.32320 0.30230
# Poissons Ratio (z) = 0.30029 0.30029
#
# Static dielectric constant tensor:
#      x y z
#    x 1.833070 0.000000 0.000000 
#    y 0.000000 1.833070 0.000000 
#    z 0.000000 0.000000 1.833510 
# 
# From -- ./inp_files/11267.got.cif
#   From: 2010.05.17/outbox.cif.g08.bks.cpg/sg181_6_cif.got.tgz:11267.got - 2010.05.20 11:51:17.
