data_PCOD9584490
_publ_section_title
;
Structure prediction by ZEFSAII (Michael W. Deem and Ramdas Pophale) SiO2 
 PCOD9584490
Probable space group: P 64 2 2
;
_chemical_formula_sum "Si O2"
_cell_formula_units_Z 63
_cell_length_a 19.522863
_cell_length_b 19.522863
_cell_length_c 9.314195
_cell_angle_alpha 90.000000
_cell_angle_beta 90.000000
_cell_angle_gamma 120.000000
_cell_volume 3074.418403
_symmetry_space_group_name_H-M "P 64 2 2"
_symmetry_group_IT_number 181
_symmetry_cell_setting 'hexagonal'
loop_
_space_group_symop_operation_xyz
x,y,z
x-y,x,2/3+z
-y,x-y,1/3+z
-x,-y,z
-x+y,-x,2/3+z
y,-x+y,1/3+z
x-y,-y,-z
-x,-x+y,2/3-z
y,x,1/3-z
-y,-x,1/3-z
-x+y,y,-z
x,x-y,2/3-z
loop_
_atom_site_type_symbol
_atom_site_label
_atom_site_fract_x
_atom_site_fract_y
_atom_site_fract_z
Si Si1 0.134873 0.911619 0.502966
Si Si2 0.000000 0.500000 0.333334
Si Si3 0.761578 0.523156 0.000000
Si Si4 0.233422 0.233422 0.666667
Si Si5 0.731058 0.113519 0.153411
Si Si6 0.295540 0.383052 0.206538
Si Si7 0.358195 0.512789 0.751733
O O1 0.118566 0.881435 0.666667
O O2 0.216100 0.918498 0.448250
O O3 0.066095 0.847144 0.404035
O O4 0.148536 0.000000 0.500000
O O5 0.938334 0.427729 0.434681
O O6 0.730272 0.572135 0.093501
O O7 0.791036 0.481462 0.115422
O O8 0.302676 0.269435 0.785259
O O9 0.821656 0.178345 0.166667
O O10 0.688154 0.108987 0.302013
O O11 0.699493 0.143106 0.022691
O O12 0.364896 0.364896 0.166667
O O13 0.404747 0.595254 0.666667
#
# Coordination Sequence:
#
# PCOD9584490 Si02
#       7
#    12   3   6   6  12  12  12
#     4  11  23  38  55  83 128 172 230 288 344 398
#     4   8  22  44  72 104 150 192 236 304 384 440
#     4  12  22  44  70 109 146 185 236 297 364 441
#     4  12  23  38  64  90 127 180 236 290 356 415
#     4  12  23  41  68 100 133 182 233 290 363 433
#     4  11  24  35  63 101 137 173 226 294 345 421
#     4  10  24  43  73 105 146 190 238 296 374 448
#
# _framework density 20.491681
#
# number of rings (size 3 to 8) (size 9 to 14) (size 15 to 20)
#    0.571    0.381    4.762    2.857    5.333    0.000 
#    0.000    2.381    2.095    2.286    0.000    0.000 
#    0.000    0.000    0.000    0.000    0.000    0.000 
#
# Total GULP energy -351207.487986 kJ/mol
# GULP energy per Si atom -5574.722032 kJ/mol
# Density = 2.044504 g / cm^3
# Si number density = 20.491681 Si / 1000 Ang^3
#
#
#
# Elastic Constant Matrix: (Units=GPa)
#
#
# Indices 1 2 3 4 5 6 
#
# 1 50.0395 57.7716 38.6199 0.0000 0.0000 0.0000
# 2 57.7716 50.0395 38.6199 0.0000 0.0000 0.0000
# 3 38.6199 38.6199 118.8135 0.0000 0.0000 0.0000
# 4 0.0000 0.0000 0.0000 24.9258 0.0000 0.0000
# 5 0.0000 0.0000 0.0000 0.0000 24.9258 0.0000
# 6 0.0000 0.0000 0.0000 0.0000 0.0000 -3.8660
#
#
#
# Elastic Compliance Matrix: (Units=1/GPa)
#
#
# Indices 1 2 3 4 5 6 
#
# 1 -0.058620 0.070711 -0.003930 0.000000 0.000000 0.000000
# 2 0.070711 -0.058620 -0.003930 0.000000 0.000000 0.000000
# 3 -0.003930 -0.003930 0.010972 0.000000 0.000000 0.000000
# 4 0.000000 0.000000 0.000000 0.040119 0.000000 0.000000
# 5 0.000000 0.000000 0.000000 0.000000 0.040119 0.000000
# 6 0.000000 0.000000 0.000000 0.000000 0.000000 -0.258662
#
#
# Mechanical properties :
#
#
# Convention : Reuss Voigt Hill
#
# Bulk Modulus (GPa) = 51.45841 54.32391 52.89116
# Shear Modulus (GPa) = -12.37882 14.78919 1.20519
#
# Velocity S-wave (km/s) = -2.46049 2.68939 0.76773
# Velocity P-wave (km/s) = 4.13453 6.01760 5.16265
#
# Compressibility (1/GPa) = 0.01943317
#
# Stress axis : x y z
#
# Youngs Moduli (GPa) = -17.05906 -17.05906 91.14478
#
# Poissons Ratio (x) = 1.20626 0.35822
# Poissons Ratio (y) = 1.20626 0.35822
# Poissons Ratio (z) = -0.06705 -0.06705
#
# Static dielectric constant tensor:
#      x y z
#    x 1.748340 0.000000 0.000000 
#    y 0.000000 1.748340 0.000000 
#    z 0.000000 0.000000 1.907380 
# 
# From -- ./inp_files/3142.got.cif
#   From: 2010.05.17/outbox.cif.g08.bks.cpg/sg181_2_cif.got.tgz:3142.got - 2010.05.20 11:51:17.
