data_PCOD9584591
_publ_section_title
;
Structure prediction by ZEFSAII (Michael W. Deem and Ramdas Pophale) SiO2 
 PCOD9584591
Probable space group: P 64 2 2
;
_chemical_formula_sum "Si O2"
_cell_formula_units_Z 60
_cell_length_a 14.919679
_cell_length_b 14.919679
_cell_length_c 14.715250
_cell_angle_alpha 90.000000
_cell_angle_beta 90.000000
_cell_angle_gamma 120.000000
_cell_volume 2836.724993
_symmetry_space_group_name_H-M "P 64 2 2"
_symmetry_group_IT_number 181
_symmetry_cell_setting 'hexagonal'
loop_
_space_group_symop_operation_xyz
x,y,z
x-y,x,2/3+z
-y,x-y,1/3+z
-x,-y,z
-x+y,-x,2/3+z
y,-x+y,1/3+z
x-y,-y,-z
-x,-x+y,2/3-z
y,x,1/3-z
-y,-x,1/3-z
-x+y,y,-z
x,x-y,2/3-z
loop_
_atom_site_type_symbol
_atom_site_label
_atom_site_fract_x
_atom_site_fract_y
_atom_site_fract_z
Si Si1 0.108166 0.590299 0.994228
Si Si2 0.500000 0.000000 0.000000
Si Si3 0.315953 0.422364 0.515590
Si Si4 0.000000 0.000000 0.166667
Si Si5 0.782600 0.966767 0.101944
Si Si6 0.876540 0.618373 0.817965
Si Si7 0.242733 0.757268 0.666667
O O1 0.077322 0.625261 0.086378
O O2 0.000000 0.500000 0.955426
O O3 0.152476 0.675967 0.916174
O O4 0.188409 0.552908 0.018824
O O5 0.599612 0.070208 0.067437
O O6 0.227321 0.454641 0.500000
O O7 0.256242 0.298247 0.526002
O O8 0.119742 0.030399 0.147689
O O9 0.689391 0.850744 0.104245
O O10 0.816041 0.000000 0.000000
O O11 0.818501 0.582476 0.913544
O O12 0.000000 0.681918 0.833334
#
# Coordination Sequence:
#
# PCOD9584591 Si02
#       7
#    12   3  12   3  12  12   6
#     4  12  26  49  74 112 156 204 265 330 396 469
#     4  12  28  50  80 118 158 220 274 320 404 480
#     4  12  27  49  79 109 163 209 261 332 396 473
#     4  12  26  44  80 110 146 194 264 326 390 486
#     4  12  26  49  72 114 151 201 258 322 399 478
#     4  12  27  47  79 109 154 206 258 332 405 471
#     4  12  28  47  80 113 151 204 275 330 398 480
#
# _framework density 21.151152
#
# number of rings (size 3 to 8) (size 9 to 14) (size 15 to 20)
#    0.000    0.000    6.000    3.300    0.000    2.400 
#    0.000    0.000    0.000    0.000    0.000    0.000 
#    0.000    0.000    0.000    0.000    0.000    0.000 
#
# Total GULP energy -334910.440505 kJ/mol
# GULP energy per Si atom -5581.840675 kJ/mol
# Density = 2.110301 g / cm^3
# Si number density = 21.151152 Si / 1000 Ang^3
#
#
#
# Elastic Constant Matrix: (Units=GPa)
#
#
# Indices 1 2 3 4 5 6 
#
# 1 137.9320 107.4046 104.3349 0.0000 0.0000 0.0000
# 2 107.4046 137.9320 104.3349 0.0000 0.0000 0.0000
# 3 104.3349 104.3349 235.0486 0.0000 0.0000 0.0000
# 4 0.0000 0.0000 0.0000 25.0858 0.0000 0.0000
# 5 0.0000 0.0000 0.0000 0.0000 25.0858 0.0000
# 6 0.0000 0.0000 0.0000 0.0000 0.0000 15.2637
#
#
#
# Elastic Compliance Matrix: (Units=1/GPa)
#
#
# Indices 1 2 3 4 5 6 
#
# 1 0.019653 -0.013105 -0.002907 0.000000 0.000000 0.000000
# 2 -0.013105 0.019653 -0.002907 0.000000 0.000000 0.000000
# 3 -0.002907 -0.002907 0.006835 0.000000 0.000000 0.000000
# 4 0.000000 0.000000 0.000000 0.039863 0.000000 0.000000
# 5 0.000000 0.000000 0.000000 0.000000 0.039863 0.000000
# 6 0.000000 0.000000 0.000000 0.000000 0.000000 0.065515
#
#
# Mechanical properties :
#
#
# Convention : Reuss Voigt Hill
#
# Bulk Modulus (GPa) = 120.41320 127.00683 123.71001
# Shear Modulus (GPa) = 21.55300 26.07627 23.81464
#
# Velocity S-wave (km/s) = 3.19564 3.51501 3.35912
# Velocity P-wave (km/s) = 8.40652 8.75507 8.58257
#
# Compressibility (1/GPa) = 0.00830474
#
# Stress axis : x y z
#
# Youngs Moduli (GPa) = 50.88306 50.88306 146.30704
#
# Poissons Ratio (x) = 0.66680 0.42527
# Poissons Ratio (y) = 0.66680 0.42527
# Poissons Ratio (z) = 0.14790 0.14790
#
# Static dielectric constant tensor:
#      x y z
#    x 1.750680 0.000000 0.000000 
#    y 0.000000 1.750680 0.000000 
#    z 0.000000 0.000000 1.768280 
# 
# From -- ./inp_files/6264.got.cif
#   From: 2010.05.17/outbox.cif.g08.bks.cpg/sg181_4_cif.got.tgz:6264.got - 2010.05.20 11:51:17.
