data_PCOD9584326
_publ_section_title
;
Structure prediction by ZEFSAII (Michael W. Deem and Ramdas Pophale) SiO2 
 PCOD9584326
Probable space group: P 64 2 2
;
_chemical_formula_sum "Si O2"
_cell_formula_units_Z 57
_cell_length_a 14.133955
_cell_length_b 14.133955
_cell_length_c 14.506465
_cell_angle_alpha 90.000000
_cell_angle_beta 90.000000
_cell_angle_gamma 120.000000
_cell_volume 2509.687426
_symmetry_space_group_name_H-M "P 64 2 2"
_symmetry_group_IT_number 181
_symmetry_cell_setting 'hexagonal'
loop_
_space_group_symop_operation_xyz
x,y,z
x-y,x,2/3+z
-y,x-y,1/3+z
-x,-y,z
-x+y,-x,2/3+z
y,-x+y,1/3+z
x-y,-y,-z
-x,-x+y,2/3-z
y,x,1/3-z
-y,-x,1/3-z
-x+y,y,-z
x,x-y,2/3-z
loop_
_atom_site_type_symbol
_atom_site_label
_atom_site_fract_x
_atom_site_fract_y
_atom_site_fract_z
Si Si1 0.098284 0.708700 0.209114
Si Si2 0.919917 0.839833 0.000000
Si Si3 0.651260 0.651260 0.166667
Si Si4 0.500000 0.000000 0.000000
Si Si5 0.342898 0.290702 0.375809
Si Si6 0.169159 0.169159 0.666667
Si Si7 0.550151 0.275076 0.333334
Si Si8 0.404938 0.595063 0.166667
O O1 0.217191 0.782810 0.166667
O O2 0.075494 0.609097 0.274714
O O3 0.059161 0.787106 0.262115
O O4 0.027339 0.657878 0.117933
O O5 0.922690 0.753259 0.071328
O O6 0.866717 0.912113 0.034344
O O7 0.687711 0.695223 0.270921
O O8 0.533991 0.643556 0.162756
O O9 0.462968 0.305762 0.375171
O O10 0.620950 0.359958 0.256814
#
# Coordination Sequence:
#
# PCOD9584326 Si02
#       8
#    12   6   6   3  12   6   6   6
#     4  11  23  48  75 109 146 206 246 313 379 452
#     4  10  20  37  60 109 153 196 231 299 353 476
#     4   9  20  38  66  91 128 188 245 300 358 429
#     4  10  28  50  82 110 154 202 262 310 380 450
#     4  10  21  39  68 100 141 197 238 301 368 451
#     4  10  22  38  62 110 158 190 242 286 374 460
#     4   9  20  37  63  99 132 181 244 301 376 438
#     4   9  18  38  62  92 126 170 230 306 364 431
#
# _framework density 22.711991999999999
#
# number of rings (size 3 to 8) (size 9 to 14) (size 15 to 20)
#    0.000    2.105    2.105    0.000    0.000    9.263 
#    0.000    1.053    4.632    1.263    2.737    0.000 
#    0.000    0.000    0.000    0.000    0.000    0.000 
#
# Total GULP energy -317604.393129 kJ/mol
# GULP energy per Si atom -5572.006897 kJ/mol
# Density = 2.266030 g / cm^3
# Si number density = 22.711992 Si / 1000 Ang^3
#
#
#
# Elastic Constant Matrix: (Units=GPa)
#
#
# Indices 1 2 3 4 5 6 
#
# 1 78.8441 55.1208 68.6567 0.0000 0.0000 0.0000
# 2 55.1208 78.8441 68.6567 0.0000 0.0000 0.0000
# 3 68.6567 68.6567 134.2704 0.0000 0.0000 0.0000
# 4 0.0000 0.0000 0.0000 -41.5305 0.0000 0.0000
# 5 0.0000 0.0000 0.0000 0.0000 -41.5305 0.0000
# 6 0.0000 0.0000 0.0000 0.0000 0.0000 11.8616
#
#
#
# Elastic Compliance Matrix: (Units=1/GPa)
#
#
# Indices 1 2 3 4 5 6 
#
# 1 0.028919 -0.013233 -0.008021 0.000000 0.000000 0.000000
# 2 -0.013233 0.028919 -0.008021 0.000000 0.000000 0.000000
# 3 -0.008021 -0.008021 0.015650 0.000000 0.000000 0.000000
# 4 0.000000 0.000000 0.000000 -0.024079 0.000000 0.000000
# 5 0.000000 0.000000 0.000000 0.000000 -0.024079 0.000000
# 6 0.000000 0.000000 0.000000 0.000000 0.000000 0.084305
#
#
# Mechanical properties :
#
#
# Convention : Reuss Voigt Hill
#
# Bulk Modulus (GPa) = 66.93861 75.20301 71.07081
# Shear Modulus (GPa) = 28.87409 -7.60491 10.63459
#
# Velocity S-wave (km/s) = 3.56942 -1.83185 2.16623
# Velocity P-wave (km/s) = 6.82088 5.35810 6.13326
#
# Compressibility (1/GPa) = 0.01493906
#
# Stress axis : x y z
#
# Youngs Moduli (GPa) = 34.57907 34.57907 63.89748
#
# Poissons Ratio (x) = 0.45760 0.51250
# Poissons Ratio (y) = 0.45760 0.51250
# Poissons Ratio (z) = 0.27735 0.27735
#
# Static dielectric constant tensor:
#      x y z
#    x 1.922450 0.000000 0.000000 
#    y 0.000000 1.922450 0.000000 
#    z 0.000000 0.000000 1.902380 
# 
# From -- ./inp_files/6277.got.cif
#   From: 2010.05.17/outbox.cif.g08.bks.cpg/sg181_4_cif.got.tgz:6277.got - 2010.05.20 11:51:17.
