data_PCOD9584938
_publ_section_title
;
Structure prediction by ZEFSAII (Michael W. Deem and Ramdas Pophale) SiO2 
 PCOD9584938
Probable space group: P 6 M M
;
_chemical_formula_sum "Si O2"
_cell_formula_units_Z 84
_cell_length_a 23.024670
_cell_length_b 23.024670
_cell_length_c 13.074998
_cell_angle_alpha 90.000000
_cell_angle_beta 90.000000
_cell_angle_gamma 120.000000
_cell_volume 6002.872120
_symmetry_space_group_name_H-M "P 6 M M"
_symmetry_group_IT_number 183
_symmetry_cell_setting 'hexagonal'
loop_
_space_group_symop_operation_xyz
x,y,z
x-y,x,z
-y,x-y,z
-x,-y,z
-x+y,-x,z
y,-x+y,z
-x+y,y,z
x,x-y,z
-y,-x,z
y,x,z
x-y,-y,z
-x,-x+y,z
loop_
_atom_site_type_symbol
_atom_site_label
_atom_site_fract_x
_atom_site_fract_y
_atom_site_fract_z
Si Si1 0.285785 0.434860 0.250000
Si Si2 0.392635 0.918508 0.661452
Si Si3 0.591164 0.672331 0.861258
Si Si4 0.793981 0.076390 0.188952
Si Si5 0.794267 0.076956 0.943939
Si Si6 0.920565 0.530095 0.427721
Si Si7 0.391073 0.920841 0.071594
O O1 0.226674 0.453348 0.248676
O O2 0.248489 0.354074 0.242452
O O3 0.333222 0.458952 0.348906
O O4 0.335445 0.461580 0.152740
O O5 0.448461 0.896921 0.678424
O O6 0.340053 0.893960 0.753543
O O7 0.367211 0.902131 0.545349
O O8 0.433798 0.000000 0.664985
O O9 0.632587 0.632587 0.856258
O O10 0.646719 0.747652 0.888623
O O11 0.542063 0.639073 0.957507
O O12 0.871935 0.128066 0.209171
O O13 0.767400 0.000000 0.217699
O O14 0.783600 0.078428 0.066294
O O15 0.871415 0.128586 0.922139
O O16 0.768183 0.000000 0.916212
O O17 0.914232 0.457116 0.414966
O O18 0.000000 0.583316 0.411165
O O19 0.457808 0.915616 0.080196
O O20 0.415093 0.000000 0.090182
#
# Coordination Sequence:
#
# PCOD9584938 Si02
#       7
#    12  12  12  12  12  12  12
#     4  11  20  28  40  58  85 114 143 178 212 251
#     4   8  14  25  41  62  86 110 135 166 207 250
#     4   9  15  24  40  63  90 113 133 161 203 255
#     4   9  16  26  40  58  81 109 139 172 211 256
#     4   9  16  26  40  59  84 113 143 173 210 255
#     4   9  17  30  48  65  82 108 142 179 215 251
#     4  10  18  27  43  66  88 109 135 170 209 249
#
# _framework density 13.993301000000001
#
# number of rings (size 3 to 8) (size 9 to 14) (size 15 to 20)
#    0.000    2.714    1.429    3.000    0.000    2.857 
#    0.000    0.714    0.000    2.571    0.000    2.000 
#    0.000    0.000    0.000    0.000    0.000    0.000 
#
# Total GULP energy -467643.318899 kJ/mol
# GULP energy per Si atom -5567.182368 kJ/mol
# Density = 1.396145 g / cm^3
# Si number density = 13.993301 Si / 1000 Ang^3
#
#
#
# Elastic Constant Matrix: (Units=GPa)
#
#
# Indices 1 2 3 4 5 6 
#
# 1 73.7461 36.8914 43.7412 0.0000 0.0000 0.0000
# 2 36.8914 73.7461 43.7412 0.0000 0.0000 0.0000
# 3 43.7412 43.7412 84.2600 0.0000 0.0000 0.0000
# 4 0.0000 0.0000 0.0000 11.4856 0.0000 0.0000
# 5 0.0000 0.0000 0.0000 0.0000 11.4856 0.0000
# 6 0.0000 0.0000 0.0000 0.0000 0.0000 18.4273
#
#
#
# Elastic Compliance Matrix: (Units=1/GPa)
#
#
# Indices 1 2 3 4 5 6 
#
# 1 0.021233 -0.005901 -0.007959 0.000000 0.000000 0.000000
# 2 -0.005901 0.021233 -0.007959 0.000000 0.000000 0.000000
# 3 -0.007959 -0.007959 0.020132 0.000000 0.000000 0.000000
# 4 0.000000 0.000000 0.000000 0.087066 0.000000 0.000000
# 5 0.000000 0.000000 0.000000 0.000000 0.087066 0.000000
# 6 0.000000 0.000000 0.000000 0.000000 0.000000 0.054267
#
#
# Mechanical properties :
#
#
# Convention : Reuss Voigt Hill
#
# Bulk Modulus (GPa) = 52.74583 53.38887 53.06735
# Shear Modulus (GPa) = 14.66476 15.43825 15.05150
#
# Velocity S-wave (km/s) = 3.24077 3.32514 3.28323
# Velocity P-wave (km/s) = 7.19576 7.27860 7.23730
#
# Compressibility (1/GPa) = 0.01895884
#
# Stress axis : x y z
#
# Youngs Moduli (GPa) = 47.09700 47.09700 49.67325
#
# Poissons Ratio (x) = 0.27791 0.39536
# Poissons Ratio (y) = 0.27791 0.39536
# Poissons Ratio (z) = 0.37485 0.37485
#
# Static dielectric constant tensor:
#      x y z
#    x 1.454410 0.000000 0.000000 
#    y 0.000000 1.454410 0.000000 
#    z 0.000000 0.000000 1.470040 
# 
# From -- ./inp_files/1881.got.cif
#   From: 2010.05.17/outbox.cif.g08.bks.cpg/sg183_1_cif.got.tgz:1881.got - 2010.05.20 12:02:58.
