data_PCOD9584645
_publ_section_title
;
Structure prediction by ZEFSAII (Michael W. Deem and Ramdas Pophale) SiO2 
 PCOD9584645
Probable space group: P 63 2 2
;
_chemical_formula_sum "Si O2"
_cell_formula_units_Z 72
_cell_length_a 24.217279
_cell_length_b 24.217279
_cell_length_c 8.783552
_cell_angle_alpha 90.000000
_cell_angle_beta 90.000000
_cell_angle_gamma 120.000000
_cell_volume 4461.198000
_symmetry_space_group_name_H-M "P 63 2 2"
_symmetry_group_IT_number 182
_symmetry_cell_setting 'hexagonal'
loop_
_space_group_symop_operation_xyz
x,y,z
x-y,x,1/2+z
-y,x-y,z
-x,-y,1/2+z
-x+y,-x,z
y,-x+y,1/2+z
x-y,-y,-z
-x,-x+y,-z
y,x,-z
-y,-x,1/2-z
-x+y,y,1/2-z
x,x-y,1/2-z
loop_
_atom_site_type_symbol
_atom_site_label
_atom_site_fract_x
_atom_site_fract_y
_atom_site_fract_z
Si Si1 0.406922 0.933914 0.813271
Si Si2 0.632056 0.698867 0.599781
Si Si3 0.925545 0.191100 0.832841
Si Si4 0.263199 0.862871 0.299299
Si Si5 0.600497 0.087728 0.662088
Si Si6 0.741111 0.809318 0.806348
O O1 0.458134 0.916267 0.750000
O O2 0.349965 0.921207 0.699401
O O3 0.444244 0.011027 0.824286
O O4 0.388944 0.902658 0.980529
O O5 0.661838 0.661838 0.500000
O O6 0.610086 0.733449 0.477908
O O7 0.683707 0.752839 0.710908
O O8 0.871343 0.128658 0.750000
O O9 0.914982 0.248016 0.774494
O O10 0.995064 0.203127 0.792164
O O11 0.919300 0.191608 0.014173
O O12 0.205696 0.794305 0.250000
O O13 0.331611 0.877503 0.243246
O O14 0.552624 0.105247 0.750000
O O15 0.755725 0.877863 0.750000
#
# Coordination Sequence:
#
# PCOD9584645 Si02
#       6
#    12  12  12  12  12  12
#     4  10  20  31  53  80 107 140 178 216 273 331
#     4  12  21  34  52  78 114 145 181 227 273 328
#     4  10  21  36  53  76 105 136 181 231 277 333
#     4  11  21  34  53  75 108 146 181 223 275 328
#     4  10  19  33  52  77 109 139 177 220 269 327
#     4  11  22  34  54  77 104 144 183 220 279 341
#
# _framework density 16.139163
#
# number of rings (size 3 to 8) (size 9 to 14) (size 15 to 20)
#    0.000    1.333    3.333    4.000    2.333    2.667 
#    0.000    0.000    0.000    0.667    0.000    0.000 
#    0.000    0.000    0.000    0.500    0.000    0.167 
#
# Total GULP energy -401431.997525 kJ/mol
# GULP energy per Si atom -5575.444410 kJ/mol
# Density = 1.610243 g / cm^3
# Si number density = 16.139163 Si / 1000 Ang^3
#
#
#
# Elastic Constant Matrix: (Units=GPa)
#
#
# Indices 1 2 3 4 5 6 
#
# 1 86.6864 57.7694 59.8512 0.0000 0.0000 0.0000
# 2 57.7694 86.6864 59.8512 0.0000 0.0000 0.0000
# 3 59.8512 59.8512 127.4464 0.0000 0.0000 0.0000
# 4 0.0000 0.0000 0.0000 26.7864 0.0000 0.0000
# 5 0.0000 0.0000 0.0000 0.0000 26.7864 0.0000
# 6 0.0000 0.0000 0.0000 0.0000 0.0000 14.4585
#
#
#
# Elastic Compliance Matrix: (Units=1/GPa)
#
#
# Indices 1 2 3 4 5 6 
#
# 1 0.022957 -0.011625 -0.005322 0.000000 0.000000 0.000000
# 2 -0.011625 0.022957 -0.005322 0.000000 0.000000 0.000000
# 3 -0.005322 -0.005322 0.012845 0.000000 0.000000 0.000000
# 4 0.000000 0.000000 0.000000 0.037332 0.000000 0.000000
# 5 0.000000 0.000000 0.000000 0.000000 0.037332 0.000000
# 6 0.000000 0.000000 0.000000 0.000000 0.000000 0.069163
#
#
# Mechanical properties :
#
#
# Convention : Reuss Voigt Hill
#
# Bulk Modulus (GPa) = 70.31245 72.86255 71.58750
# Shear Modulus (GPa) = 19.85186 21.82940 20.84063
#
# Velocity S-wave (km/s) = 3.51100 3.68172 3.59738
# Velocity P-wave (km/s) = 7.75223 7.95725 7.85541
#
# Compressibility (1/GPa) = 0.01422223
#
# Stress axis : x y z
#
# Youngs Moduli (GPa) = 43.55940 43.55940 77.85101
#
# Poissons Ratio (x) = 0.50636 0.41432
# Poissons Ratio (y) = 0.50636 0.41432
# Poissons Ratio (z) = 0.23182 0.23182
#
# Static dielectric constant tensor:
#      x y z
#    x 1.529780 0.000000 0.000000 
#    y 0.000000 1.529780 0.000000 
#    z 0.000000 0.000000 1.586380 
# 
# From -- ./inp_files/1909.got.cif
#   From: 2010.05.17/outbox.cif.g08.bks.cpg/sg182_1_cif.got.tgz:1909.got - 2010.05.20 11:58:53.
