data_PCOD9584046
_publ_section_title
;
Structure prediction by ZEFSAII (Michael W. Deem and Ramdas Pophale) SiO2 
 PCOD9584046
Probable space group: P 62 2 2
;
_chemical_formula_sum "Si O2"
_cell_formula_units_Z 51
_cell_length_a 11.702078
_cell_length_b 11.702078
_cell_length_c 20.472078
_cell_angle_alpha 90.000000
_cell_angle_beta 90.000000
_cell_angle_gamma 120.000000
_cell_volume 2427.831469
_symmetry_space_group_name_H-M "P 62 2 2"
_symmetry_group_IT_number 180
_symmetry_cell_setting 'hexagonal'
loop_
_space_group_symop_operation_xyz
x,y,z
x-y,x,1/3+z
-y,x-y,2/3+z
-x,-y,z
-x+y,-x,1/3+z
y,-x+y,2/3+z
x-y,-y,-z
-x,-x+y,1/3-z
y,x,2/3-z
-y,-x,2/3-z
-x+y,y,-z
x,x-y,1/3-z
loop_
_atom_site_type_symbol
_atom_site_label
_atom_site_fract_x
_atom_site_fract_y
_atom_site_fract_z
Si Si1 0.563497 0.657759 0.509858
Si Si2 0.373429 0.120138 0.097668
Si Si3 0.020153 0.284194 0.972440
Si Si4 0.609949 0.219898 0.500000
Si Si5 0.000000 0.500000 0.058822
Si Si6 0.000000 0.500000 0.666667
O O1 0.500000 0.500000 0.514131
O O2 0.685417 0.711664 0.460394
O O3 0.618825 0.719078 0.579583
O O4 0.456299 0.692840 0.487949
O O5 0.417089 0.208545 0.166667
O O6 0.294177 0.174428 0.056845
O O7 0.466912 0.093595 0.047084
O O8 0.118442 0.236884 0.000000
O O9 0.989331 0.377277 0.018576
O O10 0.578086 0.126209 0.438087
#
# Coordination Sequence:
#
# PCOD9584046 Si02
#       6
#    12  12  12   6   6   3
#     4  11  23  41  68 106 149 189 235 315 383 447
#     4  10  26  45  73 112 151 199 260 320 392 485
#     4  11  23  46  68 100 145 191 252 303 375 461
#     4  11  26  42  68 104 156 181 238 318 374 449
#     4  11  24  43  70 103 136 197 242 302 374 447
#     4  12  24  50  78 114 152 208 254 330 414 468
#
# _framework density 21.006401
#
# number of rings (size 3 to 8) (size 9 to 14) (size 15 to 20)
#    0.000    1.176    4.706    0.000    8.235    0.000 
#    2.118    0.588    0.000    1.412    0.000    0.000 
#    0.000    0.000    0.000    0.000    0.000    0.000 
#
# Total GULP energy -284335.543486 kJ/mol
# GULP energy per Si atom -5575.206735 kJ/mol
# Density = 2.095859 g / cm^3
# Si number density = 21.006401 Si / 1000 Ang^3
#
#
#
# Elastic Constant Matrix: (Units=GPa)
#
#
# Indices 1 2 3 4 5 6 
#
# 1 146.2150 69.9122 54.5708 0.0000 0.0000 0.0000
# 2 69.9122 146.2150 54.5708 0.0000 0.0000 0.0000
# 3 54.5708 54.5708 121.6474 0.0000 0.0000 0.0000
# 4 0.0000 0.0000 0.0000 2.3654 0.0000 0.0000
# 5 0.0000 0.0000 0.0000 0.0000 2.3654 0.0000
# 6 0.0000 0.0000 0.0000 0.0000 0.0000 38.1514
#
#
#
# Elastic Compliance Matrix: (Units=1/GPa)
#
#
# Indices 1 2 3 4 5 6 
#
# 1 0.009544 -0.003562 -0.002684 0.000000 0.000000 0.000000
# 2 -0.003562 0.009544 -0.002684 0.000000 0.000000 0.000000
# 3 -0.002684 -0.002684 0.010628 0.000000 0.000000 0.000000
# 4 0.000000 0.000000 0.000000 0.422753 0.000000 0.000000
# 5 0.000000 0.000000 0.000000 0.000000 0.422753 0.000000
# 6 0.000000 0.000000 0.000000 0.000000 0.000000 0.026211
#
#
# Mechanical properties :
#
#
# Convention : Reuss Voigt Hill
#
# Bulk Modulus (GPa) = 84.33054 85.79832 85.06443
# Shear Modulus (GPa) = 5.41569 24.24470 14.83020
#
# Velocity S-wave (km/s) = 1.60739 3.40098 2.65992
# Velocity P-wave (km/s) = 6.60888 7.50698 7.07220
#
# Compressibility (1/GPa) = 0.01185810
#
# Stress axis : x y z
#
# Youngs Moduli (GPa) = 104.77928 104.77928 94.08986
#
# Poissons Ratio (x) = 0.37320 0.25249
# Poissons Ratio (y) = 0.37320 0.25249
# Poissons Ratio (z) = 0.28118 0.28118
#
# Static dielectric constant tensor:
#      x y z
#    x 1.793570 0.000000 0.000000 
#    y 0.000000 1.793570 0.000000 
#    z 0.000000 0.000000 1.827390 
# 
# From -- ./inp_files/8909.got.cif
#   From: 2010.05.17/outbox.cif.g08.bks.cpg/sg180_5_cif.got.tgz:8909.got - 2010.05.20 11:43:55.
