data_PCOD9584012
_publ_section_title
;
Structure prediction by ZEFSAII (Michael W. Deem and Ramdas Pophale) SiO2 
 PCOD9584012
Probable space group: P 62 2 2
;
_chemical_formula_sum "Si O2"
_cell_formula_units_Z 33
_cell_length_a 19.808790
_cell_length_b 19.808790
_cell_length_c 5.295777
_cell_angle_alpha 90.000000
_cell_angle_beta 90.000000
_cell_angle_gamma 120.000000
_cell_volume 1799.600962
_symmetry_space_group_name_H-M "P 62 2 2"
_symmetry_group_IT_number 180
_symmetry_cell_setting 'hexagonal'
loop_
_space_group_symop_operation_xyz
x,y,z
x-y,x,1/3+z
-y,x-y,2/3+z
-x,-y,z
-x+y,-x,1/3+z
y,-x+y,2/3+z
x-y,-y,-z
-x,-x+y,1/3-z
y,x,2/3-z
-y,-x,2/3-z
-x+y,y,-z
x,x-y,1/3-z
loop_
_atom_site_type_symbol
_atom_site_label
_atom_site_fract_x
_atom_site_fract_y
_atom_site_fract_z
Si Si1 0.789080 0.210921 0.333334
Si Si2 0.354099 0.918592 0.121255
Si Si3 0.455222 0.662420 0.040821
Si Si4 0.000000 0.500000 0.166667
O O1 0.735313 0.125210 0.218554
O O2 0.730788 0.206220 0.550115
O O3 0.423170 0.946657 0.330806
O O4 0.361050 0.859914 0.920680
O O5 0.375093 0.000000 0.000000
O O6 0.415183 0.707592 0.166667
O O7 0.399037 0.600964 0.833334
#
# Coordination Sequence:
#
# PCOD9584012 Si02
#       4
#     6  12  12   3
#     4  10  24  40  56  84 112 140 197 258 315 386
#     4  11  25  40  63  83 114 152 203 261 322 393
#     4  10  24  43  58  82 114 153 199 261 328 389
#     4  12  26  40  66  92 112 162 212 258 318 396
#
# _framework density 18.337399999999999
#
# number of rings (size 3 to 8) (size 9 to 14) (size 15 to 20)
#    0.000    1.455    0.000    2.727   15.273    5.818 
#    9.818    0.000    0.000    0.000    0.000    0.000 
#    0.000    0.000    0.000    0.000    0.000    0.000 
#
# Total GULP energy -184023.085439 kJ/mol
# GULP energy per Si atom -5576.457135 kJ/mol
# Density = 1.829566 g / cm^3
# Si number density = 18.337400 Si / 1000 Ang^3
#
#
#
# Elastic Constant Matrix: (Units=GPa)
#
#
# Indices 1 2 3 4 5 6 
#
# 1 115.8826 72.0280 53.7268 0.0000 0.0000 0.0000
# 2 72.0280 115.8826 53.7268 0.0000 0.0000 0.0000
# 3 53.7268 53.7268 115.0721 0.0000 0.0000 0.0000
# 4 0.0000 0.0000 0.0000 46.5276 0.0000 0.0000
# 5 0.0000 0.0000 0.0000 0.0000 46.5276 0.0000
# 6 0.0000 0.0000 0.0000 0.0000 0.0000 21.9273
#
#
#
# Elastic Compliance Matrix: (Units=1/GPa)
#
#
# Indices 1 2 3 4 5 6 
#
# 1 0.015031 -0.007771 -0.003390 0.000000 0.000000 0.000000
# 2 -0.007771 0.015031 -0.003390 0.000000 0.000000 0.000000
# 3 -0.003390 -0.003390 0.011855 0.000000 0.000000 0.000000
# 4 0.000000 0.000000 0.000000 0.021493 0.000000 0.000000
# 5 0.000000 0.000000 0.000000 0.000000 0.021493 0.000000
# 6 0.000000 0.000000 0.000000 0.000000 0.000000 0.045605
#
#
# Mechanical properties :
#
#
# Convention : Reuss Voigt Hill
#
# Bulk Modulus (GPa) = 78.02271 78.42227 78.22249
# Shear Modulus (GPa) = 30.50975 34.15358 32.33166
#
# Velocity S-wave (km/s) = 4.08339 4.32036 4.20355
# Velocity P-wave (km/s) = 8.05437 8.23083 8.14308
#
# Compressibility (1/GPa) = 0.01281678
#
# Stress axis : x y z
#
# Youngs Moduli (GPa) = 66.52782 66.52782 84.34932
#
# Poissons Ratio (x) = 0.51701 0.28592
# Poissons Ratio (y) = 0.51701 0.28592
# Poissons Ratio (z) = 0.22551 0.22551
#
# Static dielectric constant tensor:
#      x y z
#    x 1.689690 0.000000 0.000000 
#    y 0.000000 1.689690 0.000000 
#    z 0.000000 0.000000 2.106080 
# 
# From -- ./inp_files/589.got.cif
#   From: 2010.05.17/outbox.cif.g08.bks.cpg/sg180_1_cif.got.tgz:589.got - 2010.05.20 11:43:55.
