data_PCOD9584600
_publ_section_title
;
Structure prediction by ZEFSAII (Michael W. Deem and Ramdas Pophale) SiO2 
 PCOD9584600
Probable space group: P 63 2 2
;
_chemical_formula_sum "Si O2"
_cell_formula_units_Z 54
_cell_length_a 28.657856
_cell_length_b 28.657856
_cell_length_c 5.420783
_cell_angle_alpha 90.000000
_cell_angle_beta 90.000000
_cell_angle_gamma 120.000000
_cell_volume 3855.494130
_symmetry_space_group_name_H-M "P 63 2 2"
_symmetry_group_IT_number 182
_symmetry_cell_setting 'hexagonal'
loop_
_space_group_symop_operation_xyz
x,y,z
x-y,x,1/2+z
-y,x-y,z
-x,-y,1/2+z
-x+y,-x,z
y,-x+y,1/2+z
x-y,-y,-z
-x,-x+y,-z
y,x,-z
-y,-x,1/2-z
-x+y,y,1/2-z
x,x-y,1/2-z
loop_
_atom_site_type_symbol
_atom_site_label
_atom_site_fract_x
_atom_site_fract_y
_atom_site_fract_z
Si Si1 0.671249 0.848637 0.500000
Si Si2 0.800148 0.549767 0.000000
Si Si3 0.530146 0.000000 0.000000
Si Si4 0.654184 0.569197 0.500000
Si Si5 0.939621 0.638274 0.500000
O O1 0.700627 0.850313 0.750000
O O2 0.615217 0.790237 0.500000
O O3 0.654934 0.894246 0.500000
O O4 0.700627 0.850314 0.250000
O O5 0.765325 0.530650 0.750000
O O6 0.765325 0.530650 0.250000
O O7 0.849870 0.538906 1.000000
O O8 0.536792 0.947096 1.000000
O O9 0.500000 0.000000 0.750000
O O10 0.672188 0.604252 0.751371
O O11 0.672188 0.604252 0.248629
O O12 0.000000 0.687791 0.500000
#
# Coordination Sequence:
#
# PCOD9584600 Si02
#       5
#    12  12   6  12  12
#     4  10  16  27  41  62  92 108 136 177 234 255
#     4  10  16  27  46  68  86 103 133 181 238 258
#     4  12  26  40  46  60  90 132 174 184 218 276
#     4  12  20  32  49  62  83 118 154 187 219 271
#     4  12  19  28  44  69  87 114 149 186 218 273
#
# _framework density 14.005986999999999
#
# number of rings (size 3 to 8) (size 9 to 14) (size 15 to 20)
#    0.000    0.889   11.111    1.333    0.000    0.000 
#    0.000    0.000    0.000    0.000    0.000    0.000 
#    0.000    0.000    0.000   13.333    0.000    0.000 
#
# Total GULP energy -300848.673218 kJ/mol
# GULP energy per Si atom -5571.271726 kJ/mol
# Density = 1.397411 g / cm^3
# Si number density = 14.005987 Si / 1000 Ang^3
#
#
#
# Elastic Constant Matrix: (Units=GPa)
#
#
# Indices 1 2 3 4 5 6 
#
# 1 71.0619 43.8093 37.3992 0.0000 0.0000 0.0000
# 2 43.8093 71.0619 37.3992 0.0000 0.0000 0.0000
# 3 37.3992 37.3992 160.6139 0.0000 0.0000 0.0000
# 4 0.0000 0.0000 0.0000 -5.5526 0.0000 0.0000
# 5 0.0000 0.0000 0.0000 0.0000 -5.5526 0.0000
# 6 0.0000 0.0000 0.0000 0.0000 0.0000 13.6263
#
#
#
# Elastic Compliance Matrix: (Units=1/GPa)
#
#
# Indices 1 2 3 4 5 6 
#
# 1 0.023477 -0.013216 -0.002389 0.000000 0.000000 0.000000
# 2 -0.013216 0.023477 -0.002389 0.000000 0.000000 0.000000
# 3 -0.002389 -0.002389 0.007339 0.000000 0.000000 0.000000
# 4 0.000000 0.000000 0.000000 -0.180097 0.000000 0.000000
# 5 0.000000 0.000000 0.000000 0.000000 -0.180097 0.000000
# 6 0.000000 0.000000 0.000000 0.000000 0.000000 0.073387
#
#
# Mechanical properties :
#
#
# Convention : Reuss Voigt Hill
#
# Bulk Modulus (GPa) = 54.63312 59.99478 57.31395
# Shear Modulus (GPa) = -26.25737 12.77959 -6.73889
#
# Velocity S-wave (km/s) = -4.33451 3.02394 -2.19588
# Velocity P-wave (km/s) = 3.74714 7.42431 5.88054
#
# Compressibility (1/GPa) = 0.01830392
#
# Stress axis : x y z
#
# Youngs Moduli (GPa) = 42.59410 42.59410 136.26143
#
# Poissons Ratio (x) = 0.56293 0.32557
# Poissons Ratio (y) = 0.56293 0.32557
# Poissons Ratio (z) = 0.10177 0.10177
#
# Static dielectric constant tensor:
#      x y z
#    x 1.443360 0.000000 0.000000 
#    y 0.000000 1.443360 0.000000 
#    z 0.000000 0.000000 1.538470 
# 
# From -- ./inp_files/672.got.cif
#   From: 2010.05.17/outbox.cif.g08.bks.cpg/sg182_1_cif.got.tgz:672.got - 2010.05.20 11:58:53.
