data_PCOD9584949
_publ_section_title
;
Structure prediction by ZEFSAII (Michael W. Deem and Ramdas Pophale) SiO2 
 PCOD9584949
Probable space group: P 6 M M
;
_chemical_formula_sum "Si O2"
_cell_formula_units_Z 96
_cell_length_a 22.684870
_cell_length_b 22.684870
_cell_length_c 12.900205
_cell_angle_alpha 90.000000
_cell_angle_beta 90.000000
_cell_angle_gamma 120.000000
_cell_volume 5749.099607
_symmetry_space_group_name_H-M "P 6 M M"
_symmetry_group_IT_number 183
_symmetry_cell_setting 'hexagonal'
loop_
_space_group_symop_operation_xyz
x,y,z
x-y,x,z
-y,x-y,z
-x,-y,z
-x+y,-x,z
y,-x+y,z
-x+y,y,z
x,x-y,z
-y,-x,z
y,x,z
x-y,-y,z
-x,-x+y,z
loop_
_atom_site_type_symbol
_atom_site_label
_atom_site_fract_x
_atom_site_fract_y
_atom_site_fract_z
Si Si1 0.334753 0.533505 0.013480
Si Si2 0.714880 0.925178 0.934747
Si Si3 0.356573 0.246447 0.156530
Si Si4 0.709006 0.922255 0.377776
Si Si5 0.080947 0.609709 0.657933
Si Si6 0.375253 0.490507 0.212074
Si Si7 0.143212 0.717325 0.838282
Si Si8 0.918670 0.347198 0.428390
O O1 0.275218 0.550436 0.999708
O O2 0.405738 0.594263 0.974081
O O3 0.344198 0.523766 0.134793
O O4 0.314805 0.466925 0.945214
O O5 0.733163 0.866582 0.920322
O O6 0.652869 0.909707 0.858439
O O7 0.776055 0.000000 0.920796
O O8 0.683261 0.916179 0.049795
O O9 0.386465 0.193233 0.155955
O O10 0.306293 0.222964 0.254436
O O11 0.412029 0.326313 0.173589
O O12 0.724236 0.862118 0.406397
O O13 0.636630 0.908043 0.424296
O O14 0.765016 0.000000 0.403636
O O15 0.092779 0.546390 0.670779
O O16 0.120738 0.665510 0.744534
O O17 0.099214 0.637567 0.541037
O O18 0.000000 0.580286 0.669789
O O19 0.457422 0.542579 0.200135
O O20 0.359679 0.480355 0.334480
O O21 0.216087 0.783914 0.818812
O O22 0.000000 0.398401 0.410063
#
# Coordination Sequence:
#
# PCOD9584949 Si02
#       8
#    12  12  12  12  12  12  12  12
#     4  10  19  32  48  68  95 130 169 210 253 297
#     4  10  19  32  51  73  99 130 163 202 248 300
#     4   9  16  29  46  66  96 131 165 206 252 299
#     4   9  17  29  48  73  99 128 165 207 251 303
#     4  10  20  35  54  74 100 132 167 210 257 304
#     4  10  18  28  45  68  96 128 165 207 251 299
#     4  10  20  34  51  72 101 132 168 210 249 296
#     4   9  19  34  49  69  97 129 166 205 250 304
#
# _framework density 16.698267000000001
#
# number of rings (size 3 to 8) (size 9 to 14) (size 15 to 20)
#    0.000    2.375    1.250    2.000    0.000    2.250 
#    0.000    0.000    0.000    0.750    0.000    0.000 
#    0.000    4.000    0.000    0.000    0.000   16.250 
#
# Total GULP energy -534446.427408 kJ/mol
# GULP energy per Si atom -5567.150286 kJ/mol
# Density = 1.666026 g / cm^3
# Si number density = 16.698267 Si / 1000 Ang^3
#
#
#
# Elastic Constant Matrix: (Units=GPa)
#
#
# Indices 1 2 3 4 5 6 
#
# 1 71.0671 48.8171 25.1212 0.0000 0.0000 0.0000
# 2 48.8171 71.0671 25.1212 0.0000 0.0000 0.0000
# 3 25.1212 25.1212 85.8490 0.0000 0.0000 0.0000
# 4 0.0000 0.0000 0.0000 18.3076 0.0000 0.0000
# 5 0.0000 0.0000 0.0000 0.0000 18.3076 0.0000
# 6 0.0000 0.0000 0.0000 0.0000 0.0000 11.1250
#
#
#
# Elastic Compliance Matrix: (Units=1/GPa)
#
#
# Indices 1 2 3 4 5 6 
#
# 1 0.027226 -0.017718 -0.002782 0.000000 0.000000 0.000000
# 2 -0.017718 0.027226 -0.002782 0.000000 0.000000 0.000000
# 3 -0.002782 -0.002782 0.013277 0.000000 0.000000 0.000000
# 4 0.000000 0.000000 0.000000 0.054622 0.000000 0.000000
# 5 0.000000 0.000000 0.000000 0.000000 0.054622 0.000000
# 6 0.000000 0.000000 0.000000 0.000000 0.000000 0.089888
#
#
# Mechanical properties :
#
#
# Convention : Reuss Voigt Hill
#
# Bulk Modulus (GPa) = 47.25226 47.34467 47.29846
# Shear Modulus (GPa) = 15.60167 18.14296 16.87231
#
# Velocity S-wave (km/s) = 3.06000 3.29981 3.18216
# Velocity P-wave (km/s) = 6.39092 6.55232 6.47213
#
# Compressibility (1/GPa) = 0.02116301
#
# Stress axis : x y z
#
# Youngs Moduli (GPa) = 36.73019 36.73019 75.32093
#
# Poissons Ratio (x) = 0.65079 0.20955
# Poissons Ratio (y) = 0.65079 0.20955
# Poissons Ratio (z) = 0.10218 0.10218
#
# Static dielectric constant tensor:
#      x y z
#    x 1.573590 0.000000 0.000000 
#    y 0.000000 1.573590 0.000000 
#    z 0.000000 0.000000 1.552230 
# 
# From -- ./inp_files/2028.got.cif
#   From: 2010.05.17/outbox.cif.g08.bks.cpg/sg183_2_cif.got.tgz:2028.got - 2010.05.20 12:02:58.
