data_PCOD9584802
_publ_section_title
;
Structure prediction by ZEFSAII (Michael W. Deem and Ramdas Pophale) SiO2 
 PCOD9584802
Probable space group: P 63 2 2
;
_chemical_formula_sum "Si O2"
_cell_formula_units_Z 52
_cell_length_a 14.985134
_cell_length_b 14.985134
_cell_length_c 14.067923
_cell_angle_alpha 90.000000
_cell_angle_beta 90.000000
_cell_angle_gamma 120.000000
_cell_volume 2735.784445
_symmetry_space_group_name_H-M "P 63 2 2"
_symmetry_group_IT_number 182
_symmetry_cell_setting 'hexagonal'
loop_
_space_group_symop_operation_xyz
x,y,z
x-y,x,1/2+z
-y,x-y,z
-x,-y,1/2+z
-x+y,-x,z
y,-x+y,1/2+z
x-y,-y,-z
-x,-x+y,-z
y,x,-z
-y,-x,1/2-z
-x+y,y,1/2-z
x,x-y,1/2-z
loop_
_atom_site_type_symbol
_atom_site_label
_atom_site_fract_x
_atom_site_fract_y
_atom_site_fract_z
Si Si1 0.968653 0.664485 0.159662
Si Si2 0.272872 0.430069 0.023896
Si Si3 0.094497 0.188993 0.750000
Si Si4 0.493196 0.986392 0.250000
Si Si5 0.000000 0.000000 0.613259
Si Si6 0.392370 0.893336 0.054022
O O1 0.954775 0.739398 0.230518
O O2 0.951800 0.560123 0.208796
O O3 0.081136 0.717219 0.110037
O O4 0.889073 0.633986 0.072531
O O5 0.187348 0.461080 0.040081
O O6 0.385359 0.532080 0.016473
O O7 0.068116 0.113195 0.659721
O O8 0.420440 0.918201 0.164548
O O9 0.000000 0.000000 0.500000
O O10 0.426314 0.000000 0.000000
#
# Coordination Sequence:
#
# PCOD9584802 Si02
#       6
#    12  12   6   6   4  12
#     4  10  22  42  62  98 137 168 222 276 325 406
#     4  10  22  42  65  94 138 173 218 280 329 393
#     4  10  24  42  68  95 128 185 214 272 352 396
#     4  10  22  42  64  93 136 161 222 274 314 400
#     4  10  26  49  64  95 142 160 242 295 316 416
#     4  11  22  41  65  96 130 176 221 270 332 398
#
# _framework density 19.007345999999998
#
# number of rings (size 3 to 8) (size 9 to 14) (size 15 to 20)
#    0.000    1.846    4.615    0.462    6.462    7.385 
#    0.000    0.000    0.000    1.846    0.000    0.000 
#    0.000    0.000    0.000    0.000    0.000    0.000 
#
# Total GULP energy -290367.722717 kJ/mol
# GULP energy per Si atom -5583.994668 kJ/mol
# Density = 1.896408 g / cm^3
# Si number density = 19.007346 Si / 1000 Ang^3
#
#
#
# Elastic Constant Matrix: (Units=GPa)
#
#
# Indices 1 2 3 4 5 6 
#
# 1 118.9000 68.1629 43.0919 0.0000 0.0000 0.0000
# 2 68.1629 118.9000 43.0919 0.0000 0.0000 0.0000
# 3 43.0919 43.0919 106.1824 0.0000 0.0000 0.0000
# 4 0.0000 0.0000 0.0000 13.0355 0.0000 0.0000
# 5 0.0000 0.0000 0.0000 0.0000 13.0355 0.0000
# 6 0.0000 0.0000 0.0000 0.0000 0.0000 25.3685
#
#
#
# Elastic Compliance Matrix: (Units=1/GPa)
#
#
# Indices 1 2 3 4 5 6 
#
# 1 0.013142 -0.006567 -0.002668 0.000000 0.000000 0.000000
# 2 -0.006567 0.013142 -0.002668 0.000000 0.000000 0.000000
# 3 -0.002668 -0.002668 0.011584 0.000000 0.000000 0.000000
# 4 0.000000 0.000000 0.000000 0.076714 0.000000 0.000000
# 5 0.000000 0.000000 0.000000 0.000000 0.076714 0.000000
# 6 0.000000 0.000000 0.000000 0.000000 0.000000 0.039419
#
#
# Mechanical properties :
#
#
# Convention : Reuss Voigt Hill
#
# Bulk Modulus (GPa) = 71.12197 72.51951 71.82074
# Shear Modulus (GPa) = 19.28943 22.93027 21.10985
#
# Velocity S-wave (km/s) = 3.18911 3.47708 3.33621
# Velocity P-wave (km/s) = 7.14563 7.37268 7.26004
#
# Compressibility (1/GPa) = 0.01406035
#
# Stress axis : x y z
#
# Youngs Moduli (GPa) = 76.09007 76.09007 86.32909
#
# Poissons Ratio (x) = 0.49969 0.23036
# Poissons Ratio (y) = 0.49969 0.23036
# Poissons Ratio (z) = 0.20304 0.20304
#
# Static dielectric constant tensor:
#      x y z
#    x 1.646470 0.000000 0.000000 
#    y 0.000000 1.646470 0.000000 
#    z 0.000000 0.000000 1.653500 
# 
# From -- ./inp_files/3412.got.cif
#   From: 2010.05.17/outbox.cif.g08.bks.cpg/sg182_2_cif.got.tgz:3412.got - 2010.05.20 11:58:53.
