data_PCOD9584499
_publ_section_title
;
Structure prediction by ZEFSAII (Michael W. Deem and Ramdas Pophale) SiO2 
 PCOD9584499
Probable space group: P 64 2 2
;
_chemical_formula_sum "Si O2"
_cell_formula_units_Z 69
_cell_length_a 10.720328
_cell_length_b 10.720328
_cell_length_c 33.018644
_cell_angle_alpha 90.000000
_cell_angle_beta 90.000000
_cell_angle_gamma 120.000000
_cell_volume 3286.290959
_symmetry_space_group_name_H-M "P 64 2 2"
_symmetry_group_IT_number 181
_symmetry_cell_setting 'hexagonal'
loop_
_space_group_symop_operation_xyz
x,y,z
x-y,x,2/3+z
-y,x-y,1/3+z
-x,-y,z
-x+y,-x,2/3+z
y,-x+y,1/3+z
x-y,-y,-z
-x,-x+y,2/3-z
y,x,1/3-z
-y,-x,1/3-z
-x+y,y,-z
x,x-y,2/3-z
loop_
_atom_site_type_symbol
_atom_site_label
_atom_site_fract_x
_atom_site_fract_y
_atom_site_fract_z
Si Si1 0.994989 0.277442 0.989528
Si Si2 0.500000 0.000000 0.000000
Si Si3 0.873521 0.594700 0.801579
Si Si4 0.500000 0.500000 0.066633
Si Si5 0.425781 0.193476 0.943035
Si Si6 0.554621 0.172884 0.863694
Si Si7 0.832379 0.951855 0.079782
O O1 0.056314 0.419674 0.962210
O O2 0.895912 0.140479 0.960797
O O3 0.903595 0.287303 0.027160
O O4 0.128158 0.256315 0.000000
O O5 0.464098 0.100053 0.972675
O O6 0.889410 0.511100 0.763218
O O7 0.716382 0.489408 0.818389
O O8 0.891342 0.742395 0.783644
O O9 0.000000 0.636759 0.833334
O O10 0.542318 0.237200 0.907164
O O11 0.275673 0.090415 0.920587
O O12 0.487727 0.243864 0.833334
O O13 0.500000 0.000000 0.867767
O O14 0.000000 0.000000 0.079973
#
# Coordination Sequence:
#
# PCOD9584499 Si02
#       7
#    12   3  12   6  12  12  12
#     4  11  23  41  66 101 145 181 224 293 357 429
#     4  12  20  36  70  98 136 184 230 270 366 448
#     4  11  24  48  72  94 137 196 242 297 367 437
#     4  10  25  42  62 101 134 186 239 274 358 439
#     4  12  23  41  69 104 141 183 228 293 365 433
#     4  12  27  49  73 103 149 190 252 307 367 443
#     4  11  21  39  70 105 139 173 230 293 361 430
#
# _framework density 20.996316
#
# number of rings (size 3 to 8) (size 9 to 14) (size 15 to 20)
#    0.000    0.696    6.087    1.304    2.435    3.130 
#    4.696    0.000    0.000    0.000    0.000    0.000 
#    0.000    0.000    0.000    0.000    0.000    0.000 
#
# Total GULP energy -384759.470475 kJ/mol
# GULP energy per Si atom -5576.224210 kJ/mol
# Density = 2.094853 g / cm^3
# Si number density = 20.996316 Si / 1000 Ang^3
#
#
#
# Elastic Constant Matrix: (Units=GPa)
#
#
# Indices 1 2 3 4 5 6 
#
# 1 72.5274 15.5758 21.1690 0.0000 0.0000 0.0000
# 2 15.5758 72.5274 21.1690 0.0000 0.0000 0.0000
# 3 21.1690 21.1690 100.1644 0.0000 0.0000 0.0000
# 4 0.0000 0.0000 0.0000 29.5781 0.0000 0.0000
# 5 0.0000 0.0000 0.0000 0.0000 29.5781 0.0000
# 6 0.0000 0.0000 0.0000 0.0000 0.0000 28.4758
#
#
#
# Elastic Compliance Matrix: (Units=1/GPa)
#
#
# Indices 1 2 3 4 5 6 
#
# 1 0.015096 -0.002463 -0.002670 0.000000 0.000000 0.000000
# 2 -0.002463 0.015096 -0.002670 0.000000 0.000000 0.000000
# 3 -0.002670 -0.002670 0.011112 0.000000 0.000000 0.000000
# 4 0.000000 0.000000 0.000000 0.033809 0.000000 0.000000
# 5 0.000000 0.000000 0.000000 0.000000 0.033809 0.000000
# 6 0.000000 0.000000 0.000000 0.000000 0.000000 0.035118
#
#
# Mechanical properties :
#
#
# Convention : Reuss Voigt Hill
#
# Bulk Modulus (GPa) = 38.91201 40.11633 39.51417
# Shear Modulus (GPa) = 29.72455 30.01341 29.86898
#
# Velocity S-wave (km/s) = 3.76667 3.78492 3.77581
# Velocity P-wave (km/s) = 6.12291 6.18455 6.15381
#
# Compressibility (1/GPa) = 0.02569901
#
# Stress axis : x y z
#
# Youngs Moduli (GPa) = 66.24240 66.24240 89.99162
#
# Poissons Ratio (x) = 0.16313 0.24028
# Poissons Ratio (y) = 0.16313 0.24028
# Poissons Ratio (z) = 0.17687 0.17687
#
# Static dielectric constant tensor:
#      x y z
#    x 1.779970 0.000000 0.000000 
#    y 0.000000 1.779970 0.000000 
#    z 0.000000 0.000000 1.782530 
# 
# From -- ./inp_files/12335.got.cif
#   From: 2010.05.17/outbox.cif.g08.bks.cpg/sg181_7_cif.got.tgz:12335.got - 2010.05.20 11:51:17.
