data_PCOD9584312
_publ_section_title
;
Structure prediction by ZEFSAII (Michael W. Deem and Ramdas Pophale) SiO2 
 PCOD9584312
Probable space group: P 64 2 2
;
_chemical_formula_sum "Si O2"
_cell_formula_units_Z 48
_cell_length_a 22.575939
_cell_length_b 22.575939
_cell_length_c 5.683117
_cell_angle_alpha 90.000000
_cell_angle_beta 90.000000
_cell_angle_gamma 120.000000
_cell_volume 2508.469788
_symmetry_space_group_name_H-M "P 64 2 2"
_symmetry_group_IT_number 181
_symmetry_cell_setting 'hexagonal'
loop_
_space_group_symop_operation_xyz
x,y,z
x-y,x,2/3+z
-y,x-y,1/3+z
-x,-y,z
-x+y,-x,2/3+z
y,-x+y,1/3+z
x-y,-y,-z
-x,-x+y,2/3-z
y,x,1/3-z
-y,-x,1/3-z
-x+y,y,-z
x,x-y,2/3-z
loop_
_atom_site_type_symbol
_atom_site_label
_atom_site_fract_x
_atom_site_fract_y
_atom_site_fract_z
Si Si1 0.629571 0.814786 0.833334
Si Si2 0.415695 0.022674 0.255109
Si Si3 0.746211 0.715990 0.411044
Si Si4 0.820710 0.296978 0.511052
Si Si5 0.628935 0.371066 0.666667
O O1 0.680040 0.888017 0.718930
O O2 0.577608 0.747211 0.690081
O O3 0.449172 0.104099 0.276120
O O4 0.433619 0.000000 0.500000
O O5 0.333339 0.989385 0.254220
O O6 0.430182 0.000000 0.000000
O O7 0.753032 0.753032 0.666667
O O8 0.756489 0.756489 0.166667
O O9 0.762987 0.237014 0.666667
O O10 0.789800 0.345044 0.445624
O O11 0.690624 0.381247 0.500000
#
# Coordination Sequence:
#
# PCOD9584312 Si02
#       5
#     6  12  12  12   6
#     4  12  22  36  66  90 118 182 213 244 337 398
#     4  10  20  39  60  91 129 151 204 269 302 390
#     4  10  20  35  54  87 130 154 209 268 295 373
#     4  12  24  39  69  88 119 175 218 259 348 393
#     4  12  26  46  61  90 126 150 218 308 324 384
#
# _framework density 19.135171
#
# number of rings (size 3 to 8) (size 9 to 14) (size 15 to 20)
#    0.000    1.000    7.500    3.000    0.000    0.000 
#    0.000    0.625    0.000    3.000    0.000    0.000 
#    0.000    0.000    0.000    5.625    1.000    0.250 
#
# Total GULP energy -267393.920992 kJ/mol
# GULP energy per Si atom -5570.706687 kJ/mol
# Density = 1.909162 g / cm^3
# Si number density = 19.135171 Si / 1000 Ang^3
#
#
#
# Elastic Constant Matrix: (Units=GPa)
#
#
# Indices 1 2 3 4 5 6 
#
# 1 110.1788 56.4563 28.9915 0.0000 0.0000 0.0000
# 2 56.4563 110.1788 28.9915 0.0000 0.0000 0.0000
# 3 28.9915 28.9915 131.1142 0.0000 0.0000 0.0000
# 4 0.0000 0.0000 0.0000 10.2085 0.0000 0.0000
# 5 0.0000 0.0000 0.0000 0.0000 10.2085 0.0000
# 6 0.0000 0.0000 0.0000 0.0000 0.0000 26.8612
#
#
#
# Elastic Compliance Matrix: (Units=1/GPa)
#
#
# Indices 1 2 3 4 5 6 
#
# 1 0.012558 -0.006056 -0.001438 0.000000 0.000000 0.000000
# 2 -0.006056 0.012558 -0.001438 0.000000 0.000000 0.000000
# 3 -0.001438 -0.001438 0.008263 0.000000 0.000000 0.000000
# 4 0.000000 0.000000 0.000000 0.097958 0.000000 0.000000
# 5 0.000000 0.000000 0.000000 0.000000 0.097958 0.000000
# 6 0.000000 0.000000 0.000000 0.000000 0.000000 0.037228
#
#
# Mechanical properties :
#
#
# Convention : Reuss Voigt Hill
#
# Bulk Modulus (GPa) = 64.45309 64.48337 64.46823
# Shear Modulus (GPa) = 17.26780 25.25782 21.26281
#
# Velocity S-wave (km/s) = 3.00728 3.63708 3.33707
# Velocity P-wave (km/s) = 6.76864 7.17006 6.97224
#
# Compressibility (1/GPa) = 0.01551516
#
# Stress axis : x y z
#
# Youngs Moduli (GPa) = 79.63198 79.63198 121.02624
#
# Poissons Ratio (x) = 0.48228 0.17398
# Poissons Ratio (y) = 0.48228 0.17398
# Poissons Ratio (z) = 0.11448 0.11448
#
# Static dielectric constant tensor:
#      x y z
#    x 1.618090 0.000000 0.000000 
#    y 0.000000 1.618090 0.000000 
#    z 0.000000 0.000000 1.801240 
# 
# From -- ./inp_files/1168.got.cif
#   From: 2010.05.17/outbox.cif.g08.bks.cpg/sg181_1_cif.got.tgz:1168.got - 2010.05.20 11:51:17.
