data_PCOD9584685
_publ_section_title
;
Structure prediction by ZEFSAII (Michael W. Deem and Ramdas Pophale) SiO2 
 PCOD9584685
Probable space group: P 63 2 2
;
_chemical_formula_sum "Si O2"
_cell_formula_units_Z 66
_cell_length_a 18.408469
_cell_length_b 18.408469
_cell_length_c 11.381031
_cell_angle_alpha 90.000000
_cell_angle_beta 90.000000
_cell_angle_gamma 120.000000
_cell_volume 3340.008553
_symmetry_space_group_name_H-M "P 63 2 2"
_symmetry_group_IT_number 182
_symmetry_cell_setting 'hexagonal'
loop_
_space_group_symop_operation_xyz
x,y,z
x-y,x,1/2+z
-y,x-y,z
-x,-y,1/2+z
-x+y,-x,z
y,-x+y,1/2+z
x-y,-y,-z
-x,-x+y,-z
y,x,-z
-y,-x,1/2-z
-x+y,y,1/2-z
x,x-y,1/2-z
loop_
_atom_site_type_symbol
_atom_site_label
_atom_site_fract_x
_atom_site_fract_y
_atom_site_fract_z
Si Si1 0.756327 0.430802 0.421963
Si Si2 0.768443 0.610566 0.133403
Si Si3 0.491092 0.000000 0.500000
Si Si4 0.615013 0.993333 0.682226
Si Si5 0.604232 0.920720 0.943744
Si Si6 0.179298 0.667128 0.313280
O O1 0.813486 0.512352 0.347047
O O2 0.923354 0.395634 0.510421
O O3 0.747473 0.340510 0.401233
O O4 0.789211 0.457914 0.554039
O O5 0.823697 0.647393 0.250000
O O6 0.709026 0.649000 0.110679
O O7 0.835731 0.606951 0.047265
O O8 0.535481 0.985508 0.610657
O O9 0.670500 0.093577 0.689716
O O10 0.599412 0.951050 0.811240
O O11 0.685454 0.000000 0.000000
O O12 0.254042 0.745959 0.250000
O O13 0.165355 0.582678 0.250000
#
# Coordination Sequence:
#
# PCOD9584685 Si02
#       6
#    12  12   6  12  12  12
#     4  10  22  35  51  73 104 144 191 235 284 325
#     4  10  23  39  53  77 111 144 194 243 288 334
#     4  10  20  34  54  82 108 146 190 236 292 336
#     4  11  23  37  55  81 109 144 192 240 297 336
#     4   9  22  37  58  77 104 147 194 240 280 351
#     4  12  22  37  55  79 108 145 192 247 293 340
#
# _framework density 19.760429999999999
#
# number of rings (size 3 to 8) (size 9 to 14) (size 15 to 20)
#    0.909    0.727    1.818    2.909    7.636    0.727 
#    0.000    0.000    0.000    0.000    0.000    0.000 
#    0.000    0.000    0.000   14.727   80.182    1.636 
#
# Total GULP energy -367778.399527 kJ/mol
# GULP energy per Si atom -5572.399993 kJ/mol
# Density = 1.971545 g / cm^3
# Si number density = 19.760430 Si / 1000 Ang^3
#
#
#
# Elastic Constant Matrix: (Units=GPa)
#
#
# Indices 1 2 3 4 5 6 
#
# 1 103.5962 53.0687 22.8868 0.0000 0.0000 0.0000
# 2 53.0687 103.5962 22.8868 0.0000 0.0000 0.0000
# 3 22.8868 22.8868 62.7709 0.0000 0.0000 0.0000
# 4 0.0000 0.0000 0.0000 22.3332 0.0000 0.0000
# 5 0.0000 0.0000 0.0000 0.0000 22.3332 0.0000
# 6 0.0000 0.0000 0.0000 0.0000 0.0000 25.2638
#
#
#
# Elastic Compliance Matrix: (Units=1/GPa)
#
#
# Indices 1 2 3 4 5 6 
#
# 1 0.013468 -0.006324 -0.002605 0.000000 0.000000 0.000000
# 2 -0.006324 0.013468 -0.002605 0.000000 0.000000 0.000000
# 3 -0.002605 -0.002605 0.017830 0.000000 0.000000 0.000000
# 4 0.000000 0.000000 0.000000 0.044776 0.000000 0.000000
# 5 0.000000 0.000000 0.000000 0.000000 0.044776 0.000000
# 6 0.000000 0.000000 0.000000 0.000000 0.000000 0.039582
#
#
# Mechanical properties :
#
#
# Convention : Reuss Voigt Hill
#
# Bulk Modulus (GPa) = 46.08418 51.96088 49.02253
# Shear Modulus (GPa) = 24.48578 25.39412 24.93995
#
# Velocity S-wave (km/s) = 3.52395 3.58872 3.55648
# Velocity P-wave (km/s) = 6.31900 6.59730 6.45965
#
# Compressibility (1/GPa) = 0.02169942
#
# Stress axis : x y z
#
# Youngs Moduli (GPa) = 74.25203 74.25203 56.08393
#
# Poissons Ratio (x) = 0.46954 0.14609
# Poissons Ratio (y) = 0.46954 0.14609
# Poissons Ratio (z) = 0.19341 0.19341
#
# Static dielectric constant tensor:
#      x y z
#    x 1.745930 0.000000 0.000000 
#    y 0.000000 1.745930 0.000000 
#    z 0.000000 0.000000 1.818300 
# 
# From -- ./inp_files/3619.got.cif
#   From: 2010.05.17/outbox.cif.g08.bks.cpg/sg182_2_cif.got.tgz:3619.got - 2010.05.20 11:58:53.
