data_PCOD9584716
_publ_section_title
;
Structure prediction by ZEFSAII (Michael W. Deem and Ramdas Pophale) SiO2 
 PCOD9584716
Probable space group: P 63 2 2
;
_chemical_formula_sum "Si O2"
_cell_formula_units_Z 46
_cell_length_a 18.395250
_cell_length_b 18.395250
_cell_length_c 7.465721
_cell_angle_alpha 90.000000
_cell_angle_beta 90.000000
_cell_angle_gamma 120.000000
_cell_volume 2187.831025
_symmetry_space_group_name_H-M "P 63 2 2"
_symmetry_group_IT_number 182
_symmetry_cell_setting 'hexagonal'
loop_
_space_group_symop_operation_xyz
x,y,z
x-y,x,1/2+z
-y,x-y,z
-x,-y,1/2+z
-x+y,-x,z
y,-x+y,1/2+z
x-y,-y,-z
-x,-x+y,-z
y,x,-z
-y,-x,1/2-z
-x+y,y,1/2-z
x,x-y,1/2-z
loop_
_atom_site_type_symbol
_atom_site_label
_atom_site_fract_x
_atom_site_fract_y
_atom_site_fract_z
Si Si1 0.666668 0.333334 0.533876
Si Si2 0.613700 0.924480 0.205516
Si Si3 0.520680 0.520680 0.500000
Si Si4 0.100797 0.350128 0.695283
Si Si5 0.840324 0.338126 0.034472
O O1 0.666668 0.333334 0.750000
O O2 0.665859 0.248675 0.473004
O O3 0.560473 0.858199 0.357231
O O4 0.560536 0.970170 0.155572
O O5 0.702838 0.004107 0.258610
O O6 0.630363 0.893714 0.016460
O O7 0.433318 0.516233 0.538820
O O8 0.152946 0.305892 0.750000
O O9 0.145356 0.438830 0.797754
#
# Coordination Sequence:
#
# PCOD9584716 Si02
#       5
#     4  12   6  12  12
#     4  12  30  39  60  88 129 159 211 294 333 373
#     4  10  23  41  65  81 116 161 203 266 323 391
#     4  10  20  38  64  72 100 158 208 240 316 398
#     4  10  23  39  63  91 110 150 213 267 311 383
#     4  12  24  44  57  82 119 162 203 271 336 375
#
# _framework density 21.025388
#
# number of rings (size 3 to 8) (size 9 to 14) (size 15 to 20)
#    0.000    1.565    2.609    2.348   14.609    0.000 
#    0.000    0.000    0.000    0.000    0.000    0.000 
#    0.000    0.000    0.000    0.000    0.000    0.000 
#
# Total GULP energy -257323.395793 kJ/mol
# GULP energy per Si atom -5593.986865 kJ/mol
# Density = 2.097753 g / cm^3
# Si number density = 21.025388 Si / 1000 Ang^3
#
#
#
# Elastic Constant Matrix: (Units=GPa)
#
#
# Indices 1 2 3 4 5 6 
#
# 1 106.0144 47.6058 49.8447 0.0000 0.0000 0.0000
# 2 47.6058 106.0153 49.8445 -0.0002 0.0001 0.0001
# 3 49.8447 49.8445 84.5912 -0.0001 0.0000 0.0001
# 4 0.0000 -0.0002 -0.0001 22.7249 0.0000 0.0000
# 5 0.0000 0.0001 0.0000 0.0000 22.7246 -0.0001
# 6 0.0000 0.0001 0.0001 0.0000 -0.0001 29.2046
#
#
#
# Elastic Compliance Matrix: (Units=1/GPa)
#
#
# Indices 1 2 3 4 5 6 
#
# 1 0.013830 -0.003290 -0.006210 0.000000 0.000000 0.000000
# 2 -0.003290 0.013830 -0.006210 0.000000 0.000000 0.000000
# 3 -0.006210 -0.006210 0.019140 0.000000 0.000000 0.000000
# 4 0.000000 0.000000 0.000000 0.044005 0.000000 0.000000
# 5 0.000000 0.000000 0.000000 0.000000 0.044005 0.000000
# 6 0.000000 0.000000 0.000000 0.000000 0.000000 0.034241
#
#
# Mechanical properties :
#
#
# Convention : Reuss Voigt Hill
#
# Bulk Modulus (GPa) = 65.02742 65.69009 65.35875
# Shear Modulus (GPa) = 24.31902 24.88587 24.60244
#
# Velocity S-wave (km/s) = 3.40465 3.44410 3.42443
# Velocity P-wave (km/s) = 6.81547 6.86489 6.84023
#
# Compressibility (1/GPa) = 0.01537813
#
# Stress axis : x y z
#
# Youngs Moduli (GPa) = 72.30531 72.30631 52.24547
#
# Poissons Ratio (x) = 0.23792 0.32447
# Poissons Ratio (y) = 0.23792 0.32446
# Poissons Ratio (z) = 0.44905 0.44905
#
# Static dielectric constant tensor:
#      x y z
#    x 1.804380 0.000000 0.000000 
#    y 0.000000 1.804380 0.000000 
#    z 0.000000 0.000000 1.858400 
# 
# From -- ./inp_files/1523.got.cif
#   From: 2010.05.17/outbox.cif.g08.bks.cpg/sg182_1_cif.got.tgz:1523.got - 2010.05.20 11:58:53.
