data_PCOD9584557
_publ_section_title
;
Structure prediction by ZEFSAII (Michael W. Deem and Ramdas Pophale) SiO2 
 PCOD9584557
Probable space group: P 64 2 2
;
_chemical_formula_sum "Si O2"
_cell_formula_units_Z 42
_cell_length_a 10.795725
_cell_length_b 10.795725
_cell_length_c 19.767274
_cell_angle_alpha 90.000000
_cell_angle_beta 90.000000
_cell_angle_gamma 120.000000
_cell_volume 1995.175211
_symmetry_space_group_name_H-M "P 64 2 2"
_symmetry_group_IT_number 181
_symmetry_cell_setting 'hexagonal'
loop_
_space_group_symop_operation_xyz
x,y,z
x-y,x,2/3+z
-y,x-y,1/3+z
-x,-y,z
-x+y,-x,2/3+z
y,-x+y,1/3+z
x-y,-y,-z
-x,-x+y,2/3-z
y,x,1/3-z
-y,-x,1/3-z
-x+y,y,-z
x,x-y,2/3-z
loop_
_atom_site_type_symbol
_atom_site_label
_atom_site_fract_x
_atom_site_fract_y
_atom_site_fract_z
Si Si1 0.450727 0.834714 0.777782
Si Si2 0.035830 0.372063 0.760022
Si Si3 0.432390 0.161397 0.001363
Si Si4 0.574736 0.787368 0.333334
O O1 0.422419 0.711210 0.833334
O O2 0.563986 0.824569 0.727207
O O3 0.318206 0.794534 0.726649
O O4 0.500000 0.000000 0.800926
O O5 0.196297 0.430575 0.738062
O O6 0.000000 0.500000 0.758918
O O7 0.000000 0.304607 0.833334
O O8 0.936605 0.266010 0.702734
O O9 0.579219 0.158437 0.000000
O O10 0.304724 0.000000 0.000000
#
# Coordination Sequence:
#
# PCOD9584557 Si02
#       4
#    12  12  12   6
#     4  12  26  41  66 103 141 183 237 302 373 447
#     4  11  23  41  69  98 135 183 231 285 358 438
#     4  11  23  43  67 100 139 177 230 296 364 438
#     4  12  22  42  68  96 136 174 236 290 350 442
#
# _framework density 21.050782000000002
#
# number of rings (size 3 to 8) (size 9 to 14) (size 15 to 20)
#    0.000    0.571    7.143    0.000   12.000    0.000 
#    0.000    0.714    0.000    1.714    0.000    0.000 
#    0.000    0.000    0.000    0.000    0.000    0.000 
#
# Total GULP energy -234506.086379 kJ/mol
# GULP energy per Si atom -5583.478247 kJ/mol
# Density = 2.100287 g / cm^3
# Si number density = 21.050782 Si / 1000 Ang^3
#
#
#
# Elastic Constant Matrix: (Units=GPa)
#
#
# Indices 1 2 3 4 5 6 
#
# 1 98.4585 37.7717 44.2260 0.0000 0.0000 0.0000
# 2 37.7717 98.4585 44.2260 0.0000 0.0000 0.0000
# 3 44.2260 44.2260 128.6132 0.0000 0.0000 0.0000
# 4 0.0000 0.0000 0.0000 -3.7279 0.0000 0.0000
# 5 0.0000 0.0000 0.0000 0.0000 -3.7279 0.0000
# 6 0.0000 0.0000 0.0000 0.0000 0.0000 30.3434
#
#
#
# Elastic Compliance Matrix: (Units=1/GPa)
#
#
# Indices 1 2 3 4 5 6 
#
# 1 0.012964 -0.003514 -0.003250 0.000000 0.000000 0.000000
# 2 -0.003514 0.012964 -0.003250 0.000000 0.000000 0.000000
# 3 -0.003250 -0.003250 0.010010 0.000000 0.000000 0.000000
# 4 0.000000 0.000000 0.000000 -0.268248 0.000000 0.000000
# 5 0.000000 0.000000 0.000000 0.000000 -0.268248 0.000000
# 6 0.000000 0.000000 0.000000 0.000000 0.000000 0.032956
#
#
# Mechanical properties :
#
#
# Convention : Reuss Voigt Hill
#
# Bulk Modulus (GPa) = 62.84444 64.21975 63.53210
# Shear Modulus (GPa) = -11.30528 17.86463 3.27968
#
# Velocity S-wave (km/s) = -2.31994 2.91631 1.24955
# Velocity P-wave (km/s) = 4.76889 6.47403 5.68575
#
# Compressibility (1/GPa) = 0.01591231
#
# Stress axis : x y z
#
# Youngs Moduli (GPa) = 77.13505 77.13505 99.89797
#
# Poissons Ratio (x) = 0.27103 0.32464
# Poissons Ratio (y) = 0.27103 0.32464
# Poissons Ratio (z) = 0.25067 0.25067
#
# Static dielectric constant tensor:
#      x y z
#    x 1.864690 0.000000 0.000000 
#    y 0.000000 1.864690 0.000000 
#    z 0.000000 0.000000 1.811600 
# 
# From -- ./inp_files/7335.got.cif
#   From: 2010.05.17/outbox.cif.g08.bks.cpg/sg181_4_cif.got.tgz:7335.got - 2010.05.20 11:51:17.
