data_PCOD9584604
_publ_section_title
;
Structure prediction by ZEFSAII (Michael W. Deem and Ramdas Pophale) SiO2 
 PCOD9584604
Probable space group: P 63 2 2
;
_chemical_formula_sum "Si O2"
_cell_formula_units_Z 72
_cell_length_a 32.374277
_cell_length_b 32.374277
_cell_length_c 5.333308
_cell_angle_alpha 90.000000
_cell_angle_beta 90.000000
_cell_angle_gamma 120.000000
_cell_volume 4840.914958
_symmetry_space_group_name_H-M "P 63 2 2"
_symmetry_group_IT_number 182
_symmetry_cell_setting 'hexagonal'
loop_
_space_group_symop_operation_xyz
x,y,z
x-y,x,1/2+z
-y,x-y,z
-x,-y,1/2+z
-x+y,-x,z
y,-x+y,1/2+z
x-y,-y,-z
-x,-x+y,-z
y,x,-z
-y,-x,1/2-z
-x+y,y,1/2-z
x,x-y,1/2-z
loop_
_atom_site_type_symbol
_atom_site_label
_atom_site_fract_x
_atom_site_fract_y
_atom_site_fract_z
Si Si1 0.057328 0.612786 0.760135
Si Si2 0.130151 0.869850 0.250000
Si Si3 0.312905 0.077614 0.883131
Si Si4 0.816457 0.867090 0.625246
Si Si5 0.293332 0.348284 0.903789
Si Si6 0.000000 0.781784 0.500000
Si Si7 0.050588 0.476500 0.246474
O O1 0.063180 0.663910 0.811791
O O2 0.075972 0.604245 0.499313
O O3 0.000772 0.572414 0.752115
O O4 0.077165 0.598945 0.999941
O O5 0.116305 0.820447 0.388787
O O6 0.137052 0.912587 0.435619
O O7 0.347453 0.083681 0.651489
O O8 0.327806 0.067758 0.156107
O O9 0.262789 0.029798 0.820817
O O10 0.853501 0.853501 0.500000
O O11 0.838224 0.919112 0.750000
O O12 0.792362 0.827853 0.842933
O O13 0.319827 0.319827 0.000000
O O14 0.041396 0.520698 0.250000
#
# Coordination Sequence:
#
# PCOD9584604 Si02
#       7
#    12   6  12  12  12   6  12
#     4  10  18  28  39  60  91 119 162 203 233 275
#     4  12  26  40  56  78 108 122 154 196 236 304
#     4  12  25  36  54  73 101 126 159 189 242 294
#     4  12  23  39  58  82 109 124 144 173 228 280
#     4  12  22  33  50  72  96 131 159 196 243 291
#     4  12  22  34  56  80 100 124 142 182 214 296
#     4  10  17  26  42  62  91 130 166 201 242 273
#
# _framework density 14.873222999999999
#
# number of rings (size 3 to 8) (size 9 to 14) (size 15 to 20)
#    0.000    0.667    6.667    4.500    2.333    0.000 
#    0.000    0.000    0.000    0.000    0.000    0.000 
#   91.667    0.000    0.000    0.000    0.000    0.000 
#
# Total GULP energy -401095.198202 kJ/mol
# GULP energy per Si atom -5570.766642 kJ/mol
# Density = 1.483937 g / cm^3
# Si number density = 14.873223 Si / 1000 Ang^3
#
#
#
# Elastic Constant Matrix: (Units=GPa)
#
#
# Indices 1 2 3 4 5 6 
#
# 1 67.5398 32.2175 34.1556 0.0000 0.0000 0.0000
# 2 32.2175 67.5398 34.1556 0.0000 0.0000 0.0000
# 3 34.1556 34.1556 136.4159 0.0000 0.0000 0.0000
# 4 0.0000 0.0000 0.0000 19.2729 0.0000 0.0000
# 5 0.0000 0.0000 0.0000 0.0000 19.2729 0.0000
# 6 0.0000 0.0000 0.0000 0.0000 0.0000 17.6611
#
#
#
# Elastic Compliance Matrix: (Units=1/GPa)
#
#
# Indices 1 2 3 4 5 6 
#
# 1 0.020205 -0.008106 -0.003029 0.000000 0.000000 0.000000
# 2 -0.008106 0.020205 -0.003029 0.000000 0.000000 0.000000
# 3 -0.003029 -0.003029 0.008847 0.000000 0.000000 0.000000
# 4 0.000000 0.000000 0.000000 0.051886 0.000000 0.000000
# 5 0.000000 0.000000 0.000000 0.000000 0.051886 0.000000
# 6 0.000000 0.000000 0.000000 0.000000 0.000000 0.056622
#
#
# Mechanical properties :
#
#
# Convention : Reuss Voigt Hill
#
# Bulk Modulus (GPa) = 47.78332 52.50588 50.14460
# Shear Modulus (GPa) = 20.41183 22.63917 21.52550
#
# Velocity S-wave (km/s) = 3.70859 3.90570 3.80842
# Velocity P-wave (km/s) = 7.10880 7.46446 7.28880
#
# Compressibility (1/GPa) = 0.02092780
#
# Stress axis : x y z
#
# Youngs Moduli (GPa) = 49.49339 49.49339 113.02704
#
# Poissons Ratio (x) = 0.40120 0.34239
# Poissons Ratio (y) = 0.40120 0.34239
# Poissons Ratio (z) = 0.14993 0.14993
#
# Static dielectric constant tensor:
#      x y z
#    x 1.495170 0.000000 0.000000 
#    y 0.000000 1.495170 0.000000 
#    z 0.000000 0.000000 1.683370 
# 
# From -- ./inp_files/823.got.cif
#   From: 2010.05.17/outbox.cif.g08.bks.cpg/sg182_1_cif.got.tgz:823.got - 2010.05.20 11:58:53.
