data_PCOD9584620
_publ_section_title
;
Structure prediction by ZEFSAII (Michael W. Deem and Ramdas Pophale) SiO2 
 PCOD9584620
Probable space group: P 63 2 2
;
_chemical_formula_sum "Si O2"
_cell_formula_units_Z 84
_cell_length_a 30.678627
_cell_length_b 30.678627
_cell_length_c 5.262185
_cell_angle_alpha 90.000000
_cell_angle_beta 90.000000
_cell_angle_gamma 120.000000
_cell_volume 4289.123806
_symmetry_space_group_name_H-M "P 63 2 2"
_symmetry_group_IT_number 182
_symmetry_cell_setting 'hexagonal'
loop_
_space_group_symop_operation_xyz
x,y,z
x-y,x,1/2+z
-y,x-y,z
-x,-y,1/2+z
-x+y,-x,z
y,-x+y,1/2+z
x-y,-y,-z
-x,-x+y,-z
y,x,-z
-y,-x,1/2-z
-x+y,y,1/2-z
x,x-y,1/2-z
loop_
_atom_site_type_symbol
_atom_site_label
_atom_site_fract_x
_atom_site_fract_y
_atom_site_fract_z
Si Si1 0.672960 0.139899 0.514557
Si Si2 0.717843 0.251410 0.499268
Si Si3 0.059117 0.500946 0.999576
Si Si4 0.881816 0.822911 0.001554
Si Si5 0.942333 0.223182 0.077216
Si Si6 0.118567 0.795383 0.111872
Si Si7 0.735187 0.169252 0.015903
O O1 0.674865 0.193743 0.501241
O O2 0.617663 0.093714 0.496352
O O3 0.707206 0.143985 0.276122
O O4 0.698476 0.141616 0.781088
O O5 0.719536 0.280465 0.250000
O O6 0.772790 0.252690 0.495862
O O7 0.719844 0.280157 0.750000
O O8 0.069459 0.534730 0.250000
O O9 0.069180 0.534590 0.750000
O O10 0.000000 0.459911 0.000000
O O11 0.914310 0.828621 0.250000
O O12 0.830402 0.769283 0.022987
O O13 0.864469 0.864469 0.000000
O O14 0.912602 0.825204 0.750000
O O15 0.918354 0.215994 0.364890
O O16 0.912176 0.234793 0.860838
O O17 0.000000 0.263058 0.000000
O O18 0.150016 0.849985 0.250000
O O19 0.160231 0.781749 0.017763
#
# Coordination Sequence:
#
# PCOD9584620 Si02
#       7
#    12  12  12  12  12  12  12
#     4  10  18  33  53  74 102 139 177 222 281 332
#     4   8  15  27  45  70  99 127 159 201 257 318
#     4  10  21  37  55  75 101 138 187 238 282 322
#     4  11  22  39  61  83 104 129 164 204 251 308
#     4  11  24  39  54  76 109 144 182 227 267 307
#     4  12  22  36  58  81 108 145 188 228 275 332
#     4  10  20  33  52  79 109 140 177 222 275 335
#
# _framework density 19.584419
#
# number of rings (size 3 to 8) (size 9 to 14) (size 15 to 20)
#    0.000    1.714    0.000    6.429    0.000    4.571 
#    0.000    4.286    0.000    2.857    0.000    0.000 
#    0.000    0.000    0.000  231.429    0.000    0.000 
#
# Total GULP energy -468053.092377 kJ/mol
# GULP energy per Si atom -5572.060624 kJ/mol
# Density = 1.953984 g / cm^3
# Si number density = 19.584419 Si / 1000 Ang^3
#
#
#
# Elastic Constant Matrix: (Units=GPa)
#
#
# Indices 1 2 3 4 5 6 
#
# 1 36.1749 27.9891 24.5934 0.0000 0.0000 0.0000
# 2 27.9891 36.1749 24.5934 0.0000 0.0000 0.0000
# 3 24.5934 24.5934 186.1890 0.0000 0.0000 0.0000
# 4 0.0000 0.0000 0.0000 13.9743 0.0000 0.0000
# 5 0.0000 0.0000 0.0000 0.0000 13.9743 0.0000
# 6 0.0000 0.0000 0.0000 0.0000 0.0000 4.0929
#
#
#
# Elastic Compliance Matrix: (Units=1/GPa)
#
#
# Indices 1 2 3 4 5 6 
#
# 1 0.069752 -0.052411 -0.002291 0.000000 0.000000 0.000000
# 2 -0.052411 0.069752 -0.002291 0.000000 0.000000 0.000000
# 3 -0.002291 -0.002291 0.005976 0.000000 0.000000 0.000000
# 4 0.000000 0.000000 0.000000 0.071560 0.000000 0.000000
# 5 0.000000 0.000000 0.000000 0.000000 0.071560 0.000000
# 6 0.000000 0.000000 0.000000 0.000000 0.000000 0.244325
#
#
# Mechanical properties :
#
#
# Convention : Reuss Voigt Hill
#
# Bulk Modulus (GPa) = 31.75033 45.87672 38.81352
# Shear Modulus (GPa) = 7.60564 18.49915 13.05239
#
# Velocity S-wave (km/s) = 1.97280 3.07674 2.58441
# Velocity P-wave (km/s) = 4.62996 6.00814 5.36350
#
# Compressibility (1/GPa) = 0.03149574
#
# Stress axis : x y z
#
# Youngs Moduli (GPa) = 14.33656 14.33656 167.33621
#
# Poissons Ratio (x) = 0.75139 0.38329
# Poissons Ratio (y) = 0.75139 0.38329
# Poissons Ratio (z) = 0.03284 0.03284
#
# Static dielectric constant tensor:
#      x y z
#    x 1.711570 0.000000 0.000000 
#    y 0.000000 1.711570 0.000000 
#    z 0.000000 0.000000 1.760220 
# 
# From -- ./inp_files/851.got.cif
#   From: 2010.05.17/outbox.cif.g08.bks.cpg/sg182_1_cif.got.tgz:851.got - 2010.05.20 11:58:53.
