data_PCOD9584104
_publ_section_title
;
Structure prediction by ZEFSAII (Michael W. Deem and Ramdas Pophale) SiO2 
 PCOD9584104
Probable space group: P 62 2 2
;
_chemical_formula_sum "Si O2"
_cell_formula_units_Z 51
_cell_length_a 16.601541
_cell_length_b 16.601541
_cell_length_c 10.279973
_cell_angle_alpha 90.000000
_cell_angle_beta 90.000000
_cell_angle_gamma 120.000000
_cell_volume 2453.688403
_symmetry_space_group_name_H-M "P 62 2 2"
_symmetry_group_IT_number 180
_symmetry_cell_setting 'hexagonal'
loop_
_space_group_symop_operation_xyz
x,y,z
x-y,x,1/3+z
-y,x-y,2/3+z
-x,-y,z
-x+y,-x,1/3+z
y,-x+y,2/3+z
x-y,-y,-z
-x,-x+y,1/3-z
y,x,2/3-z
-y,-x,2/3-z
-x+y,y,-z
x,x-y,1/3-z
loop_
_atom_site_type_symbol
_atom_site_label
_atom_site_fract_x
_atom_site_fract_y
_atom_site_fract_z
Si Si1 0.752456 0.682182 0.209123
Si Si2 0.163692 0.655068 0.006774
Si Si3 0.810559 0.463275 0.789993
Si Si4 0.095733 0.792809 0.950733
Si Si5 0.000000 0.500000 0.166667
O O1 0.714378 0.714378 0.333334
O O2 0.685479 0.571677 0.196865
O O3 0.856029 0.705450 0.251362
O O4 0.745016 0.731757 0.078987
O O5 0.251390 0.715220 0.099064
O O6 0.140066 0.726029 0.932446
O O7 0.069446 0.587704 0.081559
O O8 0.189280 0.595226 0.912245
O O9 0.828285 0.414143 0.666667
O O10 0.133678 0.866323 0.833334
#
# Coordination Sequence:
#
# PCOD9584104 Si02
#       5
#    12  12  12  12   3
#     4   9  17  29  51  81 117 156 205 254 307 367
#     4  11  24  39  55  82 116 160 216 264 322 380
#     4  11  22  37  61  87 115 159 212 267 318 383
#     4   9  17  33  53  81 112 154 204 254 307 371
#     4  12  28  40  54  76 116 168 202 266 324 364
#
# _framework density 20.785036000000002
#
# number of rings (size 3 to 8) (size 9 to 14) (size 15 to 20)
#    0.000    1.882    0.000    6.353    3.294    2.353 
#    0.000    0.000    0.000    0.000    0.000    0.000 
#    0.000    0.000    0.000  880.941   18.824    0.000 
#
# Total GULP energy -284781.196374 kJ/mol
# GULP energy per Si atom -5583.945027 kJ/mol
# Density = 2.073773 g / cm^3
# Si number density = 20.785036 Si / 1000 Ang^3
#
#
#
# Elastic Constant Matrix: (Units=GPa)
#
#
# Indices 1 2 3 4 5 6 
#
# 1 123.2976 65.0961 51.2232 0.0000 0.0000 0.0000
# 2 65.0961 123.2976 51.2232 0.0000 0.0000 0.0000
# 3 51.2232 51.2232 56.6907 0.0000 0.0000 0.0000
# 4 0.0000 0.0000 0.0000 17.2627 0.0000 0.0000
# 5 0.0000 0.0000 0.0000 0.0000 17.2627 0.0000
# 6 0.0000 0.0000 0.0000 0.0000 0.0000 29.1007
#
#
#
# Elastic Compliance Matrix: (Units=1/GPa)
#
#
# Indices 1 2 3 4 5 6 
#
# 1 0.013809 -0.003373 -0.009429 0.000000 0.000000 0.000000
# 2 -0.003373 0.013809 -0.009429 0.000000 0.000000 0.000000
# 3 -0.009429 -0.009429 0.034679 0.000000 0.000000 0.000000
# 4 0.000000 0.000000 0.000000 0.057928 0.000000 0.000000
# 5 0.000000 0.000000 0.000000 0.000000 0.057928 0.000000
# 6 0.000000 0.000000 0.000000 0.000000 0.000000 0.034363
#
#
# Mechanical properties :
#
#
# Convention : Reuss Voigt Hill
#
# Bulk Modulus (GPa) = 56.07358 70.93011 63.50184
# Shear Modulus (GPa) = 19.01699 21.77478 20.39588
#
# Velocity S-wave (km/s) = 3.02807 3.24020 3.13593
# Velocity P-wave (km/s) = 6.26594 6.94249 6.61288
#
# Compressibility (1/GPa) = 0.01783371
#
# Stress axis : x y z
#
# Youngs Moduli (GPa) = 72.41892 72.41892 28.83609
#
# Poissons Ratio (x) = 0.24428 0.27189
# Poissons Ratio (y) = 0.24428 0.27189
# Poissons Ratio (z) = 0.68284 0.68284
#
# Static dielectric constant tensor:
#      x y z
#    x 1.767630 0.000000 0.000000 
#    y 0.000000 1.767630 0.000000 
#    z 0.000000 0.000000 1.770620 
# 
# From -- ./inp_files/2757.got.cif
#   From: 2010.05.17/outbox.cif.g08.bks.cpg/sg180_2_cif.got.tgz:2757.got - 2010.05.20 11:43:55.
