data_PCOD9584660
_publ_section_title
;
Structure prediction by ZEFSAII (Michael W. Deem and Ramdas Pophale) SiO2 
 PCOD9584660
Probable space group: P 63 2 2
;
_chemical_formula_sum "Si O2"
_cell_formula_units_Z 66
_cell_length_a 17.612692
_cell_length_b 17.612692
_cell_length_c 14.009968
_cell_angle_alpha 90.000000
_cell_angle_beta 90.000000
_cell_angle_gamma 120.000000
_cell_volume 3763.736892
_symmetry_space_group_name_H-M "P 63 2 2"
_symmetry_group_IT_number 182
_symmetry_cell_setting 'hexagonal'
loop_
_space_group_symop_operation_xyz
x,y,z
x-y,x,1/2+z
-y,x-y,z
-x,-y,1/2+z
-x+y,-x,z
y,-x+y,1/2+z
x-y,-y,-z
-x,-x+y,-z
y,x,-z
-y,-x,1/2-z
-x+y,y,1/2-z
x,x-y,1/2-z
loop_
_atom_site_type_symbol
_atom_site_label
_atom_site_fract_x
_atom_site_fract_y
_atom_site_fract_z
Si Si1 0.814087 0.185914 0.750000
Si Si2 0.504802 0.266967 0.018194
Si Si3 0.808817 0.460289 0.667385
Si Si4 0.929232 0.270681 0.577263
Si Si5 0.391214 0.562535 0.646353
Si Si6 0.522607 0.538252 0.388712
O O1 0.718423 0.161252 0.708116
O O2 0.881855 0.201364 0.663945
O O3 0.565983 0.358551 0.070053
O O4 0.495628 0.197249 0.098936
O O5 0.546099 0.251206 0.922224
O O6 0.416095 0.263750 0.984189
O O7 0.773723 0.386862 0.750000
O O8 0.894239 0.457340 0.634843
O O9 0.976001 0.367238 0.626921
O O10 0.000000 0.274071 0.500000
O O11 0.395919 0.604082 0.750000
O O12 0.454541 0.522186 0.653728
O O13 0.523705 0.523705 0.500000
#
# Coordination Sequence:
#
# PCOD9584660 Si02
#       6
#     6  12  12  12  12  12
#     4  10  22  32  52  84 100 128 196 240 300 384
#     4  11  22  36  50  73 103 133 185 247 295 352
#     4  11  21  35  51  77 103 133 179 244 307 357
#     4  10  19  36  55  72 104 140 179 242 312 369
#     4  12  24  37  55  71 101 142 193 241 296 360
#     4  11  19  37  55  71 101 147 182 225 309 369
#
# _framework density 17.535764
#
# number of rings (size 3 to 8) (size 9 to 14) (size 15 to 20)
#    0.000    1.091    7.273    1.455    2.545    0.000 
#    0.545    0.000    0.000    0.000    0.000    0.000 
#    0.000    0.000    0.000    0.000    0.000    0.000 
#
# Total GULP energy -367871.055955 kJ/mol
# GULP energy per Si atom -5573.803878 kJ/mol
# Density = 1.749585 g / cm^3
# Si number density = 17.535764 Si / 1000 Ang^3
#
#
#
# Elastic Constant Matrix: (Units=GPa)
#
#
# Indices 1 2 3 4 5 6 
#
# 1 62.1368 22.9211 32.4114 0.0000 0.0000 0.0000
# 2 22.9211 62.1368 32.4114 0.0000 0.0000 0.0000
# 3 32.4114 32.4114 116.2115 0.0000 0.0000 0.0000
# 4 0.0000 0.0000 0.0000 23.0345 0.0000 0.0000
# 5 0.0000 0.0000 0.0000 0.0000 23.0345 0.0000
# 6 0.0000 0.0000 0.0000 0.0000 0.0000 19.6078
#
#
#
# Elastic Compliance Matrix: (Units=1/GPa)
#
#
# Indices 1 2 3 4 5 6 
#
# 1 0.020215 -0.005285 -0.004164 0.000000 0.000000 0.000000
# 2 -0.005285 0.020215 -0.004164 0.000000 0.000000 0.000000
# 3 -0.004164 -0.004164 0.010928 0.000000 0.000000 0.000000
# 4 0.000000 0.000000 0.000000 0.043413 0.000000 0.000000
# 5 0.000000 0.000000 0.000000 0.000000 0.043413 0.000000
# 6 0.000000 0.000000 0.000000 0.000000 0.000000 0.051000
#
#
# Mechanical properties :
#
#
# Convention : Reuss Voigt Hill
#
# Bulk Modulus (GPa) = 41.43902 46.21923 43.82912
# Shear Modulus (GPa) = 22.27626 23.31809 22.79718
#
# Velocity S-wave (km/s) = 3.56804 3.65052 3.60952
# Velocity P-wave (km/s) = 6.37628 6.64701 6.51305
#
# Compressibility (1/GPa) = 0.02413185
#
# Stress axis : x y z
#
# Youngs Moduli (GPa) = 49.46805 49.46805 91.51071
#
# Poissons Ratio (x) = 0.26144 0.38105
# Poissons Ratio (y) = 0.26144 0.38105
# Poissons Ratio (z) = 0.20599 0.20599
#
# Static dielectric constant tensor:
#      x y z
#    x 1.620710 0.000000 0.000000 
#    y 0.000000 1.620710 0.000000 
#    z 0.000000 0.000000 1.698500 
# 
# From -- ./inp_files/3604.got.cif
#   From: 2010.05.17/outbox.cif.g08.bks.cpg/sg182_2_cif.got.tgz:3604.got - 2010.05.20 11:58:53.
