data_PCOD9584901
_publ_section_title
;
Structure prediction by ZEFSAII (Michael W. Deem and Ramdas Pophale) SiO2 
 PCOD9584901
Probable space group: P 63 2 2
;
_chemical_formula_sum "Si O2"
_cell_formula_units_Z 34
_cell_length_a 10.577144
_cell_length_b 10.577144
_cell_length_c 13.360819
_cell_angle_alpha 90.000000
_cell_angle_beta 90.000000
_cell_angle_gamma 120.000000
_cell_volume 1294.495504
_symmetry_space_group_name_H-M "P 63 2 2"
_symmetry_group_IT_number 182
_symmetry_cell_setting 'hexagonal'
loop_
_space_group_symop_operation_xyz
x,y,z
x-y,x,1/2+z
-y,x-y,z
-x,-y,1/2+z
-x+y,-x,z
y,-x+y,1/2+z
x-y,-y,-z
-x,-x+y,-z
y,x,-z
-y,-x,1/2-z
-x+y,y,1/2-z
x,x-y,1/2-z
loop_
_atom_site_type_symbol
_atom_site_label
_atom_site_fract_x
_atom_site_fract_y
_atom_site_fract_z
Si Si1 0.841190 0.679595 0.642831
Si Si2 0.431770 0.000000 0.000000
Si Si3 0.000000 0.000000 0.119445
Si Si4 0.104649 0.649247 0.827304
O O1 0.801742 0.603483 0.750000
O O2 0.892723 0.603285 0.564454
O O3 0.974801 0.844218 0.652747
O O4 0.703516 0.702172 0.627242
O O5 0.564530 0.111023 0.072978
O O6 0.000000 0.000000 0.000000
O O7 0.232544 0.767457 0.750000
O O8 0.029086 0.514543 0.750000
#
# Coordination Sequence:
#
# PCOD9584901 Si02
#       4
#    12   6   4  12
#     4  12  26  53  84 121 170 229 297 373 443 530
#     4  12  30  52  86 136 176 232 302 376 456 532
#     4  12  25  44  85 121 164 223 301 377 436 517
#     4  12  29  54  85 122 178 234 293 362 456 548
#
# _framework density 26.265058
#
# number of rings (size 3 to 8) (size 9 to 14) (size 15 to 20)
#    0.000    0.000    5.294    3.529    7.412    0.000 
#    2.118    1.765    0.000    0.000    0.000    0.000 
#    0.000    0.000    0.000    0.000    0.000    0.000 
#
# Total GULP energy -189399.176013 kJ/mol
# GULP energy per Si atom -5570.564000 kJ/mol
# Density = 2.620528 g / cm^3
# Si number density = 26.265058 Si / 1000 Ang^3
#
#
#
# Elastic Constant Matrix: (Units=GPa)
#
#
# Indices 1 2 3 4 5 6 
#
# 1 139.0496 85.1707 85.4476 0.0000 0.0000 0.0000
# 2 85.1707 139.0496 85.4476 0.0000 0.0000 0.0000
# 3 85.4476 85.4476 226.4469 0.0000 0.0000 0.0000
# 4 0.0000 0.0000 0.0000 33.1612 0.0000 0.0000
# 5 0.0000 0.0000 0.0000 0.0000 33.1612 0.0000
# 6 0.0000 0.0000 0.0000 0.0000 0.0000 26.9395
#
#
#
# Elastic Compliance Matrix: (Units=1/GPa)
#
#
# Indices 1 2 3 4 5 6 
#
# 1 0.012410 -0.006150 -0.002362 0.000000 0.000000 0.000000
# 2 -0.006150 0.012410 -0.002362 0.000000 0.000000 0.000000
# 3 -0.002362 -0.002362 0.006199 0.000000 0.000000 0.000000
# 4 0.000000 0.000000 0.000000 0.030156 0.000000 0.000000
# 5 0.000000 0.000000 0.000000 0.000000 0.030156 0.000000
# 6 0.000000 0.000000 0.000000 0.000000 0.000000 0.037120
#
#
# Mechanical properties :
#
#
# Convention : Reuss Voigt Hill
#
# Bulk Modulus (GPa) = 107.87010 112.96419 110.41714
# Shear Modulus (GPa) = 32.61789 35.21773 33.91781
#
# Velocity S-wave (km/s) = 3.52785 3.66575 3.59746
# Velocity P-wave (km/s) = 7.59956 7.81150 7.70626
#
# Compressibility (1/GPa) = 0.00927041
#
# Stress axis : x y z
#
# Youngs Moduli (GPa) = 80.57849 80.57849 161.32090
#
# Poissons Ratio (x) = 0.49555 0.38109
# Poissons Ratio (y) = 0.49555 0.38109
# Poissons Ratio (z) = 0.19035 0.19035
#
# Static dielectric constant tensor:
#      x y z
#    x 2.141710 0.000000 0.000000 
#    y 0.000000 2.141710 0.000000 
#    z 0.000000 0.000000 2.210170 
# 
# From -- ./inp_files/3082.got.cif
#   From: 2010.05.17/outbox.cif.g08.bks.cpg/sg182_2_cif.got.tgz:3082.got - 2010.05.20 11:58:53.
