data_PCOD9584857
_publ_section_title
;
Structure prediction by ZEFSAII (Michael W. Deem and Ramdas Pophale) SiO2 
 PCOD9584857
Probable space group: P 63 2 2
;
_chemical_formula_sum "Si O2"
_cell_formula_units_Z 90
_cell_length_a 17.491845
_cell_length_b 17.491845
_cell_length_c 16.418746
_cell_angle_alpha 90.000000
_cell_angle_beta 90.000000
_cell_angle_gamma 120.000000
_cell_volume 4350.526883
_symmetry_space_group_name_H-M "P 63 2 2"
_symmetry_group_IT_number 182
_symmetry_cell_setting 'hexagonal'
loop_
_space_group_symop_operation_xyz
x,y,z
x-y,x,1/2+z
-y,x-y,z
-x,-y,1/2+z
-x+y,-x,z
y,-x+y,1/2+z
x-y,-y,-z
-x,-x+y,-z
y,x,-z
-y,-x,1/2-z
-x+y,y,1/2-z
x,x-y,1/2-z
loop_
_atom_site_type_symbol
_atom_site_label
_atom_site_fract_x
_atom_site_fract_y
_atom_site_fract_z
Si Si1 0.670602 0.773684 0.520458
Si Si2 0.318526 0.255483 0.421564
Si Si3 0.559672 0.779836 0.250000
Si Si4 0.024461 0.653519 0.279495
Si Si5 0.920619 0.451916 0.902778
Si Si6 0.625172 0.090219 0.136106
Si Si7 0.647323 0.480122 0.056831
Si Si8 0.775148 0.271339 0.579767
O O1 0.732332 0.732332 0.500000
O O2 0.718936 0.872250 0.556599
O O3 0.597480 0.711663 0.586088
O O4 0.606532 0.769016 0.446696
O O5 0.297151 0.297151 0.500000
O O6 0.293775 0.288697 0.340283
O O7 0.423559 0.293683 0.405103
O O8 0.612257 0.885755 0.235255
O O9 0.505231 0.735531 0.167424
O O10 0.053205 0.594594 0.333425
O O11 0.944375 0.581334 0.223785
O O12 0.833271 0.459556 0.899383
O O13 0.999920 0.550448 0.903443
O O14 0.905169 0.402283 0.986784
O O15 0.588989 0.158931 0.117736
O O16 0.710619 0.459942 0.998415
#
# Coordination Sequence:
#
# PCOD9584857 Si02
#       8
#    12  12   6  12  12  12  12  12
#     4  11  21  40  62  91 123 163 214 264 327 407
#     4  11  22  39  64  92 127 164 213 280 338 394
#     4  12  22  36  56  90 134 154 214 284 340 386
#     4  12  24  37  62  96 127 173 223 284 336 402
#     4  12  20  37  59  86 126 172 220 263 335 398
#     4  12  22  36  64  87 124 175 224 268 321 406
#     4  11  21  38  59  86 124 169 225 271 321 402
#     4  11  23  35  57  86 124 171 212 274 331 392
#
# _framework density 20.687149000000002
#
# number of rings (size 3 to 8) (size 9 to 14) (size 15 to 20)
#    0.000    0.533    8.000    1.600    0.000    0.533 
#    0.800    0.000    0.000    0.267    0.000    0.000 
#    0.000    0.000    0.000    0.000    0.000    0.000 
#
# Total GULP energy -501289.702197 kJ/mol
# GULP energy per Si atom -5569.885580 kJ/mol
# Density = 2.064006 g / cm^3
# Si number density = 20.687149 Si / 1000 Ang^3
#
#
#
# Elastic Constant Matrix: (Units=GPa)
#
#
# Indices 1 2 3 4 5 6 
#
# 1 89.8892 32.5820 25.1986 0.0000 0.0000 0.0000
# 2 32.5820 89.8892 25.1986 0.0000 0.0000 0.0000
# 3 25.1986 25.1986 90.2097 0.0000 0.0000 0.0000
# 4 0.0000 0.0000 0.0000 17.5902 0.0000 0.0000
# 5 0.0000 0.0000 0.0000 0.0000 17.5902 0.0000
# 6 0.0000 0.0000 0.0000 0.0000 0.0000 28.6536
#
#
#
# Elastic Compliance Matrix: (Units=1/GPa)
#
#
# Indices 1 2 3 4 5 6 
#
# 1 0.013338 -0.004112 -0.002577 0.000000 0.000000 0.000000
# 2 -0.004112 0.013338 -0.002577 0.000000 0.000000 0.000000
# 3 -0.002577 -0.002577 0.012525 0.000000 0.000000 0.000000
# 4 0.000000 0.000000 0.000000 0.056850 0.000000 0.000000
# 5 0.000000 0.000000 0.000000 0.000000 0.056850 0.000000
# 6 0.000000 0.000000 0.000000 0.000000 0.000000 0.034900
#
#
# Mechanical properties :
#
#
# Convention : Reuss Voigt Hill
#
# Bulk Modulus (GPa) = 48.38366 48.43852 48.41109
# Shear Modulus (GPa) = 23.44977 25.23403 24.34190
#
# Velocity S-wave (km/s) = 3.37047 3.49634 3.43398
# Velocity P-wave (km/s) = 6.21174 6.30594 6.25902
#
# Compressibility (1/GPa) = 0.02066813
#
# Stress axis : x y z
#
# Youngs Moduli (GPa) = 74.97526 74.97526 79.84037
#
# Poissons Ratio (x) = 0.30831 0.20575
# Poissons Ratio (y) = 0.30831 0.20575
# Poissons Ratio (z) = 0.19321 0.19321
#
# Static dielectric constant tensor:
#      x y z
#    x 1.850050 0.000000 0.000000 
#    y 0.000000 1.850050 0.000000 
#    z 0.000000 0.000000 1.821030 
# 
# From -- ./inp_files/4495.got.cif
#   From: 2010.05.17/outbox.cif.g08.bks.cpg/sg182_3_cif.got.tgz:4495.got - 2010.05.20 11:58:53.
