data_PCOD9584668
_publ_section_title
;
Structure prediction by ZEFSAII (Michael W. Deem and Ramdas Pophale) SiO2 
 PCOD9584668
Probable space group: P 63 2 2
;
_chemical_formula_sum "Si O2"
_cell_formula_units_Z 48
_cell_length_a 15.907414
_cell_length_b 15.907414
_cell_length_c 11.050667
_cell_angle_alpha 90.000000
_cell_angle_beta 90.000000
_cell_angle_gamma 120.000000
_cell_volume 2421.688569
_symmetry_space_group_name_H-M "P 63 2 2"
_symmetry_group_IT_number 182
_symmetry_cell_setting 'hexagonal'
loop_
_space_group_symop_operation_xyz
x,y,z
x-y,x,1/2+z
-y,x-y,z
-x,-y,1/2+z
-x+y,-x,z
y,-x+y,1/2+z
x-y,-y,-z
-x,-x+y,-z
y,x,-z
-y,-x,1/2-z
-x+y,y,1/2-z
x,x-y,1/2-z
loop_
_atom_site_type_symbol
_atom_site_label
_atom_site_fract_x
_atom_site_fract_y
_atom_site_fract_z
Si Si1 0.188379 0.805114 0.923533
Si Si2 0.081640 0.442938 0.774921
Si Si3 0.645655 0.904525 0.175645
Si Si4 0.168036 0.125282 0.126359
O O1 0.303594 0.872882 0.901006
O O2 0.143769 0.721805 0.822848
O O3 0.143035 0.875994 0.904976
O O4 0.139282 0.744067 0.044180
O O5 0.092735 0.546368 0.750000
O O6 0.972181 0.358927 0.744685
O O7 0.621939 0.810970 0.250000
O O8 0.762432 0.969206 0.159982
O O9 0.127546 0.063773 0.250000
O O10 0.110295 0.110295 0.000000
#
# Coordination Sequence:
#
# PCOD9584668 Si02
#       4
#    12  12  12  12
#     4   9  18  37  56  83 120 154 205 268 318 371
#     4  10  19  37  63  87 115 162 221 261 317 390
#     4  10  20  35  55  87 124 156 202 259 312 374
#     4   9  15  31  56  79 115 158 197 256 318 379
#
# _framework density 19.820881
#
# number of rings (size 3 to 8) (size 9 to 14) (size 15 to 20)
#    0.000    2.500    5.000    2.250    0.000    1.000 
#   15.000    0.000    0.000    1.000    0.000    0.000 
#    0.000    0.000    0.000    0.000    0.000    0.000 
#
# Total GULP energy -267276.225229 kJ/mol
# GULP energy per Si atom -5568.254692 kJ/mol
# Density = 1.977577 g / cm^3
# Si number density = 19.820881 Si / 1000 Ang^3
#
#
#
# Elastic Constant Matrix: (Units=GPa)
#
#
# Indices 1 2 3 4 5 6 
#
# 1 123.9316 19.1338 19.7810 0.0000 0.0000 0.0000
# 2 19.1338 123.9316 19.7810 0.0000 0.0000 0.0000
# 3 19.7810 19.7810 68.8122 0.0000 0.0000 0.0000
# 4 0.0000 0.0000 0.0000 12.0799 0.0000 0.0000
# 5 0.0000 0.0000 0.0000 0.0000 12.0799 0.0000
# 6 0.0000 0.0000 0.0000 0.0000 0.0000 52.3989
#
#
#
# Elastic Compliance Matrix: (Units=1/GPa)
#
#
# Indices 1 2 3 4 5 6 
#
# 1 0.008568 -0.000974 -0.002183 0.000000 0.000000 0.000000
# 2 -0.000974 0.008568 -0.002183 0.000000 0.000000 0.000000
# 3 -0.002183 -0.002183 0.015787 0.000000 0.000000 0.000000
# 4 0.000000 0.000000 0.000000 0.082782 0.000000 0.000000
# 5 0.000000 0.000000 0.000000 0.000000 0.082782 0.000000
# 6 0.000000 0.000000 0.000000 0.000000 0.000000 0.019084
#
#
# Mechanical properties :
#
#
# Convention : Reuss Voigt Hill
#
# Bulk Modulus (GPa) = 44.95838 48.22968 46.59403
# Shear Modulus (GPa) = 21.21644 32.51035 26.86339
#
# Velocity S-wave (km/s) = 3.27526 4.05434 3.68544
# Velocity P-wave (km/s) = 6.08561 6.80459 6.45512
#
# Compressibility (1/GPa) = 0.02224280
#
# Stress axis : x y z
#
# Youngs Moduli (GPa) = 116.71592 116.71592 63.34208
#
# Poissons Ratio (x) = 0.11373 0.13827
# Poissons Ratio (y) = 0.11373 0.13827
# Poissons Ratio (z) = 0.25477 0.25477
#
# Static dielectric constant tensor:
#      x y z
#    x 1.717750 0.000000 0.000000 
#    y 0.000000 1.717750 0.000000 
#    z 0.000000 0.000000 1.845720 
# 
# From -- ./inp_files/2355.got.cif
#   From: 2010.05.17/outbox.cif.g08.bks.cpg/sg182_2_cif.got.tgz:2355.got - 2010.05.20 11:58:53.
