data_PCOD9584694
_publ_section_title
;
Structure prediction by ZEFSAII (Michael W. Deem and Ramdas Pophale) SiO2 
 PCOD9584694
Probable space group: P 63 2 2
;
_chemical_formula_sum "Si O2"
_cell_formula_units_Z 30
_cell_length_a 17.932701
_cell_length_b 17.932701
_cell_length_c 5.127578
_cell_angle_alpha 90.000000
_cell_angle_beta 90.000000
_cell_angle_gamma 120.000000
_cell_volume 1428.020105
_symmetry_space_group_name_H-M "P 63 2 2"
_symmetry_group_IT_number 182
_symmetry_cell_setting 'hexagonal'
loop_
_space_group_symop_operation_xyz
x,y,z
x-y,x,1/2+z
-y,x-y,z
-x,-y,1/2+z
-x+y,-x,z
y,-x+y,1/2+z
x-y,-y,-z
-x,-x+y,-z
y,x,-z
-y,-x,1/2-z
-x+y,y,1/2-z
x,x-y,1/2-z
loop_
_atom_site_type_symbol
_atom_site_label
_atom_site_fract_x
_atom_site_fract_y
_atom_site_fract_z
Si Si1 0.494331 0.201169 0.995340
Si Si2 0.942759 0.471380 0.750000
Si Si3 0.900412 0.712821 0.498296
O O1 0.527759 0.263880 0.750000
O O2 0.508828 0.122132 0.918316
O O3 0.526037 0.263019 0.250000
O O4 0.390615 0.154071 0.006449
O O5 0.000000 0.467973 0.500000
O O6 0.873077 0.746154 0.250000
O O7 0.000000 0.743442 0.500000
O O8 0.871552 0.743104 0.750000
#
# Coordination Sequence:
#
# PCOD9584694 Si02
#       3
#    12   6  12
#     4  10  22  40  61  91 130 168 215 266 335 400
#     4  12  24  40  68 100 130 172 230 288 340 404
#     4  10  20  35  58  85 116 153 195 247 302 370
#
# _framework density 21.008109000000001
#
# number of rings (size 3 to 8) (size 9 to 14) (size 15 to 20)
#    0.000    1.600    0.000    4.800    0.000    6.400 
#    1.200    0.000    4.400    8.000    0.000    0.000 
#    0.000    0.000    0.000    0.000    0.000    0.000 
#
# Total GULP energy -167040.825049 kJ/mol
# GULP energy per Si atom -5568.027502 kJ/mol
# Density = 2.096029 g / cm^3
# Si number density = 21.008109 Si / 1000 Ang^3
#
#
#
# Elastic Constant Matrix: (Units=GPa)
#
#
# Indices 1 2 3 4 5 6 
#
# 1 58.6133 5.4900 50.5641 0.0000 0.0000 0.0000
# 2 5.4900 58.6133 50.5641 0.0000 0.0000 0.0000
# 3 50.5641 50.5641 227.3972 0.0000 0.0000 0.0000
# 4 0.0000 0.0000 0.0000 7.4492 0.0000 0.0000
# 5 0.0000 0.0000 0.0000 0.0000 7.4492 0.0000
# 6 0.0000 0.0000 0.0000 0.0000 0.0000 26.5617
#
#
#
# Elastic Compliance Matrix: (Units=1/GPa)
#
#
# Indices 1 2 3 4 5 6 
#
# 1 0.021427 0.002602 -0.005343 0.000000 0.000000 0.000000
# 2 0.002602 0.021427 -0.005343 0.000000 0.000000 0.000000
# 3 -0.005343 -0.005343 0.006774 0.000000 0.000000 0.000000
# 4 0.000000 0.000000 0.000000 0.134243 0.000000 0.000000
# 5 0.000000 0.000000 0.000000 0.000000 0.134243 0.000000
# 6 0.000000 0.000000 0.000000 0.000000 0.000000 0.037648
#
#
# Mechanical properties :
#
#
# Convention : Reuss Voigt Hill
#
# Bulk Modulus (GPa) = 29.88700 61.98448 45.93574
# Shear Modulus (GPa) = 13.05207 24.15906 18.60556
#
# Velocity S-wave (km/s) = 2.49527 3.39483 2.97919
# Velocity P-wave (km/s) = 4.74964 6.70340 5.80924
#
# Compressibility (1/GPa) = 0.03345936
#
# Stress axis : x y z
#
# Youngs Moduli (GPa) = 46.67108 46.67108 147.62819
#
# Poissons Ratio (x) = -0.12146 0.78879
# Poissons Ratio (y) = -0.12146 0.78879
# Poissons Ratio (z) = 0.24937 0.24937
#
# Static dielectric constant tensor:
#      x y z
#    x 1.781110 0.000000 0.000000 
#    y 0.000000 1.781110 0.000000 
#    z 0.000000 0.000000 1.611410 
# 
# From -- ./inp_files/193.got.cif
#   From: 2010.05.17/outbox.cif.g08.bks.cpg/sg182_1_cif.got.tgz:193.got - 2010.05.20 11:58:53.
