data_PCOD9584192
_publ_section_title
;
Structure prediction by ZEFSAII (Michael W. Deem and Ramdas Pophale) SiO2 
 PCOD9584192
Probable space group: P 62 2 2
;
_chemical_formula_sum "Si O2"
_cell_formula_units_Z 36
_cell_length_a 8.062294
_cell_length_b 8.062294
_cell_length_c 26.895438
_cell_angle_alpha 90.000000
_cell_angle_beta 90.000000
_cell_angle_gamma 120.000000
_cell_volume 1514.002231
_symmetry_space_group_name_H-M "P 62 2 2"
_symmetry_group_IT_number 180
_symmetry_cell_setting 'hexagonal'
loop_
_space_group_symop_operation_xyz
x,y,z
x-y,x,1/3+z
-y,x-y,2/3+z
-x,-y,z
-x+y,-x,1/3+z
y,-x+y,2/3+z
x-y,-y,-z
-x,-x+y,1/3-z
y,x,2/3-z
-y,-x,2/3-z
-x+y,y,-z
x,x-y,1/3-z
loop_
_atom_site_type_symbol
_atom_site_label
_atom_site_fract_x
_atom_site_fract_y
_atom_site_fract_z
Si Si1 0.694541 0.276917 0.443014
Si Si2 0.289572 0.379042 0.278118
Si Si3 0.058951 0.799405 0.887857
O O1 0.618212 0.236423 0.500000
O O2 0.522414 0.211826 0.402768
O O3 0.829511 0.507969 0.438822
O O4 0.838647 0.194971 0.436548
O O5 0.500000 0.500000 0.252610
O O6 0.336779 0.336779 0.333334
O O7 0.185228 0.170638 0.255049
O O8 0.111714 0.888287 0.833334
#
# Coordination Sequence:
#
# PCOD9584192 Si02
#       3
#    12  12  12
#     4   9  14  21  35  55  82 123 170 215 269 341
#     4   9  16  24  34  54  90 130 164 214 285 343
#     4   9  14  21  35  55  82 123 170 215 269 341
#
# _framework density 23.778037999999999
#
# number of rings (size 3 to 8) (size 9 to 14) (size 15 to 20)
#    0.000    3.000    3.333    0.000    0.000    0.000 
#    0.000    0.000    0.000    0.000    0.000    0.000 
#    0.000    5.333    0.000   80.667    0.000  192.000 
#
# Total GULP energy -200434.074484 kJ/mol
# GULP energy per Si atom -5567.613180 kJ/mol
# Density = 2.372392 g / cm^3
# Si number density = 23.778038 Si / 1000 Ang^3
#
#
#
# Elastic Constant Matrix: (Units=GPa)
#
#
# Indices 1 2 3 4 5 6 
#
# 1 166.9438 81.5328 55.5323 0.0000 0.0000 0.0000
# 2 81.5328 166.9438 55.5323 0.0000 0.0000 0.0000
# 3 55.5323 55.5323 105.1773 0.0000 0.0000 0.0000
# 4 0.0000 0.0000 0.0000 -107.0835 0.0000 0.0000
# 5 0.0000 0.0000 0.0000 0.0000 -107.0835 0.0000
# 6 0.0000 0.0000 0.0000 0.0000 0.0000 42.7055
#
#
#
# Elastic Compliance Matrix: (Units=1/GPa)
#
#
# Indices 1 2 3 4 5 6 
#
# 1 0.008488 -0.003220 -0.002781 0.000000 0.000000 0.000000
# 2 -0.003220 0.008488 -0.002781 0.000000 0.000000 0.000000
# 3 -0.002781 -0.002781 0.012445 0.000000 0.000000 0.000000
# 4 0.000000 0.000000 0.000000 -0.009339 0.000000 0.000000
# 5 0.000000 0.000000 0.000000 0.000000 -0.009339 0.000000
# 6 0.000000 0.000000 0.000000 0.000000 0.000000 0.023416
#
#
# Mechanical properties :
#
#
# Convention : Reuss Voigt Hill
#
# Bulk Modulus (GPa) = 84.35259 91.58441 87.96850
# Shear Modulus (GPa) = 89.80386 -17.86114 35.97136
#
# Velocity S-wave (km/s) = 6.15220 -2.74371 3.89369
# Velocity P-wave (km/s) = 9.27459 5.34442 7.56904
#
# Compressibility (1/GPa) = 0.01185500
#
# Stress axis : x y z
#
# Youngs Moduli (GPa) = 117.81471 117.81471 80.35542
#
# Poissons Ratio (x) = 0.37939 0.22349
# Poissons Ratio (y) = 0.37939 0.22349
# Poissons Ratio (z) = 0.32768 0.32768
#
# Static dielectric constant tensor:
#      x y z
#    x 1.993110 0.000000 0.000000 
#    y 0.000000 1.993110 0.000000 
#    z 0.000000 0.000000 1.748060 
# 
# From -- ./inp_files/10777.got.cif
#   From: 2010.05.17/outbox.cif.g08.bks.cpg/sg180_6_cif.got.tgz:10777.got - 2010.05.20 11:43:55.
