data_PCOD9584365
_publ_section_title
;
Structure prediction by ZEFSAII (Michael W. Deem and Ramdas Pophale) SiO2 
 PCOD9584365
Probable space group: P 64 2 2
;
_chemical_formula_sum "Si O2"
_cell_formula_units_Z 72
_cell_length_a 11.981050
_cell_length_b 11.981050
_cell_length_c 30.142539
_cell_angle_alpha 90.000000
_cell_angle_beta 90.000000
_cell_angle_gamma 120.000000
_cell_volume 3747.142631
_symmetry_space_group_name_H-M "P 64 2 2"
_symmetry_group_IT_number 181
_symmetry_cell_setting 'hexagonal'
loop_
_space_group_symop_operation_xyz
x,y,z
x-y,x,2/3+z
-y,x-y,1/3+z
-x,-y,z
-x+y,-x,2/3+z
y,-x+y,1/3+z
x-y,-y,-z
-x,-x+y,2/3-z
y,x,1/3-z
-y,-x,1/3-z
-x+y,y,-z
x,x-y,2/3-z
loop_
_atom_site_type_symbol
_atom_site_label
_atom_site_fract_x
_atom_site_fract_y
_atom_site_fract_z
Si Si1 0.222197 0.611099 0.833334
Si Si2 0.801758 0.000000 0.000000
Si Si3 0.000000 0.500000 0.661564
Si Si4 0.101484 0.898517 0.666667
Si Si5 0.591099 0.213316 0.597380
Si Si6 0.581157 0.928041 0.072224
Si Si7 0.564087 0.913750 0.172655
Si Si8 0.267583 0.395077 0.932939
O O1 0.152212 0.586754 0.880864
O O2 0.310425 0.545728 0.835529
O O3 0.947859 0.117728 0.006040
O O4 0.703954 0.972081 0.040775
O O5 0.117524 0.539719 0.694887
O O6 0.024173 0.617054 0.629749
O O7 0.158945 0.863253 0.624061
O O8 0.521189 0.297233 0.599615
O O9 0.746207 0.283889 0.600640
O O10 0.625250 0.952206 0.123927
O O11 0.500000 0.000000 0.063111
O O12 0.643817 0.918136 0.215932
O O13 0.500000 0.000000 0.182881
#
# Coordination Sequence:
#
# PCOD9584365 Si02
#       8
#     6   6   6   6  12  12  12  12
#     4   8  18  35  54  80 126 154 185 248 304 358
#     4  11  25  44  64  82 127 169 210 252 308 371
#     4  12  20  31  58  88 120 151 196 250 296 368
#     4  11  24  44  60  88 127 168 204 254 309 370
#     4  10  21  36  58  89 119 151 199 247 306 360
#     4  10  22  41  64  92 122 162 206 258 311 368
#     4   9  18  37  58  86 123 157 199 249 314 369
#     4  11  21  37  58  93 120 155 201 259 305 361
#
# _framework density 19.214642000000001
#
# number of rings (size 3 to 8) (size 9 to 14) (size 15 to 20)
#    0.000    1.833    2.500    1.250    0.000    4.333 
#    6.000    0.833    0.000    2.000    0.000    0.000 
#    0.000    0.000    0.000    0.000    0.000    0.000 
#
# Total GULP energy -401301.145148 kJ/mol
# GULP energy per Si atom -5573.627016 kJ/mol
# Density = 1.917091 g / cm^3
# Si number density = 19.214642 Si / 1000 Ang^3
#
#
#
# Elastic Constant Matrix: (Units=GPa)
#
#
# Indices 1 2 3 4 5 6 
#
# 1 65.3136 30.8433 46.7207 0.0000 0.0000 0.0000
# 2 30.8433 65.3136 46.7207 0.0000 0.0000 0.0000
# 3 46.7207 46.7207 147.8850 0.0000 0.0000 0.0000
# 4 0.0000 0.0000 0.0000 28.1583 0.0000 0.0000
# 5 0.0000 0.0000 0.0000 0.0000 28.1583 0.0000
# 6 0.0000 0.0000 0.0000 0.0000 0.0000 17.2351
#
#
#
# Elastic Compliance Matrix: (Units=1/GPa)
#
#
# Indices 1 2 3 4 5 6 
#
# 1 0.022009 -0.007002 -0.004741 0.000000 0.000000 0.000000
# 2 -0.007002 0.022009 -0.004741 0.000000 0.000000 0.000000
# 3 -0.004741 -0.004741 0.009758 0.000000 0.000000 0.000000
# 4 0.000000 0.000000 0.000000 0.035514 0.000000 0.000000
# 5 0.000000 0.000000 0.000000 0.000000 0.035514 0.000000
# 6 0.000000 0.000000 0.000000 0.000000 0.000000 0.058021
#
#
# Mechanical properties :
#
#
# Convention : Reuss Voigt Hill
#
# Bulk Modulus (GPa) = 48.06044 58.56459 53.31252
# Shear Modulus (GPa) = 22.44905 24.99218 23.72062
#
# Velocity S-wave (km/s) = 3.42179 3.61041 3.51737
# Velocity P-wave (km/s) = 6.37795 6.92282 6.65596
#
# Compressibility (1/GPa) = 0.02080713
#
# Stress axis : x y z
#
# Youngs Moduli (GPa) = 45.43667 45.43667 102.48378
#
# Poissons Ratio (x) = 0.31814 0.48588
# Poissons Ratio (y) = 0.31814 0.48588
# Poissons Ratio (z) = 0.21542 0.21542
#
# Static dielectric constant tensor:
#      x y z
#    x 1.676210 0.000000 0.000000 
#    y 0.000000 1.676210 0.000000 
#    z 0.000000 0.000000 1.721030 
# 
# From -- ./inp_files/12418.got.cif
#   From: 2010.05.17/outbox.cif.g08.bks.cpg/sg181_7_cif.got.tgz:12418.got - 2010.05.20 11:51:17.
