data_PCOD9584572
_publ_section_title
;
Structure prediction by ZEFSAII (Michael W. Deem and Ramdas Pophale) SiO2 
 PCOD9584572
Probable space group: P 64 2 2
;
_chemical_formula_sum "Si O2"
_cell_formula_units_Z 51
_cell_length_a 14.032202
_cell_length_b 14.032202
_cell_length_c 13.926332
_cell_angle_alpha 90.000000
_cell_angle_beta 90.000000
_cell_angle_gamma 120.000000
_cell_volume 2374.756210
_symmetry_space_group_name_H-M "P 64 2 2"
_symmetry_group_IT_number 181
_symmetry_cell_setting 'hexagonal'
loop_
_space_group_symop_operation_xyz
x,y,z
x-y,x,2/3+z
-y,x-y,1/3+z
-x,-y,z
-x+y,-x,2/3+z
y,-x+y,1/3+z
x-y,-y,-z
-x,-x+y,2/3-z
y,x,1/3-z
-y,-x,1/3-z
-x+y,y,-z
x,x-y,2/3-z
loop_
_atom_site_type_symbol
_atom_site_label
_atom_site_fract_x
_atom_site_fract_y
_atom_site_fract_z
Si Si1 0.840367 0.840367 0.666667
Si Si2 0.893004 0.560937 0.507137
Si Si3 0.221219 0.322540 0.842378
Si Si4 0.000000 0.500000 0.333334
Si Si5 0.088106 0.176211 0.000000
Si Si6 0.756972 0.318423 0.559095
O O1 0.800251 0.749018 0.747901
O O2 0.961312 0.863577 0.637812
O O3 0.792137 0.584274 0.500000
O O4 0.929294 0.532613 0.404319
O O5 0.847675 0.447517 0.564270
O O6 0.997598 0.667142 0.551190
O O7 0.253169 0.448075 0.833781
O O8 0.116065 0.256121 0.909994
O O9 0.726498 0.273503 0.666667
O O10 0.655967 0.311933 0.500000
#
# Coordination Sequence:
#
# PCOD9584572 Si02
#       6
#     6  12  12   3   6  12
#     4  11  25  42  72 104 134 188 237 305 370 428
#     4  11  25  40  71 106 142 188 246 309 368 438
#     4  12  23  44  69 102 141 182 249 294 367 447
#     4  12  22  44  68 108 148 194 268 306 364 480
#     4  11  24  44  67 100 145 182 231 302 374 442
#     4  11  26  44  69 102 148 192 242 301 377 454
#
# _framework density 21.47589
#
# number of rings (size 3 to 8) (size 9 to 14) (size 15 to 20)
#    0.000    0.706    3.529    3.529    6.588    3.765 
#    0.000    0.000    0.000    0.000    0.000    0.000 
#    0.000    0.000    0.000    0.000    0.000    0.000 
#
# Total GULP energy -285063.443619 kJ/mol
# GULP energy per Si atom -5589.479287 kJ/mol
# Density = 2.142701 g / cm^3
# Si number density = 21.475890 Si / 1000 Ang^3
#
#
#
# Elastic Constant Matrix: (Units=GPa)
#
#
# Indices 1 2 3 4 5 6 
#
# 1 101.5133 28.1318 19.1210 0.0000 0.0000 0.0000
# 2 28.1318 101.5133 19.1210 0.0000 0.0000 0.0000
# 3 19.1210 19.1210 81.5683 0.0000 0.0000 0.0000
# 4 0.0000 0.0000 0.0000 36.7198 0.0000 0.0000
# 5 0.0000 0.0000 0.0000 0.0000 36.7198 0.0000
# 6 0.0000 0.0000 0.0000 0.0000 0.0000 36.6908
#
#
#
# Elastic Compliance Matrix: (Units=1/GPa)
#
#
# Indices 1 2 3 4 5 6 
#
# 1 0.010957 -0.002671 -0.001942 0.000000 0.000000 0.000000
# 2 -0.002671 0.010957 -0.001942 0.000000 0.000000 0.000000
# 3 -0.001942 -0.001942 0.013170 0.000000 0.000000 0.000000
# 4 0.000000 0.000000 0.000000 0.027233 0.000000 0.000000
# 5 0.000000 0.000000 0.000000 0.000000 0.027233 0.000000
# 6 0.000000 0.000000 0.000000 0.000000 0.000000 0.027255
#
#
# Mechanical properties :
#
#
# Convention : Reuss Voigt Hill
#
# Bulk Modulus (GPa) = 45.50998 46.37138 45.94068
# Shear Modulus (GPa) = 36.43234 36.57416 36.50325
#
# Velocity S-wave (km/s) = 4.12324 4.13126 4.12725
# Velocity P-wave (km/s) = 6.62611 6.66300 6.64458
#
# Compressibility (1/GPa) = 0.02197320
#
# Stress axis : x y z
#
# Youngs Moduli (GPa) = 91.26694 91.26694 75.92816
#
# Poissons Ratio (x) = 0.24373 0.14749
# Poissons Ratio (y) = 0.24373 0.14749
# Poissons Ratio (z) = 0.17728 0.17728
#
# Static dielectric constant tensor:
#      x y z
#    x 1.805010 0.000000 0.000000 
#    y 0.000000 1.805010 0.000000 
#    z 0.000000 0.000000 1.805470 
# 
# From -- ./inp_files/6061.got.cif
#   From: 2010.05.17/outbox.cif.g08.bks.cpg/sg181_4_cif.got.tgz:6061.got - 2010.05.20 11:51:17.
