data_PCOD9584220
_publ_section_title
;
Structure prediction by ZEFSAII (Michael W. Deem and Ramdas Pophale) SiO2 
 PCOD9584220
Probable space group: P 64 2 2
;
_chemical_formula_sum "Si O2"
_cell_formula_units_Z 54
_cell_length_a 17.058342
_cell_length_b 17.058342
_cell_length_c 9.929824
_cell_angle_alpha 90.000000
_cell_angle_beta 90.000000
_cell_angle_gamma 120.000000
_cell_volume 2502.337113
_symmetry_space_group_name_H-M "P 64 2 2"
_symmetry_group_IT_number 181
_symmetry_cell_setting 'hexagonal'
loop_
_space_group_symop_operation_xyz
x,y,z
x-y,x,2/3+z
-y,x-y,1/3+z
-x,-y,z
-x+y,-x,2/3+z
y,-x+y,1/3+z
x-y,-y,-z
-x,-x+y,2/3-z
y,x,1/3-z
-y,-x,1/3-z
-x+y,y,-z
x,x-y,2/3-z
loop_
_atom_site_type_symbol
_atom_site_label
_atom_site_fract_x
_atom_site_fract_y
_atom_site_fract_z
Si Si1 0.780905 0.582249 0.212355
Si Si2 0.402128 0.784808 0.153946
Si Si3 0.934351 0.396670 0.991104
Si Si4 0.164904 0.835097 0.166667
Si Si5 0.289289 0.310489 0.822966
O O1 0.775737 0.490812 0.161900
O O2 0.681021 0.570207 0.208734
O O3 0.805622 0.603811 0.371569
O O4 0.875309 0.661935 0.151902
O O5 0.312991 0.687010 0.166667
O O6 0.393874 0.851153 0.259279
O O7 0.409365 0.818729 0.000000
O O8 0.000000 0.500000 0.958762
O O9 0.992177 0.369533 0.088277
O O10 0.058031 0.790831 0.147621
O O11 0.320412 0.320412 0.666667
#
# Coordination Sequence:
#
# PCOD9584220 Si02
#       5
#    12  12  12   6  12
#     4  10  18  31  41  64  93 131 175 235 276 326
#     4  12  21  30  44  68  96 130 180 239 282 327
#     4  11  21  29  45  68  96 134 184 241 289 338
#     4   8  16  28  44  68  94 128 175 231 278 352
#     4   9  16  26  41  61  93 128 171 228 283 324
#
# _framework density 21.579827000000002
#
# number of rings (size 3 to 8) (size 9 to 14) (size 15 to 20)
#    0.000    1.778    4.444    4.000    1.556    0.000 
#    0.000    0.000    0.000    0.667    0.000    0.000 
#    0.000    0.000    0.000    0.000    0.000    4.444 
#
# Total GULP energy -301350.928647 kJ/mol
# GULP energy per Si atom -5580.572753 kJ/mol
# Density = 2.153071 g / cm^3
# Si number density = 21.579827 Si / 1000 Ang^3
#
#
#
# Elastic Constant Matrix: (Units=GPa)
#
#
# Indices 1 2 3 4 5 6 
#
# 1 146.0895 72.9465 18.7671 0.0000 0.0000 0.0000
# 2 72.9465 146.0895 18.7671 0.0000 0.0000 0.0000
# 3 18.7671 18.7671 47.4817 0.0000 0.0000 0.0000
# 4 0.0000 0.0000 0.0000 12.0879 0.0000 0.0000
# 5 0.0000 0.0000 0.0000 0.0000 12.0879 0.0000
# 6 0.0000 0.0000 0.0000 0.0000 0.0000 36.5715
#
#
#
# Elastic Compliance Matrix: (Units=1/GPa)
#
#
# Indices 1 2 3 4 5 6 
#
# 1 0.009284 -0.004387 -0.001936 0.000000 0.000000 0.000000
# 2 -0.004387 0.009284 -0.001936 0.000000 0.000000 0.000000
# 3 -0.001936 -0.001936 0.022591 0.000000 0.000000 0.000000
# 4 0.000000 0.000000 0.000000 0.082727 0.000000 0.000000
# 5 0.000000 0.000000 0.000000 0.000000 0.082727 0.000000
# 6 0.000000 0.000000 0.000000 0.000000 0.000000 0.027344
#
#
# Mechanical properties :
#
#
# Convention : Reuss Voigt Hill
#
# Bulk Modulus (GPa) = 40.57991 62.29135 51.43563
# Shear Modulus (GPa) = 19.32823 27.42815 23.37819
#
# Velocity S-wave (km/s) = 2.99601 3.56899 3.29498
# Velocity P-wave (km/s) = 5.55099 6.77582 6.19376
#
# Compressibility (1/GPa) = 0.02464274
#
# Stress axis : x y z
#
# Youngs Moduli (GPa) = 107.70647 107.70647 44.26579
#
# Poissons Ratio (x) = 0.47255 0.08568
# Poissons Ratio (y) = 0.47255 0.08568
# Poissons Ratio (z) = 0.20848 0.20848
#
# Static dielectric constant tensor:
#      x y z
#    x 1.844020 0.000000 0.000000 
#    y 0.000000 1.844020 0.000000 
#    z 0.000000 0.000000 1.883050 
# 
# From -- ./inp_files/4711.got.cif
#   From: 2010.05.17/outbox.cif.g08.bks.cpg/sg181_3_cif.got.tgz:4711.got - 2010.05.20 11:51:17.
