data_PCOD9584253
_publ_section_title
;
Structure prediction by ZEFSAII (Michael W. Deem and Ramdas Pophale) SiO2 
 PCOD9584253
Probable space group: P 64 2 2
;
_chemical_formula_sum "Si O2"
_cell_formula_units_Z 60
_cell_length_a 29.993319
_cell_length_b 29.993319
_cell_length_c 5.260307
_cell_angle_alpha 90.000000
_cell_angle_beta 90.000000
_cell_angle_gamma 120.000000
_cell_volume 4098.177606
_symmetry_space_group_name_H-M "P 64 2 2"
_symmetry_group_IT_number 181
_symmetry_cell_setting 'hexagonal'
loop_
_space_group_symop_operation_xyz
x,y,z
x-y,x,2/3+z
-y,x-y,1/3+z
-x,-y,z
-x+y,-x,2/3+z
y,-x+y,1/3+z
x-y,-y,-z
-x,-x+y,2/3-z
y,x,1/3-z
-y,-x,1/3-z
-x+y,y,-z
x,x-y,2/3-z
loop_
_atom_site_type_symbol
_atom_site_label
_atom_site_fract_x
_atom_site_fract_y
_atom_site_fract_z
Si Si1 0.682562 0.060926 0.509293
Si Si2 0.770399 0.602061 0.251532
Si Si3 0.559970 0.119939 0.000000
Si Si4 0.229443 0.517303 0.747698
Si Si5 0.562550 0.622403 0.678855
Si Si6 0.406460 0.812920 0.500000
O O1 0.741143 0.106744 0.462212
O O2 0.660759 0.071164 0.772584
O O3 0.666642 0.000000 0.500000
O O4 0.652210 0.067254 0.273816
O O5 0.807083 0.614166 0.500000
O O6 0.725056 0.541875 0.281717
O O7 0.802782 0.605563 0.000000
O O8 0.590545 0.089089 0.017410
O O9 0.582661 0.153344 0.749548
O O10 0.264044 0.528087 0.500000
O O11 0.216341 0.562165 0.783907
O O12 0.258296 0.516591 0.000000
O O13 0.581268 0.581268 0.666667
#
# Coordination Sequence:
#
# PCOD9584253 Si02
#       6
#    12  12   6  12  12   6
#     4  10  20  34  50  71  96 124 153 185 226 270
#     4  10  19  32  52  71  92 119 150 187 224 267
#     4  12  21  32  50  70  92 112 142 176 210 276
#     4  10  21  37  51  67  86 107 142 181 224 275
#     4  10  20  32  47  68  96 124 147 174 217 266
#     4  12  24  36  53  70  84 110 142 180 234 272
#
# _framework density 14.640653
#
# number of rings (size 3 to 8) (size 9 to 14) (size 15 to 20)
#    0.000    1.600    0.000    6.300    0.000    3.200 
#    1.800    4.000    0.000    0.000    0.000    0.000 
#    0.000    0.000    0.000    0.000    0.000    0.000 
#
# Total GULP energy -334577.390441 kJ/mol
# GULP energy per Si atom -5576.289841 kJ/mol
# Density = 1.460733 g / cm^3
# Si number density = 14.640653 Si / 1000 Ang^3
#
#
#
# Elastic Constant Matrix: (Units=GPa)
#
#
# Indices 1 2 3 4 5 6 
#
# 1 74.9619 41.9770 27.1239 0.0000 0.0000 0.0000
# 2 41.9770 74.9619 27.1239 0.0000 0.0000 0.0000
# 3 27.1239 27.1239 108.1390 0.0000 0.0000 0.0000
# 4 0.0000 0.0000 0.0000 19.7386 0.0000 0.0000
# 5 0.0000 0.0000 0.0000 0.0000 19.7386 0.0000
# 6 0.0000 0.0000 0.0000 0.0000 0.0000 16.4924
#
#
#
# Elastic Compliance Matrix: (Units=1/GPa)
#
#
# Indices 1 2 3 4 5 6 
#
# 1 0.019997 -0.010320 -0.002427 0.000000 0.000000 0.000000
# 2 -0.010320 0.019997 -0.002427 0.000000 0.000000 0.000000
# 3 -0.002427 -0.002427 0.010465 0.000000 0.000000 0.000000
# 4 0.000000 0.000000 0.000000 0.050662 0.000000 0.000000
# 5 0.000000 0.000000 0.000000 0.000000 0.050662 0.000000
# 6 0.000000 0.000000 0.000000 0.000000 0.000000 0.060634
#
#
# Mechanical properties :
#
#
# Convention : Reuss Voigt Hill
#
# Bulk Modulus (GPa) = 49.72490 50.05694 49.89092
# Shear Modulus (GPa) = 20.04250 21.98313 21.01281
#
# Velocity S-wave (km/s) = 3.70396 3.87914 3.79256
# Velocity P-wave (km/s) = 7.23393 7.37077 7.30267
#
# Compressibility (1/GPa) = 0.02011065
#
# Stress axis : x y z
#
# Youngs Moduli (GPa) = 50.00695 50.00695 95.55626
#
# Poissons Ratio (x) = 0.51606 0.23195
# Poissons Ratio (y) = 0.51606 0.23195
# Poissons Ratio (z) = 0.12139 0.12139
#
# Static dielectric constant tensor:
#      x y z
#    x 1.322230 0.000000 0.000000 
#    y 0.000000 1.322230 0.000000 
#    z 0.000000 0.000000 1.488070 
# 
# From -- ./inp_files/1478.got.cif
#   From: 2010.05.17/outbox.cif.g08.bks.cpg/sg181_1_cif.got.tgz:1478.got - 2010.05.20 11:51:17.
