data_PCOD9584683
_publ_section_title
;
Structure prediction by ZEFSAII (Michael W. Deem and Ramdas Pophale) SiO2 
 PCOD9584683
Probable space group: P 63 2 2
;
_chemical_formula_sum "Si O2"
_cell_formula_units_Z 48
_cell_length_a 23.885478
_cell_length_b 23.885478
_cell_length_c 5.166471
_cell_angle_alpha 90.000000
_cell_angle_beta 90.000000
_cell_angle_gamma 120.000000
_cell_volume 2552.657228
_symmetry_space_group_name_H-M "P 63 2 2"
_symmetry_group_IT_number 182
_symmetry_cell_setting 'hexagonal'
loop_
_space_group_symop_operation_xyz
x,y,z
x-y,x,1/2+z
-y,x-y,z
-x,-y,1/2+z
-x+y,-x,z
y,-x+y,1/2+z
x-y,-y,-z
-x,-x+y,-z
y,x,-z
-y,-x,1/2-z
-x+y,y,1/2-z
x,x-y,1/2-z
loop_
_atom_site_type_symbol
_atom_site_label
_atom_site_fract_x
_atom_site_fract_y
_atom_site_fract_z
Si Si1 0.871274 0.375003 0.312276
Si Si2 0.693125 0.648377 0.249542
Si Si3 0.211191 0.665750 0.313573
Si Si4 0.046242 0.821084 0.749885
O O1 0.903933 0.451967 0.250000
O O2 0.909512 0.337648 0.254496
O O3 0.848006 0.361485 0.609294
O O4 0.811923 0.344924 0.108620
O O5 0.667366 0.667366 0.500000
O O6 0.770438 0.697198 0.248936
O O7 0.666942 0.666942 0.000000
O O8 0.260772 0.739229 0.250000
O O9 0.241985 0.620993 0.250000
O O10 0.106388 0.893613 0.750000
O O11 0.000000 0.804673 0.500000
O O12 0.000000 0.804474 0.000000
#
# Coordination Sequence:
#
# PCOD9584683 Si02
#       4
#    12  12  12  12
#     4  10  21  35  52  78 108 141 187 235 279 330
#     4  10  21  37  56  81 111 144 184 223 268 327
#     4  10  20  34  51  72 101 137 178 225 277 329
#     4  10  21  38  61  87 116 150 186 227 276 336
#
# _framework density 18.803934999999999
#
# number of rings (size 3 to 8) (size 9 to 14) (size 15 to 20)
#    0.000    2.000    0.000    3.250    0.000    3.000 
#    0.000    2.500    0.000    5.000    0.000    0.000 
#    0.000    0.000    0.000    0.000    0.000    0.000 
#
# Total GULP energy -267617.293703 kJ/mol
# GULP energy per Si atom -5575.360285 kJ/mol
# Density = 1.876114 g / cm^3
# Si number density = 18.803935 Si / 1000 Ang^3
#
#
#
# Elastic Constant Matrix: (Units=GPa)
#
#
# Indices 1 2 3 4 5 6 
#
# 1 88.2063 67.1904 20.1940 0.0000 0.0000 0.0000
# 2 67.1904 88.2063 20.1940 0.0000 0.0000 0.0000
# 3 20.1940 20.1940 111.8315 0.0000 0.0000 0.0000
# 4 0.0000 0.0000 0.0000 15.0680 0.0000 0.0000
# 5 0.0000 0.0000 0.0000 0.0000 15.0680 0.0000
# 6 0.0000 0.0000 0.0000 0.0000 0.0000 10.5080
#
#
#
# Elastic Compliance Matrix: (Units=1/GPa)
#
#
# Indices 1 2 3 4 5 6 
#
# 1 0.027167 -0.020415 -0.001219 0.000000 0.000000 0.000000
# 2 -0.020415 0.027167 -0.001219 0.000000 0.000000 0.000000
# 3 -0.001219 -0.001219 0.009382 0.000000 0.000000 0.000000
# 4 0.000000 0.000000 0.000000 0.066366 0.000000 0.000000
# 5 0.000000 0.000000 0.000000 0.000000 0.066366 0.000000
# 6 0.000000 0.000000 0.000000 0.000000 0.000000 0.095166
#
#
# Mechanical properties :
#
#
# Convention : Reuss Voigt Hill
#
# Bulk Modulus (GPa) = 55.52649 55.93342 55.72996
# Shear Modulus (GPa) = 14.56343 20.17319 17.36831
#
# Velocity S-wave (km/s) = 2.78598 3.27894 3.04246
# Velocity P-wave (km/s) = 6.31999 6.64420 6.48412
#
# Compressibility (1/GPa) = 0.01800942
#
# Stress axis : x y z
#
# Youngs Moduli (GPa) = 36.80871 36.80871 106.58309
#
# Poissons Ratio (x) = 0.75147 0.12995
# Poissons Ratio (y) = 0.75147 0.12995
# Poissons Ratio (z) = 0.04488 0.04488
#
# Static dielectric constant tensor:
#      x y z
#    x 1.666230 0.000000 0.000000 
#    y 0.000000 1.666230 0.000000 
#    z 0.000000 0.000000 1.634770 
# 
# From -- ./inp_files/481.got.cif
#   From: 2010.05.17/outbox.cif.g08.bks.cpg/sg182_1_cif.got.tgz:481.got - 2010.05.20 11:58:53.
