data_PCOD9584300
_publ_section_title
;
Structure prediction by ZEFSAII (Michael W. Deem and Ramdas Pophale) SiO2 
 PCOD9584300
Probable space group: P 64 2 2
;
_chemical_formula_sum "Si O2"
_cell_formula_units_Z 84
_cell_length_a 14.260342
_cell_length_b 14.260342
_cell_length_c 27.103342
_cell_angle_alpha 90.000000
_cell_angle_beta 90.000000
_cell_angle_gamma 120.000000
_cell_volume 4773.240965
_symmetry_space_group_name_H-M "P 64 2 2"
_symmetry_group_IT_number 181
_symmetry_cell_setting 'hexagonal'
loop_
_space_group_symop_operation_xyz
x,y,z
x-y,x,2/3+z
-y,x-y,1/3+z
-x,-y,z
-x+y,-x,2/3+z
y,-x+y,1/3+z
x-y,-y,-z
-x,-x+y,2/3-z
y,x,1/3-z
-y,-x,1/3-z
-x+y,y,-z
x,x-y,2/3-z
loop_
_atom_site_type_symbol
_atom_site_label
_atom_site_fract_x
_atom_site_fract_y
_atom_site_fract_z
Si Si1 0.921813 0.802133 0.686492
Si Si2 0.044539 0.916263 0.782733
Si Si3 0.418528 0.118525 0.021488
Si Si4 0.540480 0.413293 0.547496
Si Si5 0.261405 0.271969 0.410421
Si Si6 0.505980 0.767909 0.741730
Si Si7 0.886149 0.386595 0.562718
O O1 0.889505 0.889505 0.666667
O O2 0.808047 0.695342 0.698690
O O3 0.976039 0.770984 0.642455
O O4 0.996853 0.844115 0.734125
O O5 0.000000 0.851307 0.833334
O O6 0.174003 0.980911 0.781034
O O7 0.000000 0.000000 0.780554
O O8 0.486719 0.147355 0.071362
O O9 0.478214 0.205512 0.978193
O O10 0.387044 0.000000 0.000000
O O11 0.500000 0.500000 0.548822
O O12 0.669466 0.474276 0.554312
O O13 0.506877 0.356986 0.494190
O O14 0.253370 0.379161 0.421367
O O15 0.386511 0.303899 0.412781
O O16 0.415426 0.803694 0.743536
O O17 0.000000 0.500000 0.561442
#
# Coordination Sequence:
#
# PCOD9584300 Si02
#       7
#    12  12  12  12  12  12  12
#     4  10  20  37  58  79 114 158 195 243 297 347
#     4  11  23  36  54  86 118 154 195 248 296 349
#     4  10  20  33  55  84 114 152 190 237 294 349
#     4  11  20  32  55  83 120 150 184 240 293 351
#     4  10  21  39  60  81 118 158 195 236 289 368
#     4  10  20  37  56  85 120 152 192 233 291 357
#     4   9  21  38  54  81 114 158 193 231 286 344
#
# _framework density 17.598105
#
# number of rings (size 3 to 8) (size 9 to 14) (size 15 to 20)
#    0.000    1.857    2.857    1.286    2.000    0.000 
#   12.857    2.857    0.000    0.000    0.000    0.000 
#    0.000    0.000    0.000    0.000    0.000    0.000 
#
# Total GULP energy -468743.885939 kJ/mol
# GULP energy per Si atom -5580.284356 kJ/mol
# Density = 1.755805 g / cm^3
# Si number density = 17.598105 Si / 1000 Ang^3
#
#
#
# Elastic Constant Matrix: (Units=GPa)
#
#
# Indices 1 2 3 4 5 6 
#
# 1 100.0747 47.3247 47.6095 0.0000 0.0000 0.0000
# 2 47.3247 100.0747 47.6095 0.0000 0.0000 0.0000
# 3 47.6095 47.6095 94.8333 0.0000 0.0000 0.0000
# 4 0.0000 0.0000 0.0000 -0.5642 0.0000 0.0000
# 5 0.0000 0.0000 0.0000 0.0000 -0.5642 0.0000
# 6 0.0000 0.0000 0.0000 0.0000 0.0000 26.3750
#
#
#
# Elastic Compliance Matrix: (Units=1/GPa)
#
#
# Indices 1 2 3 4 5 6 
#
# 1 0.014499 -0.004458 -0.005041 0.000000 0.000000 0.000000
# 2 -0.004458 0.014499 -0.005041 0.000000 0.000000 0.000000
# 3 -0.005041 -0.005041 0.015606 0.000000 0.000000 0.000000
# 4 0.000000 0.000000 0.000000 -1.772506 0.000000 0.000000
# 5 0.000000 0.000000 0.000000 0.000000 -1.772507 0.000000
# 6 0.000000 0.000000 0.000000 0.000000 0.000000 0.037915
#
#
# Mechanical properties :
#
#
# Convention : Reuss Voigt Hill
#
# Bulk Modulus (GPa) = 64.41500 64.45223 64.43362
# Shear Modulus (GPa) = -1.45847 15.21192 6.87672
#
# Velocity S-wave (km/s) = -0.91135 2.94327 1.97892
# Velocity P-wave (km/s) = 5.96451 6.94654 6.47418
#
# Compressibility (1/GPa) = 0.01552433
#
# Stress axis : x y z
#
# Youngs Moduli (GPa) = 68.97051 68.97051 64.07792
#
# Poissons Ratio (x) = 0.30750 0.32300
# Poissons Ratio (y) = 0.30750 0.32300
# Poissons Ratio (z) = 0.34766 0.34766
#
# Static dielectric constant tensor:
#      x y z
#    x 1.608290 0.000000 0.000000 
#    y 0.000000 1.608290 0.000000 
#    z 0.000000 0.000000 1.609230 
# 
# From -- ./inp_files/10223.got.cif
#   From: 2010.05.17/outbox.cif.g08.bks.cpg/sg181_6_cif.got.tgz:10223.got - 2010.05.20 11:51:17.
