data_PCOD9584034
_publ_section_title
;
Structure prediction by ZEFSAII (Michael W. Deem and Ramdas Pophale) SiO2 
 PCOD9584034
Probable space group: P 62 2 2
;
_chemical_formula_sum "Si O2"
_cell_formula_units_Z 30
_cell_length_a 17.151533
_cell_length_b 17.151533
_cell_length_c 5.206340
_cell_angle_alpha 90.000000
_cell_angle_beta 90.000000
_cell_angle_gamma 120.000000
_cell_volume 1326.383298
_symmetry_space_group_name_H-M "P 62 2 2"
_symmetry_group_IT_number 180
_symmetry_cell_setting 'hexagonal'
loop_
_space_group_symop_operation_xyz
x,y,z
x-y,x,1/3+z
-y,x-y,2/3+z
-x,-y,z
-x+y,-x,1/3+z
y,-x+y,2/3+z
x-y,-y,-z
-x,-x+y,1/3-z
y,x,2/3-z
-y,-x,2/3-z
-x+y,y,-z
x,x-y,1/3-z
loop_
_atom_site_type_symbol
_atom_site_label
_atom_site_fract_x
_atom_site_fract_y
_atom_site_fract_z
Si Si1 0.358608 0.815118 0.762745
Si Si2 0.181183 0.090592 0.166667
Si Si3 0.278530 0.334774 0.597419
O O1 0.287327 0.712674 0.833334
O O2 0.410911 0.821821 0.500000
O O3 0.299294 0.863483 0.752382
O O4 0.427464 0.854927 0.000000
O O5 0.120806 0.120806 0.333334
O O6 0.255245 0.078390 0.327780
O O7 0.305043 0.305043 0.333334
O O8 0.338045 0.338045 0.833334
#
# Coordination Sequence:
#
# PCOD9584034 Si02
#       3
#    12   6  12
#     4  12  25  44  71 104 145 191 248 307 370 442
#     4  10  24  50  79 110 152 198 252 308 379 448
#     4  11  25  46  73 106 145 192 243 306 376 441
#
# _framework density 22.617896999999999
#
# number of rings (size 3 to 8) (size 9 to 14) (size 15 to 20)
#    0.000    0.800    2.000    4.800    0.000   11.200 
#    0.000    7.000    0.000    0.000    0.000    0.000 
#    0.000    0.000    0.000    0.000    0.000    0.000 
#
# Total GULP energy -167589.345332 kJ/mol
# GULP energy per Si atom -5586.311511 kJ/mol
# Density = 2.256642 g / cm^3
# Si number density = 22.617897 Si / 1000 Ang^3
#
#
#
# Elastic Constant Matrix: (Units=GPa)
#
#
# Indices 1 2 3 4 5 6 
#
# 1 154.8244 84.5134 60.2902 0.0000 0.0000 0.0000
# 2 84.5134 154.8244 60.2902 0.0000 0.0000 0.0000
# 3 60.2902 60.2902 144.7307 0.0000 0.0000 0.0000
# 4 0.0000 0.0000 0.0000 42.8466 0.0000 0.0000
# 5 0.0000 0.0000 0.0000 0.0000 42.8466 0.0000
# 6 0.0000 0.0000 0.0000 0.0000 0.0000 35.1555
#
#
#
# Elastic Compliance Matrix: (Units=1/GPa)
#
#
# Indices 1 2 3 4 5 6 
#
# 1 0.009755 -0.004467 -0.002203 0.000000 0.000000 0.000000
# 2 -0.004467 0.009755 -0.002203 0.000000 0.000000 0.000000
# 3 -0.002203 -0.002203 0.008745 0.000000 0.000000 0.000000
# 4 0.000000 0.000000 0.000000 0.023339 0.000000 0.000000
# 5 0.000000 0.000000 0.000000 0.000000 0.023339 0.000000
# 6 0.000000 0.000000 0.000000 0.000000 0.000000 0.028445
#
#
# Mechanical properties :
#
#
# Convention : Reuss Voigt Hill
#
# Bulk Modulus (GPa) = 95.15321 96.06303 95.60812
# Shear Modulus (GPa) = 40.11968 40.78882 40.45425
#
# Velocity S-wave (km/s) = 4.21622 4.25124 4.23377
# Velocity P-wave (km/s) = 8.11562 8.16466 8.14018
#
# Compressibility (1/GPa) = 0.01050937
#
# Stress axis : x y z
#
# Youngs Moduli (GPa) = 102.50891 102.50891 114.35596
#
# Poissons Ratio (x) = 0.45793 0.25190
# Poissons Ratio (y) = 0.45793 0.25190
# Poissons Ratio (z) = 0.22581 0.22581
#
# Static dielectric constant tensor:
#      x y z
#    x 1.839660 0.000000 0.000000 
#    y 0.000000 1.839660 0.000000 
#    z 0.000000 0.000000 1.798250 
# 
# From -- ./inp_files/374.got.cif
#   From: 2010.05.17/outbox.cif.g08.bks.cpg/sg180_1_cif.got.tgz:374.got - 2010.05.20 11:43:55.
