data_PCOD9584243
_publ_section_title
;
Structure prediction by ZEFSAII (Michael W. Deem and Ramdas Pophale) SiO2 
 PCOD9584243
Probable space group: P 64 2 2
;
_chemical_formula_sum "Si O2"
_cell_formula_units_Z 84
_cell_length_a 18.211637
_cell_length_b 18.211637
_cell_length_c 13.471695
_cell_angle_alpha 90.000000
_cell_angle_beta 90.000000
_cell_angle_gamma 120.000000
_cell_volume 3869.464298
_symmetry_space_group_name_H-M "P 64 2 2"
_symmetry_group_IT_number 181
_symmetry_cell_setting 'hexagonal'
loop_
_space_group_symop_operation_xyz
x,y,z
x-y,x,2/3+z
-y,x-y,1/3+z
-x,-y,z
-x+y,-x,2/3+z
y,-x+y,1/3+z
x-y,-y,-z
-x,-x+y,2/3-z
y,x,1/3-z
-y,-x,1/3-z
-x+y,y,-z
x,x-y,2/3-z
loop_
_atom_site_type_symbol
_atom_site_label
_atom_site_fract_x
_atom_site_fract_y
_atom_site_fract_z
Si Si1 0.298107 0.844215 0.847621
Si Si2 0.083916 0.219118 0.388714
Si Si3 0.008480 0.740616 0.985913
Si Si4 0.028591 0.684705 0.202982
Si Si5 0.480116 0.576390 0.896903
Si Si6 0.352532 0.176266 0.333334
Si Si7 0.385710 0.385710 0.166667
Si Si8 0.826095 0.479354 0.776684
O O1 0.389025 0.854933 0.822092
O O2 0.247995 0.837496 0.744956
O O3 0.233767 0.754608 0.897108
O O4 0.322311 0.933741 0.901146
O O5 0.096802 0.193604 0.500000
O O6 0.161687 0.238036 0.317287
O O7 0.075396 0.302770 0.404327
O O8 0.000000 0.151617 0.333334
O O9 0.913773 0.710976 0.950456
O O10 0.028283 0.678992 0.923904
O O11 0.009009 0.716514 0.099623
O O12 0.083605 0.641034 0.173828
O O13 0.500000 0.500000 0.919144
O O14 0.476019 0.617679 0.000217
O O15 0.469445 0.379357 0.182443
O O16 0.778243 0.389122 0.833334
#
# Coordination Sequence:
#
# PCOD9584243 Si02
#       8
#    12  12  12  12  12   6   6  12
#     4  10  21  35  60  87 123 166 214 268 329 402
#     4  10  23  41  68  98 132 173 227 281 342 411
#     4  10  21  35  61  95 126 165 214 267 323 398
#     4   9  20  39  64  91 122 171 217 278 331 390
#     4  10  20  38  62  91 127 168 223 275 334 399
#     4  10  18  36  55  88 126 158 204 264 323 378
#     4  12  21  34  58  94 125 160 212 268 327 392
#     4  12  23  34  56  93 132 169 211 273 342 407
#
# _framework density 21.708431999999998
#
# number of rings (size 3 to 8) (size 9 to 14) (size 15 to 20)
#    0.000    1.714    2.857    1.929    4.000    1.143 
#    0.000    2.500    3.143    8.143    0.000    0.000 
#    0.000    0.000    0.000    0.000    0.000    0.000 
#
# Total GULP energy -468594.556817 kJ/mol
# GULP energy per Si atom -5578.506629 kJ/mol
# Density = 2.165902 g / cm^3
# Si number density = 21.708432 Si / 1000 Ang^3
#
#
#
# Elastic Constant Matrix: (Units=GPa)
#
#
# Indices 1 2 3 4 5 6 
#
# 1 87.4442 35.4800 -1.9363 0.0000 0.0000 0.0000
# 2 35.4800 87.4442 -1.9363 0.0000 0.0000 0.0000
# 3 -1.9363 -1.9363 35.7589 0.0000 0.0000 0.0000
# 4 0.0000 0.0000 0.0000 17.2326 0.0000 0.0000
# 5 0.0000 0.0000 0.0000 0.0000 17.2326 0.0000
# 6 0.0000 0.0000 0.0000 0.0000 0.0000 25.9821
#
#
#
# Elastic Compliance Matrix: (Units=1/GPa)
#
#
# Indices 1 2 3 4 5 6 
#
# 1 0.013697 -0.005548 0.000441 0.000000 0.000000 0.000000
# 2 -0.005548 0.013697 0.000441 0.000000 0.000000 0.000000
# 3 0.000441 0.000441 0.028013 0.000000 0.000000 0.000000
# 4 0.000000 0.000000 0.000000 0.058030 0.000000 0.000000
# 5 0.000000 0.000000 0.000000 0.000000 0.058030 0.000000
# 6 0.000000 0.000000 0.000000 0.000000 0.000000 0.038488
#
#
# Mechanical properties :
#
#
# Convention : Reuss Voigt Hill
#
# Bulk Modulus (GPa) = 21.70331 30.42913 26.06622
# Shear Modulus (GPa) = 21.30909 24.02545 22.66727
#
# Velocity S-wave (km/s) = 3.13646 3.33037 3.23487
# Velocity P-wave (km/s) = 4.80997 5.36993 5.09764
#
# Compressibility (1/GPa) = 0.04607591
#
# Stress axis : x y z
#
# Youngs Moduli (GPa) = 73.01130 73.01130 35.69786
#
# Poissons Ratio (x) = 0.40503 -0.01575
# Poissons Ratio (y) = 0.40503 -0.01575
# Poissons Ratio (z) = -0.03222 -0.03222
#
# Static dielectric constant tensor:
#      x y z
#    x 1.858310 0.000000 0.000000 
#    y 0.000000 1.858310 0.000000 
#    z 0.000000 0.000000 1.813450 
# 
# From -- ./inp_files/6532.got.cif
#   From: 2010.05.17/outbox.cif.g08.bks.cpg/sg181_4_cif.got.tgz:6532.got - 2010.05.20 11:51:17.
