data_PCOD9584022
_publ_section_title
;
Structure prediction by ZEFSAII (Michael W. Deem and Ramdas Pophale) SiO2 
 PCOD9584022
Probable space group: P 62 2 2
;
_chemical_formula_sum "Si O2"
_cell_formula_units_Z 42
_cell_length_a 15.119693
_cell_length_b 15.119693
_cell_length_c 10.639939
_cell_angle_alpha 90.000000
_cell_angle_beta 90.000000
_cell_angle_gamma 120.000000
_cell_volume 2106.472122
_symmetry_space_group_name_H-M "P 62 2 2"
_symmetry_group_IT_number 180
_symmetry_cell_setting 'hexagonal'
loop_
_space_group_symop_operation_xyz
x,y,z
x-y,x,1/3+z
-y,x-y,2/3+z
-x,-y,z
-x+y,-x,1/3+z
y,-x+y,2/3+z
x-y,-y,-z
-x,-x+y,1/3-z
y,x,2/3-z
-y,-x,2/3-z
-x+y,y,-z
x,x-y,1/3-z
loop_
_atom_site_type_symbol
_atom_site_label
_atom_site_fract_x
_atom_site_fract_y
_atom_site_fract_z
Si Si1 0.708661 0.110622 0.038855
Si Si2 0.885824 0.479099 0.950466
Si Si3 0.732123 0.464246 0.500000
Si Si4 0.233600 0.887208 0.446189
O O1 0.630225 0.098097 0.147870
O O2 0.816550 0.179760 0.102408
O O3 0.701900 0.171277 0.921312
O O4 0.686328 0.000000 0.000000
O O5 0.784046 0.367436 0.927811
O O6 0.000000 0.500000 0.982697
O O7 0.867558 0.546284 0.054103
O O8 0.150177 0.849824 0.333334
O O9 0.282554 0.000000 0.500000
#
# Coordination Sequence:
#
# PCOD9584022 Si02
#       4
#    12  12   6  12
#     4  11  24  41  64  95 133 179 226 277 347 417
#     4  11  23  42  64  98 142 177 230 289 345 415
#     4  12  24  36  70  92 136 192 226 278 344 406
#     4  10  24  44  69  99 136 177 233 289 348 430
#
# _framework density 19.938551
#
# number of rings (size 3 to 8) (size 9 to 14) (size 15 to 20)
#    0.000    1.143    2.857    2.571    4.000   10.857 
#    0.000    0.000    0.000    2.571    0.000    0.000 
#    0.000    0.000    0.000    0.000    0.000    0.000 
#
# Total GULP energy -234193.171674 kJ/mol
# GULP energy per Si atom -5576.027897 kJ/mol
# Density = 1.989317 g / cm^3
# Si number density = 19.938551 Si / 1000 Ang^3
#
#
#
# Elastic Constant Matrix: (Units=GPa)
#
#
# Indices 1 2 3 4 5 6 
#
# 1 170.2306 39.8334 44.6091 0.0000 0.0000 0.0000
# 2 39.8334 170.2306 44.6091 0.0000 0.0000 0.0000
# 3 44.6091 44.6091 55.8378 0.0000 0.0000 0.0000
# 4 0.0000 0.0000 0.0000 98.5773 0.0000 0.0000
# 5 0.0000 0.0000 0.0000 0.0000 98.5773 0.0000
# 6 0.0000 0.0000 0.0000 0.0000 0.0000 65.1986
#
#
#
# Elastic Compliance Matrix: (Units=1/GPa)
#
#
# Indices 1 2 3 4 5 6 
#
# 1 0.007437 -0.000232 -0.005756 0.000000 0.000000 0.000000
# 2 -0.000232 0.007437 -0.005756 0.000000 0.000000 0.000000
# 3 -0.005756 -0.005756 0.027107 0.000000 0.000000 0.000000
# 4 0.000000 0.000000 0.000000 0.010144 0.000000 0.000000
# 5 0.000000 0.000000 0.000000 0.000000 0.010144 0.000000
# 6 0.000000 0.000000 0.000000 0.000000 0.000000 0.015338
#
#
# Mechanical properties :
#
#
# Convention : Reuss Voigt Hill
#
# Bulk Modulus (GPa) = 54.07812 72.71135 63.39474
# Shear Modulus (GPa) = 46.61570 70.28712 58.45141
#
# Velocity S-wave (km/s) = 4.84050 5.94377 5.42028
# Velocity P-wave (km/s) = 7.64342 9.14612 8.42832
#
# Compressibility (1/GPa) = 0.01849177
#
# Stress axis : x y z
#
# Youngs Moduli (GPa) = 134.46137 134.46137 36.89144
#
# Poissons Ratio (x) = 0.03117 0.21236
# Poissons Ratio (y) = 0.03117 0.21236
# Poissons Ratio (z) = 0.77401 0.77401
#
# Static dielectric constant tensor:
#      x y z
#    x 1.695350 0.000000 0.000000 
#    y 0.000000 1.695350 0.000000 
#    z 0.000000 0.000000 2.304420 
# 
# From -- ./inp_files/4209.got.cif
#   From: 2010.05.17/outbox.cif.g08.bks.cpg/sg180_3_cif.got.tgz:4209.got - 2010.05.20 11:43:55.
