data_PCOD9584751
_publ_section_title
;
Structure prediction by ZEFSAII (Michael W. Deem and Ramdas Pophale) SiO2 
 PCOD9584751
Probable space group: P 63 2 2
;
_chemical_formula_sum "Si O2"
_cell_formula_units_Z 72
_cell_length_a 14.680943
_cell_length_b 14.680943
_cell_length_c 18.019405
_cell_angle_alpha 90.000000
_cell_angle_beta 90.000000
_cell_angle_gamma 120.000000
_cell_volume 3363.403588
_symmetry_space_group_name_H-M "P 63 2 2"
_symmetry_group_IT_number 182
_symmetry_cell_setting 'hexagonal'
loop_
_space_group_symop_operation_xyz
x,y,z
x-y,x,1/2+z
-y,x-y,z
-x,-y,1/2+z
-x+y,-x,z
y,-x+y,1/2+z
x-y,-y,-z
-x,-x+y,-z
y,x,-z
-y,-x,1/2-z
-x+y,y,1/2-z
x,x-y,1/2-z
loop_
_atom_site_type_symbol
_atom_site_label
_atom_site_fract_x
_atom_site_fract_y
_atom_site_fract_z
Si Si1 0.200217 0.461987 0.665054
Si Si2 0.398594 0.863551 0.918174
Si Si3 0.979989 0.106336 0.587628
Si Si4 0.671961 0.713006 0.338355
Si Si5 0.480606 0.145828 0.782333
Si Si6 0.889157 0.455852 0.918749
O O1 0.233069 0.466137 0.750000
O O2 0.190917 0.562306 0.640999
O O3 0.280903 0.455375 0.607655
O O4 0.082465 0.366874 0.655197
O O5 0.473689 0.988790 0.916787
O O6 0.421040 0.838182 0.000712
O O7 0.000000 0.136568 0.500000
O O8 0.946513 0.179491 0.630809
O O9 0.088498 0.105031 0.604259
O O10 0.634417 0.711651 0.253369
O O11 0.562932 0.666083 0.386306
O O12 0.547265 0.094529 0.750000
O O13 0.520593 0.260297 0.750000
O O14 0.515238 0.161439 0.866657
#
# Coordination Sequence:
#
# PCOD9584751 Si02
#       6
#    12  12  12  12  12  12
#     4  11  22  37  60  91 131 171 217 262 345 416
#     4  10  21  38  60  91 126 170 209 279 322 400
#     4   8  18  39  63  96 134 173 227 289 338 402
#     4  10  21  39  66  91 130 181 222 280 346 412
#     4  10  21  40  63  89 124 173 222 280 342 402
#     4   9  21  40  61  92 129 165 230 275 331 401
#
# _framework density 21.406886
#
# number of rings (size 3 to 8) (size 9 to 14) (size 15 to 20)
#    0.333    2.000    0.000    2.000    4.667    5.333 
#    6.000    1.667    0.000    1.000    0.000    0.000 
#    0.000    0.000    0.000    0.000    0.000    0.000 
#
# Total GULP energy -400959.949841 kJ/mol
# GULP energy per Si atom -5568.888192 kJ/mol
# Density = 2.135816 g / cm^3
# Si number density = 21.406886 Si / 1000 Ang^3
#
#
#
# Elastic Constant Matrix: (Units=GPa)
#
#
# Indices 1 2 3 4 5 6 
#
# 1 98.9841 41.1483 41.3331 0.0000 0.0000 0.0000
# 2 41.1483 98.9841 41.3331 0.0000 0.0000 0.0000
# 3 41.3331 41.3331 98.5713 0.0000 0.0000 0.0000
# 4 0.0000 0.0000 0.0000 19.3315 0.0000 0.0000
# 5 0.0000 0.0000 0.0000 0.0000 19.3315 0.0000
# 6 0.0000 0.0000 0.0000 0.0000 0.0000 28.9179
#
#
#
# Elastic Compliance Matrix: (Units=1/GPa)
#
#
# Indices 1 2 3 4 5 6 
#
# 1 0.013386 -0.003904 -0.003976 0.000000 0.000000 0.000000
# 2 -0.003904 0.013386 -0.003976 0.000000 0.000000 0.000000
# 3 -0.003976 -0.003976 0.013479 0.000000 0.000000 0.000000
# 4 0.000000 0.000000 0.000000 0.051729 0.000000 0.000000
# 5 0.000000 0.000000 0.000000 0.000000 0.051729 0.000000
# 6 0.000000 0.000000 0.000000 0.000000 0.000000 0.034581
#
#
# Mechanical properties :
#
#
# Convention : Reuss Voigt Hill
#
# Bulk Modulus (GPa) = 60.46312 60.46318 60.46315
# Shear Modulus (GPa) = 24.09468 25.03119 24.56293
#
# Velocity S-wave (km/s) = 3.35857 3.42322 3.39105
# Velocity P-wave (km/s) = 6.58377 6.62802 6.60593
#
# Compressibility (1/GPa) = 0.01653901
#
# Stress axis : x y z
#
# Youngs Moduli (GPa) = 74.70545 74.70545 74.18824
#
# Poissons Ratio (x) = 0.29168 0.29496
# Poissons Ratio (y) = 0.29168 0.29496
# Poissons Ratio (z) = 0.29701 0.29701
#
# Static dielectric constant tensor:
#      x y z
#    x 1.810520 0.000000 0.000000 
#    y 0.000000 1.810520 0.000000 
#    z 0.000000 0.000000 1.860330 
# 
# From -- ./inp_files/4347.got.cif
#   From: 2010.05.17/outbox.cif.g08.bks.cpg/sg182_3_cif.got.tgz:4347.got - 2010.05.20 11:58:53.
