data_PCOD9584787
_publ_section_title
;
Structure prediction by ZEFSAII (Michael W. Deem and Ramdas Pophale) SiO2 
 PCOD9584787
Probable space group: P 63 2 2
;
_chemical_formula_sum "Si O2"
_cell_formula_units_Z 22
_cell_length_a 7.104977
_cell_length_b 7.104977
_cell_length_c 24.400903
_cell_angle_alpha 90.000000
_cell_angle_beta 90.000000
_cell_angle_gamma 120.000000
_cell_volume 1066.748112
_symmetry_space_group_name_H-M "P 63 2 2"
_symmetry_group_IT_number 182
_symmetry_cell_setting 'hexagonal'
loop_
_space_group_symop_operation_xyz
x,y,z
x-y,x,1/2+z
-y,x-y,z
-x,-y,1/2+z
-x+y,-x,z
y,-x+y,1/2+z
x-y,-y,-z
-x,-x+y,-z
y,x,-z
-y,-x,1/2-z
-x+y,y,1/2-z
x,x-y,1/2-z
loop_
_atom_site_type_symbol
_atom_site_label
_atom_site_fract_x
_atom_site_fract_y
_atom_site_fract_z
Si Si1 0.248436 0.248436 0.000000
Si Si2 0.390566 0.456012 0.115514
Si Si3 0.666668 0.333335 0.314910
O O1 0.367600 0.378644 0.945586
O O2 0.201504 0.000000 0.000000
O O3 0.555756 0.714603 0.121902
O O4 0.459929 0.337644 0.159329
O O5 0.666668 0.333334 0.250000
#
# Coordination Sequence:
#
# PCOD9584787 Si02
#       3
#     6  12   4
#     4  10  22  38  68 106 148 176 218 284 354 424
#     4  10  25  42  68 103 138 179 232 284 352 419
#     4  12  27  48  69  96 138 186 241 293 346 420
#
# _framework density 20.623427
#
# number of rings (size 3 to 8) (size 9 to 14) (size 15 to 20)
#    1.636    0.000    0.000    3.273   11.455    2.182 
#    3.273    0.000    0.000    0.000    0.000    0.000 
#    0.000    0.000    0.000    0.000    0.000    0.000 
#
# Total GULP energy -122618.396222 kJ/mol
# GULP energy per Si atom -5573.563465 kJ/mol
# Density = 2.057649 g / cm^3
# Si number density = 20.623427 Si / 1000 Ang^3
#
#
#
# Elastic Constant Matrix: (Units=GPa)
#
#
# Indices 1 2 3 4 5 6 
#
# 1 86.3480 48.3678 67.1483 0.0000 -0.0002 -0.0004
# 2 48.3678 86.3472 67.1475 0.0000 0.0002 0.0001
# 3 67.1483 67.1475 209.8335 0.0004 -0.0003 -0.0004
# 4 0.0000 0.0000 0.0004 22.5749 -0.0002 -0.0002
# 5 -0.0002 0.0002 -0.0003 -0.0002 22.5752 0.0000
# 6 -0.0004 0.0001 -0.0004 -0.0002 0.0000 18.9906
#
#
#
# Elastic Compliance Matrix: (Units=1/GPa)
#
#
# Indices 1 2 3 4 5 6 
#
# 1 0.018615 -0.007715 -0.003488 0.000000 0.000000 0.000000
# 2 -0.007715 0.018615 -0.003488 0.000000 0.000000 0.000000
# 3 -0.003488 -0.003488 0.006998 0.000000 0.000000 0.000000
# 4 0.000000 0.000000 0.000000 0.044297 0.000000 0.000000
# 5 0.000000 0.000000 0.000000 0.000000 0.044296 0.000000
# 6 0.000000 0.000000 0.000000 0.000000 0.000000 0.052657
#
#
# Mechanical properties :
#
#
# Convention : Reuss Voigt Hill
#
# Bulk Modulus (GPa) = 67.35741 83.09512 75.22626
# Shear Modulus (GPa) = 22.74691 26.15248 24.44970
#
# Velocity S-wave (km/s) = 3.32469 3.56490 3.44689
# Velocity P-wave (km/s) = 6.88982 7.57124 7.23856
#
# Compressibility (1/GPa) = 0.01484618
#
# Stress axis : x y z
#
# Youngs Moduli (GPa) = 53.72000 53.71980 142.89467
#
# Poissons Ratio (x) = 0.41443 0.49845
# Poissons Ratio (y) = 0.41443 0.49844
# Poissons Ratio (z) = 0.18739 0.18738
#
# Static dielectric constant tensor:
#      x y z
#    x 1.776080 0.000000 0.000000 
#    y 0.000000 1.776080 0.000000 
#    z 0.000000 0.000000 1.651070 
# 
# From -- ./inp_files/3853.got.cif
#   From: 2010.05.17/outbox.cif.g08.bks.cpg/sg182_2_cif.got.tgz:3853.got - 2010.05.20 11:58:53.
