data_PCOD9584866
_publ_section_title
;
Structure prediction by ZEFSAII (Michael W. Deem and Ramdas Pophale) SiO2 
 PCOD9584866
Probable space group: P 63 2 2
;
_chemical_formula_sum "Si O2"
_cell_formula_units_Z 68
_cell_length_a 11.152519
_cell_length_b 11.152519
_cell_length_c 32.934688
_cell_angle_alpha 90.000000
_cell_angle_beta 90.000000
_cell_angle_gamma 120.000000
_cell_volume 3547.563100
_symmetry_space_group_name_H-M "P 63 2 2"
_symmetry_group_IT_number 182
_symmetry_cell_setting 'hexagonal'
loop_
_space_group_symop_operation_xyz
x,y,z
x-y,x,1/2+z
-y,x-y,z
-x,-y,1/2+z
-x+y,-x,z
y,-x+y,1/2+z
x-y,-y,-z
-x,-x+y,-z
y,x,-z
-y,-x,1/2-z
-x+y,y,1/2-z
x,x-y,1/2-z
loop_
_atom_site_type_symbol
_atom_site_label
_atom_site_fract_x
_atom_site_fract_y
_atom_site_fract_z
Si Si1 0.000000 0.000000 0.948255
Si Si2 0.000000 0.000000 0.798308
Si Si3 0.333804 0.942251 0.456483
Si Si4 0.379871 0.042744 0.749656
Si Si5 0.686787 0.850522 0.686827
Si Si6 0.842168 0.686128 0.408341
Si Si7 0.609606 0.942185 0.456380
O O1 0.078993 0.155642 0.928084
O O2 0.000000 0.000000 0.000000
O O3 0.043758 0.149940 0.812734
O O4 0.000000 0.000000 0.750000
O O5 0.450583 0.900020 0.459895
O O6 0.189194 0.811639 0.444518
O O7 0.322071 0.000000 0.500000
O O8 0.378384 0.067835 0.426088
O O9 0.538498 0.076995 0.750000
O O10 0.370439 0.185220 0.750000
O O11 0.285963 0.946944 0.711860
O O12 0.305240 0.938500 0.787858
O O13 0.658783 0.827024 0.639468
O O14 0.933252 0.623966 0.425599
O O15 0.678801 0.000000 0.500000
#
# Coordination Sequence:
#
# PCOD9584866 Si02
#       7
#     4   4  12  12  12  12  12
#     4  12  22  35  67 100 134 157 210 271 329 373
#     4  12  16  38  70  96 112 149 199 247 296 367
#     4  11  23  40  61  87 122 166 213 263 317 376
#     4  11  23  42  68  94 129 167 210 256 324 389
#     4  11  22  40  66  96 125 160 207 265 314 384
#     4  12  23  38  64  95 126 160 209 266 325 362
#     4  11  23  40  61  87 122 166 213 263 317 376
#
# _framework density 19.168087
#
# number of rings (size 3 to 8) (size 9 to 14) (size 15 to 20)
#    0.000    0.706    7.059    2.647    0.000    1.412 
#    5.294    0.000    0.000    4.235    0.000    0.000 
#    0.000    0.000    0.000    0.000    0.000    0.000 
#
# Total GULP energy -379078.800907 kJ/mol
# GULP energy per Si atom -5574.688249 kJ/mol
# Density = 1.912446 g / cm^3
# Si number density = 19.168087 Si / 1000 Ang^3
#
#
#
# Elastic Constant Matrix: (Units=GPa)
#
#
# Indices 1 2 3 4 5 6 
#
# 1 76.2300 23.0323 21.1249 0.0000 0.0000 0.0000
# 2 23.0323 76.2300 21.1249 0.0000 0.0000 0.0000
# 3 21.1249 21.1249 162.5090 0.0000 0.0000 0.0000
# 4 0.0000 0.0000 0.0000 2.4979 0.0000 0.0000
# 5 0.0000 0.0000 0.0000 0.0000 2.4979 0.0000
# 6 0.0000 0.0000 0.0000 0.0000 0.0000 26.5988
#
#
#
# Elastic Compliance Matrix: (Units=1/GPa)
#
#
# Indices 1 2 3 4 5 6 
#
# 1 0.014731 -0.004067 -0.001386 0.000000 0.000000 0.000000
# 2 -0.004067 0.014731 -0.001386 0.000000 0.000000 0.000000
# 3 -0.001386 -0.001386 0.006514 0.000000 0.000000 0.000000
# 4 0.000000 0.000000 0.000000 0.400340 0.000000 0.000000
# 5 0.000000 0.000000 0.000000 0.000000 0.400340 0.000000
# 6 0.000000 0.000000 0.000000 0.000000 0.000000 0.037596
#
#
# Mechanical properties :
#
#
# Convention : Reuss Voigt Hill
#
# Bulk Modulus (GPa) = 44.84805 49.50369 47.17587
# Shear Modulus (GPa) = 5.58433 22.96472 14.27452
#
# Velocity S-wave (km/s) = 1.70870 3.46507 2.73188
# Velocity P-wave (km/s) = 5.22886 6.47233 5.88354
#
# Compressibility (1/GPa) = 0.02229751
#
# Stress axis : x y z
#
# Youngs Moduli (GPa) = 67.88366 67.88366 153.51742
#
# Poissons Ratio (x) = 0.27606 0.21282
# Poissons Ratio (y) = 0.27606 0.21282
# Poissons Ratio (z) = 0.09411 0.09411
#
# Static dielectric constant tensor:
#      x y z
#    x 1.685940 0.000000 0.000000 
#    y 0.000000 1.685940 0.000000 
#    z 0.000000 0.000000 1.512090 
# 
# From -- ./inp_files/5766.got.cif
#   From: 2010.05.17/outbox.cif.g08.bks.cpg/sg182_3_cif.got.tgz:5766.got - 2010.05.20 11:58:53.
