data_PCOD9584870
_publ_section_title
;
Structure prediction by ZEFSAII (Michael W. Deem and Ramdas Pophale) SiO2 
 PCOD9584870
Probable space group: P 63 2 2
;
_chemical_formula_sum "Si O2"
_cell_formula_units_Z 58
_cell_length_a 14.591012
_cell_length_b 14.591012
_cell_length_c 14.177802
_cell_angle_alpha 90.000000
_cell_angle_beta 90.000000
_cell_angle_gamma 120.000000
_cell_volume 2614.028799
_symmetry_space_group_name_H-M "P 63 2 2"
_symmetry_group_IT_number 182
_symmetry_cell_setting 'hexagonal'
loop_
_space_group_symop_operation_xyz
x,y,z
x-y,x,1/2+z
-y,x-y,z
-x,-y,1/2+z
-x+y,-x,z
y,-x+y,1/2+z
x-y,-y,-z
-x,-x+y,-z
y,x,-z
-y,-x,1/2-z
-x+y,y,1/2-z
x,x-y,1/2-z
loop_
_atom_site_type_symbol
_atom_site_label
_atom_site_fract_x
_atom_site_fract_y
_atom_site_fract_z
Si Si1 0.799299 0.210586 0.520246
Si Si2 0.910477 0.510688 0.838026
Si Si3 0.854143 0.078341 0.845532
Si Si4 0.737239 0.103825 0.176839
Si Si5 0.427586 0.000000 0.000000
Si Si6 0.000000 0.000000 0.111740
O O1 0.823001 0.300316 0.600229
O O2 0.868554 0.163077 0.563593
O O3 0.848405 0.270243 0.422709
O O4 0.685777 0.108997 0.496569
O O5 0.864368 0.432184 0.750000
O O6 0.004372 0.622895 0.797153
O O7 0.974619 0.477725 0.909868
O O8 0.859635 0.140366 0.750000
O O9 0.759197 0.958797 0.840213
O O10 0.962517 0.078976 0.852895
O O11 0.801883 0.198118 0.250000
O O12 0.000000 0.000000 0.000000
#
# Coordination Sequence:
#
# PCOD9584870 Si02
#       6
#    12  12  12  12   6   4
#     4  11  26  44  71 106 143 189 247 307 376 459
#     4  11  24  48  74 107 149 195 254 320 381 455
#     4  11  24  36  58  97 141 183 233 284 350 437
#     4  11  22  44  70  99 139 189 241 305 374 441
#     4  12  26  46  78 106 146 196 248 306 394 452
#     4  12  22  35  55  87 139 185 230 278 340 429
#
# _framework density 22.187974000000001
#
# number of rings (size 3 to 8) (size 9 to 14) (size 15 to 20)
#    0.000    0.828    2.069    6.207   13.034    0.000 
#    1.241    0.000    0.000    1.655    0.000    0.000 
#    0.000    0.000    0.000    0.000    0.000    0.000 
#
# Total GULP energy -323745.071309 kJ/mol
# GULP energy per Si atom -5581.811574 kJ/mol
# Density = 2.213747 g / cm^3
# Si number density = 22.187974 Si / 1000 Ang^3
#
#
#
# Elastic Constant Matrix: (Units=GPa)
#
#
# Indices 1 2 3 4 5 6 
#
# 1 72.7765 29.0473 31.2474 0.0000 0.0000 0.0000
# 2 29.0473 72.7765 31.2474 0.0000 0.0000 0.0000
# 3 31.2474 31.2474 115.3857 0.0000 0.0000 0.0000
# 4 0.0000 0.0000 0.0000 29.8857 0.0000 0.0000
# 5 0.0000 0.0000 0.0000 0.0000 29.8857 0.0000
# 6 0.0000 0.0000 0.0000 0.0000 0.0000 21.8646
#
#
#
# Elastic Compliance Matrix: (Units=1/GPa)
#
#
# Indices 1 2 3 4 5 6 
#
# 1 0.017323 -0.005545 -0.003190 0.000000 0.000000 0.000000
# 2 -0.005545 0.017323 -0.003190 0.000000 0.000000 0.000000
# 3 -0.003190 -0.003190 0.010394 0.000000 0.000000 0.000000
# 4 0.000000 0.000000 0.000000 0.033461 0.000000 0.000000
# 5 0.000000 0.000000 0.000000 0.000000 0.033461 0.000000
# 6 0.000000 0.000000 0.000000 0.000000 0.000000 0.045736
#
#
# Mechanical properties :
#
#
# Convention : Reuss Voigt Hill
#
# Bulk Modulus (GPa) = 47.18666 49.33589 48.26127
# Shear Modulus (GPa) = 26.50958 27.62029 27.06494
#
# Velocity S-wave (km/s) = 3.46030 3.53204 3.49636
# Velocity P-wave (km/s) = 6.10556 6.23839 6.17233
#
# Compressibility (1/GPa) = 0.02119243
#
# Stress axis : x y z
#
# Youngs Moduli (GPa) = 57.72571 57.72571 96.20743
#
# Poissons Ratio (x) = 0.32007 0.30688
# Poissons Ratio (y) = 0.32007 0.30688
# Poissons Ratio (z) = 0.18413 0.18413
#
# Static dielectric constant tensor:
#      x y z
#    x 1.841330 0.000000 0.000000 
#    y 0.000000 1.841330 0.000000 
#    z 0.000000 0.000000 2.204740 
# 
# From -- ./inp_files/3500.got.cif
#   From: 2010.05.17/outbox.cif.g08.bks.cpg/sg182_2_cif.got.tgz:3500.got - 2010.05.20 11:58:53.
