data_PCOD9584598
_publ_section_title
;
Structure prediction by ZEFSAII (Michael W. Deem and Ramdas Pophale) SiO2 
 PCOD9584598
Probable space group: P 64 2 2
;
_chemical_formula_sum "Si O2"
_cell_formula_units_Z 96
_cell_length_a 15.000000
_cell_length_b 15.000000
_cell_length_c 27.000000
_cell_angle_alpha 90.000000
_cell_angle_beta 90.000000
_cell_angle_gamma 120.000000
_cell_volume 5261.104328
_symmetry_space_group_name_H-M "P 64 2 2"
_symmetry_group_IT_number 181
_symmetry_cell_setting 'hexagonal'
loop_
_space_group_symop_operation_xyz
x,y,z
x-y,x,2/3+z
-y,x-y,1/3+z
-x,-y,z
-x+y,-x,2/3+z
y,-x+y,1/3+z
x-y,-y,-z
-x,-x+y,2/3-z
y,x,1/3-z
-y,-x,1/3-z
-x+y,y,-z
x,x-y,2/3-z
loop_
_atom_site_type_symbol
_atom_site_label
_atom_site_fract_x
_atom_site_fract_y
_atom_site_fract_z
Si Si1 0.081448 0.621507 0.588872
Si Si2 0.176264 0.873722 0.004590
Si Si3 0.384785 0.982910 0.441189
Si Si4 0.627619 0.333630 0.891811
Si Si5 0.309225 0.257989 0.319410
Si Si6 0.613180 0.839702 0.887593
Si Si7 0.770813 0.519585 0.257672
Si Si8 0.418443 0.039632 0.147499
O O1 0.196416 0.638768 0.576823
O O2 0.064430 0.673531 0.637291
O O3 0.051848 0.657594 0.537771
O O4 0.000000 0.500000 0.594005
O O5 0.240427 0.831045 0.972327
O O6 0.057310 0.799601 0.987520
O O7 0.172693 0.843785 0.062299
O O8 0.230737 0.000000 0.000000
O O9 0.305238 0.864450 0.427462
O O10 0.500000 0.000000 0.434634
O O11 0.372887 0.000000 0.500000
O O12 0.360575 0.049673 0.400872
O O13 0.658208 0.329104 0.833334
O O14 0.505938 0.249647 0.893189
O O15 0.690760 0.296019 0.926472
O O16 0.290440 0.145220 0.333334
O O17 0.648718 0.824359 0.833334
O O18 0.625526 0.951357 0.882722
O O19 0.855682 0.539842 0.215919
O O20 0.500000 0.000000 0.150720
#
# Coordination Sequence:
#
# PCOD9584598 Si02
#       8
#    12  12  12  12  12  12  12  12
#     4  11  22  39  63  91 135 173 212 269 321 395
#     4  11  24  45  66  91 127 170 216 285 344 389
#     4  10  25  43  67  91 129 172 217 273 325 398
#     4  11  21  36  62  95 134 176 217 256 323 403
#     4  11  26  44  64  95 124 163 229 279 338 401
#     4  11  21  38  61  94 130 168 214 260 326 398
#     4  11  23  39  63  94 130 166 222 256 325 399
#     4  11  19  36  61  95 130 170 212 261 315 400
#
# _framework density 18.247119999999999
#
# number of rings (size 3 to 8) (size 9 to 14) (size 15 to 20)
#    0.000    1.125    3.750    4.125    5.250    1.750 
#    0.000    1.250    0.000    0.000    0.000    1.750 
#    0.000    0.000    0.000    0.000    0.000    0.000 
#
# Total GULP energy -535472.572351 kJ/mol
# GULP energy per Si atom -5577.839295 kJ/mol
# Density = 1.820559 g / cm^3
# Si number density = 18.247120 Si / 1000 Ang^3
#
#
#
# Elastic Constant Matrix: (Units=GPa)
#
#
# Indices 1 2 3 4 5 6 
#
# 1 95.1271 30.2008 35.4361 0.0000 0.0000 0.0000
# 2 30.2008 95.1271 35.4361 0.0000 0.0000 0.0000
# 3 35.4361 35.4361 127.5625 0.0000 0.0000 0.0000
# 4 0.0000 0.0000 0.0000 52.9879 0.0000 0.0000
# 5 0.0000 0.0000 0.0000 0.0000 52.9879 0.0000
# 6 0.0000 0.0000 0.0000 0.0000 0.0000 32.4632
#
#
#
# Elastic Compliance Matrix: (Units=1/GPa)
#
#
# Indices 1 2 3 4 5 6 
#
# 1 0.012434 -0.002968 -0.002630 0.000000 0.000000 0.000000
# 2 -0.002968 0.012434 -0.002630 0.000000 0.000000 0.000000
# 3 -0.002630 -0.002630 0.009300 0.000000 0.000000 0.000000
# 4 0.000000 0.000000 0.000000 0.018872 0.000000 0.000000
# 5 0.000000 0.000000 0.000000 0.000000 0.018872 0.000000
# 6 0.000000 0.000000 0.000000 0.000000 0.000000 0.030804
#
#
# Mechanical properties :
#
#
# Convention : Reuss Voigt Hill
#
# Bulk Modulus (GPa) = 56.45254 57.77362 57.11308
# Shear Modulus (GPa) = 39.97563 42.13737 41.05650
#
# Velocity S-wave (km/s) = 4.68567 4.81069 4.74859
# Velocity P-wave (km/s) = 7.76395 7.91123 7.83793
#
# Compressibility (1/GPa) = 0.01771399
#
# Stress axis : x y z
#
# Youngs Moduli (GPa) = 80.42408 80.42408 107.52360
#
# Poissons Ratio (x) = 0.23870 0.28275
# Poissons Ratio (y) = 0.23870 0.28275
# Poissons Ratio (z) = 0.21149 0.21149
#
# Static dielectric constant tensor:
#      x y z
#    x 1.635030 0.000000 0.000000 
#    y 0.000000 1.635030 0.000000 
#    z 0.000000 0.000000 1.648090 
# 
# From -- ./inp_files/11404.got.cif
#   From: 2010.05.17/outbox.ucp.g08.bks.cvg/sg181_6_cif.got.tgz:11404.got - 2010.06.11 15:20:36.
