data_PCOD9584482
_publ_section_title
;
Structure prediction by ZEFSAII (Michael W. Deem and Ramdas Pophale) SiO2 
 PCOD9584482
Probable space group: P 64 2 2
;
_chemical_formula_sum "Si O2"
_cell_formula_units_Z 54
_cell_length_a 22.780137
_cell_length_b 22.780137
_cell_length_c 5.442819
_cell_angle_alpha 90.000000
_cell_angle_beta 90.000000
_cell_angle_gamma 120.000000
_cell_volume 2446.060458
_symmetry_space_group_name_H-M "P 64 2 2"
_symmetry_group_IT_number 181
_symmetry_cell_setting 'hexagonal'
loop_
_space_group_symop_operation_xyz
x,y,z
x-y,x,2/3+z
-y,x-y,1/3+z
-x,-y,z
-x+y,-x,2/3+z
y,-x+y,1/3+z
x-y,-y,-z
-x,-x+y,2/3-z
y,x,1/3-z
-y,-x,1/3-z
-x+y,y,-z
x,x-y,2/3-z
loop_
_atom_site_type_symbol
_atom_site_label
_atom_site_fract_x
_atom_site_fract_y
_atom_site_fract_z
Si Si1 0.883705 0.441853 0.833334
Si Si2 0.247877 0.000000 0.000000
Si Si3 0.534431 0.197833 0.872913
Si Si4 0.557823 0.932941 0.167975
Si Si5 0.321555 0.321555 0.166667
Si Si6 0.220918 0.110459 0.833334
Si Si7 0.109270 0.109270 0.166667
O O1 0.835133 0.466735 0.721963
O O2 0.927845 0.437131 0.617299
O O3 0.288516 0.010466 0.745102
O O4 0.250172 0.073046 0.007056
O O5 0.532618 0.266309 0.833334
O O6 0.605163 0.210326 0.000000
O O7 0.471375 0.137884 0.022650
O O8 0.605778 0.941574 0.399484
O O9 0.597811 0.000000 0.000000
O O10 0.173161 0.047857 0.661458
O O11 0.092522 0.046261 0.333334
#
# Coordination Sequence:
#
# PCOD9584482 Si02
#       7
#     6   6  12  12   6   6   6
#     4  10  24  41  76 110 153 196 247 317 390 457
#     4  12  28  50  71 105 142 200 242 312 382 472
#     4  10  24  42  70 113 160 210 254 312 396 484
#     4  11  24  47  74 112 147 196 259 327 382 454
#     4  12  27  49  75 100 148 196 261 316 378 434
#     4  12  26  45  74 102 145 184 245 303 392 475
#     4  12  23  41  67 108 143 178 225 311 382 478
#
# _framework density 22.076315999999998
#
# number of rings (size 3 to 8) (size 9 to 14) (size 15 to 20)
#    0.000    0.889    3.333    2.000    1.556   15.556 
#    2.000    4.444    0.000    0.000    0.000    0.000 
#    0.000    0.000    0.000    0.000    0.000    0.000 
#
# Total GULP energy -301272.708278 kJ/mol
# GULP energy per Si atom -5579.124227 kJ/mol
# Density = 2.202607 g / cm^3
# Si number density = 22.076316 Si / 1000 Ang^3
#
#
#
# Elastic Constant Matrix: (Units=GPa)
#
#
# Indices 1 2 3 4 5 6 
#
# 1 115.9216 77.1545 57.6251 0.0000 0.0000 0.0000
# 2 77.1545 115.9216 57.6251 0.0000 0.0000 0.0000
# 3 57.6251 57.6251 137.8290 0.0000 0.0000 0.0000
# 4 0.0000 0.0000 0.0000 90.6290 0.0000 0.0000
# 5 0.0000 0.0000 0.0000 0.0000 90.6290 0.0000
# 6 0.0000 0.0000 0.0000 0.0000 0.0000 19.3836
#
#
#
# Elastic Compliance Matrix: (Units=1/GPa)
#
#
# Indices 1 2 3 4 5 6 
#
# 1 0.016348 -0.009447 -0.002886 0.000000 0.000000 0.000000
# 2 -0.009447 0.016348 -0.002886 0.000000 0.000000 0.000000
# 3 -0.002886 -0.002886 0.009668 0.000000 0.000000 0.000000
# 4 0.000000 0.000000 0.000000 0.011034 0.000000 0.000000
# 5 0.000000 0.000000 0.000000 0.000000 0.011034 0.000000
# 6 0.000000 0.000000 0.000000 0.000000 0.000000 0.051590
#
#
# Mechanical properties :
#
#
# Convention : Reuss Voigt Hill
#
# Bulk Modulus (GPa) = 83.82604 83.83132 83.82868
# Shear Modulus (GPa) = 33.23691 51.94614 42.59152
#
# Velocity S-wave (km/s) = 3.88435 4.85606 4.39713
# Velocity P-wave (km/s) = 7.62699 8.33652 7.98964
#
# Compressibility (1/GPa) = 0.01192947
#
# Stress axis : x y z
#
# Youngs Moduli (GPa) = 61.16807 61.16807 103.43162
#
# Poissons Ratio (x) = 0.57783 0.29846
# Poissons Ratio (y) = 0.57783 0.29846
# Poissons Ratio (z) = 0.17650 0.17650
#
# Static dielectric constant tensor:
#      x y z
#    x 1.557520 0.000000 0.000000 
#    y 0.000000 1.557520 0.000000 
#    z 0.000000 0.000000 1.883440 
# 
# From -- ./inp_files/1305.got.cif
#   From: 2010.05.17/outbox.cif.g08.bks.cpg/sg181_1_cif.got.tgz:1305.got - 2010.05.20 11:51:17.
