data_PCOD9584821
_publ_section_title
;
Structure prediction by ZEFSAII (Michael W. Deem and Ramdas Pophale) SiO2 
 PCOD9584821
Probable space group: P 63 2 2
;
_chemical_formula_sum "Si O2"
_cell_formula_units_Z 64
_cell_length_a 14.432387
_cell_length_b 14.432387
_cell_length_c 18.352778
_cell_angle_alpha 90.000000
_cell_angle_beta 90.000000
_cell_angle_gamma 120.000000
_cell_volume 3310.615733
_symmetry_space_group_name_H-M "P 63 2 2"
_symmetry_group_IT_number 182
_symmetry_cell_setting 'hexagonal'
loop_
_space_group_symop_operation_xyz
x,y,z
x-y,x,1/2+z
-y,x-y,z
-x,-y,1/2+z
-x+y,-x,z
y,-x+y,1/2+z
x-y,-y,-z
-x,-x+y,-z
y,x,-z
-y,-x,1/2-z
-x+y,y,1/2-z
x,x-y,1/2-z
loop_
_atom_site_type_symbol
_atom_site_label
_atom_site_fract_x
_atom_site_fract_y
_atom_site_fract_z
Si Si1 0.409366 0.883947 0.668000
Si Si2 0.000000 0.000000 0.838475
Si Si3 0.247975 0.425302 0.610622
Si Si4 0.438552 0.516090 0.071322
Si Si5 0.769718 0.573001 0.941329
Si Si6 0.805527 0.790901 0.911030
O O1 0.436155 0.872310 0.750000
O O2 0.472788 0.839666 0.619211
O O3 0.282740 0.825662 0.656838
O O4 0.462477 0.004421 0.641196
O O5 0.000000 0.000000 0.750000
O O6 0.897252 0.894897 0.871501
O O7 0.211129 0.414171 0.527675
O O8 0.239695 0.310736 0.622719
O O9 0.319618 0.495744 0.078711
O O10 0.518387 0.642591 0.068304
O O11 0.462088 0.462088 0.000000
O O12 0.821260 0.688407 0.903596
O O13 0.806161 0.806161 0.000000
#
# Coordination Sequence:
#
# PCOD9584821 Si02
#       6
#    12   4  12  12  12  12
#     4  12  25  40  63 102 139 176 211 267 345 408
#     4  12  28  44  61  93 130 173 217 267 349 413
#     4  11  21  41  67  97 135 170 215 278 331 387
#     4  12  22  41  66 100 134 171 227 268 331 400
#     4  11  21  40  70  99 128 167 223 282 321 384
#     4  10  23  43  68  93 128 169 228 283 323 387
#
# _framework density 19.331751000000001
#
# number of rings (size 3 to 8) (size 9 to 14) (size 15 to 20)
#    0.000    0.750    5.625    2.438    2.625    1.500 
#    0.000    0.938    0.000    0.000    0.000    0.000 
#    0.000    0.000    0.000    0.000    0.000    0.000 
#
# Total GULP energy -357140.798002 kJ/mol
# GULP energy per Si atom -5580.324969 kJ/mol
# Density = 1.928775 g / cm^3
# Si number density = 19.331751 Si / 1000 Ang^3
#
#
#
# Elastic Constant Matrix: (Units=GPa)
#
#
# Indices 1 2 3 4 5 6 
#
# 1 94.3692 19.7453 24.0102 0.0000 0.0000 0.0000
# 2 19.7453 94.3692 24.0102 0.0000 0.0000 0.0000
# 3 24.0102 24.0102 56.9363 0.0000 0.0000 0.0000
# 4 0.0000 0.0000 0.0000 -173.6028 0.0000 0.0000
# 5 0.0000 0.0000 0.0000 0.0000 -173.6027 0.0000
# 6 0.0000 0.0000 0.0000 0.0000 0.0000 37.3120
#
#
#
# Elastic Compliance Matrix: (Units=1/GPa)
#
#
# Indices 1 2 3 4 5 6 
#
# 1 0.012027 -0.001373 -0.004493 0.000000 0.000000 0.000000
# 2 -0.001373 0.012027 -0.004493 0.000000 0.000000 0.000000
# 3 -0.004493 -0.004493 0.021353 0.000000 0.000000 0.000000
# 4 0.000000 0.000000 0.000000 -0.005760 0.000000 0.000000
# 5 0.000000 0.000000 0.000000 0.000000 -0.005760 0.000000
# 6 0.000000 0.000000 0.000000 0.000000 0.000000 0.026801
#
#
# Mechanical properties :
#
#
# Convention : Reuss Voigt Hill
#
# Bulk Modulus (GPa) = 40.50344 42.35624 41.42984
# Shear Modulus (GPa) = 55.78190 -50.11811 2.83189
#
# Velocity S-wave (km/s) = 5.37752 -5.09721 1.21164
# Velocity P-wave (km/s) = 7.71714 3.56151 4.84096
#
# Compressibility (1/GPa) = 0.02468926
#
# Stress axis : x y z
#
# Youngs Moduli (GPa) = 83.14545 83.14545 46.83254
#
# Poissons Ratio (x) = 0.11419 0.21040
# Poissons Ratio (y) = 0.11419 0.21040
# Poissons Ratio (z) = 0.37355 0.37355
#
# Static dielectric constant tensor:
#      x y z
#    x 1.787390 0.000000 0.000000 
#    y 0.000000 1.787390 0.000000 
#    z 0.000000 0.000000 1.688790 
# 
# From -- ./inp_files/4286.got.cif
#   From: 2010.05.17/outbox.cif.g08.bks.cpg/sg182_3_cif.got.tgz:4286.got - 2010.05.20 11:58:53.
