data_PCOD9584717
_publ_section_title
;
Structure prediction by ZEFSAII (Michael W. Deem and Ramdas Pophale) SiO2 
 PCOD9584717
Probable space group: P 63 2 2
;
_chemical_formula_sum "Si O2"
_cell_formula_units_Z 66
_cell_length_a 21.173037
_cell_length_b 21.173037
_cell_length_c 7.545949
_cell_angle_alpha 90.000000
_cell_angle_beta 90.000000
_cell_angle_gamma 120.000000
_cell_volume 2929.616751
_symmetry_space_group_name_H-M "P 63 2 2"
_symmetry_group_IT_number 182
_symmetry_cell_setting 'hexagonal'
loop_
_space_group_symop_operation_xyz
x,y,z
x-y,x,1/2+z
-y,x-y,z
-x,-y,1/2+z
-x+y,-x,z
y,-x+y,1/2+z
x-y,-y,-z
-x,-x+y,-z
y,x,-z
-y,-x,1/2-z
-x+y,y,1/2-z
x,x-y,1/2-z
loop_
_atom_site_type_symbol
_atom_site_label
_atom_site_fract_x
_atom_site_fract_y
_atom_site_fract_z
Si Si1 0.521072 0.331780 0.708935
Si Si2 0.079667 0.722016 0.301446
Si Si3 0.871868 0.128132 0.250000
Si Si4 0.666817 0.192487 0.294237
Si Si5 0.632452 0.915537 0.729698
Si Si6 0.972913 0.166005 0.704460
O O1 0.585903 0.414098 0.750000
O O2 0.546278 0.273139 0.750000
O O3 0.436943 0.298146 0.774357
O O4 0.512567 0.330985 0.500339
O O5 0.091048 0.733049 0.515940
O O6 0.069434 0.788775 0.235528
O O7 0.999419 0.654859 0.254041
O O8 0.893321 0.207570 0.329941
O O9 0.952926 0.154292 0.177482
O O10 0.724585 0.275416 0.250000
O O11 0.586663 0.173325 0.250000
O O12 0.691229 0.139577 0.207487
O O13 0.916646 0.083355 0.750000
O O14 0.000000 0.175060 0.500000
#
# Coordination Sequence:
#
# PCOD9584717 Si02
#       6
#    12  12   6  12  12  12
#     4  11  23  40  60  86 126 173 215 272 340 409
#     4   9  20  38  61  90 124 163 209 272 324 399
#     4  10  20  38  64  90 124 168 208 266 320 392
#     4  11  22  38  60  89 122 165 221 275 331 410
#     4   9  18  37  63  89 123 161 213 264 337 389
#     4  11  23  40  64  98 132 171 223 272 335 403
#
# _framework density 22.528545000000001
#
# number of rings (size 3 to 8) (size 9 to 14) (size 15 to 20)
#    0.000    1.818    0.909    3.091    0.000    4.364 
#    7.091    0.000    0.000    0.000    0.000    0.000 
#    0.000    0.000    0.000    0.000    0.000    0.000 
#
# Total GULP energy -367796.381919 kJ/mol
# GULP energy per Si atom -5572.672453 kJ/mol
# Density = 2.247727 g / cm^3
# Si number density = 22.528545 Si / 1000 Ang^3
#
#
#
# Elastic Constant Matrix: (Units=GPa)
#
#
# Indices 1 2 3 4 5 6 
#
# 1 148.4318 83.4471 17.6906 0.0000 0.0000 0.0000
# 2 83.4471 148.4318 17.6906 0.0000 0.0000 0.0000
# 3 17.6906 17.6906 68.5604 0.0000 0.0000 0.0000
# 4 0.0000 0.0000 0.0000 12.0377 0.0000 0.0000
# 5 0.0000 0.0000 0.0000 0.0000 12.0377 0.0000
# 6 0.0000 0.0000 0.0000 0.0000 0.0000 32.4923
#
#
#
# Elastic Compliance Matrix: (Units=1/GPa)
#
#
# Indices 1 2 3 4 5 6 
#
# 1 0.009939 -0.005449 -0.001158 0.000000 0.000000 0.000000
# 2 -0.005449 0.009939 -0.001158 0.000000 0.000000 0.000000
# 3 -0.001158 -0.001158 0.015183 0.000000 0.000000 0.000000
# 4 0.000000 0.000000 0.000000 0.083072 0.000000 0.000000
# 5 0.000000 0.000000 0.000000 0.000000 0.083072 0.000000
# 6 0.000000 0.000000 0.000000 0.000000 0.000000 0.030776
#
#
# Mechanical properties :
#
#
# Convention : Reuss Voigt Hill
#
# Bulk Modulus (GPa) = 51.20688 67.00897 59.10793
# Shear Modulus (GPa) = 19.68317 27.75327 23.71822
#
# Velocity S-wave (km/s) = 2.95905 3.51367 3.24822
# Velocity P-wave (km/s) = 5.86973 6.80219 6.35309
#
# Compressibility (1/GPa) = 0.01952863
#
# Stress axis : x y z
#
# Youngs Moduli (GPa) = 100.61584 100.61584 65.86111
#
# Poissons Ratio (x) = 0.54830 0.07629
# Poissons Ratio (y) = 0.54830 0.07629
# Poissons Ratio (z) = 0.11655 0.11655
#
# Static dielectric constant tensor:
#      x y z
#    x 1.821310 0.000000 0.000000 
#    y 0.000000 1.821310 0.000000 
#    z 0.000000 0.000000 1.939770 
# 
# From -- ./inp_files/1817.got.cif
#   From: 2010.05.17/outbox.cif.g08.bks.cpg/sg182_1_cif.got.tgz:1817.got - 2010.05.20 11:58:53.
