data_PCOD9584884
_publ_section_title
;
Structure prediction by ZEFSAII (Michael W. Deem and Ramdas Pophale) SiO2 
 PCOD9584884
Probable space group: P 63 2 2
;
_chemical_formula_sum "Si O2"
_cell_formula_units_Z 46
_cell_length_a 14.009967
_cell_length_b 14.009967
_cell_length_c 11.704207
_cell_angle_alpha 90.000000
_cell_angle_beta 90.000000
_cell_angle_gamma 120.000000
_cell_volume 1989.513317
_symmetry_space_group_name_H-M "P 63 2 2"
_symmetry_group_IT_number 182
_symmetry_cell_setting 'hexagonal'
loop_
_space_group_symop_operation_xyz
x,y,z
x-y,x,1/2+z
-y,x-y,z
-x,-y,1/2+z
-x+y,-x,z
y,-x+y,1/2+z
x-y,-y,-z
-x,-x+y,-z
y,x,-z
-y,-x,1/2-z
-x+y,y,1/2-z
x,x-y,1/2-z
loop_
_atom_site_type_symbol
_atom_site_label
_atom_site_fract_x
_atom_site_fract_y
_atom_site_fract_z
Si Si1 0.876264 0.236338 0.496791
Si Si2 0.462500 0.554422 0.091454
Si Si3 0.333149 0.071254 0.824816
Si Si4 0.666668 0.333334 0.610131
Si Si5 0.340674 0.170337 0.250000
O O1 0.894302 0.341360 0.572701
O O2 0.787300 0.120579 0.550849
O O3 0.839337 0.238864 0.365743
O O4 0.000000 0.254062 0.500000
O O5 0.555058 0.618272 0.189784
O O6 0.429545 0.647265 0.068352
O O7 0.532977 0.532977 0.000000
O O8 0.338354 0.169177 0.750000
O O9 0.228627 0.955632 0.792737
O O10 0.666668 0.333334 0.750000
#
# Coordination Sequence:
#
# PCOD9584884 Si02
#       5
#    12  12  12   4   6
#     4  11  24  46  72 112 152 203 262 326 400 476
#     4  11  25  43  74 109 157 193 257 334 394 468
#     4  12  25  48  78 112 155 207 271 327 399 490
#     4  12  24  42  78 115 137 202 270 312 391 485
#     4  12  26  48  80 110 164 208 262 338 408 476
#
# _framework density 23.121231000000002
#
# number of rings (size 3 to 8) (size 9 to 14) (size 15 to 20)
#    0.000    0.522    5.217    3.130    0.000    0.000 
#    0.783    3.913    0.000    0.000    0.000    0.000 
#    0.000    0.000    0.000    0.000    0.000    0.000 
#
# Total GULP energy -256162.317059 kJ/mol
# GULP energy per Si atom -5568.746023 kJ/mol
# Density = 2.306861 g / cm^3
# Si number density = 23.121231 Si / 1000 Ang^3
#
#
#
# Elastic Constant Matrix: (Units=GPa)
#
#
# Indices 1 2 3 4 5 6 
#
# 1 147.6385 82.6516 40.5814 0.0000 -0.0002 0.0003
# 2 82.6516 147.6387 40.5818 0.0001 0.0002 0.0000
# 3 40.5814 40.5818 152.5760 -0.0001 -0.0003 0.0001
# 4 0.0000 0.0001 -0.0001 70.7205 0.0006 -0.0002
# 5 -0.0002 0.0002 -0.0003 0.0006 70.7192 0.0000
# 6 0.0003 0.0000 0.0001 -0.0002 0.0000 32.4936
#
#
#
# Elastic Compliance Matrix: (Units=1/GPa)
#
#
# Indices 1 2 3 4 5 6 
#
# 1 0.010090 -0.005298 -0.001274 0.000000 0.000000 0.000000
# 2 -0.005298 0.010090 -0.001274 0.000000 0.000000 0.000000
# 3 -0.001274 -0.001274 0.007232 0.000000 0.000000 0.000000
# 4 0.000000 0.000000 0.000000 0.014140 0.000000 0.000000
# 5 0.000000 0.000000 0.000000 0.000000 0.014140 0.000000
# 6 0.000000 0.000000 0.000000 0.000000 0.000000 0.030775
#
#
# Mechanical properties :
#
#
# Convention : Reuss Voigt Hill
#
# Bulk Modulus (GPa) = 85.34357 86.16478 85.75417
# Shear Modulus (GPa) = 47.14009 53.72254 50.43131
#
# Velocity S-wave (km/s) = 4.52023 4.82552 4.67537
# Velocity P-wave (km/s) = 8.01466 8.27012 8.14339
#
# Compressibility (1/GPa) = 0.01171734
#
# Stress axis : x y z
#
# Youngs Moduli (GPa) = 99.11192 99.11195 138.27344
#
# Poissons Ratio (x) = 0.52510 0.17622
# Poissons Ratio (y) = 0.52510 0.17622
# Poissons Ratio (z) = 0.12631 0.12631
#
# Static dielectric constant tensor:
#      x y z
#    x 1.875030 0.000000 0.000000 
#    y 0.000000 1.875020 0.000000 
#    z 0.000000 0.000000 2.009140 
# 
# From -- ./inp_files/2398.got.cif
#   From: 2010.05.17/outbox.cif.g08.bks.cpg/sg182_2_cif.got.tgz:2398.got - 2010.05.20 11:58:53.
