data_PCOD9584753
_publ_section_title
;
Structure prediction by ZEFSAII (Michael W. Deem and Ramdas Pophale) SiO2 
 PCOD9584753
Probable space group: P 63 2 2
;
_chemical_formula_sum "Si O2"
_cell_formula_units_Z 46
_cell_length_a 17.629209
_cell_length_b 17.629209
_cell_length_c 7.910320
_cell_angle_alpha 90.000000
_cell_angle_beta 90.000000
_cell_angle_gamma 120.000000
_cell_volume 2129.071945
_symmetry_space_group_name_H-M "P 63 2 2"
_symmetry_group_IT_number 182
_symmetry_cell_setting 'hexagonal'
loop_
_space_group_symop_operation_xyz
x,y,z
x-y,x,1/2+z
-y,x-y,z
-x,-y,1/2+z
-x+y,-x,z
y,-x+y,1/2+z
x-y,-y,-z
-x,-x+y,-z
y,x,-z
-y,-x,1/2-z
-x+y,y,1/2-z
x,x-y,1/2-z
loop_
_atom_site_type_symbol
_atom_site_label
_atom_site_fract_x
_atom_site_fract_y
_atom_site_fract_z
Si Si1 0.406970 0.000000 0.500000
Si Si2 0.000000 0.194629 0.000000
Si Si3 0.863784 0.406048 0.049805
Si Si4 0.370474 0.098577 0.200510
Si Si5 0.057717 0.115433 0.250000
Si Si6 0.333334 0.666668 0.543948
O O1 0.504751 0.076257 0.550674
O O2 0.377259 0.043377 0.355897
O O3 0.048707 0.272640 0.868675
O O4 0.930231 0.105453 0.907869
O O5 0.866528 0.433264 0.250000
O O6 0.895273 0.335143 0.059395
O O7 0.764331 0.361615 0.990860
O O8 0.395374 0.197687 0.250000
O O9 0.092831 0.046416 0.250000
O O10 0.333334 0.666667 0.750000
#
# Coordination Sequence:
#
# PCOD9584753 Si02
#       6
#     6   6  12  12   6   4
#     4  10  21  38  63  96 142 180 224 290 359 416
#     4  12  25  42  67  98 132 178 234 288 367 426
#     4   9  17  34  58  92 128 174 223 280 341 416
#     4  11  24  39  65  99 138 181 235 293 360 432
#     4  10  24  46  72  90 124 172 234 288 352 434
#     4   9  15  30  60  87 118 164 232 273 328 422
#
# _framework density 21.605658999999999
#
# number of rings (size 3 to 8) (size 9 to 14) (size 15 to 20)
#    0.261    1.565    0.000    6.261    3.652    0.000 
#    0.000    0.000    0.000    0.000    0.000    0.000 
#    0.000    0.000    0.000    0.000    0.000    0.000 
#
# Total GULP energy -256755.404096 kJ/mol
# GULP energy per Si atom -5581.639219 kJ/mol
# Density = 2.155648 g / cm^3
# Si number density = 21.605659 Si / 1000 Ang^3
#
#
#
# Elastic Constant Matrix: (Units=GPa)
#
#
# Indices 1 2 3 4 5 6 
#
# 1 106.3071 105.8074 52.3721 0.0000 -0.0002 0.0003
# 2 105.8074 106.3077 52.3721 0.0001 0.0002 0.0001
# 3 52.3721 52.3721 66.1679 0.0000 0.0000 -0.0001
# 4 0.0000 0.0001 0.0000 26.5681 0.0000 -0.0002
# 5 -0.0002 0.0002 0.0000 0.0000 26.5685 0.0001
# 6 0.0003 0.0001 -0.0001 -0.0002 0.0001 0.2483
#
#
#
# Elastic Compliance Matrix: (Units=1/GPa)
#
#
# Indices 1 2 3 4 5 6 
#
# 1 1.003948 -0.996204 -0.006130 0.000005 0.000016 -0.000744
# 2 -0.996204 1.003938 -0.006121 -0.000005 -0.000016 0.000724
# 3 -0.006130 -0.006121 0.024810 0.000000 0.000000 0.000023
# 4 0.000005 -0.000005 0.000000 0.037639 0.000000 0.000032
# 5 0.000016 -0.000016 0.000000 0.000000 0.037639 -0.000010
# 6 -0.000744 0.000724 0.000023 0.000032 -0.000010 4.026615
#
#
# Mechanical properties :
#
#
# Convention : Reuss Voigt Hill
#
# Bulk Modulus (GPa) = 63.34747 77.76509 70.55628
# Shear Modulus (GPa) = 0.61299 15.22574 7.91936
#
# Velocity S-wave (km/s) = 0.53323 2.65752 1.91660
# Velocity P-wave (km/s) = 5.45551 6.74445 6.13393
#
# Compressibility (1/GPa) = 0.01578595
#
# Stress axis : x y z
#
# Youngs Moduli (GPa) = 0.99607 0.99608 40.30607
#
# Poissons Ratio (x) = 0.99230 0.24708
# Poissons Ratio (y) = 0.99229 0.24673
# Poissons Ratio (z) = 0.00611 0.00610
#
# Static dielectric constant tensor:
#      x y z
#    x 1.796890 0.000000 0.000000 
#    y 0.000000 1.796890 0.000000 
#    z 0.000000 0.000000 2.541140 
# 
# From -- ./inp_files/1555.got.cif
#   From: 2010.05.17/outbox.cif.g08.bks.cpg/sg182_1_cif.got.tgz:1555.got - 2010.05.20 11:58:53.
