data_PCOD9584577
_publ_section_title
;
Structure prediction by ZEFSAII (Michael W. Deem and Ramdas Pophale) SiO2 
 PCOD9584577
Probable space group: P 64 2 2
;
_chemical_formula_sum "Si O2"
_cell_formula_units_Z 48
_cell_length_a 9.639002
_cell_length_b 9.639002
_cell_length_c 25.819588
_cell_angle_alpha 90.000000
_cell_angle_beta 90.000000
_cell_angle_gamma 120.000000
_cell_volume 2077.514581
_symmetry_space_group_name_H-M "P 64 2 2"
_symmetry_group_IT_number 181
_symmetry_cell_setting 'hexagonal'
loop_
_space_group_symop_operation_xyz
x,y,z
x-y,x,2/3+z
-y,x-y,1/3+z
-x,-y,z
-x+y,-x,2/3+z
y,-x+y,1/3+z
x-y,-y,-z
-x,-x+y,2/3-z
y,x,1/3-z
-y,-x,1/3-z
-x+y,y,-z
x,x-y,2/3-z
loop_
_atom_site_type_symbol
_atom_site_label
_atom_site_fract_x
_atom_site_fract_y
_atom_site_fract_z
Si Si1 0.346499 0.216198 0.125309
Si Si2 0.616611 0.937421 0.802124
Si Si3 0.576349 0.394547 0.292078
Si Si4 0.099839 0.229764 0.059507
O O1 0.337347 0.337347 0.166667
O O2 0.182956 0.151309 0.092530
O O3 0.339094 0.072158 0.157114
O O4 0.495913 0.306088 0.086508
O O5 0.542118 0.771059 0.833334
O O6 0.500000 0.000000 0.784364
O O7 0.727133 0.947281 0.753854
O O8 0.500000 0.500000 0.314777
O O9 0.651412 0.325706 0.333334
O O10 0.419486 0.183888 0.394787
O O11 0.091615 0.183230 0.000000
#
# Coordination Sequence:
#
# PCOD9584577 Si02
#       4
#    12  12  12  12
#     4   9  20  39  64  93 126 172 225 271 333 408
#     4  11  26  44  65  95 135 175 221 276 354 412
#     4   9  18  34  61  99 133 175 229 274 336 406
#     4   9  20  39  69  94 124 173 226 275 319 405
#
# _framework density 23.10453
#
# number of rings (size 3 to 8) (size 9 to 14) (size 15 to 20)
#    0.000    2.500    0.000    0.000    3.500   23.000 
#    0.000    2.500    0.000    0.000    0.000    0.000 
#    0.000    0.000    0.000    0.000    0.000    0.000 
#
# Total GULP energy -268199.497965 kJ/mol
# GULP energy per Si atom -5587.489541 kJ/mol
# Density = 2.305194 g / cm^3
# Si number density = 23.104530 Si / 1000 Ang^3
#
#
#
# Elastic Constant Matrix: (Units=GPa)
#
#
# Indices 1 2 3 4 5 6 
#
# 1 75.5420 13.5466 32.9237 0.0000 0.0000 0.0000
# 2 13.5466 75.5420 32.9237 0.0000 0.0000 0.0000
# 3 32.9237 32.9237 146.1660 0.0000 0.0000 0.0000
# 4 0.0000 0.0000 0.0000 12.2219 0.0000 0.0000
# 5 0.0000 0.0000 0.0000 0.0000 12.2219 0.0000
# 6 0.0000 0.0000 0.0000 0.0000 0.0000 30.9977
#
#
#
# Elastic Compliance Matrix: (Units=1/GPa)
#
#
# Indices 1 2 3 4 5 6 
#
# 1 0.014799 -0.001332 -0.003033 0.000000 0.000000 0.000000
# 2 -0.001332 0.014799 -0.003033 0.000000 0.000000 0.000000
# 3 -0.003033 -0.003033 0.008208 0.000000 0.000000 0.000000
# 4 0.000000 0.000000 0.000000 0.081820 0.000000 0.000000
# 5 0.000000 0.000000 0.000000 0.000000 0.081820 0.000000
# 6 0.000000 0.000000 0.000000 0.000000 0.000000 0.032260
#
#
# Mechanical properties :
#
#
# Convention : Reuss Voigt Hill
#
# Bulk Modulus (GPa) = 43.46283 50.67090 47.06687
# Shear Modulus (GPa) = 19.51812 25.61205 22.56509
#
# Velocity S-wave (km/s) = 2.90965 3.33307 3.12853
# Velocity P-wave (km/s) = 5.49002 6.06558 5.78496
#
# Compressibility (1/GPa) = 0.02300817
#
# Stress axis : x y z
#
# Youngs Moduli (GPa) = 67.57432 67.57432 121.83140
#
# Poissons Ratio (x) = 0.08999 0.36956
# Poissons Ratio (y) = 0.08999 0.36956
# Poissons Ratio (z) = 0.20498 0.20498
#
# Static dielectric constant tensor:
#      x y z
#    x 1.900670 0.000000 0.000000 
#    y 0.000000 1.900670 0.000000 
#    z 0.000000 0.000000 1.917670 
# 
# From -- ./inp_files/9827.got.cif
#   From: 2010.05.17/outbox.cif.g08.bks.cpg/sg181_5_cif.got.tgz:9827.got - 2010.05.20 11:51:17.
