data_PCOD9584493
_publ_section_title
;
Structure prediction by ZEFSAII (Michael W. Deem and Ramdas Pophale) SiO2 
 PCOD9584493
Probable space group: P 64 2 2
;
_chemical_formula_sum "Si O2"
_cell_formula_units_Z 45
_cell_length_a 14.840681
_cell_length_b 14.840681
_cell_length_c 11.298908
_cell_angle_alpha 90.000000
_cell_angle_beta 90.000000
_cell_angle_gamma 120.000000
_cell_volume 2155.136410
_symmetry_space_group_name_H-M "P 64 2 2"
_symmetry_group_IT_number 181
_symmetry_cell_setting 'hexagonal'
loop_
_space_group_symop_operation_xyz
x,y,z
x-y,x,2/3+z
-y,x-y,1/3+z
-x,-y,z
-x+y,-x,2/3+z
y,-x+y,1/3+z
x-y,-y,-z
-x,-x+y,2/3-z
y,x,1/3-z
-y,-x,1/3-z
-x+y,y,-z
x,x-y,2/3-z
loop_
_atom_site_type_symbol
_atom_site_label
_atom_site_fract_x
_atom_site_fract_y
_atom_site_fract_z
Si Si1 0.982142 0.594771 0.473324
Si Si2 0.165708 0.000000 0.000000
Si Si3 0.500000 0.500000 0.166667
Si Si4 0.172265 0.827736 0.166667
Si Si5 0.000000 0.177125 0.833334
Si Si6 0.710862 0.608196 0.017841
O O1 0.874271 0.580299 0.522982
O O2 0.000000 0.500000 0.501564
O O3 0.000000 0.611590 0.333334
O O4 0.061117 0.691701 0.550864
O O5 0.176004 0.909953 0.070190
O O6 0.149087 0.073134 0.092875
O O7 0.603008 0.538272 0.086214
O O8 0.061723 0.280364 0.916514
O O9 0.775040 0.550080 0.000000
#
# Coordination Sequence:
#
# PCOD9584493 Si02
#       6
#    12   6   3   6   6  12
#     4  11  24  45  73 105 140 188 251 313 370 443
#     4  12  26  43  65 104 150 196 243 304 368 463
#     4  10  24  44  74 100 142 186 246 302 368 436
#     4  12  24  43  69 102 146 195 242 305 386 442
#     4  11  26  42  65 106 144 196 243 299 373 453
#     4  11  23  46  72 101 143 192 240 301 375 451
#
# _framework density 20.880348999999999
#
# number of rings (size 3 to 8) (size 9 to 14) (size 15 to 20)
#    0.000    0.800    5.333    1.600    0.000    1.600 
#    0.000    1.333    0.000    0.000    0.000    0.000 
#    0.000    0.000    0.000    0.000    0.000    0.000 
#
# Total GULP energy -250780.461013 kJ/mol
# GULP energy per Si atom -5572.899134 kJ/mol
# Density = 2.083282 g / cm^3
# Si number density = 20.880349 Si / 1000 Ang^3
#
#
#
# Elastic Constant Matrix: (Units=GPa)
#
#
# Indices 1 2 3 4 5 6 
#
# 1 120.3023 94.4713 48.8256 0.0000 0.0000 0.0000
# 2 94.4713 120.3023 48.8256 0.0000 0.0000 0.0000
# 3 48.8256 48.8256 119.0390 0.0000 0.0000 0.0000
# 4 0.0000 0.0000 0.0000 17.9432 0.0000 0.0000
# 5 0.0000 0.0000 0.0000 0.0000 17.9432 0.0000
# 6 0.0000 0.0000 0.0000 0.0000 0.0000 12.9155
#
#
#
# Elastic Compliance Matrix: (Units=1/GPa)
#
#
# Indices 1 2 3 4 5 6 
#
# 1 0.022218 -0.016495 -0.002348 0.000000 0.000000 0.000000
# 2 -0.016495 0.022218 -0.002348 0.000000 0.000000 0.000000
# 3 -0.002348 -0.002348 0.010326 0.000000 0.000000 0.000000
# 4 0.000000 0.000000 0.000000 0.055731 0.000000 0.000000
# 5 0.000000 0.000000 0.000000 0.000000 0.055731 0.000000
# 6 0.000000 0.000000 0.000000 0.000000 0.000000 0.077426
#
#
# Mechanical properties :
#
#
# Convention : Reuss Voigt Hill
#
# Bulk Modulus (GPa) = 80.75569 82.65431 81.70500
# Shear Modulus (GPa) = 17.23192 20.92846 19.08019
#
# Velocity S-wave (km/s) = 2.87587 3.16935 3.02617
# Velocity P-wave (km/s) = 7.05598 7.28449 7.17114
#
# Compressibility (1/GPa) = 0.01238303
#
# Stress axis : x y z
#
# Youngs Moduli (GPa) = 45.00808 45.00808 96.83941
#
# Poissons Ratio (x) = 0.74240 0.22734
# Poissons Ratio (y) = 0.74240 0.22734
# Poissons Ratio (z) = 0.10566 0.10566
#
# Static dielectric constant tensor:
#      x y z
#    x 1.831720 0.000000 0.000000 
#    y 0.000000 1.831720 0.000000 
#    z 0.000000 0.000000 1.882320 
# 
# From -- ./inp_files/4494.got.cif
#   From: 2010.05.17/outbox.cif.g08.bks.cpg/sg181_3_cif.got.tgz:4494.got - 2010.05.20 11:51:17.
