data_PCOD9584353
_publ_section_title
;
Structure prediction by ZEFSAII (Michael W. Deem and Ramdas Pophale) SiO2 
 PCOD9584353
Probable space group: P 64 2 2
;
_chemical_formula_sum "Si O2"
_cell_formula_units_Z 60
_cell_length_a 15.738658
_cell_length_b 15.738658
_cell_length_c 13.077060
_cell_angle_alpha 90.000000
_cell_angle_beta 90.000000
_cell_angle_gamma 120.000000
_cell_volume 2805.279543
_symmetry_space_group_name_H-M "P 64 2 2"
_symmetry_group_IT_number 181
_symmetry_cell_setting 'hexagonal'
loop_
_space_group_symop_operation_xyz
x,y,z
x-y,x,2/3+z
-y,x-y,1/3+z
-x,-y,z
-x+y,-x,2/3+z
y,-x+y,1/3+z
x-y,-y,-z
-x,-x+y,2/3-z
y,x,1/3-z
-y,-x,1/3-z
-x+y,y,-z
x,x-y,2/3-z
loop_
_atom_site_type_symbol
_atom_site_label
_atom_site_fract_x
_atom_site_fract_y
_atom_site_fract_z
Si Si1 0.677981 0.259937 0.392634
Si Si2 0.079472 0.474810 0.001829
Si Si3 0.346304 0.182390 0.608794
Si Si4 0.376556 0.994701 0.116534
Si Si5 0.187267 0.812734 0.166667
Si Si6 0.305246 0.305246 0.166667
O O1 0.636118 0.272236 0.500000
O O2 0.724761 0.362381 0.333334
O O3 0.575824 0.181893 0.337567
O O4 0.755769 0.221143 0.398415
O O5 0.050976 0.444302 0.119938
O O6 0.000000 0.500000 0.959704
O O7 0.057619 0.386622 0.923816
O O8 0.324583 0.264771 0.567845
O O9 0.319806 0.155708 0.726731
O O10 0.292363 0.084169 0.547982
O O11 0.305401 0.881559 0.151289
O O12 0.414665 0.000000 0.000000
#
# Coordination Sequence:
#
# PCOD9584353 Si02
#       6
#    12  12  12  12   6   6
#     4  12  24  38  56  88 129 174 218 276 324 375
#     4  12  21  39  61  87 122 169 216 272 323 377
#     4  11  23  41  63  91 126 167 217 264 329 400
#     4  10  23  41  65  91 122 165 218 269 330 408
#     4  10  20  44  64  89 122 166 205 270 336 390
#     4  12  21  38  64  91 120 164 216 267 324 386
#
# _framework density 21.388242999999999
#
# number of rings (size 3 to 8) (size 9 to 14) (size 15 to 20)
#    0.000    0.800    6.000    1.500    1.400    0.400 
#    7.200    0.000    0.000    0.600    0.000    4.200 
#    0.000    0.000    0.000    0.000    0.000    0.000 
#
# Total GULP energy -334235.860819 kJ/mol
# GULP energy per Si atom -5570.597680 kJ/mol
# Density = 2.133956 g / cm^3
# Si number density = 21.388243 Si / 1000 Ang^3
#
#
#
# Elastic Constant Matrix: (Units=GPa)
#
#
# Indices 1 2 3 4 5 6 
#
# 1 58.0324 40.9533 16.1850 0.0000 0.0000 0.0000
# 2 40.9533 58.0324 16.1850 0.0000 0.0000 0.0000
# 3 16.1850 16.1850 130.1015 0.0000 0.0000 0.0000
# 4 0.0000 0.0000 0.0000 44.4784 0.0000 0.0000
# 5 0.0000 0.0000 0.0000 0.0000 44.4784 0.0000
# 6 0.0000 0.0000 0.0000 0.0000 0.0000 8.5395
#
#
#
# Elastic Compliance Matrix: (Units=1/GPa)
#
#
# Indices 1 2 3 4 5 6 
#
# 1 0.034541 -0.024010 -0.001310 0.000000 0.000000 0.000000
# 2 -0.024010 0.034541 -0.001310 0.000000 0.000000 0.000000
# 3 -0.001310 -0.001310 0.008012 0.000000 0.000000 0.000000
# 4 0.000000 0.000000 0.000000 0.022483 0.000000 0.000000
# 5 0.000000 0.000000 0.000000 0.000000 0.022483 0.000000
# 6 0.000000 0.000000 0.000000 0.000000 0.000000 0.117102
#
#
# Mechanical properties :
#
#
# Convention : Reuss Voigt Hill
#
# Bulk Modulus (GPa) = 41.95733 43.64588 42.80160
# Shear Modulus (GPa) = 16.64628 31.02213 23.83421
#
# Velocity S-wave (km/s) = 2.79281 3.81258 3.34182
# Velocity P-wave (km/s) = 5.48264 6.31125 5.91148
#
# Compressibility (1/GPa) = 0.02383374
#
# Stress axis : x y z
#
# Youngs Moduli (GPa) = 28.95109 28.95109 124.80877
#
# Poissons Ratio (x) = 0.69512 0.16351
# Poissons Ratio (y) = 0.69512 0.16351
# Poissons Ratio (z) = 0.03793 0.03793
#
# Static dielectric constant tensor:
#      x y z
#    x 1.868200 0.000000 0.000000 
#    y 0.000000 1.868200 0.000000 
#    z 0.000000 0.000000 1.820630 
# 
# From -- ./inp_files/4894.got.cif
#   From: 2010.05.17/outbox.cif.g08.bks.cpg/sg181_3_cif.got.tgz:4894.got - 2010.05.20 11:51:17.
