data_PCOD9584445
_publ_section_title
;
Structure prediction by ZEFSAII (Michael W. Deem and Ramdas Pophale) SiO2 
 PCOD9584445
Probable space group: P 64 2 2
;
_chemical_formula_sum "Si O2"
_cell_formula_units_Z 57
_cell_length_a 14.918253
_cell_length_b 14.918253
_cell_length_c 14.163219
_cell_angle_alpha 90.000000
_cell_angle_beta 90.000000
_cell_angle_gamma 120.000000
_cell_volume 2729.785600
_symmetry_space_group_name_H-M "P 64 2 2"
_symmetry_group_IT_number 181
_symmetry_cell_setting 'hexagonal'
loop_
_space_group_symop_operation_xyz
x,y,z
x-y,x,2/3+z
-y,x-y,1/3+z
-x,-y,z
-x+y,-x,2/3+z
y,-x+y,1/3+z
x-y,-y,-z
-x,-x+y,2/3-z
y,x,1/3-z
-y,-x,1/3-z
-x+y,y,-z
x,x-y,2/3-z
loop_
_atom_site_type_symbol
_atom_site_label
_atom_site_fract_x
_atom_site_fract_y
_atom_site_fract_z
Si Si1 0.500000 0.500000 0.166667
Si Si2 0.361088 0.722176 0.000000
Si Si3 0.169785 0.425069 0.213620
Si Si4 0.377300 0.188650 0.333334
Si Si5 0.728184 0.456368 0.500000
Si Si6 0.640605 0.954996 0.632491
Si Si7 0.043956 0.622404 0.178648
O O1 0.597143 0.545475 0.237373
O O2 0.316461 0.779095 0.931278
O O3 0.389398 0.661910 0.922193
O O4 0.189436 0.432332 0.099584
O O5 0.212808 0.355604 0.259331
O O6 0.046572 0.367940 0.226966
O O7 0.320924 0.253894 0.300195
O O8 0.684433 0.524000 0.548094
O O9 0.605411 0.941258 0.739676
O O10 0.000000 0.500000 0.179002
#
# Coordination Sequence:
#
# PCOD9584445 Si02
#       7
#     3   6  12   6   6  12  12
#     4  12  20  34  60  84 136 160 208 258 328 396
#     4  12  26  42  62  89 136 169 228 271 329 408
#     4  11  23  41  65  94 130 177 219 278 337 405
#     4  10  22  41  68  91 125 171 223 275 342 398
#     4  12  26  45  62  92 132 184 226 271 338 408
#     4  11  22  40  61  95 128 172 216 275 334 400
#     4  11  23  42  62  92 132 174 224 271 328 407
#
# _framework density 20.880761
#
# number of rings (size 3 to 8) (size 9 to 14) (size 15 to 20)
#    0.000    0.842    7.368    0.000    0.000    3.368 
#    0.000    0.000    0.000    0.000    0.000   17.684 
#    0.000    0.000    0.000    0.000    0.000    0.000 
#
# Total GULP energy -317430.547909 kJ/mol
# GULP energy per Si atom -5568.956981 kJ/mol
# Density = 2.083324 g / cm^3
# Si number density = 20.880761 Si / 1000 Ang^3
#
#
#
# Elastic Constant Matrix: (Units=GPa)
#
#
# Indices 1 2 3 4 5 6 
#
# 1 101.1691 85.7371 49.3446 0.0000 0.0000 0.0000
# 2 85.7371 101.1691 49.3446 0.0000 0.0000 0.0000
# 3 49.3446 49.3446 113.8485 0.0000 0.0000 0.0000
# 4 0.0000 0.0000 0.0000 30.3215 0.0000 0.0000
# 5 0.0000 0.0000 0.0000 0.0000 30.3215 0.0000
# 6 0.0000 0.0000 0.0000 0.0000 0.0000 7.7160
#
#
#
# Elastic Compliance Matrix: (Units=1/GPa)
#
#
# Indices 1 2 3 4 5 6 
#
# 1 0.035869 -0.028931 -0.003007 0.000000 0.000000 0.000000
# 2 -0.028931 0.035869 -0.003007 0.000000 0.000000 0.000000
# 3 -0.003007 -0.003007 0.011390 0.000000 0.000000 0.000000
# 4 0.000000 0.000000 0.000000 0.032980 0.000000 0.000000
# 5 0.000000 0.000000 0.000000 0.000000 0.032980 0.000000
# 6 0.000000 0.000000 0.000000 0.000000 0.000000 0.129601
#
#
# Mechanical properties :
#
#
# Convention : Reuss Voigt Hill
#
# Bulk Modulus (GPa) = 75.54026 76.11550 75.82788
# Shear Modulus (GPa) = 14.16460 22.45582 18.31021
#
# Velocity S-wave (km/s) = 2.60735 3.28293 2.96445
# Velocity P-wave (km/s) = 6.73201 7.13455 6.93620
#
# Compressibility (1/GPa) = 0.01323797
#
# Stress axis : x y z
#
# Youngs Moduli (GPa) = 27.87907 27.87907 87.79383
#
# Poissons Ratio (x) = 0.80657 0.26401
# Poissons Ratio (y) = 0.80657 0.26401
# Poissons Ratio (z) = 0.08384 0.08384
#
# Static dielectric constant tensor:
#      x y z
#    x 1.850820 0.000000 0.000000 
#    y 0.000000 1.850820 0.000000 
#    z 0.000000 0.000000 1.729600 
# 
# From -- ./inp_files/6262.got.cif
#   From: 2010.05.17/outbox.cif.g08.bks.cpg/sg181_4_cif.got.tgz:6262.got - 2010.05.20 11:51:17.
