data_PCOD9584451
_publ_section_title
;
Structure prediction by ZEFSAII (Michael W. Deem and Ramdas Pophale) SiO2 
 PCOD9584451
Probable space group: P 64 2 2
;
_chemical_formula_sum "Si O2"
_cell_formula_units_Z 48
_cell_length_a 14.920561
_cell_length_b 14.920561
_cell_length_c 12.206942
_cell_angle_alpha 90.000000
_cell_angle_beta 90.000000
_cell_angle_gamma 120.000000
_cell_volume 2353.465400
_symmetry_space_group_name_H-M "P 64 2 2"
_symmetry_group_IT_number 181
_symmetry_cell_setting 'hexagonal'
loop_
_space_group_symop_operation_xyz
x,y,z
x-y,x,2/3+z
-y,x-y,1/3+z
-x,-y,z
-x+y,-x,2/3+z
y,-x+y,1/3+z
x-y,-y,-z
-x,-x+y,2/3-z
y,x,1/3-z
-y,-x,1/3-z
-x+y,y,-z
x,x-y,2/3-z
loop_
_atom_site_type_symbol
_atom_site_label
_atom_site_fract_x
_atom_site_fract_y
_atom_site_fract_z
Si Si1 0.616906 0.697430 0.573056
Si Si2 0.541922 0.269384 0.701855
Si Si3 0.388784 0.412423 0.346765
Si Si4 0.282465 0.191378 0.227411
O O1 0.688479 0.688479 0.666667
O O2 0.513760 0.677189 0.636550
O O3 0.603830 0.621447 0.472094
O O4 0.660910 0.809206 0.516142
O O5 0.663086 0.336915 0.666667
O O6 0.539369 0.269685 0.833334
O O7 0.470412 0.147896 0.674081
O O8 0.500000 0.500000 0.309173
O O9 0.348849 0.308926 0.274454
O O10 0.187645 0.187645 0.166667
O O11 0.245678 0.122839 0.333334
#
# Coordination Sequence:
#
# PCOD9584451 Si02
#       4
#    12  12  12  12
#     4  11  23  42  70  97 135 187 241 288 358 426
#     4  12  25  42  67 103 139 186 243 292 350 435
#     4  11  24  42  67  97 143 187 233 295 360 423
#     4  10  22  43  68 101 133 182 236 286 358 427
#
# _framework density 20.395457
#
# number of rings (size 3 to 8) (size 9 to 14) (size 15 to 20)
#    0.000    1.000    5.000    1.500    0.000    5.500 
#    0.000    0.000    0.000    2.250    0.000    0.000 
#    0.000    0.000    0.000    0.000    0.000    0.000 
#
# Total GULP energy -267632.322282 kJ/mol
# GULP energy per Si atom -5575.673381 kJ/mol
# Density = 2.034904 g / cm^3
# Si number density = 20.395457 Si / 1000 Ang^3
#
#
#
# Elastic Constant Matrix: (Units=GPa)
#
#
# Indices 1 2 3 4 5 6 
#
# 1 112.3384 64.8905 49.2156 0.0000 0.0000 0.0000
# 2 64.8905 112.3384 49.2156 0.0000 0.0000 0.0000
# 3 49.2156 49.2156 136.3679 0.0000 0.0000 0.0000
# 4 0.0000 0.0000 0.0000 17.3441 0.0000 0.0000
# 5 0.0000 0.0000 0.0000 0.0000 17.3441 0.0000
# 6 0.0000 0.0000 0.0000 0.0000 0.0000 23.7240
#
#
#
# Elastic Compliance Matrix: (Units=1/GPa)
#
#
# Indices 1 2 3 4 5 6 
#
# 1 0.014066 -0.007009 -0.002547 0.000000 0.000000 0.000000
# 2 -0.007009 0.014066 -0.002547 0.000000 0.000000 0.000000
# 3 -0.002547 -0.002547 0.009171 0.000000 0.000000 0.000000
# 4 0.000000 0.000000 0.000000 0.057657 0.000000 0.000000
# 5 0.000000 0.000000 0.000000 0.000000 0.057657 0.000000
# 6 0.000000 0.000000 0.000000 0.000000 0.000000 0.042151
#
#
# Mechanical properties :
#
#
# Convention : Reuss Voigt Hill
#
# Bulk Modulus (GPa) = 76.34851 76.40979 76.37915
# Shear Modulus (GPa) = 22.38728 24.86395 23.62562
#
# Velocity S-wave (km/s) = 3.31669 3.49534 3.40719
# Velocity P-wave (km/s) = 7.22375 7.33725 7.28072
#
# Compressibility (1/GPa) = 0.01309783
#
# Stress axis : x y z
#
# Youngs Moduli (GPa) = 71.09172 71.09172 109.03400
#
# Poissons Ratio (x) = 0.49831 0.27770
# Poissons Ratio (y) = 0.49831 0.27770
# Poissons Ratio (z) = 0.18106 0.18106
#
# Static dielectric constant tensor:
#      x y z
#    x 1.763320 0.000000 0.000000 
#    y 0.000000 1.763320 0.000000 
#    z 0.000000 0.000000 1.753110 
# 
# From -- ./inp_files/4335.got.cif
#   From: 2010.05.17/outbox.cif.g08.bks.cpg/sg181_3_cif.got.tgz:4335.got - 2010.05.20 11:51:17.
