data_PCOD9584687
_publ_section_title
;
Structure prediction by ZEFSAII (Michael W. Deem and Ramdas Pophale) SiO2 
 PCOD9584687
Probable space group: P 63 2 2
;
_chemical_formula_sum "Si O2"
_cell_formula_units_Z 36
_cell_length_a 20.190371
_cell_length_b 20.190371
_cell_length_c 5.578111
_cell_angle_alpha 90.000000
_cell_angle_beta 90.000000
_cell_angle_gamma 120.000000
_cell_volume 1969.275067
_symmetry_space_group_name_H-M "P 63 2 2"
_symmetry_group_IT_number 182
_symmetry_cell_setting 'hexagonal'
loop_
_space_group_symop_operation_xyz
x,y,z
x-y,x,1/2+z
-y,x-y,z
-x,-y,1/2+z
-x+y,-x,z
y,-x+y,1/2+z
x-y,-y,-z
-x,-x+y,-z
y,x,-z
-y,-x,1/2-z
-x+y,y,1/2-z
x,x-y,1/2-z
loop_
_atom_site_type_symbol
_atom_site_label
_atom_site_fract_x
_atom_site_fract_y
_atom_site_fract_z
Si Si1 0.875178 0.258670 0.146272
Si Si2 0.723638 0.861819 0.250000
Si Si3 0.257198 0.000000 0.500000
Si Si4 0.422256 0.908265 0.999961
O O1 0.788963 0.211038 0.250000
O O2 0.942775 0.274098 0.337451
O O3 0.871046 0.198115 0.954085
O O4 0.892253 0.336350 0.020605
O O5 0.764720 0.819227 0.355785
O O6 0.439801 0.879601 0.250000
O O7 0.439588 0.879176 0.750000
O O8 0.477826 0.000000 0.000000
#
# Coordination Sequence:
#
# PCOD9584687 Si02
#       4
#    12   6   6  12
#     4  10  22  36  59  85 124 155 195 249 307 364
#     4  10  20  34  56  84 122 154 196 248 310 368
#     4  10  20  34  56  86 122 156 194 250 312 374
#     4  10  22  35  56  86 118 155 195 247 300 355
#
# _framework density 18.280836999999998
#
# number of rings (size 3 to 8) (size 9 to 14) (size 15 to 20)
#    0.000    2.000    0.000    3.000   16.333    0.000 
#    0.000    0.000    0.000    0.667    4.333    0.000 
#  525.000    0.000    0.000    0.000    0.000    0.000 
#
# Total GULP energy -200462.753677 kJ/mol
# GULP energy per Si atom -5568.409824 kJ/mol
# Density = 1.823923 g / cm^3
# Si number density = 18.280837 Si / 1000 Ang^3
#
#
#
# Elastic Constant Matrix: (Units=GPa)
#
#
# Indices 1 2 3 4 5 6 
#
# 1 219.9365 -137.0380 35.6750 0.0000 0.0000 0.0000
# 2 -137.0380 219.9365 35.6750 0.0000 0.0000 0.0000
# 3 35.6750 35.6750 103.1387 0.0000 0.0000 0.0000
# 4 0.0000 0.0000 0.0000 21.3922 0.0000 0.0000
# 5 0.0000 0.0000 0.0000 0.0000 21.3922 0.0000
# 6 0.0000 0.0000 0.0000 0.0000 0.0000 178.4872
#
#
#
# Elastic Compliance Matrix: (Units=1/GPa)
#
#
# Indices 1 2 3 4 5 6 
#
# 1 0.009989 0.007188 -0.005941 0.000000 0.000000 0.000000
# 2 0.007188 0.009989 -0.005941 0.000000 0.000000 0.000000
# 3 -0.005941 -0.005941 0.013806 0.000000 0.000000 0.000000
# 4 0.000000 0.000000 0.000000 0.046746 0.000000 0.000000
# 5 0.000000 0.000000 0.000000 0.000000 0.046746 0.000000
# 6 0.000000 0.000000 0.000000 0.000000 0.000000 0.005603
#
#
# Mechanical properties :
#
#
# Convention : Reuss Voigt Hill
#
# Bulk Modulus (GPa) = 40.99398 45.73729 43.36564
# Shear Modulus (GPa) = 33.24486 84.83432 59.03959
#
# Velocity S-wave (km/s) = 4.26909 6.81960 5.68911
# Velocity P-wave (km/s) = 6.83911 9.33181 8.18096
#
# Compressibility (1/GPa) = 0.02439382
#
# Stress axis : x y z
#
# Youngs Moduli (GPa) = 100.11093 100.11093 72.43361
#
# Poissons Ratio (x) = -0.71956 0.43035
# Poissons Ratio (y) = -0.71956 0.43035
# Poissons Ratio (z) = 0.59478 0.59478
#
# Static dielectric constant tensor:
#      x y z
#    x 1.627570 0.000000 0.000000 
#    y 0.000000 1.627570 0.000000 
#    z 0.000000 0.000000 1.769980 
# 
# From -- ./inp_files/304.got.cif
#   From: 2010.05.17/outbox.cif.g08.bks.cpg/sg182_1_cif.got.tgz:304.got - 2010.05.20 11:58:53.
