data_PCOD9584333
_publ_section_title
;
Structure prediction by ZEFSAII (Michael W. Deem and Ramdas Pophale) SiO2 
 PCOD9584333
Probable space group: P 64 2 2
;
_chemical_formula_sum "Si O2"
_cell_formula_units_Z 48
_cell_length_a 13.790103
_cell_length_b 13.790103
_cell_length_c 15.155484
_cell_angle_alpha 90.000000
_cell_angle_beta 90.000000
_cell_angle_gamma 120.000000
_cell_volume 2495.947592
_symmetry_space_group_name_H-M "P 64 2 2"
_symmetry_group_IT_number 181
_symmetry_cell_setting 'hexagonal'
loop_
_space_group_symop_operation_xyz
x,y,z
x-y,x,2/3+z
-y,x-y,1/3+z
-x,-y,z
-x+y,-x,2/3+z
y,-x+y,1/3+z
x-y,-y,-z
-x,-x+y,2/3-z
y,x,1/3-z
-y,-x,1/3-z
-x+y,y,-z
x,x-y,2/3-z
loop_
_atom_site_type_symbol
_atom_site_label
_atom_site_fract_x
_atom_site_fract_y
_atom_site_fract_z
Si Si1 0.000000 0.500000 0.642061
Si Si2 0.324989 0.430675 0.511270
Si Si3 0.231063 0.198659 0.429938
Si Si4 0.657662 0.717246 0.259491
Si Si5 0.000000 0.000000 0.500000
Si Si6 0.500000 0.000000 0.000000
O O1 0.923096 0.520016 0.574259
O O2 0.934651 0.387230 0.699720
O O3 0.232914 0.465828 0.500000
O O4 0.261942 0.295211 0.501128
O O5 0.397045 0.470038 0.600368
O O6 0.243617 0.251196 0.332278
O O7 0.330197 0.167927 0.426883
O O8 0.112930 0.087025 0.447183
O O9 0.679521 0.679521 0.166667
#
# Coordination Sequence:
#
# PCOD9584333 Si02
#       6
#     6  12  12  12   3   3
#     4   9  21  39  65  88 130 168 227 279 321 403
#     4  10  21  43  66  96 126 177 220 284 346 406
#     4  10  22  37  62  95 140 169 220 262 338 422
#     4  10  20  38  57  90 127 175 218 269 323 381
#     4  12  20  42  58 106 140 190 204 266 330 432
#     4  10  24  44  66  94 126 168 238 284 332 402
#
# _framework density 19.231172999999998
#
# number of rings (size 3 to 8) (size 9 to 14) (size 15 to 20)
#    0.000    2.000    2.500    0.375    0.000    6.000 
#    0.000    7.500    0.000    0.000    0.000    0.000 
#    0.000    0.000    0.000    0.000    0.000    0.000 
#
# Total GULP energy -267279.952525 kJ/mol
# GULP energy per Si atom -5568.332344 kJ/mol
# Density = 1.918740 g / cm^3
# Si number density = 19.231173 Si / 1000 Ang^3
#
#
#
# Elastic Constant Matrix: (Units=GPa)
#
#
# Indices 1 2 3 4 5 6 
#
# 1 118.1188 54.7336 53.5460 0.0000 0.0000 0.0000
# 2 54.7336 118.1188 53.5460 0.0000 0.0000 0.0000
# 3 53.5460 53.5460 125.5100 0.0000 0.0000 0.0000
# 4 0.0000 0.0000 0.0000 20.5551 0.0000 0.0000
# 5 0.0000 0.0000 0.0000 0.0000 20.5551 0.0000
# 6 0.0000 0.0000 0.0000 0.0000 0.0000 31.6926
#
#
#
# Elastic Compliance Matrix: (Units=1/GPa)
#
#
# Indices 1 2 3 4 5 6 
#
# 1 0.011820 -0.003956 -0.003355 0.000000 0.000000 0.000000
# 2 -0.003956 0.011820 -0.003355 0.000000 0.000000 0.000000
# 3 -0.003355 -0.003355 0.010830 0.000000 0.000000 0.000000
# 4 0.000000 0.000000 0.000000 0.048650 0.000000 0.000000
# 5 0.000000 0.000000 0.000000 0.000000 0.048650 0.000000
# 6 0.000000 0.000000 0.000000 0.000000 0.000000 0.031553
#
#
# Mechanical properties :
#
#
# Convention : Reuss Voigt Hill
#
# Bulk Modulus (GPa) = 76.11464 76.15542 76.13503
# Shear Modulus (GPa) = 26.45016 27.88870 27.16943
#
# Velocity S-wave (km/s) = 3.71263 3.81226 3.76278
# Velocity P-wave (km/s) = 7.61859 7.68529 7.65201
#
# Compressibility (1/GPa) = 0.01313808
#
# Stress axis : x y z
#
# Youngs Moduli (GPa) = 84.60082 84.60082 92.33519
#
# Poissons Ratio (x) = 0.33471 0.30978
# Poissons Ratio (y) = 0.33471 0.30978
# Poissons Ratio (z) = 0.28383 0.28383
#
# Static dielectric constant tensor:
#      x y z
#    x 1.445070 0.000000 0.000000 
#    y 0.000000 1.445070 0.000000 
#    z 0.000000 0.000000 1.712420 
# 
# From -- ./inp_files/5940.got.cif
#   From: 2010.05.17/outbox.cif.g08.bks.cpg/sg181_3_cif.got.tgz:5940.got - 2010.05.20 11:51:17.
