data_PCOD9584017
_publ_section_title
;
Structure prediction by ZEFSAII (Michael W. Deem and Ramdas Pophale) SiO2 
 PCOD9584017
Probable space group: P 62 2 2
;
_chemical_formula_sum "Si O2"
_cell_formula_units_Z 81
_cell_length_a 18.890172
_cell_length_b 18.890172
_cell_length_c 12.922539
_cell_angle_alpha 90.000000
_cell_angle_beta 90.000000
_cell_angle_gamma 120.000000
_cell_volume 3993.468911
_symmetry_space_group_name_H-M "P 62 2 2"
_symmetry_group_IT_number 180
_symmetry_cell_setting 'hexagonal'
loop_
_space_group_symop_operation_xyz
x,y,z
x-y,x,1/3+z
-y,x-y,2/3+z
-x,-y,z
-x+y,-x,1/3+z
y,-x+y,2/3+z
x-y,-y,-z
-x,-x+y,1/3-z
y,x,2/3-z
-y,-x,2/3-z
-x+y,y,-z
x,x-y,1/3-z
loop_
_atom_site_type_symbol
_atom_site_label
_atom_site_fract_x
_atom_site_fract_y
_atom_site_fract_z
Si Si1 0.168388 0.760149 0.439822
Si Si2 0.540689 0.952213 0.110464
Si Si3 0.869844 0.030468 0.114043
Si Si4 0.374338 0.576187 0.170975
Si Si5 0.017325 0.295013 0.450854
Si Si6 0.000000 0.000000 0.166667
Si Si7 0.300999 0.083000 0.436653
Si Si8 0.663329 0.331665 0.666667
O O1 0.217999 0.782002 0.333334
O O2 0.157853 0.678771 0.491844
O O3 0.078106 0.745443 0.418949
O O4 0.215635 0.838454 0.513218
O O5 0.535291 0.140724 0.117397
O O6 0.621267 0.957862 0.157249
O O7 0.500000 0.000000 0.167585
O O8 0.569598 0.000000 0.000000
O O9 0.775271 0.980362 0.147724
O O10 0.897658 0.125017 0.107431
O O11 0.930082 0.022926 0.196340
O O12 0.878631 0.000000 0.000000
O O13 0.327423 0.604243 0.249090
O O14 0.367909 0.613802 0.060999
O O15 0.069963 0.314470 0.348333
O O16 0.274212 0.000000 0.500000
#
# Coordination Sequence:
#
# PCOD9584017 Si02
#       8
#    12  12  12  12  12   3  12   6
#     4  11  22  40  67  94 133 172 218 281 342 408
#     4  11  23  42  69  97 132 176 229 284 353 417
#     4  11  24  41  62  93 133 174 227 279 332 403
#     4  11  23  43  66  97 131 177 222 283 349 423
#     4  11  24  42  66  95 131 175 227 282 340 412
#     4  12  22  40  68  94 136 190 224 272 342 420
#     4  11  23  41  64  94 131 173 221 272 341 410
#     4  10  24  42  63  94 134 170 220 265 344 424
#
# _framework density 20.283117000000001
#
# number of rings (size 3 to 8) (size 9 to 14) (size 15 to 20)
#    0.000    1.037    4.444    2.444    2.074    0.000 
#    0.000    1.481    0.000    2.222    0.000    0.000 
#    0.000    0.000    0.000    0.000    0.000    0.000 
#
# Total GULP energy -451544.923986 kJ/mol
# GULP energy per Si atom -5574.628691 kJ/mol
# Density = 2.023695 g / cm^3
# Si number density = 20.283117 Si / 1000 Ang^3
#
#
#
# Elastic Constant Matrix: (Units=GPa)
#
#
# Indices 1 2 3 4 5 6 
#
# 1 111.1913 45.1847 48.4300 0.0000 0.0000 0.0000
# 2 45.1847 111.1913 48.4300 0.0000 0.0000 0.0000
# 3 48.4300 48.4300 106.4206 0.0000 0.0000 0.0000
# 4 0.0000 0.0000 0.0000 19.9842 0.0000 0.0000
# 5 0.0000 0.0000 0.0000 0.0000 19.9842 0.0000
# 6 0.0000 0.0000 0.0000 0.0000 0.0000 33.0033
#
#
#
# Elastic Compliance Matrix: (Units=1/GPa)
#
#
# Indices 1 2 3 4 5 6 
#
# 1 0.012027 -0.003123 -0.004052 0.000000 0.000000 0.000000
# 2 -0.003123 0.012027 -0.004052 0.000000 0.000000 0.000000
# 3 -0.004052 -0.004052 0.013085 0.000000 0.000000 0.000000
# 4 0.000000 0.000000 0.000000 0.050040 0.000000 0.000000
# 5 0.000000 0.000000 0.000000 0.000000 0.050040 0.000000
# 6 0.000000 0.000000 0.000000 0.000000 0.000000 0.030300
#
#
# Mechanical properties :
#
#
# Convention : Reuss Voigt Hill
#
# Bulk Modulus (GPa) = 68.09624 68.09919 68.09772
# Shear Modulus (GPa) = 25.65826 27.04492 26.35159
#
# Velocity S-wave (km/s) = 3.56055 3.65550 3.60834
# Velocity P-wave (km/s) = 7.10979 7.17385 7.14189
#
# Compressibility (1/GPa) = 0.01468510
#
# Stress axis : x y z
#
# Youngs Moduli (GPa) = 83.14295 83.14295 76.42283
#
# Poissons Ratio (x) = 0.25961 0.30970
# Poissons Ratio (y) = 0.25961 0.30970
# Poissons Ratio (z) = 0.33694 0.33694
#
# Static dielectric constant tensor:
#      x y z
#    x 1.730060 0.000000 0.000000 
#    y 0.000000 1.730060 0.000000 
#    z 0.000000 0.000000 1.773810 
# 
# From -- ./inp_files/5081.got.cif
#   From: 2010.05.17/outbox.cif.g08.bks.cpg/sg180_3_cif.got.tgz:5081.got - 2010.05.20 11:43:55.
