data_PCOD9584383
_publ_section_title
;
Structure prediction by ZEFSAII (Michael W. Deem and Ramdas Pophale) SiO2 
 PCOD9584383
Probable space group: P 64 2 2
;
_chemical_formula_sum "Si O2"
_cell_formula_units_Z 66
_cell_length_a 20.175878
_cell_length_b 20.175878
_cell_length_c 9.241318
_cell_angle_alpha 90.000000
_cell_angle_beta 90.000000
_cell_angle_gamma 120.000000
_cell_volume 3257.837611
_symmetry_space_group_name_H-M "P 64 2 2"
_symmetry_group_IT_number 181
_symmetry_cell_setting 'hexagonal'
loop_
_space_group_symop_operation_xyz
x,y,z
x-y,x,2/3+z
-y,x-y,1/3+z
-x,-y,z
-x+y,-x,2/3+z
y,-x+y,1/3+z
x-y,-y,-z
-x,-x+y,2/3-z
y,x,1/3-z
-y,-x,1/3-z
-x+y,y,-z
x,x-y,2/3-z
loop_
_atom_site_type_symbol
_atom_site_label
_atom_site_fract_x
_atom_site_fract_y
_atom_site_fract_z
Si Si1 0.526616 0.873886 0.700506
Si Si2 0.598659 0.114817 0.849222
Si Si3 0.000000 0.660513 0.833334
Si Si4 0.575741 0.284683 0.094234
Si Si5 0.710772 0.656638 0.869780
Si Si6 0.110557 0.758120 0.249454
O O1 0.462390 0.896326 0.728223
O O2 0.589199 0.935452 0.592183
O O3 0.486713 0.786521 0.646730
O O4 0.565384 0.871898 0.853361
O O5 0.669057 0.202407 0.827572
O O6 0.634054 0.059947 0.826739
O O7 0.552424 0.104847 0.000000
O O8 0.049370 0.720893 0.706896
O O9 0.634354 0.365647 0.166667
O O10 0.636878 0.273756 0.000000
O O11 0.767732 0.650988 0.755301
O O12 0.699346 0.724143 0.806867
O O13 0.165833 0.834168 0.166667
#
# Coordination Sequence:
#
# PCOD9584383 Si02
#       6
#    12  12   6  12  12  12
#     4  11  23  39  58  77 114 145 198 252 324 387
#     4  11  22  36  59  81 111 152 202 263 330 385
#     4  10  26  41  56  82 112 156 190 252 325 404
#     4  11  23  37  54  84 115 152 202 269 340 389
#     4  10  22  41  59  85 114 147 196 249 316 386
#     4  10  21  40  64  85 106 146 195 257 308 372
#
# _framework density 20.258835999999999
#
# number of rings (size 3 to 8) (size 9 to 14) (size 15 to 20)
#    0.000    1.455    3.636    1.091    5.091    3.636 
#    0.000    7.273    0.000    0.000    0.000    0.000 
#    0.000    0.000    0.000    0.000    0.000    0.000 
#
# Total GULP energy -367953.377193 kJ/mol
# GULP energy per Si atom -5575.051170 kJ/mol
# Density = 2.021273 g / cm^3
# Si number density = 20.258836 Si / 1000 Ang^3
#
#
#
# Elastic Constant Matrix: (Units=GPa)
#
#
# Indices 1 2 3 4 5 6 
#
# 1 63.6988 21.6560 27.1512 0.0000 0.0000 0.0000
# 2 21.6560 63.6988 27.1512 0.0000 0.0000 0.0000
# 3 27.1512 27.1512 132.3286 0.0000 0.0000 0.0000
# 4 0.0000 0.0000 0.0000 30.8671 0.0000 0.0000
# 5 0.0000 0.0000 0.0000 0.0000 30.8671 0.0000
# 6 0.0000 0.0000 0.0000 0.0000 0.0000 21.0214
#
#
#
# Elastic Compliance Matrix: (Units=1/GPa)
#
#
# Indices 1 2 3 4 5 6 
#
# 1 0.018630 -0.005155 -0.002765 0.000000 0.000000 0.000000
# 2 -0.005155 0.018630 -0.002765 0.000000 0.000000 0.000000
# 3 -0.002765 -0.002765 0.008691 0.000000 0.000000 0.000000
# 4 0.000000 0.000000 0.000000 0.032397 0.000000 0.000000
# 5 0.000000 0.000000 0.000000 0.000000 0.032397 0.000000
# 6 0.000000 0.000000 0.000000 0.000000 0.000000 0.047571
#
#
# Mechanical properties :
#
#
# Convention : Reuss Voigt Hill
#
# Bulk Modulus (GPa) = 40.68026 45.73813 43.20920
# Shear Modulus (GPa) = 26.61277 28.80228 27.70752
#
# Velocity S-wave (km/s) = 3.62835 3.77465 3.70222
# Velocity P-wave (km/s) = 6.13816 6.45161 6.29684
#
# Compressibility (1/GPa) = 0.02458195
#
# Stress axis : x y z
#
# Youngs Moduli (GPa) = 53.67678 53.67678 115.05511
#
# Poissons Ratio (x) = 0.27672 0.31810
# Poissons Ratio (y) = 0.27672 0.31810
# Poissons Ratio (z) = 0.14840 0.14840
#
# Static dielectric constant tensor:
#      x y z
#    x 1.690090 0.000000 0.000000 
#    y 0.000000 1.690090 0.000000 
#    z 0.000000 0.000000 1.859310 
# 
# From -- ./inp_files/3189.got.cif
#   From: 2010.05.17/outbox.cif.g08.bks.cpg/sg181_2_cif.got.tgz:3189.got - 2010.05.20 11:51:17.
