data_PCOD9584319
_publ_section_title
;
Structure prediction by ZEFSAII (Michael W. Deem and Ramdas Pophale) SiO2 
 PCOD9584319
Probable space group: P 64 2 2
;
_chemical_formula_sum "Si O2"
_cell_formula_units_Z 69
_cell_length_a 29.836874
_cell_length_b 29.836874
_cell_length_c 5.250742
_cell_angle_alpha 90.000000
_cell_angle_beta 90.000000
_cell_angle_gamma 120.000000
_cell_volume 4048.162632
_symmetry_space_group_name_H-M "P 64 2 2"
_symmetry_group_IT_number 181
_symmetry_cell_setting 'hexagonal'
loop_
_space_group_symop_operation_xyz
x,y,z
x-y,x,2/3+z
-y,x-y,1/3+z
-x,-y,z
-x+y,-x,2/3+z
y,-x+y,1/3+z
x-y,-y,-z
-x,-x+y,2/3-z
y,x,1/3-z
-y,-x,1/3-z
-x+y,y,-z
x,x-y,2/3-z
loop_
_atom_site_type_symbol
_atom_site_label
_atom_site_fract_x
_atom_site_fract_y
_atom_site_fract_z
Si Si1 0.648827 0.592033 0.120908
Si Si2 0.710148 0.227985 0.914553
Si Si3 0.590698 0.409303 0.666667
Si Si4 0.830448 0.600514 0.250506
Si Si5 0.912062 0.419366 0.022031
Si Si6 0.705134 0.648133 0.624097
Si Si7 0.000000 0.500000 0.333334
O O1 0.600398 0.600398 0.166667
O O2 0.630840 0.534641 0.208100
O O3 0.690768 0.629386 0.331742
O O4 0.665250 0.607528 0.832122
O O5 0.738475 0.261526 0.666667
O O6 0.650342 0.212631 0.916964
O O7 0.720804 0.179288 0.906353
O O8 0.739021 0.260979 0.166667
O O9 0.589337 0.447296 0.454035
O O10 0.800424 0.600848 0.500000
O O11 0.889778 0.644706 0.292180
O O12 0.803894 0.607787 0.000000
O O13 0.956539 0.442321 0.233379
O O14 0.934983 0.467492 0.833334
O O15 0.697912 0.697912 0.666667
#
# Coordination Sequence:
#
# PCOD9584319 Si02
#       7
#    12  12   6  12  12  12   3
#     4  10  21  33  51  72 107 139 167 195 243 297
#     4  10  24  43  62  79 100 124 161 208 260 317
#     4  11  26  41  62  84  98 126 164 214 264 314
#     4  10  20  36  58  79 104 137 169 208 255 312
#     4  11  24  34  54  76 109 135 165 195 232 308
#     4  10  21  35  54  81 105 137 172 213 250 296
#     4  10  22  36  44  74 108 148 162 176 226 276
#
# _framework density 17.04477
#
# number of rings (size 3 to 8) (size 9 to 14) (size 15 to 20)
#    0.000    1.739    0.000    3.391   13.391    1.391 
#    1.565    0.000    0.000    0.000    0.000    0.000 
#    0.000    0.000    0.000    0.000    0.000    0.000 
#
# Total GULP energy -384539.354313 kJ/mol
# GULP energy per Si atom -5573.034120 kJ/mol
# Density = 1.700598 g / cm^3
# Si number density = 17.044770 Si / 1000 Ang^3
#
#
#
# Elastic Constant Matrix: (Units=GPa)
#
#
# Indices 1 2 3 4 5 6 
#
# 1 66.9497 36.3867 16.0411 0.0000 0.0000 0.0000
# 2 36.3867 66.9497 16.0411 0.0000 0.0000 0.0000
# 3 16.0411 16.0411 76.5649 0.0000 0.0000 0.0000
# 4 0.0000 0.0000 0.0000 643.1214 0.0000 0.0000
# 5 0.0000 0.0000 0.0000 0.0000 643.1214 0.0000
# 6 0.0000 0.0000 0.0000 0.0000 0.0000 15.2815
#
#
#
# Elastic Compliance Matrix: (Units=1/GPa)
#
#
# Indices 1 2 3 4 5 6 
#
# 1 0.021535 -0.011184 -0.002169 0.000000 0.000000 0.000000
# 2 -0.011184 0.021535 -0.002169 0.000000 0.000000 0.000000
# 3 -0.002169 -0.002169 0.013969 0.000000 0.000000 0.000000
# 4 0.000000 0.000000 0.000000 0.001555 0.000000 0.000000
# 5 0.000000 0.000000 0.000000 0.000000 0.001555 0.000000
# 6 0.000000 0.000000 0.000000 0.000000 0.000000 0.065439
#
#
# Mechanical properties :
#
#
# Convention : Reuss Voigt Hill
#
# Bulk Modulus (GPa) = 38.46716 38.60021 38.53369
# Shear Modulus (GPa) = 30.24876 269.77120 150.00998
#
# Velocity S-wave (km/s) = 4.21725 12.59427 9.39151
# Velocity P-wave (km/s) = 6.80668 15.30304 11.84302
#
# Compressibility (1/GPa) = 0.02599620
#
# Stress axis : x y z
#
# Youngs Moduli (GPa) = 46.43634 46.43634 71.58472
#
# Poissons Ratio (x) = 0.51937 0.15523
# Poissons Ratio (y) = 0.51937 0.15523
# Poissons Ratio (z) = 0.10070 0.10070
#
# Static dielectric constant tensor:
#      x y z
#    x 1.191550 0.000000 0.000000 
#    y 0.000000 1.191550 0.000000 
#    z 0.000000 0.000000 1.650360 
# 
# From -- ./inp_files/1562.got.cif
#   From: 2010.05.17/outbox.cif.g08.bks.cpg/sg181_1_cif.got.tgz:1562.got - 2010.05.20 11:51:17.
