data_PCOD9584788
_publ_section_title
;
Structure prediction by ZEFSAII (Michael W. Deem and Ramdas Pophale) SiO2 
 PCOD9584788
Probable space group: P 63 2 2
;
_chemical_formula_sum "Si O2"
_cell_formula_units_Z 84
_cell_length_a 18.457817
_cell_length_b 18.457817
_cell_length_c 14.911100
_cell_angle_alpha 90.000000
_cell_angle_beta 90.000000
_cell_angle_gamma 120.000000
_cell_volume 4399.476337
_symmetry_space_group_name_H-M "P 63 2 2"
_symmetry_group_IT_number 182
_symmetry_cell_setting 'hexagonal'
loop_
_space_group_symop_operation_xyz
x,y,z
x-y,x,1/2+z
-y,x-y,z
-x,-y,1/2+z
-x+y,-x,z
y,-x+y,1/2+z
x-y,-y,-z
-x,-x+y,-z
y,x,-z
-y,-x,1/2-z
-x+y,y,1/2-z
x,x-y,1/2-z
loop_
_atom_site_type_symbol
_atom_site_label
_atom_site_fract_x
_atom_site_fract_y
_atom_site_fract_z
Si Si1 0.529413 0.754847 0.520799
Si Si2 0.207643 0.874816 0.380214
Si Si3 0.950850 0.666329 0.701894
Si Si4 0.517444 0.540436 0.147711
Si Si5 0.317169 0.186167 0.347892
Si Si6 0.424735 0.863802 0.980249
Si Si7 0.089854 0.186361 0.515150
O O1 0.580468 0.753229 0.433819
O O2 0.603720 0.812003 0.589852
O O3 0.476349 0.801694 0.508240
O O4 0.470771 0.658191 0.547233
O O5 0.272831 0.941643 0.309725
O O6 0.126641 0.800396 0.332676
O O7 0.164677 0.910232 0.447120
O O8 0.945633 0.583304 0.663657
O O9 0.037008 0.738738 0.662692
O O10 0.491327 0.508674 0.250000
O O11 0.557991 0.491964 0.095550
O O12 0.451264 0.538808 0.075150
O O13 0.335862 0.167931 0.250000
O O14 0.233543 0.109633 0.389972
O O15 0.160505 0.160505 0.500000
O O16 0.000000 0.106255 0.500000
#
# Coordination Sequence:
#
# PCOD9584788 Si02
#       7
#    12  12  12  12  12  12  12
#     4  11  23  42  63  92 129 172 215 266 328 393
#     4  10  22  38  68  95 125 166 213 274 321 386
#     4  11  20  40  68  94 125 160 220 262 327 394
#     4  11  24  42  67  95 131 168 217 274 333 394
#     4  11  24  40  65  92 128 165 219 270 328 388
#     4  11  24  42  65  93 131 172 219 269 332 400
#     4  11  22  40  60  89 128 169 213 260 325 388
#
# _framework density 19.093181999999999
#
# number of rings (size 3 to 8) (size 9 to 14) (size 15 to 20)
#    0.000    1.143    4.286    2.143    2.000    0.000 
#   10.286    0.000    0.000    1.714    0.000    0.000 
#    0.000    0.000    0.000    0.000    0.000    0.000 
#
# Total GULP energy -468421.331397 kJ/mol
# GULP energy per Si atom -5576.444421 kJ/mol
# Density = 1.904973 g / cm^3
# Si number density = 19.093182 Si / 1000 Ang^3
#
#
#
# Elastic Constant Matrix: (Units=GPa)
#
#
# Indices 1 2 3 4 5 6 
#
# 1 89.7316 44.5014 31.6169 0.0000 0.0000 0.0000
# 2 44.5014 89.7316 31.6169 0.0000 0.0000 0.0000
# 3 31.6169 31.6169 105.4188 0.0000 0.0000 0.0000
# 4 0.0000 0.0000 0.0000 14.2434 0.0000 0.0000
# 5 0.0000 0.0000 0.0000 0.0000 14.2434 0.0000
# 6 0.0000 0.0000 0.0000 0.0000 0.0000 22.6151
#
#
#
# Elastic Compliance Matrix: (Units=1/GPa)
#
#
# Indices 1 2 3 4 5 6 
#
# 1 0.015392 -0.006717 -0.002602 0.000000 0.000000 0.000000
# 2 -0.006717 0.015392 -0.002602 0.000000 0.000000 0.000000
# 3 -0.002602 -0.002602 0.011047 0.000000 0.000000 0.000000
# 4 0.000000 0.000000 0.000000 0.070208 0.000000 0.000000
# 5 0.000000 0.000000 0.000000 0.000000 0.070208 0.000000
# 6 0.000000 0.000000 0.000000 0.000000 0.000000 0.044218
#
#
# Mechanical properties :
#
#
# Convention : Reuss Voigt Hill
#
# Bulk Modulus (GPa) = 55.58672 55.59470 55.59071
# Shear Modulus (GPa) = 19.50811 22.03015 20.76913
#
# Velocity S-wave (km/s) = 3.19992 3.40048 3.30172
# Velocity P-wave (km/s) = 6.54441 6.67821 6.61165
#
# Compressibility (1/GPa) = 0.01798991
#
# Stress axis : x y z
#
# Youngs Moduli (GPa) = 64.96761 64.96761 90.52485
#
# Poissons Ratio (x) = 0.43638 0.23554
# Poissons Ratio (y) = 0.43638 0.23554
# Poissons Ratio (z) = 0.16904 0.16904
#
# Static dielectric constant tensor:
#      x y z
#    x 1.685480 0.000000 0.000000 
#    y 0.000000 1.685480 0.000000 
#    z 0.000000 0.000000 1.695170 
# 
# From -- ./inp_files/3718.got.cif
#   From: 2010.05.17/outbox.cif.g08.bks.cpg/sg182_2_cif.got.tgz:3718.got - 2010.05.20 11:58:53.
