data_PCOD9584442
_publ_section_title
;
Structure prediction by ZEFSAII (Michael W. Deem and Ramdas Pophale) SiO2 
 PCOD9584442
Probable space group: P 64 2 2
;
_chemical_formula_sum "Si O2"
_cell_formula_units_Z 42
_cell_length_a 10.446794
_cell_length_b 10.446794
_cell_length_c 18.857672
_cell_angle_alpha 90.000000
_cell_angle_beta 90.000000
_cell_angle_gamma 120.000000
_cell_volume 1782.316268
_symmetry_space_group_name_H-M "P 64 2 2"
_symmetry_group_IT_number 181
_symmetry_cell_setting 'hexagonal'
loop_
_space_group_symop_operation_xyz
x,y,z
x-y,x,2/3+z
-y,x-y,1/3+z
-x,-y,z
-x+y,-x,2/3+z
y,-x+y,1/3+z
x-y,-y,-z
-x,-x+y,2/3-z
y,x,1/3-z
-y,-x,1/3-z
-x+y,y,-z
x,x-y,2/3-z
loop_
_atom_site_type_symbol
_atom_site_label
_atom_site_fract_x
_atom_site_fract_y
_atom_site_fract_z
Si Si1 0.879268 0.676323 0.638791
Si Si2 0.781582 0.918948 0.117193
Si Si3 0.658952 0.341049 0.666667
Si Si4 0.340918 0.463217 0.885505
O O1 0.746697 0.832569 0.758601
O O2 0.742510 0.518921 0.663958
O O3 0.777413 0.626701 0.825458
O O4 0.927184 0.774445 0.708317
O O5 0.879951 0.879951 0.166667
O O6 0.982642 0.647308 0.053622
O O7 0.732808 0.316727 0.594726
O O8 0.500000 0.500000 0.852554
#
# Coordination Sequence:
#
# PCOD9584442 Si02
#       4
#    12  12   6  12
#     4  10  24  42  67 101 138 185 238 300 373 435
#     4  11  24  42  68  99 137 184 241 299 361 441
#     4  10  22  43  68  97 146 184 232 310 364 456
#     4  10  22  41  65  96 135 180 234 289 366 438
#
# _framework density 23.564841000000001
#
# number of rings (size 3 to 8) (size 9 to 14) (size 15 to 20)
#    0.000    1.714    0.000    2.571    4.000    4.571 
#    0.000    7.143    0.000    0.000    0.000    0.000 
#    0.000    0.000    0.000    0.000    0.000    0.000 
#
# Total GULP energy -234430.333936 kJ/mol
# GULP energy per Si atom -5581.674618 kJ/mol
# Density = 2.351121 g / cm^3
# Si number density = 23.564841 Si / 1000 Ang^3
#
#
#
# Elastic Constant Matrix: (Units=GPa)
#
#
# Indices 1 2 3 4 5 6 
#
# 1 89.9738 33.6173 46.3423 0.0000 0.0000 0.0000
# 2 33.6173 89.9738 46.3423 0.0000 0.0000 0.0000
# 3 46.3423 46.3423 147.3349 0.0000 0.0000 0.0000
# 4 0.0000 0.0000 0.0000 16.0959 0.0000 0.0000
# 5 0.0000 0.0000 0.0000 0.0000 16.0959 0.0000
# 6 0.0000 0.0000 0.0000 0.0000 0.0000 28.1783
#
#
#
# Elastic Compliance Matrix: (Units=1/GPa)
#
#
# Indices 1 2 3 4 5 6 
#
# 1 0.014167 -0.003578 -0.003331 0.000000 0.000000 0.000000
# 2 -0.003578 0.014167 -0.003331 0.000000 0.000000 0.000000
# 3 -0.003331 -0.003331 0.008882 0.000000 0.000000 0.000000
# 4 0.000000 0.000000 0.000000 0.062128 0.000000 0.000000
# 5 0.000000 0.000000 0.000000 0.000000 0.062128 0.000000
# 6 0.000000 0.000000 0.000000 0.000000 0.000000 0.035488
#
#
# Mechanical properties :
#
#
# Convention : Reuss Voigt Hill
#
# Bulk Modulus (GPa) = 59.74478 64.43182 62.08830
# Shear Modulus (GPa) = 22.41992 25.47273 23.94632
#
# Velocity S-wave (km/s) = 3.08785 3.29137 3.19123
# Velocity P-wave (km/s) = 6.17426 6.46884 6.32326
#
# Compressibility (1/GPa) = 0.01673786
#
# Stress axis : x y z
#
# Youngs Moduli (GPa) = 70.58884 70.58884 112.58144
#
# Poissons Ratio (x) = 0.25254 0.37497
# Poissons Ratio (y) = 0.25254 0.37497
# Poissons Ratio (z) = 0.23510 0.23510
#
# Static dielectric constant tensor:
#      x y z
#    x 1.995220 0.000000 0.000000 
#    y 0.000000 1.995220 0.000000 
#    z 0.000000 0.000000 1.899830 
# 
# From -- ./inp_files/8464.got.cif
#   From: 2010.05.17/outbox.cif.g08.bks.cpg/sg181_5_cif.got.tgz:8464.got - 2010.05.20 11:51:17.
