data_PCOD9584101
_publ_section_title
;
Structure prediction by ZEFSAII (Michael W. Deem and Ramdas Pophale) SiO2 
 PCOD9584101
Probable space group: P 62 2 2
;
_chemical_formula_sum "Si O2"
_cell_formula_units_Z 75
_cell_length_a 20.045175
_cell_length_b 20.045175
_cell_length_c 11.865466
_cell_angle_alpha 90.000000
_cell_angle_beta 90.000000
_cell_angle_gamma 120.000000
_cell_volume 4128.907326
_symmetry_space_group_name_H-M "P 62 2 2"
_symmetry_group_IT_number 180
_symmetry_cell_setting 'hexagonal'
loop_
_space_group_symop_operation_xyz
x,y,z
x-y,x,1/3+z
-y,x-y,2/3+z
-x,-y,z
-x+y,-x,1/3+z
y,-x+y,2/3+z
x-y,-y,-z
-x,-x+y,1/3-z
y,x,2/3-z
-y,-x,2/3-z
-x+y,y,-z
x,x-y,1/3-z
loop_
_atom_site_type_symbol
_atom_site_label
_atom_site_fract_x
_atom_site_fract_y
_atom_site_fract_z
Si Si1 0.725566 0.304192 0.464143
Si Si2 0.500000 0.000000 0.500000
Si Si3 0.079607 0.423772 0.025769
Si Si4 0.920504 0.577606 0.426539
Si Si5 0.395543 0.305577 0.341314
Si Si6 0.821763 0.238811 0.113218
Si Si7 0.534381 0.412098 0.498218
O O1 0.714871 0.285130 0.333334
O O2 0.643829 0.287658 0.500000
O O3 0.742094 0.244315 0.527172
O O4 0.788929 0.388641 0.510093
O O5 0.578017 0.051747 0.431346
O O6 0.121446 0.392611 0.109698
O O7 0.131367 0.483940 0.931239
O O8 0.005569 0.364081 0.951716
O O9 0.889234 0.591681 0.542988
O O10 0.868002 0.575166 0.324459
O O11 0.923393 0.499382 0.456592
O O12 0.331290 0.331290 0.333334
O O13 0.376523 0.227981 0.409579
O O14 0.473423 0.379742 0.394950
#
# Coordination Sequence:
#
# PCOD9584101 Si02
#       7
#    12   3  12  12  12  12  12
#     4  11  23  36  53  74 107 145 188 245 314 368
#     4  12  20  32  56  94 108 140 188 256 324 376
#     4  12  20  34  60  84 105 143 193 253 313 373
#     4  12  22  38  60  82 110 144 195 250 310 375
#     4  11  25  40  56  80 114 158 198 246 310 382
#     4  11  24  39  59  84 111 146 197 262 314 365
#     4  11  22  37  56  77 108 147 193 245 303 380
#
# _framework density 18.164612000000002
#
# number of rings (size 3 to 8) (size 9 to 14) (size 15 to 20)
#    0.000    0.640    6.400    1.920    1.120    4.480 
#    0.000    0.000    0.000    0.000    0.000    0.000 
#    0.000    0.000    0.000    0.000    0.000   38.400 
#
# Total GULP energy -417723.310802 kJ/mol
# GULP energy per Si atom -5569.644144 kJ/mol
# Density = 1.812327 g / cm^3
# Si number density = 18.164612 Si / 1000 Ang^3
#
#
#
# Elastic Constant Matrix: (Units=GPa)
#
#
# Indices 1 2 3 4 5 6 
#
# 1 61.1757 25.8673 18.2106 0.0000 0.0000 0.0000
# 2 25.8673 61.1757 18.2106 0.0000 0.0000 0.0000
# 3 18.2106 18.2106 79.7083 0.0000 0.0000 0.0000
# 4 0.0000 0.0000 0.0000 21.5687 0.0000 0.0000
# 5 0.0000 0.0000 0.0000 0.0000 21.5687 0.0000
# 6 0.0000 0.0000 0.0000 0.0000 0.0000 17.6542
#
#
#
# Elastic Compliance Matrix: (Units=1/GPa)
#
#
# Indices 1 2 3 4 5 6 
#
# 1 0.020512 -0.007809 -0.002902 0.000000 0.000000 0.000000
# 2 -0.007809 0.020512 -0.002902 0.000000 0.000000 0.000000
# 3 -0.002902 -0.002902 0.013872 0.000000 0.000000 0.000000
# 4 0.000000 0.000000 0.000000 0.046363 0.000000 0.000000
# 5 0.000000 0.000000 0.000000 0.000000 0.046363 0.000000
# 6 0.000000 0.000000 0.000000 0.000000 0.000000 0.056644
#
#
# Mechanical properties :
#
#
# Convention : Reuss Voigt Hill
#
# Bulk Modulus (GPa) = 36.14158 36.29298 36.21728
# Shear Modulus (GPa) = 20.77121 21.47642 21.12381
#
# Velocity S-wave (km/s) = 3.38523 3.44222 3.41385
# Velocity P-wave (km/s) = 5.93461 5.98514 5.95993
#
# Compressibility (1/GPa) = 0.02766896
#
# Stress axis : x y z
#
# Youngs Moduli (GPa) = 48.75102 48.75102 72.08842
#
# Poissons Ratio (x) = 0.38072 0.20921
# Poissons Ratio (y) = 0.38072 0.20921
# Poissons Ratio (z) = 0.14148 0.14148
#
# Static dielectric constant tensor:
#      x y z
#    x 1.771730 0.000000 0.000000 
#    y 0.000000 1.771730 0.000000 
#    z 0.000000 0.000000 1.705820 
# 
# From -- ./inp_files/5002.got.cif
#   From: 2010.05.17/outbox.cif.g08.bks.cpg/sg180_3_cif.got.tgz:5002.got - 2010.05.20 11:43:55.
