data_PCOD9584076
_publ_section_title
;
Structure prediction by ZEFSAII (Michael W. Deem and Ramdas Pophale) SiO2 
 PCOD9584076
Probable space group: P 62 2 2
;
_chemical_formula_sum "Si O2"
_cell_formula_units_Z 27
_cell_length_a 7.132506
_cell_length_b 7.132506
_cell_length_c 22.332100
_cell_angle_alpha 90.000000
_cell_angle_beta 90.000000
_cell_angle_gamma 120.000000
_cell_volume 983.885334
_symmetry_space_group_name_H-M "P 62 2 2"
_symmetry_group_IT_number 180
_symmetry_cell_setting 'hexagonal'
loop_
_space_group_symop_operation_xyz
x,y,z
x-y,x,1/3+z
-y,x-y,2/3+z
-x,-y,z
-x+y,-x,1/3+z
y,-x+y,2/3+z
x-y,-y,-z
-x,-x+y,1/3-z
y,x,2/3-z
-y,-x,2/3-z
-x+y,y,-z
x,x-y,1/3-z
loop_
_atom_site_type_symbol
_atom_site_label
_atom_site_fract_x
_atom_site_fract_y
_atom_site_fract_z
Si Si1 0.500000 0.000000 0.500000
Si Si2 0.512231 0.222411 0.100160
Si Si3 0.315864 0.158075 0.598910
O O1 0.671717 0.010946 0.554234
O O2 0.617517 0.308759 0.166667
O O3 0.279343 0.203892 0.099656
O O4 0.660696 0.429378 0.061073
O O5 0.500000 0.000000 0.085406
O O6 0.232128 0.116064 0.666667
#
# Coordination Sequence:
#
# PCOD9584076 Si02
#       3
#     3  12  12
#     4  12  20  44  74 112 162 206 250 346 392 480
#     4  11  20  44  75 106 143 206 264 321 402 485
#     4  11  24  42  72 112 159 200 262 332 406 489
#
# _framework density 27.442222999999998
#
# number of rings (size 3 to 8) (size 9 to 14) (size 15 to 20)
#    0.000    0.889    6.667    2.667    0.000    0.889 
#    0.000   14.444    0.000   10.667    0.000    0.000 
#    0.000    0.000    0.000    0.000    0.000    0.000 
#
# Total GULP energy -150514.824132 kJ/mol
# GULP energy per Si atom -5574.623116 kJ/mol
# Density = 2.737976 g / cm^3
# Si number density = 27.442223 Si / 1000 Ang^3
#
#
#
# Elastic Constant Matrix: (Units=GPa)
#
#
# Indices 1 2 3 4 5 6 
#
# 1 167.3614 51.5091 30.5755 0.0000 0.0000 0.0000
# 2 51.5091 167.3614 30.5755 0.0000 0.0000 0.0000
# 3 30.5755 30.5755 215.6622 0.0000 0.0000 0.0000
# 4 0.0000 0.0000 0.0000 25.0193 0.0000 0.0000
# 5 0.0000 0.0000 0.0000 0.0000 25.0193 0.0000
# 6 0.0000 0.0000 0.0000 0.0000 0.0000 57.9261
#
#
#
# Elastic Compliance Matrix: (Units=1/GPa)
#
#
# Indices 1 2 3 4 5 6 
#
# 1 0.006695 -0.001937 -0.000674 0.000000 0.000000 0.000000
# 2 -0.001937 0.006695 -0.000674 0.000000 0.000000 0.000000
# 3 -0.000674 -0.000674 0.004828 0.000000 0.000000 0.000000
# 4 0.000000 0.000000 0.000000 0.039969 0.000000 0.000000
# 5 0.000000 0.000000 0.000000 0.000000 0.039969 0.000000
# 6 0.000000 0.000000 0.000000 0.000000 0.000000 0.017263
#
#
# Mechanical properties :
#
#
# Convention : Reuss Voigt Hill
#
# Bulk Modulus (GPa) = 85.87418 86.18946 86.03182
# Shear Modulus (GPa) = 39.72269 50.77461 45.24865
#
# Velocity S-wave (km/s) = 3.80873 4.30610 4.06503
# Velocity P-wave (km/s) = 7.12057 7.49661 7.31101
#
# Compressibility (1/GPa) = 0.01164494
#
# Stress axis : x y z
#
# Youngs Moduli (GPa) = 149.37594 149.37594 207.11957
#
# Poissons Ratio (x) = 0.28937 0.13970
# Poissons Ratio (y) = 0.28937 0.13970
# Poissons Ratio (z) = 0.10075 0.10075
#
# Static dielectric constant tensor:
#      x y z
#    x 2.030040 0.000000 0.000000 
#    y 0.000000 2.030040 0.000000 
#    z 0.000000 0.000000 2.109650 
# 
# From -- ./inp_files/8179.got.cif
#   From: 2010.05.17/outbox.cif.g08.bks.cpg/sg180_5_cif.got.tgz:8179.got - 2010.05.20 11:43:55.
