data_PCOD9584350
_publ_section_title
;
Structure prediction by ZEFSAII (Michael W. Deem and Ramdas Pophale) SiO2 
 PCOD9584350
Probable space group: P 64 2 2
;
_chemical_formula_sum "Si O2"
_cell_formula_units_Z 72
_cell_length_a 14.082470
_cell_length_b 14.082470
_cell_length_c 20.025598
_cell_angle_alpha 90.000000
_cell_angle_beta 90.000000
_cell_angle_gamma 120.000000
_cell_volume 3439.329580
_symmetry_space_group_name_H-M "P 64 2 2"
_symmetry_group_IT_number 181
_symmetry_cell_setting 'hexagonal'
loop_
_space_group_symop_operation_xyz
x,y,z
x-y,x,2/3+z
-y,x-y,1/3+z
-x,-y,z
-x+y,-x,2/3+z
y,-x+y,1/3+z
x-y,-y,-z
-x,-x+y,2/3-z
y,x,1/3-z
-y,-x,1/3-z
-x+y,y,-z
x,x-y,2/3-z
loop_
_atom_site_type_symbol
_atom_site_label
_atom_site_fract_x
_atom_site_fract_y
_atom_site_fract_z
Si Si1 0.703047 0.111222 0.958472
Si Si2 0.067651 0.877776 0.974375
Si Si3 0.571511 0.235028 0.691528
Si Si4 0.500000 0.000000 0.287976
Si Si5 0.759722 0.240279 0.166667
Si Si6 0.133100 0.159246 0.884250
Si Si7 0.018938 0.359597 0.159683
O O1 0.826293 0.129625 0.956272
O O2 0.649072 0.087909 0.885993
O O3 0.715282 0.219327 0.989884
O O4 0.632096 0.000000 0.000000
O O5 0.980647 0.855038 0.914766
O O6 0.022256 0.820578 0.046095
O O7 0.107973 0.000000 0.000000
O O8 0.694837 0.305164 0.666667
O O9 0.552084 0.244757 0.769975
O O10 0.522964 0.108193 0.673703
O O11 0.572173 0.969613 0.239324
O O12 0.889948 0.290829 0.179854
O O13 0.212590 0.271847 0.847586
O O14 0.124303 0.062152 0.833334
#
# Coordination Sequence:
#
# PCOD9584350 Si02
#       7
#    12  12  12   6   6  12  12
#     4  11  22  38  61 103 136 168 216 279 342 395
#     4  10  22  33  51  87 136 177 216 262 318 411
#     4  11  25  45  74  98 135 176 224 287 340 417
#     4  10  26  48  65  99 130 176 224 278 358 414
#     4  10  20  42  66 102 138 164 214 282 352 398
#     4  11  20  35  55  86 125 181 221 267 329 392
#     4  11  22  37  65  92 132 169 216 281 340 404
#
# _framework density 20.934311000000001
#
# number of rings (size 3 to 8) (size 9 to 14) (size 15 to 20)
#    0.000    1.333    2.500    5.000    4.667    5.000 
#    6.000    0.000    0.000    0.500    0.000    0.000 
#    0.000    0.000    0.000    0.000    0.000    0.000 
#
# Total GULP energy -401885.672462 kJ/mol
# GULP energy per Si atom -5581.745451 kJ/mol
# Density = 2.088666 g / cm^3
# Si number density = 20.934311 Si / 1000 Ang^3
#
#
#
# Elastic Constant Matrix: (Units=GPa)
#
#
# Indices 1 2 3 4 5 6 
#
# 1 78.6882 26.0097 19.1838 0.0000 0.0000 0.0000
# 2 26.0097 78.6882 19.1838 0.0000 0.0000 0.0000
# 3 19.1838 19.1838 78.7582 0.0000 0.0000 0.0000
# 4 0.0000 0.0000 0.0000 17.6799 0.0000 0.0000
# 5 0.0000 0.0000 0.0000 0.0000 17.6799 0.0000
# 6 0.0000 0.0000 0.0000 0.0000 0.0000 26.3393
#
#
#
# Elastic Compliance Matrix: (Units=1/GPa)
#
#
# Indices 1 2 3 4 5 6 
#
# 1 0.014735 -0.004248 -0.002555 0.000000 0.000000 0.000000
# 2 -0.004248 0.014735 -0.002555 0.000000 0.000000 0.000000
# 3 -0.002555 -0.002555 0.013942 0.000000 0.000000 0.000000
# 4 0.000000 0.000000 0.000000 0.056561 0.000000 0.000000
# 5 0.000000 0.000000 0.000000 0.000000 0.056561 0.000000
# 6 0.000000 0.000000 0.000000 0.000000 0.000000 0.037966
#
#
# Mechanical properties :
#
#
# Convention : Reuss Voigt Hill
#
# Bulk Modulus (GPa) = 40.48857 40.54325 40.51591
# Shear Modulus (GPa) = 22.57872 23.79030 23.18451
#
# Velocity S-wave (km/s) = 3.28769 3.37475 3.33151
# Velocity P-wave (km/s) = 5.81332 5.88168 5.84760
#
# Compressibility (1/GPa) = 0.02469833
#
# Stress axis : x y z
#
# Youngs Moduli (GPa) = 67.86453 67.86453 71.72809
#
# Poissons Ratio (x) = 0.28828 0.18323
# Poissons Ratio (y) = 0.28828 0.18323
# Poissons Ratio (z) = 0.17336 0.17336
#
# Static dielectric constant tensor:
#      x y z
#    x 1.867670 0.000000 0.000000 
#    y 0.000000 1.867670 0.000000 
#    z 0.000000 0.000000 2.029170 
# 
# From -- ./inp_files/9081.got.cif
#   From: 2010.05.17/outbox.cif.g08.bks.cpg/sg181_5_cif.got.tgz:9081.got - 2010.05.20 11:51:17.
