data_PCOD9584054
_publ_section_title
;
Structure prediction by ZEFSAII (Michael W. Deem and Ramdas Pophale) SiO2 
 PCOD9584054
Probable space group: P 62 2 2
;
_chemical_formula_sum "Si O2"
_cell_formula_units_Z 60
_cell_length_a 11.815834
_cell_length_b 11.815834
_cell_length_c 26.638235
_cell_angle_alpha 90.000000
_cell_angle_beta 90.000000
_cell_angle_gamma 120.000000
_cell_volume 3220.808024
_symmetry_space_group_name_H-M "P 62 2 2"
_symmetry_group_IT_number 180
_symmetry_cell_setting 'hexagonal'
loop_
_space_group_symop_operation_xyz
x,y,z
x-y,x,1/3+z
-y,x-y,2/3+z
-x,-y,z
-x+y,-x,1/3+z
y,-x+y,2/3+z
x-y,-y,-z
-x,-x+y,1/3-z
y,x,2/3-z
-y,-x,2/3-z
-x+y,y,-z
x,x-y,1/3-z
loop_
_atom_site_type_symbol
_atom_site_label
_atom_site_fract_x
_atom_site_fract_y
_atom_site_fract_z
Si Si1 0.008758 0.699916 0.254941
Si Si2 0.986092 0.870908 0.885740
Si Si3 0.813910 0.391164 0.108274
Si Si4 0.595880 0.379375 0.619466
Si Si5 0.982320 0.678197 0.369999
O O1 0.870210 0.573229 0.240294
O O2 0.059793 0.828203 0.220090
O O3 0.103214 0.637295 0.251057
O O4 0.004966 0.733490 0.313325
O O5 0.040269 0.801525 0.921629
O O6 0.000000 0.000000 0.910987
O O7 0.069067 0.930934 0.833334
O O8 0.836089 0.418045 0.166667
O O9 0.667089 0.349409 0.093124
O O10 0.610526 0.305263 0.666667
O O11 0.442742 0.334607 0.614476
O O12 0.669802 0.531951 0.630083
#
# Coordination Sequence:
#
# PCOD9584054 Si02
#       5
#    12  12  12  12  12
#     4  11  20  38  62  94 123 165 217 270 319 377
#     4  11  26  40  61  85 128 170 216 270 324 391
#     4  11  22  33  64 100 133 159 207 267 339 377
#     4  11  18  37  63 100 128 164 202 271 326 390
#     4  11  21  37  68  92 132 166 219 259 326 401
#
# _framework density 18.628865999999999
#
# number of rings (size 3 to 8) (size 9 to 14) (size 15 to 20)
#    0.000    1.000    6.000    3.000    5.600    2.400 
#    0.000    0.000    0.000    1.200    0.000    0.000 
#    0.000    0.000    0.000    0.000    0.000    0.000 
#
# Total GULP energy -334371.051099 kJ/mol
# GULP energy per Si atom -5572.850852 kJ/mol
# Density = 1.858647 g / cm^3
# Si number density = 18.628866 Si / 1000 Ang^3
#
#
#
# Elastic Constant Matrix: (Units=GPa)
#
#
# Indices 1 2 3 4 5 6 
#
# 1 97.9219 42.6516 47.7418 0.0000 0.0000 0.0000
# 2 42.6516 97.9219 47.7418 0.0000 0.0000 0.0000
# 3 47.7418 47.7418 125.1863 0.0000 0.0000 0.0000
# 4 0.0000 0.0000 0.0000 25.0390 0.0000 0.0000
# 5 0.0000 0.0000 0.0000 0.0000 25.0390 0.0000
# 6 0.0000 0.0000 0.0000 0.0000 0.0000 27.6351
#
#
#
# Elastic Compliance Matrix: (Units=1/GPa)
#
#
# Indices 1 2 3 4 5 6 
#
# 1 0.013847 -0.004246 -0.003661 0.000000 0.000000 0.000000
# 2 -0.004246 0.013847 -0.003661 0.000000 0.000000 0.000000
# 3 -0.003661 -0.003661 0.010781 0.000000 0.000000 0.000000
# 4 0.000000 0.000000 0.000000 0.039938 0.000000 0.000000
# 5 0.000000 0.000000 0.000000 0.000000 0.039938 0.000000
# 6 0.000000 0.000000 0.000000 0.000000 0.000000 0.036186
#
#
# Mechanical properties :
#
#
# Convention : Reuss Voigt Hill
#
# Bulk Modulus (GPa) = 65.20348 66.36673 65.78511
# Shear Modulus (GPa) = 27.35447 27.73561 27.54504
#
# Velocity S-wave (km/s) = 3.83612 3.86275 3.84946
# Velocity P-wave (km/s) = 7.39583 7.45638 7.42617
#
# Compressibility (1/GPa) = 0.01533660
#
# Stress axis : x y z
#
# Youngs Moduli (GPa) = 72.21888 72.21888 92.75800
#
# Poissons Ratio (x) = 0.30665 0.33962
# Poissons Ratio (y) = 0.30665 0.33962
# Poissons Ratio (z) = 0.26442 0.26442
#
# Static dielectric constant tensor:
#      x y z
#    x 1.694020 0.000000 0.000000 
#    y 0.000000 1.694020 0.000000 
#    z 0.000000 0.000000 1.709020 
# 
# From -- ./inp_files/11241.got.cif
#   From: 2010.05.17/outbox.cif.g08.bks.cpg/sg180_6_cif.got.tgz:11241.got - 2010.05.20 11:43:55.
