data_PCOD9584150
_publ_section_title
;
Structure prediction by ZEFSAII (Michael W. Deem and Ramdas Pophale) SiO2 
 PCOD9584150
Probable space group: P 62 2 2
;
_chemical_formula_sum "Si O2"
_cell_formula_units_Z 39
_cell_length_a 10.740002
_cell_length_b 10.740002
_cell_length_c 20.103449
_cell_angle_alpha 90.000000
_cell_angle_beta 90.000000
_cell_angle_gamma 120.000000
_cell_volume 2008.213715
_symmetry_space_group_name_H-M "P 62 2 2"
_symmetry_group_IT_number 180
_symmetry_cell_setting 'hexagonal'
loop_
_space_group_symop_operation_xyz
x,y,z
x-y,x,1/3+z
-y,x-y,2/3+z
-x,-y,z
-x+y,-x,1/3+z
y,-x+y,2/3+z
x-y,-y,-z
-x,-x+y,1/3-z
y,x,2/3-z
-y,-x,2/3-z
-x+y,y,-z
x,x-y,1/3-z
loop_
_atom_site_type_symbol
_atom_site_label
_atom_site_fract_x
_atom_site_fract_y
_atom_site_fract_z
Si Si1 0.331920 0.954334 0.322224
Si Si2 0.960620 0.336988 0.843459
Si Si3 0.000000 0.000000 0.166667
Si Si4 0.904783 0.163845 0.600664
O O1 0.213871 0.786130 0.333334
O O2 0.500000 0.000000 0.326751
O O3 0.296977 0.991646 0.248424
O O4 0.309448 0.053792 0.375404
O O5 0.794927 0.205074 0.833334
O O6 0.000000 0.500000 0.854541
O O7 0.058028 0.357497 0.778735
O O8 0.912329 0.041685 0.117264
O O9 0.000000 0.214311 0.666667
#
# Coordination Sequence:
#
# PCOD9584150 Si02
#       4
#    12  12   3  12
#     4  11  25  45  68  99 140 180 226 285 350 420
#     4  11  24  44  65 101 140 179 227 289 346 415
#     4  12  22  36  66  94 132 160 230 292 324 382
#     4  12  21  39  67  96 128 174 230 276 340 404
#
# _framework density 19.420242999999999
#
# number of rings (size 3 to 8) (size 9 to 14) (size 15 to 20)
#    0.000    0.615    4.615    4.154    0.000    5.538 
#    0.000    5.385    0.000    0.000    0.000    0.000 
#    0.000    0.000    0.000    0.000    0.000    0.000 
#
# Total GULP energy -217160.032070 kJ/mol
# GULP energy per Si atom -5568.205951 kJ/mol
# Density = 1.937604 g / cm^3
# Si number density = 19.420243 Si / 1000 Ang^3
#
#
#
# Elastic Constant Matrix: (Units=GPa)
#
#
# Indices 1 2 3 4 5 6 
#
# 1 109.7290 46.8947 41.6934 0.0000 0.0000 0.0000
# 2 46.8947 109.7290 41.6934 0.0000 0.0000 0.0000
# 3 41.6934 41.6934 154.0226 0.0000 0.0000 0.0000
# 4 0.0000 0.0000 0.0000 63.7098 0.0000 0.0000
# 5 0.0000 0.0000 0.0000 0.0000 63.7098 0.0000
# 6 0.0000 0.0000 0.0000 0.0000 0.0000 31.4171
#
#
#
# Elastic Compliance Matrix: (Units=1/GPa)
#
#
# Indices 1 2 3 4 5 6 
#
# 1 0.011687 -0.004228 -0.002019 0.000000 0.000000 0.000000
# 2 -0.004228 0.011687 -0.002019 0.000000 0.000000 0.000000
# 3 -0.002019 -0.002019 0.007586 0.000000 0.000000 0.000000
# 4 0.000000 0.000000 0.000000 0.015696 0.000000 0.000000
# 5 0.000000 0.000000 0.000000 0.000000 0.015696 0.000000
# 6 0.000000 0.000000 0.000000 0.000000 0.000000 0.031830
#
#
# Mechanical properties :
#
#
# Convention : Reuss Voigt Hill
#
# Bulk Modulus (GPa) = 69.30924 70.44924 69.87924
# Shear Modulus (GPa) = 43.28089 47.98064 45.63076
#
# Velocity S-wave (km/s) = 4.72598 4.97596 4.85258
# Velocity P-wave (km/s) = 8.09608 8.32877 8.21325
#
# Compressibility (1/GPa) = 0.01442809
#
# Stress axis : x y z
#
# Youngs Moduli (GPa) = 85.56253 85.56253 131.82493
#
# Poissons Ratio (x) = 0.36172 0.26620
# Poissons Ratio (y) = 0.36172 0.26620
# Poissons Ratio (z) = 0.17278 0.17278
#
# Static dielectric constant tensor:
#      x y z
#    x 1.768220 0.000000 0.000000 
#    y 0.000000 1.768220 0.000000 
#    z 0.000000 0.000000 1.662050 
# 
# From -- ./inp_files/7178.got.cif
#   From: 2010.05.17/outbox.cif.g08.bks.cpg/sg180_4_cif.got.tgz:7178.got - 2010.05.20 11:43:55.
