data_PCOD9584215
_publ_section_title
;
Structure prediction by ZEFSAII (Michael W. Deem and Ramdas Pophale) SiO2 
 PCOD9584215
Probable space group: P 64 2 2
;
_chemical_formula_sum "Si O2"
_cell_formula_units_Z 66
_cell_length_a 22.929387
_cell_length_b 22.929387
_cell_length_c 11.347449
_cell_angle_alpha 90.000000
_cell_angle_beta 90.000000
_cell_angle_gamma 120.000000
_cell_volume 5166.706122
_symmetry_space_group_name_H-M "P 64 2 2"
_symmetry_group_IT_number 181
_symmetry_cell_setting 'hexagonal'
loop_
_space_group_symop_operation_xyz
x,y,z
x-y,x,2/3+z
-y,x-y,1/3+z
-x,-y,z
-x+y,-x,2/3+z
y,-x+y,1/3+z
x-y,-y,-z
-x,-x+y,2/3-z
y,x,1/3-z
-y,-x,1/3-z
-x+y,y,-z
x,x-y,2/3-z
loop_
_atom_site_type_symbol
_atom_site_label
_atom_site_fract_x
_atom_site_fract_y
_atom_site_fract_z
Si Si1 0.241193 0.758808 0.666667
Si Si2 0.278255 0.580241 0.780631
Si Si3 0.459634 0.111232 0.224628
Si Si4 0.382572 0.844361 0.272221
Si Si5 0.561847 0.984847 0.631913
Si Si6 0.841592 0.483724 0.341265
O O1 0.282666 0.752829 0.557299
O O2 0.164075 0.720112 0.623758
O O3 0.310838 0.655419 0.833334
O O4 0.220185 0.568512 0.689170
O O5 0.326933 0.559154 0.716796
O O6 0.539612 0.137119 0.251156
O O7 0.419797 0.036433 0.276343
O O8 0.455614 0.118643 0.083559
O O9 0.381783 0.906848 0.334565
O O10 0.345322 0.833954 0.146849
O O11 0.500000 0.000000 0.633594
O O12 0.590505 0.000000 0.500000
O O13 0.877453 0.438727 0.333334
#
# Coordination Sequence:
#
# PCOD9584215 Si02
#       6
#     6  12  12  12  12  12
#     4  10  18  28  38  54  72  90 108 141 172 218
#     4  11  20  27  40  52  72  92 117 141 176 216
#     4   9  17  29  38  56  69  90 113 139 178 208
#     4  10  18  30  40  53  71  89 116 146 171 214
#     4   9  17  26  43  56  68  85 114 145 171 209
#     4   9  20  29  38  52  72  93 116 138 176 225
#
# _framework density 12.774096
#
# number of rings (size 3 to 8) (size 9 to 14) (size 15 to 20)
#    0.000    2.364    1.818    1.636    3.818    0.727 
#    0.000    3.636    0.000    0.000    0.000    0.000 
#    0.000    0.000    0.000    0.000    0.000    0.000 
#
# Total GULP energy -367531.042020 kJ/mol
# GULP energy per Si atom -5568.652152 kJ/mol
# Density = 1.274502 g / cm^3
# Si number density = 12.774096 Si / 1000 Ang^3
#
#
#
# Elastic Constant Matrix: (Units=GPa)
#
#
# Indices 1 2 3 4 5 6 
#
# 1 25.6679 10.6219 14.0218 0.0000 0.0000 0.0000
# 2 10.6219 25.6679 14.0218 0.0000 0.0000 0.0000
# 3 14.0218 14.0218 87.7684 0.0000 0.0000 0.0000
# 4 0.0000 0.0000 0.0000 11.1678 0.0000 0.0000
# 5 0.0000 0.0000 0.0000 0.0000 11.1678 0.0000
# 6 0.0000 0.0000 0.0000 0.0000 0.0000 7.5230
#
#
#
# Elastic Compliance Matrix: (Units=1/GPa)
#
#
# Indices 1 2 3 4 5 6 
#
# 1 0.048950 -0.017513 -0.005022 0.000000 0.000000 0.000000
# 2 -0.017513 0.048950 -0.005022 0.000000 0.000000 0.000000
# 3 -0.005022 -0.005022 0.012998 0.000000 0.000000 0.000000
# 4 0.000000 0.000000 0.000000 0.089543 0.000000 0.000000
# 5 0.000000 0.000000 0.000000 0.000000 0.089543 0.000000
# 6 0.000000 0.000000 0.000000 0.000000 0.000000 0.132926
#
#
# Mechanical properties :
#
#
# Convention : Reuss Voigt Hill
#
# Bulk Modulus (GPa) = 17.92657 24.04836 20.98747
# Shear Modulus (GPa) = 10.06805 12.66763 11.36784
#
# Velocity S-wave (km/s) = 2.81047 3.15249 2.98638
# Velocity P-wave (km/s) = 4.95940 5.66724 5.32510
#
# Compressibility (1/GPa) = 0.05578311
#
# Stress axis : x y z
#
# Youngs Moduli (GPa) = 20.42898 20.42898 76.93278
#
# Poissons Ratio (x) = 0.35777 0.38638
# Poissons Ratio (y) = 0.35777 0.38638
# Poissons Ratio (z) = 0.10260 0.10260
#
# Static dielectric constant tensor:
#      x y z
#    x 1.411870 0.000000 0.000000 
#    y 0.000000 1.411870 0.000000 
#    z 0.000000 0.000000 1.480810 
# 
# From -- ./inp_files/4985.got.cif
#   From: 2010.05.17/outbox.cif.g08.bks.cpg/sg181_3_cif.got.tgz:4985.got - 2010.05.20 11:51:17.
