data_PCOD9584148
_publ_section_title
;
Structure prediction by ZEFSAII (Michael W. Deem and Ramdas Pophale) SiO2 
 PCOD9584148
Probable space group: P 62 2 2
;
_chemical_formula_sum "Si O2"
_cell_formula_units_Z 36
_cell_length_a 8.545783
_cell_length_b 8.545783
_cell_length_c 27.675367
_cell_angle_alpha 90.000000
_cell_angle_beta 90.000000
_cell_angle_gamma 120.000000
_cell_volume 1750.361458
_symmetry_space_group_name_H-M "P 62 2 2"
_symmetry_group_IT_number 180
_symmetry_cell_setting 'hexagonal'
loop_
_space_group_symop_operation_xyz
x,y,z
x-y,x,1/3+z
-y,x-y,2/3+z
-x,-y,z
-x+y,-x,1/3+z
y,-x+y,2/3+z
x-y,-y,-z
-x,-x+y,1/3-z
y,x,2/3-z
-y,-x,2/3-z
-x+y,y,-z
x,x-y,1/3-z
loop_
_atom_site_type_symbol
_atom_site_label
_atom_site_fract_x
_atom_site_fract_y
_atom_site_fract_z
Si Si1 0.479010 0.672233 0.613084
Si Si2 0.798169 0.347398 0.543425
Si Si3 0.002274 0.181144 0.108346
O O1 0.500000 0.500000 0.615835
O O2 0.485671 0.742836 0.666667
O O3 0.287108 0.600095 0.587234
O O4 0.640561 0.829987 0.581056
O O5 0.653325 0.306650 0.500000
O O6 0.809603 0.178818 0.564886
O O7 0.000000 0.500000 0.528078
O O8 0.000000 0.171816 0.166667
O O9 0.000000 0.000000 0.090482
#
# Coordination Sequence:
#
# PCOD9584148 Si02
#       3
#    12  12  12
#     4  12  26  47  72 105 147 190 238 296 361 425
#     4  12  25  42  69 103 140 186 241 296 354 423
#     4  11  24  42  70 103 140 183 238 294 353 422
#
# _framework density 20.567183
#
# number of rings (size 3 to 8) (size 9 to 14) (size 15 to 20)
#    0.000    0.333    3.333    6.000    4.667    1.333 
#    0.000    6.667    0.000    0.000    0.000    0.000 
#    0.000    0.000    0.000    0.000    0.000    0.000 
#
# Total GULP energy -201003.405059 kJ/mol
# GULP energy per Si atom -5583.427918 kJ/mol
# Density = 2.052037 g / cm^3
# Si number density = 20.567183 Si / 1000 Ang^3
#
#
#
# Elastic Constant Matrix: (Units=GPa)
#
#
# Indices 1 2 3 4 5 6 
#
# 1 150.9232 20.2050 31.1257 0.0000 0.0000 0.0000
# 2 20.2050 150.9232 31.1257 0.0000 0.0000 0.0000
# 3 31.1257 31.1257 96.8712 0.0000 0.0000 0.0000
# 4 0.0000 0.0000 0.0000 35.0552 0.0000 0.0000
# 5 0.0000 0.0000 0.0000 0.0000 35.0552 0.0000
# 6 0.0000 0.0000 0.0000 0.0000 0.0000 65.3591
#
#
#
# Elastic Compliance Matrix: (Units=1/GPa)
#
#
# Indices 1 2 3 4 5 6 
#
# 1 0.007134 -0.000517 -0.002126 0.000000 0.000000 0.000000
# 2 -0.000517 0.007134 -0.002126 0.000000 0.000000 0.000000
# 3 -0.002126 -0.002126 0.011689 0.000000 0.000000 0.000000
# 4 0.000000 0.000000 0.000000 0.028526 0.000000 0.000000
# 5 0.000000 0.000000 0.000000 0.000000 0.028526 0.000000
# 6 0.000000 0.000000 0.000000 0.000000 0.000000 0.015300
#
#
# Mechanical properties :
#
#
# Convention : Reuss Voigt Hill
#
# Bulk Modulus (GPa) = 60.90575 62.62562 61.76569
# Shear Modulus (GPa) = 44.12293 48.17794 46.15044
#
# Velocity S-wave (km/s) = 4.63677 4.84515 4.74211
# Velocity P-wave (km/s) = 7.63830 7.86232 7.75112
#
# Compressibility (1/GPa) = 0.01641881
#
# Stress axis : x y z
#
# Youngs Moduli (GPa) = 140.18328 140.18328 85.54856
#
# Poissons Ratio (x) = 0.07241 0.18189
# Poissons Ratio (y) = 0.07241 0.18189
# Poissons Ratio (z) = 0.29804 0.29804
#
# Static dielectric constant tensor:
#      x y z
#    x 1.728430 0.000000 0.000000 
#    y 0.000000 1.728430 0.000000 
#    z 0.000000 0.000000 1.708180 
# 
# From -- ./inp_files/10741.got.cif
#   From: 2010.05.17/outbox.cif.g08.bks.cpg/sg180_6_cif.got.tgz:10741.got - 2010.05.20 11:43:55.
