data_PCOD9584120
_publ_section_title
;
Structure prediction by ZEFSAII (Michael W. Deem and Ramdas Pophale) SiO2 
 PCOD9584120
Probable space group: P 62 2 2
;
_chemical_formula_sum "Si O2"
_cell_formula_units_Z 69
_cell_length_a 19.511450
_cell_length_b 19.511450
_cell_length_c 10.370148
_cell_angle_alpha 90.000000
_cell_angle_beta 90.000000
_cell_angle_gamma 120.000000
_cell_volume 3418.965173
_symmetry_space_group_name_H-M "P 62 2 2"
_symmetry_group_IT_number 180
_symmetry_cell_setting 'hexagonal'
loop_
_space_group_symop_operation_xyz
x,y,z
x-y,x,1/3+z
-y,x-y,2/3+z
-x,-y,z
-x+y,-x,1/3+z
y,-x+y,2/3+z
x-y,-y,-z
-x,-x+y,1/3-z
y,x,2/3-z
-y,-x,2/3-z
-x+y,y,-z
x,x-y,1/3-z
loop_
_atom_site_type_symbol
_atom_site_label
_atom_site_fract_x
_atom_site_fract_y
_atom_site_fract_z
Si Si1 0.893049 0.571315 0.737745
Si Si2 0.811013 0.088495 0.958436
Si Si3 0.178365 0.911271 0.462344
Si Si4 0.000000 0.500000 0.666667
Si Si5 0.419097 0.838193 0.500000
Si Si6 0.295310 0.864572 0.356201
Si Si7 0.442572 0.722594 0.015044
O O1 0.913645 0.639926 0.631891
O O2 0.940932 0.524482 0.732060
O O3 0.800970 0.509456 0.718742
O O4 0.903923 0.600482 0.883713
O O5 0.865441 0.134560 0.833334
O O6 0.858236 0.137959 0.081330
O O7 0.789896 0.000000 0.000000
O O8 0.124583 0.875418 0.333334
O O9 0.255075 0.902439 0.441420
O O10 0.202612 0.000000 0.500000
O O11 0.376197 0.877471 0.419529
O O12 0.353753 0.786930 0.608544
O O13 0.229201 0.770800 0.333334
O O14 0.461088 0.730544 0.166667
O O15 0.359614 0.719227 0.000000
#
# Coordination Sequence:
#
# PCOD9584120 Si02
#       7
#    12  12  12   3   6  12  12
#     4  12  24  45  61  96 135 190 237 294 368 424
#     4  12  25  44  75 110 144 182 243 302 364 463
#     4  11  23  46  76 104 141 189 231 291 359 439
#     4  12  28  40  64  90 152 184 230 316 354 420
#     4  12  22  38  59  92 130 172 234 304 348 406
#     4  11  22  43  65  92 135 179 237 293 356 429
#     4  12  22  34  58  88 122 171 230 285 352 411
#
# _framework density 20.181543999999999
#
# number of rings (size 3 to 8) (size 9 to 14) (size 15 to 20)
#    0.000    0.348    7.826    3.130    0.000    0.000 
#    3.130    0.000    0.000    5.217    0.000    0.000 
#    0.000    0.000    0.000    0.000    0.000    0.000 
#
# Total GULP energy -384794.861654 kJ/mol
# GULP energy per Si atom -5576.737125 kJ/mol
# Density = 2.013561 g / cm^3
# Si number density = 20.181544 Si / 1000 Ang^3
#
#
#
# Elastic Constant Matrix: (Units=GPa)
#
#
# Indices 1 2 3 4 5 6 
#
# 1 14.5164 100.5826 39.0174 0.0000 0.0000 0.0000
# 2 100.5826 14.5164 39.0174 0.0000 0.0000 0.0000
# 3 39.0174 39.0174 142.5426 0.0000 0.0000 0.0000
# 4 0.0000 0.0000 0.0000 -2.0641 0.0000 0.0000
# 5 0.0000 0.0000 0.0000 0.0000 -2.0641 0.0000
# 6 0.0000 0.0000 0.0000 0.0000 0.0000 -43.0331
#
#
#
# Elastic Compliance Matrix: (Units=1/GPa)
#
#
# Indices 1 2 3 4 5 6 
#
# 1 -0.000476 0.011143 -0.002920 0.000000 0.000000 0.000000
# 2 0.011143 -0.000476 -0.002920 0.000000 0.000000 0.000000
# 3 -0.002920 -0.002920 0.008614 0.000000 0.000000 0.000000
# 4 0.000000 0.000000 0.000000 -0.484475 0.000000 0.000000
# 5 0.000000 0.000000 0.000000 0.000000 -0.484475 0.000000
# 6 0.000000 0.000000 0.000000 0.000000 0.000000 -0.023238
#
#
# Mechanical properties :
#
#
# Convention : Reuss Voigt Hill
#
# Bulk Modulus (GPa) = 54.73576 58.75670 56.74623
# Shear Modulus (GPa) = -5.05540 -9.90174 -7.47857
#
# Velocity S-wave (km/s) = -1.58442 -2.21743 -1.92709
# Velocity P-wave (km/s) = 4.88194 4.75619 4.81947
#
# Compressibility (1/GPa) = 0.01826959
#
# Stress axis : x y z
#
# Youngs Moduli (GPa) = -2102.98217 -2102.98217 116.08956
#
# Poissons Ratio (x) = 23.43445 0.33899
# Poissons Ratio (y) = 23.43445 0.33899
# Poissons Ratio (z) = -6.14086 -6.14086
#
# Static dielectric constant tensor:
#      x y z
#    x 2.081640 0.000000 0.000000 
#    y 0.000000 2.081640 0.000000 
#    z 0.000000 0.000000 1.843370 
# 
# From -- ./inp_files/3282.got.cif
#   From: 2010.05.17/outbox.cif.g08.bks.cpg/sg180_2_cif.got.tgz:3282.got - 2010.05.20 11:43:55.
