data_PCOD9584289
_publ_section_title
;
Structure prediction by ZEFSAII (Michael W. Deem and Ramdas Pophale) SiO2 
 PCOD9584289
Probable space group: P 64 2 2
;
_chemical_formula_sum "Si O2"
_cell_formula_units_Z 69
_cell_length_a 20.830014
_cell_length_b 20.830014
_cell_length_c 8.781431
_cell_angle_alpha 90.000000
_cell_angle_beta 90.000000
_cell_angle_gamma 120.000000
_cell_volume 3299.704497
_symmetry_space_group_name_H-M "P 64 2 2"
_symmetry_group_IT_number 181
_symmetry_cell_setting 'hexagonal'
loop_
_space_group_symop_operation_xyz
x,y,z
x-y,x,2/3+z
-y,x-y,1/3+z
-x,-y,z
-x+y,-x,2/3+z
y,-x+y,1/3+z
x-y,-y,-z
-x,-x+y,2/3-z
y,x,1/3-z
-y,-x,1/3-z
-x+y,y,-z
x,x-y,2/3-z
loop_
_atom_site_type_symbol
_atom_site_label
_atom_site_fract_x
_atom_site_fract_y
_atom_site_fract_z
Si Si1 0.511332 0.697388 0.136839
Si Si2 0.000000 0.500000 0.333334
Si Si3 0.645278 0.559804 0.460058
Si Si4 0.861902 0.226700 0.368824
Si Si5 0.304783 0.652392 0.833334
Si Si6 0.083025 0.831682 0.814359
Si Si7 0.937829 0.622189 0.003520
O O1 0.570871 0.781907 0.093368
O O2 0.434999 0.688276 0.185294
O O3 0.544584 0.669271 0.269732
O O4 0.502220 0.652145 0.982031
O O5 0.051968 0.573847 0.235312
O O6 0.723962 0.608833 0.548957
O O7 0.633097 0.614337 0.348545
O O8 0.859383 0.147214 0.387497
O O9 0.919124 0.282326 0.493473
O O10 0.341248 0.658753 0.666667
O O11 0.117951 0.882050 0.666667
O O12 0.070289 0.751849 0.763910
O O13 0.000000 0.817020 0.833334
#
# Coordination Sequence:
#
# PCOD9584289 Si02
#       7
#    12   3  12  12   6  12  12
#     4  11  25  42  65  91 124 177 224 284 350 422
#     4  12  28  40  58  96 136 184 216 300 360 422
#     4  12  24  41  64  95 133 173 224 285 358 427
#     4  10  20  39  64  93 131 170 216 280 350 410
#     4  12  30  50  69  94 126 180 254 308 354 436
#     4   9  18  33  60  93 132 174 216 274 340 417
#     4  10  19  40  64  93 131 164 218 275 347 423
#
# _framework density 20.910962000000001
#
# number of rings (size 3 to 8) (size 9 to 14) (size 15 to 20)
#    0.000    1.391    1.739    5.739    4.870    1.391 
#    0.000    0.000    0.000    0.000    0.000    0.000 
#    0.000   54.261    0.000    0.000    0.000    0.000 
#
# Total GULP energy -384966.529178 kJ/mol
# GULP energy per Si atom -5579.225061 kJ/mol
# Density = 2.086337 g / cm^3
# Si number density = 20.910962 Si / 1000 Ang^3
#
#
#
# Elastic Constant Matrix: (Units=GPa)
#
#
# Indices 1 2 3 4 5 6 
#
# 1 87.0538 27.9218 30.1741 0.0000 0.0000 0.0000
# 2 27.9218 87.0538 30.1741 0.0000 0.0000 0.0000
# 3 30.1741 30.1741 91.9856 0.0000 0.0000 0.0000
# 4 0.0000 0.0000 0.0000 36.0693 0.0000 0.0000
# 5 0.0000 0.0000 0.0000 0.0000 36.0693 0.0000
# 6 0.0000 0.0000 0.0000 0.0000 0.0000 29.5660
#
#
#
# Elastic Compliance Matrix: (Units=1/GPa)
#
#
# Indices 1 2 3 4 5 6 
#
# 1 0.013709 -0.003202 -0.003446 0.000000 0.000000 0.000000
# 2 -0.003202 0.013709 -0.003446 0.000000 0.000000 0.000000
# 3 -0.003446 -0.003446 0.013132 0.000000 0.000000 0.000000
# 4 0.000000 0.000000 0.000000 0.027724 0.000000 0.000000
# 5 0.000000 0.000000 0.000000 0.000000 0.027724 0.000000
# 6 0.000000 0.000000 0.000000 0.000000 0.000000 0.033823
#
#
# Mechanical properties :
#
#
# Convention : Reuss Voigt Hill
#
# Bulk Modulus (GPa) = 49.11714 49.18148 49.14931
# Shear Modulus (GPa) = 31.88799 32.19577 32.04188
#
# Velocity S-wave (km/s) = 3.90929 3.92811 3.91871
# Velocity P-wave (km/s) = 6.62694 6.64409 6.63552
#
# Compressibility (1/GPa) = 0.02035949
#
# Stress axis : x y z
#
# Youngs Moduli (GPa) = 72.94529 72.94529 76.14782
#
# Poissons Ratio (x) = 0.23360 0.26244
# Poissons Ratio (y) = 0.23360 0.26244
# Poissons Ratio (z) = 0.25140 0.25140
#
# Static dielectric constant tensor:
#      x y z
#    x 1.764920 0.000000 0.000000 
#    y 0.000000 1.764920 0.000000 
#    z 0.000000 0.000000 1.810000 
# 
# From -- ./inp_files/3216.got.cif
#   From: 2010.05.17/outbox.cif.g08.bks.cpg/sg181_2_cif.got.tgz:3216.got - 2010.05.20 11:51:17.
