data_PCOD9584843
_publ_section_title
;
Structure prediction by ZEFSAII (Michael W. Deem and Ramdas Pophale) SiO2 
 PCOD9584843
Probable space group: P 63 2 2
;
_chemical_formula_sum "Si O2"
_cell_formula_units_Z 58
_cell_length_a 13.704896
_cell_length_b 13.704896
_cell_length_c 18.561036
_cell_angle_alpha 90.000000
_cell_angle_beta 90.000000
_cell_angle_gamma 120.000000
_cell_volume 3019.147516
_symmetry_space_group_name_H-M "P 63 2 2"
_symmetry_group_IT_number 182
_symmetry_cell_setting 'hexagonal'
loop_
_space_group_symop_operation_xyz
x,y,z
x-y,x,1/2+z
-y,x-y,z
-x,-y,1/2+z
-x+y,-x,z
y,-x+y,1/2+z
x-y,-y,-z
-x,-x+y,-z
y,x,-z
-y,-x,1/2-z
-x+y,y,1/2-z
x,x-y,1/2-z
loop_
_atom_site_type_symbol
_atom_site_label
_atom_site_fract_x
_atom_site_fract_y
_atom_site_fract_z
Si Si1 0.307690 0.307690 0.500000
Si Si2 0.533108 0.466893 0.750000
Si Si3 0.333334 0.666668 0.837034
Si Si4 0.888922 0.774596 0.167200
Si Si5 0.411762 0.205881 0.750000
Si Si6 0.102581 0.656033 0.639902
Si Si7 0.127934 0.251821 0.386925
O O1 0.349267 0.398112 0.562943
O O2 0.193509 0.294750 0.462817
O O3 0.483980 0.336743 0.771089
O O4 0.447049 0.462688 0.689454
O O5 0.333334 0.666667 0.750000
O O6 0.346460 0.783160 0.862962
O O7 0.906277 0.812554 0.250000
O O8 0.779248 0.650052 0.167961
O O9 0.854897 0.855668 0.126287
O O10 0.998061 0.784824 0.127830
O O11 0.336228 0.143290 0.820215
#
# Coordination Sequence:
#
# PCOD9584843 Si02
#       7
#     6   6   4  12   6  12  12
#     4  10  24  50  60 102 148 188 220 298 350 440
#     4  12  23  46  70 102 132 185 234 306 342 424
#     4  12  24  42  72 105 117 181 236 292 345 414
#     4  11  19  37  65 102 135 175 220 289 336 420
#     4  12  23  42  68 104 128 179 242 294 342 416
#     4  11  25  43  68  94 142 172 238 286 351 415
#     4  11  22  38  69  99 145 178 226 278 364 415
#
# _framework density 19.210719999999998
#
# number of rings (size 3 to 8) (size 9 to 14) (size 15 to 20)
#    0.000    0.828    7.241    1.241    2.897    3.310 
#    3.724    0.000    0.000    0.000    0.000    0.000 
#    0.000    0.000    0.000    0.000    0.000    0.000 
#
# Total GULP energy -323532.541642 kJ/mol
# GULP energy per Si atom -5578.147270 kJ/mol
# Density = 1.916700 g / cm^3
# Si number density = 19.210720 Si / 1000 Ang^3
#
#
#
# Elastic Constant Matrix: (Units=GPa)
#
#
# Indices 1 2 3 4 5 6 
#
# 1 49.1641 131.4266 45.1451 0.0047 -0.0074 0.0463
# 2 131.4266 49.1454 45.1520 -0.0052 0.0079 -0.0493
# 3 45.1451 45.1520 129.6534 0.0002 -0.0004 0.0018
# 4 0.0047 -0.0052 0.0002 30.1761 -0.0007 -0.0077
# 5 -0.0074 0.0079 -0.0004 -0.0007 30.1744 -0.0050
# 6 0.0463 -0.0493 0.0018 -0.0077 -0.0050 -41.1362
#
#
#
# Elastic Compliance Matrix: (Units=1/GPa)
#
#
# Indices 1 2 3 4 5 6 
#
# 1 -0.002724 0.009430 -0.002336 0.000002 -0.000003 -0.000014
# 2 0.009430 -0.002726 -0.002334 -0.000002 0.000003 0.000014
# 3 -0.002336 -0.002334 0.009339 0.000000 0.000000 0.000001
# 4 0.000002 -0.000002 0.000000 0.033139 0.000001 -0.000006
# 5 -0.000003 0.000003 0.000000 0.000001 0.033141 -0.000004
# 6 -0.000014 0.000014 0.000001 -0.000006 -0.000004 -0.024310
#
#
# Mechanical properties :
#
#
# Convention : Reuss Voigt Hill
#
# Bulk Modulus (GPa) = 74.57250 74.60113 74.58681
# Shear Modulus (GPa) = 122.52238 4.25881 63.39060
#
# Velocity S-wave (km/s) = 7.99479 1.49054 5.75058
# Velocity P-wave (km/s) = 11.14112 6.47145 9.11055
#
# Compressibility (1/GPa) = 0.01340977
#
# Stress axis : x y z
#
# Youngs Moduli (GPa) = -367.12718 -366.86870 107.07751
#
# Poissons Ratio (x) = 3.45958 0.25009
# Poissons Ratio (y) = 3.46202 0.24995
# Poissons Ratio (z) = -0.85746 -0.85637
#
# Static dielectric constant tensor:
#      x y z
#    x 1.688480 0.000000 0.000000 
#    y 0.000000 1.688480 0.000000 
#    z 0.000000 0.000000 1.730440 
# 
# From -- ./inp_files/3522.got.cif
#   From: 2010.05.17/outbox.cif.g08.bks.cpg/sg182_2_cif.got.tgz:3522.got - 2010.05.20 11:58:53.
