data_PCOD9584861
_publ_section_title
;
Structure prediction by ZEFSAII (Michael W. Deem and Ramdas Pophale) SiO2 
 PCOD9584861
Probable space group: P 63 2 2
;
_chemical_formula_sum "Si O2"
_cell_formula_units_Z 60
_cell_length_a 13.784171
_cell_length_b 13.784171
_cell_length_c 14.654851
_cell_angle_alpha 90.000000
_cell_angle_beta 90.000000
_cell_angle_gamma 120.000000
_cell_volume 2411.422691
_symmetry_space_group_name_H-M "P 63 2 2"
_symmetry_group_IT_number 182
_symmetry_cell_setting 'hexagonal'
loop_
_space_group_symop_operation_xyz
x,y,z
x-y,x,1/2+z
-y,x-y,z
-x,-y,1/2+z
-x+y,-x,z
y,-x+y,1/2+z
x-y,-y,-z
-x,-x+y,-z
y,x,-z
-y,-x,1/2-z
-x+y,y,1/2-z
x,x-y,1/2-z
loop_
_atom_site_type_symbol
_atom_site_label
_atom_site_fract_x
_atom_site_fract_y
_atom_site_fract_z
Si Si1 0.238235 0.228578 0.783538
Si Si2 0.637066 0.556657 0.586619
Si Si3 0.986757 0.585073 0.358610
Si Si4 0.888177 0.112133 0.054029
Si Si5 0.187989 0.461441 0.000832
O O1 0.222028 0.111014 0.750000
O O2 0.332959 0.268099 0.863910
O O3 0.306158 0.331771 0.712174
O O4 0.126749 0.207182 0.839239
O O5 0.584056 0.584056 0.500000
O O6 0.533502 0.499741 0.657347
O O7 0.691513 0.481291 0.552302
O O8 0.089572 0.669521 0.424729
O O9 0.867981 0.513154 0.413274
O O10 0.808315 0.162897 0.039290
O O11 0.000000 0.196125 0.000000
O O12 0.851862 0.000000 0.000000
#
# Coordination Sequence:
#
# PCOD9584861 Si02
#       5
#    12  12  12  12  12
#     4  12  24  44  73 107 145 189 250 320 384 453
#     4  12  22  45  73 101 137 198 252 313 391 486
#     4  11  24  43  72 105 142 189 256 314 394 470
#     4  12  23  43  69  99 150 201 248 295 377 478
#     4  11  21  44  71  97 147 196 246 303 402 476
#
# _framework density 24.881575999999999
#
# number of rings (size 3 to 8) (size 9 to 14) (size 15 to 20)
#    0.000    0.400   10.000    0.800    0.000    0.800 
#    1.200    0.000    0.000    0.000    0.000    0.000 
#    0.000    0.000    0.000    0.000    0.000    0.000 
#
# Total GULP energy -334088.720966 kJ/mol
# GULP energy per Si atom -5568.145349 kJ/mol
# Density = 2.482494 g / cm^3
# Si number density = 24.881576 Si / 1000 Ang^3
#
#
#
# Elastic Constant Matrix: (Units=GPa)
#
#
# Indices 1 2 3 4 5 6 
#
# 1 106.5564 20.3655 13.7580 0.0000 0.0000 0.0000
# 2 20.3655 106.5564 13.7580 0.0000 0.0000 0.0000
# 3 13.7580 13.7580 132.7084 0.0000 0.0000 0.0000
# 4 0.0000 0.0000 0.0000 34.7714 0.0000 0.0000
# 5 0.0000 0.0000 0.0000 0.0000 34.7714 0.0000
# 6 0.0000 0.0000 0.0000 0.0000 0.0000 43.0954
#
#
#
# Elastic Compliance Matrix: (Units=1/GPa)
#
#
# Indices 1 2 3 4 5 6 
#
# 1 0.009831 -0.001771 -0.000836 0.000000 0.000000 0.000000
# 2 -0.001771 0.009831 -0.000836 0.000000 0.000000 0.000000
# 3 -0.000836 -0.000836 0.007709 0.000000 0.000000 0.000000
# 4 0.000000 0.000000 0.000000 0.028759 0.000000 0.000000
# 5 0.000000 0.000000 0.000000 0.000000 0.028759 0.000000
# 6 0.000000 0.000000 0.000000 0.000000 0.000000 0.023204
#
#
# Mechanical properties :
#
#
# Convention : Reuss Voigt Hill
#
# Bulk Modulus (GPa) = 48.81325 49.06491 48.93908
# Shear Modulus (GPa) = 41.04861 42.39030 41.71946
#
# Velocity S-wave (km/s) = 4.06613 4.13205 4.09922
# Velocity P-wave (km/s) = 6.45797 6.52129 6.48971
#
# Compressibility (1/GPa) = 0.02048624
#
# Stress axis : x y z
#
# Youngs Moduli (GPa) = 101.71815 101.71815 129.72571
#
# Poissons Ratio (x) = 0.18015 0.10840
# Poissons Ratio (y) = 0.18015 0.10840
# Poissons Ratio (z) = 0.08499 0.08499
#
# Static dielectric constant tensor:
#      x y z
#    x 2.096780 0.000000 0.000000 
#    y 0.000000 2.096780 0.000000 
#    z 0.000000 0.000000 2.098820 
# 
# From -- ./inp_files/3439.got.cif
#   From: 2010.05.17/outbox.cif.g08.bks.cpg/sg182_2_cif.got.tgz:3439.got - 2010.05.20 11:58:53.
