data_PCOD9584854
_publ_section_title
;
Structure prediction by ZEFSAII (Michael W. Deem and Ramdas Pophale) SiO2 
 PCOD9584854
Probable space group: P 63 2 2
;
_chemical_formula_sum "Si O2"
_cell_formula_units_Z 64
_cell_length_a 14.508438
_cell_length_b 14.508438
_cell_length_c 18.772745
_cell_angle_alpha 90.000000
_cell_angle_beta 90.000000
_cell_angle_gamma 120.000000
_cell_volume 3422.155416
_symmetry_space_group_name_H-M "P 63 2 2"
_symmetry_group_IT_number 182
_symmetry_cell_setting 'hexagonal'
loop_
_space_group_symop_operation_xyz
x,y,z
x-y,x,1/2+z
-y,x-y,z
-x,-y,1/2+z
-x+y,-x,z
y,-x+y,1/2+z
x-y,-y,-z
-x,-x+y,-z
y,x,-z
-y,-x,1/2-z
-x+y,y,1/2-z
x,x-y,1/2-z
loop_
_atom_site_type_symbol
_atom_site_label
_atom_site_fract_x
_atom_site_fract_y
_atom_site_fract_z
Si Si1 0.801477 0.229699 0.554414
Si Si2 0.473038 0.586666 0.831368
Si Si3 0.482535 0.560044 0.069188
Si Si4 0.571933 0.817623 0.887788
Si Si5 0.013038 0.219414 0.413132
Si Si6 0.000000 0.000000 0.413445
O O1 0.871944 0.356336 0.563353
O O2 0.679695 0.173009 0.575765
O O3 0.794115 0.210272 0.469646
O O4 0.867061 0.183297 0.595127
O O5 0.439831 0.560170 0.750000
O O6 0.535113 0.530685 0.861965
O O7 0.543012 0.712792 0.843128
O O8 0.363360 0.529265 0.877052
O O9 0.536645 0.536645 0.000000
O O10 0.683833 0.926418 0.875372
O O11 0.000000 0.219347 0.500000
O O12 0.998721 0.106324 0.391605
O O13 0.000000 0.000000 0.500000
#
# Coordination Sequence:
#
# PCOD9584854 Si02
#       6
#    12  12  12  12  12   4
#     4  11  20  36  62  93 123 161 208 265 318 376
#     4  12  25  40  61  96 130 169 209 260 337 396
#     4  12  22  39  63  94 128 165 214 266 323 394
#     4  11  20  38  61  89 129 160 205 266 321 382
#     4   9  19  32  55  86 127 158 199 258 313 370
#     4   9  18  30  48  87 124 155 193 249 316 359
#
# _framework density 18.701664999999998
#
# number of rings (size 3 to 8) (size 9 to 14) (size 15 to 20)
#    0.000    1.125    5.625    1.875    2.625    0.750 
#    0.000    0.938    0.000    0.000    0.000    0.000 
#    0.000    0.000    0.000    0.000    0.000    0.000 
#
# Total GULP energy -356978.291721 kJ/mol
# GULP energy per Si atom -5577.785808 kJ/mol
# Density = 1.865910 g / cm^3
# Si number density = 18.701665 Si / 1000 Ang^3
#
#
#
# Elastic Constant Matrix: (Units=GPa)
#
#
# Indices 1 2 3 4 5 6 
#
# 1 352.8650 -243.1899 17.4905 0.0000 0.0000 0.0000
# 2 -243.1899 352.8650 17.4905 0.0000 0.0000 0.0000
# 3 17.4905 17.4905 44.0043 0.0000 0.0000 0.0000
# 4 0.0000 0.0000 0.0000 2.4941 0.0000 0.0000
# 5 0.0000 0.0000 0.0000 0.0000 2.4941 0.0000
# 6 0.0000 0.0000 0.0000 0.0000 0.0000 298.0274
#
#
#
# Elastic Compliance Matrix: (Units=1/GPa)
#
#
# Indices 1 2 3 4 5 6 
#
# 1 0.006060 0.004382 -0.004150 0.000000 0.000000 0.000000
# 2 0.004382 0.006060 -0.004150 0.000000 0.000000 0.000000
# 3 -0.004150 -0.004150 0.026024 0.000000 0.000000 0.000000
# 4 0.000000 0.000000 0.000000 0.400952 0.000000 0.000000
# 5 0.000000 0.000000 0.000000 0.000000 0.400952 0.000000
# 6 0.000000 0.000000 0.000000 0.000000 0.000000 0.003355
#
#
# Mechanical properties :
#
#
# Convention : Reuss Voigt Hill
#
# Bulk Modulus (GPa) = 32.99627 37.03516 35.01571
# Shear Modulus (GPa) = 5.80489 124.46597 65.13543
#
# Velocity S-wave (km/s) = 1.76371 8.16688 5.90799
# Velocity P-wave (km/s) = 4.67219 10.42960 8.08103
#
# Compressibility (1/GPa) = 0.03030646
#
# Stress axis : x y z
#
# Youngs Moduli (GPa) = 165.02654 165.02654 38.42566
#
# Poissons Ratio (x) = -0.72314 0.15948
# Poissons Ratio (y) = -0.72314 0.15948
# Poissons Ratio (z) = 0.68490 0.68490
#
# Static dielectric constant tensor:
#      x y z
#    x 1.658570 0.000000 0.000000 
#    y 0.000000 1.658570 0.000000 
#    z 0.000000 0.000000 1.633110 
# 
# From -- ./inp_files/4285.got.cif
#   From: 2010.05.17/outbox.cif.g08.bks.cpg/sg182_3_cif.got.tgz:4285.got - 2010.05.20 11:58:53.
