data_PCOD9584363
_publ_section_title
;
Structure prediction by ZEFSAII (Michael W. Deem and Ramdas Pophale) SiO2 
 PCOD9584363
Probable space group: P 64 2 2
;
_chemical_formula_sum "Si O2"
_cell_formula_units_Z 84
_cell_length_a 17.878366
_cell_length_b 17.878366
_cell_length_c 15.060234
_cell_angle_alpha 90.000000
_cell_angle_beta 90.000000
_cell_angle_gamma 120.000000
_cell_volume 4168.866607
_symmetry_space_group_name_H-M "P 64 2 2"
_symmetry_group_IT_number 181
_symmetry_cell_setting 'hexagonal'
loop_
_space_group_symop_operation_xyz
x,y,z
x-y,x,2/3+z
-y,x-y,1/3+z
-x,-y,z
-x+y,-x,2/3+z
y,-x+y,1/3+z
x-y,-y,-z
-x,-x+y,2/3-z
y,x,1/3-z
-y,-x,1/3-z
-x+y,y,-z
x,x-y,2/3-z
loop_
_atom_site_type_symbol
_atom_site_label
_atom_site_fract_x
_atom_site_fract_y
_atom_site_fract_z
Si Si1 0.760950 0.640520 0.357413
Si Si2 0.239429 0.619715 0.833334
Si Si3 0.381412 0.905558 0.185042
Si Si4 0.575001 0.905989 0.501780
Si Si5 0.859033 0.307548 0.330246
Si Si6 0.643948 0.287896 0.000000
Si Si7 0.315142 0.238985 0.336426
Si Si8 0.102677 0.460402 0.131456
O O1 0.711218 0.574839 0.437399
O O2 0.711772 0.599187 0.265180
O O3 0.847925 0.635053 0.351345
O O4 0.747929 0.723895 0.365168
O O5 0.174611 0.656281 0.816518
O O6 0.300984 0.644151 0.749160
O O7 0.373826 0.916425 0.079778
O O8 0.436556 0.859700 0.210315
O O9 0.425244 0.002237 0.222486
O O10 0.644812 0.918806 0.427323
O O11 0.582965 0.000000 0.500000
O O12 0.772775 0.314294 0.315368
O O13 0.883755 0.330786 0.432535
O O14 0.272642 0.136321 0.333334
O O15 0.399429 0.278135 0.401880
#
# Coordination Sequence:
#
# PCOD9584363 Si02
#       8
#    12   6  12  12  12   6  12  12
#     4  10  22  38  52  80 106 139 180 232 288 336
#     4  12  27  40  48  76 108 142 194 232 286 331
#     4  10  21  36  57  78 108 144 188 229 282 330
#     4  10  22  39  57  73  99 137 181 235 283 330
#     4  12  21  37  54  77 112 144 184 235 281 325
#     4  12  28  34  53  76 108 150 192 236 282 332
#     4  10  22  37  60  79 101 139 184 233 290 345
#     4  10  21  36  57  81 104 144 190 232 275 336
#
# _framework density 20.149362
#
# number of rings (size 3 to 8) (size 9 to 14) (size 15 to 20)
#    0.000    1.429    2.857    1.929    5.000    1.143 
#    0.000    0.000    0.000    0.000    0.000    0.000 
#    0.000    2.286    0.000   16.000    0.000   10.571 
#
# Total GULP energy -468241.842924 kJ/mol
# GULP energy per Si atom -5574.307654 kJ/mol
# Density = 2.010350 g / cm^3
# Si number density = 20.149362 Si / 1000 Ang^3
#
#
#
# Elastic Constant Matrix: (Units=GPa)
#
#
# Indices 1 2 3 4 5 6 
#
# 1 62.9311 32.0207 -5.4742 0.0000 0.0000 0.0000
# 2 32.0207 62.9311 -5.4742 0.0000 0.0000 0.0000
# 3 -5.4742 -5.4742 56.1679 0.0000 0.0000 0.0000
# 4 0.0000 0.0000 0.0000 23.2650 0.0000 0.0000
# 5 0.0000 0.0000 0.0000 0.0000 23.2650 0.0000
# 6 0.0000 0.0000 0.0000 0.0000 0.0000 15.4552
#
#
#
# Elastic Compliance Matrix: (Units=1/GPa)
#
#
# Indices 1 2 3 4 5 6 
#
# 1 0.021501 -0.010850 0.001038 0.000000 0.000000 0.000000
# 2 -0.010850 0.021501 0.001038 0.000000 0.000000 0.000000
# 3 0.001038 0.001038 0.018006 0.000000 0.000000 0.000000
# 4 0.000000 0.000000 0.000000 0.042983 0.000000 0.000000
# 5 0.000000 0.000000 0.000000 0.000000 0.042983 0.000000
# 6 0.000000 0.000000 0.000000 0.000000 0.000000 0.064703
#
#
# Mechanical properties :
#
#
# Convention : Reuss Voigt Hill
#
# Bulk Modulus (GPa) = 23.00899 24.90827 23.95863
# Shear Modulus (GPa) = 20.51594 23.12758 21.82176
#
# Velocity S-wave (km/s) = 3.19438 3.39161 3.29447
# Velocity P-wave (km/s) = 5.00494 5.26555 5.13689
#
# Compressibility (1/GPa) = 0.04346127
#
# Stress axis : x y z
#
# Youngs Moduli (GPa) = 46.50849 46.50849 55.53664
#
# Poissons Ratio (x) = 0.50462 -0.05765
# Poissons Ratio (y) = 0.50462 -0.05765
# Poissons Ratio (z) = -0.04828 -0.04828
#
# Static dielectric constant tensor:
#      x y z
#    x 1.854680 0.000000 0.000000 
#    y 0.000000 1.854680 0.000000 
#    z 0.000000 0.000000 1.733270 
# 
# From -- ./inp_files/6526.got.cif
#   From: 2010.05.17/outbox.cif.g08.bks.cpg/sg181_4_cif.got.tgz:6526.got - 2010.05.20 11:51:17.
