data_PCOD9584800
_publ_section_title
;
Structure prediction by ZEFSAII (Michael W. Deem and Ramdas Pophale) SiO2 
 PCOD9584800
Probable space group: P 63 2 2
;
_chemical_formula_sum "Si O2"
_cell_formula_units_Z 64
_cell_length_a 14.114993
_cell_length_b 14.114993
_cell_length_c 18.016338
_cell_angle_alpha 90.000000
_cell_angle_beta 90.000000
_cell_angle_gamma 120.000000
_cell_volume 3108.554506
_symmetry_space_group_name_H-M "P 63 2 2"
_symmetry_group_IT_number 182
_symmetry_cell_setting 'hexagonal'
loop_
_space_group_symop_operation_xyz
x,y,z
x-y,x,1/2+z
-y,x-y,z
-x,-y,1/2+z
-x+y,-x,z
y,-x+y,1/2+z
x-y,-y,-z
-x,-x+y,-z
y,x,-z
-y,-x,1/2-z
-x+y,y,1/2-z
x,x-y,1/2-z
loop_
_atom_site_type_symbol
_atom_site_label
_atom_site_fract_x
_atom_site_fract_y
_atom_site_fract_z
Si Si1 0.788858 0.640974 0.972862
Si Si2 0.536382 0.536382 0.000000
Si Si3 0.000000 0.000000 0.339696
Si Si4 0.528483 0.056965 0.750000
Si Si5 0.639107 0.583964 0.619142
Si Si6 0.624243 0.912237 0.749234
Si Si7 0.228240 0.058574 0.113133
O O1 0.658904 0.557310 0.984753
O O2 0.861311 0.599886 0.931216
O O3 0.797070 0.741214 0.924330
O O4 0.835382 0.689387 0.054047
O O5 0.460733 0.469049 0.930805
O O6 0.000000 0.000000 0.250000
O O7 0.934777 0.878975 0.372607
O O8 0.563734 0.973233 0.715863
O O9 0.506430 0.118143 0.684133
O O10 0.657491 0.686878 0.670206
O O11 0.561164 0.780582 0.750000
O O12 0.721638 0.783607 0.806710
#
# Coordination Sequence:
#
# PCOD9584800 Si02
#       7
#    12   6   4   6  12  12  12
#     4  10  24  42  71  95 141 188 222 298 360 419
#     4  10  22  46  62 108 138 176 250 294 346 452
#     4  12  27  37  62 100 138 184 230 289 327 430
#     4   8  20  40  64  98 132 178 240 286 336 440
#     4  10  23  42  73  97 137 189 230 292 368 417
#     4  10  22  41  66 100 139 182 232 288 352 422
#     4  10  24  43  61  99 143 177 234 278 346 433
#
# _framework density 20.588348
#
# number of rings (size 3 to 8) (size 9 to 14) (size 15 to 20)
#    1.125    1.125    0.000    2.812    7.875    3.000 
#    1.688    0.000    0.000    4.500    0.000    0.000 
#    0.000    0.000    0.000    0.000    0.000    0.000 
#
# Total GULP energy -356318.509455 kJ/mol
# GULP energy per Si atom -5567.476710 kJ/mol
# Density = 2.054149 g / cm^3
# Si number density = 20.588348 Si / 1000 Ang^3
#
#
#
# Elastic Constant Matrix: (Units=GPa)
#
#
# Indices 1 2 3 4 5 6 
#
# 1 76.9718 47.2796 68.1505 0.0000 0.0000 0.0000
# 2 47.2796 76.9718 68.1505 0.0000 0.0000 0.0000
# 3 68.1505 68.1505 161.3668 0.0000 0.0000 0.0000
# 4 0.0000 0.0000 0.0000 31.3364 0.0000 0.0000
# 5 0.0000 0.0000 0.0000 0.0000 31.3364 0.0000
# 6 0.0000 0.0000 0.0000 0.0000 0.0000 14.8461
#
#
#
# Elastic Compliance Matrix: (Units=1/GPa)
#
#
# Indices 1 2 3 4 5 6 
#
# 1 0.024337 -0.009342 -0.006333 0.000000 0.000000 0.000000
# 2 -0.009342 0.024337 -0.006333 0.000000 0.000000 0.000000
# 3 -0.006333 -0.006333 0.011546 0.000000 0.000000 0.000000
# 4 0.000000 0.000000 0.000000 0.031912 0.000000 0.000000
# 5 0.000000 0.000000 0.000000 0.000000 0.031912 0.000000
# 6 0.000000 0.000000 0.000000 0.000000 0.000000 0.067358
#
#
# Mechanical properties :
#
#
# Convention : Reuss Voigt Hill
#
# Bulk Modulus (GPa) = 61.70938 75.83017 68.76978
# Shear Modulus (GPa) = 20.76243 24.28576 22.52410
#
# Velocity S-wave (km/s) = 3.17906 3.43824 3.31119
# Velocity P-wave (km/s) = 6.59646 7.25765 6.93494
#
# Compressibility (1/GPa) = 0.01620499
#
# Stress axis : x y z
#
# Youngs Moduli (GPa) = 41.08939 41.08939 86.60724
#
# Poissons Ratio (x) = 0.38385 0.54849
# Poissons Ratio (y) = 0.38385 0.54849
# Poissons Ratio (z) = 0.26022 0.26022
#
# Static dielectric constant tensor:
#      x y z
#    x 1.815730 0.000000 0.000000 
#    y 0.000000 1.815730 0.000000 
#    z 0.000000 0.000000 1.782300 
# 
# From -- ./inp_files/4319.got.cif
#   From: 2010.05.17/outbox.cif.g08.bks.cpg/sg182_3_cif.got.tgz:4319.got - 2010.05.20 11:58:53.
