data_PCOD9584658
_publ_section_title
;
Structure prediction by ZEFSAII (Michael W. Deem and Ramdas Pophale) SiO2 
 PCOD9584658
Probable space group: P 63 2 2
;
_chemical_formula_sum "Si O2"
_cell_formula_units_Z 36
_cell_length_a 11.131814
_cell_length_b 11.131814
_cell_length_c 13.663585
_cell_angle_alpha 90.000000
_cell_angle_beta 90.000000
_cell_angle_gamma 120.000000
_cell_volume 1466.314661
_symmetry_space_group_name_H-M "P 63 2 2"
_symmetry_group_IT_number 182
_symmetry_cell_setting 'hexagonal'
loop_
_space_group_symop_operation_xyz
x,y,z
x-y,x,1/2+z
-y,x-y,z
-x,-y,1/2+z
-x+y,-x,z
y,-x+y,1/2+z
x-y,-y,-z
-x,-x+y,-z
y,x,-z
-y,-x,1/2-z
-x+y,y,1/2-z
x,x-y,1/2-z
loop_
_atom_site_type_symbol
_atom_site_label
_atom_site_fract_x
_atom_site_fract_y
_atom_site_fract_z
Si Si1 0.718513 0.927455 0.850749
Si Si2 0.481452 0.561399 0.358900
Si Si3 0.646039 0.794422 0.058347
O O1 0.731550 0.865775 0.750000
O O2 0.583115 0.947610 0.846951
O O3 0.842950 0.084937 0.870667
O O4 0.703561 0.841298 0.949147
O O5 0.431689 0.568312 0.250000
O O6 0.361663 0.421938 0.404834
O O7 0.517176 0.693299 0.426319
#
# Coordination Sequence:
#
# PCOD9584658 Si02
#       3
#    12  12  12
#     4   9  21  37  57  92 142 194 255 317 382 453
#     4  10  19  35  64  92 136 200 253 297 379 458
#     4   9  20  37  59  91 134 198 257 310 379 461
#
# _framework density 24.551348999999998
#
# number of rings (size 3 to 8) (size 9 to 14) (size 15 to 20)
#    2.000    0.667    0.000    1.667    0.000    5.333 
#    0.000    0.000    0.000    0.667    0.000    0.000 
#   13.333    0.000   45.333    0.000    0.000    0.667 
#
# Total GULP energy -200829.778223 kJ/mol
# GULP energy per Si atom -5578.604951 kJ/mol
# Density = 2.449547 g / cm^3
# Si number density = 24.551349 Si / 1000 Ang^3
#
#
#
# Elastic Constant Matrix: (Units=GPa)
#
#
# Indices 1 2 3 4 5 6 
#
# 1 99.1558 41.6251 67.9609 0.0000 0.0000 0.0000
# 2 41.6251 99.1558 67.9609 0.0000 0.0000 0.0000
# 3 67.9609 67.9609 231.7256 0.0000 0.0000 0.0000
# 4 0.0000 0.0000 0.0000 40.9771 0.0000 0.0000
# 5 0.0000 0.0000 0.0000 0.0000 40.9771 0.0000
# 6 0.0000 0.0000 0.0000 0.0000 0.0000 28.7653
#
#
#
# Elastic Compliance Matrix: (Units=1/GPa)
#
#
# Indices 1 2 3 4 5 6 
#
# 1 0.013646 -0.003736 -0.002906 0.000000 0.000000 0.000000
# 2 -0.003736 0.013646 -0.002906 0.000000 0.000000 0.000000
# 3 -0.002906 -0.002906 0.006020 0.000000 0.000000 0.000000
# 4 0.000000 0.000000 0.000000 0.024404 0.000000 0.000000
# 5 0.000000 0.000000 0.000000 0.000000 0.024404 0.000000
# 6 0.000000 0.000000 0.000000 0.000000 0.000000 0.034764
#
#
# Mechanical properties :
#
#
# Convention : Reuss Voigt Hill
#
# Bulk Modulus (GPa) = 70.35496 87.23680 78.79588
# Shear Modulus (GPa) = 35.53195 38.97660 37.25427
#
# Velocity S-wave (km/s) = 3.80840 3.98874 3.89961
# Velocity P-wave (km/s) = 6.93232 7.53809 7.24154
#
# Compressibility (1/GPa) = 0.01421364
#
# Stress axis : x y z
#
# Youngs Moduli (GPa) = 73.28394 73.28394 166.11040
#
# Poissons Ratio (x) = 0.27382 0.48274
# Poissons Ratio (y) = 0.27382 0.48274
# Poissons Ratio (z) = 0.21297 0.21297
#
# Static dielectric constant tensor:
#      x y z
#    x 2.056830 0.000000 0.000000 
#    y 0.000000 2.056830 0.000000 
#    z 0.000000 0.000000 1.960880 
# 
# From -- ./inp_files/3022.got.cif
#   From: 2010.05.17/outbox.cif.g08.bks.cpg/sg182_2_cif.got.tgz:3022.got - 2010.05.20 11:58:53.
