data_PCOD9584154
_publ_section_title
;
Structure prediction by ZEFSAII (Michael W. Deem and Ramdas Pophale) SiO2 
 PCOD9584154
Probable space group: P 62 2 2
;
_chemical_formula_sum "Si O2"
_cell_formula_units_Z 54
_cell_length_a 11.782678
_cell_length_b 11.782678
_cell_length_c 19.984453
_cell_angle_alpha 90.000000
_cell_angle_beta 90.000000
_cell_angle_gamma 120.000000
_cell_volume 2402.762891
_symmetry_space_group_name_H-M "P 62 2 2"
_symmetry_group_IT_number 180
_symmetry_cell_setting 'hexagonal'
loop_
_space_group_symop_operation_xyz
x,y,z
x-y,x,1/3+z
-y,x-y,2/3+z
-x,-y,z
-x+y,-x,1/3+z
y,-x+y,2/3+z
x-y,-y,-z
-x,-x+y,1/3-z
y,x,2/3-z
-y,-x,2/3-z
-x+y,y,-z
x,x-y,1/3-z
loop_
_atom_site_type_symbol
_atom_site_label
_atom_site_fract_x
_atom_site_fract_y
_atom_site_fract_z
Si Si1 0.759936 0.832360 0.768990
Si Si2 0.529819 0.198377 0.066911
Si Si3 0.000000 0.500000 0.485271
Si Si4 0.723404 0.224568 0.255473
Si Si5 0.747740 0.847241 0.022122
O O1 0.841403 0.841403 0.833334
O O2 0.604810 0.756652 0.785413
O O3 0.775697 0.744939 0.712827
O O4 0.814444 0.978001 0.738217
O O5 0.650000 0.342568 0.084927
O O6 0.396587 0.198150 0.049243
O O7 0.497584 0.103846 0.130140
O O8 0.578091 0.156182 0.000000
O O9 0.920309 0.380674 0.435611
O O10 0.762997 0.237004 0.333334
O O11 0.819906 0.000000 0.000000
#
# Coordination Sequence:
#
# PCOD9584154 Si02
#       5
#    12  12   6  12  12
#     4  11  25  45  72 104 154 200 255 312 383 477
#     4  11  26  48  80 111 153 196 261 334 387 471
#     4  12  25  48  76 114 147 198 260 322 392 464
#     4  11  25  48  71 105 149 202 255 312 390 460
#     4  11  24  46  72 115 150 198 253 320 392 458
#
# _framework density 22.474129000000001
#
# number of rings (size 3 to 8) (size 9 to 14) (size 15 to 20)
#    0.000    0.889    2.222    5.000    6.222    1.778 
#    0.000    0.000    0.000    0.000    0.000    0.000 
#    0.000    0.000    0.000    0.000    0.000    0.000 
#
# Total GULP energy -301709.684992 kJ/mol
# GULP energy per Si atom -5587.216389 kJ/mol
# Density = 2.242298 g / cm^3
# Si number density = 22.474129 Si / 1000 Ang^3
#
#
#
# Elastic Constant Matrix: (Units=GPa)
#
#
# Indices 1 2 3 4 5 6 
#
# 1 101.3422 50.8483 47.5032 0.0000 0.0000 0.0000
# 2 50.8483 101.3422 47.5032 0.0000 0.0000 0.0000
# 3 47.5032 47.5032 142.6775 0.0000 0.0000 0.0000
# 4 0.0000 0.0000 0.0000 17.1137 0.0000 0.0000
# 5 0.0000 0.0000 0.0000 0.0000 17.1137 0.0000
# 6 0.0000 0.0000 0.0000 0.0000 0.0000 25.2469
#
#
#
# Elastic Compliance Matrix: (Units=1/GPa)
#
#
# Indices 1 2 3 4 5 6 
#
# 1 0.014050 -0.005755 -0.002762 0.000000 0.000000 0.000000
# 2 -0.005755 0.014050 -0.002762 0.000000 0.000000 0.000000
# 3 -0.002762 -0.002762 0.008848 0.000000 0.000000 0.000000
# 4 0.000000 0.000000 0.000000 0.058433 0.000000 0.000000
# 5 0.000000 0.000000 0.000000 0.000000 0.058433 0.000000
# 6 0.000000 0.000000 0.000000 0.000000 0.000000 0.039609
#
#
# Mechanical properties :
#
#
# Convention : Reuss Voigt Hill
#
# Bulk Modulus (GPa) = 69.49004 70.78572 70.13788
# Shear Modulus (GPa) = 22.64759 25.19535 23.92147
#
# Velocity S-wave (km/s) = 3.17790 3.35189 3.26605
# Velocity P-wave (km/s) = 6.66727 6.82240 6.74528
#
# Compressibility (1/GPa) = 0.01439055
#
# Stress axis : x y z
#
# Youngs Moduli (GPa) = 71.17674 71.17674 113.02320
#
# Poissons Ratio (x) = 0.40961 0.31213
# Poissons Ratio (y) = 0.40961 0.31213
# Poissons Ratio (z) = 0.19656 0.19656
#
# Static dielectric constant tensor:
#      x y z
#    x 1.882810 0.000000 0.000000 
#    y 0.000000 1.882810 0.000000 
#    z 0.000000 0.000000 1.819760 
# 
# From -- ./inp_files/8883.got.cif
#   From: 2010.05.17/outbox.cif.g08.bks.cpg/sg180_5_cif.got.tgz:8883.got - 2010.05.20 11:43:55.
