data_PCOD9584055
_publ_section_title
;
Structure prediction by ZEFSAII (Michael W. Deem and Ramdas Pophale) SiO2 
 PCOD9584055
Probable space group: P 62 2 2
;
_chemical_formula_sum "Si O2"
_cell_formula_units_Z 78
_cell_length_a 26.199235
_cell_length_b 26.199235
_cell_length_c 9.208048
_cell_angle_alpha 90.000000
_cell_angle_beta 90.000000
_cell_angle_gamma 120.000000
_cell_volume 5473.629873
_symmetry_space_group_name_H-M "P 62 2 2"
_symmetry_group_IT_number 180
_symmetry_cell_setting 'hexagonal'
loop_
_space_group_symop_operation_xyz
x,y,z
x-y,x,1/3+z
-y,x-y,2/3+z
-x,-y,z
-x+y,-x,1/3+z
y,-x+y,2/3+z
x-y,-y,-z
-x,-x+y,1/3-z
y,x,2/3-z
-y,-x,2/3-z
-x+y,y,-z
x,x-y,1/3-z
loop_
_atom_site_type_symbol
_atom_site_label
_atom_site_fract_x
_atom_site_fract_y
_atom_site_fract_z
Si Si1 0.776217 0.388109 0.666667
Si Si2 0.385896 0.504737 0.488290
Si Si3 0.544085 0.270287 0.823087
Si Si4 0.739103 0.582005 0.055105
Si Si5 0.345226 0.942130 0.083059
Si Si6 0.506179 0.559838 0.623304
Si Si7 0.487149 0.348534 0.852865
O O1 0.818353 0.378562 0.778952
O O2 0.739526 0.325086 0.594620
O O3 0.358365 0.454128 0.367931
O O4 0.456028 0.535283 0.501320
O O5 0.362449 0.478858 0.649351
O O6 0.573643 0.286822 0.666667
O O7 0.481491 0.207778 0.793345
O O8 0.529854 0.321050 0.864736
O O9 0.715101 0.611571 0.168106
O O10 0.806087 0.612173 0.000000
O O11 0.701372 0.567223 0.906692
O O12 0.395836 0.962436 0.207830
O O13 0.353979 0.000000 0.000000
O O14 0.500000 0.500000 0.682496
O O15 0.493443 0.596613 0.743633
#
# Coordination Sequence:
#
# PCOD9584055 Si02
#       7
#     6  12  12  12  12  12  12
#     4  12  20  32  57  66  78 110 146 172 222 248
#     4  12  20  30  47  69  86 104 131 175 213 260
#     4   9  18  36  53  62  81 108 141 174 206 256
#     4   8  16  36  51  65  86 118 137 160 208 261
#     4  11  19  31  47  71  93 105 133 174 210 253
#     4  11  20  33  46  65  88 110 125 154 217 279
#     4   9  21  33  47  62  83 106 134 165 199 257
#
# _framework density 14.250140999999999
#
# number of rings (size 3 to 8) (size 9 to 14) (size 15 to 20)
#    0.000    2.154    4.615    2.308    0.000    1.846 
#    0.000    0.000   13.538    0.000    0.000    0.000 
#    0.000    0.000    0.000    0.000    0.000    0.000 
#
# Total GULP energy -434314.587895 kJ/mol
# GULP energy per Si atom -5568.135742 kJ/mol
# Density = 1.421771 g / cm^3
# Si number density = 14.250141 Si / 1000 Ang^3
#
#
#
# Elastic Constant Matrix: (Units=GPa)
#
#
# Indices 1 2 3 4 5 6 
#
# 1 57.1337 23.2313 26.1023 0.0000 0.0000 0.0000
# 2 23.2313 57.1337 26.1023 0.0000 0.0000 0.0000
# 3 26.1023 26.1023 79.5116 0.0000 0.0000 0.0000
# 4 0.0000 0.0000 0.0000 16.1048 0.0000 0.0000
# 5 0.0000 0.0000 0.0000 0.0000 16.1048 0.0000
# 6 0.0000 0.0000 0.0000 0.0000 0.0000 16.9512
#
#
#
# Elastic Compliance Matrix: (Units=1/GPa)
#
#
# Indices 1 2 3 4 5 6 
#
# 1 0.022656 -0.006840 -0.005192 0.000000 0.000000 0.000000
# 2 -0.006840 0.022656 -0.005192 0.000000 0.000000 0.000000
# 3 -0.005192 -0.005192 0.015986 0.000000 0.000000 0.000000
# 4 0.000000 0.000000 0.000000 0.062093 0.000000 0.000000
# 5 0.000000 0.000000 0.000000 0.000000 0.062093 0.000000
# 6 0.000000 0.000000 0.000000 0.000000 0.000000 0.058993
#
#
# Mechanical properties :
#
#
# Convention : Reuss Voigt Hill
#
# Bulk Modulus (GPa) = 37.24497 38.29454 37.76975
# Shear Modulus (GPa) = 17.36855 17.72168 17.54512
#
# Velocity S-wave (km/s) = 3.49497 3.53032 3.51269
# Velocity P-wave (km/s) = 6.51764 6.59916 6.55853
#
# Compressibility (1/GPa) = 0.02684927
#
# Stress axis : x y z
#
# Youngs Moduli (GPa) = 44.13795 44.13795 62.55567
#
# Poissons Ratio (x) = 0.30191 0.32480
# Poissons Ratio (y) = 0.30191 0.32480
# Poissons Ratio (z) = 0.22917 0.22917
#
# Static dielectric constant tensor:
#      x y z
#    x 2.103290 0.000000 0.000000 
#    y 0.000000 2.103290 0.000000 
#    z 0.000000 0.000000 1.563770 
# 
# From -- ./inp_files/3490.got.cif
#   From: 2010.05.17/outbox.cif.g08.bks.cpg/sg180_2_cif.got.tgz:3490.got - 2010.05.20 11:43:55.
