data_PCOD9584946
_publ_section_title
;
Structure prediction by ZEFSAII (Michael W. Deem and Ramdas Pophale) SiO2 
 PCOD9584946
Probable space group: P 6 M M
;
_chemical_formula_sum "Si O2"
_cell_formula_units_Z 84
_cell_length_a 22.911987
_cell_length_b 22.911987
_cell_length_c 12.574639
_cell_angle_alpha 90.000000
_cell_angle_beta 90.000000
_cell_angle_gamma 120.000000
_cell_volume 5716.782456
_symmetry_space_group_name_H-M "P 6 M M"
_symmetry_group_IT_number 183
_symmetry_cell_setting 'hexagonal'
loop_
_space_group_symop_operation_xyz
x,y,z
x-y,x,z
-y,x-y,z
-x,-y,z
-x+y,-x,z
y,-x+y,z
-x+y,y,z
x,x-y,z
-y,-x,z
y,x,z
x-y,-y,z
-x,-x+y,z
loop_
_atom_site_type_symbol
_atom_site_label
_atom_site_fract_x
_atom_site_fract_y
_atom_site_fract_z
Si Si1 0.712337 0.789071 0.628360
Si Si2 0.922508 0.530738 0.773894
Si Si3 0.803499 0.333686 0.142292
Si Si4 0.432147 0.285007 0.953294
Si Si5 0.661632 0.078839 0.540950
Si Si6 0.472184 0.666607 0.393484
Si Si7 0.923936 0.209322 0.880833
O O1 0.729299 0.864650 0.605142
O O2 0.771271 0.771271 0.609581
O O3 0.647498 0.734986 0.562960
O O4 0.695723 0.776928 0.754987
O O5 0.917502 0.458751 0.777189
O O6 0.873936 0.535408 0.859247
O O7 0.909534 0.546253 0.654801
O O8 0.000000 0.586450 0.799735
O O9 0.809914 0.404957 0.115295
O O10 0.726439 0.273562 0.127715
O O11 0.818900 0.333757 0.267031
O O12 0.848428 0.316884 0.064306
O O13 0.440808 0.220404 0.932519
O O14 0.352268 0.256120 0.947993
O O15 0.663375 0.132796 0.458892
O O16 0.611935 0.000000 0.511328
O O17 0.470447 0.735224 0.417055
O O18 0.399497 0.600504 0.415660
O O19 0.867820 0.132180 0.900150
O O20 0.000000 0.228679 0.901451
#
# Coordination Sequence:
#
# PCOD9584946 Si02
#       7
#    12  12  12  12  12  12  12
#     4   9  16  27  45  68  92 118 149 182 219 264
#     4  10  19  30  44  62  86 115 144 176 218 267
#     4   9  18  32  48  65  85 115 154 194 234 274
#     4  10  18  28  45  66  88 112 143 184 226 269
#     4  10  19  31  47  67  92 120 150 187 231 274
#     4  10  20  34  51  67  87 117 156 197 235 279
#     4   9  16  27  44  66  91 117 146 180 217 262
#
# _framework density 14.693580000000001
#
# number of rings (size 3 to 8) (size 9 to 14) (size 15 to 20)
#    0.000    2.429    1.429    2.000    0.000    2.571 
#    0.000    1.429    0.000    2.286    0.000    2.000 
#    0.000    0.000    0.000    0.000    0.000    0.000 
#
# Total GULP energy -468083.531396 kJ/mol
# GULP energy per Si atom -5572.422993 kJ/mol
# Density = 1.466014 g / cm^3
# Si number density = 14.693580 Si / 1000 Ang^3
#
#
#
# Elastic Constant Matrix: (Units=GPa)
#
#
# Indices 1 2 3 4 5 6 
#
# 1 98.8689 67.4910 51.9015 0.0000 0.0000 0.0000
# 2 67.4910 98.8689 51.9015 0.0000 0.0000 0.0000
# 3 51.9015 51.9015 53.0660 0.0000 0.0000 0.0000
# 4 0.0000 0.0000 0.0000 22.3255 0.0000 0.0000
# 5 0.0000 0.0000 0.0000 0.0000 22.3255 0.0000
# 6 0.0000 0.0000 0.0000 0.0000 0.0000 15.6890
#
#
#
# Elastic Compliance Matrix: (Units=1/GPa)
#
#
# Indices 1 2 3 4 5 6 
#
# 1 0.023647 -0.008223 -0.015085 0.000000 0.000000 0.000000
# 2 -0.008223 0.023647 -0.015085 0.000000 0.000000 0.000000
# 3 -0.015085 -0.015085 0.048353 0.000000 0.000000 0.000000
# 4 0.000000 0.000000 0.000000 0.044792 0.000000 0.000000
# 5 0.000000 0.000000 0.000000 0.000000 0.044792 0.000000
# 6 0.000000 0.000000 0.000000 0.000000 0.000000 0.063739
#
#
# Mechanical properties :
#
#
# Convention : Reuss Voigt Hill
#
# Bulk Modulus (GPa) = 53.02423 65.93242 59.47832
# Shear Modulus (GPa) = 15.05832 17.36866 16.21349
#
# Velocity S-wave (km/s) = 3.20476 3.44184 3.32541
# Velocity P-wave (km/s) = 7.06109 7.79513 7.43717
#
# Compressibility (1/GPa) = 0.01885930
#
# Stress axis : x y z
#
# Youngs Moduli (GPa) = 42.28929 42.28929 20.68124
#
# Poissons Ratio (x) = 0.34774 0.31198
# Poissons Ratio (y) = 0.34774 0.31198
# Poissons Ratio (z) = 0.63795 0.63795
#
# Static dielectric constant tensor:
#      x y z
#    x 1.483900 0.000000 0.000000 
#    y 0.000000 1.483900 0.000000 
#    z 0.000000 0.000000 1.469030 
# 
# From -- ./inp_files/1740.got.cif
#   From: 2010.05.17/outbox.cif.g08.bks.cpg/sg183_1_cif.got.tgz:1740.got - 2010.05.20 12:02:58.
