data_PCOD9584138
_publ_section_title
;
Structure prediction by ZEFSAII (Michael W. Deem and Ramdas Pophale) SiO2 
 PCOD9584138
Probable space group: P 62 2 2
;
_chemical_formula_sum "Si O2"
_cell_formula_units_Z 45
_cell_length_a 11.783726
_cell_length_b 11.783726
_cell_length_c 17.485352
_cell_angle_alpha 90.000000
_cell_angle_beta 90.000000
_cell_angle_gamma 120.000000
_cell_volume 2102.665952
_symmetry_space_group_name_H-M "P 62 2 2"
_symmetry_group_IT_number 180
_symmetry_cell_setting 'hexagonal'
loop_
_space_group_symop_operation_xyz
x,y,z
x-y,x,1/3+z
-y,x-y,2/3+z
-x,-y,z
-x+y,-x,1/3+z
y,-x+y,2/3+z
x-y,-y,-z
-x,-x+y,1/3-z
y,x,2/3-z
-y,-x,2/3-z
-x+y,y,-z
x,x-y,1/3-z
loop_
_atom_site_type_symbol
_atom_site_label
_atom_site_fract_x
_atom_site_fract_y
_atom_site_fract_z
Si Si1 0.210708 0.593536 0.894863
Si Si2 0.500000 0.000000 0.500000
Si Si3 0.315407 0.000000 0.000000
Si Si4 0.608474 0.707045 0.972748
Si Si5 0.000000 0.500000 0.783487
Si Si6 0.598015 0.799008 0.666667
O O1 0.301248 0.698753 0.833334
O O2 0.263364 0.505874 0.931409
O O3 0.097269 0.490600 0.840945
O O4 0.158058 0.651278 0.961797
O O5 0.375602 0.924134 0.560387
O O6 0.373981 0.944698 0.935961
O O7 0.323959 0.133518 0.969120
O O8 0.721900 0.677053 0.000900
#
# Coordination Sequence:
#
# PCOD9584138 Si02
#       6
#    12   3   6  12   6   6
#     4  12  25  44  74 106 145 186 253 327 386 452
#     4  12  26  48  74 114 152 202 268 324 382 484
#     4  11  28  45  68 110 150 201 256 303 392 478
#     4  12  27  47  72 111 155 204 254 321 392 469
#     4  11  23  44  69  97 140 190 244 311 373 454
#     4  12  26  43  72 111 146 196 252 316 396 461
#
# _framework density 21.401403999999999
#
# number of rings (size 3 to 8) (size 9 to 14) (size 15 to 20)
#    0.000    0.267    8.000    0.000    9.333    0.533 
#    0.000    0.000    0.000    1.600    0.000    0.000 
#    0.000    0.000    0.000    0.000    0.000    0.000 
#
# Total GULP energy -250529.645453 kJ/mol
# GULP energy per Si atom -5567.325455 kJ/mol
# Density = 2.135269 g / cm^3
# Si number density = 21.401404 Si / 1000 Ang^3
#
#
#
# Elastic Constant Matrix: (Units=GPa)
#
#
# Indices 1 2 3 4 5 6 
#
# 1 127.5108 57.9251 48.9313 0.0000 0.0000 0.0000
# 2 57.9251 127.5108 48.9313 0.0000 0.0000 0.0000
# 3 48.9313 48.9313 128.0683 0.0000 0.0000 0.0000
# 4 0.0000 0.0000 0.0000 53.2383 0.0000 0.0000
# 5 0.0000 0.0000 0.0000 0.0000 53.2383 0.0000
# 6 0.0000 0.0000 0.0000 0.0000 0.0000 34.7929
#
#
#
# Elastic Compliance Matrix: (Units=1/GPa)
#
#
# Indices 1 2 3 4 5 6 
#
# 1 0.010563 -0.003808 -0.002581 0.000000 0.000000 0.000000
# 2 -0.003808 0.010563 -0.002581 0.000000 0.000000 0.000000
# 3 -0.002581 -0.002581 0.009780 0.000000 0.000000 0.000000
# 4 0.000000 0.000000 0.000000 0.018783 0.000000 0.000000
# 5 0.000000 0.000000 0.000000 0.000000 0.018783 0.000000
# 6 0.000000 0.000000 0.000000 0.000000 0.000000 0.028742
#
#
# Mechanical properties :
#
#
# Convention : Reuss Voigt Hill
#
# Bulk Modulus (GPa) = 77.12070 77.18504 77.15287
# Shear Modulus (GPa) = 41.84950 43.40739 42.62845
#
# Velocity S-wave (km/s) = 4.42685 4.50850 4.46786
# Velocity P-wave (km/s) = 7.88942 7.95272 7.92113
#
# Compressibility (1/GPa) = 0.01296669
#
# Stress axis : x y z
#
# Youngs Moduli (GPa) = 94.67252 94.67252 102.24509
#
# Poissons Ratio (x) = 0.36052 0.26387
# Poissons Ratio (y) = 0.36052 0.26387
# Poissons Ratio (z) = 0.24433 0.24433
#
# Static dielectric constant tensor:
#      x y z
#    x 0.824290 0.000000 0.000000 
#    y 0.000000 0.824290 0.000000 
#    z 0.000000 0.000000 1.861040 
# 
# From -- ./inp_files/7448.got.cif
#   From: 2010.05.17/outbox.cif.g08.bks.cpg/sg180_4_cif.got.tgz:7448.got - 2010.05.20 11:43:55.
