data_PCOD9584578
_publ_section_title
;
Structure prediction by ZEFSAII (Michael W. Deem and Ramdas Pophale) SiO2 
 PCOD9584578
Probable space group: P 64 2 2
;
_chemical_formula_sum "Si O2"
_cell_formula_units_Z 48
_cell_length_a 11.509042
_cell_length_b 11.509042
_cell_length_c 16.731264
_cell_angle_alpha 90.000000
_cell_angle_beta 90.000000
_cell_angle_gamma 120.000000
_cell_volume 1919.277330
_symmetry_space_group_name_H-M "P 64 2 2"
_symmetry_group_IT_number 181
_symmetry_cell_setting 'hexagonal'
loop_
_space_group_symop_operation_xyz
x,y,z
x-y,x,2/3+z
-y,x-y,1/3+z
-x,-y,z
-x+y,-x,2/3+z
y,-x+y,1/3+z
x-y,-y,-z
-x,-x+y,2/3-z
y,x,1/3-z
-y,-x,1/3-z
-x+y,y,-z
x,x-y,2/3-z
loop_
_atom_site_type_symbol
_atom_site_label
_atom_site_fract_x
_atom_site_fract_y
_atom_site_fract_z
Si Si1 0.070457 0.409542 0.026843
Si Si2 0.801162 0.694814 0.240092
Si Si3 0.600006 0.241737 0.088605
Si Si4 0.046094 0.349901 0.468648
O O1 0.000000 0.500000 0.003296
O O2 0.044109 0.389544 0.121892
O O3 0.220793 0.441586 0.000000
O O4 0.977864 0.266996 0.985072
O O5 0.749458 0.749458 0.166667
O O6 0.757275 0.537870 0.235331
O O7 0.958871 0.749953 0.242289
O O8 0.681022 0.318979 0.166667
O O9 0.619128 0.110612 0.088969
O O10 0.648289 0.296578 0.000000
O O11 0.174634 0.349267 0.500000
#
# Coordination Sequence:
#
# PCOD9584578 Si02
#       4
#    12  12  12  12
#     4  12  28  50  78 115 162 213 278 353 433 522
#     4  12  26  45  74 113 153 211 266 334 418 505
#     4  11  26  48  82 121 162 217 274 357 439 530
#     4  11  26  50  76 113 156 210 269 339 429 523
#
# _framework density 25.009415000000001
#
# number of rings (size 3 to 8) (size 9 to 14) (size 15 to 20)
#    0.000    0.500    2.500    5.250    3.500    8.500 
#    0.000    1.250    0.000    0.000    0.000    0.000 
#    0.000    0.000    0.000    0.000    0.000    0.000 
#
# Total GULP energy -267733.153704 kJ/mol
# GULP energy per Si atom -5577.774036 kJ/mol
# Density = 2.495249 g / cm^3
# Si number density = 25.009415 Si / 1000 Ang^3
#
#
#
# Elastic Constant Matrix: (Units=GPa)
#
#
# Indices 1 2 3 4 5 6 
#
# 1 151.3818 100.4439 38.6385 0.0000 0.0000 0.0000
# 2 100.4439 151.3818 38.6385 0.0000 0.0000 0.0000
# 3 38.6385 38.6385 134.0765 0.0000 0.0000 0.0000
# 4 0.0000 0.0000 0.0000 18.3925 0.0000 0.0000
# 5 0.0000 0.0000 0.0000 0.0000 18.3925 0.0000
# 6 0.0000 0.0000 0.0000 0.0000 0.0000 25.4689
#
#
#
# Elastic Compliance Matrix: (Units=1/GPa)
#
#
# Indices 1 2 3 4 5 6 
#
# 1 0.011994 -0.007638 -0.001255 0.000000 0.000000 0.000000
# 2 -0.007638 0.011994 -0.001255 0.000000 0.000000 0.000000
# 3 -0.001255 -0.001255 0.008182 0.000000 0.000000 0.000000
# 4 0.000000 0.000000 0.000000 0.054370 0.000000 0.000000
# 5 0.000000 0.000000 0.000000 0.000000 0.054370 0.000000
# 6 0.000000 0.000000 0.000000 0.000000 0.000000 0.039264
#
#
# Mechanical properties :
#
#
# Convention : Reuss Voigt Hill
#
# Bulk Modulus (GPa) = 84.22538 88.03130 86.12834
# Shear Modulus (GPa) = 24.45845 29.72539 27.09192
#
# Velocity S-wave (km/s) = 3.13064 3.45130 3.29488
# Velocity P-wave (km/s) = 6.84240 7.15246 6.99915
#
# Compressibility (1/GPa) = 0.01187291
#
# Stress axis : x y z
#
# Youngs Moduli (GPa) = 83.37505 83.37505 122.21961
#
# Poissons Ratio (x) = 0.63680 0.15343
# Poissons Ratio (y) = 0.63680 0.15343
# Poissons Ratio (z) = 0.10467 0.10467
#
# Static dielectric constant tensor:
#      x y z
#    x 2.072050 0.000000 0.000000 
#    y 0.000000 2.072050 0.000000 
#    z 0.000000 0.000000 2.057230 
# 
# From -- ./inp_files/8656.got.cif
#   From: 2010.05.17/outbox.cif.g08.bks.cpg/sg181_5_cif.got.tgz:8656.got - 2010.05.20 11:51:17.
