data_PCOD9584987
_publ_section_title
;
Structure prediction by ZEFSAII (Michael W. Deem and Ramdas Pophale) SiO2 
 PCOD9584987
Probable space group: P 6 M M
;
_chemical_formula_sum "Si O2"
_cell_formula_units_Z 96
_cell_length_a 18.645363
_cell_length_b 18.645363
_cell_length_c 20.570068
_cell_angle_alpha 90.000000
_cell_angle_beta 90.000000
_cell_angle_gamma 120.000000
_cell_volume 6193.099319
_symmetry_space_group_name_H-M "P 6 M M"
_symmetry_group_IT_number 183
_symmetry_cell_setting 'hexagonal'
loop_
_space_group_symop_operation_xyz
x,y,z
x-y,x,z
-y,x-y,z
-x,-y,z
-x+y,-x,z
y,-x+y,z
-x+y,y,z
x,x-y,z
-y,-x,z
y,x,z
x-y,-y,z
-x,-x+y,z
loop_
_atom_site_type_symbol
_atom_site_label
_atom_site_fract_x
_atom_site_fract_y
_atom_site_fract_z
Si Si1 0.745066 0.649846 0.311660
Si Si2 0.501846 0.668100 0.059383
Si Si3 0.668497 0.167162 0.780162
Si Si4 0.905556 0.366024 0.920006
Si Si5 0.740917 0.094147 0.160879
Si Si6 0.098954 0.467701 0.420481
Si Si7 0.667643 0.167281 0.563576
Si Si8 0.095758 0.734984 0.670906
O O1 0.841795 0.683590 0.319425
O O2 0.717363 0.717363 0.323163
O O3 0.722924 0.621109 0.236787
O O4 0.695679 0.576710 0.362862
O O5 0.476214 0.738107 0.066608
O O6 0.422606 0.577395 0.065675
O O7 0.570592 0.686131 0.113451
O O8 0.540276 0.676732 0.987529
O O9 0.576475 0.152949 0.769949
O O10 0.737033 0.262968 0.769192
O O11 0.675588 0.142826 0.854143
O O12 0.691673 0.114510 0.731702
O O13 0.908137 0.454069 0.921801
O O14 0.000000 0.386969 0.916671
O O15 0.836109 0.163892 0.149040
O O16 0.718152 0.000000 0.150405
O O17 0.117929 0.558965 0.401079
O O18 0.144464 0.475850 0.488250
O O19 0.000000 0.413804 0.432361
O O20 0.576504 0.153008 0.578283
O O21 0.737387 0.262614 0.574879
O O22 0.693513 0.113594 0.608416
O O23 0.167717 0.832284 0.671553
O O24 0.000000 0.711218 0.671636
#
# Coordination Sequence:
#
# PCOD9584987 Si02
#       8
#    12  12  12  12  12  12  12  12
#     4   9  17  30  47  66  88 114 146 182 222 268
#     4  10  19  30  44  63  89 120 153 187 223 263
#     4  10  19  30  45  66  94 127 160 190 220 257
#     4   9  17  28  42  60  83 115 156 197 229 257
#     4   9  18  31  47  66  87 113 144 181 224 269
#     4   9  17  28  43  64  89 118 153 191 225 257
#     4  10  19  30  45  66  94 126 158 189 220 255
#     4  10  21  35  51  70  91 117 148 185 228 272
#
# _framework density 15.501124000000001
#
# number of rings (size 3 to 8) (size 9 to 14) (size 15 to 20)
#    0.000    2.500    0.000    2.625    0.000    3.250 
#    0.000    3.750    0.000    0.625    0.000    1.750 
#    0.000    0.000    0.000    4.000    0.000   28.750 
#
# Total GULP energy -534914.357253 kJ/mol
# GULP energy per Si atom -5572.024555 kJ/mol
# Density = 1.546584 g / cm^3
# Si number density = 15.501124 Si / 1000 Ang^3
#
#
#
# Elastic Constant Matrix: (Units=GPa)
#
#
# Indices 1 2 3 4 5 6 
#
# 1 75.6619 52.3445 42.3541 0.0000 0.0000 0.0000
# 2 52.3445 75.6619 42.3541 0.0000 0.0000 0.0000
# 3 42.3541 42.3541 76.2158 0.0000 0.0000 0.0000
# 4 0.0000 0.0000 0.0000 21.2688 0.0000 0.0000
# 5 0.0000 0.0000 0.0000 0.0000 21.2688 0.0000
# 6 0.0000 0.0000 0.0000 0.0000 0.0000 11.6587
#
#
#
# Elastic Compliance Matrix: (Units=1/GPa)
#
#
# Indices 1 2 3 4 5 6 
#
# 1 0.027621 -0.015265 -0.006866 0.000000 0.000000 0.000000
# 2 -0.015265 0.027621 -0.006866 0.000000 0.000000 0.000000
# 3 -0.006866 -0.006866 0.020752 0.000000 0.000000 0.000000
# 4 0.000000 0.000000 0.000000 0.047017 0.000000 0.000000
# 5 0.000000 0.000000 0.000000 0.000000 0.047017 0.000000
# 6 0.000000 0.000000 0.000000 0.000000 0.000000 0.085773
#
#
# Mechanical properties :
#
#
# Convention : Reuss Voigt Hill
#
# Bulk Modulus (GPa) = 55.56010 55.73834 55.64922
# Shear Modulus (GPa) = 15.63494 16.87175 16.25335
#
# Velocity S-wave (km/s) = 3.17934 3.30270 3.24161
# Velocity P-wave (km/s) = 7.02838 7.11192 7.07027
#
# Compressibility (1/GPa) = 0.01799853
#
# Stress axis : x y z
#
# Youngs Moduli (GPa) = 36.20419 36.20419 48.18800
#
# Poissons Ratio (x) = 0.55266 0.33087
# Poissons Ratio (y) = 0.55266 0.33087
# Poissons Ratio (z) = 0.24859 0.24859
#
# Static dielectric constant tensor:
#      x y z
#    x 1.507720 0.000000 0.000000 
#    y 0.000000 1.507720 0.000000 
#    z 0.000000 0.000000 1.523940 
# 
# From -- ./inp_files/2957.got.cif
#   From: 2010.05.17/outbox.cif.g08.bks.cpg/sg183_2_cif.got.tgz:2957.got - 2010.05.20 12:02:58.
