data_PCOD9584650
_publ_section_title
;
Structure prediction by ZEFSAII (Michael W. Deem and Ramdas Pophale) SiO2 
 PCOD9584650
Probable space group: P 63 2 2
;
_chemical_formula_sum "Si O2"
_cell_formula_units_Z 90
_cell_length_a 15.992044
_cell_length_b 15.992044
_cell_length_c 18.596627
_cell_angle_alpha 90.000000
_cell_angle_beta 90.000000
_cell_angle_gamma 120.000000
_cell_volume 4118.819537
_symmetry_space_group_name_H-M "P 63 2 2"
_symmetry_group_IT_number 182
_symmetry_cell_setting 'hexagonal'
loop_
_space_group_symop_operation_xyz
x,y,z
x-y,x,1/2+z
-y,x-y,z
-x,-y,1/2+z
-x+y,-x,z
y,-x+y,1/2+z
x-y,-y,-z
-x,-x+y,-z
y,x,-z
-y,-x,1/2-z
-x+y,y,1/2-z
x,x-y,1/2-z
loop_
_atom_site_type_symbol
_atom_site_label
_atom_site_fract_x
_atom_site_fract_y
_atom_site_fract_z
Si Si1 0.334764 0.270487 0.652526
Si Si2 0.882222 0.247551 0.574658
Si Si3 0.225162 0.449982 0.940241
Si Si4 0.526140 0.950679 0.570172
Si Si5 0.835679 0.362571 0.316080
Si Si6 0.768633 0.894598 0.624020
Si Si7 0.684393 0.981509 0.801858
Si Si8 0.840289 0.840289 0.500000
O O1 0.374420 0.202817 0.625074
O O2 0.385168 0.368169 0.605430
O O3 0.218441 0.222918 0.643538
O O4 0.345135 0.289664 0.737182
O O5 0.838909 0.280226 0.509725
O O6 0.968202 0.322571 0.624833
O O7 0.926215 0.185427 0.539861
O O8 0.144101 0.475048 0.960786
O O9 0.289459 0.521840 0.877221
O O10 0.168241 0.341023 0.907983
O O11 0.452614 0.913435 0.636599
O O12 0.510844 0.000000 0.500000
O O13 0.799256 0.399628 0.250000
O O14 0.890756 0.309875 0.282981
O O15 0.760932 0.816316 0.683164
O O16 0.847992 0.910948 0.563672
#
# Coordination Sequence:
#
# PCOD9584650 Si02
#       8
#    12  12  12  12  12  12  12   6
#     4  11  19  33  58  83 114 148 196 256 300 356
#     4  10  19  34  55  83 113 150 198 249 306 355
#     4   9  20  36  56  82 114 156 195 247 306 358
#     4  11  22  38  60  88 118 152 204 249 297 368
#     4  11  23  39  59  86 123 161 203 249 313 381
#     4   8  17  30  54  77 112 149 193 240 295 358
#     4  10  20  35  53  85 117 153 197 249 312 367
#     4   8  16  30  46  76 106 142 186 230 294 362
#
# _framework density 21.850922000000001
#
# number of rings (size 3 to 8) (size 9 to 14) (size 15 to 20)
#    0.000    2.133    2.667    1.600    1.867    0.533 
#    0.800    0.000    0.000    7.467    0.000    7.467 
#    0.000    0.267    0.000    0.000    0.000    0.000 
#
# Total GULP energy -501996.113629 kJ/mol
# GULP energy per Si atom -5577.734596 kJ/mol
# Density = 2.180119 g / cm^3
# Si number density = 21.850922 Si / 1000 Ang^3
#
#
#
# Elastic Constant Matrix: (Units=GPa)
#
#
# Indices 1 2 3 4 5 6 
#
# 1 37.2798 21.2554 20.3891 0.0000 0.0000 0.0000
# 2 21.2554 37.2798 20.3891 0.0000 0.0000 0.0000
# 3 20.3891 20.3891 121.8109 0.0000 0.0000 0.0000
# 4 0.0000 0.0000 0.0000 27.0475 0.0000 0.0000
# 5 0.0000 0.0000 0.0000 0.0000 27.0475 0.0000
# 6 0.0000 0.0000 0.0000 0.0000 0.0000 8.0122
#
#
#
# Elastic Compliance Matrix: (Units=1/GPa)
#
#
# Indices 1 2 3 4 5 6 
#
# 1 0.040872 -0.021533 -0.003237 0.000000 0.000000 0.000000
# 2 -0.021533 0.040872 -0.003237 0.000000 0.000000 0.000000
# 3 -0.003237 -0.003237 0.009293 0.000000 0.000000 0.000000
# 4 0.000000 0.000000 0.000000 0.036972 0.000000 0.000000
# 5 0.000000 0.000000 0.000000 0.000000 0.036972 0.000000
# 6 0.000000 0.000000 0.000000 0.000000 0.000000 0.124810
#
#
# Mechanical properties :
#
#
# Convention : Reuss Voigt Hill
#
# Bulk Modulus (GPa) = 28.55297 35.60421 32.07859
# Shear Modulus (GPa) = 13.98684 21.37722 17.68203
#
# Velocity S-wave (km/s) = 2.53277 3.13121 2.84775
# Velocity P-wave (km/s) = 4.65282 5.42237 5.05227
#
# Compressibility (1/GPa) = 0.03502263
#
# Stress axis : x y z
#
# Youngs Moduli (GPa) = 24.46674 24.46674 107.60704
#
# Poissons Ratio (x) = 0.52684 0.34832
# Poissons Ratio (y) = 0.52684 0.34832
# Poissons Ratio (z) = 0.07920 0.07920
#
# Static dielectric constant tensor:
#      x y z
#    x 1.866750 0.000000 0.000000 
#    y 0.000000 1.866750 0.000000 
#    z 0.000000 0.000000 1.858230 
# 
# From -- ./inp_files/4500.got.cif
#   From: 2010.05.17/outbox.cif.g08.bks.cpg/sg182_3_cif.got.tgz:4500.got - 2010.05.20 11:58:53.
