data_PCOD9584794
_publ_section_title
;
Structure prediction by ZEFSAII (Michael W. Deem and Ramdas Pophale) SiO2 
 PCOD9584794
Probable space group: P 63 2 2
;
_chemical_formula_sum "Si O2"
_cell_formula_units_Z 64
_cell_length_a 14.243876
_cell_length_b 14.243876
_cell_length_c 16.632709
_cell_angle_alpha 90.000000
_cell_angle_beta 90.000000
_cell_angle_gamma 120.000000
_cell_volume 2922.469515
_symmetry_space_group_name_H-M "P 63 2 2"
_symmetry_group_IT_number 182
_symmetry_cell_setting 'hexagonal'
loop_
_space_group_symop_operation_xyz
x,y,z
x-y,x,1/2+z
-y,x-y,z
-x,-y,1/2+z
-x+y,-x,z
y,-x+y,1/2+z
x-y,-y,-z
-x,-x+y,-z
y,x,-z
-y,-x,1/2-z
-x+y,y,1/2-z
x,x-y,1/2-z
loop_
_atom_site_type_symbol
_atom_site_label
_atom_site_fract_x
_atom_site_fract_y
_atom_site_fract_z
Si Si1 0.340966 0.143893 0.160069
Si Si2 0.173241 0.947132 0.379867
Si Si3 0.408627 0.180508 0.503499
Si Si4 0.201193 0.798808 0.250000
Si Si5 0.000000 0.474136 0.500000
Si Si6 0.420082 0.068284 0.872365
Si Si7 0.000000 0.000000 0.597239
O O1 0.375958 0.187979 0.250000
O O2 0.249662 0.175847 0.138607
O O3 0.313830 0.019595 0.149139
O O4 0.423242 0.205223 0.087980
O O5 0.182003 0.897409 0.464856
O O6 0.203985 0.881230 0.317452
O O7 0.055036 0.932487 0.372678
O O8 0.461434 0.105344 0.511516
O O9 0.440869 0.283926 0.558858
O O10 0.144132 0.681541 0.292985
O O11 0.000244 0.533577 0.583129
O O12 0.000000 0.000000 0.500000
#
# Coordination Sequence:
#
# PCOD9584794 Si02
#       7
#    12  12  12   6   6  12   4
#     4  12  21  40  67 104 140 183 224 282 365 430
#     4  11  22  37  60  94 144 182 221 273 326 436
#     4  11  23  44  67  99 135 184 243 292 357 438
#     4  10  22  40  62 106 140 186 228 282 366 428
#     4  12  24  46  76 104 134 200 250 308 376 436
#     4  11  24  44  71 101 142 186 238 304 365 437
#     4  12  24  31  53  94 138 187 224 247 325 407
#
# _framework density 21.899286
#
# number of rings (size 3 to 8) (size 9 to 14) (size 15 to 20)
#    0.000    0.750    5.625    3.375    0.000    0.000 
#    1.125    8.438    0.000    0.000    4.875    0.000 
#    0.000    0.000    0.000    0.000    0.000    0.000 
#
# Total GULP energy -356426.995689 kJ/mol
# GULP energy per Si atom -5569.171808 kJ/mol
# Density = 2.184944 g / cm^3
# Si number density = 21.899286 Si / 1000 Ang^3
#
#
#
# Elastic Constant Matrix: (Units=GPa)
#
#
# Indices 1 2 3 4 5 6 
#
# 1 66.7764 24.2799 21.8140 0.0000 0.0000 0.0000
# 2 24.2799 66.7764 21.8140 0.0000 0.0000 0.0000
# 3 21.8140 21.8140 154.6209 0.0000 0.0000 0.0000
# 4 0.0000 0.0000 0.0000 25.2916 0.0000 0.0000
# 5 0.0000 0.0000 0.0000 0.0000 25.2916 0.0000
# 6 0.0000 0.0000 0.0000 0.0000 0.0000 21.2482
#
#
#
# Elastic Compliance Matrix: (Units=1/GPa)
#
#
# Indices 1 2 3 4 5 6 
#
# 1 0.017655 -0.005876 -0.001662 0.000000 0.000000 0.000000
# 2 -0.005876 0.017655 -0.001662 0.000000 0.000000 0.000000
# 3 -0.001662 -0.001662 0.006936 0.000000 0.000000 0.000000
# 4 0.000000 0.000000 0.000000 0.039539 0.000000 0.000000
# 5 0.000000 0.000000 0.000000 0.000000 0.039539 0.000000
# 6 0.000000 0.000000 0.000000 0.000000 0.000000 0.047063
#
#
# Mechanical properties :
#
#
# Convention : Reuss Voigt Hill
#
# Bulk Modulus (GPa) = 41.93527 47.10995 44.52261
# Shear Modulus (GPa) = 25.67593 29.05067 27.36330
#
# Velocity S-wave (km/s) = 3.42783 3.64615 3.53867
# Velocity P-wave (km/s) = 5.90401 6.26775 6.08860
#
# Compressibility (1/GPa) = 0.02384628
#
# Stress axis : x y z
#
# Youngs Moduli (GPa) = 56.64156 56.64156 144.16905
#
# Poissons Ratio (x) = 0.33285 0.23957
# Poissons Ratio (y) = 0.33285 0.23957
# Poissons Ratio (z) = 0.09412 0.09412
#
# Static dielectric constant tensor:
#      x y z
#    x 1.833720 0.000000 0.000000 
#    y 0.000000 1.833720 0.000000 
#    z 0.000000 0.000000 1.909700 
# 
# From -- ./inp_files/4301.got.cif
#   From: 2010.05.17/outbox.cif.g08.bks.cpg/sg182_3_cif.got.tgz:4301.got - 2010.05.20 11:58:53.
