data_PCOD9584260
_publ_section_title
;
Structure prediction by ZEFSAII (Michael W. Deem and Ramdas Pophale) SiO2 
 PCOD9584260
Probable space group: P 64 2 2
;
_chemical_formula_sum "Si O2"
_cell_formula_units_Z 81
_cell_length_a 28.119747
_cell_length_b 28.119747
_cell_length_c 8.854217
_cell_angle_alpha 90.000000
_cell_angle_beta 90.000000
_cell_angle_gamma 120.000000
_cell_volume 6063.223971
_symmetry_space_group_name_H-M "P 64 2 2"
_symmetry_group_IT_number 181
_symmetry_cell_setting 'hexagonal'
loop_
_space_group_symop_operation_xyz
x,y,z
x-y,x,2/3+z
-y,x-y,1/3+z
-x,-y,z
-x+y,-x,2/3+z
y,-x+y,1/3+z
x-y,-y,-z
-x,-x+y,2/3-z
y,x,1/3-z
-y,-x,1/3-z
-x+y,y,-z
x,x-y,2/3-z
loop_
_atom_site_type_symbol
_atom_site_label
_atom_site_fract_x
_atom_site_fract_y
_atom_site_fract_z
Si Si1 0.500000 0.000000 0.500000
Si Si2 0.652871 0.305742 0.000000
Si Si3 0.260212 0.418382 0.492884
Si Si4 0.063261 0.647811 0.311134
Si Si5 0.707339 0.233498 0.964490
Si Si6 0.830730 0.317391 0.892576
Si Si7 0.421040 0.911431 0.268277
Si Si8 0.505780 0.635892 0.434196
O O1 0.550983 0.039853 0.392211
O O2 0.663422 0.336579 0.166667
O O3 0.587749 0.266973 0.976744
O O4 0.194991 0.389981 0.500000
O O5 0.292398 0.392102 0.571331
O O6 0.281082 0.477577 0.581304
O O7 0.280590 0.431529 0.321214
O O8 0.071839 0.605830 0.201027
O O9 0.090533 0.649667 0.470701
O O10 0.000000 0.626229 0.333334
O O11 0.765100 0.278850 0.891356
O O12 0.665430 0.189112 0.847665
O O13 0.858249 0.338960 0.732050
O O14 0.855456 0.372833 0.991603
O O15 0.467907 0.897553 0.225084
#
# Coordination Sequence:
#
# PCOD9584260 Si02
#       8
#     3   6  12  12  12  12  12  12
#     4  12  20  36  46  68  76 104 134 168 188 288
#     4  12  28  38  48  66  83 110 136 188 226 256
#     4   8  17  35  53  65  86 116 138 171 207 264
#     4  10  21  33  48  69  91 109 135 174 214 259
#     4  10  23  36  51  64  89 105 150 174 218 266
#     4  10  19  34  48  65  76 111 136 170 201 256
#     4  11  22  32  49  60  88 105 136 162 219 256
#     4  11  21  33  50  66  82 113 132 174 208 268
#
# _framework density 13.359228999999999
#
# number of rings (size 3 to 8) (size 9 to 14) (size 15 to 20)
#    0.000    1.778    1.481    3.111   10.370    0.593 
#    0.000    0.000    0.000    0.000    0.000    0.000 
#    0.000    0.000    0.000    0.000    0.000    0.000 
#
# Total GULP energy -451257.716408 kJ/mol
# GULP energy per Si atom -5571.082919 kJ/mol
# Density = 1.332882 g / cm^3
# Si number density = 13.359229 Si / 1000 Ang^3
#
#
#
# Elastic Constant Matrix: (Units=GPa)
#
#
# Indices 1 2 3 4 5 6 
#
# 1 60.1946 27.8261 15.0245 0.0000 0.0000 0.0000
# 2 27.8261 60.1946 15.0245 0.0000 0.0000 0.0000
# 3 15.0245 15.0245 58.9754 0.0000 0.0000 0.0000
# 4 0.0000 0.0000 0.0000 17.3417 0.0000 0.0000
# 5 0.0000 0.0000 0.0000 0.0000 17.3417 0.0000
# 6 0.0000 0.0000 0.0000 0.0000 0.0000 16.1843
#
#
#
# Elastic Compliance Matrix: (Units=1/GPa)
#
#
# Indices 1 2 3 4 5 6 
#
# 1 0.021669 -0.009226 -0.003170 0.000000 0.000000 0.000000
# 2 -0.009226 0.021669 -0.003170 0.000000 0.000000 0.000000
# 3 -0.003170 -0.003170 0.018571 0.000000 0.000000 0.000000
# 4 0.000000 0.000000 0.000000 0.057664 0.000000 0.000000
# 5 0.000000 0.000000 0.000000 0.000000 0.057664 0.000000
# 6 0.000000 0.000000 0.000000 0.000000 0.000000 0.061788
#
#
# Mechanical properties :
#
#
# Convention : Reuss Voigt Hill
#
# Bulk Modulus (GPa) = 32.49107 32.79054 32.64080
# Shear Modulus (GPa) = 17.83062 18.27283 18.05173
#
# Velocity S-wave (km/s) = 3.65732 3.70240 3.67993
# Velocity P-wave (km/s) = 6.49681 6.54794 6.52243
#
# Compressibility (1/GPa) = 0.03077769
#
# Stress axis : x y z
#
# Youngs Moduli (GPa) = 46.14952 46.14952 53.84619
#
# Poissons Ratio (x) = 0.42575 0.17069
# Poissons Ratio (y) = 0.42575 0.17069
# Poissons Ratio (z) = 0.14629 0.14629
#
# Static dielectric constant tensor:
#      x y z
#    x 1.440460 0.000000 0.000000 
#    y 0.000000 1.440460 0.000000 
#    z 0.000000 0.000000 1.537300 
# 
# From -- ./inp_files/3471.got.cif
#   From: 2010.05.17/outbox.cif.g08.bks.cpg/sg181_2_cif.got.tgz:3471.got - 2010.05.20 11:51:17.
