data_PCOD9584037
_publ_section_title
;
Structure prediction by ZEFSAII (Michael W. Deem and Ramdas Pophale) SiO2 
 PCOD9584037
Probable space group: P 62 2 2
;
_chemical_formula_sum "Si O2"
_cell_formula_units_Z 51
_cell_length_a 11.768523
_cell_length_b 11.768523
_cell_length_c 20.634413
_cell_angle_alpha 90.000000
_cell_angle_beta 90.000000
_cell_angle_gamma 120.000000
_cell_volume 2474.951378
_symmetry_space_group_name_H-M "P 62 2 2"
_symmetry_group_IT_number 180
_symmetry_cell_setting 'hexagonal'
loop_
_space_group_symop_operation_xyz
x,y,z
x-y,x,1/3+z
-y,x-y,2/3+z
-x,-y,z
-x+y,-x,1/3+z
y,-x+y,2/3+z
x-y,-y,-z
-x,-x+y,1/3-z
y,x,2/3-z
-y,-x,2/3-z
-x+y,y,-z
x,x-y,1/3-z
loop_
_atom_site_type_symbol
_atom_site_label
_atom_site_fract_x
_atom_site_fract_y
_atom_site_fract_z
Si Si1 0.654285 0.089350 0.159523
Si Si2 0.000000 0.500000 0.274447
Si Si3 0.847478 0.029111 0.900974
Si Si4 0.608215 0.391786 0.833334
Si Si5 0.304659 0.277431 0.633562
Si Si6 0.000000 0.000000 0.333334
O O1 0.698923 0.240090 0.148871
O O2 0.688158 0.076707 0.234084
O O3 0.500000 0.000000 0.148716
O O4 0.734414 0.039336 0.115767
O O5 0.122201 0.585881 0.227507
O O6 0.978707 0.599962 0.318526
O O7 0.925806 0.074194 0.833334
O O8 0.909999 0.164359 0.941804
O O9 0.884091 0.939783 0.945765
O O10 0.297695 0.148848 0.666667
#
# Coordination Sequence:
#
# PCOD9584037 Si02
#       6
#    12   6  12   6  12   3
#     4  11  25  44  69 102 148 191 235 301 373 444
#     4  11  24  42  68 102 136 189 246 296 358 435
#     4  10  25  42  68 104 136 181 241 304 366 434
#     4  11  26  42  68 104 148 177 240 310 352 439
#     4  11  21  43  69 101 133 186 248 297 364 441
#     4  12  22  44  70  94 136 188 230 302 366 426
#
# _framework density 20.606463999999999
#
# number of rings (size 3 to 8) (size 9 to 14) (size 15 to 20)
#    0.000    1.176    4.706    0.353    8.235    0.000 
#    4.235    0.588    0.000    0.000    0.000    0.000 
#    0.000    0.000    0.000    0.000    0.000    0.000 
#
# Total GULP energy -284647.286322 kJ/mol
# GULP energy per Si atom -5581.319340 kJ/mol
# Density = 2.055956 g / cm^3
# Si number density = 20.606464 Si / 1000 Ang^3
#
#
#
# Elastic Constant Matrix: (Units=GPa)
#
#
# Indices 1 2 3 4 5 6 
#
# 1 135.2647 72.9610 51.2908 0.0000 0.0000 0.0000
# 2 72.9610 135.2647 51.2908 0.0000 0.0000 0.0000
# 3 51.2908 51.2908 129.3710 0.0000 0.0000 0.0000
# 4 0.0000 0.0000 0.0000 30.5157 0.0000 0.0000
# 5 0.0000 0.0000 0.0000 0.0000 30.5157 0.0000
# 6 0.0000 0.0000 0.0000 0.0000 0.0000 31.1518
#
#
#
# Elastic Compliance Matrix: (Units=1/GPa)
#
#
# Indices 1 2 3 4 5 6 
#
# 1 0.011009 -0.005041 -0.002366 0.000000 0.000000 0.000000
# 2 -0.005041 0.011009 -0.002366 0.000000 0.000000 0.000000
# 3 -0.002366 -0.002366 0.009606 0.000000 0.000000 0.000000
# 4 0.000000 0.000000 0.000000 0.032770 0.000000 0.000000
# 5 0.000000 0.000000 0.000000 0.000000 0.032770 0.000000
# 6 0.000000 0.000000 0.000000 0.000000 0.000000 0.032101
#
#
# Mechanical properties :
#
#
# Convention : Reuss Voigt Hill
#
# Bulk Modulus (GPa) = 82.79792 83.44282 83.12037
# Shear Modulus (GPa) = 32.71434 33.39381 33.05407
#
# Velocity S-wave (km/s) = 3.98876 4.02997 4.00942
# Velocity P-wave (km/s) = 7.84101 7.88896 7.86502
#
# Compressibility (1/GPa) = 0.01207760
#
# Stress axis : x y z
#
# Youngs Moduli (GPa) = 90.83236 90.83236 104.10277
#
# Poissons Ratio (x) = 0.45790 0.24632
# Poissons Ratio (y) = 0.45790 0.24632
# Poissons Ratio (z) = 0.21492 0.21492
#
# Static dielectric constant tensor:
#      x y z
#    x 1.790080 0.000000 0.000000 
#    y 0.000000 1.790080 0.000000 
#    z 0.000000 0.000000 1.722440 
# 
# From -- ./inp_files/8937.got.cif
#   From: 2010.05.17/outbox.cif.g08.bks.cpg/sg180_5_cif.got.tgz:8937.got - 2010.05.20 11:43:55.
