data_PCOD9584492
_publ_section_title
;
Structure prediction by ZEFSAII (Michael W. Deem and Ramdas Pophale) SiO2 
 PCOD9584492
Probable space group: P 64 2 2
;
_chemical_formula_sum "Si O2"
_cell_formula_units_Z 48
_cell_length_a 11.398418
_cell_length_b 11.398418
_cell_length_c 21.309406
_cell_angle_alpha 90.000000
_cell_angle_beta 90.000000
_cell_angle_gamma 120.000000
_cell_volume 2397.679522
_symmetry_space_group_name_H-M "P 64 2 2"
_symmetry_group_IT_number 181
_symmetry_cell_setting 'hexagonal'
loop_
_space_group_symop_operation_xyz
x,y,z
x-y,x,2/3+z
-y,x-y,1/3+z
-x,-y,z
-x+y,-x,2/3+z
y,-x+y,1/3+z
x-y,-y,-z
-x,-x+y,2/3-z
y,x,1/3-z
-y,-x,1/3-z
-x+y,y,-z
x,x-y,2/3-z
loop_
_atom_site_type_symbol
_atom_site_label
_atom_site_fract_x
_atom_site_fract_y
_atom_site_fract_z
Si Si1 0.566940 0.801883 0.569888
Si Si2 0.574342 0.779251 0.713541
Si Si3 0.704159 0.408317 0.500000
Si Si4 0.000000 0.500000 0.333334
Si Si5 0.853268 0.875050 0.763918
Si Si6 0.000000 0.500000 0.833334
O O1 0.528477 0.787901 0.643554
O O2 0.448850 0.681324 0.527716
O O3 0.722580 0.832672 0.565998
O O4 0.550964 0.923362 0.544669
O O5 0.498602 0.791648 0.774167
O O6 0.542039 0.624956 0.712192
O O7 0.735464 0.868735 0.720343
O O8 0.829110 0.914555 0.833334
O O9 0.000000 0.000000 0.745379
#
# Coordination Sequence:
#
# PCOD9584492 Si02
#       6
#    12  12   6   3  12   3
#     4  11  23  43  66  90 133 175 218 278 338 399
#     4  12  21  39  68 100 128 171 219 282 337 415
#     4  11  22  41  69  98 129 168 226 278 349 404
#     4  12  20  40  68  96 132 168 218 276 360 380
#     4  11  23  41  67  99 136 177 223 272 342 412
#     4  10  24  44  60  84 126 180 212 266 330 396
#
# _framework density 20.019356999999999
#
# number of rings (size 3 to 8) (size 9 to 14) (size 15 to 20)
#    0.000    0.750    6.250    1.500    0.000    2.000 
#    4.500    0.000    5.500    0.000    0.000    0.000 
#    0.000    0.000    0.000    0.000    0.000    0.000 
#
# Total GULP energy -267363.159824 kJ/mol
# GULP energy per Si atom -5570.065830 kJ/mol
# Density = 1.997379 g / cm^3
# Si number density = 20.019357 Si / 1000 Ang^3
#
#
#
# Elastic Constant Matrix: (Units=GPa)
#
#
# Indices 1 2 3 4 5 6 
#
# 1 95.9595 59.4757 59.9607 0.0000 0.0000 0.0000
# 2 59.4757 95.9595 59.9607 0.0000 0.0000 0.0000
# 3 59.9607 59.9607 169.9931 0.0000 0.0000 0.0000
# 4 0.0000 0.0000 0.0000 32.4417 0.0000 0.0000
# 5 0.0000 0.0000 0.0000 0.0000 32.4417 0.0000
# 6 0.0000 0.0000 0.0000 0.0000 0.0000 18.2419
#
#
#
# Elastic Compliance Matrix: (Units=1/GPa)
#
#
# Indices 1 2 3 4 5 6 
#
# 1 0.018124 -0.009285 -0.003118 0.000000 0.000000 0.000000
# 2 -0.009285 0.018124 -0.003118 0.000000 0.000000 0.000000
# 3 -0.003118 -0.003118 0.008082 0.000000 0.000000 0.000000
# 4 0.000000 0.000000 0.000000 0.030825 0.000000 0.000000
# 5 0.000000 0.000000 0.000000 0.000000 0.030825 0.000000
# 6 0.000000 0.000000 0.000000 0.000000 0.000000 0.054819
#
#
# Mechanical properties :
#
#
# Convention : Reuss Voigt Hill
#
# Bulk Modulus (GPa) = 75.25020 80.07848 77.66434
# Shear Modulus (GPa) = 25.47524 28.79273 27.13399
#
# Velocity S-wave (km/s) = 3.57112 3.79653 3.68555
# Velocity P-wave (km/s) = 7.39420 7.70101 7.54917
#
# Compressibility (1/GPa) = 0.01328900
#
# Stress axis : x y z
#
# Youngs Moduli (GPa) = 55.17503 55.17503 123.73219
#
# Poissons Ratio (x) = 0.51231 0.38576
# Poissons Ratio (y) = 0.51231 0.38576
# Poissons Ratio (z) = 0.17202 0.17202
#
# Static dielectric constant tensor:
#      x y z
#    x 1.728010 0.000000 0.000000 
#    y 0.000000 1.728010 0.000000 
#    z 0.000000 0.000000 2.867760 
# 
# From -- ./inp_files/8743.got.cif
#   From: 2010.05.17/outbox.cif.g08.bks.cpg/sg181_5_cif.got.tgz:8743.got - 2010.05.20 11:51:17.
