data_PCOD9584464
_publ_section_title
;
Structure prediction by ZEFSAII (Michael W. Deem and Ramdas Pophale) SiO2 
 PCOD9584464
Probable space group: P 64 2 2
;
_chemical_formula_sum "Si O2"
_cell_formula_units_Z 54
_cell_length_a 14.796993
_cell_length_b 14.796993
_cell_length_c 14.060231
_cell_angle_alpha 90.000000
_cell_angle_beta 90.000000
_cell_angle_gamma 120.000000
_cell_volume 2666.060646
_symmetry_space_group_name_H-M "P 64 2 2"
_symmetry_group_IT_number 181
_symmetry_cell_setting 'hexagonal'
loop_
_space_group_symop_operation_xyz
x,y,z
x-y,x,2/3+z
-y,x-y,1/3+z
-x,-y,z
-x+y,-x,2/3+z
y,-x+y,1/3+z
x-y,-y,-z
-x,-x+y,2/3-z
y,x,1/3-z
-y,-x,1/3-z
-x+y,y,-z
x,x-y,2/3-z
loop_
_atom_site_type_symbol
_atom_site_label
_atom_site_fract_x
_atom_site_fract_y
_atom_site_fract_z
Si Si1 0.000000 0.500000 0.021219
Si Si2 0.000000 0.500000 0.333334
Si Si3 0.000000 0.000000 0.166667
Si Si4 0.928236 0.283451 0.742597
Si Si5 0.643013 0.151445 0.155908
Si Si6 0.829417 0.914709 0.333334
Si Si7 0.451768 0.714275 0.222838
O O1 0.079904 0.596083 0.085537
O O2 0.056932 0.447870 0.966913
O O3 0.075124 0.476316 0.399315
O O4 0.097220 0.034771 0.240315
O O5 0.954929 0.208068 0.682311
O O6 0.807092 0.230309 0.773782
O O7 0.000000 0.314002 0.833334
O O8 0.764918 0.235083 0.166667
O O9 0.583939 0.218350 0.160438
O O10 0.395550 0.604451 0.166667
O O11 0.415960 0.707980 0.333334
#
# Coordination Sequence:
#
# PCOD9584464 Si02
#       7
#     6   3   3  12  12   6  12
#     4  11  21  41  59 102 140 170 225 285 339 421
#     4  10  24  40  60  96 132 180 242 294 336 436
#     4  10  24  46  76  92 136 174 240 302 352 394
#     4  12  23  38  65  96 131 166 219 284 352 408
#     4  10  23  39  65  88 135 186 226 277 348 413
#     4  11  22  46  71 100 127 178 230 291 354 412
#     4  11  22  38  63  95 128 176 227 272 339 424
#
# _framework density 20.254604
#
# number of rings (size 3 to 8) (size 9 to 14) (size 15 to 20)
#    0.000    1.111    4.444    1.667    6.222    0.000 
#    2.000    0.000    4.889    0.000    0.000    0.000 
#    0.000    0.000    0.000    0.000    0.000    0.000 
#
# Total GULP energy -300921.421199 kJ/mol
# GULP energy per Si atom -5572.618911 kJ/mol
# Density = 2.020850 g / cm^3
# Si number density = 20.254604 Si / 1000 Ang^3
#
#
#
# Elastic Constant Matrix: (Units=GPa)
#
#
# Indices 1 2 3 4 5 6 
#
# 1 104.1100 37.2788 60.3916 0.0000 0.0000 0.0000
# 2 37.2788 104.1100 60.3916 0.0000 0.0000 0.0000
# 3 60.3916 60.3916 130.7034 0.0000 0.0000 0.0000
# 4 0.0000 0.0000 0.0000 -2.4030 0.0000 0.0000
# 5 0.0000 0.0000 0.0000 0.0000 -2.4030 0.0000
# 6 0.0000 0.0000 0.0000 0.0000 0.0000 33.4156
#
#
#
# Elastic Compliance Matrix: (Units=1/GPa)
#
#
# Indices 1 2 3 4 5 6 
#
# 1 0.013324 -0.001639 -0.005399 0.000000 0.000000 0.000000
# 2 -0.001639 0.013324 -0.005399 0.000000 0.000000 0.000000
# 3 -0.005399 -0.005399 0.012640 0.000000 0.000000 0.000000
# 4 0.000000 0.000000 0.000000 -0.416149 0.000000 0.000000
# 5 0.000000 0.000000 0.000000 0.000000 -0.416149 0.000000
# 6 0.000000 0.000000 0.000000 0.000000 0.000000 0.029926
#
#
# Mechanical properties :
#
#
# Convention : Reuss Voigt Hill
#
# Bulk Modulus (GPa) = 69.37771 72.78307 71.08039
# Shear Modulus (GPa) = -6.81751 17.77936 5.48092
#
# Velocity S-wave (km/s) = -1.83663 2.96597 1.64678
# Velocity P-wave (km/s) = 5.46164 6.90952 6.22780
#
# Compressibility (1/GPa) = 0.01441385
#
# Stress axis : x y z
#
# Youngs Moduli (GPa) = 75.05276 75.05276 79.11309
#
# Poissons Ratio (x) = 0.12302 0.42713
# Poissons Ratio (y) = 0.12302 0.42713
# Poissons Ratio (z) = 0.40521 0.40521
#
# Static dielectric constant tensor:
#      x y z
#    x 1.870920 0.000000 0.000000 
#    y 0.000000 1.870920 0.000000 
#    z 0.000000 0.000000 2.457770 
# 
# From -- ./inp_files/6097.got.cif
#   From: 2010.05.17/outbox.cif.g08.bks.cpg/sg181_4_cif.got.tgz:6097.got - 2010.05.20 11:51:17.
