data_PCOD9584318
_publ_section_title
;
Structure prediction by ZEFSAII (Michael W. Deem and Ramdas Pophale) SiO2 
 PCOD9584318
Probable space group: P 64 2 2
;
_chemical_formula_sum "Si O2"
_cell_formula_units_Z 39
_cell_length_a 10.938181
_cell_length_b 10.938181
_cell_length_c 20.205499
_cell_angle_alpha 90.000000
_cell_angle_beta 90.000000
_cell_angle_gamma 120.000000
_cell_volume 2093.584157
_symmetry_space_group_name_H-M "P 64 2 2"
_symmetry_group_IT_number 181
_symmetry_cell_setting 'hexagonal'
loop_
_space_group_symop_operation_xyz
x,y,z
x-y,x,2/3+z
-y,x-y,1/3+z
-x,-y,z
-x+y,-x,2/3+z
y,-x+y,1/3+z
x-y,-y,-z
-x,-x+y,2/3-z
y,x,1/3-z
-y,-x,1/3-z
-x+y,y,-z
x,x-y,2/3-z
loop_
_atom_site_type_symbol
_atom_site_label
_atom_site_fract_x
_atom_site_fract_y
_atom_site_fract_z
Si Si1 0.659719 0.435456 0.094073
Si Si2 0.817339 0.067002 0.735196
Si Si3 0.000000 0.000000 0.500000
Si Si4 0.865499 0.507727 0.624335
O O1 0.591949 0.408052 0.166667
O O2 0.791565 0.596015 0.083614
O O3 0.547539 0.391325 0.033882
O O4 0.730063 0.337437 0.081694
O O5 0.898720 0.101281 0.666667
O O6 0.670543 0.922615 0.721036
O O7 0.901746 0.039692 0.790819
O O8 0.000000 0.500000 0.598402
#
# Coordination Sequence:
#
# PCOD9584318 Si02
#       4
#    12  12   3  12
#     4  10  20  35  68  97 113 156 207 258 321 353
#     4  11  23  44  60  89 127 161 210 251 299 372
#     4  12  30  40  62  86 124 192 196 230 312 398
#     4   9  18  38  59  90 124 149 193 271 299 346
#
# _framework density 18.628342
#
# number of rings (size 3 to 8) (size 9 to 14) (size 15 to 20)
#    0.000    1.846    6.154    0.462    6.462    0.615 
#    0.000    0.000    0.000    0.000    0.000    0.000 
#    0.000    0.000    0.000    0.000    0.000    0.000 
#
# Total GULP energy -217110.893238 kJ/mol
# GULP energy per Si atom -5566.945980 kJ/mol
# Density = 1.858594 g / cm^3
# Si number density = 18.628342 Si / 1000 Ang^3
#
#
#
# Elastic Constant Matrix: (Units=GPa)
#
#
# Indices 1 2 3 4 5 6 
#
# 1 92.9919 52.9818 50.9883 0.0000 0.0000 0.0000
# 2 52.9818 92.9919 50.9883 0.0000 0.0000 0.0000
# 3 50.9883 50.9883 120.3509 0.0000 0.0000 0.0000
# 4 0.0000 0.0000 0.0000 -72.2481 0.0000 0.0000
# 5 0.0000 0.0000 0.0000 0.0000 -72.2481 0.0000
# 6 0.0000 0.0000 0.0000 0.0000 0.0000 20.0050
#
#
#
# Elastic Compliance Matrix: (Units=1/GPa)
#
#
# Indices 1 2 3 4 5 6 
#
# 1 0.017362 -0.007632 -0.004122 0.000000 0.000000 0.000000
# 2 -0.007632 0.017362 -0.004122 0.000000 0.000000 0.000000
# 3 -0.004122 -0.004122 0.011802 0.000000 0.000000 0.000000
# 4 0.000000 0.000000 0.000000 -0.013841 0.000000 0.000000
# 5 0.000000 0.000000 0.000000 0.000000 -0.013841 0.000000
# 6 0.000000 0.000000 0.000000 0.000000 0.000000 0.049987
#
#
# Mechanical properties :
#
#
# Convention : Reuss Voigt Hill
#
# Bulk Modulus (GPa) = 67.68991 68.47241 68.08116
# Shear Modulus (GPa) = 47.38946 -14.80648 16.29149
#
# Velocity S-wave (km/s) = 5.04922 -2.82234 2.96049
# Velocity P-wave (km/s) = 8.39100 5.12016 6.95072
#
# Compressibility (1/GPa) = 0.01477325
#
# Stress axis : x y z
#
# Youngs Moduli (GPa) = 57.59677 57.59677 84.73066
#
# Poissons Ratio (x) = 0.43956 0.34930
# Poissons Ratio (y) = 0.43956 0.34930
# Poissons Ratio (z) = 0.23744 0.23744
#
# Static dielectric constant tensor:
#      x y z
#    x 2.397550 0.000000 0.000000 
#    y 0.000000 2.397550 0.000000 
#    z 0.000000 0.000000 1.629570 
# 
# From -- ./inp_files/7221.got.cif
#   From: 2010.05.17/outbox.cif.g08.bks.cpg/sg181_4_cif.got.tgz:7221.got - 2010.05.20 11:51:17.
