data_PCOD9584945
_publ_section_title
;
Structure prediction by ZEFSAII (Michael W. Deem and Ramdas Pophale) SiO2 
 PCOD9584945
Probable space group: P 6 M M
;
_chemical_formula_sum "Si O2"
_cell_formula_units_Z 96
_cell_length_a 23.680768
_cell_length_b 23.680768
_cell_length_c 12.241655
_cell_angle_alpha 90.000000
_cell_angle_beta 90.000000
_cell_angle_gamma 120.000000
_cell_volume 5945.143388
_symmetry_space_group_name_H-M "P 6 M M"
_symmetry_group_IT_number 183
_symmetry_cell_setting 'hexagonal'
loop_
_space_group_symop_operation_xyz
x,y,z
x-y,x,z
-y,x-y,z
-x,-y,z
-x+y,-x,z
y,-x+y,z
-x+y,y,z
x,x-y,z
-y,-x,z
y,x,z
x-y,-y,z
-x,-x+y,z
loop_
_atom_site_type_symbol
_atom_site_label
_atom_site_fract_x
_atom_site_fract_y
_atom_site_fract_z
Si Si1 0.728273 0.593465 0.165390
Si Si2 0.928147 0.206205 0.304687
Si Si3 0.335667 0.800859 0.780371
Si Si4 0.174304 0.688640 0.540829
Si Si5 0.865193 0.593466 0.916261
Si Si6 0.534808 0.335667 0.301283
Si Si7 0.071853 0.278056 0.776967
Si Si8 0.236552 0.338545 0.540827
O O1 0.795880 0.591759 0.163069
O O2 0.747642 0.659844 0.229177
O O3 0.679035 0.528617 0.231180
O O4 0.707801 0.593600 0.040826
O O5 0.867817 0.132184 0.293325
O O6 0.928145 0.229117 0.429045
O O7 0.000000 0.219012 0.279057
O O8 0.399308 0.798616 0.816558
O O9 0.271066 0.728935 0.787613
O O10 0.343425 0.822966 0.653873
O O11 0.320967 0.849584 0.850473
O O12 0.241475 0.758526 0.540831
O O13 0.177036 0.656578 0.427782
O O14 0.114358 0.702709 0.540829
O O15 0.795879 0.591758 0.918581
O O16 0.912202 0.659845 0.852475
O O17 0.542132 0.271066 0.294040
O O18 0.600692 0.399309 0.265099
O O19 0.132183 0.264365 0.788331
O O20 0.071856 0.300970 0.652608
O O21 0.000000 0.219011 0.802596
O O22 0.173788 0.347575 0.540824
#
# Coordination Sequence:
#
# PCOD9584945 Si02
#       8
#    12  12  12  12  12  12  12  12
#     4   9  18  32  48  67  93 127 168 209 245 282
#     4  10  19  32  53  79 104 127 155 193 235 280
#     4  10  18  28  44  68  98 130 165 207 256 305
#     4   9  15  26  44  66  94 126 163 206 251 296
#     4   9  18  32  48  67  93 127 168 209 245 282
#     4  10  18  28  44  68  98 130 165 207 256 305
#     4  10  19  32  53  79 104 127 155 193 235 280
#     4   9  15  28  49  74  99 125 159 199 240 278
#
# _framework density 16.147634
#
# number of rings (size 3 to 8) (size 9 to 14) (size 15 to 20)
#    0.000    2.500    2.500    1.000    0.000    1.000 
#    0.000    1.250    0.000    2.500    0.000    3.500 
#    0.000    3.000    0.000    6.250    0.000    0.000 
#
# Total GULP energy -534512.806298 kJ/mol
# GULP energy per Si atom -5567.841732 kJ/mol
# Density = 1.611088 g / cm^3
# Si number density = 16.147634 Si / 1000 Ang^3
#
#
#
# Elastic Constant Matrix: (Units=GPa)
#
#
# Indices 1 2 3 4 5 6 
#
# 1 80.7721 50.1284 33.4828 0.0000 0.0000 0.0000
# 2 50.1284 80.7721 33.4828 0.0000 0.0000 0.0000
# 3 33.4828 33.4828 113.7918 0.0000 0.0000 0.0000
# 4 0.0000 0.0000 0.0000 -2.4052 0.0000 0.0000
# 5 0.0000 0.0000 0.0000 0.0000 -2.4052 0.0000
# 6 0.0000 0.0000 0.0000 0.0000 0.0000 15.3219
#
#
#
# Elastic Compliance Matrix: (Units=1/GPa)
#
#
# Indices 1 2 3 4 5 6 
#
# 1 0.020813 -0.011820 -0.002646 0.000000 0.000000 0.000000
# 2 -0.011820 0.020813 -0.002646 0.000000 0.000000 0.000000
# 3 -0.002646 -0.002646 0.010345 0.000000 0.000000 0.000000
# 4 0.000000 0.000000 0.000000 -0.415768 0.000000 0.000000
# 5 0.000000 0.000000 0.000000 0.000000 -0.415768 0.000000
# 6 0.000000 0.000000 0.000000 0.000000 0.000000 0.065266
#
#
# Mechanical properties :
#
#
# Convention : Reuss Voigt Hill
#
# Bulk Modulus (GPa) = 56.34843 56.61376 56.48110
# Shear Modulus (GPa) = -7.41666 12.65177 2.61755
#
# Velocity S-wave (km/s) = -2.14546 2.80215 1.27457
# Velocity P-wave (km/s) = 5.36975 6.75319 6.10081
#
# Compressibility (1/GPa) = 0.01774672
#
# Stress axis : x y z
#
# Youngs Moduli (GPa) = 48.04661 48.04661 96.66282
#
# Poissons Ratio (x) = 0.56791 0.25579
# Poissons Ratio (y) = 0.56791 0.25579
# Poissons Ratio (z) = 0.12714 0.12714
#
# Static dielectric constant tensor:
#      x y z
#    x 1.534250 0.000000 0.000000 
#    y 0.000000 1.534250 0.000000 
#    z 0.000000 0.000000 1.555800 
# 
# From -- ./inp_files/2059.got.cif
#   From: 2010.05.17/outbox.cif.g08.bks.cpg/sg183_2_cif.got.tgz:2059.got - 2010.05.20 12:02:58.
