data_PCOD9584898
_publ_section_title
;
Structure prediction by ZEFSAII (Michael W. Deem and Ramdas Pophale) SiO2 
 PCOD9584898
Probable space group: P 63 2 2
;
_chemical_formula_sum "Si O2"
_cell_formula_units_Z 30
_cell_length_a 14.511950
_cell_length_b 14.511950
_cell_length_c 7.378231
_cell_angle_alpha 90.000000
_cell_angle_beta 90.000000
_cell_angle_gamma 120.000000
_cell_volume 1345.657160
_symmetry_space_group_name_H-M "P 63 2 2"
_symmetry_group_IT_number 182
_symmetry_cell_setting 'hexagonal'
loop_
_space_group_symop_operation_xyz
x,y,z
x-y,x,1/2+z
-y,x-y,z
-x,-y,1/2+z
-x+y,-x,z
y,-x+y,1/2+z
x-y,-y,-z
-x,-x+y,-z
y,x,-z
-y,-x,1/2-z
-x+y,y,1/2-z
x,x-y,1/2-z
loop_
_atom_site_type_symbol
_atom_site_label
_atom_site_fract_x
_atom_site_fract_y
_atom_site_fract_z
Si Si1 0.217713 0.001020 0.789889
Si Si2 0.584515 0.383274 0.966657
Si Si3 0.000000 0.623794 0.000000
O O1 0.194765 0.097383 0.750000
O O2 0.317054 0.020641 0.666154
O O3 0.111986 0.888015 0.750000
O O4 0.242862 0.000000 0.000000
O O5 0.553337 0.261800 0.016137
O O6 0.593722 0.406279 0.750000
O O7 0.492384 0.397001 0.045792
#
# Coordination Sequence:
#
# PCOD9584898 Si02
#       3
#    12  12   6
#     4  12  25  44  70 107 152 193 250 313 382 452
#     4   8  20  44  72 101 151 193 238 314 377 439
#     4  12  24  44  78 110 142 202 250 312 382 456
#
# _framework density 22.293941
#
# number of rings (size 3 to 8) (size 9 to 14) (size 15 to 20)
#    0.800    0.800    4.000    0.400    5.600    0.000 
#   10.800    0.000    0.000    7.200    0.000    0.000 
#    0.000    0.000    0.000    0.000    0.000    0.000 
#
# Total GULP energy -167387.015666 kJ/mol
# GULP energy per Si atom -5579.567189 kJ/mol
# Density = 2.224320 g / cm^3
# Si number density = 22.293941 Si / 1000 Ang^3
#
#
#
# Elastic Constant Matrix: (Units=GPa)
#
#
# Indices 1 2 3 4 5 6 
#
# 1 102.2448 35.3662 4.6654 0.0000 0.0000 0.0000
# 2 35.3662 102.2448 4.6654 0.0000 0.0000 0.0000
# 3 4.6654 4.6654 129.2541 0.0000 0.0000 0.0000
# 4 0.0000 0.0000 0.0000 7.0916 0.0000 0.0000
# 5 0.0000 0.0000 0.0000 0.0000 7.0916 0.0000
# 6 0.0000 0.0000 0.0000 0.0000 0.0000 33.4393
#
#
#
# Elastic Compliance Matrix: (Units=1/GPa)
#
#
# Indices 1 2 3 4 5 6 
#
# 1 0.011119 -0.003834 -0.000263 0.000000 0.000000 0.000000
# 2 -0.003834 0.011119 -0.000263 0.000000 0.000000 0.000000
# 3 -0.000263 -0.000263 0.007756 0.000000 0.000000 0.000000
# 4 0.000000 0.000000 0.000000 0.141013 0.000000 0.000000
# 5 0.000000 0.000000 0.000000 0.000000 0.141013 0.000000
# 6 0.000000 0.000000 0.000000 0.000000 0.000000 0.029905
#
#
# Mechanical properties :
#
#
# Convention : Reuss Voigt Hill
#
# Bulk Modulus (GPa) = 47.00729 47.01531 47.01130
# Shear Modulus (GPa) = 13.97688 28.79425 21.38557
#
# Velocity S-wave (km/s) = 2.50659 3.59775 3.10054
# Velocity P-wave (km/s) = 5.43215 6.19621 5.82672
#
# Compressibility (1/GPa) = 0.02127330
#
# Stress axis : x y z
#
# Youngs Moduli (GPa) = 89.93949 89.93949 128.93778
#
# Poissons Ratio (x) = 0.34482 0.03390
# Poissons Ratio (y) = 0.34482 0.03390
# Poissons Ratio (z) = 0.02365 0.02365
#
# Static dielectric constant tensor:
#      x y z
#    x 1.799100 0.000000 0.000000 
#    y 0.000000 1.799100 0.000000 
#    z 0.000000 0.000000 1.863350 
# 
# From -- ./inp_files/1183.got.cif
#   From: 2010.05.17/outbox.cif.g08.bks.cpg/sg182_1_cif.got.tgz:1183.got - 2010.05.20 11:58:53.
