data_PCOD9584566
_publ_section_title
;
Structure prediction by ZEFSAII (Michael W. Deem and Ramdas Pophale) SiO2 
 PCOD9584566
Probable space group: P 64 2 2
;
_chemical_formula_sum "Si O2"
_cell_formula_units_Z 72
_cell_length_a 14.513089
_cell_length_b 14.513089
_cell_length_c 15.881182
_cell_angle_alpha 90.000000
_cell_angle_beta 90.000000
_cell_angle_gamma 120.000000
_cell_volume 2896.897784
_symmetry_space_group_name_H-M "P 64 2 2"
_symmetry_group_IT_number 181
_symmetry_cell_setting 'hexagonal'
loop_
_space_group_symop_operation_xyz
x,y,z
x-y,x,2/3+z
-y,x-y,1/3+z
-x,-y,z
-x+y,-x,2/3+z
y,-x+y,1/3+z
x-y,-y,-z
-x,-x+y,2/3-z
y,x,1/3-z
-y,-x,1/3-z
-x+y,y,-z
x,x-y,2/3-z
loop_
_atom_site_type_symbol
_atom_site_label
_atom_site_fract_x
_atom_site_fract_y
_atom_site_fract_z
Si Si1 0.236789 0.936554 0.636870
Si Si2 0.614437 0.528366 0.294724
Si Si3 0.039846 0.675942 0.243985
Si Si4 0.903169 0.808755 0.598462
Si Si5 0.790903 0.604012 0.825732
Si Si6 0.427011 0.817562 0.801114
O O1 0.185000 0.815001 0.666667
O O2 0.211853 0.900122 0.540627
O O3 0.356435 0.003592 0.663509
O O4 0.188134 0.996476 0.689162
O O5 0.500000 0.500000 0.257431
O O6 0.710095 0.549426 0.234279
O O7 0.612312 0.455635 0.370120
O O8 0.116167 0.802787 0.260295
O O9 0.094914 0.625345 0.187770
O O10 0.000000 0.617091 0.333334
O O11 0.934178 0.672762 0.207283
O O12 0.867903 0.867903 0.666667
O O13 0.923084 0.846167 0.500000
O O14 0.681799 0.500371 0.854646
O O15 0.411704 0.705852 0.833334
#
# Coordination Sequence:
#
# PCOD9584566 Si02
#       6
#    12  12  12  12  12  12
#     4  12  26  47  75 108 154 205 261 333 422 511
#     4  12  27  48  75 107 157 216 271 342 430 514
#     4  11  23  46  77 112 153 208 277 353 428 502
#     4  11  24  46  77 111 153 204 274 348 428 509
#     4  12  28  47  76 112 159 216 272 344 432 529
#     4  12  26  47  78 116 160 208 283 354 429 516
#
# _framework density 24.854174
#
# number of rings (size 3 to 8) (size 9 to 14) (size 15 to 20)
#    0.000    0.333    0.000   10.500    2.333    5.667 
#    0.000    2.500    0.000    0.000    0.000    0.000 
#    0.000    0.000    0.000    0.000    0.000    0.000 
#
# Total GULP energy -401593.068022 kJ/mol
# GULP energy per Si atom -5577.681500 kJ/mol
# Density = 2.479760 g / cm^3
# Si number density = 24.854174 Si / 1000 Ang^3
#
#
#
# Elastic Constant Matrix: (Units=GPa)
#
#
# Indices 1 2 3 4 5 6 
#
# 1 123.7021 38.0598 61.5241 0.0000 0.0000 0.0000
# 2 38.0598 123.7021 61.5241 0.0000 0.0000 0.0000
# 3 61.5241 61.5241 155.7484 0.0000 0.0000 0.0000
# 4 0.0000 0.0000 0.0000 47.0078 0.0000 0.0000
# 5 0.0000 0.0000 0.0000 0.0000 47.0078 0.0000
# 6 0.0000 0.0000 0.0000 0.0000 0.0000 42.8211
#
#
#
# Elastic Compliance Matrix: (Units=1/GPa)
#
#
# Indices 1 2 3 4 5 6 
#
# 1 0.010257 -0.001420 -0.003491 0.000000 0.000000 0.000000
# 2 -0.001420 0.010257 -0.003491 0.000000 0.000000 0.000000
# 3 -0.003491 -0.003491 0.009179 0.000000 0.000000 0.000000
# 4 0.000000 0.000000 0.000000 0.021273 0.000000 0.000000
# 5 0.000000 0.000000 0.000000 0.000000 0.021273 0.000000
# 6 0.000000 0.000000 0.000000 0.000000 0.000000 0.023353
#
#
# Mechanical properties :
#
#
# Convention : Reuss Voigt Hill
#
# Bulk Modulus (GPa) = 77.58209 80.59650 79.08929
# Shear Modulus (GPa) = 42.84817 43.50366 43.17591
#
# Velocity S-wave (km/s) = 4.15659 4.18826 4.17246
# Velocity P-wave (km/s) = 7.37014 7.47575 7.42314
#
# Compressibility (1/GPa) = 0.01288957
#
# Stress axis : x y z
#
# Youngs Moduli (GPa) = 97.49483 97.49483 108.94861
#
# Poissons Ratio (x) = 0.13840 0.38034
# Poissons Ratio (y) = 0.13840 0.38034
# Poissons Ratio (z) = 0.34035 0.34035
#
# Static dielectric constant tensor:
#      x y z
#    x 1.980440 0.000000 0.000000 
#    y 0.000000 1.980440 0.000000 
#    z 0.000000 0.000000 1.401640 
# 
# From -- ./inp_files/7798.got.cif
#   From: 2010.05.17/outbox.cif.g08.bks.cpg/sg181_4_cif.got.tgz:7798.got - 2010.05.20 11:51:17.
