data_PCOD9584226
_publ_section_title
;
Structure prediction by ZEFSAII (Michael W. Deem and Ramdas Pophale) SiO2 
 PCOD9584226
Probable space group: P 64 2 2
;
_chemical_formula_sum "Si O2"
_cell_formula_units_Z 54
_cell_length_a 20.681171
_cell_length_b 20.681171
_cell_length_c 8.993410
_cell_angle_alpha 90.000000
_cell_angle_beta 90.000000
_cell_angle_gamma 120.000000
_cell_volume 3331.235037
_symmetry_space_group_name_H-M "P 64 2 2"
_symmetry_group_IT_number 181
_symmetry_cell_setting 'hexagonal'
loop_
_space_group_symop_operation_xyz
x,y,z
x-y,x,2/3+z
-y,x-y,1/3+z
-x,-y,z
-x+y,-x,2/3+z
y,-x+y,1/3+z
x-y,-y,-z
-x,-x+y,2/3-z
y,x,1/3-z
-y,-x,1/3-z
-x+y,y,-z
x,x-y,2/3-z
loop_
_atom_site_type_symbol
_atom_site_label
_atom_site_fract_x
_atom_site_fract_y
_atom_site_fract_z
Si Si1 0.650803 0.515911 0.736478
Si Si2 0.243337 0.550898 0.780654
Si Si3 0.000000 0.604618 0.833334
Si Si4 0.496434 0.898034 0.757782
Si Si5 0.862828 0.591139 0.989294
O O1 0.690964 0.465075 0.731830
O O2 0.639860 0.539761 0.574096
O O3 0.574480 0.472196 0.832478
O O4 0.702898 0.582686 0.841777
O O5 0.270380 0.635190 0.833334
O O6 0.182388 0.533582 0.652721
O O7 0.193452 0.490029 0.909056
O O8 0.959128 0.542808 0.702159
O O9 0.936808 0.618797 0.898709
O O10 0.816689 0.633377 0.000000
#
# Coordination Sequence:
#
# PCOD9584226 Si02
#       5
#    12  12   6  12  12
#     4  10  20  31  45  70  97 116 165 224 246 308
#     4  10  18  32  49  68 101 135 163 205 276 314
#     4  10  22  37  56  62  94 134 156 212 271 306
#     4  10  21  33  46  71  88 126 172 203 261 318
#     4   9  19  35  51  72  95 121 163 209 257 316
#
# _framework density 16.210204000000001
#
# number of rings (size 3 to 8) (size 9 to 14) (size 15 to 20)
#    0.000    2.222    2.222    0.667    0.000    6.222 
#    0.000    2.222    0.000    0.000    0.000    0.000 
#    0.000    0.000    0.000    0.000    0.000    0.000 
#
# Total GULP energy -300826.368411 kJ/mol
# GULP energy per Si atom -5570.858674 kJ/mol
# Density = 1.617331 g / cm^3
# Si number density = 16.210204 Si / 1000 Ang^3
#
#
#
# Elastic Constant Matrix: (Units=GPa)
#
#
# Indices 1 2 3 4 5 6 
#
# 1 68.6092 35.8510 37.5962 0.0000 0.0000 0.0000
# 2 35.8510 68.6092 37.5962 0.0000 0.0000 0.0000
# 3 37.5962 37.5962 133.0703 0.0000 0.0000 0.0000
# 4 0.0000 0.0000 0.0000 18.8278 0.0000 0.0000
# 5 0.0000 0.0000 0.0000 0.0000 18.8278 0.0000
# 6 0.0000 0.0000 0.0000 0.0000 0.0000 16.3791
#
#
#
# Elastic Compliance Matrix: (Units=1/GPa)
#
#
# Indices 1 2 3 4 5 6 
#
# 1 0.021272 -0.009255 -0.003395 0.000000 0.000000 0.000000
# 2 -0.009255 0.021272 -0.003395 0.000000 0.000000 0.000000
# 3 -0.003395 -0.003395 0.009433 0.000000 0.000000 0.000000
# 4 0.000000 0.000000 0.000000 0.053113 0.000000 0.000000
# 5 0.000000 0.000000 0.000000 0.000000 0.053113 0.000000
# 6 0.000000 0.000000 0.000000 0.000000 0.000000 0.061053
#
#
# Mechanical properties :
#
#
# Convention : Reuss Voigt Hill
#
# Bulk Modulus (GPa) = 50.28516 54.70838 52.49677
# Shear Modulus (GPa) = 19.38168 21.42327 20.40248
#
# Velocity S-wave (km/s) = 3.46156 3.63931 3.55155
# Velocity P-wave (km/s) = 6.86036 7.17510 7.01950
#
# Compressibility (1/GPa) = 0.01988658
#
# Stress axis : x y z
#
# Youngs Moduli (GPa) = 47.01058 47.01058 106.00785
#
# Poissons Ratio (x) = 0.43508 0.35991
# Poissons Ratio (y) = 0.43508 0.35991
# Poissons Ratio (z) = 0.15961 0.15961
#
# Static dielectric constant tensor:
#      x y z
#    x 1.601880 0.000000 0.000000 
#    y 0.000000 1.601880 0.000000 
#    z 0.000000 0.000000 1.610200 
# 
# From -- ./inp_files/3037.got.cif
#   From: 2010.05.17/outbox.cif.g08.bks.cpg/sg181_2_cif.got.tgz:3037.got - 2010.05.20 11:51:17.
