data_PCOD9584891
_publ_section_title
;
Structure prediction by ZEFSAII (Michael W. Deem and Ramdas Pophale) SiO2 
 PCOD9584891
Probable space group: P 63 2 2
;
_chemical_formula_sum "Si O2"
_cell_formula_units_Z 24
_cell_length_a 8.677016
_cell_length_b 8.677016
_cell_length_c 19.499645
_cell_angle_alpha 90.000000
_cell_angle_beta 90.000000
_cell_angle_gamma 120.000000
_cell_volume 1271.446624
_symmetry_space_group_name_H-M "P 63 2 2"
_symmetry_group_IT_number 182
_symmetry_cell_setting 'hexagonal'
loop_
_space_group_symop_operation_xyz
x,y,z
x-y,x,1/2+z
-y,x-y,z
-x,-y,1/2+z
-x+y,-x,z
y,-x+y,1/2+z
x-y,-y,-z
-x,-x+y,-z
y,x,-z
-y,-x,1/2-z
-x+y,y,1/2-z
x,x-y,1/2-z
loop_
_atom_site_type_symbol
_atom_site_label
_atom_site_fract_x
_atom_site_fract_y
_atom_site_fract_z
Si Si1 0.665693 0.000116 0.778469
Si Si2 0.999461 0.796182 0.922690
O O1 0.860216 0.139785 0.750000
O O2 0.526254 0.052507 0.750000
O O3 0.678935 0.000541 0.860709
O O4 0.614845 0.807423 0.750000
O O5 0.834269 0.834698 0.916080
O O6 0.000000 0.733800 0.000000
#
# Coordination Sequence:
#
# PCOD9584891 Si02
#       2
#    12  12
#     4  12  22  38  59  89 124 158 202 251 307 360
#     4   8  15  33  62  86 109 157 208 251 305 351
#
# _framework density 18.876134
#
# number of rings (size 3 to 8) (size 9 to 14) (size 15 to 20)
#    1.000    1.000    5.000    1.500    0.000    0.000 
#    0.000    5.000    0.000    0.000    0.000    0.000 
#    0.000    0.000    0.000    0.000    0.000    0.000 
#
# Total GULP energy -133693.215078 kJ/mol
# GULP energy per Si atom -5570.550628 kJ/mol
# Density = 1.883317 g / cm^3
# Si number density = 18.876134 Si / 1000 Ang^3
#
#
#
# Elastic Constant Matrix: (Units=GPa)
#
#
# Indices 1 2 3 4 5 6 
#
# 1 41.1046 -0.8172 34.6386 0.0000 0.0000 0.0000
# 2 -0.8172 41.1046 34.6386 0.0000 0.0000 0.0000
# 3 34.6386 34.6386 226.8491 0.0000 0.0000 0.0000
# 4 0.0000 0.0000 0.0000 22.8096 0.0000 0.0000
# 5 0.0000 0.0000 0.0000 0.0000 22.8096 0.0000
# 6 0.0000 0.0000 0.0000 0.0000 0.0000 20.9609
#
#
#
# Elastic Compliance Matrix: (Units=1/GPa)
#
#
# Indices 1 2 3 4 5 6 
#
# 1 0.028757 0.004903 -0.005140 0.000000 0.000000 0.000000
# 2 0.004903 0.028757 -0.005140 0.000000 0.000000 0.000000
# 3 -0.005140 -0.005140 0.005978 0.000000 0.000000 0.000000
# 4 0.000000 0.000000 0.000000 0.043841 0.000000 0.000000
# 5 0.000000 0.000000 0.000000 0.000000 0.043841 0.000000
# 6 0.000000 0.000000 0.000000 0.000000 0.000000 0.047708
#
#
# Mechanical properties :
#
#
# Convention : Reuss Voigt Hill
#
# Bulk Modulus (GPa) = 18.96147 49.55315 34.25731
# Shear Modulus (GPa) = 22.00568 29.35590 25.68079
#
# Velocity S-wave (km/s) = 3.41808 3.94786 3.69248
# Velocity P-wave (km/s) = 5.06406 6.86218 6.03052
#
# Compressibility (1/GPa) = 0.05273854
#
# Stress axis : x y z
#
# Youngs Moduli (GPa) = 34.77438 34.77438 167.28546
#
# Poissons Ratio (x) = -0.17049 0.85979
# Poissons Ratio (y) = -0.17049 0.85979
# Poissons Ratio (z) = 0.17873 0.17873
#
# Static dielectric constant tensor:
#      x y z
#    x 1.640110 0.000000 0.000000 
#    y 0.000000 1.640110 0.000000 
#    z 0.000000 0.000000 1.664620 
# 
# From -- ./inp_files/3838.got.cif
#   From: 2010.05.17/outbox.cif.g08.bks.cpg/sg182_2_cif.got.tgz:3838.got - 2010.05.20 11:58:53.
