data_PCOD9584344
_publ_section_title
;
Structure prediction by ZEFSAII (Michael W. Deem and Ramdas Pophale) SiO2 
 PCOD9584344
Probable space group: P 64 2 2
;
_chemical_formula_sum "Si O2"
_cell_formula_units_Z 72
_cell_length_a 14.432362
_cell_length_b 14.432362
_cell_length_c 19.906485
_cell_angle_alpha 90.000000
_cell_angle_beta 90.000000
_cell_angle_gamma 120.000000
_cell_volume 3590.872952
_symmetry_space_group_name_H-M "P 64 2 2"
_symmetry_group_IT_number 181
_symmetry_cell_setting 'hexagonal'
loop_
_space_group_symop_operation_xyz
x,y,z
x-y,x,2/3+z
-y,x-y,1/3+z
-x,-y,z
-x+y,-x,2/3+z
y,-x+y,1/3+z
x-y,-y,-z
-x,-x+y,2/3-z
y,x,1/3-z
-y,-x,1/3-z
-x+y,y,-z
x,x-y,2/3-z
loop_
_atom_site_type_symbol
_atom_site_label
_atom_site_fract_x
_atom_site_fract_y
_atom_site_fract_z
Si Si1 0.030658 0.262431 0.425356
Si Si2 0.480227 0.098767 0.091775
Si Si3 0.643650 0.356351 0.666667
Si Si4 0.140135 0.280269 0.000000
Si Si5 0.094582 0.978474 0.421869
Si Si6 0.732742 0.685059 0.417978
Si Si7 0.811246 0.442910 0.549011
O O1 0.150894 0.302705 0.398243
O O2 0.030383 0.266242 0.507048
O O3 0.963929 0.319759 0.409589
O O4 0.953478 0.142710 0.404384
O O5 0.527403 0.142387 0.167330
O O6 0.500000 0.000000 0.080023
O O7 0.542684 0.203077 0.044906
O O8 0.738854 0.381464 0.613959
O O9 0.253116 0.316261 0.958730
O O10 0.055116 0.204512 0.945837
O O11 0.112527 0.000000 0.500000
O O12 0.000000 0.000000 0.403225
O O13 0.652469 0.558414 0.426949
O O14 0.731818 0.463636 0.500000
#
# Coordination Sequence:
#
# PCOD9584344 Si02
#       7
#    12  12   6   6  12  12  12
#     4  11  20  35  56  79 115 166 204 244 309 369
#     4  11  21  38  62  90 123 159 207 277 329 383
#     4  10  23  38  59  98 121 151 211 273 334 402
#     4  12  23  32  53  80 119 171 204 231 302 386
#     4  11  20  35  48  75 118 159 199 237 280 366
#     4  11  20  36  54  82 121 166 203 248 309 387
#     4  10  20  40  61  84 125 162 201 267 343 380
#
# _framework density 20.050836
#
# number of rings (size 3 to 8) (size 9 to 14) (size 15 to 20)
#    0.000    1.167    6.667    2.500    2.333    0.000 
#    0.000    0.833    0.000    0.000    0.000    0.000 
#    0.000    0.000    0.000    0.000    0.000    0.000 
#
# Total GULP energy -400936.226978 kJ/mol
# GULP energy per Si atom -5568.558708 kJ/mol
# Density = 2.000520 g / cm^3
# Si number density = 20.050836 Si / 1000 Ang^3
#
#
#
# Elastic Constant Matrix: (Units=GPa)
#
#
# Indices 1 2 3 4 5 6 
#
# 1 68.4107 45.9831 22.7429 0.0000 0.0000 0.0000
# 2 45.9831 68.4107 22.7429 0.0000 0.0000 0.0000
# 3 22.7429 22.7429 124.3674 0.0000 0.0000 0.0000
# 4 0.0000 0.0000 0.0000 17.4221 0.0000 0.0000
# 5 0.0000 0.0000 0.0000 0.0000 17.4221 0.0000
# 6 0.0000 0.0000 0.0000 0.0000 0.0000 11.2138
#
#
#
# Elastic Compliance Matrix: (Units=1/GPa)
#
#
# Indices 1 2 3 4 5 6 
#
# 1 0.027008 -0.017580 -0.001724 0.000000 0.000000 0.000000
# 2 -0.017580 0.027008 -0.001724 0.000000 0.000000 0.000000
# 3 -0.001724 -0.001724 0.008671 0.000000 0.000000 0.000000
# 4 0.000000 0.000000 0.000000 0.057398 0.000000 0.000000
# 5 0.000000 0.000000 0.000000 0.000000 0.057398 0.000000
# 6 0.000000 0.000000 0.000000 0.000000 0.000000 0.089176
#
#
# Mechanical properties :
#
#
# Convention : Reuss Voigt Hill
#
# Bulk Modulus (GPa) = 48.47344 49.34742 48.91043
# Shear Modulus (GPa) = 15.84323 20.52626 18.18475
#
# Velocity S-wave (km/s) = 2.81402 3.20302 3.01480
# Velocity P-wave (km/s) = 5.89797 6.19223 6.04689
#
# Compressibility (1/GPa) = 0.02062985
#
# Stress axis : x y z
#
# Youngs Moduli (GPa) = 37.02658 37.02658 115.32425
#
# Poissons Ratio (x) = 0.65094 0.19881
# Poissons Ratio (y) = 0.65094 0.19881
# Poissons Ratio (z) = 0.06383 0.06383
#
# Static dielectric constant tensor:
#      x y z
#    x 1.750160 0.000000 0.000000 
#    y 0.000000 1.750160 0.000000 
#    z 0.000000 0.000000 1.848790 
# 
# From -- ./inp_files/9102.got.cif
#   From: 2010.05.17/outbox.cif.g08.bks.cpg/sg181_5_cif.got.tgz:9102.got - 2010.05.20 11:51:17.
