data_PCOD9584359
_publ_section_title
;
Structure prediction by ZEFSAII (Michael W. Deem and Ramdas Pophale) SiO2 
 PCOD9584359
Probable space group: P 64 2 2
;
_chemical_formula_sum "Si O2"
_cell_formula_units_Z 48
_cell_length_a 17.630509
_cell_length_b 17.630509
_cell_length_c 8.193990
_cell_angle_alpha 90.000000
_cell_angle_beta 90.000000
_cell_angle_gamma 120.000000
_cell_volume 2205.747333
_symmetry_space_group_name_H-M "P 64 2 2"
_symmetry_group_IT_number 181
_symmetry_cell_setting 'hexagonal'
loop_
_space_group_symop_operation_xyz
x,y,z
x-y,x,2/3+z
-y,x-y,1/3+z
-x,-y,z
-x+y,-x,2/3+z
y,-x+y,1/3+z
x-y,-y,-z
-x,-x+y,2/3-z
y,x,1/3-z
-y,-x,1/3-z
-x+y,y,-z
x,x-y,2/3-z
loop_
_atom_site_type_symbol
_atom_site_label
_atom_site_fract_x
_atom_site_fract_y
_atom_site_fract_z
Si Si1 0.222644 0.527056 0.336230
Si Si2 0.938888 0.323294 0.203032
Si Si3 0.346500 0.480658 0.191457
Si Si4 0.760303 0.060445 0.652294
O O1 0.279683 0.559365 0.500000
O O2 0.182982 0.591491 0.333334
O O3 0.151097 0.425028 0.362589
O O4 0.286432 0.526096 0.199680
O O5 0.000000 0.396798 0.333334
O O6 0.906169 0.344202 0.034541
O O7 0.997180 0.281644 0.141355
O O8 0.445095 0.554906 0.166667
O O9 0.305474 0.402627 0.061169
O O10 0.856643 0.143358 0.666667
O O11 0.753679 0.000000 0.500000
#
# Coordination Sequence:
#
# PCOD9584359 Si02
#       4
#    12  12  12  12
#     4  10  21  35  53  80 117 162 212 256 297 353
#     4  10  22  37  56  83 116 157 214 267 313 370
#     4  10  22  38  57  85 126 174 218 258 311 374
#     4  10  22  40  63  91 128 170 211 264 337 407
#
# _framework density 21.761334000000002
#
# number of rings (size 3 to 8) (size 9 to 14) (size 15 to 20)
#    0.000    2.000    0.000    2.250    0.000   18.000 
#    0.000    0.000    0.000    0.000    0.000    0.000 
#    0.000  142.000    0.000    0.000    0.000    0.000 
#
# Total GULP energy -267545.512937 kJ/mol
# GULP energy per Si atom -5573.864853 kJ/mol
# Density = 2.171180 g / cm^3
# Si number density = 21.761334 Si / 1000 Ang^3
#
#
#
# Elastic Constant Matrix: (Units=GPa)
#
#
# Indices 1 2 3 4 5 6 
#
# 1 108.4335 54.2430 19.7811 0.0000 0.0000 0.0000
# 2 54.2430 108.4335 19.7811 0.0000 0.0000 0.0000
# 3 19.7811 19.7811 64.4009 0.0000 0.0000 0.0000
# 4 0.0000 0.0000 0.0000 10.0983 0.0000 0.0000
# 5 0.0000 0.0000 0.0000 0.0000 10.0983 0.0000
# 6 0.0000 0.0000 0.0000 0.0000 0.0000 27.0953
#
#
#
# Elastic Compliance Matrix: (Units=1/GPa)
#
#
# Indices 1 2 3 4 5 6 
#
# 1 0.012548 -0.005905 -0.002041 0.000000 0.000000 0.000000
# 2 -0.005905 0.012548 -0.002041 0.000000 0.000000 0.000000
# 3 -0.002041 -0.002041 0.016781 0.000000 0.000000 0.000000
# 4 0.000000 0.000000 0.000000 0.099027 0.000000 0.000000
# 5 0.000000 0.000000 0.000000 0.000000 0.099027 0.000000
# 6 0.000000 0.000000 0.000000 0.000000 0.000000 0.036907
#
#
# Mechanical properties :
#
#
# Convention : Reuss Voigt Hill
#
# Bulk Modulus (GPa) = 45.64986 52.09757 48.87371
# Shear Modulus (GPa) = 16.44128 21.95587 19.19857
#
# Velocity S-wave (km/s) = 2.75167 3.17983 2.97346
# Velocity P-wave (km/s) = 5.57841 6.12161 5.85631
#
# Compressibility (1/GPa) = 0.02190587
#
# Stress axis : x y z
#
# Youngs Moduli (GPa) = 79.69129 79.69129 59.59018
#
# Poissons Ratio (x) = 0.47058 0.12160
# Poissons Ratio (y) = 0.47058 0.12160
# Poissons Ratio (z) = 0.16262 0.16262
#
# Static dielectric constant tensor:
#      x y z
#    x 1.844780 0.000000 0.000000 
#    y 0.000000 1.844780 0.000000 
#    z 0.000000 0.000000 1.881850 
# 
# From -- ./inp_files/2603.got.cif
#   From: 2010.05.17/outbox.cif.g08.bks.cpg/sg181_2_cif.got.tgz:2603.got - 2010.05.20 11:51:17.
