data_PCOD9584398
_publ_section_title
;
Structure prediction by ZEFSAII (Michael W. Deem and Ramdas Pophale) SiO2 
 PCOD9584398
Probable space group: P 64 2 2
;
_chemical_formula_sum "Si O2"
_cell_formula_units_Z 75
_cell_length_a 11.963465
_cell_length_b 11.963465
_cell_length_c 27.502575
_cell_angle_alpha 90.000000
_cell_angle_beta 90.000000
_cell_angle_gamma 120.000000
_cell_volume 3408.929001
_symmetry_space_group_name_H-M "P 64 2 2"
_symmetry_group_IT_number 181
_symmetry_cell_setting 'hexagonal'
loop_
_space_group_symop_operation_xyz
x,y,z
x-y,x,2/3+z
-y,x-y,1/3+z
-x,-y,z
-x+y,-x,2/3+z
y,-x+y,1/3+z
x-y,-y,-z
-x,-x+y,2/3-z
y,x,1/3-z
-y,-x,1/3-z
-x+y,y,-z
x,x-y,2/3-z
loop_
_atom_site_type_symbol
_atom_site_label
_atom_site_fract_x
_atom_site_fract_y
_atom_site_fract_z
Si Si1 0.265988 0.101214 0.615017
Si Si2 0.711448 0.638590 0.799573
Si Si3 0.816001 0.472304 0.459438
Si Si4 0.000000 0.000000 0.000000
Si Si5 0.549493 0.708281 0.380978
Si Si6 0.097626 0.375104 0.873308
Si Si7 0.702480 0.564933 0.374852
O O1 0.283283 0.218556 0.581693
O O2 0.368745 0.146789 0.658754
O O3 0.123751 0.032565 0.635452
O O4 0.279227 0.001732 0.579574
O O5 0.637491 0.489055 0.782678
O O6 0.595959 0.658436 0.817409
O O7 0.819915 0.668654 0.839691
O O8 0.707351 0.414702 0.500000
O O9 0.780579 0.530526 0.413625
O O10 0.595401 0.797701 0.333334
O O11 0.524992 0.785951 0.424305
O O12 0.651509 0.660808 0.393953
O O13 0.422391 0.575751 0.366193
O O14 0.000000 0.381748 0.833334
#
# Coordination Sequence:
#
# PCOD9584398 Si02
#       7
#    12  12  12   3  12  12  12
#     4  11  23  42  64  99 135 180 228 293 363 425
#     4  10  24  42  64  97 136 174 235 288 351 441
#     4  11  23  42  66  95 131 180 229 284 360 433
#     4  12  24  40  70 102 144 184 238 292 358 422
#     4  11  22  41  67 100 133 177 242 297 360 444
#     4  10  21  42  68  92 139 180 229 299 359 429
#     4  11  24  40  69  97 136 180 231 297 361 442
#
# _framework density 22.001044
#
# number of rings (size 3 to 8) (size 9 to 14) (size 15 to 20)
#    0.000    1.280    1.600    3.840    2.240    3.840 
#    0.000    4.400    3.520    0.000    0.000    0.000 
#    0.000    0.000    0.000    0.000    0.000    0.000 
#
# Total GULP energy -418375.385687 kJ/mol
# GULP energy per Si atom -5578.338476 kJ/mol
# Density = 2.195097 g / cm^3
# Si number density = 22.001044 Si / 1000 Ang^3
#
#
#
# Elastic Constant Matrix: (Units=GPa)
#
#
# Indices 1 2 3 4 5 6 
#
# 1 34.4228 -12.4736 16.2075 0.0000 0.0000 0.0000
# 2 -12.4736 34.4228 16.2075 0.0000 0.0000 0.0000
# 3 16.2075 16.2075 120.2130 0.0000 0.0000 0.0000
# 4 0.0000 0.0000 0.0000 12.0683 0.0000 0.0000
# 5 0.0000 0.0000 0.0000 0.0000 12.0683 0.0000
# 6 0.0000 0.0000 0.0000 0.0000 0.0000 23.4482
#
#
#
# Elastic Compliance Matrix: (Units=1/GPa)
#
#
# Indices 1 2 3 4 5 6 
#
# 1 0.039105 0.017781 -0.007670 0.000000 0.000000 0.000000
# 2 0.017781 0.039105 -0.007670 0.000000 0.000000 0.000000
# 3 -0.007670 -0.007670 0.010387 0.000000 0.000000 0.000000
# 4 0.000000 0.000000 0.000000 0.082862 0.000000 0.000000
# 5 0.000000 0.000000 0.000000 0.000000 0.082862 0.000000
# 6 0.000000 0.000000 0.000000 0.000000 0.000000 0.042647
#
#
# Mechanical properties :
#
#
# Convention : Reuss Voigt Hill
#
# Bulk Modulus (GPa) = 10.69737 25.43794 18.06765
# Shear Modulus (GPa) = 15.46824 20.79145 18.12984
#
# Velocity S-wave (km/s) = 2.65442 3.07745 2.87373
# Velocity P-wave (km/s) = 3.77722 4.92086 4.38647
#
# Compressibility (1/GPa) = 0.09348096
#
# Stress axis : x y z
#
# Youngs Moduli (GPa) = 25.57219 25.57219 96.27741
#
# Poissons Ratio (x) = -0.45471 0.73841
# Poissons Ratio (y) = -0.45471 0.73841
# Poissons Ratio (z) = 0.19613 0.19613
#
# Static dielectric constant tensor:
#      x y z
#    x 1.792950 0.000000 0.000000 
#    y 0.000000 1.792950 0.000000 
#    z 0.000000 0.000000 1.791920 
# 
# From -- ./inp_files/12354.got.cif
#   From: 2010.05.17/outbox.cif.g08.bks.cpg/sg181_7_cif.got.tgz:12354.got - 2010.05.20 11:51:17.
