data_PCOD9584780
_publ_section_title
;
Structure prediction by ZEFSAII (Michael W. Deem and Ramdas Pophale) SiO2 
 PCOD9584780
Probable space group: P 63 2 2
;
_chemical_formula_sum "Si O2"
_cell_formula_units_Z 48
_cell_length_a 22.572409
_cell_length_b 22.572409
_cell_length_c 6.278960
_cell_angle_alpha 90.000000
_cell_angle_beta 90.000000
_cell_angle_gamma 120.000000
_cell_volume 2770.602169
_symmetry_space_group_name_H-M "P 63 2 2"
_symmetry_group_IT_number 182
_symmetry_cell_setting 'hexagonal'
loop_
_space_group_symop_operation_xyz
x,y,z
x-y,x,1/2+z
-y,x-y,z
-x,-y,1/2+z
-x+y,-x,z
y,-x+y,1/2+z
x-y,-y,-z
-x,-x+y,-z
y,x,-z
-y,-x,1/2-z
-x+y,y,1/2-z
x,x-y,1/2-z
loop_
_atom_site_type_symbol
_atom_site_label
_atom_site_fract_x
_atom_site_fract_y
_atom_site_fract_z
Si Si1 0.642699 0.464125 0.090881
Si Si2 0.348946 0.000000 0.500000
Si Si3 0.756000 0.244001 0.750000
Si Si4 0.417431 0.463599 0.325226
Si Si5 0.260768 0.403760 0.875284
O O1 0.599298 0.400703 0.250000
O O2 0.683989 0.531332 0.236997
O O3 0.697314 0.465446 0.921509
O O4 0.595253 0.480386 0.938372
O O5 0.417203 0.046043 0.638425
O O6 0.346568 0.062722 0.388030
O O7 0.819839 0.257090 0.600543
O O8 0.409525 0.409525 0.500000
O O9 0.495700 0.504301 0.250000
O O10 0.189664 0.379327 0.750000
#
# Coordination Sequence:
#
# PCOD9584780 Si02
#       5
#    12   6   6  12  12
#     4  11  22  36  56  80 104 137 179 232 290 336
#     4  12  20  34  56  76 108 144 168 216 278 332
#     4  10  22  38  56  76 108 138 178 232 282 344
#     4  12  21  31  49  85 107 127 168 223 282 339
#     4  10  22  38  54  80 105 139 180 222 274 337
#
# _framework density 17.324753999999999
#
# number of rings (size 3 to 8) (size 9 to 14) (size 15 to 20)
#    0.000    1.000    6.250    2.250    0.000    0.000 
#    0.000    0.000    0.000   22.500    0.000    0.000 
#    0.000    0.000    0.000    0.000    0.000    0.000 
#
# Total GULP energy -267248.772412 kJ/mol
# GULP energy per Si atom -5567.682759 kJ/mol
# Density = 1.728532 g / cm^3
# Si number density = 17.324754 Si / 1000 Ang^3
#
#
#
# Elastic Constant Matrix: (Units=GPa)
#
#
# Indices 1 2 3 4 5 6 
#
# 1 79.4075 46.4022 37.0846 0.0000 0.0000 0.0000
# 2 46.4022 79.4075 37.0846 0.0000 0.0000 0.0000
# 3 37.0846 37.0846 99.0444 0.0000 0.0000 0.0000
# 4 0.0000 0.0000 0.0000 20.0619 0.0000 0.0000
# 5 0.0000 0.0000 0.0000 0.0000 20.0619 0.0000
# 6 0.0000 0.0000 0.0000 0.0000 0.0000 16.5027
#
#
#
# Elastic Compliance Matrix: (Units=1/GPa)
#
#
# Indices 1 2 3 4 5 6 
#
# 1 0.020249 -0.010049 -0.003819 0.000000 0.000000 0.000000
# 2 -0.010049 0.020249 -0.003819 0.000000 0.000000 0.000000
# 3 -0.003819 -0.003819 0.012956 0.000000 0.000000 0.000000
# 4 0.000000 0.000000 0.000000 0.049846 0.000000 0.000000
# 5 0.000000 0.000000 0.000000 0.000000 0.049846 0.000000
# 6 0.000000 0.000000 0.000000 0.000000 0.000000 0.060596
#
#
# Mechanical properties :
#
#
# Convention : Reuss Voigt Hill
#
# Bulk Modulus (GPa) = 55.30989 55.44468 55.37729
# Shear Modulus (GPa) = 19.59680 20.47782 20.03731
#
# Velocity S-wave (km/s) = 3.36690 3.44175 3.40453
# Velocity P-wave (km/s) = 6.86362 6.91859 6.89116
#
# Compressibility (1/GPa) = 0.01807995
#
# Stress axis : x y z
#
# Youngs Moduli (GPa) = 49.38498 49.38498 77.18172
#
# Poissons Ratio (x) = 0.49627 0.29477
# Poissons Ratio (y) = 0.49627 0.29477
# Poissons Ratio (z) = 0.18861 0.18861
#
# Static dielectric constant tensor:
#      x y z
#    x 1.656420 0.000000 0.000000 
#    y 0.000000 1.656420 0.000000 
#    z 0.000000 0.000000 1.787290 
# 
# From -- ./inp_files/512.got.cif
#   From: 2010.05.17/outbox.cif.g08.bks.cpg/sg182_1_cif.got.tgz:512.got - 2010.05.20 11:58:53.
