data_PCOD9584890
_publ_section_title
;
Structure prediction by ZEFSAII (Michael W. Deem and Ramdas Pophale) SiO2 
 PCOD9584890
Probable space group: P 63 2 2
;
_chemical_formula_sum "Si O2"
_cell_formula_units_Z 36
_cell_length_a 8.977681
_cell_length_b 8.977681
_cell_length_c 27.883723
_cell_angle_alpha 90.000000
_cell_angle_beta 90.000000
_cell_angle_gamma 120.000000
_cell_volume 1946.299768
_symmetry_space_group_name_H-M "P 63 2 2"
_symmetry_group_IT_number 182
_symmetry_cell_setting 'hexagonal'
loop_
_space_group_symop_operation_xyz
x,y,z
x-y,x,1/2+z
-y,x-y,z
-x,-y,1/2+z
-x+y,-x,z
y,-x+y,1/2+z
x-y,-y,-z
-x,-x+y,-z
y,x,-z
-y,-x,1/2-z
-x+y,y,1/2-z
x,x-y,1/2-z
loop_
_atom_site_type_symbol
_atom_site_label
_atom_site_fract_x
_atom_site_fract_y
_atom_site_fract_z
Si Si1 0.665753 0.665642 0.653677
Si Si2 0.666668 0.333334 0.692340
Si Si3 0.666668 0.333334 0.192407
Si Si4 0.803482 0.803827 0.445324
Si Si5 0.000000 0.000000 0.692843
O O1 0.642620 0.487863 0.672834
O O2 0.510896 0.688240 0.672976
O O3 0.683440 0.683088 0.596158
O O4 0.844193 0.821980 0.673535
O O5 0.666668 0.333334 0.750000
O O6 0.666668 0.333334 0.250000
O O7 0.748624 0.748624 0.500000
O O8 0.999724 0.839689 0.439666
O O9 0.000000 0.000000 0.750000
#
# Coordination Sequence:
#
# PCOD9584890 Si02
#       5
#    12   4   4  12   4
#     4  12  22  41  62  91 122 165 208 254 316 361
#     4  12  27  42  61  89 130 168 213 261 304 365
#     4  12  27  42  61  89 130 168 213 261 304 365
#     4   8  16  35  65  92 119 158 202 251 311 368
#     4  12  21  36  64  89 121 159 207 249 310 374
#
# _framework density 18.496635000000001
#
# number of rings (size 3 to 8) (size 9 to 14) (size 15 to 20)
#    0.667    0.667    3.333    5.000    0.000    0.000 
#    0.000    3.333    0.000    0.000    0.000    0.000 
#    0.000    0.000    0.000    0.000    0.000    0.000 
#
# Total GULP energy -200971.798174 kJ/mol
# GULP energy per Si atom -5582.549949 kJ/mol
# Density = 1.845454 g / cm^3
# Si number density = 18.496635 Si / 1000 Ang^3
#
#
#
# Elastic Constant Matrix: (Units=GPa)
#
#
# Indices 1 2 3 4 5 6 
#
# 1 40.3247 -20.2885 28.6242 0.0003 0.0000 -0.0002
# 2 -20.2885 40.3250 28.6240 0.0000 0.0001 0.0001
# 3 28.6242 28.6240 206.8987 0.0002 -0.0003 -0.0001
# 4 0.0003 0.0000 0.0002 17.5004 -0.0001 0.0000
# 5 0.0000 0.0001 -0.0003 -0.0001 17.5018 -0.0002
# 6 -0.0002 0.0001 -0.0001 0.0000 -0.0002 30.3065
#
#
#
# Elastic Compliance Matrix: (Units=1/GPa)
#
#
# Indices 1 2 3 4 5 6 
#
# 1 0.049517 0.033018 -0.011419 -0.000001 0.000000 0.000000
# 2 0.033018 0.049516 -0.011419 -0.000001 0.000000 0.000000
# 3 -0.011419 -0.011419 0.007993 0.000000 0.000000 0.000000
# 4 -0.000001 -0.000001 0.000000 0.057142 0.000000 0.000000
# 5 0.000000 0.000000 0.000000 0.000000 0.057137 0.000000
# 6 0.000000 0.000000 0.000000 0.000000 0.000000 0.032996
#
#
# Mechanical properties :
#
#
# Convention : Reuss Voigt Hill
#
# Bulk Modulus (GPa) = 7.85002 40.16306 24.00654
# Shear Modulus (GPa) = 18.08969 29.76765 23.92867
#
# Velocity S-wave (km/s) = 3.13069 4.01603 3.60067
# Velocity P-wave (km/s) = 4.16192 6.57765 5.50395
#
# Compressibility (1/GPa) = 0.12738817
#
# Stress axis : x y z
#
# Youngs Moduli (GPa) = 20.19523 20.19542 125.11330
#
# Poissons Ratio (x) = -0.66682 1.42862
# Poissons Ratio (y) = -0.66681 1.42861
# Poissons Ratio (z) = 0.23060 0.23060
#
# Static dielectric constant tensor:
#      x y z
#    x 1.611910 0.000000 0.000000 
#    y 0.000000 1.611910 0.000000 
#    z 0.000000 0.000000 1.648100 
# 
# From -- ./inp_files/5610.got.cif
#   From: 2010.05.17/outbox.cif.g08.bks.cpg/sg182_3_cif.got.tgz:5610.got - 2010.05.20 11:58:53.
