data_PCOD9584929
_publ_section_title
;
Structure prediction by ZEFSAII (Michael W. Deem and Ramdas Pophale) SiO2 
 PCOD9584929
Probable space group: P 6 M M
;
_chemical_formula_sum "Si O2"
_cell_formula_units_Z 84
_cell_length_a 18.163163
_cell_length_b 18.163163
_cell_length_c 18.511124
_cell_angle_alpha 90.000000
_cell_angle_beta 90.000000
_cell_angle_gamma 120.000000
_cell_volume 5288.668948
_symmetry_space_group_name_H-M "P 6 M M"
_symmetry_group_IT_number 183
_symmetry_cell_setting 'hexagonal'
loop_
_space_group_symop_operation_xyz
x,y,z
x-y,x,z
-y,x-y,z
-x,-y,z
-x+y,-x,z
y,-x+y,z
-x+y,y,z
x,x-y,z
-y,-x,z
y,x,z
x-y,-y,z
-x,-x+y,z
loop_
_atom_site_type_symbol
_atom_site_label
_atom_site_fract_x
_atom_site_fract_y
_atom_site_fract_z
Si Si1 0.492057 0.332500 0.406100
Si Si2 0.898279 0.364613 0.129518
Si Si3 0.637868 0.097184 0.824600
Si Si4 0.330509 0.832480 0.976419
Si Si5 0.097142 0.730855 0.541136
Si Si6 0.834538 0.330891 0.668863
Si Si7 0.900012 0.631462 0.270029
O O1 0.517512 0.258756 0.405684
O O2 0.574915 0.425086 0.406053
O O3 0.433429 0.315245 0.476302
O O4 0.432516 0.315621 0.336527
O O5 0.866226 0.433113 0.140066
O O6 0.865613 0.317737 0.052896
O O7 0.878685 0.303198 0.197146
O O8 0.000000 0.419652 0.124835
O O9 0.550213 0.100425 0.828559
O O10 0.681178 0.147237 0.751905
O O11 0.611615 0.000000 0.815260
O O12 0.682538 0.130631 0.901760
O O13 0.427805 0.855609 0.978010
O O14 0.267861 0.732140 0.973792
O O15 0.169783 0.830218 0.538020
O O16 0.111473 0.692304 0.614839
O O17 0.000000 0.708049 0.535509
O O18 0.853311 0.426656 0.659373
O O19 0.736209 0.263792 0.652665
O O20 0.831671 0.663341 0.277206
O O21 0.000000 0.702313 0.268829
#
# Coordination Sequence:
#
# PCOD9584929 Si02
#       7
#    12  12  12  12  12  12  12
#     4  10  20  33  50  73 101 131 160 189 221 259
#     4   9  17  29  45  64  86 113 145 180 218 265
#     4   9  17  28  41  56  76 107 148 191 229 263
#     4  10  18  27  39  56  80 109 142 180 222 266
#     4  10  21  35  51  71  94 122 155 192 233 274
#     4  10  19  30  45  66  93 123 154 187 224 268
#     4  10  20  33  49  69  92 119 152 190 232 275
#
# _framework density 15.883013
#
# number of rings (size 3 to 8) (size 9 to 14) (size 15 to 20)
#    0.000    2.286    0.000    3.429    0.000    4.857 
#    0.000    2.857    0.000    4.857    0.000    0.000 
#    0.000    3.429    0.000    0.000    0.000    0.000 
#
# Total GULP energy -468025.757710 kJ/mol
# GULP energy per Si atom -5571.735211 kJ/mol
# Density = 1.584686 g / cm^3
# Si number density = 15.883013 Si / 1000 Ang^3
#
#
#
# Elastic Constant Matrix: (Units=GPa)
#
#
# Indices 1 2 3 4 5 6 
#
# 1 67.7276 52.4058 33.4768 0.0000 0.0000 0.0000
# 2 52.4058 67.7276 33.4768 0.0000 0.0000 0.0000
# 3 33.4768 33.4768 106.7488 0.0000 0.0000 0.0000
# 4 0.0000 0.0000 0.0000 18.3381 0.0000 0.0000
# 5 0.0000 0.0000 0.0000 0.0000 18.3381 0.0000
# 6 0.0000 0.0000 0.0000 0.0000 0.0000 7.6609
#
#
#
# Elastic Compliance Matrix: (Units=1/GPa)
#
#
# Indices 1 2 3 4 5 6 
#
# 1 0.037677 -0.027590 -0.003163 0.000000 0.000000 0.000000
# 2 -0.027590 0.037677 -0.003163 0.000000 0.000000 0.000000
# 3 -0.003163 -0.003163 0.011352 0.000000 0.000000 0.000000
# 4 0.000000 0.000000 0.000000 0.054531 0.000000 0.000000
# 5 0.000000 0.000000 0.000000 0.000000 0.054531 0.000000
# 6 0.000000 0.000000 0.000000 0.000000 0.000000 0.130533
#
#
# Mechanical properties :
#
#
# Convention : Reuss Voigt Hill
#
# Bulk Modulus (GPa) = 52.98668 53.43586 53.21127
# Shear Modulus (GPa) = 12.48673 17.05704 14.77189
#
# Velocity S-wave (km/s) = 2.80691 3.28062 3.05297
# Velocity P-wave (km/s) = 6.62858 6.93300 6.78249
#
# Compressibility (1/GPa) = 0.01887267
#
# Stress axis : x y z
#
# Youngs Moduli (GPa) = 26.54150 26.54150 88.09121
#
# Poissons Ratio (x) = 0.73227 0.27866
# Poissons Ratio (y) = 0.73227 0.27866
# Poissons Ratio (z) = 0.08396 0.08396
#
# Static dielectric constant tensor:
#      x y z
#    x 1.524480 0.000000 0.000000 
#    y 0.000000 1.524480 0.000000 
#    z 0.000000 0.000000 1.562780 
# 
# From -- ./inp_files/2896.got.cif
#   From: 2010.05.17/outbox.cif.g08.bks.cpg/sg183_2_cif.got.tgz:2896.got - 2010.05.20 12:02:58.
