data_PCOD9584447
_publ_section_title
;
Structure prediction by ZEFSAII (Michael W. Deem and Ramdas Pophale) SiO2 
 PCOD9584447
Probable space group: P 64 2 2
;
_chemical_formula_sum "Si O2"
_cell_formula_units_Z 54
_cell_length_a 11.969112
_cell_length_b 11.969112
_cell_length_c 20.354506
_cell_angle_alpha 90.000000
_cell_angle_beta 90.000000
_cell_angle_gamma 120.000000
_cell_volume 2525.312102
_symmetry_space_group_name_H-M "P 64 2 2"
_symmetry_group_IT_number 181
_symmetry_cell_setting 'hexagonal'
loop_
_space_group_symop_operation_xyz
x,y,z
x-y,x,2/3+z
-y,x-y,1/3+z
-x,-y,z
-x+y,-x,2/3+z
y,-x+y,1/3+z
x-y,-y,-z
-x,-x+y,2/3-z
y,x,1/3-z
-y,-x,1/3-z
-x+y,y,-z
x,x-y,2/3-z
loop_
_atom_site_type_symbol
_atom_site_label
_atom_site_fract_x
_atom_site_fract_y
_atom_site_fract_z
Si Si1 0.941554 0.132484 0.972491
Si Si2 0.467815 0.196841 0.193185
Si Si3 0.766099 0.000000 0.500000
Si Si4 0.946931 0.592918 0.611940
Si Si5 0.275950 0.661874 0.258598
O O1 0.955671 0.138305 0.894824
O O2 0.941797 0.258244 0.998972
O O3 0.070175 0.140349 0.000000
O O4 0.823712 0.000000 0.000000
O O5 0.371176 0.248238 0.180727
O O6 0.573702 0.291906 0.245672
O O7 0.550811 0.200576 0.128980
O O8 0.382871 0.053409 0.222679
O O9 0.801469 0.514786 0.583550
O O10 0.000000 0.500000 0.637778
O O11 0.236522 0.618261 0.333334
#
# Coordination Sequence:
#
# PCOD9584447 Si02
#       5
#    12  12   6  12  12
#     4  11  25  47  70 106 147 188 238 304 366 435
#     4  10  23  42  68 105 134 186 239 290 370 424
#     4  12  24  44  74 104 138 182 243 301 350 454
#     4  10  22  44  72  96 146 190 234 300 372 434
#     4  10  22  42  69 100 139 185 239 299 358 434
#
# _framework density 21.383493999999999
#
# number of rings (size 3 to 8) (size 9 to 14) (size 15 to 20)
#    0.000    1.556    2.222    1.333    6.222    3.556 
#   20.000    0.000    0.000    0.000    0.000    0.000 
#    0.000    0.000    0.000    0.000    0.000    0.000 
#
# Total GULP energy -301385.817416 kJ/mol
# GULP energy per Si atom -5581.218841 kJ/mol
# Density = 2.133482 g / cm^3
# Si number density = 21.383494 Si / 1000 Ang^3
#
#
#
# Elastic Constant Matrix: (Units=GPa)
#
#
# Indices 1 2 3 4 5 6 
#
# 1 90.4040 39.4671 41.9995 0.0000 0.0000 0.0000
# 2 39.4671 90.4040 41.9995 0.0000 0.0000 0.0000
# 3 41.9995 41.9995 139.0059 0.0000 0.0000 0.0000
# 4 0.0000 0.0000 0.0000 36.8542 0.0000 0.0000
# 5 0.0000 0.0000 0.0000 0.0000 36.8542 0.0000
# 6 0.0000 0.0000 0.0000 0.0000 0.0000 25.4684
#
#
#
# Elastic Compliance Matrix: (Units=1/GPa)
#
#
# Indices 1 2 3 4 5 6 
#
# 1 0.014601 -0.005031 -0.002892 0.000000 0.000000 0.000000
# 2 -0.005031 0.014601 -0.002892 0.000000 0.000000 0.000000
# 3 -0.002892 -0.002892 0.008941 0.000000 0.000000 0.000000
# 4 0.000000 0.000000 0.000000 0.027134 0.000000 0.000000
# 5 0.000000 0.000000 0.000000 0.000000 0.027134 0.000000
# 6 0.000000 0.000000 0.000000 0.000000 0.000000 0.039264
#
#
# Mechanical properties :
#
#
# Convention : Reuss Voigt Hill
#
# Bulk Modulus (GPa) = 60.54960 62.97179 61.76069
# Shear Modulus (GPa) = 31.48435 32.92520 32.20477
#
# Velocity S-wave (km/s) = 3.84131 3.92822 3.88501
# Velocity P-wave (km/s) = 6.93193 7.07724 7.00496
#
# Compressibility (1/GPa) = 0.01651539
#
# Stress axis : x y z
#
# Youngs Moduli (GPa) = 68.48776 68.48776 111.84112
#
# Poissons Ratio (x) = 0.34456 0.32339
# Poissons Ratio (y) = 0.34456 0.32339
# Poissons Ratio (z) = 0.19804 0.19804
#
# Static dielectric constant tensor:
#      x y z
#    x 1.784980 0.000000 0.000000 
#    y 0.000000 1.784980 0.000000 
#    z 0.000000 0.000000 1.725110 
# 
# From -- ./inp_files/8777.got.cif
#   From: 2010.05.17/outbox.cif.g08.bks.cpg/sg181_5_cif.got.tgz:8777.got - 2010.05.20 11:51:17.
