data_PCOD9584664
_publ_section_title
;
Structure prediction by ZEFSAII (Michael W. Deem and Ramdas Pophale) SiO2 
 PCOD9584664
Probable space group: P 63 2 2
;
_chemical_formula_sum "Si O2"
_cell_formula_units_Z 48
_cell_length_a 17.149906
_cell_length_b 17.149906
_cell_length_c 8.960730
_cell_angle_alpha 90.000000
_cell_angle_beta 90.000000
_cell_angle_gamma 120.000000
_cell_volume 2282.430233
_symmetry_space_group_name_H-M "P 63 2 2"
_symmetry_group_IT_number 182
_symmetry_cell_setting 'hexagonal'
loop_
_space_group_symop_operation_xyz
x,y,z
x-y,x,1/2+z
-y,x-y,z
-x,-y,1/2+z
-x+y,-x,z
y,-x+y,1/2+z
x-y,-y,-z
-x,-x+y,-z
y,x,-z
-y,-x,1/2-z
-x+y,y,1/2-z
x,x-y,1/2-z
loop_
_atom_site_type_symbol
_atom_site_label
_atom_site_fract_x
_atom_site_fract_y
_atom_site_fract_z
Si Si1 0.722098 0.622982 0.422187
Si Si2 0.576583 0.595270 0.825256
Si Si3 0.506523 0.668440 0.310570
Si Si4 0.099173 0.196437 0.572986
O O1 0.669437 0.669437 0.500000
O O2 0.688676 0.597131 0.251118
O O3 0.684411 0.530665 0.515327
O O4 0.826391 0.697930 0.443889
O O5 0.484644 0.515357 0.750000
O O6 0.659766 0.585484 0.767090
O O7 0.576267 0.576267 0.000000
O O8 0.418499 0.581502 0.250000
O O9 0.503158 0.751579 0.250000
O O10 0.166205 0.166205 0.500000
O O11 0.089014 0.178028 0.750000
O O12 0.000000 0.138029 0.500000
#
# Coordination Sequence:
#
# PCOD9584664 Si02
#       4
#    12  12  12  12
#     4   9  21  38  58  90 124 158 213 269 323 395
#     4  10  19  36  63  92 122 161 208 266 332 399
#     4  10  20  36  58  85 120 162 203 251 315 387
#     4  11  24  42  64  91 129 177 229 284 341 405
#
# _framework density 21.030214999999998
#
# number of rings (size 3 to 8) (size 9 to 14) (size 15 to 20)
#    0.000    2.000    0.000    5.000    0.000    9.000 
#    0.000    0.000    0.000    0.000    0.000   12.250 
#    0.000    0.000    0.000    0.000    0.000    0.000 
#
# Total GULP energy -267410.377253 kJ/mol
# GULP energy per Si atom -5571.049526 kJ/mol
# Density = 2.098235 g / cm^3
# Si number density = 21.030215 Si / 1000 Ang^3
#
#
#
# Elastic Constant Matrix: (Units=GPa)
#
#
# Indices 1 2 3 4 5 6 
#
# 1 96.1290 50.2586 53.0409 0.0000 0.0000 0.0000
# 2 50.2586 96.1290 53.0409 0.0000 0.0000 0.0000
# 3 53.0409 53.0409 193.7299 0.0000 0.0000 0.0000
# 4 0.0000 0.0000 0.0000 26.0402 0.0000 0.0000
# 5 0.0000 0.0000 0.0000 0.0000 26.0402 0.0000
# 6 0.0000 0.0000 0.0000 0.0000 0.0000 22.9352
#
#
#
# Elastic Compliance Matrix: (Units=1/GPa)
#
#
# Indices 1 2 3 4 5 6 
#
# 1 0.015161 -0.006639 -0.002333 0.000000 0.000000 0.000000
# 2 -0.006639 0.015161 -0.002333 0.000000 0.000000 0.000000
# 3 -0.002333 -0.002333 0.006439 0.000000 0.000000 0.000000
# 4 0.000000 0.000000 0.000000 0.038402 0.000000 0.000000
# 5 0.000000 0.000000 0.000000 0.000000 0.038402 0.000000
# 6 0.000000 0.000000 0.000000 0.000000 0.000000 0.043601
#
#
# Mechanical properties :
#
#
# Convention : Reuss Voigt Hill
#
# Bulk Modulus (GPa) = 70.66872 77.62984 74.14928
# Shear Modulus (GPa) = 27.10092 30.31297 28.70694
#
# Velocity S-wave (km/s) = 3.59369 3.80070 3.69864
# Velocity P-wave (km/s) = 7.13414 7.50027 7.31949
#
# Compressibility (1/GPa) = 0.01415053
#
# Stress axis : x y z
#
# Youngs Moduli (GPa) = 65.95758 65.95758 155.29314
#
# Poissons Ratio (x) = 0.43791 0.36233
# Poissons Ratio (y) = 0.43791 0.36233
# Poissons Ratio (z) = 0.15389 0.15389
#
# Static dielectric constant tensor:
#      x y z
#    x 1.323750 0.000000 0.000000 
#    y 0.000000 1.323750 0.000000 
#    z 0.000000 0.000000 1.763310 
# 
# From -- ./inp_files/1419.got.cif
#   From: 2010.05.17/outbox.cif.g08.bks.cpg/sg182_1_cif.got.tgz:1419.got - 2010.05.20 11:58:53.
