data_PCOD9584112
_publ_section_title
;
Structure prediction by ZEFSAII (Michael W. Deem and Ramdas Pophale) SiO2 
 PCOD9584112
Probable space group: P 62 2 2
;
_chemical_formula_sum "Si O2"
_cell_formula_units_Z 30
_cell_length_a 8.081165
_cell_length_b 8.081165
_cell_length_c 23.904740
_cell_angle_alpha 90.000000
_cell_angle_beta 90.000000
_cell_angle_gamma 120.000000
_cell_volume 1351.956146
_symmetry_space_group_name_H-M "P 62 2 2"
_symmetry_group_IT_number 180
_symmetry_cell_setting 'hexagonal'
loop_
_space_group_symop_operation_xyz
x,y,z
x-y,x,1/3+z
-y,x-y,2/3+z
-x,-y,z
-x+y,-x,1/3+z
y,-x+y,2/3+z
x-y,-y,-z
-x,-x+y,1/3-z
y,x,2/3-z
-y,-x,2/3-z
-x+y,y,-z
x,x-y,1/3-z
loop_
_atom_site_type_symbol
_atom_site_label
_atom_site_fract_x
_atom_site_fract_y
_atom_site_fract_z
Si Si1 0.000000 0.500000 0.666667
Si Si2 0.333882 0.800279 0.592437
Si Si3 0.000000 0.000000 0.833334
Si Si4 0.590098 0.718510 0.522361
O O1 0.851320 0.320738 0.629597
O O2 0.454012 0.699352 0.573792
O O3 0.256771 0.823402 0.532294
O O4 0.500000 0.000000 0.616189
O O5 0.966212 0.814227 0.868782
O O6 0.500000 0.500000 0.502994
#
# Coordination Sequence:
#
# PCOD9584112 Si02
#       4
#     3  12   3  12
#     4  12  28  44  68 100 148 204 238 292 396 422
#     4  11  23  47  64  98 142 186 239 303 356 442
#     4  12  20  38  72 112 136 170 240 314 364 420
#     4  11  22  40  75 104 135 179 243 302 363 435
#
# _framework density 22.190069000000001
#
# number of rings (size 3 to 8) (size 9 to 14) (size 15 to 20)
#    0.000    0.800    6.000    3.600    0.000    1.600 
#    0.000    0.000    0.000    2.400    0.000    0.000 
#    0.000    0.000    0.000    0.000    0.000    0.000 
#
# Total GULP energy -167109.248914 kJ/mol
# GULP energy per Si atom -5570.308297 kJ/mol
# Density = 2.213956 g / cm^3
# Si number density = 22.190069 Si / 1000 Ang^3
#
#
#
# Elastic Constant Matrix: (Units=GPa)
#
#
# Indices 1 2 3 4 5 6 
#
# 1 155.9064 64.4558 44.6872 0.0000 0.0000 0.0000
# 2 64.4558 155.9064 44.6872 0.0000 0.0000 0.0000
# 3 44.6872 44.6872 72.0231 0.0000 0.0000 0.0000
# 4 0.0000 0.0000 0.0000 7.9418 0.0000 0.0000
# 5 0.0000 0.0000 0.0000 0.0000 7.9418 0.0000
# 6 0.0000 0.0000 0.0000 0.0000 0.0000 45.7253
#
#
#
# Elastic Compliance Matrix: (Units=1/GPa)
#
#
# Indices 1 2 3 4 5 6 
#
# 1 0.008499 -0.002435 -0.003762 0.000000 0.000000 0.000000
# 2 -0.002435 0.008499 -0.003762 0.000000 0.000000 0.000000
# 3 -0.003762 -0.003762 0.018553 0.000000 0.000000 0.000000
# 4 0.000000 0.000000 0.000000 0.125917 0.000000 0.000000
# 5 0.000000 0.000000 0.000000 0.000000 0.125917 0.000000
# 6 0.000000 0.000000 0.000000 0.000000 0.000000 0.021870
#
#
# Mechanical properties :
#
#
# Convention : Reuss Voigt Hill
#
# Bulk Modulus (GPa) = 63.97338 76.83291 70.40314
# Shear Modulus (GPa) = 14.95276 27.65548 21.30412
#
# Velocity S-wave (km/s) = 2.59868 3.53413 3.10187
# Velocity P-wave (km/s) = 6.15601 7.16613 6.68019
#
# Compressibility (1/GPa) = 0.01563150
#
# Stress axis : x y z
#
# Youngs Moduli (GPa) = 117.65537 117.65537 53.89890
#
# Poissons Ratio (x) = 0.28655 0.20279
# Poissons Ratio (y) = 0.28655 0.20279
# Poissons Ratio (z) = 0.44267 0.44267
#
# Static dielectric constant tensor:
#      x y z
#    x 1.968510 0.000000 0.000000 
#    y 0.000000 1.968510 0.000000 
#    z 0.000000 0.000000 1.821800 
# 
# From -- ./inp_files/9640.got.cif
#   From: 2010.05.17/outbox.cif.g08.bks.cpg/sg180_5_cif.got.tgz:9640.got - 2010.05.20 11:43:55.
