data_PCOD9584265
_publ_section_title
;
Structure prediction by ZEFSAII (Michael W. Deem and Ramdas Pophale) SiO2 
 PCOD9584265
Probable space group: P 64 2 2
;
_chemical_formula_sum "Si O2"
_cell_formula_units_Z 54
_cell_length_a 23.703684
_cell_length_b 23.703684
_cell_length_c 6.267747
_cell_angle_alpha 90.000000
_cell_angle_beta 90.000000
_cell_angle_gamma 120.000000
_cell_volume 3049.817043
_symmetry_space_group_name_H-M "P 64 2 2"
_symmetry_group_IT_number 181
_symmetry_cell_setting 'hexagonal'
loop_
_space_group_symop_operation_xyz
x,y,z
x-y,x,2/3+z
-y,x-y,1/3+z
-x,-y,z
-x+y,-x,2/3+z
y,-x+y,1/3+z
x-y,-y,-z
-x,-x+y,2/3-z
y,x,1/3-z
-y,-x,1/3-z
-x+y,y,-z
x,x-y,2/3-z
loop_
_atom_site_type_symbol
_atom_site_label
_atom_site_fract_x
_atom_site_fract_y
_atom_site_fract_z
Si Si1 0.220938 0.610469 0.833334
Si Si2 0.716073 0.644623 0.774881
Si Si3 0.835917 0.164084 0.166667
Si Si4 0.514000 0.817275 0.222144
Si Si5 0.928869 0.180844 0.776869
Si Si6 0.277269 0.722732 0.166667
O O1 0.184833 0.641531 0.700417
O O2 0.262174 0.597682 0.658674
O O3 0.672382 0.672382 0.666667
O O4 0.765779 0.637511 0.612673
O O5 0.681643 0.572887 0.876207
O O6 0.762452 0.696619 0.952917
O O7 0.825135 0.112419 0.348417
O O8 0.534275 0.767138 0.333334
O O9 0.486933 0.784579 0.989638
O O10 0.888010 0.111991 0.666667
O O11 0.000000 0.197870 0.833334
#
# Coordination Sequence:
#
# PCOD9584265 Si02
#       6
#     6  12   6  12  12   6
#     4  10  22  37  57  87 114 147 193 240 297 346
#     4  11  21  36  58  86 118 152 190 235 291 344
#     4  10  19  34  55  80 121 146 188 236 282 344
#     4  10  21  36  56  86 117 151 188 240 294 351
#     4  10  20  34  54  86 118 149 188 234 287 340
#     4  10  21  37  60  84 114 145 191 243 294 348
#
# _framework density 17.705978999999999
#
# number of rings (size 3 to 8) (size 9 to 14) (size 15 to 20)
#    0.000    1.778    2.222    3.333    0.000   10.667 
#    0.000    0.000    0.000    4.000    0.000    3.889 
#    0.000    0.000    0.000    0.000    0.000    0.000 
#
# Total GULP energy -300936.250966 kJ/mol
# GULP energy per Si atom -5572.893536 kJ/mol
# Density = 1.766568 g / cm^3
# Si number density = 17.705979 Si / 1000 Ang^3
#
#
#
# Elastic Constant Matrix: (Units=GPa)
#
#
# Indices 1 2 3 4 5 6 
#
# 1 114.0613 82.2441 50.7865 0.0000 0.0000 0.0000
# 2 82.2441 114.0613 50.7865 0.0000 0.0000 0.0000
# 3 50.7865 50.7865 102.3115 0.0000 0.0000 0.0000
# 4 0.0000 0.0000 0.0000 7.5265 0.0000 0.0000
# 5 0.0000 0.0000 0.0000 0.0000 7.5265 0.0000
# 6 0.0000 0.0000 0.0000 0.0000 0.0000 15.9086
#
#
#
# Elastic Compliance Matrix: (Units=1/GPa)
#
#
# Indices 1 2 3 4 5 6 
#
# 1 0.019142 -0.012287 -0.003403 0.000000 0.000000 0.000000
# 2 -0.012287 0.019142 -0.003403 0.000000 0.000000 0.000000
# 3 -0.003403 -0.003403 0.013152 0.000000 0.000000 0.000000
# 4 0.000000 0.000000 0.000000 0.132863 0.000000 0.000000
# 5 0.000000 0.000000 0.000000 0.000000 0.132863 0.000000
# 6 0.000000 0.000000 0.000000 0.000000 0.000000 0.062859
#
#
# Mechanical properties :
#
#
# Convention : Reuss Voigt Hill
#
# Bulk Modulus (GPa) = 75.46558 77.56315 76.51436
# Shear Modulus (GPa) = 11.83084 15.96681 13.89882
#
# Velocity S-wave (km/s) = 2.58773 3.00621 2.80479
# Velocity P-wave (km/s) = 7.18627 7.48004 7.33463
#
# Compressibility (1/GPa) = 0.01325107
#
# Stress axis : x y z
#
# Youngs Moduli (GPa) = 52.24092 52.24092 76.03338
#
# Poissons Ratio (x) = 0.64190 0.25871
# Poissons Ratio (y) = 0.64190 0.25871
# Poissons Ratio (z) = 0.17776 0.17776
#
# Static dielectric constant tensor:
#      x y z
#    x 1.607900 0.000000 0.000000 
#    y 0.000000 1.607900 0.000000 
#    z 0.000000 0.000000 1.714320 
# 
# From -- ./inp_files/1292.got.cif
#   From: 2010.05.17/outbox.cif.g08.bks.cpg/sg181_1_cif.got.tgz:1292.got - 2010.05.20 11:51:17.
