data_PCOD9584295
_publ_section_title
;
Structure prediction by ZEFSAII (Michael W. Deem and Ramdas Pophale) SiO2 
 PCOD9584295
Probable space group: P 64 2 2
;
_chemical_formula_sum "Si O2"
_cell_formula_units_Z 84
_cell_length_a 19.047482
_cell_length_b 19.047482
_cell_length_c 13.891074
_cell_angle_alpha 90.000000
_cell_angle_beta 90.000000
_cell_angle_gamma 120.000000
_cell_volume 4364.571377
_symmetry_space_group_name_H-M "P 64 2 2"
_symmetry_group_IT_number 181
_symmetry_cell_setting 'hexagonal'
loop_
_space_group_symop_operation_xyz
x,y,z
x-y,x,2/3+z
-y,x-y,1/3+z
-x,-y,z
-x+y,-x,2/3+z
y,-x+y,1/3+z
x-y,-y,-z
-x,-x+y,2/3-z
y,x,1/3-z
-y,-x,1/3-z
-x+y,y,-z
x,x-y,2/3-z
loop_
_atom_site_type_symbol
_atom_site_label
_atom_site_fract_x
_atom_site_fract_y
_atom_site_fract_z
Si Si1 0.522132 0.339089 0.292385
Si Si2 0.000000 0.797349 0.833334
Si Si3 0.690648 0.739720 0.478531
Si Si4 0.885713 0.771425 0.000000
Si Si5 0.848785 0.663431 0.719531
Si Si6 0.011645 0.429698 0.054520
Si Si7 0.512877 0.656422 0.068878
Si Si8 0.858691 0.057222 0.080554
O O1 0.520317 0.260159 0.333334
O O2 0.466585 0.363083 0.353874
O O3 0.490467 0.330419 0.182759
O O4 0.611241 0.419335 0.296435
O O5 0.952181 0.817475 0.915828
O O6 0.929589 0.714600 0.785191
O O7 0.717366 0.798994 0.385708
O O8 0.645382 0.771468 0.548806
O O9 0.644834 0.645711 0.451669
O O10 0.771227 0.763558 0.537816
O O11 0.836955 0.577828 0.688734
O O12 0.862931 0.727452 0.635937
O O13 0.000000 0.500000 0.103320
O O14 0.949710 0.401821 0.964149
O O15 0.920484 0.079517 0.166667
O O16 0.862607 0.000000 0.000000
#
# Coordination Sequence:
#
# PCOD9584295 Si02
#       8
#    12   6  12   6  12  12  12  12
#     4  10  21  34  53  78 118 156 184 234 292 363
#     4  10  20  32  52  89 117 144 188 242 308 350
#     4  10  21  35  57  85 113 148 191 238 303 348
#     4  10  20  32  52  88 115 148 186 248 292 362
#     4  10  21  35  58  85 114 146 193 252 289 352
#     4  10  20  33  53  84 118 147 189 236 302 350
#     4  10  20  34  54  80 113 150 193 235 288 353
#     4  10  20  36  56  83 116 151 189 244 295 345
#
# _framework density 19.245877
#
# number of rings (size 3 to 8) (size 9 to 14) (size 15 to 20)
#    0.000    2.000    0.000    3.857    7.000    1.714 
#    0.000    0.000   18.857    3.000    0.000  260.500 
#    0.000    0.000    0.000    0.000    0.000    0.000 
#
# Total GULP energy -468473.230844 kJ/mol
# GULP energy per Si atom -5577.062272 kJ/mol
# Density = 1.920207 g / cm^3
# Si number density = 19.245877 Si / 1000 Ang^3
#
#
#
# Elastic Constant Matrix: (Units=GPa)
#
#
# Indices 1 2 3 4 5 6 
#
# 1 91.6752 37.9134 29.9141 0.0000 0.0000 0.0000
# 2 37.9134 91.6752 29.9141 0.0000 0.0000 0.0000
# 3 29.9141 29.9141 73.9863 0.0000 0.0000 0.0000
# 4 0.0000 0.0000 0.0000 12.8017 0.0000 0.0000
# 5 0.0000 0.0000 0.0000 0.0000 12.8017 0.0000
# 6 0.0000 0.0000 0.0000 0.0000 0.0000 26.8809
#
#
#
# Elastic Compliance Matrix: (Units=1/GPa)
#
#
# Indices 1 2 3 4 5 6 
#
# 1 0.014044 -0.004556 -0.003836 0.000000 0.000000 0.000000
# 2 -0.004556 0.014044 -0.003836 0.000000 0.000000 0.000000
# 3 -0.003836 -0.003836 0.016618 0.000000 0.000000 0.000000
# 4 0.000000 0.000000 0.000000 0.078115 0.000000 0.000000
# 5 0.000000 0.000000 0.000000 0.000000 0.078115 0.000000
# 6 0.000000 0.000000 0.000000 0.000000 0.000000 0.037201
#
#
# Mechanical properties :
#
#
# Convention : Reuss Voigt Hill
#
# Bulk Modulus (GPa) = 49.38464 50.31330 49.84897
# Shear Modulus (GPa) = 18.56361 21.13651 19.85006
#
# Velocity S-wave (km/s) = 3.10909 3.31756 3.21501
# Velocity P-wave (km/s) = 6.21322 6.39328 6.30390
#
# Compressibility (1/GPa) = 0.02024921
#
# Stress axis : x y z
#
# Youngs Moduli (GPa) = 71.20390 71.20390 60.17567
#
# Poissons Ratio (x) = 0.32443 0.23084
# Poissons Ratio (y) = 0.32443 0.23084
# Poissons Ratio (z) = 0.27314 0.27314
#
# Static dielectric constant tensor:
#      x y z
#    x 1.705090 0.000000 0.000000 
#    y 0.000000 1.705090 0.000000 
#    z 0.000000 0.000000 1.723750 
# 
# From -- ./inp_files/6530.got.cif
#   From: 2010.05.17/outbox.cif.g08.bks.cpg/sg181_4_cif.got.tgz:6530.got - 2010.05.20 11:51:17.
