data_PCOD9584268
_publ_section_title
;
Structure prediction by ZEFSAII (Michael W. Deem and Ramdas Pophale) SiO2 
 PCOD9584268
Probable space group: P 64 2 2
;
_chemical_formula_sum "Si O2"
_cell_formula_units_Z 96
_cell_length_a 16.443643
_cell_length_b 16.443643
_cell_length_c 20.086218
_cell_angle_alpha 90.000000
_cell_angle_beta 90.000000
_cell_angle_gamma 120.000000
_cell_volume 4703.540441
_symmetry_space_group_name_H-M "P 64 2 2"
_symmetry_group_IT_number 181
_symmetry_cell_setting 'hexagonal'
loop_
_space_group_symop_operation_xyz
x,y,z
x-y,x,2/3+z
-y,x-y,1/3+z
-x,-y,z
-x+y,-x,2/3+z
y,-x+y,1/3+z
x-y,-y,-z
-x,-x+y,2/3-z
y,x,1/3-z
-y,-x,1/3-z
-x+y,y,-z
x,x-y,2/3-z
loop_
_atom_site_type_symbol
_atom_site_label
_atom_site_fract_x
_atom_site_fract_y
_atom_site_fract_z
Si Si1 0.358131 0.546885 0.459611
Si Si2 0.730013 0.866702 0.623278
Si Si3 0.795276 0.348309 0.971208
Si Si4 0.695211 0.608355 0.209151
Si Si5 0.238901 0.702571 0.789614
Si Si6 0.369985 0.949080 0.103337
Si Si7 0.834552 0.066652 0.099223
Si Si8 0.671718 0.530092 0.703728
O O1 0.268928 0.537855 0.500000
O O2 0.336255 0.528683 0.381905
O O3 0.438720 0.654851 0.461413
O O4 0.384046 0.477170 0.496198
O O5 0.703055 0.930431 0.578586
O O6 0.759098 0.888037 0.700622
O O7 0.803393 0.843779 0.586933
O O8 0.629176 0.770137 0.627262
O O9 0.882277 0.352357 0.932446
O O10 0.785244 0.436619 0.948757
O O11 0.702173 0.249512 0.949647
O O12 0.622754 0.622754 0.166667
O O13 0.735811 0.563782 0.155736
O O14 0.229208 0.614604 0.833334
O O15 0.265681 0.936760 0.106103
O O16 0.553318 0.943741 0.086589
O O17 0.366758 0.889396 0.037839
O O18 0.892540 0.107461 0.166667
#
# Coordination Sequence:
#
# PCOD9584268 Si02
#       8
#    12  12  12  12  12  12  12  12
#     4  11  19  31  56  90 118 154 194 242 300 366
#     4   8  17  32  55  91 120 156 194 236 293 358
#     4  10  19  34  59  85 111 156 206 249 301 362
#     4  10  21  40  66  82 107 150 211 260 294 348
#     4   9  21  36  56  82 108 150 200 254 300 344
#     4   9  16  26  49  85 122 157 189 232 276 354
#     4   9  16  28  57  91 131 158 186 229 291 367
#     4   8  15  29  48  82 120 155 192 229 287 346
#
# _framework density 20.410157000000002
#
# number of rings (size 3 to 8) (size 9 to 14) (size 15 to 20)
#    0.000    2.750    1.250    2.250    3.500    2.250 
#    0.000    0.000    5.500   37.125    3.250    1.750 
#    0.000    0.000    0.000    0.000    0.000    0.000 
#
# Total GULP energy -535719.781650 kJ/mol
# GULP energy per Si atom -5580.414392 kJ/mol
# Density = 2.036370 g / cm^3
# Si number density = 20.410157 Si / 1000 Ang^3
#
#
#
# Elastic Constant Matrix: (Units=GPa)
#
#
# Indices 1 2 3 4 5 6 
#
# 1 34.7729 9.2947 42.2955 0.0000 0.0000 0.0000
# 2 9.2947 34.7729 42.2955 0.0000 0.0000 0.0000
# 3 42.2955 42.2955 169.4525 0.0000 0.0000 0.0000
# 4 0.0000 0.0000 0.0000 35.2966 0.0000 0.0000
# 5 0.0000 0.0000 0.0000 0.0000 35.2966 0.0000
# 6 0.0000 0.0000 0.0000 0.0000 0.0000 12.7391
#
#
#
# Elastic Compliance Matrix: (Units=1/GPa)
#
#
# Indices 1 2 3 4 5 6 
#
# 1 0.041408 0.002158 -0.010874 0.000000 0.000000 0.000000
# 2 0.002158 0.041408 -0.010874 0.000000 0.000000 0.000000
# 3 -0.010874 -0.010874 0.011330 0.000000 0.000000 0.000000
# 4 0.000000 0.000000 0.000000 0.028331 0.000000 0.000000
# 5 0.000000 0.000000 0.000000 0.000000 0.028331 0.000000
# 6 0.000000 0.000000 0.000000 0.000000 0.000000 0.078499
#
#
# Mechanical properties :
#
#
# Convention : Reuss Voigt Hill
#
# Bulk Modulus (GPa) = 18.19326 47.41886 32.80606
# Shear Modulus (GPa) = 17.43325 26.34063 21.88694
#
# Velocity S-wave (km/s) = 2.92575 3.59634 3.27824
# Velocity P-wave (km/s) = 4.51071 6.36618 5.51701
#
# Compressibility (1/GPa) = 0.05496541
#
# Stress axis : x y z
#
# Youngs Moduli (GPa) = 24.15007 24.15007 88.26324
#
# Poissons Ratio (x) = -0.05212 0.95979
# Poissons Ratio (y) = -0.05212 0.95979
# Poissons Ratio (z) = 0.26261 0.26261
#
# Static dielectric constant tensor:
#      x y z
#    x 1.765060 0.000000 0.000000 
#    y 0.000000 1.765060 0.000000 
#    z 0.000000 0.000000 1.788360 
# 
# From -- ./inp_files/9212.got.cif
#   From: 2010.05.17/outbox.cif.g08.bks.cpg/sg181_5_cif.got.tgz:9212.got - 2010.05.20 11:51:17.
