data_PCOD9584065
_publ_section_title
;
Structure prediction by ZEFSAII (Michael W. Deem and Ramdas Pophale) SiO2 
 PCOD9584065
Probable space group: P 62 2 2
;
_chemical_formula_sum "Si O2"
_cell_formula_units_Z 54
_cell_length_a 17.596592
_cell_length_b 17.596592
_cell_length_c 11.273075
_cell_angle_alpha 90.000000
_cell_angle_beta 90.000000
_cell_angle_gamma 120.000000
_cell_volume 3022.944383
_symmetry_space_group_name_H-M "P 62 2 2"
_symmetry_group_IT_number 180
_symmetry_cell_setting 'hexagonal'
loop_
_space_group_symop_operation_xyz
x,y,z
x-y,x,1/3+z
-y,x-y,2/3+z
-x,-y,z
-x+y,-x,1/3+z
y,-x+y,2/3+z
x-y,-y,-z
-x,-x+y,1/3-z
y,x,2/3-z
-y,-x,2/3-z
-x+y,y,-z
x,x-y,1/3-z
loop_
_atom_site_type_symbol
_atom_site_label
_atom_site_fract_x
_atom_site_fract_y
_atom_site_fract_z
Si Si1 0.512304 0.256152 0.666667
Si Si2 0.413855 0.623387 0.465952
Si Si3 0.403834 0.429432 0.195496
Si Si4 0.355492 0.460239 0.833086
Si Si5 0.710620 0.570495 0.571654
O O1 0.577112 0.305724 0.558068
O O2 0.457141 0.157438 0.615350
O O3 0.381877 0.618124 0.333334
O O4 0.514871 0.644582 0.465523
O O5 0.351786 0.527256 0.519423
O O6 0.500000 0.500000 0.143660
O O7 0.415499 0.415499 0.333334
O O8 0.375791 0.338960 0.129855
O O9 0.393004 0.393004 0.833334
O O10 0.442827 0.557174 0.833334
O O11 0.296924 0.441535 0.713776
O O12 0.801393 0.602786 0.500000
#
# Coordination Sequence:
#
# PCOD9584065 Si02
#       5
#     6  12  12  12  12
#     4  12  24  38  56  78 102 148 187 237 298 344
#     4  11  20  36  54  76 103 135 185 231 284 336
#     4   9  16  31  55  73  91 133 177 217 271 333
#     4  11  24  41  55  76 113 152 191 238 299 360
#     4  11  21  35  51  78 105 131 181 246 286 327
#
# _framework density 17.863378999999998
#
# number of rings (size 3 to 8) (size 9 to 14) (size 15 to 20)
#    0.000    1.333    6.667    2.667    6.222    0.889 
#    4.000    0.000    0.000    0.000    0.000    0.000 
#    0.000    0.000    0.000    0.000    0.000   62.222 
#
# Total GULP energy -301076.615526 kJ/mol
# GULP energy per Si atom -5575.492880 kJ/mol
# Density = 1.782272 g / cm^3
# Si number density = 17.863379 Si / 1000 Ang^3
#
#
#
# Elastic Constant Matrix: (Units=GPa)
#
#
# Indices 1 2 3 4 5 6 
#
# 1 73.8133 31.3046 38.4749 0.0000 0.0000 0.0000
# 2 31.3046 73.8133 38.4749 0.0000 0.0000 0.0000
# 3 38.4749 38.4749 140.7593 0.0000 0.0000 0.0000
# 4 0.0000 0.0000 0.0000 26.0144 0.0000 0.0000
# 5 0.0000 0.0000 0.0000 0.0000 26.0144 0.0000
# 6 0.0000 0.0000 0.0000 0.0000 0.0000 21.2543
#
#
#
# Elastic Compliance Matrix: (Units=1/GPa)
#
#
# Indices 1 2 3 4 5 6 
#
# 1 0.017709 -0.005816 -0.003251 0.000000 0.000000 0.000000
# 2 -0.005816 0.017709 -0.003251 0.000000 0.000000 0.000000
# 3 -0.003251 -0.003251 0.008881 0.000000 0.000000 0.000000
# 4 0.000000 0.000000 0.000000 0.038440 0.000000 0.000000
# 5 0.000000 0.000000 0.000000 0.000000 0.038440 0.000000
# 6 0.000000 0.000000 0.000000 0.000000 0.000000 0.047049
#
#
# Mechanical properties :
#
#
# Convention : Reuss Voigt Hill
#
# Bulk Modulus (GPa) = 50.85434 56.09940 53.47687
# Shear Modulus (GPa) = 25.07294 26.66538 25.86916
#
# Velocity S-wave (km/s) = 3.75052 3.86779 3.80961
# Velocity P-wave (km/s) = 6.87645 7.17072 7.02513
#
# Compressibility (1/GPa) = 0.01966400
#
# Stress axis : x y z
#
# Youngs Moduli (GPa) = 56.46941 56.46941 112.59443
#
# Poissons Ratio (x) = 0.32842 0.36602
# Poissons Ratio (y) = 0.32842 0.36602
# Poissons Ratio (z) = 0.18357 0.18357
#
# Static dielectric constant tensor:
#      x y z
#    x 1.703200 0.000000 0.000000 
#    y 0.000000 1.703200 0.000000 
#    z 0.000000 0.000000 1.680100 
# 
# From -- ./inp_files/4704.got.cif
#   From: 2010.05.17/outbox.cif.g08.bks.cpg/sg180_3_cif.got.tgz:4704.got - 2010.05.20 11:43:55.
