data_PCOD9584294
_publ_section_title
;
Structure prediction by ZEFSAII (Michael W. Deem and Ramdas Pophale) SiO2 
 PCOD9584294
Probable space group: P 64 2 2
;
_chemical_formula_sum "Si O2"
_cell_formula_units_Z 72
_cell_length_a 14.427252
_cell_length_b 14.427252
_cell_length_c 17.937930
_cell_angle_alpha 90.000000
_cell_angle_beta 90.000000
_cell_angle_gamma 120.000000
_cell_volume 3233.480096
_symmetry_space_group_name_H-M "P 64 2 2"
_symmetry_group_IT_number 181
_symmetry_cell_setting 'hexagonal'
loop_
_space_group_symop_operation_xyz
x,y,z
x-y,x,2/3+z
-y,x-y,1/3+z
-x,-y,z
-x+y,-x,2/3+z
y,-x+y,1/3+z
x-y,-y,-z
-x,-x+y,2/3-z
y,x,1/3-z
-y,-x,1/3-z
-x+y,y,-z
x,x-y,2/3-z
loop_
_atom_site_type_symbol
_atom_site_label
_atom_site_fract_x
_atom_site_fract_y
_atom_site_fract_z
Si Si1 0.393245 0.400807 0.789577
Si Si2 0.151648 0.652727 0.597930
Si Si3 0.811193 0.290330 0.101565
Si Si4 0.753336 0.704483 0.034005
Si Si5 0.473333 0.156778 0.484834
Si Si6 0.371457 0.197849 0.626528
O O1 0.500000 0.500000 0.752497
O O2 0.372790 0.469436 0.851160
O O3 0.406888 0.317413 0.843266
O O4 0.288119 0.348020 0.738453
O O5 0.157072 0.548780 0.617206
O O6 0.076859 0.679806 0.647549
O O7 0.269345 0.750566 0.579283
O O8 0.726270 0.273731 0.166667
O O9 0.772631 0.195799 0.042052
O O10 0.726158 0.643542 0.113424
O O11 0.722001 0.796048 0.033301
O O12 0.870593 0.741186 0.000000
O O13 0.559773 0.119545 0.500000
O O14 0.450056 0.192125 0.564391
#
# Coordination Sequence:
#
# PCOD9584294 Si02
#       6
#    12  12  12  12  12  12
#     4   9  20  40  61  85 126 169 218 272 327 395
#     4   9  18  36  57  83 127 175 214 264 329 393
#     4  11  22  37  60  86 120 174 224 270 333 403
#     4  10  20  35  59  89 125 168 219 271 335 402
#     4  10  20  32  51  89 131 168 219 276 322 390
#     4  11  22  37  60  87 122 173 224 270 339 402
#
# _framework density 22.267029999999998
#
# number of rings (size 3 to 8) (size 9 to 14) (size 15 to 20)
#    0.000    2.000    1.667    2.000    0.000    3.333 
#    0.000   15.000    0.000    0.000    0.000    3.500 
#    0.000    0.000    0.000    0.000    0.000    0.167 
#
# Total GULP energy -400814.409652 kJ/mol
# GULP energy per Si atom -5566.866801 kJ/mol
# Density = 2.221635 g / cm^3
# Si number density = 22.267030 Si / 1000 Ang^3
#
#
#
# Elastic Constant Matrix: (Units=GPa)
#
#
# Indices 1 2 3 4 5 6 
#
# 1 50.1809 23.3120 31.9279 0.0000 0.0000 0.0000
# 2 23.3120 50.1809 31.9279 0.0000 0.0000 0.0000
# 3 31.9279 31.9279 117.0268 0.0000 0.0000 0.0000
# 4 0.0000 0.0000 0.0000 22.1460 0.0000 0.0000
# 5 0.0000 0.0000 0.0000 0.0000 22.1460 0.0000
# 6 0.0000 0.0000 0.0000 0.0000 0.0000 13.4345
#
#
#
# Elastic Compliance Matrix: (Units=1/GPa)
#
#
# Indices 1 2 3 4 5 6 
#
# 1 0.027526 -0.009692 -0.004866 0.000000 0.000000 0.000000
# 2 -0.009692 0.027526 -0.004866 0.000000 0.000000 0.000000
# 3 -0.004866 -0.004866 0.011200 0.000000 0.000000 0.000000
# 4 0.000000 0.000000 0.000000 0.045155 0.000000 0.000000
# 5 0.000000 0.000000 0.000000 0.000000 0.045155 0.000000
# 6 0.000000 0.000000 0.000000 0.000000 0.000000 0.074435
#
#
# Mechanical properties :
#
#
# Convention : Reuss Voigt Hill
#
# Bulk Modulus (GPa) = 36.48825 43.52493 40.00659
# Shear Modulus (GPa) = 17.92252 20.22669 19.07461
#
# Velocity S-wave (km/s) = 2.84014 3.01719 2.93000
# Velocity P-wave (km/s) = 5.21320 5.63268 5.42699
#
# Compressibility (1/GPa) = 0.02740609
#
# Stress axis : x y z
#
# Youngs Moduli (GPa) = 36.32921 36.32921 89.28558
#
# Poissons Ratio (x) = 0.35209 0.43444
# Poissons Ratio (y) = 0.35209 0.43444
# Poissons Ratio (z) = 0.17677 0.17677
#
# Static dielectric constant tensor:
#      x y z
#    x 1.928020 0.000000 0.000000 
#    y 0.000000 1.928020 0.000000 
#    z 0.000000 0.000000 1.900770 
# 
# From -- ./inp_files/7738.got.cif
#   From: 2010.05.17/outbox.cif.g08.bks.cpg/sg181_4_cif.got.tgz:7738.got - 2010.05.20 11:51:17.
