data_PCOD9584624
_publ_section_title
;
Structure prediction by ZEFSAII (Michael W. Deem and Ramdas Pophale) SiO2 
 PCOD9584624
Probable space group: P 63 2 2
;
_chemical_formula_sum "Si O2"
_cell_formula_units_Z 46
_cell_length_a 17.612288
_cell_length_b 17.612288
_cell_length_c 7.363144
_cell_angle_alpha 90.000000
_cell_angle_beta 90.000000
_cell_angle_gamma 120.000000
_cell_volume 1977.996336
_symmetry_space_group_name_H-M "P 63 2 2"
_symmetry_group_IT_number 182
_symmetry_cell_setting 'hexagonal'
loop_
_space_group_symop_operation_xyz
x,y,z
x-y,x,1/2+z
-y,x-y,z
-x,-y,1/2+z
-x+y,-x,z
y,-x+y,1/2+z
x-y,-y,-z
-x,-x+y,-z
y,x,-z
-y,-x,1/2-z
-x+y,y,1/2-z
x,x-y,1/2-z
loop_
_atom_site_type_symbol
_atom_site_label
_atom_site_fract_x
_atom_site_fract_y
_atom_site_fract_z
Si Si1 0.903761 0.634064 0.307497
Si Si2 0.461550 0.599466 0.962882
Si Si3 0.170582 0.171539 0.787981
Si Si4 0.586569 0.586569 0.500000
Si Si5 0.666668 0.333334 0.471083
O O1 0.805280 0.610559 0.250000
O O2 0.894269 0.564862 0.461321
O O3 0.957312 0.738731 0.326313
O O4 0.955410 0.616617 0.148986
O O5 0.431523 0.568478 0.750000
O O6 0.433590 0.509124 0.063265
O O7 0.407080 0.644236 0.027689
O O8 0.195255 0.097628 0.750000
O O9 0.067660 0.135320 0.750000
O O10 0.191703 0.191703 0.000000
O O11 0.666668 0.333334 0.250000
#
# Coordination Sequence:
#
# PCOD9584624 Si02
#       5
#    12  12  12   6   4
#     4  10  20  37  58  84 122 167 215 268 323 401
#     4   9  17  30  53  82 115 157 202 266 313 382
#     4  11  23  42  65  92 126 169 217 270 333 406
#     4  10  18  34  54  84 122 158 206 272 328 376
#     4   9  15  30  54  81 109 149 214 255 309 393
#
# _framework density 23.255858
#
# number of rings (size 3 to 8) (size 9 to 14) (size 15 to 20)
#    0.000    2.087    1.304    4.957    0.000    0.000 
#    9.391    0.000    0.000    0.000    0.000    0.000 
#    0.000    0.000    0.000    0.000    0.000    0.000 
#
# Total GULP energy -257032.563752 kJ/mol
# GULP energy per Si atom -5587.664429 kJ/mol
# Density = 2.320293 g / cm^3
# Si number density = 23.255858 Si / 1000 Ang^3
#
#
#
# Elastic Constant Matrix: (Units=GPa)
#
#
# Indices 1 2 3 4 5 6 
#
# 1 152.1464 77.8976 13.6913 0.0000 -0.0003 0.0015
# 2 77.8976 152.1487 13.6908 0.0000 0.0002 -0.0010
# 3 13.6913 13.6908 60.1913 0.0000 0.0000 -0.0002
# 4 0.0000 0.0000 0.0000 5.9232 -0.0001 -0.0002
# 5 -0.0003 0.0002 0.0000 -0.0001 5.9227 0.0000
# 6 0.0015 -0.0010 -0.0002 -0.0002 0.0000 37.1270
#
#
#
# Elastic Compliance Matrix: (Units=1/GPa)
#
#
# Indices 1 2 3 4 5 6 
#
# 1 0.008968 -0.004500 -0.001016 0.000000 0.000001 0.000000
# 2 -0.004500 0.008968 -0.001016 0.000000 -0.000001 0.000000
# 3 -0.001016 -0.001016 0.017076 0.000000 0.000000 0.000000
# 4 0.000000 0.000000 0.000000 0.168827 0.000003 0.000001
# 5 0.000001 -0.000001 0.000000 0.000003 0.168843 0.000000
# 6 0.000000 0.000000 0.000000 0.000001 0.000000 0.026935
#
#
# Mechanical properties :
#
#
# Convention : Reuss Voigt Hill
#
# Bulk Modulus (GPa) = 45.56470 63.89398 54.72934
# Shear Modulus (GPa) = 11.90483 27.07500 19.48991
#
# Velocity S-wave (km/s) = 2.26499 3.41577 2.89808
# Velocity P-wave (km/s) = 5.14544 6.56435 5.89772
#
# Compressibility (1/GPa) = 0.02194681
#
# Stress axis : x y z
#
# Youngs Moduli (GPa) = 111.50679 111.50869 58.56162
#
# Poissons Ratio (x) = 0.50179 0.05952
# Poissons Ratio (y) = 0.50179 0.05951
# Poissons Ratio (z) = 0.11333 0.11331
#
# Static dielectric constant tensor:
#      x y z
#    x 1.877020 0.000000 0.000000 
#    y 0.000000 1.877020 0.000000 
#    z 0.000000 0.000000 1.935870 
# 
# From -- ./inp_files/1500.got.cif
#   From: 2010.05.17/outbox.cif.g08.bks.cpg/sg182_1_cif.got.tgz:1500.got - 2010.05.20 11:58:53.
