data_PCOD9584352
_publ_section_title
;
Structure prediction by ZEFSAII (Michael W. Deem and Ramdas Pophale) SiO2 
 PCOD9584352
Probable space group: P 64 2 2
;
_chemical_formula_sum "Si O2"
_cell_formula_units_Z 69
_cell_length_a 10.799634
_cell_length_b 10.799634
_cell_length_c 29.790452
_cell_angle_alpha 90.000000
_cell_angle_beta 90.000000
_cell_angle_gamma 120.000000
_cell_volume 3009.025023
_symmetry_space_group_name_H-M "P 64 2 2"
_symmetry_group_IT_number 181
_symmetry_cell_setting 'hexagonal'
loop_
_space_group_symop_operation_xyz
x,y,z
x-y,x,2/3+z
-y,x-y,1/3+z
-x,-y,z
-x+y,-x,2/3+z
y,-x+y,1/3+z
x-y,-y,-z
-x,-x+y,2/3-z
y,x,1/3-z
-y,-x,1/3-z
-x+y,y,-z
x,x-y,2/3-z
loop_
_atom_site_type_symbol
_atom_site_label
_atom_site_fract_x
_atom_site_fract_y
_atom_site_fract_z
Si Si1 0.240611 0.240611 0.666667
Si Si2 0.681717 0.959436 0.434968
Si Si3 0.449040 0.344355 0.329122
Si Si4 0.766958 0.788369 0.931494
Si Si5 0.808862 0.285923 0.217150
Si Si6 0.133969 0.421912 0.248759
Si Si7 0.500000 0.000000 0.500000
O O1 0.119502 0.190936 0.628204
O O2 0.377035 0.274267 0.635207
O O3 0.784156 0.129544 0.438200
O O4 0.606394 0.940191 0.387285
O O5 0.772656 0.877337 0.434827
O O6 0.552375 0.911312 0.469840
O O7 0.500000 0.500000 0.345222
O O8 0.549510 0.274755 0.333334
O O9 0.323388 0.255145 0.363652
O O10 0.618171 0.751429 0.908153
O O11 0.749294 0.250707 0.166667
O O12 0.784936 0.407808 0.240241
O O13 0.981036 0.355170 0.223315
#
# Coordination Sequence:
#
# PCOD9584352 Si02
#       7
#     6  12  12  12  12  12   3
#     4  10  20  42  76 110 146 182 240 326 396 454
#     4  11  24  44  66 102 136 189 244 300 378 453
#     4  10  21  42  62  96 134 171 235 301 367 441
#     4  10  23  42  70 104 139 182 242 310 388 449
#     4  10  24  44  62  98 144 193 242 303 365 453
#     4  10  23  42  70  99 140 187 242 303 383 449
#     4  12  28  44  72  90 148 200 244 302 362 472
#
# _framework density 22.931018000000002
#
# number of rings (size 3 to 8) (size 9 to 14) (size 15 to 20)
#    0.000    1.739    2.609    0.000    3.652   10.435 
#    3.130    0.870    0.000    0.000    0.000    0.000 
#    0.000    0.000    0.000    0.000    0.000    0.000 
#
# Total GULP energy -384493.458962 kJ/mol
# GULP energy per Si atom -5572.368970 kJ/mol
# Density = 2.287883 g / cm^3
# Si number density = 22.931018 Si / 1000 Ang^3
#
#
#
# Elastic Constant Matrix: (Units=GPa)
#
#
# Indices 1 2 3 4 5 6 
#
# 1 123.8321 59.6056 46.3375 0.0000 0.0000 0.0000
# 2 59.6056 123.8321 46.3375 0.0000 0.0000 0.0000
# 3 46.3375 46.3375 101.3457 0.0000 0.0000 0.0000
# 4 0.0000 0.0000 0.0000 21.5066 0.0000 0.0000
# 5 0.0000 0.0000 0.0000 0.0000 21.5066 0.0000
# 6 0.0000 0.0000 0.0000 0.0000 0.0000 32.1132
#
#
#
# Elastic Compliance Matrix: (Units=1/GPa)
#
#
# Indices 1 2 3 4 5 6 
#
# 1 0.011329 -0.004240 -0.003241 0.000000 0.000000 0.000000
# 2 -0.004240 0.011329 -0.003241 0.000000 0.000000 0.000000
# 3 -0.003241 -0.003241 0.012831 0.000000 0.000000 0.000000
# 4 0.000000 0.000000 0.000000 0.046497 0.000000 0.000000
# 5 0.000000 0.000000 0.000000 0.000000 0.046497 0.000000
# 6 0.000000 0.000000 0.000000 0.000000 0.000000 0.031140
#
#
# Mechanical properties :
#
#
# Convention : Reuss Voigt Hill
#
# Bulk Modulus (GPa) = 71.20413 72.61905 71.91159
# Shear Modulus (GPa) = 26.91767 28.14059 27.52913
#
# Velocity S-wave (km/s) = 3.42987 3.50692 3.46861
# Velocity P-wave (km/s) = 6.84136 6.93795 6.88983
#
# Compressibility (1/GPa) = 0.01404413
#
# Stress axis : x y z
#
# Youngs Moduli (GPa) = 88.26573 88.26573 77.93540
#
# Poissons Ratio (x) = 0.37429 0.25261
# Poissons Ratio (y) = 0.37429 0.25261
# Poissons Ratio (z) = 0.28609 0.28609
#
# Static dielectric constant tensor:
#      x y z
#    x 2.040170 0.000000 0.000000 
#    y 0.000000 2.040170 0.000000 
#    z 0.000000 0.000000 1.849250 
# 
# From -- ./inp_files/12323.got.cif
#   From: 2010.05.17/outbox.cif.g08.bks.cpg/sg181_7_cif.got.tgz:12323.got - 2010.05.20 11:51:17.
