data_PCOD9584940
_publ_section_title
;
Structure prediction by ZEFSAII (Michael W. Deem and Ramdas Pophale) SiO2 
 PCOD9584940
Probable space group: P 6 M M
;
_chemical_formula_sum "Si O2"
_cell_formula_units_Z 84
_cell_length_a 22.686060
_cell_length_b 22.686060
_cell_length_c 12.832532
_cell_angle_alpha 90.000000
_cell_angle_beta 90.000000
_cell_angle_gamma 120.000000
_cell_volume 5719.540510
_symmetry_space_group_name_H-M "P 6 M M"
_symmetry_group_IT_number 183
_symmetry_cell_setting 'hexagonal'
loop_
_space_group_symop_operation_xyz
x,y,z
x-y,x,z
-y,x-y,z
-x,-y,z
-x+y,-x,z
y,-x+y,z
-x+y,y,z
x,x-y,z
-y,-x,z
y,x,z
x-y,-y,z
-x,-x+y,z
loop_
_atom_site_type_symbol
_atom_site_label
_atom_site_fract_x
_atom_site_fract_y
_atom_site_fract_z
Si Si1 0.383710 0.304540 0.052770
Si Si2 0.924157 0.712225 0.629743
Si Si3 0.665917 0.470889 0.371148
Si Si4 0.121108 0.736987 0.444792
Si Si5 0.707925 0.923055 0.243978
Si Si6 0.787467 0.709785 0.874503
Si Si7 0.471741 0.666460 0.120346
O O1 0.363227 0.363227 0.056828
O O2 0.341776 0.252328 0.146368
O O3 0.462603 0.330291 0.068330
O O4 0.353194 0.262675 0.946485
O O5 0.864641 0.729281 0.605987
O O6 0.913095 0.651791 0.552685
O O7 0.917906 0.693117 0.751587
O O8 0.000000 0.774162 0.612872
O O9 0.730431 0.460861 0.394951
O O10 0.596020 0.403981 0.399454
O O11 0.676995 0.539685 0.424585
O O12 0.666868 0.480478 0.245970
O O13 0.195136 0.804865 0.444267
O O14 0.082804 0.747954 0.347932
O O15 0.726154 0.863077 0.247039
O O16 0.770004 0.000000 0.235745
O O17 0.864809 0.729618 0.897162
O O18 0.768455 0.768455 0.895991
O O19 0.468602 0.734301 0.094299
O O20 0.401437 0.598564 0.093890
#
# Coordination Sequence:
#
# PCOD9584940 Si02
#       7
#    12  12  12  12  12  12  12
#     4  10  19  30  46  66  90 118 147 182 221 260
#     4   9  17  29  46  66  87 112 145 183 219 259
#     4   9  16  26  42  64  90 118 146 177 215 261
#     4   9  16  27  43  63  86 112 141 174 212 253
#     4  10  18  28  43  63  86 112 141 174 214 258
#     4   9  17  29  46  67  88 113 146 183 221 260
#     4  10  18  29  45  66  93 122 151 181 218 266
#
# _framework density 14.686495000000001
#
# number of rings (size 3 to 8) (size 9 to 14) (size 15 to 20)
#    0.000    2.571    1.429    2.000    0.000    1.429 
#    0.000    0.000    0.000    3.000    0.000    4.000 
#    0.000    9.143    0.000    0.286    0.000    0.571 
#
# Total GULP energy -467778.730683 kJ/mol
# GULP energy per Si atom -5568.794413 kJ/mol
# Density = 1.465307 g / cm^3
# Si number density = 14.686495 Si / 1000 Ang^3
#
#
#
# Elastic Constant Matrix: (Units=GPa)
#
#
# Indices 1 2 3 4 5 6 
#
# 1 109.4570 74.5985 37.8321 0.0000 0.0000 0.0000
# 2 74.5985 109.4570 37.8321 0.0000 0.0000 0.0000
# 3 37.8321 37.8321 46.5606 0.0000 0.0000 0.0000
# 4 0.0000 0.0000 0.0000 18.3055 0.0000 0.0000
# 5 0.0000 0.0000 0.0000 0.0000 18.3055 0.0000
# 6 0.0000 0.0000 0.0000 0.0000 0.0000 17.4293
#
#
#
# Elastic Compliance Matrix: (Units=1/GPa)
#
#
# Indices 1 2 3 4 5 6 
#
# 1 0.018423 -0.010265 -0.006629 0.000000 0.000000 0.000000
# 2 -0.010265 0.018423 -0.006629 0.000000 0.000000 0.000000
# 3 -0.006629 -0.006629 0.032250 0.000000 0.000000 0.000000
# 4 0.000000 0.000000 0.000000 0.054628 0.000000 0.000000
# 5 0.000000 0.000000 0.000000 0.000000 0.054628 0.000000
# 6 0.000000 0.000000 0.000000 0.000000 0.000000 0.057375
#
#
# Mechanical properties :
#
#
# Convention : Reuss Voigt Hill
#
# Bulk Modulus (GPa) = 45.34982 62.88890 54.11936
# Shear Modulus (GPa) = 17.23416 18.48886 17.86151
#
# Velocity S-wave (km/s) = 3.42931 3.55195 3.49117
# Velocity P-wave (km/s) = 6.82831 7.72888 7.29251
#
# Compressibility (1/GPa) = 0.02205081
#
# Stress axis : x y z
#
# Youngs Moduli (GPa) = 54.28057 54.28057 31.00797
#
# Poissons Ratio (x) = 0.55717 0.20555
# Poissons Ratio (y) = 0.55717 0.20555
# Poissons Ratio (z) = 0.35982 0.35982
#
# Static dielectric constant tensor:
#      x y z
#    x 1.481940 0.000000 0.000000 
#    y 0.000000 1.481940 0.000000 
#    z 0.000000 0.000000 1.490220 
# 
# From -- ./inp_files/1756.got.cif
#   From: 2010.05.17/outbox.cif.g08.bks.cpg/sg183_1_cif.got.tgz:1756.got - 2010.05.20 12:02:58.
