data_PCOD9584681
_publ_section_title
;
Structure prediction by ZEFSAII (Michael W. Deem and Ramdas Pophale) SiO2 
 PCOD9584681
Probable space group: P 63 2 2
;
_chemical_formula_sum "Si O2"
_cell_formula_units_Z 54
_cell_length_a 24.719329
_cell_length_b 24.719329
_cell_length_c 5.460812
_cell_angle_alpha 90.000000
_cell_angle_beta 90.000000
_cell_angle_gamma 120.000000
_cell_volume 2889.756255
_symmetry_space_group_name_H-M "P 63 2 2"
_symmetry_group_IT_number 182
_symmetry_cell_setting 'hexagonal'
loop_
_space_group_symop_operation_xyz
x,y,z
x-y,x,1/2+z
-y,x-y,z
-x,-y,1/2+z
-x+y,-x,z
y,-x+y,1/2+z
x-y,-y,-z
-x,-x+y,-z
y,x,-z
-y,-x,1/2-z
-x+y,y,1/2-z
x,x-y,1/2-z
loop_
_atom_site_type_symbol
_atom_site_label
_atom_site_fract_x
_atom_site_fract_y
_atom_site_fract_z
Si Si1 0.676061 0.838031 0.250000
Si Si2 0.462531 0.796022 0.238969
Si Si3 0.770737 0.833992 0.863859
Si Si4 0.931229 0.271163 0.435432
Si Si5 0.296114 0.833492 0.763035
O O1 0.720378 0.885458 0.454555
O O2 0.643400 0.768198 0.365193
O O3 0.397406 0.794812 0.250000
O O4 0.451745 0.725873 0.250000
O O5 0.502036 0.828331 0.484280
O O6 0.497730 0.826531 0.982999
O O7 0.805170 0.902585 0.750000
O O8 0.726786 0.780333 0.674412
O O9 0.814752 0.814752 0.000000
O O10 0.896680 0.293160 0.247185
O O11 0.000000 0.327611 0.500000
O O12 0.225466 0.774535 0.750000
#
# Coordination Sequence:
#
# PCOD9584681 Si02
#       5
#     6  12  12  12  12
#     4  10  20  34  54  76 122 146 190 244 294 358
#     4  10  21  38  62  91 123 159 202 255 315 366
#     4  10  20  33  52  80 115 148 188 240 306 361
#     4  11  22  35  56  84 120 161 197 248 298 369
#     4  10  22  36  59  89 124 163 201 252 308 368
#
# _framework density 18.686696999999999
#
# number of rings (size 3 to 8) (size 9 to 14) (size 15 to 20)
#    0.000    1.778    2.222    2.889    7.778    0.000 
#    0.000    2.222    0.000    2.667    0.000    0.000 
#   11.111    0.000    0.000    0.000    0.000    0.000 
#
# Total GULP energy -301072.039444 kJ/mol
# GULP energy per Si atom -5575.408138 kJ/mol
# Density = 1.864416 g / cm^3
# Si number density = 18.686697 Si / 1000 Ang^3
#
#
#
# Elastic Constant Matrix: (Units=GPa)
#
#
# Indices 1 2 3 4 5 6 
#
# 1 102.9334 56.5267 49.5129 0.0000 0.0000 0.0000
# 2 56.5267 102.9334 49.5129 0.0000 0.0000 0.0000
# 3 49.5129 49.5129 110.9909 0.0000 0.0000 0.0000
# 4 0.0000 0.0000 0.0000 19.6954 0.0000 0.0000
# 5 0.0000 0.0000 0.0000 0.0000 19.6954 0.0000
# 6 0.0000 0.0000 0.0000 0.0000 0.0000 23.2034
#
#
#
# Elastic Compliance Matrix: (Units=1/GPa)
#
#
# Indices 1 2 3 4 5 6 
#
# 1 0.015111 -0.006437 -0.003870 0.000000 0.000000 0.000000
# 2 -0.006437 0.015111 -0.003870 0.000000 0.000000 0.000000
# 3 -0.003870 -0.003870 0.012462 0.000000 0.000000 0.000000
# 4 0.000000 0.000000 0.000000 0.050773 0.000000 0.000000
# 5 0.000000 0.000000 0.000000 0.000000 0.050773 0.000000
# 6 0.000000 0.000000 0.000000 0.000000 0.000000 0.043097
#
#
# Mechanical properties :
#
#
# Convention : Reuss Voigt Hill
#
# Bulk Modulus (GPa) = 69.77233 69.77365 69.77299
# Shear Modulus (GPa) = 22.67997 23.27251 22.97624
#
# Velocity S-wave (km/s) = 3.48759 3.53286 3.51030
# Velocity P-wave (km/s) = 7.32371 7.35263 7.33819
#
# Compressibility (1/GPa) = 0.01433233
#
# Stress axis : x y z
#
# Youngs Moduli (GPa) = 66.17531 66.17531 80.24311
#
# Poissons Ratio (x) = 0.42598 0.31050
# Poissons Ratio (y) = 0.42598 0.31050
# Poissons Ratio (z) = 0.25607 0.25607
#
# Static dielectric constant tensor:
#      x y z
#    x 1.677860 0.000000 0.000000 
#    y 0.000000 1.677860 0.000000 
#    z 0.000000 0.000000 1.720990 
# 
# From -- ./inp_files/541.got.cif
#   From: 2010.05.17/outbox.cif.g08.bks.cpg/sg182_1_cif.got.tgz:541.got - 2010.05.20 11:58:53.
