data_PCOD9584291
_publ_section_title
;
Structure prediction by ZEFSAII (Michael W. Deem and Ramdas Pophale) SiO2 
 PCOD9584291
Probable space group: P 64 2 2
;
_chemical_formula_sum "Si O2"
_cell_formula_units_Z 63
_cell_length_a 13.933509
_cell_length_b 13.933509
_cell_length_c 19.345151
_cell_angle_alpha 90.000000
_cell_angle_beta 90.000000
_cell_angle_gamma 120.000000
_cell_volume 3252.548346
_symmetry_space_group_name_H-M "P 64 2 2"
_symmetry_group_IT_number 181
_symmetry_cell_setting 'hexagonal'
loop_
_space_group_symop_operation_xyz
x,y,z
x-y,x,2/3+z
-y,x-y,1/3+z
-x,-y,z
-x+y,-x,2/3+z
y,-x+y,1/3+z
x-y,-y,-z
-x,-x+y,2/3-z
y,x,1/3-z
-y,-x,1/3-z
-x+y,y,-z
x,x-y,2/3-z
loop_
_atom_site_type_symbol
_atom_site_label
_atom_site_fract_x
_atom_site_fract_y
_atom_site_fract_z
Si Si1 0.649698 0.888093 0.534222
Si Si2 0.500000 0.000000 0.772015
Si Si3 0.000000 0.000000 0.333334
Si Si4 0.130454 0.158446 0.882531
Si Si5 0.327133 0.023473 0.682642
Si Si6 0.231944 0.463887 0.000000
Si Si7 0.557522 0.325298 0.479084
O O1 0.745977 0.873999 0.495583
O O2 0.661803 0.903721 0.616472
O O3 0.530455 0.784038 0.519178
O O4 0.664145 0.000000 0.500000
O O5 0.437130 0.045589 0.723287
O O6 0.585160 0.102997 0.817670
O O7 0.095517 0.064057 0.272372
O O8 0.241104 0.218628 0.928644
O O9 0.132660 0.066330 0.833334
O O10 0.279522 0.898087 0.655506
O O11 0.289198 0.537823 0.934114
O O12 0.682043 0.364085 0.500000
#
# Coordination Sequence:
#
# PCOD9584291 Si02
#       7
#    12   6   3  12  12   6  12
#     4  12  22  38  64 101 137 167 217 286 331 396
#     4  10  24  48  63  95 136 176 224 274 340 404
#     4  12  24  36  60  98 132 184 214 270 340 406
#     4  12  23  39  61  92 137 184 224 264 332 403
#     4  11  22  39  65  93 135 176 220 275 336 397
#     4  10  19  42  64 100 134 165 210 276 338 394
#     4  11  25  42  70  99 130 173 222 273 344 402
#
# _framework density 19.369427000000002
#
# number of rings (size 3 to 8) (size 9 to 14) (size 15 to 20)
#    0.000    0.762    5.714    4.286    5.333    1.143 
#    0.000    0.000    0.000    0.571    0.000    0.000 
#    0.000    0.000    0.000    0.000    0.000    0.000 
#
# Total GULP energy -351166.805368 kJ/mol
# GULP energy per Si atom -5574.076276 kJ/mol
# Density = 1.932534 g / cm^3
# Si number density = 19.369427 Si / 1000 Ang^3
#
#
#
# Elastic Constant Matrix: (Units=GPa)
#
#
# Indices 1 2 3 4 5 6 
#
# 1 68.3499 22.3630 40.2054 0.0000 0.0000 0.0000
# 2 22.3630 68.3499 40.2054 0.0000 0.0000 0.0000
# 3 40.2054 40.2054 106.4057 0.0000 0.0000 0.0000
# 4 0.0000 0.0000 0.0000 16.8201 0.0000 0.0000
# 5 0.0000 0.0000 0.0000 0.0000 16.8201 0.0000
# 6 0.0000 0.0000 0.0000 0.0000 0.0000 22.9934
#
#
#
# Elastic Compliance Matrix: (Units=1/GPa)
#
#
# Indices 1 2 3 4 5 6 
#
# 1 0.019160 -0.002585 -0.006263 0.000000 0.000000 0.000000
# 2 -0.002585 0.019160 -0.006263 0.000000 0.000000 0.000000
# 3 -0.006263 -0.006263 0.014131 0.000000 0.000000 0.000000
# 4 0.000000 0.000000 0.000000 0.059453 0.000000 0.000000
# 5 0.000000 0.000000 0.000000 0.000000 0.059453 0.000000
# 6 0.000000 0.000000 0.000000 0.000000 0.000000 0.043491
#
#
# Mechanical properties :
#
#
# Convention : Reuss Voigt Hill
#
# Bulk Modulus (GPa) = 44.98454 49.85031 47.41742
# Shear Modulus (GPa) = 19.80356 20.68218 20.24287
#
# Velocity S-wave (km/s) = 3.20099 3.27123 3.23630
# Velocity P-wave (km/s) = 6.07756 6.32933 6.20472
#
# Compressibility (1/GPa) = 0.02222986
#
# Stress axis : x y z
#
# Youngs Moduli (GPa) = 52.19082 52.19082 70.76640
#
# Poissons Ratio (x) = 0.13491 0.44322
# Poissons Ratio (y) = 0.13491 0.44322
# Poissons Ratio (z) = 0.32688 0.32688
#
# Static dielectric constant tensor:
#      x y z
#    x 1.706880 0.000000 0.000000 
#    y 0.000000 1.706880 0.000000 
#    z 0.000000 0.000000 1.689230 
# 
# From -- ./inp_files/7697.got.cif
#   From: 2010.05.17/outbox.cif.g08.bks.cpg/sg181_4_cif.got.tgz:7697.got - 2010.05.20 11:51:17.
