data_PCOD9584286
_publ_section_title
;
Structure prediction by ZEFSAII (Michael W. Deem and Ramdas Pophale) SiO2 
 PCOD9584286
Probable space group: P 64 2 2
;
_chemical_formula_sum "Si O2"
_cell_formula_units_Z 96
_cell_length_a 24.901663
_cell_length_b 24.901663
_cell_length_c 11.448469
_cell_angle_alpha 90.000000
_cell_angle_beta 90.000000
_cell_angle_gamma 120.000000
_cell_volume 6148.012574
_symmetry_space_group_name_H-M "P 64 2 2"
_symmetry_group_IT_number 181
_symmetry_cell_setting 'hexagonal'
loop_
_space_group_symop_operation_xyz
x,y,z
x-y,x,2/3+z
-y,x-y,1/3+z
-x,-y,z
-x+y,-x,2/3+z
y,-x+y,1/3+z
x-y,-y,-z
-x,-x+y,2/3-z
y,x,1/3-z
-y,-x,1/3-z
-x+y,y,-z
x,x-y,2/3-z
loop_
_atom_site_type_symbol
_atom_site_label
_atom_site_fract_x
_atom_site_fract_y
_atom_site_fract_z
Si Si1 0.316990 0.933568 0.447117
Si Si2 0.763264 0.483151 0.652275
Si Si3 0.190696 0.720556 0.762952
Si Si4 0.055877 0.569592 0.040083
Si Si5 0.248312 0.385362 0.441912
Si Si6 0.608933 0.187582 0.696943
Si Si7 0.419986 0.064496 0.938179
Si Si8 0.356739 0.826265 0.952344
O O1 0.299888 0.880930 0.546111
O O2 0.380124 0.944987 0.381620
O O3 0.263023 0.900675 0.347284
O O4 0.332816 0.000000 0.500000
O O5 0.775928 0.515680 0.779053
O O6 0.816352 0.540164 0.578680
O O7 0.770941 0.423260 0.650378
O O8 0.692159 0.463001 0.632084
O O9 0.226390 0.773611 0.666667
O O10 0.196138 0.660852 0.727474
O O11 0.000000 0.500000 0.025261
O O12 0.118575 0.567845 0.021066
O O13 0.057506 0.595803 0.170181
O O14 0.181094 0.362187 0.500000
O O15 0.291377 0.379424 0.537799
O O16 0.641317 0.195254 0.822013
O O17 0.461942 0.116772 0.032157
O O18 0.380537 0.000000 0.000000
O O19 0.424767 0.849533 0.000000
#
# Coordination Sequence:
#
# PCOD9584286 Si02
#       8
#    12  12  12  12  12  12  12  12
#     4  10  22  38  55  81 101 129 168 214 261 322
#     4  11  22  39  52  65  95 126 170 210 261 331
#     4  11  22  38  54  72  95 128 166 214 265 324
#     4  11  21  34  51  73 100 133 156 202 275 331
#     4  10  19  39  59  71  99 139 163 194 261 328
#     4  12  22  35  52  71  93 126 169 210 263 327
#     4  11  22  34  52  79 102 122 160 212 255 314
#     4  12  23  35  51  70  95 129 162 214 266 326
#
# _framework density 15.614801999999999
#
# number of rings (size 3 to 8) (size 9 to 14) (size 15 to 20)
#    0.000    1.000    7.500    1.875    0.000    2.750 
#    2.250    0.000    0.000    0.000    0.000    0.000 
#    0.000    0.000    0.000    0.000    0.000    0.000 
#
# Total GULP energy -535592.420512 kJ/mol
# GULP energy per Si atom -5579.087714 kJ/mol
# Density = 1.557926 g / cm^3
# Si number density = 15.614802 Si / 1000 Ang^3
#
#
#
# Elastic Constant Matrix: (Units=GPa)
#
#
# Indices 1 2 3 4 5 6 
#
# 1 75.1217 31.0208 24.2531 0.0000 0.0000 0.0000
# 2 31.0208 75.1217 24.2531 0.0000 0.0000 0.0000
# 3 24.2531 24.2531 62.9515 0.0000 0.0000 0.0000
# 4 0.0000 0.0000 0.0000 23.0722 0.0000 0.0000
# 5 0.0000 0.0000 0.0000 0.0000 23.0722 0.0000
# 6 0.0000 0.0000 0.0000 0.0000 0.0000 22.0505
#
#
#
# Elastic Compliance Matrix: (Units=1/GPa)
#
#
# Indices 1 2 3 4 5 6 
#
# 1 0.017055 -0.005620 -0.004405 0.000000 0.000000 0.000000
# 2 -0.005620 0.017055 -0.004405 0.000000 0.000000 0.000000
# 3 -0.004405 -0.004405 0.019280 0.000000 0.000000 0.000000
# 4 0.000000 0.000000 0.000000 0.043342 0.000000 0.000000
# 5 0.000000 0.000000 0.000000 0.000000 0.043342 0.000000
# 6 0.000000 0.000000 0.000000 0.000000 0.000000 0.045351
#
#
# Mechanical properties :
#
#
# Convention : Reuss Voigt Hill
#
# Bulk Modulus (GPa) = 40.77075 41.36096 41.06586
# Shear Modulus (GPa) = 22.47574 22.55019 22.51297
#
# Velocity S-wave (km/s) = 3.79804 3.80433 3.80119
# Velocity P-wave (km/s) = 6.73799 6.77075 6.75439
#
# Compressibility (1/GPa) = 0.02452739
#
# Stress axis : x y z
#
# Youngs Moduli (GPa) = 58.63426 58.63426 51.86806
#
# Poissons Ratio (x) = 0.32955 0.22850
# Poissons Ratio (y) = 0.32955 0.22850
# Poissons Ratio (z) = 0.25830 0.25830
#
# Static dielectric constant tensor:
#      x y z
#    x 1.522800 0.000000 0.000000 
#    y 0.000000 1.522800 0.000000 
#    z 0.000000 0.000000 1.617850 
# 
# From -- ./inp_files/5216.got.cif
#   From: 2010.05.17/outbox.cif.g08.bks.cpg/sg181_3_cif.got.tgz:5216.got - 2010.05.20 11:51:17.
