data_PCOD9584339
_publ_section_title
;
Structure prediction by ZEFSAII (Michael W. Deem and Ramdas Pophale) SiO2 
 PCOD9584339
Probable space group: P 64 2 2
;
_chemical_formula_sum "Si O2"
_cell_formula_units_Z 84
_cell_length_a 18.279793
_cell_length_b 18.279793
_cell_length_c 13.053096
_cell_angle_alpha 90.000000
_cell_angle_beta 90.000000
_cell_angle_gamma 120.000000
_cell_volume 3777.345507
_symmetry_space_group_name_H-M "P 64 2 2"
_symmetry_group_IT_number 181
_symmetry_cell_setting 'hexagonal'
loop_
_space_group_symop_operation_xyz
x,y,z
x-y,x,2/3+z
-y,x-y,1/3+z
-x,-y,z
-x+y,-x,2/3+z
y,-x+y,1/3+z
x-y,-y,-z
-x,-x+y,2/3-z
y,x,1/3-z
-y,-x,1/3-z
-x+y,y,-z
x,x-y,2/3-z
loop_
_atom_site_type_symbol
_atom_site_label
_atom_site_fract_x
_atom_site_fract_y
_atom_site_fract_z
Si Si1 0.849382 0.202981 0.330903
Si Si2 0.774629 0.083347 0.804167
Si Si3 0.275633 0.532001 0.754539
Si Si4 0.577058 0.187937 0.754344
Si Si5 0.490250 0.116897 0.433327
Si Si6 0.938008 0.242286 0.746830
Si Si7 0.076053 0.381535 0.541425
O O1 0.912241 0.196509 0.411831
O O2 0.822187 0.265179 0.385969
O O3 0.760495 0.118946 0.303499
O O4 0.892467 0.246045 0.225203
O O5 0.839747 0.180509 0.776275
O O6 0.786712 0.045443 0.696765
O O7 0.672978 0.024963 0.802842
O O8 0.361385 0.588555 0.816119
O O9 0.255191 0.569309 0.653088
O O10 0.200427 0.511498 0.834571
O O11 0.612829 0.144818 0.677805
O O12 0.482050 0.119766 0.787638
O O13 0.541838 0.083675 0.500000
O O14 0.390588 0.057875 0.415405
O O15 0.000000 0.244091 0.833334
#
# Coordination Sequence:
#
# PCOD9584339 Si02
#       7
#    12  12  12  12  12  12  12
#     4  10  20  41  65  87 130 168 220 277 340 412
#     4  11  22  39  68  90 128 170 210 273 340 413
#     4  10  20  39  57  84 121 171 231 287 342 397
#     4  10  22  39  59  89 129 176 232 291 346 403
#     4  10  21  38  58  85 121 171 219 279 346 397
#     4  11  24  40  66  97 128 166 217 281 342 414
#     4  10  23  41  62  97 128 172 224 281 341 415
#
# _framework density 22.237838
#
# number of rings (size 3 to 8) (size 9 to 14) (size 15 to 20)
#    0.000    1.714    1.429    2.571    6.000    0.857 
#   30.857    2.143    0.000    3.429    0.000    2.000 
#    0.000   13.714    0.000    1.429    0.000    0.571 
#
# Total GULP energy -467680.118561 kJ/mol
# GULP energy per Si atom -5567.620459 kJ/mol
# Density = 2.218722 g / cm^3
# Si number density = 22.237838 Si / 1000 Ang^3
#
#
#
# Elastic Constant Matrix: (Units=GPa)
#
#
# Indices 1 2 3 4 5 6 
#
# 1 64.8507 48.4923 33.6469 0.0000 0.0000 0.0000
# 2 48.4923 64.8507 33.6469 0.0000 0.0000 0.0000
# 3 33.6469 33.6469 140.6611 0.0000 0.0000 0.0000
# 4 0.0000 0.0000 0.0000 98.6367 0.0000 0.0000
# 5 0.0000 0.0000 0.0000 0.0000 98.6367 0.0000
# 6 0.0000 0.0000 0.0000 0.0000 0.0000 8.1792
#
#
#
# Elastic Compliance Matrix: (Units=1/GPa)
#
#
# Indices 1 2 3 4 5 6 
#
# 1 0.035707 -0.025424 -0.002460 0.000000 0.000000 0.000000
# 2 -0.025424 0.035707 -0.002460 0.000000 0.000000 0.000000
# 3 -0.002460 -0.002460 0.008286 0.000000 0.000000 0.000000
# 4 0.000000 0.000000 0.000000 0.010138 0.000000 0.000000
# 5 0.000000 0.000000 0.000000 0.000000 0.010138 0.000000
# 6 0.000000 0.000000 0.000000 0.000000 0.000000 0.122262
#
#
# Mechanical properties :
#
#
# Convention : Reuss Voigt Hill
#
# Bulk Modulus (GPa) = 52.59479 55.77054 54.18267
# Shear Modulus (GPa) = 17.28530 51.39558 34.34044
#
# Velocity S-wave (km/s) = 2.79102 4.81269 3.93394
# Velocity P-wave (km/s) = 5.83856 7.48439 6.71211
#
# Compressibility (1/GPa) = 0.01901329
#
# Stress axis : x y z
#
# Youngs Moduli (GPa) = 28.00567 28.00567 120.68425
#
# Poissons Ratio (x) = 0.71201 0.29686
# Poissons Ratio (y) = 0.71201 0.29686
# Poissons Ratio (z) = 0.06889 0.06889
#
# Static dielectric constant tensor:
#      x y z
#    x 1.864720 0.000000 0.000000 
#    y 0.000000 1.864720 0.000000 
#    z 0.000000 0.000000 1.910980 
# 
# From -- ./inp_files/5057.got.cif
#   From: 2010.05.17/outbox.cif.g08.bks.cpg/sg181_3_cif.got.tgz:5057.got - 2010.05.20 11:51:17.
