data_PCOD9584807
_publ_section_title
;
Structure prediction by ZEFSAII (Michael W. Deem and Ramdas Pophale) SiO2 
 PCOD9584807
Probable space group: P 63 2 2
;
_chemical_formula_sum "Si O2"
_cell_formula_units_Z 84
_cell_length_a 20.379489
_cell_length_b 20.379489
_cell_length_c 12.379090
_cell_angle_alpha 90.000000
_cell_angle_beta 90.000000
_cell_angle_gamma 120.000000
_cell_volume 4452.520550
_symmetry_space_group_name_H-M "P 63 2 2"
_symmetry_group_IT_number 182
_symmetry_cell_setting 'hexagonal'
loop_
_space_group_symop_operation_xyz
x,y,z
x-y,x,1/2+z
-y,x-y,z
-x,-y,1/2+z
-x+y,-x,z
y,-x+y,1/2+z
x-y,-y,-z
-x,-x+y,-z
y,x,-z
-y,-x,1/2-z
-x+y,y,1/2-z
x,x-y,1/2-z
loop_
_atom_site_type_symbol
_atom_site_label
_atom_site_fract_x
_atom_site_fract_y
_atom_site_fract_z
Si Si1 0.666064 0.194657 0.701808
Si Si2 0.456999 0.820179 0.551681
Si Si3 0.313663 0.412009 0.682654
Si Si4 0.303346 0.214091 0.505433
Si Si5 0.072175 0.372928 0.228831
Si Si6 0.810078 0.512613 0.100885
Si Si7 0.754145 0.088130 0.963684
O O1 0.747872 0.252129 0.750000
O O2 0.609106 0.218212 0.750000
O O3 0.655345 0.191035 0.574295
O O4 0.650184 0.113289 0.737868
O O5 0.522430 0.897078 0.604859
O O6 0.377968 0.815597 0.576773
O O7 0.478556 0.759278 0.600183
O O8 0.247750 0.357971 0.599097
O O9 0.341485 0.357723 0.728758
O O10 0.297491 0.449996 0.784770
O O11 0.238881 0.238881 0.500000
O O12 0.349836 0.255048 0.615344
O O13 0.284029 0.127478 0.507693
O O14 0.092127 0.342148 0.334562
O O15 0.857820 0.581618 0.015683
O O16 0.704291 0.000000 0.000000
#
# Coordination Sequence:
#
# PCOD9584807 Si02
#       7
#    12  12  12  12  12  12  12
#     4  12  24  40  62  87 119 165 221 278 328 385
#     4  12  24  41  63  89 131 173 219 276 332 390
#     4  11  23  41  62  91 128 165 213 270 320 399
#     4  10  22  42  70  95 130 171 215 263 331 403
#     4  11  22  42  65  93 122 170 215 269 325 390
#     4  12  25  43  62  96 127 173 226 268 338 391
#     4  12  23  42  69 100 134 167 219 281 327 388
#
# _framework density 18.865718000000001
#
# number of rings (size 3 to 8) (size 9 to 14) (size 15 to 20)
#    0.000    0.571    4.286    5.143    0.000    1.143 
#    2.571    1.429    0.000    0.286    0.000    0.000 
#    0.000    0.000    0.000    0.000    0.000    0.000 
#
# Total GULP energy -468554.848876 kJ/mol
# GULP energy per Si atom -5578.033915 kJ/mol
# Density = 1.882278 g / cm^3
# Si number density = 18.865718 Si / 1000 Ang^3
#
#
#
# Elastic Constant Matrix: (Units=GPa)
#
#
# Indices 1 2 3 4 5 6 
#
# 1 91.6950 55.2660 33.1584 0.0000 0.0000 0.0000
# 2 55.2660 91.6950 33.1584 0.0000 0.0000 0.0000
# 3 33.1584 33.1584 133.2699 0.0000 0.0000 0.0000
# 4 0.0000 0.0000 0.0000 -11.1982 0.0000 0.0000
# 5 0.0000 0.0000 0.0000 0.0000 -11.1982 0.0000
# 6 0.0000 0.0000 0.0000 0.0000 0.0000 18.2145
#
#
#
# Elastic Compliance Matrix: (Units=1/GPa)
#
#
# Indices 1 2 3 4 5 6 
#
# 1 0.017558 -0.009893 -0.001907 0.000000 0.000000 0.000000
# 2 -0.009893 0.017558 -0.001907 0.000000 0.000000 0.000000
# 3 -0.001907 -0.001907 0.008453 0.000000 0.000000 0.000000
# 4 0.000000 0.000000 0.000000 -0.089300 0.000000 0.000000
# 5 0.000000 0.000000 0.000000 0.000000 -0.089300 0.000000
# 6 0.000000 0.000000 0.000000 0.000000 0.000000 0.054901
#
#
# Mechanical properties :
#
#
# Convention : Reuss Voigt Hill
#
# Bulk Modulus (GPa) = 61.90298 62.20283 62.05290
# Shear Modulus (GPa) = -105.63638 12.16877 -46.73381
#
# Velocity S-wave (km/s) = -7.49102 2.54248 -4.98253
# Velocity P-wave (km/s) = 6.47587 6.45460 0.37081
#
# Compressibility (1/GPa) = 0.01615431
#
# Stress axis : x y z
#
# Youngs Moduli (GPa) = 56.95439 56.95439 118.30701
#
# Poissons Ratio (x) = 0.56344 0.22563
# Poissons Ratio (y) = 0.56344 0.22563
# Poissons Ratio (z) = 0.10862 0.10862
#
# Static dielectric constant tensor:
#      x y z
#    x 1.698580 0.000000 0.000000 
#    y 0.000000 1.698580 0.000000 
#    z 0.000000 0.000000 1.754810 
# 
# From -- ./inp_files/2763.got.cif
#   From: 2010.05.17/outbox.cif.g08.bks.cpg/sg182_2_cif.got.tgz:2763.got - 2010.05.20 11:58:53.
