data_PCOD9584171
_publ_section_title
;
Structure prediction by ZEFSAII (Michael W. Deem and Ramdas Pophale) SiO2 
 PCOD9584171
Probable space group: P 62 2 2
;
_chemical_formula_sum "Si O2"
_cell_formula_units_Z 45
_cell_length_a 17.307047
_cell_length_b 17.307047
_cell_length_c 8.947244
_cell_angle_alpha 90.000000
_cell_angle_beta 90.000000
_cell_angle_gamma 120.000000
_cell_volume 2320.950398
_symmetry_space_group_name_H-M "P 62 2 2"
_symmetry_group_IT_number 180
_symmetry_cell_setting 'hexagonal'
loop_
_space_group_symop_operation_xyz
x,y,z
x-y,x,1/3+z
-y,x-y,2/3+z
-x,-y,z
-x+y,-x,1/3+z
y,-x+y,2/3+z
x-y,-y,-z
-x,-x+y,1/3-z
y,x,2/3-z
-y,-x,2/3-z
-x+y,y,-z
x,x-y,1/3-z
loop_
_atom_site_type_symbol
_atom_site_label
_atom_site_fract_x
_atom_site_fract_y
_atom_site_fract_z
Si Si1 0.451353 0.114311 0.784794
Si Si2 0.000000 0.337686 0.166667
Si Si3 0.359741 0.764403 0.663477
Si Si4 0.826891 0.611292 0.334428
Si Si5 0.500000 0.500000 0.333334
O O1 0.409261 0.059404 0.630884
O O2 0.549653 0.197553 0.756800
O O3 0.395839 0.150656 0.877788
O O4 0.470788 0.054349 0.894589
O O5 0.075900 0.332678 0.261847
O O6 0.398143 0.796286 0.500000
O O7 0.314318 0.657159 0.666667
O O8 0.295408 0.803701 0.696276
O O9 0.822480 0.644960 0.500000
#
# Coordination Sequence:
#
# PCOD9584171 Si02
#       5
#    12   6  12  12   3
#     4  12  24  42  58  91 121 171 226 269 342 403
#     4  12  24  43  64  82 126 170 221 286 346 406
#     4  12  21  36  59  83 114 164 221 285 337 394
#     4  12  26  41  63  91 124 169 227 287 344 420
#     4  12  28  38  60  88 132 170 214 280 324 394
#
# _framework density 19.388608999999999
#
# number of rings (size 3 to 8) (size 9 to 14) (size 15 to 20)
#    0.000    0.000    5.333    6.400    1.867    1.067 
#    0.000    0.000    0.000    0.000    0.000    0.000 
#    0.000    0.000    0.000  187.200    0.000    0.000 
#
# Total GULP energy -251189.331792 kJ/mol
# GULP energy per Si atom -5581.985151 kJ/mol
# Density = 1.934448 g / cm^3
# Si number density = 19.388609 Si / 1000 Ang^3
#
#
#
# Elastic Constant Matrix: (Units=GPa)
#
#
# Indices 1 2 3 4 5 6 
#
# 1 87.3015 37.8738 51.2880 0.0000 0.0000 0.0000
# 2 37.8738 87.3015 51.2880 0.0000 0.0000 0.0000
# 3 51.2880 51.2880 164.0221 0.0000 0.0000 0.0000
# 4 0.0000 0.0000 0.0000 -1.3348 0.0000 0.0000
# 5 0.0000 0.0000 0.0000 0.0000 -1.3348 0.0000
# 6 0.0000 0.0000 0.0000 0.0000 0.0000 24.7139
#
#
#
# Elastic Compliance Matrix: (Units=1/GPa)
#
#
# Indices 1 2 3 4 5 6 
#
# 1 0.015486 -0.004745 -0.003359 0.000000 0.000000 0.000000
# 2 -0.004745 0.015486 -0.003359 0.000000 0.000000 0.000000
# 3 -0.003359 -0.003359 0.008197 0.000000 0.000000 0.000000
# 4 0.000000 0.000000 0.000000 -0.749196 0.000000 0.000000
# 5 0.000000 0.000000 0.000000 0.000000 -0.749196 0.000000
# 6 0.000000 0.000000 0.000000 0.000000 0.000000 0.040463
#
#
# Mechanical properties :
#
#
# Convention : Reuss Voigt Hill
#
# Bulk Modulus (GPa) = 61.55827 68.83611 65.19719
# Shear Modulus (GPa) = -3.59604 17.62055 7.01225
#
# Velocity S-wave (km/s) = -1.36336 3.01792 1.90382
# Velocity P-wave (km/s) = 5.41667 6.90827 6.20744
#
# Compressibility (1/GPa) = 0.01624477
#
# Stress axis : x y z
#
# Youngs Moduli (GPa) = 64.57318 64.57318 121.99365
#
# Poissons Ratio (x) = 0.30642 0.40973
# Poissons Ratio (y) = 0.30642 0.40973
# Poissons Ratio (z) = 0.21688 0.21688
#
# Static dielectric constant tensor:
#      x y z
#    x 1.771820 0.000000 0.000000 
#    y 0.000000 1.771820 0.000000 
#    z 0.000000 0.000000 1.763830 
# 
# From -- ./inp_files/2693.got.cif
#   From: 2010.05.17/outbox.cif.g08.bks.cpg/sg180_2_cif.got.tgz:2693.got - 2010.05.20 11:43:55.
