data_PCOD9584471
_publ_section_title
;
Structure prediction by ZEFSAII (Michael W. Deem and Ramdas Pophale) SiO2 
 PCOD9584471
Probable space group: P 64 2 2
;
_chemical_formula_sum "Si O2"
_cell_formula_units_Z 42
_cell_length_a 8.806309
_cell_length_b 8.806309
_cell_length_c 28.636080
_cell_angle_alpha 90.000000
_cell_angle_beta 90.000000
_cell_angle_gamma 120.000000
_cell_volume 1923.233605
_symmetry_space_group_name_H-M "P 64 2 2"
_symmetry_group_IT_number 181
_symmetry_cell_setting 'hexagonal'
loop_
_space_group_symop_operation_xyz
x,y,z
x-y,x,2/3+z
-y,x-y,1/3+z
-x,-y,z
-x+y,-x,2/3+z
y,-x+y,1/3+z
x-y,-y,-z
-x,-x+y,2/3-z
y,x,1/3-z
-y,-x,1/3-z
-x+y,y,-z
x,x-y,2/3-z
loop_
_atom_site_type_symbol
_atom_site_label
_atom_site_fract_x
_atom_site_fract_y
_atom_site_fract_z
Si Si1 0.775825 0.696069 0.549604
Si Si2 0.917341 0.172736 0.019221
Si Si3 0.500000 0.000000 0.625839
Si Si4 0.727665 0.290606 0.883572
O O1 0.870946 0.741891 0.500000
O O2 0.910208 0.758508 0.592233
O O3 0.637659 0.766048 0.552589
O O4 0.673819 0.483598 0.554707
O O5 0.932726 0.340060 0.994850
O O6 0.086320 0.172640 0.000000
O O7 0.746918 0.000000 0.000000
O O8 0.598673 0.164618 0.590086
O O9 0.771421 0.385710 0.833334
#
# Coordination Sequence:
#
# PCOD9584471 Si02
#       4
#    12  12   6  12
#     4  10  23  46  72  97 138 185 233 295 357 435
#     4  11  26  46  64 100 142 182 235 284 361 428
#     4  12  25  42  70 102 142 182 229 302 346 430
#     4  10  23  43  70 106 137 178 242 291 360 429
#
# _framework density 21.838221999999998
#
# number of rings (size 3 to 8) (size 9 to 14) (size 15 to 20)
#    0.000    1.429    2.857    0.429    8.000    2.286 
#    0.000    2.857    0.000    0.000    0.000    0.000 
#    0.000    0.000    0.000    0.000    0.000    0.000 
#
# Total GULP energy -234462.830580 kJ/mol
# GULP energy per Si atom -5582.448347 kJ/mol
# Density = 2.178852 g / cm^3
# Si number density = 21.838222 Si / 1000 Ang^3
#
#
#
# Elastic Constant Matrix: (Units=GPa)
#
#
# Indices 1 2 3 4 5 6 
#
# 1 72.7673 26.9229 56.0223 0.0000 0.0000 0.0000
# 2 26.9229 72.7673 56.0223 0.0000 0.0000 0.0000
# 3 56.0223 56.0223 222.1146 0.0000 0.0000 0.0000
# 4 0.0000 0.0000 0.0000 36.4209 0.0000 0.0000
# 5 0.0000 0.0000 0.0000 0.0000 36.4209 0.0000
# 6 0.0000 0.0000 0.0000 0.0000 0.0000 22.9222
#
#
#
# Elastic Compliance Matrix: (Units=1/GPa)
#
#
# Indices 1 2 3 4 5 6 
#
# 1 0.017906 -0.003907 -0.003531 0.000000 0.000000 0.000000
# 2 -0.003907 0.017906 -0.003531 0.000000 0.000000 0.000000
# 3 -0.003531 -0.003531 0.006283 0.000000 0.000000 0.000000
# 4 0.000000 0.000000 0.000000 0.027457 0.000000 0.000000
# 5 0.000000 0.000000 0.000000 0.000000 0.027457 0.000000
# 6 0.000000 0.000000 0.000000 0.000000 0.000000 0.043626
#
#
# Mechanical properties :
#
#
# Convention : Reuss Voigt Hill
#
# Bulk Modulus (GPa) = 49.60644 71.73158 60.66901
# Shear Modulus (GPa) = 29.53469 34.39822 31.96645
#
# Velocity S-wave (km/s) = 3.68153 3.97311 3.83009
# Velocity P-wave (km/s) = 6.39033 7.34612 6.88483
#
# Compressibility (1/GPa) = 0.02015867
#
# Stress axis : x y z
#
# Youngs Moduli (GPa) = 55.84617 55.84617 159.14942
#
# Poissons Ratio (x) = 0.21817 0.56196
# Poissons Ratio (y) = 0.21817 0.56196
# Poissons Ratio (z) = 0.19720 0.19720
#
# Static dielectric constant tensor:
#      x y z
#    x 1.723820 0.000000 0.000000 
#    y 0.000000 1.723820 0.000000 
#    z 0.000000 0.000000 1.834880 
# 
# From -- ./inp_files/11967.got.cif
#   From: 2010.05.17/outbox.cif.g08.bks.cpg/sg181_6_cif.got.tgz:11967.got - 2010.05.20 11:51:17.
