data_PCOD9584745
_publ_section_title
;
Structure prediction by ZEFSAII (Michael W. Deem and Ramdas Pophale) SiO2 
 PCOD9584745
Probable space group: P 63 2 2
;
_chemical_formula_sum "Si O2"
_cell_formula_units_Z 84
_cell_length_a 17.673588
_cell_length_b 17.673588
_cell_length_c 15.759267
_cell_angle_alpha 90.000000
_cell_angle_beta 90.000000
_cell_angle_gamma 120.000000
_cell_volume 4263.007519
_symmetry_space_group_name_H-M "P 63 2 2"
_symmetry_group_IT_number 182
_symmetry_cell_setting 'hexagonal'
loop_
_space_group_symop_operation_xyz
x,y,z
x-y,x,1/2+z
-y,x-y,z
-x,-y,1/2+z
-x+y,-x,z
y,-x+y,1/2+z
x-y,-y,-z
-x,-x+y,-z
y,x,-z
-y,-x,1/2-z
-x+y,y,1/2-z
x,x-y,1/2-z
loop_
_atom_site_type_symbol
_atom_site_label
_atom_site_fract_x
_atom_site_fract_y
_atom_site_fract_z
Si Si1 0.159809 0.682555 0.229023
Si Si2 0.870113 0.465083 0.424231
Si Si3 0.728264 0.228028 0.155635
Si Si4 0.207327 0.102102 0.000759
Si Si5 0.073827 0.569308 0.379062
Si Si6 0.701969 0.806952 0.666065
Si Si7 0.710735 0.898089 0.167674
O O1 0.263544 0.736457 0.250000
O O2 0.105361 0.652686 0.317268
O O3 0.120441 0.597947 0.169154
O O4 0.143818 0.752117 0.180076
O O5 0.812398 0.364074 0.393119
O O6 0.809588 0.504702 0.395239
O O7 0.889661 0.478746 0.525057
O O8 0.967838 0.511717 0.382620
O O9 0.732718 0.267283 0.250000
O O10 0.746476 0.148350 0.167814
O O11 0.265335 0.131300 0.916777
O O12 0.151891 0.151891 0.000000
O O13 0.267656 0.132713 0.083326
O O14 0.143173 0.000000 0.000000
O O15 0.729730 0.864865 0.750000
O O16 0.749061 0.750341 0.662647
O O17 0.746916 0.873458 0.250000
#
# Coordination Sequence:
#
# PCOD9584745 Si02
#       7
#    12  12  12  12  12  12  12
#     4  10  23  42  69  94 127 170 219 271 343 394
#     4  11  25  45  68  99 135 179 228 280 345 410
#     4  11  25  40  67  93 131 174 219 276 334 409
#     4  10  21  38  59  90 126 169 215 264 325 387
#     4  10  25  44  69  97 133 177 225 289 343 405
#     4  10  22  37  58  93 123 169 213 265 331 376
#     4  10  21  37  64  90 126 164 213 268 321 397
#
# _framework density 19.704398999999999
#
# number of rings (size 3 to 8) (size 9 to 14) (size 15 to 20)
#    0.000    1.714    0.000    2.571   12.000    1.143 
#    6.000    0.000    0.000    4.571    0.000    0.000 
#    0.000    0.000    0.000    0.000    0.000    0.000 
#
# Total GULP energy -468779.514842 kJ/mol
# GULP energy per Si atom -5580.708510 kJ/mol
# Density = 1.965955 g / cm^3
# Si number density = 19.704399 Si / 1000 Ang^3
#
#
#
# Elastic Constant Matrix: (Units=GPa)
#
#
# Indices 1 2 3 4 5 6 
#
# 1 86.5616 21.6766 38.3242 0.0000 0.0000 0.0000
# 2 21.6766 86.5616 38.3242 0.0000 0.0000 0.0000
# 3 38.3242 38.3242 149.3527 0.0000 0.0000 0.0000
# 4 0.0000 0.0000 0.0000 28.0259 0.0000 0.0000
# 5 0.0000 0.0000 0.0000 0.0000 28.0259 0.0000
# 6 0.0000 0.0000 0.0000 0.0000 0.0000 32.4425
#
#
#
# Elastic Compliance Matrix: (Units=1/GPa)
#
#
# Indices 1 2 3 4 5 6 
#
# 1 0.013351 -0.002061 -0.002897 0.000000 0.000000 0.000000
# 2 -0.002061 0.013351 -0.002897 0.000000 0.000000 0.000000
# 3 -0.002897 -0.002897 0.008182 0.000000 0.000000 0.000000
# 4 0.000000 0.000000 0.000000 0.035681 0.000000 0.000000
# 5 0.000000 0.000000 0.000000 0.000000 0.035681 0.000000
# 6 0.000000 0.000000 0.000000 0.000000 0.000000 0.030824
#
#
# Mechanical properties :
#
#
# Convention : Reuss Voigt Hill
#
# Bulk Modulus (GPa) = 52.15193 57.68063 54.91628
# Shear Modulus (GPa) = 31.41242 32.64226 32.02734
#
# Velocity S-wave (km/s) = 3.99705 4.07455 4.03599
# Velocity P-wave (km/s) = 6.91567 7.17443 7.04624
#
# Compressibility (1/GPa) = 0.01917474
#
# Stress axis : x y z
#
# Youngs Moduli (GPa) = 74.89966 74.89966 122.21362
#
# Poissons Ratio (x) = 0.15435 0.35407
# Poissons Ratio (y) = 0.15435 0.35407
# Poissons Ratio (z) = 0.21700 0.21700
#
# Static dielectric constant tensor:
#      x y z
#    x 1.724420 0.000000 0.000000 
#    y 0.000000 1.724420 0.000000 
#    z 0.000000 0.000000 1.697220 
# 
# From -- ./inp_files/3724.got.cif
#   From: 2010.05.17/outbox.cif.g08.bks.cpg/sg182_2_cif.got.tgz:3724.got - 2010.05.20 11:58:53.
