data_PCOD9584769
_publ_section_title
;
Structure prediction by ZEFSAII (Michael W. Deem and Ramdas Pophale) SiO2 
 PCOD9584769
Probable space group: P 63 2 2
;
_chemical_formula_sum "Si O2"
_cell_formula_units_Z 96
_cell_length_a 14.505964
_cell_length_b 14.505964
_cell_length_c 26.810712
_cell_angle_alpha 90.000000
_cell_angle_beta 90.000000
_cell_angle_gamma 120.000000
_cell_volume 4885.760453
_symmetry_space_group_name_H-M "P 63 2 2"
_symmetry_group_IT_number 182
_symmetry_cell_setting 'hexagonal'
loop_
_space_group_symop_operation_xyz
x,y,z
x-y,x,1/2+z
-y,x-y,z
-x,-y,1/2+z
-x+y,-x,z
y,-x+y,1/2+z
x-y,-y,-z
-x,-x+y,-z
y,x,-z
-y,-x,1/2-z
-x+y,y,1/2-z
x,x-y,1/2-z
loop_
_atom_site_type_symbol
_atom_site_label
_atom_site_fract_x
_atom_site_fract_y
_atom_site_fract_z
Si Si1 0.604112 0.931745 0.383085
Si Si2 0.449768 0.260449 0.168274
Si Si3 0.396326 0.242755 0.436123
Si Si4 0.781334 0.322986 0.967484
Si Si5 0.498086 0.416423 0.303059
Si Si6 0.825493 0.927213 0.537525
Si Si7 0.859052 0.076719 0.194120
Si Si8 0.941159 0.134572 0.865211
O O1 0.511516 0.845958 0.417478
O O2 0.680703 0.882076 0.372506
O O3 0.678473 0.035038 0.416541
O O4 0.574426 0.983657 0.336300
O O5 0.452972 0.228758 0.110942
O O6 0.531580 0.384380 0.173168
O O7 0.465386 0.173696 0.200072
O O8 0.333940 0.240166 0.185362
O O9 0.467360 0.296576 0.484343
O O10 0.290228 0.127526 0.445628
O O11 0.770427 0.428177 0.969170
O O12 0.523362 0.476639 0.250000
O O13 0.884297 0.884297 0.500000
O O14 0.803058 0.000000 0.500000
O O15 0.882894 0.006954 0.584409
O O16 0.903152 0.096849 0.250000
O O17 0.954740 0.171842 0.164536
O O18 0.842506 0.969993 0.167547
#
# Coordination Sequence:
#
# PCOD9584769 Si02
#       8
#    12  12  12  12  12  12  12  12
#     4  10  22  44  66  90 134 171 217 276 337 393
#     4  11  24  40  68 101 137 163 223 277 338 416
#     4  10  21  42  61  93 125 172 205 270 340 392
#     4  10  24  41  67  89 122 164 222 272 329 406
#     4  11  22  40  68  98 133 173 212 277 344 400
#     4  11  21  36  59  87 126 169 213 260 315 390
#     4  12  23  42  64  97 133 178 226 266 326 402
#     4  11  23  41  64  91 134 177 217 272 323 388
#
# _framework density 19.648937
#
# number of rings (size 3 to 8) (size 9 to 14) (size 15 to 20)
#    0.250    1.000    3.750    4.750    3.500    1.000 
#    2.250    0.000    0.000    0.000    0.000    0.000 
#    0.000    0.000    0.000    0.000    0.000    0.000 
#
# Total GULP energy -534522.708721 kJ/mol
# GULP energy per Si atom -5567.944883 kJ/mol
# Density = 1.960422 g / cm^3
# Si number density = 19.648937 Si / 1000 Ang^3
#
#
#
# Elastic Constant Matrix: (Units=GPa)
#
#
# Indices 1 2 3 4 5 6 
#
# 1 76.9887 28.8279 45.8620 0.0000 0.0000 0.0000
# 2 28.8279 76.9887 45.8620 0.0000 0.0000 0.0000
# 3 45.8620 45.8620 145.2365 0.0000 0.0000 0.0000
# 4 0.0000 0.0000 0.0000 29.1850 0.0000 0.0000
# 5 0.0000 0.0000 0.0000 0.0000 29.1850 0.0000
# 6 0.0000 0.0000 0.0000 0.0000 0.0000 24.0804
#
#
#
# Elastic Compliance Matrix: (Units=1/GPa)
#
#
# Indices 1 2 3 4 5 6 
#
# 1 0.016888 -0.003876 -0.004109 0.000000 0.000000 0.000000
# 2 -0.003876 0.016888 -0.004109 0.000000 0.000000 0.000000
# 3 -0.004109 -0.004109 0.009480 0.000000 0.000000 0.000000
# 4 0.000000 0.000000 0.000000 0.034264 0.000000 0.000000
# 5 0.000000 0.000000 0.000000 0.000000 0.034264 0.000000
# 6 0.000000 0.000000 0.000000 0.000000 0.000000 0.041528
#
#
# Mechanical properties :
#
#
# Convention : Reuss Voigt Hill
#
# Bulk Modulus (GPa) = 52.44178 60.03533 56.23856
# Shear Modulus (GPa) = 27.19527 28.40086 27.79806
#
# Velocity S-wave (km/s) = 3.72433 3.80599 3.76538
# Velocity P-wave (km/s) = 6.72618 7.06642 6.89840
#
# Compressibility (1/GPa) = 0.01906876
#
# Stress axis : x y z
#
# Youngs Moduli (GPa) = 59.21414 59.21414 105.48232
#
# Poissons Ratio (x) = 0.22951 0.43341
# Poissons Ratio (y) = 0.22951 0.43341
# Poissons Ratio (z) = 0.24330 0.24330
#
# Static dielectric constant tensor:
#      x y z
#    x 1.728140 0.000000 0.000000 
#    y 0.000000 1.728140 0.000000 
#    z 0.000000 0.000000 1.791410 
# 
# From -- ./inp_files/5579.got.cif
#   From: 2010.05.17/outbox.cif.g08.bks.cpg/sg182_3_cif.got.tgz:5579.got - 2010.05.20 11:58:53.
