data_PCOD9584515
_publ_section_title
;
Structure prediction by ZEFSAII (Michael W. Deem and Ramdas Pophale) SiO2 
 PCOD9584515
Probable space group: P 64 2 2
;
_chemical_formula_sum "Si O2"
_cell_formula_units_Z 66
_cell_length_a 11.773497
_cell_length_b 11.773497
_cell_length_c 28.874109
_cell_angle_alpha 90.000000
_cell_angle_beta 90.000000
_cell_angle_gamma 120.000000
_cell_volume 3466.172547
_symmetry_space_group_name_H-M "P 64 2 2"
_symmetry_group_IT_number 181
_symmetry_cell_setting 'hexagonal'
loop_
_space_group_symop_operation_xyz
x,y,z
x-y,x,2/3+z
-y,x-y,1/3+z
-x,-y,z
-x+y,-x,2/3+z
y,-x+y,1/3+z
x-y,-y,-z
-x,-x+y,2/3-z
y,x,1/3-z
-y,-x,1/3-z
-x+y,y,-z
x,x-y,2/3-z
loop_
_atom_site_type_symbol
_atom_site_label
_atom_site_fract_x
_atom_site_fract_y
_atom_site_fract_z
Si Si1 0.871283 0.152319 0.854892
Si Si2 0.684613 0.192692 0.617326
Si Si3 0.000000 0.000000 0.429760
Si Si4 0.008396 0.789925 0.030159
Si Si5 0.077414 0.655841 0.557237
Si Si6 0.388862 0.279087 0.052194
O O1 0.752912 0.087438 0.818017
O O2 0.832552 0.196122 0.901679
O O3 0.000000 0.277995 0.833334
O O4 0.935268 0.067291 0.873537
O O5 0.751414 0.248587 0.666667
O O6 0.774537 0.288049 0.576339
O O7 0.542387 0.176100 0.621513
O O8 0.663425 0.046977 0.608410
O O9 0.095431 0.119371 0.396816
O O10 0.986699 0.673528 0.064844
O O11 0.114858 0.806282 0.992148
O O12 0.883398 0.766796 0.000000
O O13 0.000000 0.500000 0.546982
#
# Coordination Sequence:
#
# PCOD9584515 Si02
#       6
#    12  12   6  12  12  12
#     4  12  23  42  61  94 127 172 219 269 335 398
#     4  11  20  38  62  94 124 170 216 273 333 391
#     4  12  24  38  70  96 134 164 224 290 330 400
#     4  12  20  37  64 103 125 161 217 277 340 386
#     4  12  24  41  65  94 135 173 221 278 335 411
#     4  11  22  36  64  93 129 163 217 275 325 403
#
# _framework density 19.041174999999999
#
# number of rings (size 3 to 8) (size 9 to 14) (size 15 to 20)
#    0.000    0.364    9.091    1.636    0.000    0.727 
#    0.000    5.455    0.000    0.000    0.000    0.000 
#    0.000    0.000    0.000    0.000    0.000    0.000 
#
# Total GULP energy -367934.402164 kJ/mol
# GULP energy per Si atom -5574.763669 kJ/mol
# Density = 1.899784 g / cm^3
# Si number density = 19.041175 Si / 1000 Ang^3
#
#
#
# Elastic Constant Matrix: (Units=GPa)
#
#
# Indices 1 2 3 4 5 6 
#
# 1 69.2590 21.7830 42.2825 0.0000 0.0000 0.0000
# 2 21.7830 69.2590 42.2825 0.0000 0.0000 0.0000
# 3 42.2825 42.2825 147.4307 0.0000 0.0000 0.0000
# 4 0.0000 0.0000 0.0000 25.6281 0.0000 0.0000
# 5 0.0000 0.0000 0.0000 0.0000 25.6281 0.0000
# 6 0.0000 0.0000 0.0000 0.0000 0.0000 23.7380
#
#
#
# Elastic Compliance Matrix: (Units=1/GPa)
#
#
# Indices 1 2 3 4 5 6 
#
# 1 0.018018 -0.003045 -0.004294 0.000000 0.000000 0.000000
# 2 -0.003045 0.018018 -0.004294 0.000000 0.000000 0.000000
# 3 -0.004294 -0.004294 0.009246 0.000000 0.000000 0.000000
# 4 0.000000 0.000000 0.000000 0.039020 0.000000 0.000000
# 5 0.000000 0.000000 0.000000 0.000000 0.039020 0.000000
# 6 0.000000 0.000000 0.000000 0.000000 0.000000 0.042127
#
#
# Mechanical properties :
#
#
# Convention : Reuss Voigt Hill
#
# Bulk Modulus (GPa) = 45.42427 55.40500 50.41463
# Shear Modulus (GPa) = 25.50336 26.97224 26.23780
#
# Velocity S-wave (km/s) = 3.66372 3.76775 3.71610
# Velocity P-wave (km/s) = 6.46566 6.93459 6.70423
#
# Compressibility (1/GPa) = 0.02201466
#
# Stress axis : x y z
#
# Youngs Moduli (GPa) = 55.50042 55.50042 108.15627
#
# Poissons Ratio (x) = 0.16902 0.46443
# Poissons Ratio (y) = 0.16902 0.46443
# Poissons Ratio (z) = 0.23832 0.23832
#
# Static dielectric constant tensor:
#      x y z
#    x 1.695780 0.000000 0.000000 
#    y 0.000000 1.695780 0.000000 
#    z 0.000000 0.000000 1.712570 
# 
# From -- ./inp_files/12285.got.cif
#   From: 2010.05.17/outbox.cif.g08.bks.cpg/sg181_7_cif.got.tgz:12285.got - 2010.05.20 11:51:17.
