data_PCOD9584796
_publ_section_title
;
Structure prediction by ZEFSAII (Michael W. Deem and Ramdas Pophale) SiO2 
 PCOD9584796
Probable space group: P 63 2 2
;
_chemical_formula_sum "Si O2"
_cell_formula_units_Z 58
_cell_length_a 15.204776
_cell_length_b 15.204776
_cell_length_c 13.143310
_cell_angle_alpha 90.000000
_cell_angle_beta 90.000000
_cell_angle_gamma 120.000000
_cell_volume 2631.451899
_symmetry_space_group_name_H-M "P 63 2 2"
_symmetry_group_IT_number 182
_symmetry_cell_setting 'hexagonal'
loop_
_space_group_symop_operation_xyz
x,y,z
x-y,x,1/2+z
-y,x-y,z
-x,-y,1/2+z
-x+y,-x,z
y,-x+y,1/2+z
x-y,-y,-z
-x,-x+y,-z
y,x,-z
-y,-x,1/2-z
-x+y,y,1/2-z
x,x-y,1/2-z
loop_
_atom_site_type_symbol
_atom_site_label
_atom_site_fract_x
_atom_site_fract_y
_atom_site_fract_z
Si Si1 0.856475 0.767509 0.367599
Si Si2 0.000000 0.000000 0.372455
Si Si3 0.568859 0.790914 0.981665
Si Si4 0.435352 0.880259 0.012207
Si Si5 0.448055 0.551946 0.250000
Si Si6 0.255848 0.352420 0.183669
O O1 0.879036 0.758072 0.250000
O O2 0.852347 0.676570 0.431458
O O3 0.741451 0.745421 0.371098
O O4 0.935596 0.881539 0.401415
O O5 0.000000 0.000000 0.250000
O O6 0.513583 0.854717 0.955467
O O7 0.492994 0.674049 0.962834
O O8 0.586506 0.816504 0.100856
O O9 0.420181 0.852201 0.133798
O O10 0.480466 0.000000 0.000000
O O11 0.364972 0.429020 0.236423
O O12 0.153569 0.307137 0.250000
#
# Coordination Sequence:
#
# PCOD9584796 Si02
#       6
#    12   4  12  12   6  12
#     4  11  24  43  69 100 143 187 233 289 351 424
#     4   9  21  45  70 101 137 185 247 294 343 422
#     4  11  24  44  65 101 137 179 230 291 345 415
#     4  11  24  42  68  99 136 173 230 283 343 414
#     4  10  22  40  66  98 126 174 220 288 340 396
#     4  11  21  41  66  98 133 175 230 290 348 412
#
# _framework density 22.041065
#
# number of rings (size 3 to 8) (size 9 to 14) (size 15 to 20)
#    0.000    1.241    2.069    5.379    2.897    1.655 
#    0.621    5.172    0.000    0.000    0.000    0.000 
#    0.000    0.000    0.000    0.000    0.000    0.000 
#
# Total GULP energy -322974.004710 kJ/mol
# GULP energy per Si atom -5568.517323 kJ/mol
# Density = 2.199090 g / cm^3
# Si number density = 22.041065 Si / 1000 Ang^3
#
#
#
# Elastic Constant Matrix: (Units=GPa)
#
#
# Indices 1 2 3 4 5 6 
#
# 1 50.3221 27.4439 26.0931 0.0000 0.0000 0.0000
# 2 27.4439 50.3221 26.0931 0.0000 0.0000 0.0000
# 3 26.0931 26.0931 62.5812 0.0000 0.0000 0.0000
# 4 0.0000 0.0000 0.0000 22.1651 0.0000 0.0000
# 5 0.0000 0.0000 0.0000 0.0000 22.1651 0.0000
# 6 0.0000 0.0000 0.0000 0.0000 0.0000 11.4391
#
#
#
# Elastic Compliance Matrix: (Units=1/GPa)
#
#
# Indices 1 2 3 4 5 6 
#
# 1 0.030782 -0.012927 -0.007445 0.000000 0.000000 0.000000
# 2 -0.012927 0.030782 -0.007445 0.000000 0.000000 0.000000
# 3 -0.007445 -0.007445 0.022187 0.000000 0.000000 0.000000
# 4 0.000000 0.000000 0.000000 0.045116 0.000000 0.000000
# 5 0.000000 0.000000 0.000000 0.000000 0.045116 0.000000
# 6 0.000000 0.000000 0.000000 0.000000 0.000000 0.087419
#
#
# Mechanical properties :
#
#
# Convention : Reuss Voigt Hill
#
# Bulk Modulus (GPa) = 35.56345 35.83174 35.69759
# Shear Modulus (GPa) = 15.31822 16.72691 16.02256
#
# Velocity S-wave (km/s) = 2.63912 2.75780 2.69911
# Velocity P-wave (km/s) = 5.04546 5.14127 5.09359
#
# Compressibility (1/GPa) = 0.02811876
#
# Stress axis : x y z
#
# Youngs Moduli (GPa) = 32.48623 32.48623 45.07103
#
# Poissons Ratio (x) = 0.41996 0.33553
# Poissons Ratio (y) = 0.41996 0.33553
# Poissons Ratio (z) = 0.24185 0.24185
#
# Static dielectric constant tensor:
#      x y z
#    x 1.790170 0.000000 0.000000 
#    y 0.000000 1.790170 0.000000 
#    z 0.000000 0.000000 1.838030 
# 
# From -- ./inp_files/3495.got.cif
#   From: 2010.05.17/outbox.cif.g08.bks.cpg/sg182_2_cif.got.tgz:3495.got - 2010.05.20 11:58:53.
