data_PCOD9584382
_publ_section_title
;
Structure prediction by ZEFSAII (Michael W. Deem and Ramdas Pophale) SiO2 
 PCOD9584382
Probable space group: P 64 2 2
;
_chemical_formula_sum "Si O2"
_cell_formula_units_Z 75
_cell_length_a 14.427626
_cell_length_b 14.427626
_cell_length_c 20.283108
_cell_angle_alpha 90.000000
_cell_angle_beta 90.000000
_cell_angle_gamma 120.000000
_cell_volume 3656.409986
_symmetry_space_group_name_H-M "P 64 2 2"
_symmetry_group_IT_number 181
_symmetry_cell_setting 'hexagonal'
loop_
_space_group_symop_operation_xyz
x,y,z
x-y,x,2/3+z
-y,x-y,1/3+z
-x,-y,z
-x+y,-x,2/3+z
y,-x+y,1/3+z
x-y,-y,-z
-x,-x+y,2/3-z
y,x,1/3-z
-y,-x,1/3-z
-x+y,y,-z
x,x-y,2/3-z
loop_
_atom_site_type_symbol
_atom_site_label
_atom_site_fract_x
_atom_site_fract_y
_atom_site_fract_z
Si Si1 0.992113 0.142141 0.556923
Si Si2 0.878764 0.611914 0.557800
Si Si3 0.242965 0.242965 0.166667
Si Si4 0.805349 0.498882 0.060119
Si Si5 0.000000 0.500000 0.097517
Si Si6 0.310085 0.827904 0.476861
Si Si7 0.729796 0.267008 0.001861
Si Si8 0.000000 0.000000 0.000000
O O1 0.065675 0.131349 0.500000
O O2 0.027374 0.265872 0.563766
O O3 0.021618 0.098648 0.621070
O O4 0.865099 0.070881 0.542657
O O5 0.805146 0.610291 0.500000
O O6 0.805328 0.569608 0.623437
O O7 0.921383 0.532085 0.534616
O O8 0.357767 0.275089 0.134556
O O9 0.929137 0.535064 0.056007
O O10 0.763866 0.514044 0.130355
O O11 0.752545 0.373040 0.043157
O O12 0.774822 0.549645 0.000000
O O13 0.432236 0.864472 0.500000
O O14 0.292359 0.771146 0.406278
O O15 0.600063 0.200125 0.000000
#
# Coordination Sequence:
#
# PCOD9584382 Si02
#       8
#    12  12   6  12   6  12  12   3
#     4  11  24  49  69 103 132 179 233 297 347 410
#     4  10  24  43  71  99 136 179 234 274 344 409
#     4  12  26  44  68 104 138 174 234 290 360 408
#     4  10  21  40  63  90 133 181 220 269 332 407
#     4  10  22  40  64 102 130 174 218 280 322 416
#     4  12  24  42  64  98 144 181 215 284 343 422
#     4  10  22  39  66  96 134 182 224 267 333 409
#     4  12  22  44  84  86 138 172 226 300 352 392
#
# _framework density 20.511925000000002
#
# number of rings (size 3 to 8) (size 9 to 14) (size 15 to 20)
#    0.000    1.280    4.800    1.200    6.720    2.560 
#    2.880    0.000    0.000    0.960    0.000    0.000 
#    0.000    0.000    0.000    0.000    0.000    0.000 
#
# Total GULP energy -417601.078605 kJ/mol
# GULP energy per Si atom -5568.014381 kJ/mol
# Density = 2.046524 g / cm^3
# Si number density = 20.511925 Si / 1000 Ang^3
#
#
#
# Elastic Constant Matrix: (Units=GPa)
#
#
# Indices 1 2 3 4 5 6 
#
# 1 120.2297 58.4928 49.0773 0.0000 0.0000 0.0000
# 2 58.4928 120.2297 49.0773 0.0000 0.0000 0.0000
# 3 49.0773 49.0773 127.5649 0.0000 0.0000 0.0000
# 4 0.0000 0.0000 0.0000 -1.6661 0.0000 0.0000
# 5 0.0000 0.0000 0.0000 0.0000 -1.6661 0.0000
# 6 0.0000 0.0000 0.0000 0.0000 0.0000 30.8685
#
#
#
# Elastic Compliance Matrix: (Units=1/GPa)
#
#
# Indices 1 2 3 4 5 6 
#
# 1 0.011646 -0.004552 -0.002729 0.000000 0.000000 0.000000
# 2 -0.004552 0.011646 -0.002729 0.000000 0.000000 0.000000
# 3 -0.002729 -0.002729 0.009939 0.000000 0.000000 0.000000
# 4 0.000000 0.000000 0.000000 -0.600193 0.000000 0.000000
# 5 0.000000 0.000000 0.000000 0.000000 -0.600193 0.000000
# 6 0.000000 0.000000 0.000000 0.000000 0.000000 0.032396
#
#
# Mechanical properties :
#
#
# Convention : Reuss Voigt Hill
#
# Bulk Modulus (GPa) = 75.69806 75.70211 75.70008
# Shear Modulus (GPa) = -4.50315 19.59904 7.54795
#
# Velocity S-wave (km/s) = -1.48329 3.09446 1.92036
# Velocity P-wave (km/s) = 5.83532 7.05366 6.47322
#
# Compressibility (1/GPa) = 0.01321038
#
# Stress axis : x y z
#
# Youngs Moduli (GPa) = 85.86651 85.86651 100.61166
#
# Poissons Ratio (x) = 0.39085 0.27460
# Poissons Ratio (y) = 0.39085 0.27460
# Poissons Ratio (z) = 0.23436 0.23436
#
# Static dielectric constant tensor:
#      x y z
#    x 1.863720 0.000000 0.000000 
#    y 0.000000 1.863720 0.000000 
#    z 0.000000 0.000000 1.708360 
# 
# From -- ./inp_files/9133.got.cif
#   From: 2010.05.17/outbox.cif.g08.bks.cpg/sg181_5_cif.got.tgz:9133.got - 2010.05.20 11:51:17.
