data_PCOD9584764
_publ_section_title
;
Structure prediction by ZEFSAII (Michael W. Deem and Ramdas Pophale) SiO2 
 PCOD9584764
Probable space group: P 63 2 2
;
_chemical_formula_sum "Si O2"
_cell_formula_units_Z 36
_cell_length_a 8.324765
_cell_length_b 8.324765
_cell_length_c 29.876131
_cell_angle_alpha 90.000000
_cell_angle_beta 90.000000
_cell_angle_gamma 120.000000
_cell_volume 1793.077050
_symmetry_space_group_name_H-M "P 63 2 2"
_symmetry_group_IT_number 182
_symmetry_cell_setting 'hexagonal'
loop_
_space_group_symop_operation_xyz
x,y,z
x-y,x,1/2+z
-y,x-y,z
-x,-y,1/2+z
-x+y,-x,z
y,-x+y,1/2+z
x-y,-y,-z
-x,-x+y,-z
y,x,-z
-y,-x,1/2-z
-x+y,y,1/2-z
x,x-y,1/2-z
loop_
_atom_site_type_symbol
_atom_site_label
_atom_site_fract_x
_atom_site_fract_y
_atom_site_fract_z
Si Si1 0.666249 0.667145 0.230180
Si Si2 0.660803 0.542389 0.132521
Si Si3 0.538040 0.884872 0.455489
O O1 0.464151 0.535850 0.250000
O O2 0.797355 0.594709 0.250000
O O3 0.661982 0.649552 0.176892
O O4 0.737514 0.868757 0.250000
O O5 0.491043 0.327761 0.133392
O O6 0.639808 0.635425 0.087986
O O7 0.320879 0.832892 0.455145
O O8 0.632466 0.000000 0.500000
#
# Coordination Sequence:
#
# PCOD9584764 Si02
#       3
#    12  12  12
#     4  12  24  42  63  95 134 180 228 282 344 412
#     4  10  21  40  66  88 127 171 218 276 345 390
#     4  10  22  37  64  95 124 164 219 268 332 408
#
# _framework density 20.077216
#
# number of rings (size 3 to 8) (size 9 to 14) (size 15 to 20)
#    1.333    0.000    3.333    3.000    4.667    0.000 
#    0.000    0.000    0.000   12.000    0.000    0.000 
#    0.000    0.000    0.000    0.000    0.000    0.000 
#
# Total GULP energy -200747.266876 kJ/mol
# GULP energy per Si atom -5576.312969 kJ/mol
# Density = 2.003152 g / cm^3
# Si number density = 20.077216 Si / 1000 Ang^3
#
#
#
# Elastic Constant Matrix: (Units=GPa)
#
#
# Indices 1 2 3 4 5 6 
#
# 1 48.6895 7.8212 32.2692 0.0000 0.0000 0.0000
# 2 7.8212 48.6895 32.2692 0.0000 0.0000 0.0000
# 3 32.2692 32.2692 221.9721 0.0000 0.0000 0.0000
# 4 0.0000 0.0000 0.0000 57.5791 0.0000 0.0000
# 5 0.0000 0.0000 0.0000 0.0000 57.5791 0.0000
# 6 0.0000 0.0000 0.0000 0.0000 0.0000 20.4341
#
#
#
# Elastic Compliance Matrix: (Units=1/GPa)
#
#
# Indices 1 2 3 4 5 6 
#
# 1 0.022844 -0.001625 -0.003085 0.000000 0.000000 0.000000
# 2 -0.001625 0.022844 -0.003085 0.000000 0.000000 0.000000
# 3 -0.003085 -0.003085 0.005402 0.000000 0.000000 0.000000
# 4 0.000000 0.000000 0.000000 0.017367 0.000000 0.000000
# 5 0.000000 0.000000 0.000000 0.000000 0.017367 0.000000
# 6 0.000000 0.000000 0.000000 0.000000 0.000000 0.048938
#
#
# Mechanical properties :
#
#
# Convention : Reuss Voigt Hill
#
# Bulk Modulus (GPa) = 28.16858 51.56338 39.86598
# Shear Modulus (GPa) = 30.82910 43.58456 37.20683
#
# Velocity S-wave (km/s) = 3.92283 4.66429 4.30954
# Velocity P-wave (km/s) = 5.88037 7.39904 6.68298
#
# Compressibility (1/GPa) = 0.03550055
#
# Stress axis : x y z
#
# Youngs Moduli (GPa) = 43.77565 43.77565 185.11880
#
# Poissons Ratio (x) = 0.07114 0.57103
# Poissons Ratio (y) = 0.07114 0.57103
# Poissons Ratio (z) = 0.13503 0.13503
#
# Static dielectric constant tensor:
#      x y z
#    x 1.635720 0.000000 0.000000 
#    y 0.000000 1.635720 0.000000 
#    z 0.000000 0.000000 1.655380 
# 
# From -- ./inp_files/5380.got.cif
#   From: 2010.05.17/outbox.cif.g08.bks.cpg/sg182_3_cif.got.tgz:5380.got - 2010.05.20 11:58:53.
