data_PCOD9584523
_publ_section_title
;
Structure prediction by ZEFSAII (Michael W. Deem and Ramdas Pophale) SiO2 
 PCOD9584523
Probable space group: P 64 2 2
;
_chemical_formula_sum "Si O2"
_cell_formula_units_Z 45
_cell_length_a 10.817718
_cell_length_b 10.817718
_cell_length_c 20.095617
_cell_angle_alpha 90.000000
_cell_angle_beta 90.000000
_cell_angle_gamma 120.000000
_cell_volume 2036.588507
_symmetry_space_group_name_H-M "P 64 2 2"
_symmetry_group_IT_number 181
_symmetry_cell_setting 'hexagonal'
loop_
_space_group_symop_operation_xyz
x,y,z
x-y,x,2/3+z
-y,x-y,1/3+z
-x,-y,z
-x+y,-x,2/3+z
y,-x+y,1/3+z
x-y,-y,-z
-x,-x+y,2/3-z
y,x,1/3-z
-y,-x,1/3-z
-x+y,y,-z
x,x-y,2/3-z
loop_
_atom_site_type_symbol
_atom_site_label
_atom_site_fract_x
_atom_site_fract_y
_atom_site_fract_z
Si Si1 0.162506 0.745328 0.327496
Si Si2 0.745018 0.400856 0.222924
Si Si3 0.000000 0.000000 0.166667
Si Si4 0.500000 0.500000 0.459567
Si Si5 0.036256 0.246059 0.063882
O O1 0.260016 0.709056 0.278992
O O2 0.223003 0.760970 0.401385
O O3 0.000000 0.620631 0.333334
O O4 0.158239 0.877979 0.298784
O O5 0.629612 0.370389 0.166667
O O6 0.870502 0.411768 0.176440
O O7 0.959281 0.859485 0.120386
O O8 0.607360 0.649287 0.422541
O O9 0.138156 0.276311 0.000000
#
# Coordination Sequence:
#
# PCOD9584523 Si02
#       5
#    12  12   3   6  12
#     4  11  21  39  68 101 139 183 253 319 380 458
#     4  11  21  38  66 100 129 191 250 306 366 470
#     4  12  26  52  84 120 148 206 274 342 404 478
#     4  12  24  43  68  99 150 196 240 308 402 472
#     4  12  28  45  75 110 156 193 255 333 404 474
#
# _framework density 22.095773999999999
#
# number of rings (size 3 to 8) (size 9 to 14) (size 15 to 20)
#    0.000    0.533    5.333    4.400    3.733    2.133 
#    0.000    0.000    0.000    0.000    0.000    0.000 
#    0.000    0.000    0.000    0.000    0.000    0.000 
#
# Total GULP energy -250583.504222 kJ/mol
# GULP energy per Si atom -5568.522316 kJ/mol
# Density = 2.204548 g / cm^3
# Si number density = 22.095774 Si / 1000 Ang^3
#
#
#
# Elastic Constant Matrix: (Units=GPa)
#
#
# Indices 1 2 3 4 5 6 
#
# 1 92.1448 39.5795 71.6798 0.0000 0.0000 0.0000
# 2 39.5795 92.1448 71.6798 0.0000 0.0000 0.0000
# 3 71.6798 71.6798 191.5430 0.0000 0.0000 0.0000
# 4 0.0000 0.0000 0.0000 44.5435 0.0000 0.0000
# 5 0.0000 0.0000 0.0000 0.0000 44.5435 0.0000
# 6 0.0000 0.0000 0.0000 0.0000 0.0000 26.2827
#
#
#
# Elastic Compliance Matrix: (Units=1/GPa)
#
#
# Indices 1 2 3 4 5 6 
#
# 1 0.015916 -0.003108 -0.004793 0.000000 0.000000 0.000000
# 2 -0.003108 0.015916 -0.004793 0.000000 0.000000 0.000000
# 3 -0.004793 -0.004793 0.008808 0.000000 0.000000 0.000000
# 4 0.000000 0.000000 0.000000 0.022450 0.000000 0.000000
# 5 0.000000 0.000000 0.000000 0.000000 0.022450 0.000000
# 6 0.000000 0.000000 0.000000 0.000000 0.000000 0.038048
#
#
# Mechanical properties :
#
#
# Convention : Reuss Voigt Hill
#
# Bulk Modulus (GPa) = 65.56541 82.41232 73.98886
# Shear Modulus (GPa) = 32.45488 35.93352 34.19420
#
# Velocity S-wave (km/s) = 3.83669 4.03707 3.93815
# Velocity P-wave (km/s) = 7.02599 7.68826 7.36457
#
# Compressibility (1/GPa) = 0.01525195
#
# Stress axis : x y z
#
# Youngs Moduli (GPa) = 62.82987 62.82987 113.53177
#
# Poissons Ratio (x) = 0.19527 0.54417
# Poissons Ratio (y) = 0.19527 0.54417
# Poissons Ratio (z) = 0.30115 0.30115
#
# Static dielectric constant tensor:
#      x y z
#    x 2.007630 0.000000 0.000000 
#    y 0.000000 2.007630 0.000000 
#    z 0.000000 0.000000 1.833980 
# 
# From -- ./inp_files/7378.got.cif
#   From: 2010.05.17/outbox.cif.g08.bks.cpg/sg181_4_cif.got.tgz:7378.got - 2010.05.20 11:51:17.
