data_PCOD9584293
_publ_section_title
;
Structure prediction by ZEFSAII (Michael W. Deem and Ramdas Pophale) SiO2 
 PCOD9584293
Probable space group: P 64 2 2
;
_chemical_formula_sum "Si O2"
_cell_formula_units_Z 60
_cell_length_a 11.437022
_cell_length_b 11.437022
_cell_length_c 31.771292
_cell_angle_alpha 90.000000
_cell_angle_beta 90.000000
_cell_angle_gamma 120.000000
_cell_volume 3599.079342
_symmetry_space_group_name_H-M "P 64 2 2"
_symmetry_group_IT_number 181
_symmetry_cell_setting 'hexagonal'
loop_
_space_group_symop_operation_xyz
x,y,z
x-y,x,2/3+z
-y,x-y,1/3+z
-x,-y,z
-x+y,-x,2/3+z
y,-x+y,1/3+z
x-y,-y,-z
-x,-x+y,2/3-z
y,x,1/3-z
-y,-x,1/3-z
-x+y,y,-z
x,x-y,2/3-z
loop_
_atom_site_type_symbol
_atom_site_label
_atom_site_fract_x
_atom_site_fract_y
_atom_site_fract_z
Si Si1 0.442707 0.279945 0.120541
Si Si2 0.431859 0.147372 0.447507
Si Si3 0.715381 0.611463 0.965763
Si Si4 0.526908 0.377000 0.611332
Si Si5 0.503001 0.806037 0.691369
O O1 0.333132 0.322446 0.107461
O O2 0.584086 0.418385 0.111028
O O3 0.424895 0.246897 0.170037
O O4 0.447703 0.164100 0.094434
O O5 0.407019 0.233400 0.412853
O O6 0.607454 0.460111 0.981828
O O7 0.639022 0.696689 0.964508
O O8 0.834054 0.668107 0.000000
O O9 0.500000 0.500000 0.618172
O O10 0.487578 0.272721 0.650490
O O11 0.689033 0.445744 0.606965
#
# Coordination Sequence:
#
# PCOD9584293 Si02
#       5
#    12  12  12  12  12
#     4   9  17  32  52  78 105 143 174 211 270 316
#     4   9  17  31  53  78 110 131 175 228 259 318
#     4  11  18  30  53  76 102 130 164 229 272 307
#     4  11  20  36  52  72 106 145 177 209 262 334
#     4  10  20  31  48  75 103 129 170 216 265 315
#
# _framework density 16.670929000000001
#
# number of rings (size 3 to 8) (size 9 to 14) (size 15 to 20)
#    0.000    2.000    4.000    3.600    0.000    3.200 
#    3.600    0.000    0.000    8.400    0.000    2.800 
#    0.000    0.000    0.000    0.000    0.000    0.000 
#
# Total GULP energy -334175.298578 kJ/mol
# GULP energy per Si atom -5569.588310 kJ/mol
# Density = 1.663299 g / cm^3
# Si number density = 16.670929 Si / 1000 Ang^3
#
#
#
# Elastic Constant Matrix: (Units=GPa)
#
#
# Indices 1 2 3 4 5 6 
#
# 1 93.3292 43.2049 53.6444 0.0000 0.0000 0.0000
# 2 43.2049 93.3292 53.6444 0.0000 0.0000 0.0000
# 3 53.6444 53.6444 84.0980 0.0000 0.0000 0.0000
# 4 0.0000 0.0000 0.0000 15.3868 0.0000 0.0000
# 5 0.0000 0.0000 0.0000 0.0000 15.3868 0.0000
# 6 0.0000 0.0000 0.0000 0.0000 0.0000 25.0621
#
#
#
# Elastic Compliance Matrix: (Units=1/GPa)
#
#
# Indices 1 2 3 4 5 6 
#
# 1 0.017318 -0.002633 -0.009367 0.000000 0.000000 0.000000
# 2 -0.002633 0.017318 -0.009367 0.000000 0.000000 0.000000
# 3 -0.009367 -0.009367 0.023841 0.000000 0.000000 0.000000
# 4 0.000000 0.000000 0.000000 0.064991 0.000000 0.000000
# 5 0.000000 0.000000 0.000000 0.000000 0.064991 0.000000
# 6 0.000000 0.000000 0.000000 0.000000 0.000000 0.039901
#
#
# Mechanical properties :
#
#
# Convention : Reuss Voigt Hill
#
# Bulk Modulus (GPa) = 63.52348 63.52707 63.52527
# Shear Modulus (GPa) = 18.09358 19.18464 18.63911
#
# Velocity S-wave (km/s) = 3.29802 3.39600 3.34737
# Velocity P-wave (km/s) = 7.25876 7.31890 7.28889
#
# Compressibility (1/GPa) = 0.01574221
#
# Stress axis : x y z
#
# Youngs Moduli (GPa) = 57.74438 57.74438 41.94411
#
# Poissons Ratio (x) = 0.15202 0.39290
# Poissons Ratio (y) = 0.15202 0.39290
# Poissons Ratio (z) = 0.54091 0.54091
#
# Static dielectric constant tensor:
#      x y z
#    x 1.570060 0.000000 0.000000 
#    y 0.000000 1.570060 0.000000 
#    z 0.000000 0.000000 1.591520 
# 
# From -- ./inp_files/12179.got.cif
#   From: 2010.05.17/outbox.cif.g08.bks.cpg/sg181_7_cif.got.tgz:12179.got - 2010.05.20 11:51:17.
