data_PCOD9584564
_publ_section_title
;
Structure prediction by ZEFSAII (Michael W. Deem and Ramdas Pophale) SiO2 
 PCOD9584564
Probable space group: P 64 2 2
;
_chemical_formula_sum "Si O2"
_cell_formula_units_Z 30
_cell_length_a 8.024328
_cell_length_b 8.024328
_cell_length_c 21.443359
_cell_angle_alpha 90.000000
_cell_angle_beta 90.000000
_cell_angle_gamma 120.000000
_cell_volume 1195.751111
_symmetry_space_group_name_H-M "P 64 2 2"
_symmetry_group_IT_number 181
_symmetry_cell_setting 'hexagonal'
loop_
_space_group_symop_operation_xyz
x,y,z
x-y,x,2/3+z
-y,x-y,1/3+z
-x,-y,z
-x+y,-x,2/3+z
y,-x+y,1/3+z
x-y,-y,-z
-x,-x+y,2/3-z
y,x,1/3-z
-y,-x,1/3-z
-x+y,y,-z
x,x-y,2/3-z
loop_
_atom_site_type_symbol
_atom_site_label
_atom_site_fract_x
_atom_site_fract_y
_atom_site_fract_z
Si Si1 0.000000 0.000000 0.000000
Si Si2 0.000000 0.500000 0.833334
Si Si3 0.267937 0.062577 0.898995
Si Si4 0.607624 0.292808 0.594676
O O1 0.174337 0.121198 0.954123
O O2 0.153481 0.505853 0.884276
O O3 0.200611 0.100306 0.833334
O O4 0.493704 0.203779 0.901715
O O5 0.227676 0.847568 0.916659
O O6 0.677372 0.322628 0.666667
#
# Coordination Sequence:
#
# PCOD9584564 Si02
#       4
#     3   3  12  12
#     4  12  22  38  72 110 140 202 270 318 424 512
#     4  12  28  48  74 106 148 216 270 310 436 494
#     4  11  23  43  74 106 149 198 256 333 408 490
#     4  11  24  51  70 104 160 201 258 350 408 482
#
# _framework density 25.088836000000001
#
# number of rings (size 3 to 8) (size 9 to 14) (size 15 to 20)
#    0.000    0.800    6.000    1.800    5.600    0.000 
#   10.800    0.000    0.000    0.000    0.000    0.000 
#    0.000    0.000    0.000    0.000    0.000    0.000 
#
# Total GULP energy -167346.249746 kJ/mol
# GULP energy per Si atom -5578.208325 kJ/mol
# Density = 2.503173 g / cm^3
# Si number density = 25.088836 Si / 1000 Ang^3
#
#
#
# Elastic Constant Matrix: (Units=GPa)
#
#
# Indices 1 2 3 4 5 6 
#
# 1 96.3164 56.6890 65.2683 0.0000 0.0000 0.0000
# 2 56.6890 96.3164 65.2683 0.0000 0.0000 0.0000
# 3 65.2683 65.2683 293.3092 0.0000 0.0000 0.0000
# 4 0.0000 0.0000 0.0000 9.6177 0.0000 0.0000
# 5 0.0000 0.0000 0.0000 0.0000 9.6177 0.0000
# 6 0.0000 0.0000 0.0000 0.0000 0.0000 19.8137
#
#
#
# Elastic Compliance Matrix: (Units=1/GPa)
#
#
# Indices 1 2 3 4 5 6 
#
# 1 0.016651 -0.008584 -0.001795 0.000000 0.000000 0.000000
# 2 -0.008584 0.016651 -0.001795 0.000000 0.000000 0.000000
# 3 -0.001795 -0.001795 0.004208 0.000000 0.000000 0.000000
# 4 0.000000 0.000000 0.000000 0.103975 0.000000 0.000000
# 5 0.000000 0.000000 0.000000 0.000000 0.103975 0.000000
# 6 0.000000 0.000000 0.000000 0.000000 0.000000 0.050470
#
#
# Mechanical properties :
#
#
# Convention : Reuss Voigt Hill
#
# Bulk Modulus (GPa) = 75.97520 95.59923 85.78722
# Shear Modulus (GPa) = 15.40043 27.72426 21.56234
#
# Velocity S-wave (km/s) = 2.48026 3.32783 2.93480
# Velocity P-wave (km/s) = 6.20890 7.27688 6.76400
#
# Compressibility (1/GPa) = 0.01316219
#
# Stress axis : x y z
#
# Youngs Moduli (GPa) = 60.05590 60.05590 237.62557
#
# Poissons Ratio (x) = 0.51551 0.42658
# Poissons Ratio (y) = 0.51551 0.42658
# Poissons Ratio (z) = 0.10781 0.10781
#
# Static dielectric constant tensor:
#      x y z
#    x 2.220650 0.000000 0.000000 
#    y 0.000000 2.220650 0.000000 
#    z 0.000000 0.000000 2.033070 
# 
# From -- ./inp_files/9546.got.cif
#   From: 2010.05.17/outbox.cif.g08.bks.cpg/sg181_5_cif.got.tgz:9546.got - 2010.05.20 11:51:17.
