data_PCOD9584225
_publ_section_title
;
Structure prediction by ZEFSAII (Michael W. Deem and Ramdas Pophale) SiO2 
 PCOD9584225
Probable space group: P 64 2 2
;
_chemical_formula_sum "Si O2"
_cell_formula_units_Z 72
_cell_length_a 29.537247
_cell_length_b 29.537247
_cell_length_c 5.408076
_cell_angle_alpha 90.000000
_cell_angle_beta 90.000000
_cell_angle_gamma 120.000000
_cell_volume 4086.141928
_symmetry_space_group_name_H-M "P 64 2 2"
_symmetry_group_IT_number 181
_symmetry_cell_setting 'hexagonal'
loop_
_space_group_symop_operation_xyz
x,y,z
x-y,x,2/3+z
-y,x-y,1/3+z
-x,-y,z
-x+y,-x,2/3+z
y,-x+y,1/3+z
x-y,-y,-z
-x,-x+y,2/3-z
y,x,1/3-z
-y,-x,1/3-z
-x+y,y,-z
x,x-y,2/3-z
loop_
_atom_site_type_symbol
_atom_site_label
_atom_site_fract_x
_atom_site_fract_y
_atom_site_fract_z
Si Si1 0.591888 0.699058 0.231507
Si Si2 0.577537 0.918678 0.932635
Si Si3 0.561863 0.491016 0.416500
Si Si4 0.749626 0.250375 0.166667
Si Si5 0.431936 0.215968 0.333334
Si Si6 0.374060 0.571398 0.416293
Si Si7 0.299471 0.000000 0.500000
Si Si8 0.301095 0.301095 0.666667
O O1 0.557393 0.660061 0.456326
O O2 0.601577 0.755135 0.310456
O O3 0.643205 0.694152 0.192928
O O4 0.568315 0.689674 0.955329
O O5 0.552186 0.950241 0.804813
O O6 0.639523 0.952066 0.977841
O O7 0.529245 0.470756 0.666667
O O8 0.598729 0.464736 0.407807
O O9 0.527940 0.472061 0.166667
O O10 0.772729 0.239474 0.418349
O O11 0.774825 0.311977 0.109887
O O12 0.395241 0.604760 0.666667
O O13 0.393811 0.606190 0.166667
O O14 0.273364 0.000934 0.752673
#
# Coordination Sequence:
#
# PCOD9584225 Si02
#       8
#    12  12  12   6   6  12   6   6
#     4  10  19  31  49  71  94 120 148 179 221 267
#     4  10  18  32  48  65  86 117 143 176 211 257
#     4  10  19  30  46  63  81 104 133 160 201 249
#     4  12  24  38  54  74  96 116 144 194 242 267
#     4  12  22  32  52  80 102 118 146 196 242 270
#     4  10  21  37  51  66  85 110 139 169 204 265
#     4   8  16  30  46  66  91 122 150 170 202 266
#     4   8  16  28  47  64  82 108 148 172 198 246
#
# _framework density 17.620532999999998
#
# number of rings (size 3 to 8) (size 9 to 14) (size 15 to 20)
#    0.000    2.000    0.000    5.000    0.000    2.667 
#    1.500    0.417    0.000    1.000    0.000    0.000 
#    0.000    0.000    0.000    0.000    0.000    0.000 
#
# Total GULP energy -400868.345658 kJ/mol
# GULP energy per Si atom -5567.615912 kJ/mol
# Density = 1.758043 g / cm^3
# Si number density = 17.620533 Si / 1000 Ang^3
#
#
#
# Elastic Constant Matrix: (Units=GPa)
#
#
# Indices 1 2 3 4 5 6 
#
# 1 48.3505 48.0799 20.9554 0.0000 0.0000 0.0000
# 2 48.0799 48.3505 20.9554 0.0000 0.0000 0.0000
# 3 20.9554 20.9554 193.7959 0.0000 0.0000 0.0000
# 4 0.0000 0.0000 0.0000 31.8090 0.0000 0.0000
# 5 0.0000 0.0000 0.0000 0.0000 31.8090 0.0000
# 6 0.0000 0.0000 0.0000 0.0000 0.0000 0.1353
#
#
#
# Elastic Compliance Matrix: (Units=1/GPa)
#
#
# Indices 1 2 3 4 5 6 
#
# 1 1.853113 -1.842231 -0.001177 0.000000 0.000000 0.000000
# 2 -1.842231 1.853113 -0.001177 0.000000 0.000000 0.000000
# 3 -0.001177 -0.001177 0.005415 0.000000 0.000000 0.000000
# 4 0.000000 0.000000 0.000000 0.031438 0.000000 0.000000
# 5 0.000000 0.000000 0.000000 0.000000 0.031438 0.000000
# 6 0.000000 0.000000 0.000000 0.000000 0.000000 7.390689
#
#
# Mechanical properties :
#
#
# Convention : Reuss Voigt Hill
#
# Bulk Modulus (GPa) = 44.50156 52.27535 48.38845
# Shear Modulus (GPa) = 0.33643 26.11775 13.22709
#
# Velocity S-wave (km/s) = 0.43743 3.85416 2.74280
# Velocity P-wave (km/s) = 5.05623 7.03830 6.12794
#
# Compressibility (1/GPa) = 0.02247112
#
# Stress axis : x y z
#
# Youngs Moduli (GPa) = 0.53963 0.53963 184.68828
#
# Poissons Ratio (x) = 0.99413 0.21731
# Poissons Ratio (y) = 0.99413 0.21731
# Poissons Ratio (z) = 0.00063 0.00063
#
# Static dielectric constant tensor:
#      x y z
#    x 1.577030 0.000000 0.000000 
#    y 0.000000 1.577030 0.000000 
#    z 0.000000 0.000000 2.176060 
# 
# From -- ./inp_files/1684.got.cif
#   From: 2010.05.17/outbox.cif.g08.bks.cpg/sg181_1_cif.got.tgz:1684.got - 2010.05.20 11:51:17.
