data_PCOD9584418
_publ_section_title
;
Structure prediction by ZEFSAII (Michael W. Deem and Ramdas Pophale) SiO2 
 PCOD9584418
Probable space group: P 64 2 2
;
_chemical_formula_sum "Si O2"
_cell_formula_units_Z 60
_cell_length_a 17.501143
_cell_length_b 17.501143
_cell_length_c 12.022197
_cell_angle_alpha 90.000000
_cell_angle_beta 90.000000
_cell_angle_gamma 120.000000
_cell_volume 3188.946980
_symmetry_space_group_name_H-M "P 64 2 2"
_symmetry_group_IT_number 181
_symmetry_cell_setting 'hexagonal'
loop_
_space_group_symop_operation_xyz
x,y,z
x-y,x,2/3+z
-y,x-y,1/3+z
-x,-y,z
-x+y,-x,2/3+z
y,-x+y,1/3+z
x-y,-y,-z
-x,-x+y,2/3-z
y,x,1/3-z
-y,-x,1/3-z
-x+y,y,-z
x,x-y,2/3-z
loop_
_atom_site_type_symbol
_atom_site_label
_atom_site_fract_x
_atom_site_fract_y
_atom_site_fract_z
Si Si1 0.904612 0.736690 0.275487
Si Si2 0.103484 0.559510 0.164543
Si Si3 0.824274 0.532488 0.330278
Si Si4 0.397910 0.777920 0.630721
Si Si5 0.861631 0.999362 0.746303
O O1 0.854198 0.632207 0.296203
O O2 0.854504 0.781403 0.337617
O O3 0.000000 0.775703 0.333334
O O4 0.932447 0.776069 0.150712
O O5 0.142228 0.511134 0.239357
O O6 0.136069 0.655564 0.220503
O O7 0.000000 0.500000 0.171519
O O8 0.138296 0.563872 0.040937
O O9 0.719893 0.469868 0.328124
O O10 0.302865 0.697136 0.666667
O O11 0.396346 0.792692 0.500000
O O12 0.880358 0.940179 0.833334
O O13 0.943586 0.056415 0.666667
#
# Coordination Sequence:
#
# PCOD9584418 Si02
#       5
#    12  12  12  12  12
#     4  10  22  37  59  91 125 164 211 270 320 375
#     4  11  23  38  66  97 130 165 217 272 324 388
#     4  11  21  40  67  94 127 169 214 268 326 389
#     4  12  22  43  69  96 127 172 218 259 317 390
#     4  10  22  39  61  88 126 171 224 270 322 385
#
# _framework density 18.814990000000002
#
# number of rings (size 3 to 8) (size 9 to 14) (size 15 to 20)
#    0.000    1.200    4.000    3.600    0.000   14.400 
#    3.600    0.000    4.400    0.000    0.000    0.000 
#    0.000    0.000    0.000    0.000    0.000    0.000 
#
# Total GULP energy -335046.342644 kJ/mol
# GULP energy per Si atom -5584.105711 kJ/mol
# Density = 1.877217 g / cm^3
# Si number density = 18.814990 Si / 1000 Ang^3
#
#
#
# Elastic Constant Matrix: (Units=GPa)
#
#
# Indices 1 2 3 4 5 6 
#
# 1 -713.5951 779.0407 15.5269 0.0000 0.0000 -0.0001
# 2 779.0407 -713.5951 15.5269 0.0000 0.0000 0.0001
# 3 15.5269 15.5269 103.9715 0.0000 0.0000 0.0000
# 4 0.0000 0.0000 0.0000 9.9219 0.0000 0.0000
# 5 0.0000 0.0000 0.0000 0.0000 9.9219 0.0000
# 6 -0.0001 0.0001 0.0000 0.0000 0.0000 -746.3178
#
#
#
# Elastic Compliance Matrix: (Units=1/GPa)
#
#
# Indices 1 2 3 4 5 6 
#
# 1 0.007888 0.008558 -0.002456 0.000000 0.000000 0.000000
# 2 0.008558 0.007888 -0.002456 0.000000 0.000000 0.000000
# 3 -0.002456 -0.002456 0.010352 0.000000 0.000000 0.000000
# 4 0.000000 0.000000 0.000000 0.100787 0.000000 0.000000
# 5 0.000000 0.000000 0.000000 0.000000 0.100787 0.000000
# 6 0.000000 0.000000 0.000000 0.000000 0.000000 -0.001340
#
#
# Mechanical properties :
#
#
# Convention : Reuss Voigt Hill
#
# Bulk Modulus (GPa) = 29.92371 32.99671 31.46021
# Shear Modulus (GPa) = 21.71937 -287.51567 -132.89815
#
# Velocity S-wave (km/s) = 3.40128 -12.37513 -8.41353
# Velocity P-wave (km/s) = 5.60033 13.66075 8.81058
#
# Compressibility (1/GPa) = 0.03341832
#
# Stress axis : x y z
#
# Youngs Moduli (GPa) = 126.78116 126.78116 96.60406
#
# Poissons Ratio (x) = -1.08494 0.23725
# Poissons Ratio (y) = -1.08494 0.23725
# Poissons Ratio (z) = 0.31136 0.31136
#
# Static dielectric constant tensor:
#      x y z
#    x 1.263570 0.000000 0.000000 
#    y 0.000000 1.263570 0.000000 
#    z 0.000000 0.000000 1.679990 
# 
# From -- ./inp_files/4865.got.cif
#   From: 2010.05.17/outbox.cif.g08.bks.cpg/sg181_3_cif.got.tgz:4865.got - 2010.05.20 11:51:17.
