data_PCOD9584317
_publ_section_title
;
Structure prediction by ZEFSAII (Michael W. Deem and Ramdas Pophale) SiO2 
 PCOD9584317
Probable space group: P 64 2 2
;
_chemical_formula_sum "Si O2"
_cell_formula_units_Z 39
_cell_length_a 8.530304
_cell_length_b 8.530304
_cell_length_c 32.740141
_cell_angle_alpha 90.000000
_cell_angle_beta 90.000000
_cell_angle_gamma 120.000000
_cell_volume 2063.194610
_symmetry_space_group_name_H-M "P 64 2 2"
_symmetry_group_IT_number 181
_symmetry_cell_setting 'hexagonal'
loop_
_space_group_symop_operation_xyz
x,y,z
x-y,x,2/3+z
-y,x-y,1/3+z
-x,-y,z
-x+y,-x,2/3+z
y,-x+y,1/3+z
x-y,-y,-z
-x,-x+y,2/3-z
y,x,1/3-z
-y,-x,1/3-z
-x+y,y,-z
x,x-y,2/3-z
loop_
_atom_site_type_symbol
_atom_site_label
_atom_site_fract_x
_atom_site_fract_y
_atom_site_fract_z
Si Si1 0.970700 0.801814 0.542071
Si Si2 0.691801 0.507229 0.388940
Si Si3 0.537878 0.336444 0.210317
Si Si4 0.500000 0.000000 0.000000
O O1 0.863232 0.726463 0.500000
O O2 0.882446 0.673963 0.580239
O O3 0.162053 0.816788 0.536870
O O4 0.000000 0.000000 0.548522
O O5 0.500000 0.500000 0.374922
O O6 0.630354 0.330527 0.417590
O O7 0.851614 0.530982 0.358408
O O8 0.500000 0.500000 0.217691
O O9 0.635623 0.364378 0.166667
#
# Coordination Sequence:
#
# PCOD9584317 Si02
#       4
#    12  12  12   3
#     4  10  20  36  62  97 129 161 202 256 333 403
#     4  10  25  45  62  95 124 170 225 267 322 395
#     4  10  20  35  63  98 130 163 200 271 331 394
#     4  12  28  44  74  82 132 184 222 280 328 378
#
# _framework density 18.902726000000001
#
# number of rings (size 3 to 8) (size 9 to 14) (size 15 to 20)
#    0.000    1.846    0.000    4.615    8.615    1.231 
#    5.538    0.000    0.000    0.000    0.000    0.000 
#    0.000    0.000    0.000    0.000    0.000    0.000 
#
# Total GULP energy -217253.617253 kJ/mol
# GULP energy per Si atom -5570.605571 kJ/mol
# Density = 1.885970 g / cm^3
# Si number density = 18.902726 Si / 1000 Ang^3
#
#
#
# Elastic Constant Matrix: (Units=GPa)
#
#
# Indices 1 2 3 4 5 6 
#
# 1 128.8956 75.0777 79.9562 0.0000 0.0000 0.0000
# 2 75.0777 128.8956 79.9562 0.0000 0.0000 0.0000
# 3 79.9562 79.9562 87.4322 0.0000 0.0000 0.0000
# 4 0.0000 0.0000 0.0000 39.1112 0.0000 0.0000
# 5 0.0000 0.0000 0.0000 0.0000 39.1112 0.0000
# 6 0.0000 0.0000 0.0000 0.0000 0.0000 26.9089
#
#
#
# Elastic Compliance Matrix: (Units=1/GPa)
#
#
# Indices 1 2 3 4 5 6 
#
# 1 0.017951 -0.000630 -0.015840 0.000000 0.000000 0.000000
# 2 -0.000630 0.017951 -0.015840 0.000000 0.000000 0.000000
# 3 -0.015840 -0.015840 0.040408 0.000000 0.000000 0.000000
# 4 0.000000 0.000000 0.000000 0.025568 0.000000 0.000000
# 5 0.000000 0.000000 0.000000 0.000000 0.025568 0.000000
# 6 0.000000 0.000000 0.000000 0.000000 0.000000 0.037162
#
#
# Mechanical properties :
#
#
# Convention : Reuss Voigt Hill
#
# Bulk Modulus (GPa) = 85.53805 90.57818 88.05812
# Shear Modulus (GPa) = 21.44777 28.37513 24.91145
#
# Velocity S-wave (km/s) = 3.37209 3.87862 3.63419
# Velocity P-wave (km/s) = 7.77890 8.25108 8.01847
#
# Compressibility (1/GPa) = 0.01169070
#
# Stress axis : x y z
#
# Youngs Moduli (GPa) = 55.70739 55.70739 24.74762
#
# Poissons Ratio (x) = 0.03511 0.39199
# Poissons Ratio (y) = 0.03511 0.39199
# Poissons Ratio (z) = 0.88239 0.88239
#
# Static dielectric constant tensor:
#      x y z
#    x 1.627980 0.000000 0.000000 
#    y 0.000000 1.627980 0.000000 
#    z 0.000000 0.000000 1.690360 
# 
# From -- ./inp_files/11759.got.cif
#   From: 2010.05.17/outbox.cif.g08.bks.cpg/sg181_6_cif.got.tgz:11759.got - 2010.05.20 11:51:17.
