data_PCOD9584666
_publ_section_title
;
Structure prediction by ZEFSAII (Michael W. Deem and Ramdas Pophale) SiO2 
 PCOD9584666
Probable space group: P 63 2 2
;
_chemical_formula_sum "Si O2"
_cell_formula_units_Z 76
_cell_length_a 19.289823
_cell_length_b 19.289823
_cell_length_c 13.639760
_cell_angle_alpha 90.000000
_cell_angle_beta 90.000000
_cell_angle_gamma 120.000000
_cell_volume 4395.353868
_symmetry_space_group_name_H-M "P 63 2 2"
_symmetry_group_IT_number 182
_symmetry_cell_setting 'hexagonal'
loop_
_space_group_symop_operation_xyz
x,y,z
x-y,x,1/2+z
-y,x-y,z
-x,-y,1/2+z
-x+y,-x,z
y,-x+y,1/2+z
x-y,-y,-z
-x,-x+y,-z
y,x,-z
-y,-x,1/2-z
-x+y,y,1/2-z
x,x-y,1/2-z
loop_
_atom_site_type_symbol
_atom_site_label
_atom_site_fract_x
_atom_site_fract_y
_atom_site_fract_z
Si Si1 0.599514 0.985887 0.107707
Si Si2 0.494653 0.284735 0.646904
Si Si3 0.959518 0.802898 0.823074
Si Si4 0.671577 0.896876 0.826136
Si Si5 0.348742 0.203116 0.947938
Si Si6 0.548160 0.096320 0.750000
Si Si7 0.911405 0.911405 0.500000
Si Si8 0.333335 0.666668 0.369965
O O1 0.620315 0.915788 0.083029
O O2 0.528093 0.955098 0.183126
O O3 0.678881 0.061537 0.153615
O O4 0.575031 0.000000 0.000000
O O5 0.474271 0.237136 0.750000
O O6 0.418075 0.235151 0.578288
O O7 0.525102 0.375554 0.679889
O O8 0.573784 0.288198 0.601620
O O9 0.916907 0.833813 0.750000
O O10 0.885877 0.727638 0.877599
O O11 0.027445 0.783113 0.788298
O O12 0.004377 0.867909 0.905404
O O13 0.647861 0.823931 0.750000
O O14 0.676005 0.868509 0.937641
O O15 0.924654 0.000000 0.500000
O O16 0.333334 0.666667 0.250000
#
# Coordination Sequence:
#
# PCOD9584666 Si02
#       8
#    12  12  12  12  12   6   6   4
#     4   9  20  38  57  78 114 160 188 230 300 355
#     4  11  17  29  55  87 119 151 180 231 299 353
#     4  11  22  36  60  83 110 150 197 246 298 358
#     4  10  22  40  60  78 110 157 206 244 290 358
#     4  10  19  37  57  82 115 155 194 230 297 365
#     4  12  20  34  60  90 126 144 198 246 298 364
#     4  10  24  38  52  78 112 138 184 240 298 346
#     4   9  15  27  45  87 121 137 175 231 279 348
#
# _framework density 17.290984999999999
#
# number of rings (size 3 to 8) (size 9 to 14) (size 15 to 20)
#    0.158    1.579    5.526    1.421    4.421    0.000 
#    2.842    0.000    0.000    0.000    0.000    0.000 
#    0.789    0.000    0.000    0.000    0.000    0.000 
#
# Total GULP energy -423114.268965 kJ/mol
# GULP energy per Si atom -5567.293013 kJ/mol
# Density = 1.725163 g / cm^3
# Si number density = 17.290985 Si / 1000 Ang^3
#
#
#
# Elastic Constant Matrix: (Units=GPa)
#
#
# Indices 1 2 3 4 5 6 
#
# 1 68.0496 19.8812 27.7342 0.0000 0.0000 -0.0001
# 2 19.8812 68.0484 27.7340 0.0000 0.0000 -0.0001
# 3 27.7342 27.7340 71.0078 0.0000 0.0000 -0.0001
# 4 0.0000 0.0000 0.0000 19.1797 -0.0001 0.0000
# 5 0.0000 0.0000 0.0000 -0.0001 19.1797 0.0000
# 6 -0.0001 -0.0001 -0.0001 0.0000 0.0000 24.0842
#
#
#
# Elastic Compliance Matrix: (Units=1/GPa)
#
#
# Indices 1 2 3 4 5 6 
#
# 1 0.017926 -0.002835 -0.005894 0.000000 0.000000 0.000000
# 2 -0.002835 0.017926 -0.005894 0.000000 0.000000 0.000000
# 3 -0.005894 -0.005894 0.018687 0.000000 0.000000 0.000000
# 4 0.000000 0.000000 0.000000 0.052138 0.000000 0.000000
# 5 0.000000 0.000000 0.000000 0.000000 0.052138 0.000000
# 6 0.000000 0.000000 0.000000 0.000000 0.000000 0.041521
#
#
# Mechanical properties :
#
#
# Convention : Reuss Voigt Hill
#
# Bulk Modulus (GPa) = 39.53780 39.75608 39.64694
# Shear Modulus (GPa) = 21.00716 21.27247 21.13982
#
# Velocity S-wave (km/s) = 3.48935 3.51132 3.50035
# Velocity P-wave (km/s) = 6.25699 6.28342 6.27022
#
# Compressibility (1/GPa) = 0.02529225
#
# Stress axis : x y z
#
# Youngs Moduli (GPa) = 55.78604 55.78504 53.51256
#
# Poissons Ratio (x) = 0.15815 0.31541
# Poissons Ratio (y) = 0.15815 0.31541
# Poissons Ratio (z) = 0.32881 0.32881
#
# Static dielectric constant tensor:
#      x y z
#    x 1.610500 0.000000 0.000000 
#    y 0.000000 1.610500 0.000000 
#    z 0.000000 0.000000 1.599120 
# 
# From -- ./inp_files/3703.got.cif
#   From: 2010.05.17/outbox.cif.g08.bks.cpg/sg182_2_cif.got.tgz:3703.got - 2010.05.20 11:58:53.
