data_PCOD9584599
_publ_section_title
;
Structure prediction by ZEFSAII (Michael W. Deem and Ramdas Pophale) SiO2 
 PCOD9584599
Probable space group: P 64 2 2
;
_chemical_formula_sum "Si O2"
_cell_formula_units_Z 54
_cell_length_a 15.000000
_cell_length_b 15.000000
_cell_length_c 15.000000
_cell_angle_alpha 90.000000
_cell_angle_beta 90.000000
_cell_angle_gamma 120.000000
_cell_volume 2922.835738
_symmetry_space_group_name_H-M "P 64 2 2"
_symmetry_group_IT_number 181
_symmetry_cell_setting 'hexagonal'
loop_
_space_group_symop_operation_xyz
x,y,z
x-y,x,2/3+z
-y,x-y,1/3+z
-x,-y,z
-x+y,-x,2/3+z
y,-x+y,1/3+z
x-y,-y,-z
-x,-x+y,2/3-z
y,x,1/3-z
-y,-x,1/3-z
-x+y,y,-z
x,x-y,2/3-z
loop_
_atom_site_type_symbol
_atom_site_label
_atom_site_fract_x
_atom_site_fract_y
_atom_site_fract_z
Si Si1 0.450885 0.817270 0.361867
Si Si2 0.887264 0.482897 0.159521
Si Si3 0.884346 0.306113 0.870720
Si Si4 0.876836 0.252680 0.351704
Si Si5 0.239851 0.479702 0.500000
O O1 0.394210 0.697105 0.333334
O O2 0.517162 0.880880 0.275618
O O3 0.519396 0.823549 0.447457
O O4 0.378216 0.861517 0.395661
O O5 0.869892 0.535524 0.246826
O O6 0.809339 0.361364 0.153581
O O7 0.000000 0.500000 0.172097
O O8 0.848989 0.198717 0.922194
O O9 0.000000 0.361424 0.833334
O O10 0.820102 0.234649 0.255561
O O11 0.000000 0.296490 0.333334
#
# Coordination Sequence:
#
# PCOD9584599 Si02
#       5
#    12  12  12  12   6
#     4  11  22  37  63  95 136 181 229 273 340 418
#     4  12  24  41  63  94 140 187 231 281 341 427
#     4  11  24  43  63  93 136 181 237 290 342 418
#     4  12  26  44  64  95 133 181 235 291 354 421
#     4  12  26  38  62  92 142 188 232 280 348 414
#
# _framework density 18.475209
#
# number of rings (size 3 to 8) (size 9 to 14) (size 15 to 20)
#    0.000    0.444    6.667    3.333    3.111    0.000 
#    0.000    0.000    0.000    0.000    0.000    2.333 
#    0.000    0.000    0.000    0.000    0.000    0.000 
#
# Total GULP energy -301007.938192 kJ/mol
# GULP energy per Si atom -5574.221078 kJ/mol
# Density = 1.843316 g / cm^3
# Si number density = 18.475209 Si / 1000 Ang^3
#
#
#
# Elastic Constant Matrix: (Units=GPa)
#
#
# Indices 1 2 3 4 5 6 
#
# 1 97.6400 41.7335 40.3379 0.0000 0.0000 0.0000
# 2 41.7335 97.6400 40.3379 0.0000 0.0000 0.0000
# 3 40.3379 40.3379 153.4211 0.0000 0.0000 0.0000
# 4 0.0000 0.0000 0.0000 43.3301 0.0000 0.0000
# 5 0.0000 0.0000 0.0000 0.0000 43.3301 0.0000
# 6 0.0000 0.0000 0.0000 0.0000 0.0000 27.9532
#
#
#
# Elastic Compliance Matrix: (Units=1/GPa)
#
#
# Indices 1 2 3 4 5 6 
#
# 1 0.013175 -0.004712 -0.002225 0.000000 0.000000 0.000000
# 2 -0.004712 0.013175 -0.002225 0.000000 0.000000 0.000000
# 3 -0.002225 -0.002225 0.007688 0.000000 0.000000 0.000000
# 4 0.000000 0.000000 0.000000 0.023079 0.000000 0.000000
# 5 0.000000 0.000000 0.000000 0.000000 0.023079 0.000000
# 6 0.000000 0.000000 0.000000 0.000000 0.000000 0.035774
#
#
# Mechanical properties :
#
#
# Convention : Reuss Voigt Hill
#
# Bulk Modulus (GPa) = 63.63925 65.94663 64.79294
# Shear Modulus (GPa) = 35.83416 38.00882 36.92149
#
# Velocity S-wave (km/s) = 4.40885 4.54065 4.47523
# Velocity P-wave (km/s) = 7.77417 7.95375 7.86448
#
# Compressibility (1/GPa) = 0.01571357
#
# Stress axis : x y z
#
# Youngs Moduli (GPa) = 75.90140 75.90140 130.07160
#
# Poissons Ratio (x) = 0.35765 0.28942
# Poissons Ratio (y) = 0.35765 0.28942
# Poissons Ratio (z) = 0.16889 0.16889
#
# Static dielectric constant tensor:
#      x y z
#    x 1.675050 0.000000 0.000000 
#    y 0.000000 1.675050 0.000000 
#    z 0.000000 0.000000 1.702470 
# 
# From -- ./inp_files/5990.got.cif
#   From: 2010.05.17/outbox.ucp.g08.bks.cvg/sg181_3_cif.got.tgz:5990.got - 2010.06.11 15:20:36.
