data_PCOD9584829
_publ_section_title
;
Structure prediction by ZEFSAII (Michael W. Deem and Ramdas Pophale) SiO2 
 PCOD9584829
Probable space group: P 63 2 2
;
_chemical_formula_sum "Si O2"
_cell_formula_units_Z 36
_cell_length_a 9.563249
_cell_length_b 9.563249
_cell_length_c 18.036743
_cell_angle_alpha 90.000000
_cell_angle_beta 90.000000
_cell_angle_gamma 120.000000
_cell_volume 1428.563917
_symmetry_space_group_name_H-M "P 63 2 2"
_symmetry_group_IT_number 182
_symmetry_cell_setting 'hexagonal'
loop_
_space_group_symop_operation_xyz
x,y,z
x-y,x,1/2+z
-y,x-y,z
-x,-y,1/2+z
-x+y,-x,z
y,-x+y,1/2+z
x-y,-y,-z
-x,-x+y,-z
y,x,-z
-y,-x,1/2-z
-x+y,y,1/2-z
x,x-y,1/2-z
loop_
_atom_site_type_symbol
_atom_site_label
_atom_site_fract_x
_atom_site_fract_y
_atom_site_fract_z
Si Si1 0.976345 0.403053 0.378757
Si Si2 0.640873 0.820437 0.750000
Si Si3 0.792697 0.000000 0.000000
Si Si4 0.686974 0.762567 0.125483
O O1 0.145804 0.412251 0.357808
O O2 0.011139 0.579125 0.397952
O O3 0.865836 0.323989 0.307371
O O4 0.908058 0.274362 0.445993
O O5 0.751077 0.781146 0.803998
O O6 0.922773 0.122086 0.940322
#
# Coordination Sequence:
#
# PCOD9584829 Si02
#       4
#    12   6   6  12
#     4  10  23  48  79 112 158 209 271 342 418 491
#     4  12  24  40  74 112 164 218 270 316 404 500
#     4   8  24  44  82 116 148 216 260 352 414 506
#     4  10  23  50  76 121 152 216 267 344 421 493
#
# _framework density 25.200132
#
# number of rings (size 3 to 8) (size 9 to 14) (size 15 to 20)
#    2.000    0.000    0.000    2.667    0.000    4.000 
#   16.000    3.333    0.000    0.000    0.000    0.000 
#    0.000    0.000    0.000    0.000    0.000    0.000 
#
# Total GULP energy -201012.679963 kJ/mol
# GULP energy per Si atom -5583.685555 kJ/mol
# Density = 2.514278 g / cm^3
# Si number density = 25.200132 Si / 1000 Ang^3
#
#
#
# Elastic Constant Matrix: (Units=GPa)
#
#
# Indices 1 2 3 4 5 6 
#
# 1 137.6978 56.1251 47.0909 0.0000 0.0000 0.0000
# 2 56.1251 137.6978 47.0909 0.0000 0.0000 0.0000
# 3 47.0909 47.0909 153.2456 0.0000 0.0000 0.0000
# 4 0.0000 0.0000 0.0000 35.5285 0.0000 0.0000
# 5 0.0000 0.0000 0.0000 0.0000 35.5285 0.0000
# 6 0.0000 0.0000 0.0000 0.0000 0.0000 40.7863
#
#
#
# Elastic Compliance Matrix: (Units=1/GPa)
#
#
# Indices 1 2 3 4 5 6 
#
# 1 0.009162 -0.003097 -0.001864 0.000000 0.000000 0.000000
# 2 -0.003097 0.009162 -0.001864 0.000000 0.000000 0.000000
# 3 -0.001864 -0.001864 0.007671 0.000000 0.000000 0.000000
# 4 0.000000 0.000000 0.000000 0.028146 0.000000 0.000000
# 5 0.000000 0.000000 0.000000 0.000000 0.028146 0.000000
# 6 0.000000 0.000000 0.000000 0.000000 0.000000 0.024518
#
#
# Mechanical properties :
#
#
# Convention : Reuss Voigt Hill
#
# Bulk Modulus (GPa) = 80.99812 81.02834 81.01323
# Shear Modulus (GPa) = 40.13814 40.92430 40.53122
#
# Velocity S-wave (km/s) = 3.99529 4.03423 4.01480
# Velocity P-wave (km/s) = 7.31402 7.34328 7.32866
#
# Compressibility (1/GPa) = 0.01234597
#
# Stress axis : x y z
#
# Youngs Moduli (GPa) = 109.14672 109.14672 130.36336
#
# Poissons Ratio (x) = 0.33803 0.24296
# Poissons Ratio (y) = 0.33803 0.24296
# Poissons Ratio (z) = 0.20342 0.20342
#
# Static dielectric constant tensor:
#      x y z
#    x 2.065850 0.000000 0.000000 
#    y 0.000000 2.065850 0.000000 
#    z 0.000000 0.000000 2.016300 
# 
# From -- ./inp_files/4619.got.cif
#   From: 2010.05.17/outbox.cif.g08.bks.cpg/sg182_3_cif.got.tgz:4619.got - 2010.05.20 11:58:53.
