data_PCOD9584721
_publ_section_title
;
Structure prediction by ZEFSAII (Michael W. Deem and Ramdas Pophale) SiO2 
 PCOD9584721
Probable space group: P 63 2 2
;
_chemical_formula_sum "Si O2"
_cell_formula_units_Z 58
_cell_length_a 13.923361
_cell_length_b 13.923361
_cell_length_c 16.545676
_cell_angle_alpha 90.000000
_cell_angle_beta 90.000000
_cell_angle_gamma 120.000000
_cell_volume 2777.814972
_symmetry_space_group_name_H-M "P 63 2 2"
_symmetry_group_IT_number 182
_symmetry_cell_setting 'hexagonal'
loop_
_space_group_symop_operation_xyz
x,y,z
x-y,x,1/2+z
-y,x-y,z
-x,-y,1/2+z
-x+y,-x,z
y,-x+y,1/2+z
x-y,-y,-z
-x,-x+y,-z
y,x,-z
-y,-x,1/2-z
-x+y,y,1/2-z
x,x-y,1/2-z
loop_
_atom_site_type_symbol
_atom_site_label
_atom_site_fract_x
_atom_site_fract_y
_atom_site_fract_z
Si Si1 0.666668 0.333334 0.155113
Si Si2 0.213427 0.409823 0.342182
Si Si3 0.876278 0.514838 0.425231
Si Si4 0.145101 0.072551 0.250000
Si Si5 0.796030 0.022175 0.413356
Si Si6 0.894873 0.451914 0.895096
O O1 0.666668 0.333334 0.250000
O O2 0.551351 0.237527 0.120984
O O3 0.188987 0.377973 0.250000
O O4 0.205661 0.303914 0.386265
O O5 0.136432 0.454828 0.378063
O O6 0.339167 0.513263 0.345298
O O7 0.909791 0.642494 0.432837
O O8 0.869363 0.461070 0.512550
O O9 0.976389 0.509160 0.380774
O O10 0.204681 0.121229 0.336880
O O11 0.059516 0.119031 0.250000
O O12 0.837176 0.000000 0.500000
#
# Coordination Sequence:
#
# PCOD9584721 Si02
#       6
#     4  12  12   6  12  12
#     4  12  27  39  60  99 145 197 226 282 366 423
#     4  11  21  36  65 102 135 178 226 290 356 411
#     4  10  22  43  63  97 139 185 238 280 342 444
#     4  10  26  50  72 106 132 178 238 312 356 420
#     4  11  23  47  73  99 141 189 232 295 363 429
#     4  10  20  40  65  95 136 173 234 291 344 420
#
# _framework density 20.879721
#
# number of rings (size 3 to 8) (size 9 to 14) (size 15 to 20)
#    0.207    1.241    4.138    2.897    1.448    4.138 
#    3.724    0.000    0.000    0.000    0.000    0.000 
#    0.000    0.000    0.000    0.000    0.000    0.000 
#
# Total GULP energy -323527.132579 kJ/mol
# GULP energy per Si atom -5578.054010 kJ/mol
# Density = 2.083220 g / cm^3
# Si number density = 20.879721 Si / 1000 Ang^3
#
#
#
# Elastic Constant Matrix: (Units=GPa)
#
#
# Indices 1 2 3 4 5 6 
#
# 1 52.6651 29.5772 43.2697 0.0004 -0.0002 0.0000
# 2 29.5772 52.6659 43.2698 0.0000 -0.0006 0.0000
# 3 43.2697 43.2698 145.7813 0.0003 0.0004 0.0000
# 4 0.0004 0.0000 0.0003 40.3610 -0.0007 0.0002
# 5 -0.0002 -0.0006 0.0004 -0.0007 40.3563 -0.0002
# 6 0.0000 0.0000 0.0000 0.0002 -0.0002 11.5441
#
#
#
# Elastic Compliance Matrix: (Units=1/GPa)
#
#
# Indices 1 2 3 4 5 6 
#
# 1 0.030497 -0.012815 -0.005248 0.000000 0.000000 0.000000
# 2 -0.012815 0.030496 -0.005248 0.000000 0.000000 0.000000
# 3 -0.005248 -0.005248 0.009975 0.000000 0.000000 0.000000
# 4 0.000000 0.000000 0.000000 0.024776 0.000000 0.000000
# 5 0.000000 0.000000 0.000000 0.000000 0.024779 0.000000
# 6 0.000000 0.000000 0.000000 0.000000 0.000000 0.086624
#
#
# Mechanical properties :
#
#
# Convention : Reuss Voigt Hill
#
# Bulk Modulus (GPa) = 41.07536 53.70505 47.39021
# Shear Modulus (GPa) = 19.09230 27.45202 23.27216
#
# Velocity S-wave (km/s) = 3.02718 3.62991 3.34216
# Velocity P-wave (km/s) = 5.65097 6.58372 6.13509
#
# Compressibility (1/GPa) = 0.02434550
#
# Stress axis : x y z
#
# Youngs Moduli (GPa) = 32.79019 32.79084 100.25094
#
# Poissons Ratio (x) = 0.42022 0.52613
# Poissons Ratio (y) = 0.42021 0.52612
# Poissons Ratio (z) = 0.17209 0.17209
#
# Static dielectric constant tensor:
#      x y z
#    x 1.730660 0.000000 0.000000 
#    y 0.000000 1.730660 0.000000 
#    z 0.000000 0.000000 1.857950 
# 
# From -- ./inp_files/3472.got.cif
#   From: 2010.05.17/outbox.cif.g08.bks.cpg/sg182_2_cif.got.tgz:3472.got - 2010.05.20 11:58:53.
