data_PCOD9584582
_publ_section_title
;
Structure prediction by ZEFSAII (Michael W. Deem and Ramdas Pophale) SiO2 
 PCOD9584582
Probable space group: P 64 2 2
;
_chemical_formula_sum "Si O2"
_cell_formula_units_Z 48
_cell_length_a 22.408010
_cell_length_b 22.408010
_cell_length_c 4.954815
_cell_angle_alpha 90.000000
_cell_angle_beta 90.000000
_cell_angle_gamma 120.000000
_cell_volume 2154.590073
_symmetry_space_group_name_H-M "P 64 2 2"
_symmetry_group_IT_number 181
_symmetry_cell_setting 'hexagonal'
loop_
_space_group_symop_operation_xyz
x,y,z
x-y,x,2/3+z
-y,x-y,1/3+z
-x,-y,z
-x+y,-x,2/3+z
y,-x+y,1/3+z
x-y,-y,-z
-x,-x+y,2/3-z
y,x,1/3-z
-y,-x,1/3-z
-x+y,y,-z
x,x-y,2/3-z
loop_
_atom_site_type_symbol
_atom_site_label
_atom_site_fract_x
_atom_site_fract_y
_atom_site_fract_z
Si Si1 0.736831 0.473661 0.000000
Si Si2 0.000000 0.650476 0.333334
Si Si3 0.611475 0.805738 0.833334
Si Si4 0.853424 0.146577 0.666667
Si Si5 0.595414 0.404587 0.166667
Si Si6 0.000000 0.740339 0.833334
Si Si7 0.518434 0.860373 0.909154
O O1 0.675955 0.429108 0.201528
O O2 0.806582 0.501066 0.177595
O O3 0.990018 0.690325 0.584076
O O4 0.934405 0.574501 0.315047
O O5 0.658553 0.810003 0.583531
O O6 0.564531 0.836815 0.728255
O O7 0.813763 0.067885 0.563539
O O8 0.597855 0.455825 0.405595
#
# Coordination Sequence:
#
# PCOD9584582 Si02
#       7
#     6   6   6   6   6   6  12
#     4  12  27  48  70 102 140 190 252 320 396 464
#     4  12  28  44  77 110 150 209 254 320 410 488
#     4  12  22  41  72 102 147 189 254 314 402 464
#     4  12  23  42  70 112 152 202 250 323 388 471
#     4  12  28  43  75 102 137 192 256 334 385 480
#     4  12  24  42  72 111 156 205 260 322 386 482
#     4  12  26  47  73 109 148 198 261 328 405 487
#
# _framework density 22.278020000000001
#
# number of rings (size 3 to 8) (size 9 to 14) (size 15 to 20)
#    0.000    0.000    7.500    1.500    7.000    0.000 
#    0.000    3.750    0.000    0.000    0.000    0.000 
#    0.000   28.000    0.000    0.000    0.000    0.000 
#
# Total GULP energy -267277.119736 kJ/mol
# GULP energy per Si atom -5568.273328 kJ/mol
# Density = 2.222731 g / cm^3
# Si number density = 22.278020 Si / 1000 Ang^3
#
#
#
# Elastic Constant Matrix: (Units=GPa)
#
#
# Indices 1 2 3 4 5 6 
#
# 1 174.7657 51.3928 43.1877 0.0000 0.0000 0.0000
# 2 51.3928 174.7657 43.1877 0.0000 0.0000 0.0000
# 3 43.1877 43.1877 132.4841 0.0000 0.0000 0.0000
# 4 0.0000 0.0000 0.0000 58.8434 0.0000 0.0000
# 5 0.0000 0.0000 0.0000 0.0000 58.8434 0.0000
# 6 0.0000 0.0000 0.0000 0.0000 0.0000 61.6864
#
#
#
# Elastic Compliance Matrix: (Units=1/GPa)
#
#
# Indices 1 2 3 4 5 6 
#
# 1 0.006578 -0.001528 -0.001646 0.000000 0.000000 0.000000
# 2 -0.001528 0.006578 -0.001646 0.000000 0.000000 0.000000
# 3 -0.001646 -0.001646 0.008621 0.000000 0.000000 0.000000
# 4 0.000000 0.000000 0.000000 0.016994 0.000000 0.000000
# 5 0.000000 0.000000 0.000000 0.000000 0.016994 0.000000
# 6 0.000000 0.000000 0.000000 0.000000 0.000000 0.016211
#
#
# Mechanical properties :
#
#
# Convention : Reuss Voigt Hill
#
# Bulk Modulus (GPa) = 82.39333 84.17244 83.28289
# Shear Modulus (GPa) = 58.36814 58.82444 58.59629
#
# Velocity S-wave (km/s) = 5.12413 5.14412 5.13414
# Velocity P-wave (km/s) = 8.48961 8.55263 8.52118
#
# Compressibility (1/GPa) = 0.01213690
#
# Stress axis : x y z
#
# Youngs Moduli (GPa) = 152.02212 152.02212 115.98963
#
# Poissons Ratio (x) = 0.23222 0.19096
# Poissons Ratio (y) = 0.23222 0.19096
# Poissons Ratio (z) = 0.25029 0.25029
#
# Static dielectric constant tensor:
#      x y z
#    x 1.977770 0.000000 0.000000 
#    y 0.000000 1.977770 0.000000 
#    z 0.000000 0.000000 1.086930 
# 
# From -- ./inp_files/1196.got.cif
#   From: 2010.05.17/outbox.cif.g08.bks.cpg/sg181_1_cif.got.tgz:1196.got - 2010.05.20 11:51:17.
