data_PCOD9584629
_publ_section_title
;
Structure prediction by ZEFSAII (Michael W. Deem and Ramdas Pophale) SiO2 
 PCOD9584629
Probable space group: P 63 2 2
;
_chemical_formula_sum "Si O2"
_cell_formula_units_Z 42
_cell_length_a 22.094261
_cell_length_b 22.094261
_cell_length_c 5.628054
_cell_angle_alpha 90.000000
_cell_angle_beta 90.000000
_cell_angle_gamma 120.000000
_cell_volume 2379.292565
_symmetry_space_group_name_H-M "P 63 2 2"
_symmetry_group_IT_number 182
_symmetry_cell_setting 'hexagonal'
loop_
_space_group_symop_operation_xyz
x,y,z
x-y,x,1/2+z
-y,x-y,z
-x,-y,1/2+z
-x+y,-x,z
y,-x+y,1/2+z
x-y,-y,-z
-x,-x+y,-z
y,x,-z
-y,-x,1/2-z
-x+y,y,1/2-z
x,x-y,1/2-z
loop_
_atom_site_type_symbol
_atom_site_label
_atom_site_fract_x
_atom_site_fract_y
_atom_site_fract_z
Si Si1 0.365138 0.365138 0.000000
Si Si2 0.560138 0.000000 0.500000
Si Si3 0.624736 0.469480 0.943429
Si Si4 0.406075 0.260468 0.864120
Si Si5 0.254589 0.745412 0.750000
O O1 0.405378 0.401069 0.247901
O O2 0.291237 0.361285 0.024663
O O3 0.563991 0.075509 0.497238
O O4 0.591096 0.408905 0.750000
O O5 0.684220 0.542624 0.831488
O O6 0.668600 0.452591 0.132867
O O7 0.367947 0.183974 0.750000
O O8 0.459424 0.261183 0.057277
#
# Coordination Sequence:
#
# PCOD9584629 Si02
#       5
#     6   6  12  12   6
#     4  10  18  35  54  80 108 140 176 222 271 342
#     4  10  20  35  52  84 112 132 174 230 291 330
#     4  10  21  34  55  80 109 138 178 229 289 341
#     4   9  19  33  53  73 104 140 177 222 274 331
#     4  10  18  38  52  72 112 140 172 226 278 346
#
# _framework density 17.652304999999998
#
# number of rings (size 3 to 8) (size 9 to 14) (size 15 to 20)
#    0.000    2.286    2.857    0.000    0.000    5.714 
#    0.000    0.000    0.000   25.714    0.000    0.000 
#    0.000    0.000    0.000    0.000    0.000    0.000 
#
# Total GULP energy -233836.906668 kJ/mol
# GULP energy per Si atom -5567.545397 kJ/mol
# Density = 1.761213 g / cm^3
# Si number density = 17.652305 Si / 1000 Ang^3
#
#
#
# Elastic Constant Matrix: (Units=GPa)
#
#
# Indices 1 2 3 4 5 6 
#
# 1 71.0189 70.9665 38.2543 0.0000 0.0000 0.0000
# 2 70.9665 71.0189 38.2543 0.0000 0.0000 0.0000
# 3 38.2543 38.2543 96.7873 0.0000 0.0000 0.0000
# 4 0.0000 0.0000 0.0000 12.7298 0.0000 0.0000
# 5 0.0000 0.0000 0.0000 0.0000 12.7298 0.0000
# 6 0.0000 0.0000 0.0000 0.0000 0.0000 0.0262
#
#
#
# Elastic Compliance Matrix: (Units=1/GPa)
#
#
# Indices 1 2 3 4 5 6 
#
# 1 9.542409 -9.533460 -0.003537 0.000000 0.000000 -0.000018
# 2 -9.533460 9.542409 -0.003537 0.000000 0.000000 0.000018
# 3 -0.003537 -0.003537 0.013128 0.000000 0.000000 0.000000
# 4 0.000000 0.000000 0.000000 0.078556 0.000000 0.000000
# 5 0.000000 0.000000 0.000000 0.000000 0.078556 0.000000
# 6 -0.000018 0.000018 0.000000 0.000000 0.000000 38.151779
#
#
# Mechanical properties :
#
#
# Convention : Reuss Voigt Hill
#
# Bulk Modulus (GPa) = 59.24968 59.30838 59.27903
# Shear Modulus (GPa) = 0.06537 11.18716 5.62626
#
# Velocity S-wave (km/s) = 0.19264 2.52017 1.78723
# Velocity P-wave (km/s) = 5.80407 6.49149 6.15738
#
# Compressibility (1/GPa) = 0.01687773
#
# Stress axis : x y z
#
# Youngs Moduli (GPa) = 0.10480 0.10480 76.17400
#
# Poissons Ratio (x) = 0.99906 0.26942
# Poissons Ratio (y) = 0.99906 0.26942
# Poissons Ratio (z) = 0.00037 0.00037
#
# Static dielectric constant tensor:
#      x y z
#    x 1.659730 0.000000 0.000000 
#    y 0.000000 1.659730 0.000000 
#    z 0.000000 0.000000 0.121850 
# 
# From -- ./inp_files/461.got.cif
#   From: 2010.05.17/outbox.cif.g08.bks.cpg/sg182_1_cif.got.tgz:461.got - 2010.05.20 11:58:53.
