data_PCOD9584155
_publ_section_title
;
Structure prediction by ZEFSAII (Michael W. Deem and Ramdas Pophale) SiO2 
 PCOD9584155
Probable space group: P 62 2 2
;
_chemical_formula_sum "Si O2"
_cell_formula_units_Z 57
_cell_length_a 14.847099
_cell_length_b 14.847099
_cell_length_c 13.098295
_cell_angle_alpha 90.000000
_cell_angle_beta 90.000000
_cell_angle_gamma 120.000000
_cell_volume 2500.510070
_symmetry_space_group_name_H-M "P 62 2 2"
_symmetry_group_IT_number 180
_symmetry_cell_setting 'hexagonal'
loop_
_space_group_symop_operation_xyz
x,y,z
x-y,x,1/3+z
-y,x-y,2/3+z
-x,-y,z
-x+y,-x,1/3+z
y,-x+y,2/3+z
x-y,-y,-z
-x,-x+y,1/3-z
y,x,2/3-z
-y,-x,2/3-z
-x+y,y,-z
x,x-y,1/3-z
loop_
_atom_site_type_symbol
_atom_site_label
_atom_site_fract_x
_atom_site_fract_y
_atom_site_fract_z
Si Si1 0.562877 0.281439 0.666667
Si Si2 0.131332 0.262663 0.500000
Si Si3 0.282503 0.717498 0.833334
Si Si4 0.104853 0.898017 0.211928
Si Si5 0.275107 0.842173 0.518755
Si Si6 0.500000 0.000000 0.500000
Si Si7 0.291848 0.415784 0.351136
O O1 0.636956 0.267382 0.745377
O O2 0.489298 0.300220 0.742423
O O3 0.189257 0.197596 0.511476
O O4 0.181203 0.327975 0.397517
O O5 0.171762 0.673466 0.776194
O O6 0.104375 0.895626 0.333334
O O7 0.114554 0.802504 0.168314
O O8 0.000000 0.886134 0.166667
O O9 0.390475 0.924709 0.559384
O O10 0.202844 0.740936 0.588468
O O11 0.366814 0.366814 0.333334
#
# Coordination Sequence:
#
# PCOD9584155 Si02
#       7
#     6   6   6  12  12   3  12
#     4  12  26  52  73 106 147 200 262 334 402 490
#     4  11  25  42  72 108 156 204 250 323 395 476
#     4  11  25  48  79 105 151 205 256 337 423 480
#     4  12  25  44  72 108 157 205 261 317 395 478
#     4  12  25  46  75 109 153 201 262 328 397 480
#     4  12  26  44  74 110 152 204 260 326 388 486
#     4  11  24  47  77 111 152 201 262 334 405 494
#
# _framework density 22.795348000000001
#
# number of rings (size 3 to 8) (size 9 to 14) (size 15 to 20)
#    0.000    0.421    4.211    4.737    0.000    0.842 
#    3.789    3.684    0.000    0.000    0.000    0.000 
#    0.000    0.000    0.000    0.000    0.000    0.000 
#
# Total GULP energy -318396.035760 kJ/mol
# GULP energy per Si atom -5585.895364 kJ/mol
# Density = 2.274347 g / cm^3
# Si number density = 22.795348 Si / 1000 Ang^3
#
#
#
# Elastic Constant Matrix: (Units=GPa)
#
#
# Indices 1 2 3 4 5 6 
#
# 1 257.6971 -81.0701 42.4983 0.0000 0.0000 0.0000
# 2 -81.0701 257.6971 42.4983 0.0000 0.0000 0.0000
# 3 42.4983 42.4983 132.0723 0.0000 0.0000 0.0000
# 4 0.0000 0.0000 0.0000 -97.9537 0.0000 0.0000
# 5 0.0000 0.0000 0.0000 0.0000 -97.9537 0.0000
# 6 0.0000 0.0000 0.0000 0.0000 0.0000 169.3836
#
#
#
# Elastic Compliance Matrix: (Units=1/GPa)
#
#
# Indices 1 2 3 4 5 6 
#
# 1 0.004825 0.001874 -0.002156 0.000000 0.000000 0.000000
# 2 0.001874 0.004825 -0.002156 0.000000 0.000000 0.000000
# 3 -0.002156 -0.002156 0.008959 0.000000 0.000000 0.000000
# 4 0.000000 0.000000 0.000000 -0.010209 0.000000 0.000000
# 5 0.000000 0.000000 0.000000 0.000000 -0.010209 0.000000
# 6 0.000000 0.000000 0.000000 0.000000 0.000000 0.005904
#
#
# Mechanical properties :
#
#
# Convention : Reuss Voigt Hill
#
# Bulk Modulus (GPa) = 72.80982 72.81329 72.81155
# Shear Modulus (GPa) = 369.02774 37.59788 203.31281
#
# Velocity S-wave (km/s) = 12.73730 4.06565 9.45432
# Velocity P-wave (km/s) = 15.75844 7.35193 12.29592
#
# Compressibility (1/GPa) = 0.01373441
#
# Stress axis : x y z
#
# Youngs Moduli (GPa) = 207.23565 207.23565 111.62124
#
# Poissons Ratio (x) = -0.38827 0.24061
# Poissons Ratio (y) = -0.38827 0.24061
# Poissons Ratio (z) = 0.44672 0.44672
#
# Static dielectric constant tensor:
#      x y z
#    x 1.905950 0.000000 0.000000 
#    y 0.000000 1.905950 0.000000 
#    z 0.000000 0.000000 1.910010 
# 
# From -- ./inp_files/6196.got.cif
#   From: 2010.05.17/outbox.cif.g08.bks.cpg/sg180_4_cif.got.tgz:6196.got - 2010.05.20 11:43:55.
