data_PCOD9584984
_publ_section_title
;
Structure prediction by ZEFSAII (Michael W. Deem and Ramdas Pophale) SiO2 
 PCOD9584984
Probable space group: P 6 M M
;
_chemical_formula_sum "Si O2"
_cell_formula_units_Z 72
_cell_length_a 26.942316
_cell_length_b 26.942316
_cell_length_c 7.484235
_cell_angle_alpha 90.000000
_cell_angle_beta 90.000000
_cell_angle_gamma 120.000000
_cell_volume 4704.872930
_symmetry_space_group_name_H-M "P 6 M M"
_symmetry_group_IT_number 183
_symmetry_cell_setting 'hexagonal'
loop_
_space_group_symop_operation_xyz
x,y,z
x-y,x,z
-y,x-y,z
-x,-y,z
-x+y,-x,z
y,-x+y,z
-x+y,y,z
x,x-y,z
-y,-x,z
y,x,z
x-y,-y,z
-x,-x+y,z
loop_
_atom_site_type_symbol
_atom_site_label
_atom_site_fract_x
_atom_site_fract_y
_atom_site_fract_z
Si Si1 0.550967 0.333639 0.424890
Si Si2 0.821369 0.756005 0.848370
Si Si3 0.178633 0.243997 0.424498
Si Si4 0.666362 0.217329 0.847947
Si Si5 0.933173 0.670793 0.136431
Si Si6 0.831333 0.544271 0.136420
O O1 0.564910 0.282455 0.392341
O O2 0.605774 0.394227 0.376688
O O3 0.540185 0.333882 0.636418
O O4 0.495578 0.317969 0.307472
O O5 0.886110 0.772219 0.890438
O O6 0.804731 0.804731 0.888168
O O7 0.812402 0.743663 0.636435
O O8 0.778195 0.701438 0.965372
O O9 0.113893 0.227785 0.382428
O O10 0.195271 0.195271 0.384698
O O11 0.221808 0.298565 0.307499
O O12 0.605773 0.211546 0.896148
O O13 0.717545 0.282456 0.880495
O O14 0.682033 0.177610 0.965365
O O15 0.889895 0.603669 0.136423
O O16 0.000000 0.689367 0.136430
O O17 0.778386 0.556771 0.136423
#
# Coordination Sequence:
#
# PCOD9584984 Si02
#       6
#    12  12  12  12  12  12
#     4   9  17  29  46  68  93 119 144 172 212 265
#     4   9  17  29  46  67  90 117 148 182 221 266
#     4   9  17  29  46  67  90 117 148 182 221 266
#     4   9  17  29  46  68  93 119 144 172 212 265
#     4  10  20  33  47  64  88 119 154 190 227 263
#     4  10  19  29  44  68  92 113 143 184 225 261
#
# _framework density 15.303283
#
# number of rings (size 3 to 8) (size 9 to 14) (size 15 to 20)
#    0.000    2.667    0.000    2.333    0.000    2.667 
#    0.000    5.000    0.000    2.333    0.000    4.667 
#    0.000    4.000    0.000    0.333    0.000    0.000 
#
# Total GULP energy -401295.522244 kJ/mol
# GULP energy per Si atom -5573.548920 kJ/mol
# Density = 1.526845 g / cm^3
# Si number density = 15.303283 Si / 1000 Ang^3
#
#
#
# Elastic Constant Matrix: (Units=GPa)
#
#
# Indices 1 2 3 4 5 6 
#
# 1 125.8016 82.7769 52.9458 0.0000 0.0000 0.0000
# 2 82.7769 125.8016 52.9458 0.0000 0.0000 0.0000
# 3 52.9458 52.9458 60.7768 0.0000 0.0000 0.0000
# 4 0.0000 0.0000 0.0000 16.8664 0.0000 0.0000
# 5 0.0000 0.0000 0.0000 0.0000 16.8664 0.0000
# 6 0.0000 0.0000 0.0000 0.0000 0.0000 21.5124
#
#
#
# Elastic Compliance Matrix: (Units=1/GPa)
#
#
# Indices 1 2 3 4 5 6 
#
# 1 0.015919 -0.007323 -0.007489 0.000000 0.000000 0.000000
# 2 -0.007323 0.015919 -0.007489 0.000000 0.000000 0.000000
# 3 -0.007489 -0.007489 0.029501 0.000000 0.000000 0.000000
# 4 0.000000 0.000000 0.000000 0.059289 0.000000 0.000000
# 5 0.000000 0.000000 0.000000 0.000000 0.059289 0.000000
# 6 0.000000 0.000000 0.000000 0.000000 0.000000 0.046485
#
#
# Mechanical properties :
#
#
# Convention : Reuss Voigt Hill
#
# Bulk Modulus (GPa) = 59.74043 76.63520 68.18782
# Shear Modulus (GPa) = 18.07772 19.29648 18.68710
#
# Velocity S-wave (km/s) = 3.44073 3.55482 3.49824
# Velocity P-wave (km/s) = 7.40994 8.18751 7.80841
#
# Compressibility (1/GPa) = 0.01673908
#
# Stress axis : x y z
#
# Youngs Moduli (GPa) = 62.81680 62.81680 33.89714
#
# Poissons Ratio (x) = 0.46002 0.25384
# Poissons Ratio (y) = 0.46002 0.25384
# Poissons Ratio (z) = 0.47041 0.47041
#
# Static dielectric constant tensor:
#      x y z
#    x 1.485970 0.000000 0.000000 
#    y 0.000000 1.485970 0.000000 
#    z 0.000000 0.000000 1.535900 
# 
# From -- ./inp_files/1184.got.cif
#   From: 2010.05.17/outbox.cif.g08.bks.cpg/sg183_1_cif.got.tgz:1184.got - 2010.05.20 12:02:58.
