data_PCOD9584701
_publ_section_title
;
Structure prediction by ZEFSAII (Michael W. Deem and Ramdas Pophale) SiO2 
 PCOD9584701
Probable space group: P 63 2 2
;
_chemical_formula_sum "Si O2"
_cell_formula_units_Z 48
_cell_length_a 14.416834
_cell_length_b 14.416834
_cell_length_c 12.171038
_cell_angle_alpha 90.000000
_cell_angle_beta 90.000000
_cell_angle_gamma 120.000000
_cell_volume 2190.776359
_symmetry_space_group_name_H-M "P 63 2 2"
_symmetry_group_IT_number 182
_symmetry_cell_setting 'hexagonal'
loop_
_space_group_symop_operation_xyz
x,y,z
x-y,x,1/2+z
-y,x-y,z
-x,-y,1/2+z
-x+y,-x,z
y,-x+y,1/2+z
x-y,-y,-z
-x,-x+y,-z
y,x,-z
-y,-x,1/2-z
-x+y,y,1/2-z
x,x-y,1/2-z
loop_
_atom_site_type_symbol
_atom_site_label
_atom_site_fract_x
_atom_site_fract_y
_atom_site_fract_z
Si Si1 0.159214 0.498590 0.326203
Si Si2 0.437756 0.876955 0.955969
Si Si3 0.352910 0.298268 0.162488
Si Si4 0.903106 0.661903 0.414282
O O1 0.251405 0.502809 0.250000
O O2 0.108160 0.554080 0.250000
O O3 0.191032 0.560200 0.440903
O O4 0.069731 0.379386 0.358768
O O5 0.518141 0.883833 0.860364
O O6 0.319715 0.854173 0.931988
O O7 0.497042 0.000000 0.000000
O O8 0.323949 0.266662 0.288872
O O9 0.311457 0.192542 0.088951
O O10 0.000000 0.725460 0.500000
#
# Coordination Sequence:
#
# PCOD9584701 Si02
#       4
#    12  12  12  12
#     4  11  23  38  61  87 127 178 232 284 343 418
#     4   9  19  35  56  82 120 165 212 267 326 401
#     4  10  21  37  59  89 123 173 222 271 348 408
#     4  10  20  36  62  86 126 172 218 279 336 417
#
# _framework density 21.910039999999999
#
# number of rings (size 3 to 8) (size 9 to 14) (size 15 to 20)
#    0.000    2.000    0.000    5.500    7.000    0.000 
#    1.500    0.000    5.500    0.000    0.000    0.000 
#   10.000   24.000    0.000    0.750    0.000    5.500 
#
# Total GULP energy -267848.799760 kJ/mol
# GULP energy per Si atom -5580.183328 kJ/mol
# Density = 2.186017 g / cm^3
# Si number density = 21.910040 Si / 1000 Ang^3
#
#
#
# Elastic Constant Matrix: (Units=GPa)
#
#
# Indices 1 2 3 4 5 6 
#
# 1 82.2879 36.0145 39.2928 0.0000 0.0000 0.0000
# 2 36.0145 82.2879 39.2928 0.0000 0.0000 0.0000
# 3 39.2928 39.2928 124.1063 0.0000 0.0000 0.0000
# 4 0.0000 0.0000 0.0000 28.2406 0.0000 0.0000
# 5 0.0000 0.0000 0.0000 0.0000 28.2406 0.0000
# 6 0.0000 0.0000 0.0000 0.0000 0.0000 23.1367
#
#
#
# Elastic Compliance Matrix: (Units=1/GPa)
#
#
# Indices 1 2 3 4 5 6 
#
# 1 0.016157 -0.005453 -0.003389 0.000000 0.000000 0.000000
# 2 -0.005453 0.016157 -0.003389 0.000000 0.000000 0.000000
# 3 -0.003389 -0.003389 0.010204 0.000000 0.000000 0.000000
# 4 0.000000 0.000000 0.000000 0.035410 0.000000 0.000000
# 5 0.000000 0.000000 0.000000 0.000000 0.035410 0.000000
# 6 0.000000 0.000000 0.000000 0.000000 0.000000 0.043221
#
#
# Mechanical properties :
#
#
# Convention : Reuss Voigt Hill
#
# Bulk Modulus (GPa) = 55.38364 57.54247 56.46305
# Shear Modulus (GPa) = 26.73210 27.52903 27.13057
#
# Velocity S-wave (km/s) = 3.49676 3.54850 3.52272
# Velocity P-wave (km/s) = 6.45258 6.56576 6.50941
#
# Compressibility (1/GPa) = 0.01805587
#
# Stress axis : x y z
#
# Youngs Moduli (GPa) = 61.89106 61.89106 98.00504
#
# Poissons Ratio (x) = 0.33751 0.33214
# Poissons Ratio (y) = 0.33751 0.33214
# Poissons Ratio (z) = 0.20975 0.20975
#
# Static dielectric constant tensor:
#      x y z
#    x 1.874430 0.000000 0.000000 
#    y 0.000000 1.874430 0.000000 
#    z 0.000000 0.000000 1.842610 
# 
# From -- ./inp_files/2380.got.cif
#   From: 2010.05.17/outbox.cif.g08.bks.cpg/sg182_2_cif.got.tgz:2380.got - 2010.05.20 11:58:53.
