data_PCOD9584895
_publ_section_title
;
Structure prediction by ZEFSAII (Michael W. Deem and Ramdas Pophale) SiO2 
 PCOD9584895
Probable space group: P 63 2 2
;
_chemical_formula_sum "Si O2"
_cell_formula_units_Z 72
_cell_length_a 14.328983
_cell_length_b 14.328983
_cell_length_c 19.187599
_cell_angle_alpha 90.000000
_cell_angle_beta 90.000000
_cell_angle_gamma 120.000000
_cell_volume 3411.787708
_symmetry_space_group_name_H-M "P 63 2 2"
_symmetry_group_IT_number 182
_symmetry_cell_setting 'hexagonal'
loop_
_space_group_symop_operation_xyz
x,y,z
x-y,x,1/2+z
-y,x-y,z
-x,-y,1/2+z
-x+y,-x,z
y,-x+y,1/2+z
x-y,-y,-z
-x,-x+y,-z
y,x,-z
-y,-x,1/2-z
-x+y,y,1/2-z
x,x-y,1/2-z
loop_
_atom_site_type_symbol
_atom_site_label
_atom_site_fract_x
_atom_site_fract_y
_atom_site_fract_z
Si Si1 0.579205 0.489702 0.173093
Si Si2 0.820513 0.571565 0.133577
Si Si3 0.233153 0.808538 0.468361
Si Si4 0.434085 0.914887 0.061900
Si Si5 0.058691 0.185743 0.074620
Si Si6 0.079547 0.880022 0.829814
O O1 0.533160 0.466840 0.250000
O O2 0.706775 0.538584 0.169007
O O3 0.523343 0.371000 0.139374
O O4 0.537984 0.558148 0.131174
O O5 0.910578 0.683781 0.167597
O O6 0.815905 0.587716 0.051497
O O7 0.185728 0.684132 0.448599
O O8 0.355318 0.879159 0.442345
O O9 0.153213 0.847506 0.440095
O O10 0.458463 0.000000 0.000000
O O11 0.114003 0.132104 0.121530
O O12 0.969267 0.181969 0.126845
O O13 0.000000 0.133472 0.000000
O O14 0.083519 0.916482 0.750000
#
# Coordination Sequence:
#
# PCOD9584895 Si02
#       6
#    12  12  12  12  12  12
#     4  12  25  42  67 103 139 180 217 272 344 399
#     4  12  23  42  68 100 139 172 222 277 331 400
#     4  12  24  43  71 104 128 172 229 274 332 386
#     4  12  24  44  70  97 138 173 221 276 327 402
#     4  12  25  43  69  94 131 175 223 274 324 392
#     4  12  26  44  65  97 135 176 220 273 333 394
#
# _framework density 21.103307000000001
#
# number of rings (size 3 to 8) (size 9 to 14) (size 15 to 20)
#    0.000    0.000    5.000    6.000    0.000    0.000 
#    0.000    2.500    0.000    0.000    0.000    0.000 
#    0.000    0.000    0.000    0.000    0.000    0.000 
#
# Total GULP energy -402850.833411 kJ/mol
# GULP energy per Si atom -5595.150464 kJ/mol
# Density = 2.105527 g / cm^3
# Si number density = 21.103307 Si / 1000 Ang^3
#
#
#
# Elastic Constant Matrix: (Units=GPa)
#
#
# Indices 1 2 3 4 5 6 
#
# 1 67.8555 14.5154 17.8292 0.0000 0.0000 0.0000
# 2 14.5154 67.8555 17.8292 0.0000 0.0000 0.0000
# 3 17.8292 17.8292 115.5092 0.0000 0.0000 0.0000
# 4 0.0000 0.0000 0.0000 22.2031 0.0000 0.0000
# 5 0.0000 0.0000 0.0000 0.0000 22.2031 0.0000
# 6 0.0000 0.0000 0.0000 0.0000 0.0000 26.6701
#
#
#
# Elastic Compliance Matrix: (Units=1/GPa)
#
#
# Indices 1 2 3 4 5 6 
#
# 1 0.015879 -0.002869 -0.002008 0.000000 0.000000 0.000000
# 2 -0.002869 0.015879 -0.002008 0.000000 0.000000 0.000000
# 3 -0.002008 -0.002008 0.009277 0.000000 0.000000 0.000000
# 4 0.000000 0.000000 0.000000 0.045039 0.000000 0.000000
# 5 0.000000 0.000000 0.000000 0.000000 0.045039 0.000000
# 6 0.000000 0.000000 0.000000 0.000000 0.000000 0.037495
#
#
# Mechanical properties :
#
#
# Convention : Reuss Voigt Hill
#
# Bulk Modulus (GPa) = 36.67839 39.06306 37.87073
# Shear Modulus (GPa) = 26.11439 27.61835 26.86637
#
# Velocity S-wave (km/s) = 3.52156 3.62155 3.57191
# Velocity P-wave (km/s) = 5.82695 6.00317 5.91572
#
# Compressibility (1/GPa) = 0.02726401
#
# Stress axis : x y z
#
# Youngs Moduli (GPa) = 62.97800 62.97800 107.79092
#
# Poissons Ratio (x) = 0.18069 0.21645
# Poissons Ratio (y) = 0.18069 0.21645
# Poissons Ratio (z) = 0.12646 0.12646
#
# Static dielectric constant tensor:
#      x y z
#    x 1.783040 0.000000 0.000000 
#    y 0.000000 1.783040 0.000000 
#    z 0.000000 0.000000 1.812430 
# 
# From -- ./inp_files/4342.got.cif
#   From: 2010.05.17/outbox.cif.g08.bks.cpg/sg182_3_cif.got.tgz:4342.got - 2010.05.20 11:58:53.
