data_PCOD9584090
_publ_section_title
;
Structure prediction by ZEFSAII (Michael W. Deem and Ramdas Pophale) SiO2 
 PCOD9584090
Probable space group: P 62 2 2
;
_chemical_formula_sum "Si O2"
_cell_formula_units_Z 60
_cell_length_a 19.412539
_cell_length_b 19.412539
_cell_length_c 11.067943
_cell_angle_alpha 90.000000
_cell_angle_beta 90.000000
_cell_angle_gamma 120.000000
_cell_volume 3612.120484
_symmetry_space_group_name_H-M "P 62 2 2"
_symmetry_group_IT_number 180
_symmetry_cell_setting 'hexagonal'
loop_
_space_group_symop_operation_xyz
x,y,z
x-y,x,1/3+z
-y,x-y,2/3+z
-x,-y,z
-x+y,-x,1/3+z
y,-x+y,2/3+z
x-y,-y,-z
-x,-x+y,1/3-z
y,x,2/3-z
-y,-x,2/3-z
-x+y,y,-z
x,x-y,1/3-z
loop_
_atom_site_type_symbol
_atom_site_label
_atom_site_fract_x
_atom_site_fract_y
_atom_site_fract_z
Si Si1 0.419070 0.999168 0.143373
Si Si2 0.091729 0.627615 0.161670
Si Si3 0.283355 0.438411 0.070433
Si Si4 0.167712 0.474523 0.425296
Si Si5 0.649198 0.251031 0.138631
O O1 0.429790 0.082926 0.178606
O O2 0.500000 0.000000 0.191163
O O3 0.334073 0.928072 0.189672
O O4 0.424959 0.000000 0.000000
O O5 0.085799 0.542900 0.166667
O O6 0.135214 0.664344 0.285220
O O7 0.000000 0.608890 0.166667
O O8 0.141718 0.682679 0.048620
O O9 0.296293 0.511370 0.156044
O O10 0.197199 0.394397 0.000000
O O11 0.226650 0.453299 0.500000
O O12 0.208138 0.569285 0.447646
O O13 0.688637 0.344319 0.166667
O O14 0.618021 0.236042 0.000000
#
# Coordination Sequence:
#
# PCOD9584090 Si02
#       5
#    12  12  12  12  12
#     4  11  21  39  57  74 104 144 184 226 283 347
#     4  11  21  39  57  75 104 141 185 233 291 349
#     4  12  25  35  56  80 102 136 185 236 289 335
#     4  11  23  37  55  76 101 139 184 228 284 341
#     4  11  23  37  49  71 105 139 177 230 290 338
#
# _framework density 16.610741999999998
#
# number of rings (size 3 to 8) (size 9 to 14) (size 15 to 20)
#    0.000    0.800    6.000    1.800    8.400    0.800 
#    0.000    0.000    0.000    0.000    0.000    0.000 
#    0.000    0.000    0.000    0.000    0.000   10.000 
#
# Total GULP energy -334044.516840 kJ/mol
# GULP energy per Si atom -5567.408614 kJ/mol
# Density = 1.657293 g / cm^3
# Si number density = 16.610742 Si / 1000 Ang^3
#
#
#
# Elastic Constant Matrix: (Units=GPa)
#
#
# Indices 1 2 3 4 5 6 
#
# 1 77.1831 43.1476 22.5204 0.0000 0.0000 0.0000
# 2 43.1476 77.1831 22.5204 0.0000 0.0000 0.0000
# 3 22.5204 22.5204 116.8289 0.0000 0.0000 0.0000
# 4 0.0000 0.0000 0.0000 27.7363 0.0000 0.0000
# 5 0.0000 0.0000 0.0000 0.0000 27.7363 0.0000
# 6 0.0000 0.0000 0.0000 0.0000 0.0000 17.0177
#
#
#
# Elastic Compliance Matrix: (Units=1/GPa)
#
#
# Indices 1 2 3 4 5 6 
#
# 1 0.019169 -0.010212 -0.001727 0.000000 0.000000 0.000000
# 2 -0.010212 0.019169 -0.001727 0.000000 0.000000 0.000000
# 3 -0.001727 -0.001727 0.009225 0.000000 0.000000 0.000000
# 4 0.000000 0.000000 0.000000 0.036054 0.000000 0.000000
# 5 0.000000 0.000000 0.000000 0.000000 0.036054 0.000000
# 6 0.000000 0.000000 0.000000 0.000000 0.000000 0.058762
#
#
# Mechanical properties :
#
#
# Convention : Reuss Voigt Hill
#
# Bulk Modulus (GPa) = 49.42565 49.73022 49.57793
# Shear Modulus (GPa) = 23.52858 26.69852 25.11355
#
# Velocity S-wave (km/s) = 3.76768 4.01347 3.89252
# Velocity P-wave (km/s) = 6.98191 7.17501 7.07912
#
# Compressibility (1/GPa) = 0.02023241
#
# Stress axis : x y z
#
# Youngs Moduli (GPa) = 52.16782 52.16782 108.39935
#
# Poissons Ratio (x) = 0.53275 0.18715
# Poissons Ratio (y) = 0.53275 0.18715
# Poissons Ratio (z) = 0.09007 0.09007
#
# Static dielectric constant tensor:
#      x y z
#    x 1.623260 0.000000 0.000000 
#    y 0.000000 1.623260 0.000000 
#    z 0.000000 0.000000 1.601450 
# 
# From -- ./inp_files/4823.got.cif
#   From: 2010.05.17/outbox.cif.g08.bks.cpg/sg180_3_cif.got.tgz:4823.got - 2010.05.20 11:43:55.
