data_PCOD9584550
_publ_section_title
;
Structure prediction by ZEFSAII (Michael W. Deem and Ramdas Pophale) SiO2 
 PCOD9584550
Probable space group: P 64 2 2
;
_chemical_formula_sum "Si O2"
_cell_formula_units_Z 69
_cell_length_a 26.538606
_cell_length_b 26.538606
_cell_length_c 5.934091
_cell_angle_alpha 90.000000
_cell_angle_beta 90.000000
_cell_angle_gamma 120.000000
_cell_volume 3619.437214
_symmetry_space_group_name_H-M "P 64 2 2"
_symmetry_group_IT_number 181
_symmetry_cell_setting 'hexagonal'
loop_
_space_group_symop_operation_xyz
x,y,z
x-y,x,2/3+z
-y,x-y,1/3+z
-x,-y,z
-x+y,-x,2/3+z
y,-x+y,1/3+z
x-y,-y,-z
-x,-x+y,2/3-z
y,x,1/3-z
-y,-x,1/3-z
-x+y,y,-z
x,x-y,2/3-z
loop_
_atom_site_type_symbol
_atom_site_label
_atom_site_fract_x
_atom_site_fract_y
_atom_site_fract_z
Si Si1 0.212421 0.787580 0.666667
Si Si2 0.314254 0.314254 0.666667
Si Si3 0.630204 0.000000 0.500000
Si Si4 0.523272 0.707453 0.944377
Si Si5 0.500000 0.500000 0.666667
Si Si6 0.494202 0.409870 0.324604
Si Si7 0.798101 0.400798 0.581863
Si Si8 0.126554 0.771616 0.284438
O O1 0.270298 0.805241 0.530973
O O2 0.158589 0.775782 0.515158
O O3 0.342283 0.342123 0.416115
O O4 0.253234 0.312624 0.651921
O O5 0.624912 0.058353 0.525971
O O6 0.506767 0.753384 0.833334
O O7 0.471061 0.643231 0.915643
O O8 0.586372 0.724932 0.847709
O O9 0.483445 0.441850 0.530483
O O10 0.535272 0.384719 0.409302
O O11 0.537308 0.462693 0.166667
O O12 0.768070 0.384035 0.333334
O O13 0.768261 0.384131 0.833334
O O14 0.166152 0.833849 0.166667
#
# Coordination Sequence:
#
# PCOD9584550 Si02
#       8
#     6   6   6  12   3  12  12  12
#     4   8  18  40  68  80 114 153 204 259 298 364
#     4  12  29  38  67  94 126 168 214 249 312 369
#     4  12  27  38  54  88 130 166 204 254 299 388
#     4   9  21  40  62  82 110 148 202 255 312 378
#     4  12  16  36  48  62 108 164 184 210 284 360
#     4  11  23  35  48  71 117 158 189 230 298 367
#     4  11  26  36  57  85 108 144 190 240 312 390
#     4   9  22  41  63  91 122 162 210 261 304 356
#
# _framework density 19.063737
#
# number of rings (size 3 to 8) (size 9 to 14) (size 15 to 20)
#    0.000    2.087    2.609    0.522   17.043    0.000 
#    0.000    0.000    0.000    1.043    0.000    0.000 
#    0.000    0.000    0.000    0.000    0.000    4.348 
#
# Total GULP energy -384307.936270 kJ/mol
# GULP energy per Si atom -5569.680236 kJ/mol
# Density = 1.902035 g / cm^3
# Si number density = 19.063737 Si / 1000 Ang^3
#
#
#
# Elastic Constant Matrix: (Units=GPa)
#
#
# Indices 1 2 3 4 5 6 
#
# 1 82.3538 34.0390 28.0165 0.0000 0.0000 0.0000
# 2 34.0390 82.3538 28.0165 0.0000 0.0000 0.0000
# 3 28.0165 28.0165 142.0685 0.0000 0.0000 0.0000
# 4 0.0000 0.0000 0.0000 -19.7460 0.0000 0.0000
# 5 0.0000 0.0000 0.0000 0.0000 -19.7460 0.0000
# 6 0.0000 0.0000 0.0000 0.0000 0.0000 24.1574
#
#
#
# Elastic Compliance Matrix: (Units=1/GPa)
#
#
# Indices 1 2 3 4 5 6 
#
# 1 0.015095 -0.005602 -0.001872 0.000000 0.000000 0.000000
# 2 -0.005602 0.015095 -0.001872 0.000000 0.000000 0.000000
# 3 -0.001872 -0.001872 0.007777 0.000000 0.000000 0.000000
# 4 0.000000 0.000000 0.000000 -0.050643 0.000000 0.000000
# 5 0.000000 0.000000 0.000000 0.000000 -0.050643 0.000000
# 6 0.000000 0.000000 0.000000 0.000000 0.000000 0.041395
#
#
# Mechanical properties :
#
#
# Convention : Reuss Voigt Hill
#
# Bulk Modulus (GPa) = 51.88135 54.10220 52.99178
# Shear Modulus (GPa) = 1565.29461 11.38002 788.33731
#
# Velocity S-wave (km/s) = 28.68567 2.44590 20.35743
# Velocity P-wave (km/s) = 33.53253 6.03472 24.09199
#
# Compressibility (1/GPa) = 0.01927475
#
# Stress axis : x y z
#
# Youngs Moduli (GPa) = 66.24622 66.24622 128.58100
#
# Poissons Ratio (x) = 0.37114 0.24071
# Poissons Ratio (y) = 0.37114 0.24071
# Poissons Ratio (z) = 0.12401 0.12401
#
# Static dielectric constant tensor:
#      x y z
#    x 1.678950 0.000000 0.000000 
#    y 0.000000 1.678950 0.000000 
#    z 0.000000 0.000000 1.869540 
# 
# From -- ./inp_files/1588.got.cif
#   From: 2010.05.17/outbox.cif.g08.bks.cpg/sg181_1_cif.got.tgz:1588.got - 2010.05.20 11:51:17.
