data_PCOD9584038
_publ_section_title
;
Structure prediction by ZEFSAII (Michael W. Deem and Ramdas Pophale) SiO2 
 PCOD9584038
Probable space group: P 62 2 2
;
_chemical_formula_sum "Si O2"
_cell_formula_units_Z 57
_cell_length_a 13.528172
_cell_length_b 13.528172
_cell_length_c 15.226316
_cell_angle_alpha 90.000000
_cell_angle_beta 90.000000
_cell_angle_gamma 120.000000
_cell_volume 2413.257714
_symmetry_space_group_name_H-M "P 62 2 2"
_symmetry_group_IT_number 180
_symmetry_cell_setting 'hexagonal'
loop_
_space_group_symop_operation_xyz
x,y,z
x-y,x,1/3+z
-y,x-y,2/3+z
-x,-y,z
-x+y,-x,1/3+z
y,-x+y,2/3+z
x-y,-y,-z
-x,-x+y,1/3-z
y,x,2/3-z
-y,-x,2/3-z
-x+y,y,-z
x,x-y,1/3-z
loop_
_atom_site_type_symbol
_atom_site_label
_atom_site_fract_x
_atom_site_fract_y
_atom_site_fract_z
Si Si1 0.799414 0.987949 0.305550
Si Si2 0.500000 0.500000 0.833334
Si Si3 0.721768 0.721768 0.333334
Si Si4 0.915037 0.615851 0.832831
Si Si5 0.232967 0.608181 0.414466
Si Si6 0.292647 0.414468 0.715637
O O1 0.929059 0.070942 0.333334
O O2 0.770590 0.036673 0.219619
O O3 0.753919 0.852890 0.309240
O O4 0.710188 0.990156 0.374397
O O5 0.404636 0.488401 0.768329
O O6 0.648985 0.648187 0.417483
O O7 0.868280 0.502262 0.890847
O O8 0.806590 0.594429 0.775958
O O9 0.309513 0.690488 0.333334
O O10 0.310527 0.621054 0.500000
O O11 0.173428 0.479387 0.375793
#
# Coordination Sequence:
#
# PCOD9584038 Si02
#       6
#    12   3   6  12  12  12
#     4  11  23  44  68 101 142 194 244 303 367 431
#     4  12  20  40  64 100 140 180 252 296 364 422
#     4  10  25  42  72 105 142 196 255 310 379 438
#     4  11  23  44  68 102 150 189 249 312 367 448
#     4  12  24  46  73 109 147 200 249 309 385 451
#     4  11  24  40  68 105 137 194 245 304 361 447
#
# _framework density 23.619524999999999
#
# number of rings (size 3 to 8) (size 9 to 14) (size 15 to 20)
#    0.000    0.842    2.105    5.368    0.000    5.895 
#    0.000    6.316    0.000    0.000    0.000    0.000 
#    0.000    0.000    0.000    0.000    0.000    0.000 
#
# Total GULP energy -317687.131794 kJ/mol
# GULP energy per Si atom -5573.458453 kJ/mol
# Density = 2.356577 g / cm^3
# Si number density = 23.619525 Si / 1000 Ang^3
#
#
#
# Elastic Constant Matrix: (Units=GPa)
#
#
# Indices 1 2 3 4 5 6 
#
# 1 75.7912 27.2366 36.3747 0.0000 0.0000 0.0000
# 2 27.2366 75.7912 36.3747 0.0000 0.0000 0.0000
# 3 36.3747 36.3747 111.6613 0.0000 0.0000 0.0000
# 4 0.0000 0.0000 0.0000 25.6169 0.0000 0.0000
# 5 0.0000 0.0000 0.0000 0.0000 25.6169 0.0000
# 6 0.0000 0.0000 0.0000 0.0000 0.0000 24.2773
#
#
#
# Elastic Compliance Matrix: (Units=1/GPa)
#
#
# Indices 1 2 3 4 5 6 
#
# 1 0.016601 -0.003995 -0.004106 0.000000 0.000000 0.000000
# 2 -0.003995 0.016601 -0.004106 0.000000 0.000000 0.000000
# 3 -0.004106 -0.004106 0.011631 0.000000 0.000000 0.000000
# 4 0.000000 0.000000 0.000000 0.039037 0.000000 0.000000
# 5 0.000000 0.000000 0.000000 0.000000 0.039037 0.000000
# 6 0.000000 0.000000 0.000000 0.000000 0.000000 0.041191
#
#
# Mechanical properties :
#
#
# Convention : Reuss Voigt Hill
#
# Bulk Modulus (GPa) = 48.97929 51.46842 50.22385
# Shear Modulus (GPa) = 25.59935 25.98605 25.79270
#
# Velocity S-wave (km/s) = 3.29572 3.32052 3.30814
# Velocity P-wave (km/s) = 5.93836 6.04475 5.99179
#
# Compressibility (1/GPa) = 0.02041679
#
# Stress axis : x y z
#
# Youngs Moduli (GPa) = 60.23895 60.23895 85.97660
#
# Poissons Ratio (x) = 0.24064 0.35306
# Poissons Ratio (y) = 0.24064 0.35306
# Poissons Ratio (z) = 0.24737 0.24737
#
# Static dielectric constant tensor:
#      x y z
#    x 1.991510 0.000000 0.000000 
#    y 0.000000 1.991510 0.000000 
#    z 0.000000 0.000000 1.983180 
# 
# From -- ./inp_files/6160.got.cif
#   From: 2010.05.17/outbox.cif.g08.bks.cpg/sg180_4_cif.got.tgz:6160.got - 2010.05.20 11:43:55.
