data_PCOD9584930
_publ_section_title
;
Structure prediction by ZEFSAII (Michael W. Deem and Ramdas Pophale) SiO2 
 PCOD9584930
Probable space group: P 6 M M
;
_chemical_formula_sum "Si O2"
_cell_formula_units_Z 96
_cell_length_a 18.737009
_cell_length_b 18.737009
_cell_length_c 20.777013
_cell_angle_alpha 90.000000
_cell_angle_beta 90.000000
_cell_angle_gamma 120.000000
_cell_volume 6317.049413
_symmetry_space_group_name_H-M "P 6 M M"
_symmetry_group_IT_number 183
_symmetry_cell_setting 'hexagonal'
loop_
_space_group_symop_operation_xyz
x,y,z
x-y,x,z
-y,x-y,z
-x,-y,z
-x+y,-x,z
y,-x+y,z
-x+y,y,z
x,x-y,z
-y,-x,z
y,x,z
x-y,-y,z
-x,-x+y,z
loop_
_atom_site_type_symbol
_atom_site_label
_atom_site_fract_x
_atom_site_fract_y
_atom_site_fract_z
Si Si1 0.901354 0.368386 0.270350
Si Si2 0.361286 0.263782 0.151877
Si Si3 0.901126 0.532433 0.540895
Si Si4 0.630489 0.532121 0.904926
Si Si5 0.167619 0.667485 0.046405
Si Si6 0.650513 0.745443 0.798116
Si Si7 0.095654 0.743611 0.648955
Si Si8 0.830376 0.331154 0.406179
O O1 0.871711 0.435856 0.258881
O O2 0.882142 0.304483 0.212982
O O3 0.867807 0.324179 0.338786
O O4 0.000000 0.421369 0.274752
O O5 0.332570 0.166285 0.149774
O O6 0.292162 0.292162 0.154625
O O7 0.420693 0.307057 0.090592
O O8 0.871520 0.435760 0.549757
O O9 0.880340 0.572519 0.600624
O O10 0.868103 0.545634 0.473000
O O11 0.000000 0.579366 0.536703
O O12 0.558474 0.441527 0.885092
O O13 0.585600 0.585600 0.917205
O O14 0.695112 0.577463 0.848360
O O15 0.667569 0.523322 0.971830
O O16 0.153631 0.576816 0.061209
O O17 0.262388 0.737613 0.056809
O O18 0.683101 0.841551 0.806430
O O19 0.718200 0.718200 0.809074
O O20 0.622160 0.723845 0.723848
O O21 0.160139 0.839862 0.639756
O O22 0.000000 0.714843 0.637011
O O23 0.847448 0.423724 0.406723
O O24 0.734417 0.265584 0.406181
#
# Coordination Sequence:
#
# PCOD9584930 Si02
#       8
#    12  12  12  12  12  12  12  12
#     4   9  17  29  45  64  86 113 143 174 210 251
#     4  10  20  33  49  68  89 114 145 181 220 261
#     4   9  17  28  42  60  81 107 140 177 216 256
#     4   9  17  28  43  64  88 115 148 183 216 250
#     4  10  19  30  45  66  93 123 152 181 212 248
#     4   9  17  29  45  64  86 112 143 179 218 260
#     4   9  17  29  45  64  85 110 141 178 219 262
#     4  10  18  27  39  56  81 112 144 175 206 242
#
# _framework density 15.196968
#
# number of rings (size 3 to 8) (size 9 to 14) (size 15 to 20)
#    0.000    2.625    0.000    2.500    0.000    3.250 
#    0.000    2.500    0.000    4.875    0.000    1.750 
#    0.000    0.000    0.000    4.000    0.000   28.750 
#
# Total GULP energy -534430.301912 kJ/mol
# GULP energy per Si atom -5566.982312 kJ/mol
# Density = 1.516238 g / cm^3
# Si number density = 15.196968 Si / 1000 Ang^3
#
#
#
# Elastic Constant Matrix: (Units=GPa)
#
#
# Indices 1 2 3 4 5 6 
#
# 1 60.7838 35.1455 41.1888 0.0000 0.0000 0.0000
# 2 35.1455 60.7838 41.1888 0.0000 0.0000 0.0000
# 3 41.1888 41.1888 82.3570 0.0000 0.0000 0.0000
# 4 0.0000 0.0000 0.0000 17.8256 0.0000 0.0000
# 5 0.0000 0.0000 0.0000 0.0000 17.8256 0.0000
# 6 0.0000 0.0000 0.0000 0.0000 0.0000 12.8192
#
#
#
# Elastic Compliance Matrix: (Units=1/GPa)
#
#
# Indices 1 2 3 4 5 6 
#
# 1 0.028638 -0.010366 -0.009138 0.000000 0.000000 0.000000
# 2 -0.010366 0.028638 -0.009138 0.000000 0.000000 0.000000
# 3 -0.009138 -0.009138 0.021283 0.000000 0.000000 0.000000
# 4 0.000000 0.000000 0.000000 0.056099 0.000000 0.000000
# 5 0.000000 0.000000 0.000000 0.000000 0.056099 0.000000
# 6 0.000000 0.000000 0.000000 0.000000 0.000000 0.078008
#
#
# Mechanical properties :
#
#
# Convention : Reuss Voigt Hill
#
# Bulk Modulus (GPa) = 47.00706 48.77455 47.89080
# Shear Modulus (GPa) = 15.00871 15.45420 15.23145
#
# Velocity S-wave (km/s) = 3.14604 3.19239 3.16930
# Velocity P-wave (km/s) = 6.64799 6.76410 6.70630
#
# Compressibility (1/GPa) = 0.02127340
#
# Stress axis : x y z
#
# Youngs Moduli (GPa) = 34.91892 34.91892 46.98688
#
# Poissons Ratio (x) = 0.36198 0.42937
# Poissons Ratio (y) = 0.36198 0.42937
# Poissons Ratio (z) = 0.31909 0.31909
#
# Static dielectric constant tensor:
#      x y z
#    x 1.497550 0.000000 0.000000 
#    y 0.000000 1.497550 0.000000 
#    z 0.000000 0.000000 1.517790 
# 
# From -- ./inp_files/2959.got.cif
#   From: 2010.05.17/outbox.cif.g08.bks.cpg/sg183_2_cif.got.tgz:2959.got - 2010.05.20 12:02:58.
