data_PCOD9584540
_publ_section_title
;
Structure prediction by ZEFSAII (Michael W. Deem and Ramdas Pophale) SiO2 
 PCOD9584540
Probable space group: P 64 2 2
;
_chemical_formula_sum "Si O2"
_cell_formula_units_Z 78
_cell_length_a 17.645201
_cell_length_b 17.645201
_cell_length_c 15.162212
_cell_angle_alpha 90.000000
_cell_angle_beta 90.000000
_cell_angle_gamma 120.000000
_cell_volume 4088.334447
_symmetry_space_group_name_H-M "P 64 2 2"
_symmetry_group_IT_number 181
_symmetry_cell_setting 'hexagonal'
loop_
_space_group_symop_operation_xyz
x,y,z
x-y,x,2/3+z
-y,x-y,1/3+z
-x,-y,z
-x+y,-x,2/3+z
y,-x+y,1/3+z
x-y,-y,-z
-x,-x+y,2/3-z
y,x,1/3-z
-y,-x,1/3-z
-x+y,y,-z
x,x-y,2/3-z
loop_
_atom_site_type_symbol
_atom_site_label
_atom_site_fract_x
_atom_site_fract_y
_atom_site_fract_z
Si Si1 0.000000 0.187064 0.333334
Si Si2 0.174557 0.222325 0.256494
Si Si3 0.701687 0.047838 0.704170
Si Si4 0.601478 0.787918 0.518909
Si Si5 0.088365 0.460221 0.874727
Si Si6 0.533539 0.639531 0.665416
Si Si7 0.255316 0.338558 0.524601
O O1 0.084363 0.178087 0.311313
O O2 0.020086 0.254855 0.414337
O O3 0.173274 0.173274 0.166667
O O4 0.260645 0.241777 0.310770
O O5 0.184519 0.316238 0.232910
O O6 0.763243 0.130457 0.763607
O O7 0.640453 0.071765 0.644173
O O8 0.653898 0.968663 0.774541
O O9 0.539515 0.825868 0.491638
O O10 0.559102 0.704135 0.582533
O O11 0.091756 0.545878 0.833334
O O12 0.000000 0.380627 0.833334
O O13 0.585652 0.585652 0.666667
O O14 0.431755 0.568246 0.666667
O O15 0.573266 0.698769 0.751530
O O16 0.160734 0.321468 0.500000
#
# Coordination Sequence:
#
# PCOD9584540 Si02
#       7
#     6  12  12  12  12  12  12
#     4  12  22  40  63 103 146 176 220 300 336 384
#     4  12  23  39  66 101 138 182 234 289 332 399
#     4  12  21  38  71 100 124 178 234 268 331 415
#     4  12  21  42  70  96 130 177 225 268 343 413
#     4  11  25  45  63  96 134 164 217 290 334 383
#     4  11  22  42  62  96 136 164 211 281 328 392
#     4  12  21  37  69 101 130 173 227 276 335 405
#
# _framework density 19.078673999999999
#
# number of rings (size 3 to 8) (size 9 to 14) (size 15 to 20)
#    0.000    0.308   10.000    0.462    0.000    0.000 
#    5.538    2.308    0.000   10.615    0.000    0.000 
#    0.000    0.000    0.000    0.000    0.000    0.000 
#
# Total GULP energy -435326.867866 kJ/mol
# GULP energy per Si atom -5581.113691 kJ/mol
# Density = 1.903525 g / cm^3
# Si number density = 19.078674 Si / 1000 Ang^3
#
#
#
# Elastic Constant Matrix: (Units=GPa)
#
#
# Indices 1 2 3 4 5 6 
#
# 1 102.6985 55.3068 53.8986 0.0000 0.0000 0.0000
# 2 55.3068 102.6985 53.8986 0.0000 0.0000 0.0000
# 3 53.8986 53.8986 119.2748 0.0000 0.0000 0.0000
# 4 0.0000 0.0000 0.0000 27.2204 0.0000 0.0000
# 5 0.0000 0.0000 0.0000 0.0000 27.2204 0.0000
# 6 0.0000 0.0000 0.0000 0.0000 0.0000 23.6958
#
#
#
# Elastic Compliance Matrix: (Units=1/GPa)
#
#
# Indices 1 2 3 4 5 6 
#
# 1 0.015125 -0.005976 -0.004135 0.000000 0.000000 0.000000
# 2 -0.005976 0.015125 -0.004135 0.000000 0.000000 0.000000
# 3 -0.004135 -0.004135 0.012121 0.000000 0.000000 0.000000
# 4 0.000000 0.000000 0.000000 0.036737 0.000000 0.000000
# 5 0.000000 0.000000 0.000000 0.000000 0.036737 0.000000
# 6 0.000000 0.000000 0.000000 0.000000 0.000000 0.042201
#
#
# Mechanical properties :
#
#
# Convention : Reuss Voigt Hill
#
# Bulk Modulus (GPa) = 72.03747 72.32000 72.17873
# Shear Modulus (GPa) = 26.15560 26.39852 26.27706
#
# Velocity S-wave (km/s) = 3.70663 3.72380 3.71523
# Velocity P-wave (km/s) = 7.49392 7.51515 7.50454
#
# Compressibility (1/GPa) = 0.01388167
#
# Stress axis : x y z
#
# Youngs Moduli (GPa) = 66.11472 66.11472 82.50304
#
# Poissons Ratio (x) = 0.39507 0.34112
# Poissons Ratio (y) = 0.39507 0.34112
# Poissons Ratio (z) = 0.27336 0.27336
#
# Static dielectric constant tensor:
#      x y z
#    x 1.673520 0.000000 0.000000 
#    y 0.000000 1.673520 0.000000 
#    z 0.000000 0.000000 1.712830 
# 
# From -- ./inp_files/6427.got.cif
#   From: 2010.05.17/outbox.cif.g08.bks.cpg/sg181_4_cif.got.tgz:6427.got - 2010.05.20 11:51:17.
