data_PCOD9584669
_publ_section_title
;
Structure prediction by ZEFSAII (Michael W. Deem and Ramdas Pophale) SiO2 
 PCOD9584669
Probable space group: P 63 2 2
;
_chemical_formula_sum "Si O2"
_cell_formula_units_Z 72
_cell_length_a 15.597658
_cell_length_b 15.597658
_cell_length_c 16.426341
_cell_angle_alpha 90.000000
_cell_angle_beta 90.000000
_cell_angle_gamma 120.000000
_cell_volume 3460.909581
_symmetry_space_group_name_H-M "P 63 2 2"
_symmetry_group_IT_number 182
_symmetry_cell_setting 'hexagonal'
loop_
_space_group_symop_operation_xyz
x,y,z
x-y,x,1/2+z
-y,x-y,z
-x,-y,1/2+z
-x+y,-x,z
y,-x+y,1/2+z
x-y,-y,-z
-x,-x+y,-z
y,x,-z
-y,-x,1/2-z
-x+y,y,1/2-z
x,x-y,1/2-z
loop_
_atom_site_type_symbol
_atom_site_label
_atom_site_fract_x
_atom_site_fract_y
_atom_site_fract_z
Si Si1 0.115884 0.720800 0.807991
Si Si2 0.447336 0.535255 0.613015
Si Si3 0.250294 0.816840 0.093579
Si Si4 0.045983 0.783007 0.291807
Si Si5 0.863230 0.405185 0.561768
Si Si6 0.887967 0.649522 0.415894
O O1 0.205597 0.794404 0.750000
O O2 0.109827 0.616324 0.818695
O O3 0.148510 0.780165 0.892984
O O4 0.018121 0.718604 0.775231
O O5 0.522049 0.498487 0.585367
O O6 0.436831 0.591127 0.534590
O O7 0.341380 0.437181 0.624058
O O8 0.235347 0.870657 0.169276
O O9 0.349770 0.810428 0.101001
O O10 0.165891 0.704270 0.085561
O O11 0.255896 0.881593 0.012674
O O12 0.107609 0.892392 0.250000
O O13 0.967036 0.750782 0.368492
#
# Coordination Sequence:
#
# PCOD9584669 Si02
#       6
#    12  12  12  12  12  12
#     4  10  22  39  60  89 125 167 214 267 325 395
#     4  10  19  38  59  91 124 166 214 267 310 377
#     4  11  20  39  61  92 125 172 222 267 315 389
#     4  11  23  39  59  88 127 167 213 271 338 393
#     4  10  20  33  64  89 123 164 218 263 311 366
#     4  10  21  41  67  86 124 173 227 268 320 389
#
# _framework density 20.803781000000001
#
# number of rings (size 3 to 8) (size 9 to 14) (size 15 to 20)
#    0.000    1.667    3.333    1.833    0.000    2.667 
#    4.000    0.000    0.000    9.000    0.000    0.000 
#    0.000    0.000    0.000    0.000    0.000    0.000 
#
# Total GULP energy -401150.435781 kJ/mol
# GULP energy per Si atom -5571.533830 kJ/mol
# Density = 2.075643 g / cm^3
# Si number density = 20.803781 Si / 1000 Ang^3
#
#
#
# Elastic Constant Matrix: (Units=GPa)
#
#
# Indices 1 2 3 4 5 6 
#
# 1 78.6397 26.0270 33.3361 0.0000 0.0000 0.0000
# 2 26.0270 78.6397 33.3361 0.0000 0.0000 0.0000
# 3 33.3361 33.3361 58.5632 0.0000 0.0000 0.0000
# 4 0.0000 0.0000 0.0000 23.8351 0.0000 0.0000
# 5 0.0000 0.0000 0.0000 0.0000 23.8351 0.0000
# 6 0.0000 0.0000 0.0000 0.0000 0.0000 26.3063
#
#
#
# Elastic Compliance Matrix: (Units=1/GPa)
#
#
# Indices 1 2 3 4 5 6 
#
# 1 0.016998 -0.002009 -0.008532 0.000000 0.000000 0.000000
# 2 -0.002009 0.016998 -0.008532 0.000000 0.000000 0.000000
# 3 -0.008532 -0.008532 0.026789 0.000000 0.000000 0.000000
# 4 0.000000 0.000000 0.000000 0.041955 0.000000 0.000000
# 5 0.000000 0.000000 0.000000 0.000000 0.041955 0.000000
# 6 0.000000 0.000000 0.000000 0.000000 0.000000 0.038014
#
#
# Mechanical properties :
#
#
# Convention : Reuss Voigt Hill
#
# Bulk Modulus (GPa) = 44.17278 44.58232 44.37755
# Shear Modulus (GPa) = 21.89125 23.00488 22.44806
#
# Velocity S-wave (km/s) = 3.24739 3.32897 3.28843
# Velocity P-wave (km/s) = 5.94474 6.02100 5.98299
#
# Compressibility (1/GPa) = 0.02263838
#
# Stress axis : x y z
#
# Youngs Moduli (GPa) = 58.83045 58.83045 37.32833
#
# Poissons Ratio (x) = 0.11818 0.31850
# Poissons Ratio (y) = 0.11818 0.31850
# Poissons Ratio (z) = 0.50196 0.50196
#
# Static dielectric constant tensor:
#      x y z
#    x 1.823780 0.000000 0.000000 
#    y 0.000000 1.823780 0.000000 
#    z 0.000000 0.000000 1.815760 
# 
# From -- ./inp_files/4333.got.cif
#   From: 2010.05.17/outbox.cif.g08.bks.cpg/sg182_3_cif.got.tgz:4333.got - 2010.05.20 11:58:53.
