data_PCOD9584161
_publ_section_title
;
Structure prediction by ZEFSAII (Michael W. Deem and Ramdas Pophale) SiO2 
 PCOD9584161
Probable space group: P 62 2 2
;
_chemical_formula_sum "Si O2"
_cell_formula_units_Z 69
_cell_length_a 11.184592
_cell_length_b 11.184592
_cell_length_c 27.402426
_cell_angle_alpha 90.000000
_cell_angle_beta 90.000000
_cell_angle_gamma 120.000000
_cell_volume 2968.656424
_symmetry_space_group_name_H-M "P 62 2 2"
_symmetry_group_IT_number 180
_symmetry_cell_setting 'hexagonal'
loop_
_space_group_symop_operation_xyz
x,y,z
x-y,x,1/3+z
-y,x-y,2/3+z
-x,-y,z
-x+y,-x,1/3+z
y,-x+y,2/3+z
x-y,-y,-z
-x,-x+y,1/3-z
y,x,2/3-z
-y,-x,2/3-z
-x+y,y,-z
x,x-y,1/3-z
loop_
_atom_site_type_symbol
_atom_site_label
_atom_site_fract_x
_atom_site_fract_y
_atom_site_fract_z
Si Si1 0.282983 0.132248 0.386229
Si Si2 0.287195 0.839265 0.711058
Si Si3 0.586089 0.664790 0.762341
Si Si4 0.392211 0.337671 0.220731
Si Si5 0.664952 0.611241 0.118900
Si Si6 0.000000 0.000000 0.000000
Si Si7 0.510299 0.255150 0.666667
O O1 0.387205 0.173189 0.340557
O O2 0.301378 0.271327 0.408015
O O3 0.306043 0.047234 0.428572
O O4 0.130984 0.038558 0.366184
O O5 0.205541 0.738942 0.756245
O O6 0.401658 0.797968 0.697569
O O7 0.317447 0.986258 0.733934
O O8 0.500000 0.500000 0.773675
O O9 0.567535 0.784471 0.789314
O O10 0.562265 0.695770 0.706260
O O11 0.500000 0.500000 0.221291
O O12 0.325916 0.302499 0.167033
O O13 0.500000 0.500000 0.118436
#
# Coordination Sequence:
#
# PCOD9584161 Si02
#       7
#    12  12  12  12  12   3   6
#     4  12  25  43  72 104 142 188 247 315 378 443
#     4  12  22  44  73 106 141 186 253 320 377 455
#     4  12  26  44  70 112 150 190 247 306 386 462
#     4  11  26  46  70 103 143 196 251 308 381 459
#     4  11  25  47  73 103 150 200 250 301 384 471
#     4  12  22  44  66 106 138 184 244 318 360 428
#     4  12  23  40  77 113 145 192 242 322 392 446
#
# _framework density 23.242837000000002
#
# number of rings (size 3 to 8) (size 9 to 14) (size 15 to 20)
#    0.000    0.348    5.217    4.174    0.000    1.391 
#    0.000    1.739    0.000    0.000    0.000    0.000 
#    0.000    0.000    0.000    0.000    0.000    0.000 
#
# Total GULP energy -385038.151460 kJ/mol
# GULP energy per Si atom -5580.263065 kJ/mol
# Density = 2.318994 g / cm^3
# Si number density = 23.242837 Si / 1000 Ang^3
#
#
#
# Elastic Constant Matrix: (Units=GPa)
#
#
# Indices 1 2 3 4 5 6 
#
# 1 81.5939 11.6773 3.7294 0.0000 0.0000 0.0000
# 2 11.6773 81.5939 3.7294 0.0000 0.0000 0.0000
# 3 3.7294 3.7294 84.8329 0.0000 0.0000 0.0000
# 4 0.0000 0.0000 0.0000 23.6948 0.0000 0.0000
# 5 0.0000 0.0000 0.0000 0.0000 23.6948 0.0000
# 6 0.0000 0.0000 0.0000 0.0000 0.0000 34.9583
#
#
#
# Elastic Compliance Matrix: (Units=1/GPa)
#
#
# Indices 1 2 3 4 5 6 
#
# 1 0.012531 -0.001772 -0.000473 0.000000 0.000000 0.000000
# 2 -0.001772 0.012531 -0.000473 0.000000 0.000000 0.000000
# 3 -0.000473 -0.000473 0.011829 0.000000 0.000000 0.000000
# 4 0.000000 0.000000 0.000000 0.042203 0.000000 0.000000
# 5 0.000000 0.000000 0.000000 0.000000 0.042203 0.000000
# 6 0.000000 0.000000 0.000000 0.000000 0.000000 0.028605
#
#
# Mechanical properties :
#
#
# Convention : Reuss Voigt Hill
#
# Bulk Modulus (GPa) = 31.79045 31.81031 31.80038
# Shear Modulus (GPa) = 30.15240 31.72858 30.94049
#
# Velocity S-wave (km/s) = 3.60568 3.69872 3.65250
# Velocity P-wave (km/s) = 5.57152 5.65301 5.61241
#
# Compressibility (1/GPa) = 0.03145599
#
# Stress axis : x y z
#
# Youngs Moduli (GPa) = 79.80211 79.80211 84.53467
#
# Poissons Ratio (x) = 0.14139 0.03998
# Poissons Ratio (y) = 0.14139 0.03998
# Poissons Ratio (z) = 0.03775 0.03775
#
# Static dielectric constant tensor:
#      x y z
#    x 1.906590 0.000000 0.000000 
#    y 0.000000 1.906590 0.000000 
#    z 0.000000 0.000000 1.926420 
# 
# From -- ./inp_files/12327.got.cif
#   From: 2010.05.17/outbox.cif.g08.bks.cpg/sg180_7_cif.got.tgz:12327.got - 2010.05.20 11:43:55.
