data_PCOD9584679
_publ_section_title
;
Structure prediction by ZEFSAII (Michael W. Deem and Ramdas Pophale) SiO2 
 PCOD9584679
Probable space group: P 63 2 2
;
_chemical_formula_sum "Si O2"
_cell_formula_units_Z 72
_cell_length_a 23.692945
_cell_length_b 23.692945
_cell_length_c 9.095242
_cell_angle_alpha 90.000000
_cell_angle_beta 90.000000
_cell_angle_gamma 120.000000
_cell_volume 4421.635956
_symmetry_space_group_name_H-M "P 63 2 2"
_symmetry_group_IT_number 182
_symmetry_cell_setting 'hexagonal'
loop_
_space_group_symop_operation_xyz
x,y,z
x-y,x,1/2+z
-y,x-y,z
-x,-y,1/2+z
-x+y,-x,z
y,-x+y,1/2+z
x-y,-y,-z
-x,-x+y,-z
y,x,-z
-y,-x,1/2-z
-x+y,y,1/2-z
x,x-y,1/2-z
loop_
_atom_site_type_symbol
_atom_site_label
_atom_site_fract_x
_atom_site_fract_y
_atom_site_fract_z
Si Si1 0.265543 0.801188 0.891765
Si Si2 0.613955 0.976010 0.145423
Si Si3 0.143477 0.740752 0.306867
Si Si4 0.566646 0.463918 0.585267
Si Si5 0.461377 0.770837 0.129282
Si Si6 0.916949 0.518246 0.329292
O O1 0.219248 0.780753 0.750000
O O2 0.336784 0.845061 0.824182
O O3 0.259821 0.845902 0.018972
O O4 0.253232 0.738034 0.987418
O O5 0.616117 0.031415 0.251896
O O6 0.627149 0.928491 0.246128
O O7 0.541847 0.935499 0.066678
O O8 0.658322 0.000000 0.000000
O O9 0.185396 0.814605 0.250000
O O10 0.179841 0.705603 0.225941
O O11 0.544394 0.455607 0.750000
O O12 0.616691 0.435735 0.575077
O O13 0.500161 0.423786 0.495660
O O14 0.425613 0.712807 0.250000
O O15 0.919223 0.459612 0.250000
#
# Coordination Sequence:
#
# PCOD9584679 Si02
#       6
#    12  12  12  12  12  12
#     4  10  20  33  50  65  86 119 163 199 238 307
#     4  11  22  33  50  75 106 128 156 203 261 331
#     4   8  18  34  53  67  89 124 160 184 225 300
#     4  11  21  33  51  72  99 128 154 202 273 337
#     4   8  16  34  51  63  81 118 163 194 227 306
#     4  12  23  33  48  74 101 126 153 201 281 332
#
# _framework density 16.283566
#
# number of rings (size 3 to 8) (size 9 to 14) (size 15 to 20)
#    0.000    2.333    1.667    4.500    4.667    3.333 
#    0.000    0.000    0.000   13.333    0.000    0.000 
#    0.000    0.000    0.000    0.000    0.000    0.000 
#
# Total GULP energy -400829.365150 kJ/mol
# GULP energy per Si atom -5567.074516 kJ/mol
# Density = 1.624650 g / cm^3
# Si number density = 16.283566 Si / 1000 Ang^3
#
#
#
# Elastic Constant Matrix: (Units=GPa)
#
#
# Indices 1 2 3 4 5 6 
#
# 1 47.3038 11.4351 44.4542 0.0000 0.0000 0.0000
# 2 11.4351 47.3038 44.4542 0.0000 0.0000 0.0000
# 3 44.4542 44.4542 117.4560 0.0000 0.0000 0.0000
# 4 0.0000 0.0000 0.0000 28.6484 0.0000 0.0000
# 5 0.0000 0.0000 0.0000 0.0000 28.6484 0.0000
# 6 0.0000 0.0000 0.0000 0.0000 0.0000 17.9344
#
#
#
# Elastic Compliance Matrix: (Units=1/GPa)
#
#
# Indices 1 2 3 4 5 6 
#
# 1 0.033868 0.005989 -0.015085 0.000000 0.000000 0.000000
# 2 0.005989 0.033868 -0.015085 0.000000 0.000000 0.000000
# 3 -0.015085 -0.015085 0.019932 0.000000 0.000000 0.000000
# 4 0.000000 0.000000 0.000000 0.034906 0.000000 0.000000
# 5 0.000000 0.000000 0.000000 0.000000 0.034906 0.000000
# 6 0.000000 0.000000 0.000000 0.000000 0.000000 0.055759
#
#
# Mechanical properties :
#
#
# Convention : Reuss Voigt Hill
#
# Bulk Modulus (GPa) = 25.44061 45.86117 35.65089
# Shear Modulus (GPa) = 18.20135 22.49425 20.34780
#
# Velocity S-wave (km/s) = 3.34694 3.72076 3.53879
# Velocity P-wave (km/s) = 5.53113 6.83257 6.21600
#
# Compressibility (1/GPa) = 0.03930723
#
# Stress axis : x y z
#
# Youngs Moduli (GPa) = 29.52598 29.52598 50.16937
#
# Poissons Ratio (x) = -0.17683 0.75681
# Poissons Ratio (y) = -0.17683 0.75681
# Poissons Ratio (z) = 0.44540 0.44540
#
# Static dielectric constant tensor:
#      x y z
#    x 1.534440 0.000000 0.000000 
#    y 0.000000 1.534440 0.000000 
#    z 0.000000 0.000000 1.559290 
# 
# From -- ./inp_files/1916.got.cif
#   From: 2010.05.17/outbox.cif.g08.bks.cpg/sg182_1_cif.got.tgz:1916.got - 2010.05.20 11:58:53.
