data_PCOD9584761
_publ_section_title
;
Structure prediction by ZEFSAII (Michael W. Deem and Ramdas Pophale) SiO2 
 PCOD9584761
Probable space group: P 63 2 2
;
_chemical_formula_sum "Si O2"
_cell_formula_units_Z 70
_cell_length_a 15.331458
_cell_length_b 15.331458
_cell_length_c 14.488183
_cell_angle_alpha 90.000000
_cell_angle_beta 90.000000
_cell_angle_gamma 120.000000
_cell_volume 2949.249197
_symmetry_space_group_name_H-M "P 63 2 2"
_symmetry_group_IT_number 182
_symmetry_cell_setting 'hexagonal'
loop_
_space_group_symop_operation_xyz
x,y,z
x-y,x,1/2+z
-y,x-y,z
-x,-y,1/2+z
-x+y,-x,z
y,-x+y,1/2+z
x-y,-y,-z
-x,-x+y,-z
y,x,-z
-y,-x,1/2-z
-x+y,y,1/2-z
x,x-y,1/2-z
loop_
_atom_site_type_symbol
_atom_site_label
_atom_site_fract_x
_atom_site_fract_y
_atom_site_fract_z
Si Si1 0.534175 0.419189 0.896394
Si Si2 0.402870 0.892486 0.621036
Si Si3 0.000000 0.000000 0.365473
Si Si4 0.266300 0.824561 0.870804
Si Si5 0.137754 0.275508 0.750000
Si Si6 0.146356 0.215770 0.149411
Si Si7 0.193107 0.434600 0.090268
O O1 0.448524 0.439378 0.856195
O O2 0.643745 0.513506 0.871411
O O3 0.510599 0.306972 0.875192
O O4 0.521121 0.410544 0.008629
O O5 0.289721 0.818387 0.651038
O O6 0.474510 0.851877 0.655689
O O7 0.883725 0.946986 0.394660
O O8 0.000000 0.000000 0.250000
O O9 0.232693 0.892897 0.816516
O O10 0.261273 0.827209 0.981027
O O11 0.173812 0.221261 0.824089
O O12 0.115086 0.230172 0.250000
O O13 0.177560 0.322600 0.104331
#
# Coordination Sequence:
#
# PCOD9584761 Si02
#       7
#    12  12   4  12   6  12  12
#     4   9  18  34  58  90 117 159 198 254 302 365
#     4   9  18  35  57  86 125 154 197 249 311 361
#     4   9  18  42  66  81 121 163 206 256 345 373
#     4  10  22  38  62  94 125 167 206 259 314 389
#     4  12  24  38  64  90 124 164 214 260 330 382
#     4  11  22  41  65  88 121 169 207 265 325 388
#     4  10  21  39  66  90 128 164 215 256 318 380
#
# _framework density 23.734852
#
# number of rings (size 3 to 8) (size 9 to 14) (size 15 to 20)
#    0.000    2.057    2.571    1.714    2.400    5.486 
#    0.000    0.857    3.771    0.000    0.000    0.000 
#    0.000    0.000    0.000    0.000    0.000    0.000 
#
# Total GULP energy -390459.671769 kJ/mol
# GULP energy per Si atom -5577.995311 kJ/mol
# Density = 2.368083 g / cm^3
# Si number density = 23.734852 Si / 1000 Ang^3
#
#
#
# Elastic Constant Matrix: (Units=GPa)
#
#
# Indices 1 2 3 4 5 6 
#
# 1 83.4984 9.7960 2.5123 0.0000 0.0000 0.0000
# 2 9.7960 83.4984 2.5123 0.0000 0.0000 0.0000
# 3 2.5123 2.5123 42.9655 0.0000 0.0000 0.0000
# 4 0.0000 0.0000 0.0000 4.3476 0.0000 0.0000
# 5 0.0000 0.0000 0.0000 0.0000 4.3476 0.0000
# 6 0.0000 0.0000 0.0000 0.0000 0.0000 36.8512
#
#
#
# Elastic Compliance Matrix: (Units=1/GPa)
#
#
# Indices 1 2 3 4 5 6 
#
# 1 0.012160 -0.001408 -0.000629 0.000000 0.000000 0.000000
# 2 -0.001408 0.012160 -0.000629 0.000000 0.000000 0.000000
# 3 -0.000629 -0.000629 0.023348 0.000000 0.000000 0.000000
# 4 0.000000 0.000000 0.000000 0.230014 0.000000 0.000000
# 5 0.000000 0.000000 0.000000 0.000000 0.230014 0.000000
# 6 0.000000 0.000000 0.000000 0.000000 0.000000 0.027136
#
#
# Mechanical properties :
#
#
# Convention : Reuss Voigt Hill
#
# Bulk Modulus (GPa) = 23.61926 26.62261 25.12093
# Shear Modulus (GPa) = 9.02079 22.11871 15.56975
#
# Velocity S-wave (km/s) = 1.95164 3.05603 2.56400
# Velocity P-wave (km/s) = 3.87962 4.86759 4.40141
#
# Compressibility (1/GPa) = 0.04233833
#
# Stress axis : x y z
#
# Youngs Moduli (GPa) = 82.23448 82.23448 42.83020
#
# Poissons Ratio (x) = 0.11576 0.02693
# Poissons Ratio (y) = 0.11576 0.02693
# Poissons Ratio (z) = 0.05170 0.05170
#
# Static dielectric constant tensor:
#      x y z
#    x 2.503950 0.000000 0.000000 
#    y 0.000000 2.503950 0.000000 
#    z 0.000000 0.000000 1.920190 
# 
# From -- ./inp_files/4376.got.cif
#   From: 2010.05.17/outbox.cif.g08.bks.cpg/sg182_3_cif.got.tgz:4376.got - 2010.05.20 11:58:53.
