data_PCOD9584283
_publ_section_title
;
Structure prediction by ZEFSAII (Michael W. Deem and Ramdas Pophale) SiO2 
 PCOD9584283
Probable space group: P 64 2 2
;
_chemical_formula_sum "Si O2"
_cell_formula_units_Z 60
_cell_length_a 15.206958
_cell_length_b 15.206958
_cell_length_c 13.717600
_cell_angle_alpha 90.000000
_cell_angle_beta 90.000000
_cell_angle_gamma 120.000000
_cell_volume 2747.220126
_symmetry_space_group_name_H-M "P 64 2 2"
_symmetry_group_IT_number 181
_symmetry_cell_setting 'hexagonal'
loop_
_space_group_symop_operation_xyz
x,y,z
x-y,x,2/3+z
-y,x-y,1/3+z
-x,-y,z
-x+y,-x,2/3+z
y,-x+y,1/3+z
x-y,-y,-z
-x,-x+y,2/3-z
y,x,1/3-z
-y,-x,1/3-z
-x+y,y,-z
x,x-y,2/3-z
loop_
_atom_site_type_symbol
_atom_site_label
_atom_site_fract_x
_atom_site_fract_y
_atom_site_fract_z
Si Si1 0.727365 0.127237 0.742966
Si Si2 0.946964 0.337055 0.937918
Si Si3 0.619741 0.189130 0.274403
Si Si4 0.201800 0.898236 0.955541
Si Si5 0.850891 0.500104 0.404216
O O1 0.820158 0.179843 0.666667
O O2 0.677799 0.199955 0.749918
O O3 0.755679 0.097017 0.845621
O O4 0.642641 0.032050 0.685642
O O5 0.897049 0.214887 0.952914
O O6 0.000000 0.369946 0.833334
O O7 0.865008 0.372595 0.960582
O O8 0.620742 0.123237 0.182337
O O9 0.728197 0.290560 0.268952
O O10 0.276041 0.886619 0.031154
O O11 0.205751 0.000000 0.000000
O O12 0.889909 0.444955 0.333334
#
# Coordination Sequence:
#
# PCOD9584283 Si02
#       5
#    12  12  12  12  12
#     4  12  23  40  63  94 130 173 213 263 326 395
#     4  11  24  44  62  93 130 167 212 270 328 390
#     4  10  22  36  61  95 134 172 217 258 315 389
#     4  11  24  42  66  92 120 169 221 274 330 383
#     4  10  19  38  59  91 130 172 221 265 306 374
#
# _framework density 21.840259
#
# number of rings (size 3 to 8) (size 9 to 14) (size 15 to 20)
#    0.000    1.200    4.000    2.400    0.000    4.400 
#    0.000    0.000    0.000    0.600    0.000    0.000 
#    0.000    0.000    0.000    0.000    0.000    0.000 
#
# Total GULP energy -334685.538468 kJ/mol
# GULP energy per Si atom -5578.092308 kJ/mol
# Density = 2.179055 g / cm^3
# Si number density = 21.840259 Si / 1000 Ang^3
#
#
#
# Elastic Constant Matrix: (Units=GPa)
#
#
# Indices 1 2 3 4 5 6 
#
# 1 28.4861 24.6348 23.0158 0.0000 0.0000 0.0000
# 2 24.6348 28.4861 23.0158 0.0000 0.0000 0.0000
# 3 23.0158 23.0158 129.2230 0.0000 0.0000 0.0000
# 4 0.0000 0.0000 0.0000 26.2673 0.0000 0.0000
# 5 0.0000 0.0000 0.0000 0.0000 26.2673 0.0000
# 6 0.0000 0.0000 0.0000 0.0000 0.0000 1.9257
#
#
#
# Elastic Compliance Matrix: (Units=1/GPa)
#
#
# Indices 1 2 3 4 5 6 
#
# 1 0.140956 -0.118695 -0.003965 0.000000 0.000000 0.000000
# 2 -0.118695 0.140956 -0.003965 0.000000 0.000000 0.000000
# 3 -0.003965 -0.003965 0.009151 0.000000 0.000000 0.000000
# 4 0.000000 0.000000 0.000000 0.038070 0.000000 0.000000
# 5 0.000000 0.000000 0.000000 0.000000 0.038070 0.000000
# 6 0.000000 0.000000 0.000000 0.000000 0.000000 0.519303
#
#
# Mechanical properties :
#
#
# Convention : Reuss Voigt Hill
#
# Bulk Modulus (GPa) = 26.44594 36.39197 31.41896
# Shear Modulus (GPa) = 4.33892 18.59396 11.46644
#
# Velocity S-wave (km/s) = 1.41102 2.92098 2.29380
# Velocity P-wave (km/s) = 3.84574 5.29859 4.62952
#
# Compressibility (1/GPa) = 0.03781299
#
# Stress axis : x y z
#
# Youngs Moduli (GPa) = 7.09441 7.09441 109.27879
#
# Poissons Ratio (x) = 0.84207 0.43327
# Poissons Ratio (y) = 0.84207 0.43327
# Poissons Ratio (z) = 0.02813 0.02813
#
# Static dielectric constant tensor:
#      x y z
#    x 1.877900 0.000000 0.000000 
#    y 0.000000 1.877900 0.000000 
#    z 0.000000 0.000000 1.816660 
# 
# From -- ./inp_files/6145.got.cif
#   From: 2010.05.17/outbox.cif.g08.bks.cpg/sg181_4_cif.got.tgz:6145.got - 2010.05.20 11:51:17.
