data_PCOD9584446
_publ_section_title
;
Structure prediction by ZEFSAII (Michael W. Deem and Ramdas Pophale) SiO2 
 PCOD9584446
Probable space group: P 64 2 2
;
_chemical_formula_sum "Si O2"
_cell_formula_units_Z 90
_cell_length_a 17.283362
_cell_length_b 17.283362
_cell_length_c 16.868304
_cell_angle_alpha 90.000000
_cell_angle_beta 90.000000
_cell_angle_gamma 120.000000
_cell_volume 4363.736353
_symmetry_space_group_name_H-M "P 64 2 2"
_symmetry_group_IT_number 181
_symmetry_cell_setting 'hexagonal'
loop_
_space_group_symop_operation_xyz
x,y,z
x-y,x,2/3+z
-y,x-y,1/3+z
-x,-y,z
-x+y,-x,2/3+z
y,-x+y,1/3+z
x-y,-y,-z
-x,-x+y,2/3-z
y,x,1/3-z
-y,-x,1/3-z
-x+y,y,-z
x,x-y,2/3-z
loop_
_atom_site_type_symbol
_atom_site_label
_atom_site_fract_x
_atom_site_fract_y
_atom_site_fract_z
Si Si1 0.667205 0.332796 0.666667
Si Si2 0.088748 0.594615 0.153441
Si Si3 0.069000 0.317525 0.906610
Si Si4 0.292567 0.056019 0.243607
Si Si5 0.477662 0.661784 0.213358
Si Si6 0.869781 0.230939 0.091897
Si Si7 0.471630 0.168578 0.978671
Si Si8 0.156337 0.677939 0.487684
O O1 0.659762 0.256840 0.605587
O O2 0.696667 0.434087 0.636467
O O3 0.092969 0.663362 0.088695
O O4 0.105590 0.639811 0.239789
O O5 0.162412 0.565576 0.140015
O O6 0.000000 0.500000 0.151791
O O7 0.139822 0.282235 0.894824
O O8 0.118540 0.425428 0.915618
O O9 0.000000 0.285208 0.833334
O O10 0.035480 0.287528 0.995810
O O11 0.389765 0.092242 0.203397
O O12 0.223323 0.955555 0.216026
O O13 0.430875 0.569126 0.166667
O O14 0.504375 0.744022 0.153400
O O15 0.803959 0.196042 0.166667
O O16 0.798310 0.184781 0.022172
O O17 0.472529 0.127778 0.063554
#
# Coordination Sequence:
#
# PCOD9584446 Si02
#       8
#     6  12  12  12  12  12  12  12
#     4  12  20  36  53  82 124 176 218 261 304 362
#     4  11  20  37  53  83 119 169 211 259 304 369
#     4  10  24  43  67  90 120 158 202 260 320 400
#     4  10  22  42  64  91 121 158 203 259 324 385
#     4  11  21  35  55  84 118 157 214 259 303 358
#     4  10  23  39  58  89 123 155 206 260 306 369
#     4  11  22  34  57  84 124 175 217 266 311 369
#     4  11  20  36  54  84 118 170 213 254 311 365
#
# _framework density 20.624528000000002
#
# number of rings (size 3 to 8) (size 9 to 14) (size 15 to 20)
#    0.000    1.333    4.000    2.400    3.733    2.400 
#    0.000    1.333    0.000    0.400    0.000    1.867 
#    0.000    0.000    0.000    0.000    0.000    0.000 
#
# Total GULP energy -501070.294156 kJ/mol
# GULP energy per Si atom -5567.447713 kJ/mol
# Density = 2.057759 g / cm^3
# Si number density = 20.624528 Si / 1000 Ang^3
#
#
#
# Elastic Constant Matrix: (Units=GPa)
#
#
# Indices 1 2 3 4 5 6 
#
# 1 58.0777 11.3055 -1.6370 0.0000 0.0000 0.0000
# 2 11.3055 58.0777 -1.6370 0.0000 0.0000 0.0000
# 3 -1.6370 -1.6370 30.9172 0.0000 0.0000 0.0000
# 4 0.0000 0.0000 0.0000 20.2578 0.0000 0.0000
# 5 0.0000 0.0000 0.0000 0.0000 20.2578 0.0000
# 6 0.0000 0.0000 0.0000 0.0000 0.0000 23.3861
#
#
#
# Elastic Compliance Matrix: (Units=1/GPa)
#
#
# Indices 1 2 3 4 5 6 
#
# 1 0.017915 -0.003466 0.000765 0.000000 0.000000 0.000000
# 2 -0.003466 0.017915 0.000765 0.000000 0.000000 0.000000
# 3 0.000765 0.000765 0.032425 0.000000 0.000000 0.000000
# 4 0.000000 0.000000 0.000000 0.049364 0.000000 0.000000
# 5 0.000000 0.000000 0.000000 0.000000 0.049364 0.000000
# 6 0.000000 0.000000 0.000000 0.000000 0.000000 0.042760
#
#
# Mechanical properties :
#
#
# Convention : Reuss Voigt Hill
#
# Bulk Modulus (GPa) = 15.53199 18.12617 16.82908
# Shear Modulus (GPa) = 21.26983 22.04975 21.65979
#
# Velocity S-wave (km/s) = 3.21485 3.27326 3.24419
# Velocity P-wave (km/s) = 4.61818 4.80556 4.71280
#
# Compressibility (1/GPa) = 0.06438326
#
# Stress axis : x y z
#
# Youngs Moduli (GPa) = 55.82070 55.82070 30.83995
#
# Poissons Ratio (x) = 0.19346 -0.02359
# Poissons Ratio (y) = 0.19346 -0.02359
# Poissons Ratio (z) = -0.04271 -0.04271
#
# Static dielectric constant tensor:
#      x y z
#    x 1.820990 0.000000 0.000000 
#    y 0.000000 1.820990 0.000000 
#    z 0.000000 0.000000 1.783360 
# 
# From -- ./inp_files/7987.got.cif
#   From: 2010.05.17/outbox.cif.g08.bks.cpg/sg181_4_cif.got.tgz:7987.got - 2010.05.20 11:51:17.
