data_PCOD9584195
_publ_section_title
;
Structure prediction by ZEFSAII (Michael W. Deem and Ramdas Pophale) SiO2 
 PCOD9584195
Probable space group: P 62 2 2
;
_chemical_formula_sum "Si O2"
_cell_formula_units_Z 84
_cell_length_a 15.000000
_cell_length_b 15.000000
_cell_length_c 24.000000
_cell_angle_alpha 90.000000
_cell_angle_beta 90.000000
_cell_angle_gamma 120.000000
_cell_volume 4676.537180
_symmetry_space_group_name_H-M "P 62 2 2"
_symmetry_group_IT_number 180
_symmetry_cell_setting 'hexagonal'
loop_
_space_group_symop_operation_xyz
x,y,z
x-y,x,1/3+z
-y,x-y,2/3+z
-x,-y,z
-x+y,-x,1/3+z
y,-x+y,2/3+z
x-y,-y,-z
-x,-x+y,1/3-z
y,x,2/3-z
-y,-x,2/3-z
-x+y,y,-z
x,x-y,1/3-z
loop_
_atom_site_type_symbol
_atom_site_label
_atom_site_fract_x
_atom_site_fract_y
_atom_site_fract_z
Si Si1 0.391688 0.741360 0.228078
Si Si2 0.881783 0.756258 0.184265
Si Si3 0.000000 0.500000 0.525815
Si Si4 0.230001 0.115001 0.166667
Si Si5 0.305547 0.894936 0.218400
Si Si6 0.888165 0.673799 0.698688
Si Si7 0.167519 0.552133 0.726541
Si Si8 0.628937 0.891747 0.263421
O O1 0.390545 0.695273 0.166667
O O2 0.327015 0.801335 0.232043
O O3 0.351719 0.637845 0.264732
O O4 0.508327 0.825414 0.246228
O O5 0.842520 0.836500 0.173571
O O6 0.802720 0.657550 0.146583
O O7 0.860782 0.734631 0.250196
O O8 0.000000 0.801655 0.166667
O O9 0.034379 0.601136 0.490224
O O10 0.098676 0.527084 0.562894
O O11 0.304520 0.129316 0.218041
O O12 0.325922 0.983952 0.263757
O O13 0.865702 0.566930 0.727610
O O14 0.798613 0.644783 0.653750
O O15 0.000000 0.731652 0.666667
O O16 0.134349 0.567175 0.666667
#
# Coordination Sequence:
#
# PCOD9584195 Si02
#       8
#    12  12   6   6  12  12  12  12
#     4  12  20  36  59  93 133 171 206 255 316 398
#     4  11  24  44  66  90 124 174 219 269 311 383
#     4  12  19  36  58  98 126 166 205 262 326 390
#     4  10  21  38  64  98 120 164 205 258 336 386
#     4  11  23  39  65  90 127 172 225 255 314 393
#     4  12  23  40  63 100 130 161 207 267 340 387
#     4  12  24  32  57  99 138 156 196 268 341 397
#     4  11  21  35  61  94 131 164 203 261 330 394
#
# _framework density 17.962008000000001
#
# number of rings (size 3 to 8) (size 9 to 14) (size 15 to 20)
#    0.000    0.571    7.857    1.286    2.000    0.000 
#    0.000    4.286    0.000    3.000    0.000    0.000 
#    0.000    0.000    0.000    0.000    0.000    0.000 
#
# Total GULP energy -468499.258184 kJ/mol
# GULP energy per Si atom -5577.372121 kJ/mol
# Density = 1.792113 g / cm^3
# Si number density = 17.962008 Si / 1000 Ang^3
#
#
#
# Elastic Constant Matrix: (Units=GPa)
#
#
# Indices 1 2 3 4 5 6 
#
# 1 115.8984 47.7649 27.1038 0.0000 0.0000 0.0000
# 2 47.7649 115.8984 27.1038 0.0000 0.0000 0.0000
# 3 27.1038 27.1038 51.8839 0.0000 0.0000 0.0000
# 4 0.0000 0.0000 0.0000 24.8459 0.0000 0.0000
# 5 0.0000 0.0000 0.0000 0.0000 24.8459 0.0000
# 6 0.0000 0.0000 0.0000 0.0000 0.0000 34.0668
#
#
#
# Elastic Compliance Matrix: (Units=1/GPa)
#
#
# Indices 1 2 3 4 5 6 
#
# 1 0.011033 -0.003644 -0.003860 0.000000 0.000000 0.000000
# 2 -0.003644 0.011033 -0.003860 0.000000 0.000000 0.000000
# 3 -0.003860 -0.003860 0.023306 0.000000 0.000000 0.000000
# 4 0.000000 0.000000 0.000000 0.040248 0.000000 0.000000
# 5 0.000000 0.000000 0.000000 0.000000 0.040248 0.000000
# 6 0.000000 0.000000 0.000000 0.000000 0.000000 0.029354
#
#
# Mechanical properties :
#
#
# Convention : Reuss Voigt Hill
#
# Bulk Modulus (GPa) = 44.16071 54.18062 49.17066
# Shear Modulus (GPa) = 26.95452 28.86561 27.91006
#
# Velocity S-wave (km/s) = 3.87801 4.01314 3.94615
# Velocity P-wave (km/s) = 6.68513 7.19049 6.94241
#
# Compressibility (1/GPa) = 0.02264456
#
# Stress axis : x y z
#
# Youngs Moduli (GPa) = 90.63904 90.63904 42.90675
#
# Poissons Ratio (x) = 0.33031 0.16561
# Poissons Ratio (y) = 0.33031 0.16561
# Poissons Ratio (z) = 0.34984 0.34984
#
# Static dielectric constant tensor:
#      x y z
#    x 1.649580 0.000000 0.000000 
#    y 0.000000 1.649580 0.000000 
#    z 0.000000 0.000000 1.675210 
# 
# From -- ./inp_files/10297.got.cif
#   From: 2010.05.17/outbox.ucp.g08.bks.cvg/sg180_6_cif.got.tgz:10297.got - 2010.06.11 15:20:15.
