data_PCOD9584988
_publ_section_title
;
Structure prediction by ZEFSAII (Michael W. Deem and Ramdas Pophale) SiO2 
 PCOD9584988
Probable space group: P 6 M M
;
_chemical_formula_sum "Si O2"
_cell_formula_units_Z 84
_cell_length_a 18.460343
_cell_length_b 18.460343
_cell_length_c 18.129866
_cell_angle_alpha 90.000000
_cell_angle_beta 90.000000
_cell_angle_gamma 120.000000
_cell_volume 5350.628003
_symmetry_space_group_name_H-M "P 6 M M"
_symmetry_group_IT_number 183
_symmetry_cell_setting 'hexagonal'
loop_
_space_group_symop_operation_xyz
x,y,z
x-y,x,z
-y,x-y,z
-x,-y,z
-x+y,-x,z
y,-x+y,z
-x+y,y,z
x,x-y,z
-y,-x,z
y,x,z
x-y,-y,z
-x,-x+y,z
loop_
_atom_site_type_symbol
_atom_site_label
_atom_site_fract_x
_atom_site_fract_y
_atom_site_fract_z
Si Si1 0.641613 0.902862 0.424400
Si Si2 0.834837 0.331819 0.713895
Si Si3 0.497324 0.331426 0.031907
Si Si4 0.632390 0.531484 0.296561
Si Si5 0.734635 0.098302 0.159046
Si Si6 0.459996 0.095398 0.872441
Si Si7 0.353552 0.259658 0.596833
O O1 0.672378 0.836189 0.411379
O O2 0.562353 0.877890 0.372100
O O3 0.619905 0.898302 0.510987
O O4 0.709311 0.000000 0.408098
O O5 0.846996 0.423498 0.707943
O O6 0.738362 0.261639 0.704232
O O7 0.863018 0.321278 0.795642
O O8 0.886495 0.315359 0.651881
O O9 0.525322 0.262661 0.044660
O O10 0.575187 0.424814 0.042874
O O11 0.465765 0.323013 0.947787
O O12 0.421451 0.308864 0.087511
O O13 0.567273 0.432728 0.290836
O O14 0.576427 0.576427 0.295394
O O15 0.695107 0.573230 0.228430
O O16 0.833484 0.166517 0.156188
O O17 0.706093 0.000000 0.164902
O O18 0.546877 0.093754 0.870292
O O19 0.386300 0.000000 0.875972
O O20 0.328542 0.164271 0.610549
O O21 0.279977 0.279977 0.608211
#
# Coordination Sequence:
#
# PCOD9584988 Si02
#       7
#    12  12  12  12  12  12  12
#     4   9  17  30  48  69  92 119 152 188 227 271
#     4  10  19  30  44  63  89 120 153 188 226 268
#     4  10  19  30  45  66  93 124 156 189 226 268
#     4   9  17  29  46  68  92 118 149 183 217 256
#     4  10  20  33  50  71  94 121 153 190 231 274
#     4   9  17  28  42  60  83 115 155 193 224 258
#     4   9  18  31  47  67  90 117 149 187 230 274
#
# _framework density 15.699092
#
# number of rings (size 3 to 8) (size 9 to 14) (size 15 to 20)
#    0.000    2.571    0.000    2.429    0.000    2.857 
#    0.000    2.857    0.000    3.571    0.000    2.000 
#    0.000    3.429    0.000    0.143    0.000   29.714 
#
# Total GULP energy -467817.609288 kJ/mol
# GULP energy per Si atom -5569.257253 kJ/mol
# Density = 1.566336 g / cm^3
# Si number density = 15.699092 Si / 1000 Ang^3
#
#
#
# Elastic Constant Matrix: (Units=GPa)
#
#
# Indices 1 2 3 4 5 6 
#
# 1 74.4893 49.3407 38.9127 0.0000 0.0000 0.0000
# 2 49.3407 74.4893 38.9127 0.0000 0.0000 0.0000
# 3 38.9127 38.9127 77.7713 0.0000 0.0000 0.0000
# 4 0.0000 0.0000 0.0000 21.3416 0.0000 0.0000
# 5 0.0000 0.0000 0.0000 0.0000 21.3416 0.0000
# 6 0.0000 0.0000 0.0000 0.0000 0.0000 12.5743
#
#
#
# Elastic Compliance Matrix: (Units=1/GPa)
#
#
# Indices 1 2 3 4 5 6 
#
# 1 0.025772 -0.013992 -0.005894 0.000000 0.000000 0.000000
# 2 -0.013992 0.025772 -0.005894 0.000000 0.000000 0.000000
# 3 -0.005894 -0.005894 0.018756 0.000000 0.000000 0.000000
# 4 0.000000 0.000000 0.000000 0.046857 0.000000 0.000000
# 5 0.000000 0.000000 0.000000 0.000000 0.046857 0.000000
# 6 0.000000 0.000000 0.000000 0.000000 0.000000 0.079527
#
#
# Mechanical properties :
#
#
# Convention : Reuss Voigt Hill
#
# Bulk Modulus (GPa) = 53.36186 53.45358 53.40772
# Shear Modulus (GPa) = 16.59214 17.69040 17.14127
#
# Velocity S-wave (km/s) = 3.25450 3.36049 3.30792
# Velocity P-wave (km/s) = 6.94166 7.01284 6.97734
#
# Compressibility (1/GPa) = 0.01873998
#
# Stress axis : x y z
#
# Youngs Moduli (GPa) = 38.80216 38.80216 53.31516
#
# Poissons Ratio (x) = 0.54291 0.31424
# Poissons Ratio (y) = 0.54291 0.31424
# Poissons Ratio (z) = 0.22870 0.22870
#
# Static dielectric constant tensor:
#      x y z
#    x 1.519970 0.000000 0.000000 
#    y 0.000000 1.519970 0.000000 
#    z 0.000000 0.000000 1.538450 
# 
# From -- ./inp_files/2842.got.cif
#   From: 2010.05.17/outbox.cif.g08.bks.cpg/sg183_2_cif.got.tgz:2842.got - 2010.05.20 12:02:58.
