data_PCOD9584278
_publ_section_title
;
Structure prediction by ZEFSAII (Michael W. Deem and Ramdas Pophale) SiO2 
 PCOD9584278
Probable space group: P 64 2 2
;
_chemical_formula_sum "Si O2"
_cell_formula_units_Z 84
_cell_length_a 13.949210
_cell_length_b 13.949210
_cell_length_c 28.970341
_cell_angle_alpha 90.000000
_cell_angle_beta 90.000000
_cell_angle_gamma 120.000000
_cell_volume 4881.839126
_symmetry_space_group_name_H-M "P 64 2 2"
_symmetry_group_IT_number 181
_symmetry_cell_setting 'hexagonal'
loop_
_space_group_symop_operation_xyz
x,y,z
x-y,x,2/3+z
-y,x-y,1/3+z
-x,-y,z
-x+y,-x,2/3+z
y,-x+y,1/3+z
x-y,-y,-z
-x,-x+y,2/3-z
y,x,1/3-z
-y,-x,1/3-z
-x+y,y,-z
x,x-y,2/3-z
loop_
_atom_site_type_symbol
_atom_site_label
_atom_site_fract_x
_atom_site_fract_y
_atom_site_fract_z
Si Si1 0.182063 0.848555 0.304094
Si Si2 0.710372 0.298149 0.289604
Si Si3 0.825183 0.948140 0.157923
Si Si4 0.879235 0.484530 0.228448
Si Si5 0.415370 0.836399 0.793503
Si Si6 0.324666 0.331950 0.444166
Si Si7 0.717141 0.784042 0.601885
O O1 0.258422 0.792758 0.305377
O O2 0.250270 0.951610 0.269176
O O3 0.145653 0.856453 0.356095
O O4 0.060783 0.763913 0.283305
O O5 0.665852 0.332926 0.333334
O O6 0.822523 0.401248 0.270538
O O7 0.632633 0.257587 0.244913
O O8 0.846767 0.846767 0.166667
O O9 0.797762 0.939798 0.104418
O O10 0.734074 0.962405 0.187448
O O11 0.938801 0.061200 0.166667
O O12 0.815362 0.439124 0.179877
O O13 0.889518 0.598229 0.245155
O O14 0.000000 0.500000 0.219339
O O15 0.550132 0.888852 0.794927
O O16 0.372585 0.917702 0.774158
#
# Coordination Sequence:
#
# PCOD9584278 Si02
#       7
#    12  12  12  12  12  12  12
#     4  10  21  32  55  82 119 148 176 233 293 360
#     4  11  22  34  50  86 121 150 187 229 294 360
#     4  11  22  37  59  82 112 153 195 241 286 344
#     4  12  19  31  53  87 116 149 184 227 291 359
#     4  10  21  35  58  84 114 152 191 243 285 345
#     4  10  19  37  57  82 110 149 197 232 288 342
#     4  11  20  34  54  83 116 148 180 228 299 347
#
# _framework density 17.206630000000001
#
# number of rings (size 3 to 8) (size 9 to 14) (size 15 to 20)
#    0.000    1.286    7.143    0.429    0.000    0.286 
#    0.000    2.143    0.000    0.000    0.000    1.000 
#    0.000    0.000    0.000    0.000    0.000    0.000 
#
# Total GULP energy -467641.590751 kJ/mol
# GULP energy per Si atom -5567.161795 kJ/mol
# Density = 1.716747 g / cm^3
# Si number density = 17.206630 Si / 1000 Ang^3
#
#
#
# Elastic Constant Matrix: (Units=GPa)
#
#
# Indices 1 2 3 4 5 6 
#
# 1 44.5627 17.3549 35.0818 0.0000 0.0000 0.0000
# 2 17.3549 44.5627 35.0818 0.0000 0.0000 0.0000
# 3 35.0818 35.0818 134.3933 0.0000 0.0000 0.0000
# 4 0.0000 0.0000 0.0000 20.0771 0.0000 0.0000
# 5 0.0000 0.0000 0.0000 0.0000 20.0771 0.0000
# 6 0.0000 0.0000 0.0000 0.0000 0.0000 13.6039
#
#
#
# Elastic Compliance Matrix: (Units=1/GPa)
#
#
# Indices 1 2 3 4 5 6 
#
# 1 0.029844 -0.006910 -0.005987 0.000000 0.000000 0.000000
# 2 -0.006910 0.029844 -0.005987 0.000000 0.000000 0.000000
# 3 -0.005987 -0.005987 0.010566 0.000000 0.000000 0.000000
# 4 0.000000 0.000000 0.000000 0.049808 0.000000 0.000000
# 5 0.000000 0.000000 0.000000 0.000000 0.049808 0.000000
# 6 0.000000 0.000000 0.000000 0.000000 0.000000 0.073508
#
#
# Mechanical properties :
#
#
# Convention : Reuss Voigt Hill
#
# Bulk Modulus (GPa) = 30.78023 44.28399 37.53211
# Shear Modulus (GPa) = 17.12471 19.81830 18.47151
#
# Velocity S-wave (km/s) = 3.15816 3.39747 3.28000
# Velocity P-wave (km/s) = 5.58803 6.41739 6.01702
#
# Compressibility (1/GPa) = 0.03248839
#
# Stress axis : x y z
#
# Youngs Moduli (GPa) = 33.50716 33.50716 94.63941
#
# Poissons Ratio (x) = 0.23153 0.56659
# Poissons Ratio (y) = 0.23153 0.56659
# Poissons Ratio (z) = 0.20060 0.20060
#
# Static dielectric constant tensor:
#      x y z
#    x 1.597470 0.000000 0.000000 
#    y 0.000000 1.597470 0.000000 
#    z 0.000000 0.000000 0.571550 
# 
# From -- ./inp_files/11348.got.cif
#   From: 2010.05.17/outbox.cif.g08.bks.cpg/sg181_6_cif.got.tgz:11348.got - 2010.05.20 11:51:17.
