data_PCOD9584004
_publ_section_title
;
Structure prediction by ZEFSAII (Michael W. Deem and Ramdas Pophale) SiO2 
 PCOD9584004
Probable space group: P 62 2 2
;
_chemical_formula_sum "Si O2"
_cell_formula_units_Z 54
_cell_length_a 23.283744
_cell_length_b 23.283744
_cell_length_c 5.011122
_cell_angle_alpha 90.000000
_cell_angle_beta 90.000000
_cell_angle_gamma 120.000000
_cell_volume 2352.725389
_symmetry_space_group_name_H-M "P 62 2 2"
_symmetry_group_IT_number 180
_symmetry_cell_setting 'hexagonal'
loop_
_space_group_symop_operation_xyz
x,y,z
x-y,x,1/3+z
-y,x-y,2/3+z
-x,-y,z
-x+y,-x,1/3+z
y,-x+y,2/3+z
x-y,-y,-z
-x,-x+y,1/3-z
y,x,2/3-z
-y,-x,2/3-z
-x+y,y,-z
x,x-y,1/3-z
loop_
_atom_site_type_symbol
_atom_site_label
_atom_site_fract_x
_atom_site_fract_y
_atom_site_fract_z
Si Si1 0.311492 0.155746 0.666667
Si Si2 0.077362 0.695486 0.149793
Si Si3 0.592984 0.185967 0.000000
Si Si4 0.115674 0.115674 0.833334
Si Si5 0.223090 0.111545 0.166667
Si Si6 0.622895 0.545397 0.326456
Si Si7 0.295968 0.704033 0.333334
O O1 0.354976 0.124933 0.566100
O O2 0.266927 0.153108 0.416253
O O3 0.089666 0.648327 0.354429
O O4 0.000000 0.673241 0.166667
O O5 0.085903 0.682632 0.843740
O O6 0.524229 0.129606 0.131688
O O7 0.666733 0.233942 0.129138
O O8 0.134654 0.174743 0.626721
O O9 0.103305 0.051653 0.666667
O O10 0.565931 0.565931 0.333334
O O11 0.278042 0.639021 0.166667
#
# Coordination Sequence:
#
# PCOD9584004 Si02
#       7
#     6  12   6   6   6  12   6
#     4  12  26  47  73 101 134 191 234 300 373 430
#     4  10  24  45  68 101 144 177 239 299 364 429
#     4  11  23  42  74 100 150 189 248 292 361 446
#     4  12  28  47  66 104 136 180 228 297 372 448
#     4  12  28  45  70 100 130 180 240 284 372 440
#     4  10  23  44  71 107 140 191 239 306 360 422
#     4   9  22  43  59 100 139 196 224 288 356 418
#
# _framework density 22.952103000000001
#
# number of rings (size 3 to 8) (size 9 to 14) (size 15 to 20)
#    0.000    1.333    1.111    2.333    4.667    3.111 
#    8.000    3.333    0.000    0.000    0.000    0.000 
#    0.000    0.000    0.000    0.000    0.000    0.000 
#
# Total GULP energy -300825.346341 kJ/mol
# GULP energy per Si atom -5570.839747 kJ/mol
# Density = 2.289986 g / cm^3
# Si number density = 22.952103 Si / 1000 Ang^3
#
#
#
# Elastic Constant Matrix: (Units=GPa)
#
#
# Indices 1 2 3 4 5 6 
#
# 1 81.3964 63.7234 21.0167 0.0000 0.0000 0.0000
# 2 63.7234 81.3964 21.0167 0.0000 0.0000 0.0000
# 3 21.0167 21.0167 106.2114 0.0000 0.0000 0.0000
# 4 0.0000 0.0000 0.0000 105.4166 0.0000 0.0000
# 5 0.0000 0.0000 0.0000 0.0000 105.4166 0.0000
# 6 0.0000 0.0000 0.0000 0.0000 0.0000 8.8365
#
#
#
# Elastic Compliance Matrix: (Units=1/GPa)
#
#
# Indices 1 2 3 4 5 6 
#
# 1 0.031947 -0.024637 -0.001446 0.000000 0.000000 0.000000
# 2 -0.024637 0.031947 -0.001446 0.000000 0.000000 0.000000
# 3 -0.001446 -0.001446 0.009988 0.000000 0.000000 0.000000
# 4 0.000000 0.000000 0.000000 0.009486 0.000000 0.000000
# 5 0.000000 0.000000 0.000000 0.000000 0.009486 0.000000
# 6 0.000000 0.000000 0.000000 0.000000 0.000000 0.113167
#
#
# Mechanical properties :
#
#
# Convention : Reuss Voigt Hill
#
# Bulk Modulus (GPa) = 53.13074 53.39086 53.26080
# Shear Modulus (GPa) = 18.70188 54.81712 36.75950
#
# Velocity S-wave (km/s) = 2.85761 4.89235 4.00631
# Velocity P-wave (km/s) = 5.83838 7.43141 6.68253
#
# Compressibility (1/GPa) = 0.01882150
#
# Stress axis : x y z
#
# Youngs Moduli (GPa) = 31.30228 31.30228 100.12400
#
# Poissons Ratio (x) = 0.77119 0.14482
# Poissons Ratio (y) = 0.77119 0.14482
# Poissons Ratio (z) = 0.04528 0.04528
#
# Static dielectric constant tensor:
#      x y z
#    x 1.532630 0.000000 0.000000 
#    y 0.000000 1.532630 0.000000 
#    z 0.000000 0.000000 3.400350 
# 
# From -- ./inp_files/1293.got.cif
#   From: 2010.05.17/outbox.cif.g08.bks.cpg/sg180_1_cif.got.tgz:1293.got - 2010.05.20 11:43:55.
