data_PCOD9584978
_publ_section_title
;
Structure prediction by ZEFSAII (Michael W. Deem and Ramdas Pophale) SiO2 
 PCOD9584978
Probable space group: P 6 M M
;
_chemical_formula_sum "Si O2"
_cell_formula_units_Z 96
_cell_length_a 17.972521
_cell_length_b 17.972521
_cell_length_c 21.106014
_cell_angle_alpha 90.000000
_cell_angle_beta 90.000000
_cell_angle_gamma 120.000000
_cell_volume 5904.115612
_symmetry_space_group_name_H-M "P 6 M M"
_symmetry_group_IT_number 183
_symmetry_cell_setting 'hexagonal'
loop_
_space_group_symop_operation_xyz
x,y,z
x-y,x,z
-y,x-y,z
-x,-y,z
-x+y,-x,z
y,-x+y,z
-x+y,y,z
x,x-y,z
-y,-x,z
y,x,z
x-y,-y,z
-x,-x+y,z
loop_
_atom_site_type_symbol
_atom_site_label
_atom_site_fract_x
_atom_site_fract_y
_atom_site_fract_z
Si Si1 0.362854 0.895734 0.336010
Si Si2 0.899838 0.268546 0.459437
Si Si3 0.360642 0.901669 0.197957
Si Si4 0.896294 0.532327 0.826015
Si Si5 0.267267 0.900950 0.947073
Si Si6 0.269915 0.899536 0.701753
Si Si7 0.509658 0.667318 0.579842
Si Si8 0.668927 0.504873 0.060284
O O1 0.432667 0.865333 0.346940
O O2 0.300726 0.876980 0.394771
O O3 0.320326 0.866071 0.266752
O O4 0.418506 0.000000 0.331627
O O5 0.832167 0.167834 0.467713
O O6 0.884288 0.317659 0.517330
O O7 0.000000 0.296922 0.457666
O O8 0.451613 0.903225 0.201268
O O9 0.318626 0.854578 0.133010
O O10 0.383708 0.000000 0.192206
O O11 0.861519 0.430760 0.824636
O O12 0.873947 0.565740 0.889496
O O13 0.875421 0.569132 0.763661
O O14 0.000000 0.578700 0.826484
O O15 0.166203 0.833798 0.948552
O O16 0.295116 0.000000 0.938150
O O17 0.308438 0.889777 0.011589
O O18 0.168496 0.831505 0.697013
O O19 0.315044 0.885075 0.640759
O O20 0.298655 0.000000 0.705922
O O21 0.484717 0.742358 0.579860
O O22 0.425924 0.574077 0.581274
O O23 0.736524 0.473049 0.046846
O O24 0.571962 0.428039 0.052381
#
# Coordination Sequence:
#
# PCOD9584978 Si02
#       8
#    12  12  12  12  12  12  12  12
#     4   8  14  26  44  65  88 114 146 183 222 267
#     4  10  20  32  47  67  90 118 152 191 232 272
#     4   8  14  25  41  60  83 114 151 187 222 263
#     4   9  17  30  49  72  96 122 153 186 220 264
#     4  10  20  33  50  71  93 119 152 191 233 276
#     4  10  20  33  50  72  97 127 163 202 241 279
#     4  10  20  33  50  73 100 127 153 183 222 269
#     4  10  19  29  42  62  90 123 157 192 228 265
#
# _framework density 16.259844000000001
#
# number of rings (size 3 to 8) (size 9 to 14) (size 15 to 20)
#    0.000    2.625    0.000    3.250    0.000    3.750 
#    0.000    0.000    0.000    4.125    0.000    0.000 
#    0.000    6.000    0.000    0.000    0.000   16.750 
#
# Total GULP energy -534884.769586 kJ/mol
# GULP energy per Si atom -5571.716350 kJ/mol
# Density = 1.622284 g / cm^3
# Si number density = 16.259844 Si / 1000 Ang^3
#
#
#
# Elastic Constant Matrix: (Units=GPa)
#
#
# Indices 1 2 3 4 5 6 
#
# 1 79.9540 54.9727 31.2080 0.0000 0.0000 0.0000
# 2 54.9727 79.9540 31.2080 0.0000 0.0000 0.0000
# 3 31.2080 31.2080 119.2114 0.0000 0.0000 0.0000
# 4 0.0000 0.0000 0.0000 0.7037 0.0000 0.0000
# 5 0.0000 0.0000 0.0000 0.0000 0.7037 0.0000
# 6 0.0000 0.0000 0.0000 0.0000 0.0000 12.4906
#
#
#
# Elastic Compliance Matrix: (Units=1/GPa)
#
#
# Indices 1 2 3 4 5 6 
#
# 1 0.024231 -0.015799 -0.002208 0.000000 0.000000 0.000000
# 2 -0.015799 0.024231 -0.002208 0.000000 0.000000 0.000000
# 3 -0.002208 -0.002208 0.009544 0.000000 0.000000 0.000000
# 4 0.000000 0.000000 0.000000 1.421061 0.000000 0.000000
# 5 0.000000 0.000000 0.000000 0.000000 1.421061 0.000000
# 6 0.000000 0.000000 0.000000 0.000000 0.000000 0.080060
#
#
# Mechanical properties :
#
#
# Convention : Reuss Voigt Hill
#
# Bulk Modulus (GPa) = 56.88503 57.09966 56.99234
# Shear Modulus (GPa) = 1.65209 13.56165 7.60687
#
# Velocity S-wave (km/s) = 1.00909 2.89114 2.16529
# Velocity P-wave (km/s) = 6.03478 6.80721 6.43260
#
# Compressibility (1/GPa) = 0.01757932
#
# Stress axis : x y z
#
# Youngs Moduli (GPa) = 41.26894 41.26894 104.77483
#
# Poissons Ratio (x) = 0.65199 0.23130
# Poissons Ratio (y) = 0.65199 0.23130
# Poissons Ratio (z) = 0.09110 0.09110
#
# Static dielectric constant tensor:
#      x y z
#    x 1.537160 0.000000 0.000000 
#    y 0.000000 1.537160 0.000000 
#    z 0.000000 0.000000 1.569510 
# 
# From -- ./inp_files/3034.got.cif
#   From: 2010.05.17/outbox.cif.g08.bks.cpg/sg183_2_cif.got.tgz:3034.got - 2010.05.20 12:02:58.
