data_PCOD9584746
_publ_section_title
;
Structure prediction by ZEFSAII (Michael W. Deem and Ramdas Pophale) SiO2 
 PCOD9584746
Probable space group: P 63 2 2
;
_chemical_formula_sum "Si O2"
_cell_formula_units_Z 42
_cell_length_a 17.134049
_cell_length_b 17.134049
_cell_length_c 7.421444
_cell_angle_alpha 90.000000
_cell_angle_beta 90.000000
_cell_angle_gamma 120.000000
_cell_volume 1886.857296
_symmetry_space_group_name_H-M "P 63 2 2"
_symmetry_group_IT_number 182
_symmetry_cell_setting 'hexagonal'
loop_
_space_group_symop_operation_xyz
x,y,z
x-y,x,1/2+z
-y,x-y,z
-x,-y,1/2+z
-x+y,-x,z
y,-x+y,1/2+z
x-y,-y,-z
-x,-x+y,-z
y,x,-z
-y,-x,1/2-z
-x+y,y,1/2-z
x,x-y,1/2-z
loop_
_atom_site_type_symbol
_atom_site_label
_atom_site_fract_x
_atom_site_fract_y
_atom_site_fract_z
Si Si1 0.281361 0.224788 0.844385
Si Si2 0.520404 0.675507 0.529995
Si Si3 0.343175 0.499500 0.535780
Si Si4 0.688678 0.688678 0.000000
O O1 0.278020 0.139010 0.750000
O O2 0.258187 0.272687 0.682365
O O3 0.211358 0.211358 0.000000
O O4 0.380948 0.283921 0.940854
O O5 0.440536 0.577484 0.473933
O O6 0.484954 0.745434 0.493005
O O7 0.519047 0.663661 0.747834
O O8 0.322712 0.406657 0.450176
#
# Coordination Sequence:
#
# PCOD9584746 Si02
#       4
#    12  12  12   6
#     4  12  26  46  70 100 139 179 231 298 362 437
#     4  10  21  39  61  95 139 189 246 291 337 394
#     4  10  21  37  64  93 135 193 244 293 337 398
#     4  12  24  40  68  98 140 178 240 292 348 414
#
# _framework density 22.259232999999998
#
# number of rings (size 3 to 8) (size 9 to 14) (size 15 to 20)
#    0.000    1.143    5.714    0.571    2.000    4.571 
#    0.000    0.000    0.000    0.000    0.000    0.000 
#   14.286    0.000    0.000    0.000    0.000    0.000 
#
# Total GULP energy -234422.829967 kJ/mol
# GULP energy per Si atom -5581.495952 kJ/mol
# Density = 2.220857 g / cm^3
# Si number density = 22.259233 Si / 1000 Ang^3
#
#
#
# Elastic Constant Matrix: (Units=GPa)
#
#
# Indices 1 2 3 4 5 6 
#
# 1 -831.0569 909.4436 28.2199 0.0000 0.0000 0.0000
# 2 909.4436 -831.0569 28.2199 0.0000 0.0000 0.0000
# 3 28.2199 28.2199 122.4915 0.0000 0.0000 0.0000
# 4 0.0000 0.0000 0.0000 27.2936 0.0000 0.0000
# 5 0.0000 0.0000 0.0000 0.0000 27.2936 0.0000
# 6 0.0000 0.0000 0.0000 0.0000 0.0000 -870.2503
#
#
#
# Elastic Compliance Matrix: (Units=1/GPa)
#
#
# Indices 1 2 3 4 5 6 
#
# 1 0.007360 0.007934 -0.003524 0.000000 0.000000 0.000000
# 2 0.007934 0.007360 -0.003524 0.000000 0.000000 0.000000
# 3 -0.003524 -0.003524 0.009787 0.000000 0.000000 0.000000
# 4 0.000000 0.000000 0.000000 0.036639 0.000000 0.000000
# 5 0.000000 0.000000 0.000000 0.000000 0.036639 0.000000
# 6 0.000000 0.000000 0.000000 0.000000 0.000000 -0.001149
#
#
# Mechanical properties :
#
#
# Convention : Reuss Voigt Hill
#
# Bulk Modulus (GPa) = 38.04917 43.57159 40.81038
# Shear Modulus (GPa) = 48.25265 -330.16634 -140.95684
#
# Velocity S-wave (km/s) = 4.66097 -12.19220 -7.96634
# Velocity P-wave (km/s) = 6.78947 13.36348 8.13897
#
# Compressibility (1/GPa) = 0.02628178
#
# Stress axis : x y z
#
# Youngs Moduli (GPa) = 135.87211 135.87211 102.17275
#
# Poissons Ratio (x) = -1.07806 0.36001
# Poissons Ratio (y) = -1.07806 0.36001
# Poissons Ratio (z) = 0.47875 0.47875
#
# Static dielectric constant tensor:
#      x y z
#    x 1.830010 0.000000 0.000000 
#    y 0.000000 1.830010 0.000000 
#    z 0.000000 0.000000 1.522430 
# 
# From -- ./inp_files/1336.got.cif
#   From: 2010.05.17/outbox.cif.g08.bks.cpg/sg182_1_cif.got.tgz:1336.got - 2010.05.20 11:58:53.
