data_PCOD9584164
_publ_section_title
;
Structure prediction by ZEFSAII (Michael W. Deem and Ramdas Pophale) SiO2 
 PCOD9584164
Probable space group: P 62 2 2
;
_chemical_formula_sum "Si O2"
_cell_formula_units_Z 69
_cell_length_a 13.418928
_cell_length_b 13.418928
_cell_length_c 18.844083
_cell_angle_alpha 90.000000
_cell_angle_beta 90.000000
_cell_angle_gamma 120.000000
_cell_volume 2938.605489
_symmetry_space_group_name_H-M "P 62 2 2"
_symmetry_group_IT_number 180
_symmetry_cell_setting 'hexagonal'
loop_
_space_group_symop_operation_xyz
x,y,z
x-y,x,1/3+z
-y,x-y,2/3+z
-x,-y,z
-x+y,-x,1/3+z
y,-x+y,2/3+z
x-y,-y,-z
-x,-x+y,1/3-z
y,x,2/3-z
-y,-x,2/3-z
-x+y,y,-z
x,x-y,1/3-z
loop_
_atom_site_type_symbol
_atom_site_label
_atom_site_fract_x
_atom_site_fract_y
_atom_site_fract_z
Si Si1 0.291252 0.470525 0.070992
Si Si2 0.249908 0.536833 0.337124
Si Si3 0.932392 0.153868 0.593464
Si Si4 0.500000 0.000000 0.193853
Si Si5 0.584350 0.703820 0.869471
Si Si6 0.000000 0.000000 0.833334
Si Si7 0.281857 0.888742 0.888382
O O1 0.382513 0.604261 0.053335
O O2 0.384959 0.433285 0.091493
O O3 0.209915 0.447454 0.138383
O O4 0.212721 0.425442 0.000000
O O5 0.386833 0.613168 0.333334
O O6 0.179318 0.511815 0.264249
O O7 0.234368 0.424363 0.375391
O O8 0.796859 0.097798 0.578351
O O9 0.000000 0.169342 0.666667
O O10 0.986472 0.285851 0.568223
O O11 0.970934 0.081613 0.545709
O O12 0.495525 0.095131 0.143750
O O13 0.611726 0.611726 0.833334
O O14 0.180239 0.819762 0.833334
#
# Coordination Sequence:
#
# PCOD9584164 Si02
#       7
#    12  12  12   6  12   3  12
#     4  11  27  47  72 107 146 198 257 313 394 469
#     4  11  26  47  75 107 151 196 252 321 393 465
#     4  12  25  46  71 111 146 201 252 306 389 457
#     4  12  24  42  75 107 148 194 250 324 388 461
#     4  12  27  50  76 112 159 205 266 324 396 488
#     4  12  26  48  68 106 156 198 242 324 354 462
#     4  12  24  42  73 103 146 186 248 308 381 451
#
# _framework density 23.480525
#
# number of rings (size 3 to 8) (size 9 to 14) (size 15 to 20)
#    0.000    0.348    6.957    1.304    2.435    2.087 
#    3.130    3.478    0.000    0.000    0.000    0.000 
#    0.000    0.000    0.000    0.000    0.000    0.000 
#
# Total GULP energy -385247.380728 kJ/mol
# GULP energy per Si atom -5583.295373 kJ/mol
# Density = 2.342708 g / cm^3
# Si number density = 23.480525 Si / 1000 Ang^3
#
#
#
# Elastic Constant Matrix: (Units=GPa)
#
#
# Indices 1 2 3 4 5 6 
#
# 1 85.2697 18.3495 50.0414 0.0000 0.0000 0.0000
# 2 18.3495 85.2697 50.0414 0.0000 0.0000 0.0000
# 3 50.0414 50.0414 155.6654 0.0000 0.0000 0.0000
# 4 0.0000 0.0000 0.0000 33.6443 0.0000 0.0000
# 5 0.0000 0.0000 0.0000 0.0000 33.6443 0.0000
# 6 0.0000 0.0000 0.0000 0.0000 0.0000 33.4601
#
#
#
# Elastic Compliance Matrix: (Units=1/GPa)
#
#
# Indices 1 2 3 4 5 6 
#
# 1 0.014470 -0.000473 -0.004499 0.000000 0.000000 0.000000
# 2 -0.000473 0.014470 -0.004499 0.000000 0.000000 0.000000
# 3 -0.004499 -0.004499 0.009317 0.000000 0.000000 0.000000
# 4 0.000000 0.000000 0.000000 0.029723 0.000000 0.000000
# 5 0.000000 0.000000 0.000000 0.000000 0.029723 0.000000
# 6 0.000000 0.000000 0.000000 0.000000 0.000000 0.029886
#
#
# Mechanical properties :
#
#
# Convention : Reuss Voigt Hill
#
# Bulk Modulus (GPa) = 51.78048 62.56325 57.17187
# Shear Modulus (GPa) = 32.68606 34.00122 33.34364
#
# Velocity S-wave (km/s) = 3.73507 3.80947 3.77245
# Velocity P-wave (km/s) = 6.37976 6.78616 6.58610
#
# Compressibility (1/GPa) = 0.01931230
#
# Stress axis : x y z
#
# Youngs Moduli (GPa) = 69.10897 69.10897 107.33187
#
# Poissons Ratio (x) = 0.03271 0.48294
# Poissons Ratio (y) = 0.03271 0.48294
# Poissons Ratio (z) = 0.31095 0.31095
#
# Static dielectric constant tensor:
#      x y z
#    x 1.931430 0.000000 0.000000 
#    y 0.000000 1.931430 0.000000 
#    z 0.000000 0.000000 1.974720 
# 
# From -- ./inp_files/7832.got.cif
#   From: 2010.05.17/outbox.cif.g08.bks.cpg/sg180_4_cif.got.tgz:7832.got - 2010.05.20 11:43:55.
