data_PCOD9584257
_publ_section_title
;
Structure prediction by ZEFSAII (Michael W. Deem and Ramdas Pophale) SiO2 
 PCOD9584257
Probable space group: P 64 2 2
;
_chemical_formula_sum "Si O2"
_cell_formula_units_Z 96
_cell_length_a 23.392440
_cell_length_b 23.392440
_cell_length_c 12.478039
_cell_angle_alpha 90.000000
_cell_angle_beta 90.000000
_cell_angle_gamma 120.000000
_cell_volume 5913.274214
_symmetry_space_group_name_H-M "P 64 2 2"
_symmetry_group_IT_number 181
_symmetry_cell_setting 'hexagonal'
loop_
_space_group_symop_operation_xyz
x,y,z
x-y,x,2/3+z
-y,x-y,1/3+z
-x,-y,z
-x+y,-x,2/3+z
y,-x+y,1/3+z
x-y,-y,-z
-x,-x+y,2/3-z
y,x,1/3-z
-y,-x,1/3-z
-x+y,y,-z
x,x-y,2/3-z
loop_
_atom_site_type_symbol
_atom_site_label
_atom_site_fract_x
_atom_site_fract_y
_atom_site_fract_z
Si Si1 0.656136 0.064216 0.075020
Si Si2 0.454393 0.252617 0.651535
Si Si3 0.572906 0.390769 0.287703
Si Si4 0.744452 0.554878 0.098176
Si Si5 0.631265 0.938661 0.577406
Si Si6 0.339363 0.119336 0.765509
Si Si7 0.403425 0.702155 0.951892
Si Si8 0.940428 0.515286 0.611923
O O1 0.720247 0.082544 0.149508
O O2 0.600622 0.057925 0.158901
O O3 0.685823 0.129434 0.002004
O O4 0.630000 0.000000 0.000000
O O5 0.463720 0.242349 0.526873
O O6 0.397424 0.186508 0.709258
O O7 0.519238 0.264411 0.710914
O O8 0.582345 0.417656 0.166667
O O9 0.507396 0.319898 0.285710
O O10 0.635305 0.383464 0.318997
O O11 0.573723 0.446966 0.363192
O O12 0.720381 0.597647 0.163150
O O13 0.794269 0.588538 0.000000
O O14 0.678459 0.928809 0.662279
O O15 0.572653 0.942588 0.643305
O O16 0.668555 0.000000 0.500000
O O17 0.301961 0.150981 0.833334
O O18 0.377474 0.688737 0.833334
O O19 0.371076 0.742152 0.000000
O O20 0.000000 0.500000 0.629575
#
# Coordination Sequence:
#
# PCOD9584257 Si02
#       8
#    12  12  12  12  12  12  12  12
#     4  10  21  38  54  75 101 125 162 205 258 313
#     4  10  20  39  58  68  94 133 162 197 252 319
#     4  12  21  38  56  72  96 124 167 208 246 323
#     4  11  23  35  53  77 100 124 159 212 266 304
#     4  10  19  33  53  77  97 126 165 208 255 307
#     4   8  16  34  57  71  89 131 167 189 241 313
#     4  12  24  36  51  71  89 117 157 198 252 309
#     4  11  23  36  55  72  96 130 162 202 255 324
#
# _framework density 16.234660999999999
#
# number of rings (size 3 to 8) (size 9 to 14) (size 15 to 20)
#    0.000    1.500    2.500    4.875    1.750    3.250 
#    2.250    0.000    0.000    0.000    0.000    0.000 
#    0.000    0.000    0.000    0.000    0.000    0.000 
#
# Total GULP energy -534572.884118 kJ/mol
# GULP energy per Si atom -5568.467543 kJ/mol
# Density = 1.619771 g / cm^3
# Si number density = 16.234661 Si / 1000 Ang^3
#
#
#
# Elastic Constant Matrix: (Units=GPa)
#
#
# Indices 1 2 3 4 5 6 
#
# 1 62.5865 16.2341 41.7964 0.0000 0.0000 0.0000
# 2 16.2341 62.5865 41.7964 0.0000 0.0000 0.0000
# 3 41.7964 41.7964 104.4814 0.0000 0.0000 0.0000
# 4 0.0000 0.0000 0.0000 -1.8253 0.0000 0.0000
# 5 0.0000 0.0000 0.0000 0.0000 -1.8253 0.0000
# 6 0.0000 0.0000 0.0000 0.0000 0.0000 23.1762
#
#
#
# Elastic Compliance Matrix: (Units=1/GPa)
#
#
# Indices 1 2 3 4 5 6 
#
# 1 0.021805 0.000231 -0.008815 0.000000 0.000000 0.000000
# 2 0.000231 0.021805 -0.008815 0.000000 0.000000 0.000000
# 3 -0.008815 -0.008815 0.016624 0.000000 0.000000 0.000000
# 4 0.000000 0.000000 0.000000 -0.547850 0.000000 0.000000
# 5 0.000000 0.000000 0.000000 0.000000 -0.547850 0.000000
# 6 0.000000 0.000000 0.000000 0.000000 0.000000 0.043148
#
#
# Mechanical properties :
#
#
# Convention : Reuss Voigt Hill
#
# Bulk Modulus (GPa) = 39.31590 47.70091 43.50840
# Shear Modulus (GPa) = -5.26847 12.56028 3.64590
#
# Velocity S-wave (km/s) = -1.80340 2.78451 1.50021
# Velocity P-wave (km/s) = 4.46470 6.30745 5.46431
#
# Compressibility (1/GPa) = 0.02543500
#
# Stress axis : x y z
#
# Youngs Moduli (GPa) = 45.86128 45.86128 60.15452
#
# Poissons Ratio (x) = -0.01059 0.53027
# Poissons Ratio (y) = -0.01059 0.53027
# Poissons Ratio (z) = 0.40427 0.40427
#
# Static dielectric constant tensor:
#      x y z
#    x 1.524100 0.000000 0.000000 
#    y 0.000000 1.524100 0.000000 
#    z 0.000000 0.000000 1.594330 
# 
# From -- ./inp_files/5225.got.cif
#   From: 2010.05.17/outbox.cif.g08.bks.cpg/sg181_3_cif.got.tgz:5225.got - 2010.05.20 11:51:17.
