data_PCOD9584595
_publ_section_title
;
Structure prediction by ZEFSAII (Michael W. Deem and Ramdas Pophale) SiO2 
 PCOD9584595
Probable space group: P 64 2 2
;
_chemical_formula_sum "Si O2"
_cell_formula_units_Z 60
_cell_length_a 18.000000
_cell_length_b 18.000000
_cell_length_c 12.000000
_cell_angle_alpha 90.000000
_cell_angle_beta 90.000000
_cell_angle_gamma 120.000000
_cell_volume 3367.106770
_symmetry_space_group_name_H-M "P 64 2 2"
_symmetry_group_IT_number 181
_symmetry_cell_setting 'hexagonal'
loop_
_space_group_symop_operation_xyz
x,y,z
x-y,x,2/3+z
-y,x-y,1/3+z
-x,-y,z
-x+y,-x,2/3+z
y,-x+y,1/3+z
x-y,-y,-z
-x,-x+y,2/3-z
y,x,1/3-z
-y,-x,1/3-z
-x+y,y,-z
x,x-y,2/3-z
loop_
_atom_site_type_symbol
_atom_site_label
_atom_site_fract_x
_atom_site_fract_y
_atom_site_fract_z
Si Si1 0.593046 0.406955 0.166667
Si Si2 0.420994 0.367075 0.055497
Si Si3 0.549097 0.594920 0.496731
Si Si4 0.299469 0.000000 0.000000
Si Si5 0.188310 0.375109 0.632021
Si Si6 0.229459 0.680940 0.420860
O O1 0.522291 0.401254 0.078055
O O2 0.560746 0.305215 0.170195
O O3 0.381675 0.381675 0.166667
O O4 0.409511 0.421203 0.959692
O O5 0.373093 0.267633 0.018054
O O6 0.500000 0.500000 0.544797
O O7 0.636863 0.652184 0.563676
O O8 0.479496 0.624990 0.506062
O O9 0.301022 0.089792 0.992278
O O10 0.190457 0.380913 0.500000
O O11 0.264708 0.464905 0.678118
O O12 0.251524 0.625762 0.333334
#
# Coordination Sequence:
#
# PCOD9584595 Si02
#       6
#     6  12  12   6  12  12
#     4  10  23  40  52  80 120 168 204 244 310 376
#     4  11  23  39  57  83 119 162 198 242 312 375
#     4  11  20  34  57  77 112 151 202 257 302 361
#     4  10  19  36  58  86 104 147 194 246 304 342
#     4  10  20  38  60  81 113 150 195 247 298 357
#     4  10  23  35  56  83 112 154 215 260 303 348
#
# _framework density 17.819452999999999
#
# number of rings (size 3 to 8) (size 9 to 14) (size 15 to 20)
#    0.000    1.600    2.000    4.200    1.400    3.200 
#    0.000   12.000    0.000    0.000    0.000    0.000 
#    0.000    2.400    0.000    0.000    0.000    0.000 
#
# Total GULP energy -334027.641288 kJ/mol
# GULP energy per Si atom -5567.127355 kJ/mol
# Density = 1.777889 g / cm^3
# Si number density = 17.819453 Si / 1000 Ang^3
#
#
#
# Elastic Constant Matrix: (Units=GPa)
#
#
# Indices 1 2 3 4 5 6 
#
# 1 101.2352 33.1590 45.0294 0.0000 0.0000 0.0000
# 2 33.1590 101.2352 45.0294 0.0000 0.0000 0.0000
# 3 45.0294 45.0294 107.0046 0.0000 0.0000 0.0000
# 4 0.0000 0.0000 0.0000 41.7987 0.0000 0.0000
# 5 0.0000 0.0000 0.0000 0.0000 41.7987 0.0000
# 6 0.0000 0.0000 0.0000 0.0000 0.0000 34.0381
#
#
#
# Elastic Compliance Matrix: (Units=1/GPa)
#
#
# Indices 1 2 3 4 5 6 
#
# 1 0.012526 -0.002163 -0.004361 0.000000 0.000000 0.000000
# 2 -0.002163 0.012526 -0.004361 0.000000 0.000000 0.000000
# 3 -0.004361 -0.004361 0.013016 0.000000 0.000000 0.000000
# 4 0.000000 0.000000 0.000000 0.023924 0.000000 0.000000
# 5 0.000000 0.000000 0.000000 0.000000 0.023924 0.000000
# 6 0.000000 0.000000 0.000000 0.000000 0.000000 0.029379
#
#
# Mechanical properties :
#
#
# Convention : Reuss Voigt Hill
#
# Bulk Modulus (GPa) = 61.35697 61.76785 61.56241
# Shear Modulus (GPa) = 35.08812 35.94426 35.51619
#
# Velocity S-wave (km/s) = 4.44226 4.49613 4.46927
# Velocity P-wave (km/s) = 7.79864 7.85442 7.82658
#
# Compressibility (1/GPa) = 0.01629807
#
# Stress axis : x y z
#
# Youngs Moduli (GPa) = 79.83221 79.83221 76.83001
#
# Poissons Ratio (x) = 0.17269 0.33505
# Poissons Ratio (y) = 0.17269 0.33505
# Poissons Ratio (z) = 0.34815 0.34815
#
# Static dielectric constant tensor:
#      x y z
#    x 1.548310 0.000000 0.000000 
#    y 0.000000 1.548310 0.000000 
#    z 0.000000 0.000000 -6.432810 
# 
# From -- ./inp_files/4903.got.cif
#   From: 2010.05.17/outbox.ucp.g08.bks.cvg/sg181_3_cif.got.tgz:4903.got - 2010.06.11 15:20:36.
