data_PCOD9584835
_publ_section_title
;
Structure prediction by ZEFSAII (Michael W. Deem and Ramdas Pophale) SiO2 
 PCOD9584835
Probable space group: P 63 2 2
;
_chemical_formula_sum "Si O2"
_cell_formula_units_Z 42
_cell_length_a 11.685804
_cell_length_b 11.685804
_cell_length_c 17.824593
_cell_angle_alpha 90.000000
_cell_angle_beta 90.000000
_cell_angle_gamma 120.000000
_cell_volume 2107.984676
_symmetry_space_group_name_H-M "P 63 2 2"
_symmetry_group_IT_number 182
_symmetry_cell_setting 'hexagonal'
loop_
_space_group_symop_operation_xyz
x,y,z
x-y,x,1/2+z
-y,x-y,z
-x,-y,1/2+z
-x+y,-x,z
y,-x+y,1/2+z
x-y,-y,-z
-x,-x+y,-z
y,x,-z
-y,-x,1/2-z
-x+y,y,1/2-z
x,x-y,1/2-z
loop_
_atom_site_type_symbol
_atom_site_label
_atom_site_fract_x
_atom_site_fract_y
_atom_site_fract_z
Si Si1 0.427502 0.370862 0.918670
Si Si2 0.397386 0.064922 0.263405
Si Si3 0.848731 0.848731 0.000000
Si Si4 0.910241 0.291056 0.883905
O O1 0.336171 0.361952 0.849492
O O2 0.563033 0.509652 0.909913
O O3 0.443073 0.243677 0.904209
O O4 0.372068 0.372068 0.000000
O O5 0.544269 0.088538 0.250000
O O6 0.392646 0.196323 0.250000
O O7 0.305745 0.951863 0.203445
O O8 0.771047 0.756975 0.929392
O O9 0.878237 0.000000 0.000000
#
# Coordination Sequence:
#
# PCOD9584835 Si02
#       4
#    12  12   6  12
#     4  11  24  41  69  95 131 168 220 278 321 396
#     4  10  24  41  64  93 130 171 211 268 327 394
#     4  10  24  40  66 100 138 170 210 282 324 398
#     4  11  23  44  64 100 128 173 221 266 338 382
#
# _framework density 19.924244000000002
#
# number of rings (size 3 to 8) (size 9 to 14) (size 15 to 20)
#    0.286    1.143    1.429    2.571    8.000    0.000 
#    0.000    2.857    0.000    0.000    0.000    0.000 
#    0.000    0.000    0.000    0.000    0.000    0.000 
#
# Total GULP energy -234413.342062 kJ/mol
# GULP energy per Si atom -5581.270049 kJ/mol
# Density = 1.987890 g / cm^3
# Si number density = 19.924244 Si / 1000 Ang^3
#
#
#
# Elastic Constant Matrix: (Units=GPa)
#
#
# Indices 1 2 3 4 5 6 
#
# 1 97.5990 52.8069 67.4240 0.0000 0.0000 0.0000
# 2 52.8069 97.5990 67.4240 0.0000 0.0000 0.0000
# 3 67.4240 67.4240 206.5853 0.0000 0.0000 0.0000
# 4 0.0000 0.0000 0.0000 12.3001 0.0000 0.0000
# 5 0.0000 0.0000 0.0000 0.0000 12.3001 0.0000
# 6 0.0000 0.0000 0.0000 0.0000 0.0000 22.3960
#
#
#
# Elastic Compliance Matrix: (Units=1/GPa)
#
#
# Indices 1 2 3 4 5 6 
#
# 1 0.015862 -0.006463 -0.003068 0.000000 0.000000 0.000000
# 2 -0.006463 0.015862 -0.003068 0.000000 0.000000 0.000000
# 3 -0.003068 -0.003068 0.006843 0.000000 0.000000 0.000000
# 4 0.000000 0.000000 0.000000 0.081300 0.000000 0.000000
# 5 0.000000 0.000000 0.000000 0.000000 0.081300 0.000000
# 6 0.000000 0.000000 0.000000 0.000000 0.000000 0.044651
#
#
# Mechanical properties :
#
#
# Convention : Reuss Voigt Hill
#
# Bulk Modulus (GPa) = 74.79114 86.34369 80.56741
# Shear Modulus (GPa) = 18.15063 23.67444 20.91254
#
# Velocity S-wave (km/s) = 3.02152 3.45080 3.24327
# Velocity P-wave (km/s) = 7.05635 7.70113 7.38578
#
# Compressibility (1/GPa) = 0.01337057
#
# Stress axis : x y z
#
# Youngs Moduli (GPa) = 63.04307 63.04307 146.13563
#
# Poissons Ratio (x) = 0.40746 0.44828
# Poissons Ratio (y) = 0.40746 0.44828
# Poissons Ratio (z) = 0.19339 0.19339
#
# Static dielectric constant tensor:
#      x y z
#    x 1.710790 0.000000 0.000000 
#    y 0.000000 1.710790 0.000000 
#    z 0.000000 0.000000 1.695330 
# 
# From -- ./inp_files/4060.got.cif
#   From: 2010.05.17/outbox.cif.g08.bks.cpg/sg182_3_cif.got.tgz:4060.got - 2010.05.20 11:58:53.
