data_PCOD9584631
_publ_section_title
;
Structure prediction by ZEFSAII (Michael W. Deem and Ramdas Pophale) SiO2 
 PCOD9584631
Probable space group: P 63 2 2
;
_chemical_formula_sum "Si O2"
_cell_formula_units_Z 84
_cell_length_a 18.534488
_cell_length_b 18.534488
_cell_length_c 12.782776
_cell_angle_alpha 90.000000
_cell_angle_beta 90.000000
_cell_angle_gamma 120.000000
_cell_volume 3802.918317
_symmetry_space_group_name_H-M "P 63 2 2"
_symmetry_group_IT_number 182
_symmetry_cell_setting 'hexagonal'
loop_
_space_group_symop_operation_xyz
x,y,z
x-y,x,1/2+z
-y,x-y,z
-x,-y,1/2+z
-x+y,-x,z
y,-x+y,1/2+z
x-y,-y,-z
-x,-x+y,-z
y,x,-z
-y,-x,1/2-z
-x+y,y,1/2-z
x,x-y,1/2-z
loop_
_atom_site_type_symbol
_atom_site_label
_atom_site_fract_x
_atom_site_fract_y
_atom_site_fract_z
Si Si1 0.185497 0.201840 0.753732
Si Si2 0.231211 0.738041 0.573796
Si Si3 0.249430 0.438936 0.141593
Si Si4 0.868988 0.415963 0.412495
Si Si5 0.130721 0.247950 0.092278
Si Si6 0.072934 0.759664 0.578895
Si Si7 0.432740 0.494932 0.141550
O O1 0.093471 0.186941 0.750000
O O2 0.195567 0.143852 0.667043
O O3 0.215037 0.190993 0.867746
O O4 0.245952 0.289203 0.697490
O O5 0.250392 0.751760 0.449465
O O6 0.193769 0.644052 0.613021
O O7 0.318093 0.813397 0.615612
O O8 0.154440 0.753344 0.585477
O O9 0.235192 0.470384 0.250000
O O10 0.174159 0.344968 0.124979
O O11 0.333265 0.433091 0.141592
O O12 0.894078 0.440434 0.535642
O O13 0.962026 0.453758 0.365463
O O14 0.100046 0.250731 0.976001
O O15 0.000000 0.695480 0.500000
O O16 0.455330 0.544671 0.250000
#
# Coordination Sequence:
#
# PCOD9584631 Si02
#       7
#    12  12  12  12  12  12  12
#     4  10  19  33  53  82 114 148 193 248 297 363
#     4  10  21  37  60  84 119 167 200 253 314 379
#     4  10  18  35  62  86 117 161 205 256 322 371
#     4  10  22  40  58  88 126 163 208 259 320 383
#     4   9  19  37  52  81 114 152 195 247 304 363
#     4   9  20  35  58  84 111 150 205 244 299 368
#     4  10  22  37  59  94 125 156 210 268 316 377
#
# _framework density 22.0883
#
# number of rings (size 3 to 8) (size 9 to 14) (size 15 to 20)
#    0.000    2.286    1.429    1.143    2.000    2.857 
#    3.429    3.571    0.000    4.571    0.000    0.000 
#    0.000    0.000    0.000    0.000    0.000    0.000 
#
# Total GULP energy -467693.125351 kJ/mol
# GULP energy per Si atom -5567.775302 kJ/mol
# Density = 2.203803 g / cm^3
# Si number density = 22.088300 Si / 1000 Ang^3
#
#
#
# Elastic Constant Matrix: (Units=GPa)
#
#
# Indices 1 2 3 4 5 6 
#
# 1 97.3417 30.7165 11.3736 0.0000 0.0000 0.0000
# 2 30.7165 97.3417 11.3736 0.0000 0.0000 0.0000
# 3 11.3736 11.3736 50.7464 0.0000 0.0000 0.0000
# 4 0.0000 0.0000 0.0000 1.8840 0.0000 0.0000
# 5 0.0000 0.0000 0.0000 0.0000 1.8840 0.0000
# 6 0.0000 0.0000 0.0000 0.0000 0.0000 33.3126
#
#
#
# Elastic Compliance Matrix: (Units=1/GPa)
#
#
# Indices 1 2 3 4 5 6 
#
# 1 0.011571 -0.003438 -0.001823 0.000000 0.000000 0.000000
# 2 -0.003438 0.011571 -0.001823 0.000000 0.000000 0.000000
# 3 -0.001823 -0.001823 0.020523 0.000000 0.000000 0.000000
# 4 0.000000 0.000000 0.000000 0.530772 0.000000 0.000000
# 5 0.000000 0.000000 0.000000 0.000000 0.530772 0.000000
# 6 0.000000 0.000000 0.000000 0.000000 0.000000 0.030019
#
#
# Mechanical properties :
#
#
# Convention : Reuss Voigt Hill
#
# Bulk Modulus (GPa) = 33.90141 39.15082 36.52611
# Shear Modulus (GPa) = 4.31322 20.21388 12.26355
#
# Velocity S-wave (km/s) = 1.39891 3.02841 2.35884
# Velocity P-wave (km/s) = 4.24155 5.47645 4.89807
#
# Compressibility (1/GPa) = 0.02949730
#
# Stress axis : x y z
#
# Youngs Moduli (GPa) = 86.42271 86.42271 48.72610
#
# Poissons Ratio (x) = 0.29715 0.08882
# Poissons Ratio (y) = 0.29715 0.08882
# Poissons Ratio (z) = 0.15753 0.15753
#
# Static dielectric constant tensor:
#      x y z
#    x 1.874230 0.000000 0.000000 
#    y 0.000000 1.874230 0.000000 
#    z 0.000000 0.000000 1.703690 
# 
# From -- ./inp_files/3714.got.cif
#   From: 2010.05.17/outbox.cif.g08.bks.cpg/sg182_2_cif.got.tgz:3714.got - 2010.05.20 11:58:53.
