data_PCOD9584781
_publ_section_title
;
Structure prediction by ZEFSAII (Michael W. Deem and Ramdas Pophale) SiO2 
 PCOD9584781
Probable space group: P 63 2 2
;
_chemical_formula_sum "Si O2"
_cell_formula_units_Z 54
_cell_length_a 24.722289
_cell_length_b 24.722289
_cell_length_c 5.506432
_cell_angle_alpha 90.000000
_cell_angle_beta 90.000000
_cell_angle_gamma 120.000000
_cell_volume 2914.595366
_symmetry_space_group_name_H-M "P 63 2 2"
_symmetry_group_IT_number 182
_symmetry_cell_setting 'hexagonal'
loop_
_space_group_symop_operation_xyz
x,y,z
x-y,x,1/2+z
-y,x-y,z
-x,-y,1/2+z
-x+y,-x,z
y,-x+y,1/2+z
x-y,-y,-z
-x,-x+y,-z
y,x,-z
-y,-x,1/2-z
-x+y,y,1/2-z
x,x-y,1/2-z
loop_
_atom_site_type_symbol
_atom_site_label
_atom_site_fract_x
_atom_site_fract_y
_atom_site_fract_z
Si Si1 0.371703 0.000000 0.500000
Si Si2 0.202367 0.496781 0.953192
Si Si3 0.000000 0.305702 0.000000
Si Si4 0.144045 0.793491 0.490216
Si Si5 0.198899 0.599450 0.250000
Si Si6 0.498425 0.897374 0.874342
O O1 0.340230 0.002715 0.251651
O O2 0.380302 0.940406 0.482028
O O3 0.254233 0.508466 0.750000
O O4 0.139889 0.488185 0.829114
O O5 0.175652 0.426170 0.050501
O O6 0.226840 0.558799 0.122876
O O7 0.068624 0.312584 0.001303
O O8 0.163993 0.836008 0.250000
O O9 0.172074 0.827927 0.750000
O O10 0.155465 0.552438 0.456051
O O11 0.466777 0.933553 0.750000
#
# Coordination Sequence:
#
# PCOD9584781 Si02
#       6
#     6  12   6  12   6  12
#     4  12  24  37  60  88 126 160 196 257 306 370
#     4  10  22  39  61  86 110 153 204 256 321 388
#     4  12  24  41  64  96 132 160 210 253 290 370
#     4  11  24  41  66  97 125 170 206 248 309 362
#     4  10  22  38  58  82 110 152 196 262 318 384
#     4  10  23  38  55  86 115 151 195 249 320 379
#
# _framework density 18.527443999999999
#
# number of rings (size 3 to 8) (size 9 to 14) (size 15 to 20)
#    0.000    1.333    2.222    2.667   14.000    0.000 
#    0.000    0.000    0.000   20.000    0.000    0.000 
#    0.000    0.000    0.000    6.667    0.000    0.000 
#
# Total GULP energy -300859.628549 kJ/mol
# GULP energy per Si atom -5571.474603 kJ/mol
# Density = 1.848527 g / cm^3
# Si number density = 18.527444 Si / 1000 Ang^3
#
#
#
# Elastic Constant Matrix: (Units=GPa)
#
#
# Indices 1 2 3 4 5 6 
#
# 1 46.8227 109.5752 46.2610 0.0000 0.0000 0.0000
# 2 109.5752 46.8227 46.2610 0.0000 0.0000 0.0000
# 3 46.2610 46.2610 101.1401 0.0000 0.0000 0.0000
# 4 0.0000 0.0000 0.0000 -28.5254 0.0000 0.0000
# 5 0.0000 0.0000 0.0000 0.0000 -28.5254 0.0000
# 6 0.0000 0.0000 0.0000 0.0000 0.0000 -31.3763
#
#
#
# Elastic Compliance Matrix: (Units=1/GPa)
#
#
# Indices 1 2 3 4 5 6 
#
# 1 -0.003585 0.012351 -0.004009 0.000000 0.000000 0.000000
# 2 0.012351 -0.003585 -0.004009 0.000000 0.000000 0.000000
# 3 -0.004009 -0.004009 0.013555 0.000000 0.000000 0.000000
# 4 0.000000 0.000000 0.000000 -0.035056 0.000000 0.000000
# 5 0.000000 0.000000 0.000000 0.000000 -0.035056 0.000000
# 6 0.000000 0.000000 0.000000 0.000000 0.000000 -0.031871
#
#
# Mechanical properties :
#
#
# Convention : Reuss Voigt Hill
#
# Bulk Modulus (GPa) = 66.44971 66.55331 66.50151
# Shear Modulus (GPa) = -50.37979 -18.17286 -34.27632
#
# Velocity S-wave (km/s) = -5.22025 -3.13527 -4.30586
# Velocity P-wave (km/s) = 0.62551 4.78465 3.35422
#
# Compressibility (1/GPa) = 0.01504897
#
# Stress axis : x y z
#
# Youngs Moduli (GPa) = -278.94998 -278.94998 73.77297
#
# Poissons Ratio (x) = 3.44524 0.29579
# Poissons Ratio (y) = 3.44524 0.29579
# Poissons Ratio (z) = -1.11844 -1.11844
#
# Static dielectric constant tensor:
#      x y z
#    x 1.793870 0.000000 0.000000 
#    y 0.000000 1.793870 0.000000 
#    z 0.000000 0.000000 1.657800 
# 
# From -- ./inp_files/592.got.cif
#   From: 2010.05.17/outbox.cif.g08.bks.cpg/sg182_1_cif.got.tgz:592.got - 2010.05.20 11:58:53.
