data_PCOD9584897
_publ_section_title
;
Structure prediction by ZEFSAII (Michael W. Deem and Ramdas Pophale) SiO2 
 PCOD9584897
Probable space group: P 63 2 2
;
_chemical_formula_sum "Si O2"
_cell_formula_units_Z 34
_cell_length_a 13.227224
_cell_length_b 13.227224
_cell_length_c 9.662101
_cell_angle_alpha 90.000000
_cell_angle_beta 90.000000
_cell_angle_gamma 120.000000
_cell_volume 1463.995094
_symmetry_space_group_name_H-M "P 63 2 2"
_symmetry_group_IT_number 182
_symmetry_cell_setting 'hexagonal'
loop_
_space_group_symop_operation_xyz
x,y,z
x-y,x,1/2+z
-y,x-y,z
-x,-y,1/2+z
-x+y,-x,z
y,-x+y,1/2+z
x-y,-y,-z
-x,-x+y,-z
y,x,-z
-y,-x,1/2-z
-x+y,y,1/2-z
x,x-y,1/2-z
loop_
_atom_site_type_symbol
_atom_site_label
_atom_site_fract_x
_atom_site_fract_y
_atom_site_fract_z
Si Si1 0.666668 0.333334 0.914788
Si Si2 0.591881 0.122813 0.386976
Si Si3 0.819447 0.713284 0.094663
Si Si4 0.000000 0.641562 0.000000
O O1 0.666668 0.333334 0.750000
O O2 0.794836 0.384266 0.980994
O O3 0.595363 0.190725 0.250000
O O4 0.689774 0.086357 0.385373
O O5 0.454742 0.024026 0.383183
O O6 0.874936 0.749872 0.250000
O O7 0.807032 0.807032 0.000000
O O8 0.891832 0.664089 0.010986
#
# Coordination Sequence:
#
# PCOD9584897 Si02
#       4
#     4  12  12   6
#     4  12  25  38  70 117 160 203 256 324 394 500
#     4  12  23  48  79 113 160 208 261 327 416 492
#     4  12  27  49  77 114 161 218 274 344 412 497
#     4  12  26  46  80 116 148 210 268 338 402 500
#
# _framework density 23.224119000000002
#
# number of rings (size 3 to 8) (size 9 to 14) (size 15 to 20)
#    0.000    0.000    8.824    1.059    0.000    5.647 
#    1.059    0.000    0.000    0.000    0.000    0.000 
#    0.000    0.000    0.000    0.000    0.000    0.000 
#
# Total GULP energy -189434.168178 kJ/mol
# GULP energy per Si atom -5571.593182 kJ/mol
# Density = 2.317126 g / cm^3
# Si number density = 23.224119 Si / 1000 Ang^3
#
#
#
# Elastic Constant Matrix: (Units=GPa)
#
#
# Indices 1 2 3 4 5 6 
#
# 1 49.6125 85.6402 52.4742 -0.0002 0.0003 0.0011
# 2 85.6402 49.6119 52.4787 0.0003 -0.0006 -0.0024
# 3 52.4742 52.4787 188.7684 -0.0002 -0.0001 0.0014
# 4 -0.0002 0.0003 -0.0002 30.4817 0.0000 0.0005
# 5 0.0003 -0.0006 -0.0001 0.0000 30.4818 0.0003
# 6 0.0011 -0.0024 0.0014 0.0005 0.0003 -18.0114
#
#
#
# Elastic Compliance Matrix: (Units=1/GPa)
#
#
# Indices 1 2 3 4 5 6 
#
# 1 -0.009164 0.018592 -0.002621 0.000000 0.000000 -0.000003
# 2 0.018592 -0.009165 -0.002620 0.000000 0.000000 0.000002
# 3 -0.002621 -0.002620 0.006755 0.000000 0.000000 0.000001
# 4 0.000000 0.000000 0.000000 0.032807 0.000000 0.000001
# 5 0.000000 0.000000 0.000000 0.000000 0.032806 0.000000
# 6 -0.000003 0.000002 0.000001 0.000001 0.000000 -0.055520
#
#
# Mechanical properties :
#
#
# Convention : Reuss Voigt Hill
#
# Bulk Modulus (GPa) = 66.11067 74.35323 70.23195
# Shear Modulus (GPa) = -216.07504 15.08372 -100.49566
#
# Velocity S-wave (km/s) = -9.65614 2.55126 -6.58529
# Velocity P-wave (km/s) = 9.78740 6.38464 5.24545
#
# Compressibility (1/GPa) = 0.01512615
#
# Stress axis : x y z
#
# Youngs Moduli (GPa) = -109.12189 -109.11226 148.04787
#
# Poissons Ratio (x) = 2.02858 0.38805
# Poissons Ratio (y) = 2.02876 0.38792
# Poissons Ratio (z) = -0.28602 -0.28590
#
# Static dielectric constant tensor:
#      x y z
#    x 1.930100 0.000000 0.000000 
#    y 0.000000 1.930100 0.000000 
#    z 0.000000 0.000000 1.888690 
# 
# From -- ./inp_files/1197.got.cif
#   From: 2010.05.17/outbox.cif.g08.bks.cpg/sg182_1_cif.got.tgz:1197.got - 2010.05.20 11:58:53.
