data_PCOD9584500
_publ_section_title
;
Structure prediction by ZEFSAII (Michael W. Deem and Ramdas Pophale) SiO2 
 PCOD9584500
Probable space group: P 64 2 2
;
_chemical_formula_sum "Si O2"
_cell_formula_units_Z 30
_cell_length_a 10.397178
_cell_length_b 10.397178
_cell_length_c 13.294600
_cell_angle_alpha 90.000000
_cell_angle_beta 90.000000
_cell_angle_gamma 120.000000
_cell_volume 1244.620257
_symmetry_space_group_name_H-M "P 64 2 2"
_symmetry_group_IT_number 181
_symmetry_cell_setting 'hexagonal'
loop_
_space_group_symop_operation_xyz
x,y,z
x-y,x,2/3+z
-y,x-y,1/3+z
-x,-y,z
-x+y,-x,2/3+z
y,-x+y,1/3+z
x-y,-y,-z
-x,-x+y,2/3-z
y,x,1/3-z
-y,-x,1/3-z
-x+y,y,-z
x,x-y,2/3-z
loop_
_atom_site_type_symbol
_atom_site_label
_atom_site_fract_x
_atom_site_fract_y
_atom_site_fract_z
Si Si1 0.608669 0.842699 0.036882
Si Si2 0.698396 0.754071 0.416770
Si Si3 0.298175 0.596350 0.000000
O O1 0.658896 0.773977 0.946588
O O2 0.443231 0.711538 0.061783
O O3 0.705892 0.890625 0.138688
O O4 0.633195 0.000000 0.000000
O O5 0.765204 0.882602 0.333334
O O6 0.521210 0.669180 0.391095
#
# Coordination Sequence:
#
# PCOD9584500 Si02
#       3
#    12  12   6
#     4  12  24  44  71 108 143 187 242 309 362 428
#     4  10  25  44  71  98 145 193 241 287 366 443
#     4  10  25  42  73  98 150 186 238 294 367 438
#
# _framework density 24.103736000000001
#
# number of rings (size 3 to 8) (size 9 to 14) (size 15 to 20)
#    1.200    0.000    0.000    5.400    0.000   10.400 
#    7.200    4.000    0.000    0.000    0.000    0.000 
#    0.000    0.000    0.000    0.000    0.000    0.000 
#
# Total GULP energy -167054.490342 kJ/mol
# GULP energy per Si atom -5568.483011 kJ/mol
# Density = 2.404887 g / cm^3
# Si number density = 24.103736 Si / 1000 Ang^3
#
#
#
# Elastic Constant Matrix: (Units=GPa)
#
#
# Indices 1 2 3 4 5 6 
#
# 1 104.0251 84.5927 28.7030 0.0000 0.0000 0.0000
# 2 84.5927 104.0251 28.7030 0.0000 0.0000 0.0000
# 3 28.7030 28.7030 141.2742 0.0000 0.0000 0.0000
# 4 0.0000 0.0000 0.0000 15.9762 0.0000 0.0000
# 5 0.0000 0.0000 0.0000 0.0000 15.9762 0.0000
# 6 0.0000 0.0000 0.0000 0.0000 0.0000 9.7162
#
#
#
# Elastic Compliance Matrix: (Units=1/GPa)
#
#
# Indices 1 2 3 4 5 6 
#
# 1 0.028556 -0.022905 -0.001148 0.000000 0.000000 0.000000
# 2 -0.022905 0.028556 -0.001148 0.000000 0.000000 0.000000
# 3 -0.001148 -0.001148 0.007545 0.000000 0.000000 0.000000
# 4 0.000000 0.000000 0.000000 0.062593 0.000000 0.000000
# 5 0.000000 0.000000 0.000000 0.000000 0.062593 0.000000
# 6 0.000000 0.000000 0.000000 0.000000 0.000000 0.102921
#
#
# Mechanical properties :
#
#
# Convention : Reuss Voigt Hill
#
# Bulk Modulus (GPa) = 70.15243 70.36911 70.26077
# Shear Modulus (GPa) = 14.37124 22.15544 18.26334
#
# Velocity S-wave (km/s) = 2.44442 3.03507 2.75562
# Velocity P-wave (km/s) = 6.09381 6.44514 6.27194
#
# Compressibility (1/GPa) = 0.01425467
#
# Stress axis : x y z
#
# Youngs Moduli (GPa) = 35.01914 35.01914 132.53837
#
# Poissons Ratio (x) = 0.80210 0.15218
# Poissons Ratio (y) = 0.80210 0.15218
# Poissons Ratio (z) = 0.04021 0.04021
#
# Static dielectric constant tensor:
#      x y z
#    x 1.927920 0.000000 0.000000 
#    y 0.000000 1.927920 0.000000 
#    z 0.000000 0.000000 1.979120 
# 
# From -- ./inp_files/5379.got.cif
#   From: 2010.05.17/outbox.cif.g08.bks.cpg/sg181_3_cif.got.tgz:5379.got - 2010.05.20 11:51:17.
