data_PCOD9584762
_publ_section_title
;
Structure prediction by ZEFSAII (Michael W. Deem and Ramdas Pophale) SiO2 
 PCOD9584762
Probable space group: P 63 2 2
;
_chemical_formula_sum "Si O2"
_cell_formula_units_Z 60
_cell_length_a 15.485997
_cell_length_b 15.485997
_cell_length_c 15.520670
_cell_angle_alpha 90.000000
_cell_angle_beta 90.000000
_cell_angle_gamma 120.000000
_cell_volume 3223.438868
_symmetry_space_group_name_H-M "P 63 2 2"
_symmetry_group_IT_number 182
_symmetry_cell_setting 'hexagonal'
loop_
_space_group_symop_operation_xyz
x,y,z
x-y,x,1/2+z
-y,x-y,z
-x,-y,1/2+z
-x+y,-x,z
y,-x+y,1/2+z
x-y,-y,-z
-x,-x+y,-z
y,x,-z
-y,-x,1/2-z
-x+y,y,1/2-z
x,x-y,1/2-z
loop_
_atom_site_type_symbol
_atom_site_label
_atom_site_fract_x
_atom_site_fract_y
_atom_site_fract_z
Si Si1 0.900701 0.883128 0.896980
Si Si2 0.185991 0.338402 0.349499
Si Si3 0.370279 0.397508 0.099897
Si Si4 0.537441 0.665882 0.751631
Si Si5 0.032981 0.437432 0.099515
O O1 0.832781 0.773504 0.862214
O O2 0.015771 0.915909 0.871541
O O3 0.883653 0.883653 0.000000
O O4 0.178036 0.356071 0.250000
O O5 0.102310 0.355832 0.391951
O O6 0.293462 0.414313 0.386053
O O7 0.405509 0.342318 0.167484
O O8 0.448523 0.513483 0.121451
O O9 0.387291 0.387291 0.000000
O O10 0.421659 0.578342 0.750000
O O11 0.546919 0.773460 0.750000
O O12 0.579130 0.635625 0.835661
O O13 0.000000 0.417446 0.000000
#
# Coordination Sequence:
#
# PCOD9584762 Si02
#       5
#    12  12  12  12  12
#     4   8  19  37  55  84 124 159 200 248 286 359
#     4  12  23  37  63  89 121 169 201 248 319 362
#     4  10  24  42  63  89 123 158 210 258 297 371
#     4  10  21  40  64  92 122 156 203 257 308 358
#     4  10  23  44  62  88 126 158 206 261 300 364
#
# _framework density 18.613661
#
# number of rings (size 3 to 8) (size 9 to 14) (size 15 to 20)
#    0.400    1.600    2.000    0.800    5.600    2.400 
#    1.200    0.000    0.000    0.000    0.000    0.000 
#    0.000    0.000    0.000    0.000    0.000    0.000 
#
# Total GULP energy -334175.898050 kJ/mol
# GULP energy per Si atom -5569.598301 kJ/mol
# Density = 1.857130 g / cm^3
# Si number density = 18.613661 Si / 1000 Ang^3
#
#
#
# Elastic Constant Matrix: (Units=GPa)
#
#
# Indices 1 2 3 4 5 6 
#
# 1 65.1438 41.8174 20.5479 0.0000 0.0000 0.0000
# 2 41.8174 65.1438 20.5479 0.0000 0.0000 0.0000
# 3 20.5479 20.5479 90.0927 0.0000 0.0000 0.0000
# 4 0.0000 0.0000 0.0000 -37.1815 0.0000 0.0000
# 5 0.0000 0.0000 0.0000 0.0000 -37.1815 0.0000
# 6 0.0000 0.0000 0.0000 0.0000 0.0000 11.6632
#
#
#
# Elastic Compliance Matrix: (Units=1/GPa)
#
#
# Indices 1 2 3 4 5 6 
#
# 1 0.026559 -0.016311 -0.002337 0.000000 0.000000 0.000000
# 2 -0.016311 0.026559 -0.002337 0.000000 0.000000 0.000000
# 3 -0.002337 -0.002337 0.012166 0.000000 0.000000 0.000000
# 4 0.000000 0.000000 0.000000 -0.026895 0.000000 0.000000
# 5 0.000000 0.000000 0.000000 0.000000 -0.026895 0.000000
# 6 0.000000 0.000000 0.000000 0.000000 0.000000 0.085740
#
#
# Mechanical properties :
#
#
# Convention : Reuss Voigt Hill
#
# Bulk Modulus (GPa) = 42.89716 42.91184 42.90450
# Shear Modulus (GPa) = 34.01958 -3.37548 15.32205
#
# Velocity S-wave (km/s) = 4.27976 -1.34810 2.87219
# Velocity P-wave (km/s) = 6.89332 4.54762 5.83947
#
# Compressibility (1/GPa) = 0.02331157
#
# Stress axis : x y z
#
# Youngs Moduli (GPa) = 37.65268 37.65268 82.19789
#
# Poissons Ratio (x) = 0.61417 0.19211
# Poissons Ratio (y) = 0.61417 0.19211
# Poissons Ratio (z) = 0.08800 0.08800
#
# Static dielectric constant tensor:
#      x y z
#    x 1.632390 0.000000 0.000000 
#    y 0.000000 1.632390 0.000000 
#    z 0.000000 0.000000 0.728890 
# 
# From -- ./inp_files/3441.got.cif
#   From: 2010.05.17/outbox.cif.g08.bks.cpg/sg182_2_cif.got.tgz:3441.got - 2010.05.20 11:58:53.
