data_PCOD9584182
_publ_section_title
;
Structure prediction by ZEFSAII (Michael W. Deem and Ramdas Pophale) SiO2 
 PCOD9584182
Probable space group: P 62 2 2
;
_chemical_formula_sum "Si O2"
_cell_formula_units_Z 51
_cell_length_a 12.994485
_cell_length_b 12.994485
_cell_length_c 15.926001
_cell_angle_alpha 90.000000
_cell_angle_beta 90.000000
_cell_angle_gamma 120.000000
_cell_volume 2328.925063
_symmetry_space_group_name_H-M "P 62 2 2"
_symmetry_group_IT_number 180
_symmetry_cell_setting 'hexagonal'
loop_
_space_group_symop_operation_xyz
x,y,z
x-y,x,1/3+z
-y,x-y,2/3+z
-x,-y,z
-x+y,-x,1/3+z
y,-x+y,2/3+z
x-y,-y,-z
-x,-x+y,1/3-z
y,x,2/3-z
-y,-x,2/3-z
-x+y,y,-z
x,x-y,1/3-z
loop_
_atom_site_type_symbol
_atom_site_label
_atom_site_fract_x
_atom_site_fract_y
_atom_site_fract_z
Si Si1 0.408673 0.663423 0.075947
Si Si2 0.801540 0.781681 0.057053
Si Si3 0.140039 0.368025 0.680429
Si Si4 0.000000 0.000000 0.166667
Si Si5 0.926475 0.368815 0.494732
O O1 0.371585 0.685793 0.166667
O O2 0.535270 0.776982 0.054116
O O3 0.401476 0.537935 0.087678
O O4 0.326606 0.653212 0.000000
O O5 0.738327 0.832148 0.995822
O O6 0.700224 0.688025 0.119808
O O7 0.909123 0.888222 0.109065
O O8 0.862060 0.724119 0.000000
O O9 0.159318 0.432797 0.769733
O O10 0.000000 0.311686 0.666667
O O11 0.000000 0.500000 0.537034
#
# Coordination Sequence:
#
# PCOD9584182 Si02
#       5
#    12  12  12   3  12
#     4  12  25  45  70 104 147 192 253 318 387 476
#     4  12  25  46  73 108 154 202 260 329 402 487
#     4  12  26  42  73 109 143 198 255 323 400 477
#     4  12  26  48  76 110 158 200 270 342 406 482
#     4  12  25  46  73 106 152 197 255 322 400 482
#
# _framework density 21.898515
#
# number of rings (size 3 to 8) (size 9 to 14) (size 15 to 20)
#    0.000    0.000    4.706    6.706    1.647    0.000 
#    0.000    0.000    0.000    0.706    0.000    0.000 
#    0.000    0.000    0.000    0.000    0.000    0.000 
#
# Total GULP energy -284876.973988 kJ/mol
# GULP energy per Si atom -5585.823019 kJ/mol
# Density = 2.184867 g / cm^3
# Si number density = 21.898515 Si / 1000 Ang^3
#
#
#
# Elastic Constant Matrix: (Units=GPa)
#
#
# Indices 1 2 3 4 5 6 
#
# 1 120.9742 59.3585 47.7694 0.0000 0.0000 0.0000
# 2 59.3585 120.9742 47.7694 0.0000 0.0000 0.0000
# 3 47.7694 47.7694 106.8895 0.0000 0.0000 0.0000
# 4 0.0000 0.0000 0.0000 45.5913 0.0000 0.0000
# 5 0.0000 0.0000 0.0000 0.0000 45.5913 0.0000
# 6 0.0000 0.0000 0.0000 0.0000 0.0000 30.8079
#
#
#
# Elastic Compliance Matrix: (Units=1/GPa)
#
#
# Indices 1 2 3 4 5 6 
#
# 1 0.011748 -0.004482 -0.003247 0.000000 0.000000 0.000000
# 2 -0.004482 0.011748 -0.003247 0.000000 0.000000 0.000000
# 3 -0.003247 -0.003247 0.012258 0.000000 0.000000 0.000000
# 4 0.000000 0.000000 0.000000 0.021934 0.000000 0.000000
# 5 0.000000 0.000000 0.000000 0.000000 0.021934 0.000000
# 6 0.000000 0.000000 0.000000 0.000000 0.000000 0.032459
#
#
# Mechanical properties :
#
#
# Convention : Reuss Voigt Hill
#
# Bulk Modulus (GPa) = 72.45993 73.18137 72.82065
# Shear Modulus (GPa) = 36.06659 37.32746 36.69703
#
# Velocity S-wave (km/s) = 4.06271 4.13312 4.09807
# Velocity P-wave (km/s) = 7.42754 7.50119 7.46445
#
# Compressibility (1/GPa) = 0.01380073
#
# Stress axis : x y z
#
# Youngs Moduli (GPa) = 85.12391 85.12391 81.58174
#
# Poissons Ratio (x) = 0.38153 0.26490
# Poissons Ratio (y) = 0.38153 0.26490
# Poissons Ratio (z) = 0.27640 0.27640
#
# Static dielectric constant tensor:
#      x y z
#    x 1.847510 0.000000 0.000000 
#    y 0.000000 1.847510 0.000000 
#    z 0.000000 0.000000 1.832150 
# 
# From -- ./inp_files/5944.got.cif
#   From: 2010.05.17/outbox.cif.g08.bks.cpg/sg180_3_cif.got.tgz:5944.got - 2010.05.20 11:43:55.
