data_PCOD9584026
_publ_section_title
;
Structure prediction by ZEFSAII (Michael W. Deem and Ramdas Pophale) SiO2 
 PCOD9584026
Probable space group: P 62 2 2
;
_chemical_formula_sum "Si O2"
_cell_formula_units_Z 54
_cell_length_a 23.115047
_cell_length_b 23.115047
_cell_length_c 5.207933
_cell_angle_alpha 90.000000
_cell_angle_beta 90.000000
_cell_angle_gamma 120.000000
_cell_volume 2409.825423
_symmetry_space_group_name_H-M "P 62 2 2"
_symmetry_group_IT_number 180
_symmetry_cell_setting 'hexagonal'
loop_
_space_group_symop_operation_xyz
x,y,z
x-y,x,1/3+z
-y,x-y,2/3+z
-x,-y,z
-x+y,-x,1/3+z
y,-x+y,2/3+z
x-y,-y,-z
-x,-x+y,1/3-z
y,x,2/3-z
-y,-x,2/3-z
-x+y,y,-z
x,x-y,1/3-z
loop_
_atom_site_type_symbol
_atom_site_label
_atom_site_fract_x
_atom_site_fract_y
_atom_site_fract_z
Si Si1 0.940731 0.673399 0.869707
Si Si2 0.064104 0.128207 0.500000
Si Si3 0.102062 0.551031 0.166667
Si Si4 0.789110 0.210891 0.333334
Si Si5 0.804173 0.000000 0.500000
Si Si6 0.185378 0.592689 0.666667
Si Si7 0.403086 0.403086 0.833334
Si Si8 0.490628 0.745314 0.166667
O O1 0.861227 0.624094 0.862324
O O2 0.000000 0.717247 0.666667
O O3 0.947584 0.733269 0.047111
O O4 0.966871 0.624692 0.970567
O O5 0.081646 0.081646 0.333334
O O6 0.132142 0.173612 0.653000
O O7 0.143306 0.589531 0.415711
O O8 0.056621 0.581667 0.070159
O O9 0.747471 0.213956 0.580247
O O10 0.226287 0.669444 0.747469
#
# Coordination Sequence:
#
# PCOD9584026 Si02
#       8
#    12   6   6   6   6   6   6   6
#     4  11  27  46  76 106 156 196 257 318 390 472
#     4  12  28  48  74 101 142 183 258 310 400 467
#     4  11  26  43  78 107 150 195 258 318 394 447
#     4  12  30  49  80 116 157 215 260 328 392 470
#     4  11  28  46  72 108 140 197 244 330 390 475
#     4  12  26  48  76 112 154 207 256 322 377 468
#     4  10  24  45  70 111 144 194 246 322 378 466
#     4  12  28  50  80 114 164 206 268 314 392 468
#
# _framework density 22.408263999999999
#
# number of rings (size 3 to 8) (size 9 to 14) (size 15 to 20)
#    0.000    0.667    0.000    5.333   18.667    4.889 
#    0.000    0.000    0.000    0.000    0.000    0.000 
#    0.000    0.000    0.000    0.000    0.000    0.000 
#
# Total GULP energy -301301.527233 kJ/mol
# GULP energy per Si atom -5579.657912 kJ/mol
# Density = 2.235726 g / cm^3
# Si number density = 22.408264 Si / 1000 Ang^3
#
#
#
# Elastic Constant Matrix: (Units=GPa)
#
#
# Indices 1 2 3 4 5 6 
#
# 1 137.0013 88.3426 55.5849 0.0000 0.0000 0.0000
# 2 88.3426 137.0013 55.5849 0.0000 0.0000 0.0000
# 3 55.5849 55.5849 95.2171 0.0000 0.0000 0.0000
# 4 0.0000 0.0000 0.0000 -42.5843 0.0000 0.0000
# 5 0.0000 0.0000 0.0000 0.0000 -42.5843 0.0000
# 6 0.0000 0.0000 0.0000 0.0000 0.0000 24.3294
#
#
#
# Elastic Compliance Matrix: (Units=1/GPa)
#
#
# Indices 1 2 3 4 5 6 
#
# 1 0.013392 -0.007159 -0.003638 0.000000 0.000000 0.000000
# 2 -0.007159 0.013392 -0.003638 0.000000 0.000000 0.000000
# 3 -0.003638 -0.003638 0.014750 0.000000 0.000000 0.000000
# 4 0.000000 0.000000 0.000000 -0.023483 0.000000 0.000000
# 5 0.000000 0.000000 0.000000 0.000000 -0.023483 0.000000
# 6 0.000000 0.000000 0.000000 0.000000 0.000000 0.041103
#
#
# Mechanical properties :
#
#
# Convention : Reuss Voigt Hill
#
# Bulk Modulus (GPa) = 78.97722 85.36052 82.16887
# Shear Modulus (GPa) = 72.71224 -0.85405 35.92910
#
# Velocity S-wave (km/s) = 5.70257 -0.61803 4.00857
# Velocity P-wave (km/s) = 8.87019 6.13732 7.62716
#
# Compressibility (1/GPa) = 0.01266188
#
# Stress axis : x y z
#
# Youngs Moduli (GPa) = 74.67165 74.67165 67.79516
#
# Poissons Ratio (x) = 0.53460 0.24667
# Poissons Ratio (y) = 0.53460 0.24667
# Poissons Ratio (z) = 0.27169 0.27169
#
# Static dielectric constant tensor:
#      x y z
#    x 1.876320 0.000000 0.000000 
#    y 0.000000 1.876320 0.000000 
#    z 0.000000 0.000000 2.119950 
# 
# From -- ./inp_files/1310.got.cif
#   From: 2010.05.17/outbox.cif.g08.bks.cpg/sg180_1_cif.got.tgz:1310.got - 2010.05.20 11:43:55.
