data_PCOD9584029
_publ_section_title
;
Structure prediction by ZEFSAII (Michael W. Deem and Ramdas Pophale) SiO2 
 PCOD9584029
Probable space group: P 62 2 2
;
_chemical_formula_sum "Si O2"
_cell_formula_units_Z 45
_cell_length_a 20.156481
_cell_length_b 20.156481
_cell_length_c 5.359186
_cell_angle_alpha 90.000000
_cell_angle_beta 90.000000
_cell_angle_gamma 120.000000
_cell_volume 1885.640463
_symmetry_space_group_name_H-M "P 62 2 2"
_symmetry_group_IT_number 180
_symmetry_cell_setting 'hexagonal'
loop_
_space_group_symop_operation_xyz
x,y,z
x-y,x,1/3+z
-y,x-y,2/3+z
-x,-y,z
-x+y,-x,1/3+z
y,-x+y,2/3+z
x-y,-y,-z
-x,-x+y,1/3-z
y,x,2/3-z
-y,-x,2/3-z
-x+y,y,-z
x,x-y,1/3-z
loop_
_atom_site_type_symbol
_atom_site_label
_atom_site_fract_x
_atom_site_fract_y
_atom_site_fract_z
Si Si1 0.500000 0.500000 0.833334
Si Si2 0.259098 0.366457 0.597981
Si Si3 0.512286 0.883719 0.885489
Si Si4 0.442458 0.221229 0.666667
Si Si5 0.925263 0.074738 0.333334
Si Si6 0.000000 0.217864 0.666667
O O1 0.478895 0.424466 0.662453
O O2 0.185925 0.371850 0.500000
O O3 0.333744 0.422935 0.436643
O O4 0.242573 0.282543 0.541243
O O5 0.253731 0.390115 0.878957
O O6 0.504798 0.802277 0.818017
O O7 0.433429 0.866858 0.000000
O O8 0.940394 0.141204 0.526183
O O9 0.000000 0.098850 0.166667
#
# Coordination Sequence:
#
# PCOD9584029 Si02
#       6
#     3  12  12   6   6   6
#     4  12  26  44  80 118 152 212 258 334 400 482
#     4  10  24  46  72 106 148 191 250 317 382 458
#     4  11  25  44  77 112 154 199 263 319 391 473
#     4  10  24  49  78 105 156 203 244 325 390 455
#     4  12  28  50  72 103 144 192 246 304 374 451
#     4  12  28  45  77 108 144 194 250 316 380 460
#
# _framework density 23.864571000000002
#
# number of rings (size 3 to 8) (size 9 to 14) (size 15 to 20)
#    0.000    1.067    0.000    4.400    7.467   12.267 
#    0.000    0.000   58.667    0.000    0.000    0.000 
#    0.000    0.000    0.000    0.000    0.000    0.000 
#
# Total GULP energy -251231.107388 kJ/mol
# GULP energy per Si atom -5582.913498 kJ/mol
# Density = 2.381025 g / cm^3
# Si number density = 23.864571 Si / 1000 Ang^3
#
#
#
# Elastic Constant Matrix: (Units=GPa)
#
#
# Indices 1 2 3 4 5 6 
#
# 1 159.0341 68.1368 56.5893 0.0000 0.0000 0.0000
# 2 68.1368 159.0341 56.5893 0.0000 0.0000 0.0000
# 3 56.5893 56.5893 97.9951 0.0000 0.0000 0.0000
# 4 0.0000 0.0000 0.0000 31.9807 0.0000 0.0000
# 5 0.0000 0.0000 0.0000 0.0000 31.9807 0.0000
# 6 0.0000 0.0000 0.0000 0.0000 0.0000 45.4487
#
#
#
# Elastic Compliance Matrix: (Units=1/GPa)
#
#
# Indices 1 2 3 4 5 6 
#
# 1 0.008591 -0.002411 -0.003569 0.000000 0.000000 0.000000
# 2 -0.002411 0.008591 -0.003569 0.000000 0.000000 0.000000
# 3 -0.003569 -0.003569 0.014326 0.000000 0.000000 0.000000
# 4 0.000000 0.000000 0.000000 0.031269 0.000000 0.000000
# 5 0.000000 0.000000 0.000000 0.000000 0.031269 0.000000
# 6 0.000000 0.000000 0.000000 0.000000 0.000000 0.022003
#
#
# Mechanical properties :
#
#
# Convention : Reuss Voigt Hill
#
# Bulk Modulus (GPa) = 80.57227 86.52155 83.54691
# Shear Modulus (GPa) = 35.89849 37.53190 36.71520
#
# Velocity S-wave (km/s) = 3.88269 3.97004 3.92660
# Velocity P-wave (km/s) = 7.34411 7.57290 7.45938
#
# Compressibility (1/GPa) = 0.01241122
#
# Stress axis : x y z
#
# Youngs Moduli (GPa) = 116.40513 116.40513 69.80186
#
# Poissons Ratio (x) = 0.28062 0.24910
# Poissons Ratio (y) = 0.28062 0.24910
# Poissons Ratio (z) = 0.41542 0.41542
#
# Static dielectric constant tensor:
#      x y z
#    x 1.870260 0.000000 0.000000 
#    y 0.000000 1.870260 0.000000 
#    z 0.000000 0.000000 2.828330 
# 
# From -- ./inp_files/918.got.cif
#   From: 2010.05.17/outbox.cif.g08.bks.cpg/sg180_1_cif.got.tgz:918.got - 2010.05.20 11:43:55.
