data_PCOD9584410
_publ_section_title
;
Structure prediction by ZEFSAII (Michael W. Deem and Ramdas Pophale) SiO2 
 PCOD9584410
Probable space group: P 64 2 2
;
_chemical_formula_sum "Si O2"
_cell_formula_units_Z 48
_cell_length_a 17.314418
_cell_length_b 17.314418
_cell_length_c 10.527167
_cell_angle_alpha 90.000000
_cell_angle_beta 90.000000
_cell_angle_gamma 120.000000
_cell_volume 2733.115216
_symmetry_space_group_name_H-M "P 64 2 2"
_symmetry_group_IT_number 181
_symmetry_cell_setting 'hexagonal'
loop_
_space_group_symop_operation_xyz
x,y,z
x-y,x,2/3+z
-y,x-y,1/3+z
-x,-y,z
-x+y,-x,2/3+z
y,-x+y,1/3+z
x-y,-y,-z
-x,-x+y,2/3-z
y,x,1/3-z
-y,-x,1/3-z
-x+y,y,-z
x,x-y,2/3-z
loop_
_atom_site_type_symbol
_atom_site_label
_atom_site_fract_x
_atom_site_fract_y
_atom_site_fract_z
Si Si1 0.670860 0.164306 0.524017
Si Si2 0.210230 0.632982 0.469552
Si Si3 0.144472 0.438534 0.578969
Si Si4 0.044084 0.605697 0.569208
O O1 0.568783 0.137566 0.500000
O O2 0.724480 0.272064 0.530858
O O3 0.711639 0.145459 0.398318
O O4 0.664322 0.105707 0.646349
O O5 0.243378 0.621689 0.333334
O O6 0.187505 0.545172 0.549800
O O7 0.114209 0.626831 0.456135
O O8 0.205417 0.410833 0.500000
O O9 0.041377 0.386054 0.539162
O O10 0.000000 0.500000 0.600798
#
# Coordination Sequence:
#
# PCOD9584410 Si02
#       4
#    12  12  12  12
#     4  12  21  32  52  71  97 130 181 226 270 315
#     4  11  22  33  49  72 100 131 171 226 272 318
#     4  11  22  36  49  71  96 133 176 231 272 320
#     4  10  22  35  51  68  98 134 177 223 280 324
#
# _framework density 17.562377999999999
#
# number of rings (size 3 to 8) (size 9 to 14) (size 15 to 20)
#    0.000    1.000    7.500    2.250    0.000    4.500 
#    0.000    0.000    0.000    0.000    0.000    0.000 
#    0.000    0.000    0.000    0.000    0.000   50.000 
#
# Total GULP energy -267783.879606 kJ/mol
# GULP energy per Si atom -5578.830825 kJ/mol
# Density = 1.752240 g / cm^3
# Si number density = 17.562378 Si / 1000 Ang^3
#
#
#
# Elastic Constant Matrix: (Units=GPa)
#
#
# Indices 1 2 3 4 5 6 
#
# 1 75.6707 30.2657 9.1251 0.0000 0.0000 0.0000
# 2 30.2657 75.6707 9.1251 0.0000 0.0000 0.0000
# 3 9.1251 9.1251 39.6106 0.0000 0.0000 0.0000
# 4 0.0000 0.0000 0.0000 21.7146 0.0000 0.0000
# 5 0.0000 0.0000 0.0000 0.0000 21.7146 0.0000
# 6 0.0000 0.0000 0.0000 0.0000 0.0000 22.7025
#
#
#
# Elastic Compliance Matrix: (Units=1/GPa)
#
#
# Indices 1 2 3 4 5 6 
#
# 1 0.015927 -0.006097 -0.002264 0.000000 0.000000 0.000000
# 2 -0.006097 0.015927 -0.002264 0.000000 0.000000 0.000000
# 3 -0.002264 -0.002264 0.026289 0.000000 0.000000 0.000000
# 4 0.000000 0.000000 0.000000 0.046052 0.000000 0.000000
# 5 0.000000 0.000000 0.000000 0.000000 0.046052 0.000000
# 6 0.000000 0.000000 0.000000 0.000000 0.000000 0.044048
#
#
# Mechanical properties :
#
#
# Convention : Reuss Voigt Hill
#
# Bulk Modulus (GPa) = 27.10716 31.99823 29.55270
# Shear Modulus (GPa) = 21.94487 22.72209 22.33348
#
# Velocity S-wave (km/s) = 3.53872 3.60084 3.56991
# Velocity P-wave (km/s) = 5.67142 5.96216 5.81860
#
# Compressibility (1/GPa) = 0.03689062
#
# Stress axis : x y z
#
# Youngs Moduli (GPa) = 62.78696 62.78696 38.03858
#
# Poissons Ratio (x) = 0.38282 0.08614
# Poissons Ratio (y) = 0.38282 0.08614
# Poissons Ratio (z) = 0.14218 0.14218
#
# Static dielectric constant tensor:
#      x y z
#    x 1.627880 0.000000 0.000000 
#    y 0.000000 1.627880 0.000000 
#    z 0.000000 0.000000 1.691100 
# 
# From -- ./inp_files/4579.got.cif
#   From: 2010.05.17/outbox.cif.g08.bks.cpg/sg181_3_cif.got.tgz:4579.got - 2010.05.20 11:51:17.
