data_PCOD9584502
_publ_section_title
;
Structure prediction by ZEFSAII (Michael W. Deem and Ramdas Pophale) SiO2 
 PCOD9584502
Probable space group: P 64 2 2
;
_chemical_formula_sum "Si O2"
_cell_formula_units_Z 42
_cell_length_a 8.647497
_cell_length_b 8.647497
_cell_length_c 26.158261
_cell_angle_alpha 90.000000
_cell_angle_beta 90.000000
_cell_angle_gamma 120.000000
_cell_volume 1694.027049
_symmetry_space_group_name_H-M "P 64 2 2"
_symmetry_group_IT_number 181
_symmetry_cell_setting 'hexagonal'
loop_
_space_group_symop_operation_xyz
x,y,z
x-y,x,2/3+z
-y,x-y,1/3+z
-x,-y,z
-x+y,-x,2/3+z
y,-x+y,1/3+z
x-y,-y,-z
-x,-x+y,2/3-z
y,x,1/3-z
-y,-x,1/3-z
-x+y,y,-z
x,x-y,2/3-z
loop_
_atom_site_type_symbol
_atom_site_label
_atom_site_fract_x
_atom_site_fract_y
_atom_site_fract_z
Si Si1 0.786108 0.886650 0.771588
Si Si2 0.365358 0.634643 0.166667
Si Si3 0.500000 0.000000 0.893759
Si Si4 0.500000 0.000000 0.322466
Si Si5 0.770598 0.567666 0.068440
O O1 0.760860 0.880430 0.833334
O O2 0.663831 0.685937 0.749967
O O3 0.740009 0.026530 0.746479
O O4 0.000000 0.000000 0.763658
O O5 0.432054 0.823853 0.140308
O O6 0.329700 0.496467 0.121642
O O7 0.380894 0.040429 0.363093
O O8 0.576760 0.184814 0.290642
#
# Coordination Sequence:
#
# PCOD9584502 Si02
#       5
#    12   6   6   6  12
#     4  11  24  42  69 116 157 195 262 346 391 471
#     4  12  22  39  77 110 142 202 278 326 395 479
#     4  12  21  40  66 109 158 190 256 355 391 452
#     4  10  25  45  70 100 162 207 250 328 419 502
#     4  11  24  46  72 108 153 212 267 325 411 496
#
# _framework density 24.792995000000001
#
# number of rings (size 3 to 8) (size 9 to 14) (size 15 to 20)
#    0.000    0.857    4.286    2.571    4.000    0.571 
#    0.000    2.857    6.286    1.714    0.000    0.000 
#    0.000    0.000    0.000    0.000    0.000    0.000 
#
# Total GULP energy -233838.977942 kJ/mol
# GULP energy per Si atom -5567.594713 kJ/mol
# Density = 2.473657 g / cm^3
# Si number density = 24.792995 Si / 1000 Ang^3
#
#
#
# Elastic Constant Matrix: (Units=GPa)
#
#
# Indices 1 2 3 4 5 6 
#
# 1 136.3311 52.6916 18.7245 0.0000 0.0000 0.0000
# 2 52.6916 136.3311 18.7245 0.0000 0.0000 0.0000
# 3 18.7245 18.7245 90.0247 0.0000 0.0000 0.0000
# 4 0.0000 0.0000 0.0000 9.2934 0.0000 0.0000
# 5 0.0000 0.0000 0.0000 0.0000 9.2934 0.0000
# 6 0.0000 0.0000 0.0000 0.0000 0.0000 41.8198
#
#
#
# Elastic Compliance Matrix: (Units=1/GPa)
#
#
# Indices 1 2 3 4 5 6 
#
# 1 0.008737 -0.003219 -0.001148 0.000000 0.000000 0.000000
# 2 -0.003219 0.008737 -0.001148 0.000000 0.000000 0.000000
# 3 -0.001148 -0.001148 0.011585 0.000000 0.000000 0.000000
# 4 0.000000 0.000000 0.000000 0.107603 0.000000 0.000000
# 5 0.000000 0.000000 0.000000 0.000000 0.107603 0.000000
# 6 0.000000 0.000000 0.000000 0.000000 0.000000 0.023912
#
#
# Mechanical properties :
#
#
# Convention : Reuss Voigt Hill
#
# Bulk Modulus (GPa) = 55.46205 60.32978 57.89592
# Shear Modulus (GPa) = 17.53054 30.25107 23.89081
#
# Velocity S-wave (km/s) = 2.66198 3.49685 3.10758
# Velocity P-wave (km/s) = 5.64507 6.37888 6.02316
#
# Compressibility (1/GPa) = 0.01803035
#
# Stress axis : x y z
#
# Youngs Moduli (GPa) = 114.45700 114.45700 86.31504
#
# Poissons Ratio (x) = 0.36846 0.09906
# Poissons Ratio (y) = 0.36846 0.09906
# Poissons Ratio (z) = 0.13136 0.13136
#
# Static dielectric constant tensor:
#      x y z
#    x 2.099030 0.000000 0.000000 
#    y 0.000000 2.099030 0.000000 
#    z 0.000000 0.000000 2.011550 
# 
# From -- ./inp_files/11988.got.cif
#   From: 2010.05.17/outbox.cif.g08.bks.cpg/sg181_6_cif.got.tgz:11988.got - 2010.05.20 11:51:17.
