data_PCOD9584503
_publ_section_title
;
Structure prediction by ZEFSAII (Michael W. Deem and Ramdas Pophale) SiO2 
 PCOD9584503
Probable space group: P 64 2 2
;
_chemical_formula_sum "Si O2"
_cell_formula_units_Z 48
_cell_length_a 14.382283
_cell_length_b 14.382283
_cell_length_c 12.008133
_cell_angle_alpha 90.000000
_cell_angle_beta 90.000000
_cell_angle_gamma 120.000000
_cell_volume 2151.105850
_symmetry_space_group_name_H-M "P 64 2 2"
_symmetry_group_IT_number 181
_symmetry_cell_setting 'hexagonal'
loop_
_space_group_symop_operation_xyz
x,y,z
x-y,x,2/3+z
-y,x-y,1/3+z
-x,-y,z
-x+y,-x,2/3+z
y,-x+y,1/3+z
x-y,-y,-z
-x,-x+y,2/3-z
y,x,1/3-z
-y,-x,1/3-z
-x+y,y,-z
x,x-y,2/3-z
loop_
_atom_site_type_symbol
_atom_site_label
_atom_site_fract_x
_atom_site_fract_y
_atom_site_fract_z
Si Si1 0.851204 0.235571 0.356756
Si Si2 0.666942 0.497909 0.906554
Si Si3 0.341139 0.917493 0.213868
Si Si4 0.884395 0.850160 0.783381
O O1 0.803743 0.280984 0.449768
O O2 0.761621 0.132424 0.292162
O O3 0.908763 0.316966 0.252701
O O4 0.917800 0.192622 0.428466
O O5 0.550918 0.391140 0.903919
O O6 0.626331 0.585224 0.917127
O O7 0.750973 0.501945 0.000000
O O8 0.906632 0.906632 0.666667
O O9 0.000000 0.881905 0.833334
O O10 0.829483 0.914742 0.833334
#
# Coordination Sequence:
#
# PCOD9584503 Si02
#       4
#    12  12  12  12
#     4  11  25  44  75 100 148 200 242 298 377 461
#     4  11  25  44  75 105 141 191 251 322 371 433
#     4  10  25  48  67 106 146 191 254 303 378 453
#     4  11  25  41  63 101 148 188 233 285 349 441
#
# _framework density 22.314102999999999
#
# number of rings (size 3 to 8) (size 9 to 14) (size 15 to 20)
#    0.000    1.250    0.000    4.500   10.500    7.000 
#    0.000    2.500    0.000    0.000    0.000    0.000 
#    0.000    0.000    0.000    0.000    0.000    0.000 
#
# Total GULP energy -267365.377948 kJ/mol
# GULP energy per Si atom -5570.112041 kJ/mol
# Density = 2.226332 g / cm^3
# Si number density = 22.314103 Si / 1000 Ang^3
#
#
#
# Elastic Constant Matrix: (Units=GPa)
#
#
# Indices 1 2 3 4 5 6 
#
# 1 88.1923 52.1106 55.5685 0.0000 0.0000 0.0000
# 2 52.1106 88.1923 55.5685 0.0000 0.0000 0.0000
# 3 55.5685 55.5685 138.1963 0.0000 0.0000 0.0000
# 4 0.0000 0.0000 0.0000 39.9446 0.0000 0.0000
# 5 0.0000 0.0000 0.0000 0.0000 39.9446 0.0000
# 6 0.0000 0.0000 0.0000 0.0000 0.0000 18.0408
#
#
#
# Elastic Compliance Matrix: (Units=1/GPa)
#
#
# Indices 1 2 3 4 5 6 
#
# 1 0.019087 -0.008628 -0.004205 0.000000 0.000000 0.000000
# 2 -0.008628 0.019087 -0.004205 0.000000 0.000000 0.000000
# 3 -0.004205 -0.004205 0.010618 0.000000 0.000000 0.000000
# 4 0.000000 0.000000 0.000000 0.025035 0.000000 0.000000
# 5 0.000000 0.000000 0.000000 0.000000 0.025035 0.000000
# 6 0.000000 0.000000 0.000000 0.000000 0.000000 0.055430
#
#
# Mechanical properties :
#
#
# Convention : Reuss Voigt Hill
#
# Bulk Modulus (GPa) = 67.96381 71.23069 69.59725
# Shear Modulus (GPa) = 25.87010 29.67488 27.77249
#
# Velocity S-wave (km/s) = 3.40863 3.65070 3.53174
# Velocity P-wave (km/s) = 6.78348 7.05416 6.92015
#
# Compressibility (1/GPa) = 0.01471371
#
# Stress axis : x y z
#
# Youngs Moduli (GPa) = 52.39227 52.39227 94.17923
#
# Poissons Ratio (x) = 0.45205 0.39606
# Poissons Ratio (y) = 0.45205 0.39606
# Poissons Ratio (z) = 0.22033 0.22033
#
# Static dielectric constant tensor:
#      x y z
#    x 1.914530 0.000000 0.000000 
#    y 0.000000 1.914530 0.000000 
#    z 0.000000 0.000000 1.793430 
# 
# From -- ./inp_files/4343.got.cif
#   From: 2010.05.17/outbox.cif.g08.bks.cpg/sg181_3_cif.got.tgz:4343.got - 2010.05.20 11:51:17.
