data_PCOD9584847
_publ_section_title
;
Structure prediction by ZEFSAII (Michael W. Deem and Ramdas Pophale) SiO2 
 PCOD9584847
Probable space group: P 63 2 2
;
_chemical_formula_sum "Si O2"
_cell_formula_units_Z 46
_cell_length_a 15.280188
_cell_length_b 15.280188
_cell_length_c 11.230997
_cell_angle_alpha 90.000000
_cell_angle_beta 90.000000
_cell_angle_gamma 120.000000
_cell_volume 2270.943546
_symmetry_space_group_name_H-M "P 63 2 2"
_symmetry_group_IT_number 182
_symmetry_cell_setting 'hexagonal'
loop_
_space_group_symop_operation_xyz
x,y,z
x-y,x,1/2+z
-y,x-y,z
-x,-y,1/2+z
-x+y,-x,z
y,-x+y,1/2+z
x-y,-y,-z
-x,-x+y,-z
y,x,-z
-y,-x,1/2-z
-x+y,y,1/2-z
x,x-y,1/2-z
loop_
_atom_site_type_symbol
_atom_site_label
_atom_site_fract_x
_atom_site_fract_y
_atom_site_fract_z
Si Si1 0.398059 0.984849 0.804287
Si Si2 0.772446 0.688806 0.400042
Si Si3 0.333334 0.666668 0.391574
Si Si4 0.543749 0.701131 0.014812
Si Si5 0.933217 0.866434 0.250000
O O1 0.506644 0.013288 0.750000
O O2 0.307328 0.942839 0.708330
O O3 0.374332 0.901452 0.905966
O O4 0.404838 0.079148 0.876432
O O5 0.719271 0.719271 0.500000
O O6 0.803681 0.613962 0.459553
O O7 0.874522 0.788593 0.356258
O O8 0.333334 0.666667 0.250000
O O9 0.310384 0.559178 0.439197
O O10 0.891702 0.945851 0.250000
#
# Coordination Sequence:
#
# PCOD9584847 Si02
#       5
#    12  12   4  12   6
#     4  11  25  46  73 104 149 192 247 301 372 443
#     4  12  27  45  74 107 147 196 250 308 374 446
#     4  12  27  45  70 113 151 189 249 310 374 442
#     4  11  26  45  73 104 146 193 246 301 372 440
#     4  10  26  48  72 106 146 190 242 308 374 448
#
# _framework density 20.255897999999998
#
# number of rings (size 3 to 8) (size 9 to 14) (size 15 to 20)
#    0.261    0.522    2.609    2.348   14.609    1.043 
#    0.000    2.609    0.000    0.000    0.000    0.000 
#    0.000    0.000    0.000    0.000    0.000    0.000 
#
# Total GULP energy -257080.155789 kJ/mol
# GULP energy per Si atom -5588.699039 kJ/mol
# Density = 2.020979 g / cm^3
# Si number density = 20.255898 Si / 1000 Ang^3
#
#
#
# Elastic Constant Matrix: (Units=GPa)
#
#
# Indices 1 2 3 4 5 6 
#
# 1 124.1244 73.5702 87.0451 0.0008 -0.0003 0.0001
# 2 73.5702 124.1237 87.0451 -0.0008 -0.0004 0.0003
# 3 87.0451 87.0451 151.5641 0.0002 0.0010 0.0001
# 4 0.0008 -0.0008 0.0002 20.8878 0.0027 0.0001
# 5 -0.0003 -0.0004 0.0010 0.0027 20.8887 -0.0008
# 6 0.0001 0.0003 0.0001 0.0001 -0.0008 25.2778
#
#
#
# Elastic Compliance Matrix: (Units=1/GPa)
#
#
# Indices 1 2 3 4 5 6 
#
# 1 0.015007 -0.004773 -0.005878 -0.000001 0.000000 0.000000
# 2 -0.004773 0.015008 -0.005878 0.000001 0.000001 0.000000
# 3 -0.005878 -0.005878 0.013349 0.000000 -0.000001 0.000000
# 4 -0.000001 0.000001 0.000000 0.047875 -0.000006 0.000000
# 5 0.000000 0.000001 -0.000001 -0.000006 0.047873 0.000001
# 6 0.000000 0.000000 0.000000 0.000000 0.000001 0.039560
#
#
# Mechanical properties :
#
#
# Convention : Reuss Voigt Hill
#
# Bulk Modulus (GPa) = 97.02211 99.45922 98.24067
# Shear Modulus (GPa) = 23.23801 23.55432 23.39616
#
# Velocity S-wave (km/s) = 3.39074 3.41374 3.40226
# Velocity P-wave (km/s) = 7.95812 8.04650 8.00243
#
# Compressibility (1/GPa) = 0.01030693
#
# Stress axis : x y z
#
# Youngs Moduli (GPa) = 66.63366 66.63296 74.91190
#
# Poissons Ratio (x) = 0.31806 0.44030
# Poissons Ratio (y) = 0.31807 0.44031
# Poissons Ratio (z) = 0.39164 0.39164
#
# Static dielectric constant tensor:
#      x y z
#    x 1.686040 0.000000 0.000000 
#    y 0.000000 1.686030 0.000000 
#    z 0.000000 0.000000 1.713660 
# 
# From -- ./inp_files/2410.got.cif
#   From: 2010.05.17/outbox.cif.g08.bks.cpg/sg182_2_cif.got.tgz:2410.got - 2010.05.20 11:58:53.
