data_PCOD9584321
_publ_section_title
;
Structure prediction by ZEFSAII (Michael W. Deem and Ramdas Pophale) SiO2 
 PCOD9584321
Probable space group: P 64 2 2
;
_chemical_formula_sum "Si O2"
_cell_formula_units_Z 69
_cell_length_a 14.835016
_cell_length_b 14.835016
_cell_length_c 19.623225
_cell_angle_alpha 90.000000
_cell_angle_beta 90.000000
_cell_angle_gamma 120.000000
_cell_volume 3740.046943
_symmetry_space_group_name_H-M "P 64 2 2"
_symmetry_group_IT_number 181
_symmetry_cell_setting 'hexagonal'
loop_
_space_group_symop_operation_xyz
x,y,z
x-y,x,2/3+z
-y,x-y,1/3+z
-x,-y,z
-x+y,-x,2/3+z
y,-x+y,1/3+z
x-y,-y,-z
-x,-x+y,2/3-z
y,x,1/3-z
-y,-x,1/3-z
-x+y,y,-z
x,x-y,2/3-z
loop_
_atom_site_type_symbol
_atom_site_label
_atom_site_fract_x
_atom_site_fract_y
_atom_site_fract_z
Si Si1 0.000000 0.000000 0.666667
Si Si2 0.738642 0.492114 0.580933
Si Si3 0.788314 0.118068 0.981890
Si Si4 0.484958 0.887675 0.267492
Si Si5 0.181113 0.362226 0.000000
Si Si6 0.816670 0.000263 0.581649
Si Si7 0.503129 0.396088 0.561709
O O1 0.090425 0.010843 0.615986
O O2 0.756167 0.512333 0.500000
O O3 0.777097 0.600796 0.619102
O O4 0.801741 0.438121 0.608874
O O5 0.614856 0.416912 0.586653
O O6 0.899780 0.183231 0.946452
O O7 0.700694 0.109908 0.930676
O O8 0.758165 0.000000 0.000000
O O9 0.563567 0.861616 0.306574
O O10 0.505493 0.889394 0.186376
O O11 0.500000 0.000000 0.286384
O O12 0.179186 0.284077 0.058108
O O13 0.820511 0.000000 0.500000
O O14 0.500000 0.500000 0.579202
#
# Coordination Sequence:
#
# PCOD9584321 Si02
#       7
#     3  12  12  12   6  12  12
#     4  10  22  44  64  94 110 160 200 256 326 366
#     4  10  22  38  59  93 131 163 207 263 322 374
#     4  12  22  37  64  98 123 160 207 256 327 375
#     4  10  22  41  62  89 124 171 216 253 307 371
#     4  11  24  43  66  88 125 176 213 252 308 368
#     4  11  24  44  64  91 127 161 208 257 311 381
#     4  10  20  36  61  95 130 157 200 270 327 368
#
# _framework density 18.448968000000001
#
# number of rings (size 3 to 8) (size 9 to 14) (size 15 to 20)
#    0.000    1.391    2.609    2.870    2.435    0.000 
#    6.261    0.000    0.000    1.043    0.000    0.000 
#    0.000    0.000    0.000    0.000    0.000    0.000 
#
# Total GULP energy -385394.125040 kJ/mol
# GULP energy per Si atom -5585.422102 kJ/mol
# Density = 1.840698 g / cm^3
# Si number density = 18.448968 Si / 1000 Ang^3
#
#
#
# Elastic Constant Matrix: (Units=GPa)
#
#
# Indices 1 2 3 4 5 6 
#
# 1 120.7480 61.8808 43.5844 0.0000 0.0000 0.0000
# 2 61.8808 120.7481 43.5844 0.0000 0.0000 0.0000
# 3 43.5844 43.5844 97.5575 0.0000 0.0000 0.0000
# 4 0.0000 0.0000 0.0000 -1.9579 0.0000 0.0000
# 5 0.0000 0.0000 0.0000 0.0000 -1.9579 0.0000
# 6 0.0000 0.0000 0.0000 0.0000 0.0000 29.4336
#
#
#
# Elastic Compliance Matrix: (Units=1/GPa)
#
#
# Indices 1 2 3 4 5 6 
#
# 1 0.011974 -0.005014 -0.003109 0.000000 0.000000 0.000000
# 2 -0.005014 0.011974 -0.003109 0.000000 0.000000 0.000000
# 3 -0.003109 -0.003109 0.013029 0.000000 0.000000 0.000000
# 4 0.000000 0.000000 0.000000 -0.510763 0.000000 0.000000
# 5 0.000000 0.000000 0.000000 0.000000 -0.510764 0.000000
# 6 0.000000 0.000000 0.000000 0.000000 0.000000 0.033975
#
#
# Mechanical properties :
#
#
# Convention : Reuss Voigt Hill
#
# Bulk Modulus (GPa) = 68.91436 70.79474 69.85455
# Shear Modulus (GPa) = -5.41551 17.77053 6.17751
#
# Velocity S-wave (km/s) = -1.71516 3.10696 1.83186
# Velocity P-wave (km/s) = 5.78902 7.16432 6.51307
#
# Compressibility (1/GPa) = 0.01451076
#
# Stress axis : x y z
#
# Youngs Moduli (GPa) = 83.51776 83.51776 76.75471
#
# Poissons Ratio (x) = 0.41875 0.23865
# Poissons Ratio (y) = 0.41875 0.23865
# Poissons Ratio (z) = 0.25968 0.25968
#
# Static dielectric constant tensor:
#      x y z
#    x 1.634750 0.000000 0.000000 
#    y 0.000000 1.634750 0.000000 
#    z 0.000000 0.000000 1.618350 
# 
# From -- ./inp_files/7811.got.cif
#   From: 2010.05.17/outbox.cif.g08.bks.cpg/sg181_4_cif.got.tgz:7811.got - 2010.05.20 11:51:17.
