data_PCOD9584158
_publ_section_title
;
Structure prediction by ZEFSAII (Michael W. Deem and Ramdas Pophale) SiO2 
 PCOD9584158
Probable space group: P 62 2 2
;
_chemical_formula_sum "Si O2"
_cell_formula_units_Z 21
_cell_length_a 10.041206
_cell_length_b 10.041206
_cell_length_c 7.959912
_cell_angle_alpha 90.000000
_cell_angle_beta 90.000000
_cell_angle_gamma 120.000000
_cell_volume 695.041365
_symmetry_space_group_name_H-M "P 62 2 2"
_symmetry_group_IT_number 180
_symmetry_cell_setting 'hexagonal'
loop_
_space_group_symop_operation_xyz
x,y,z
x-y,x,1/3+z
-y,x-y,2/3+z
-x,-y,z
-x+y,-x,1/3+z
y,-x+y,2/3+z
x-y,-y,-z
-x,-x+y,1/3-z
y,x,2/3-z
-y,-x,2/3-z
-x+y,y,-z
x,x-y,1/3-z
loop_
_atom_site_type_symbol
_atom_site_label
_atom_site_fract_x
_atom_site_fract_y
_atom_site_fract_z
Si Si1 0.326739 0.163370 0.166667
Si Si2 0.735799 0.735799 0.833334
Si Si3 0.619484 0.238968 0.500000
Si Si4 0.500000 0.000000 0.000000
O O1 0.428886 0.081920 0.121060
O O2 0.228392 0.059701 0.326175
O O3 0.561778 0.700886 0.811661
O O4 0.662847 0.337154 0.333334
#
# Coordination Sequence:
#
# PCOD9584158 Si02
#       4
#     6   6   6   3
#     4  12  31  53  90 148 207 289 360 498 561 687
#     4  11  28  48  78 131 202 271 366 451 560 659
#     4  11  25  45  80 132 201 275 351 457 545 653
#     4  12  32  58 100 150 228 288 396 470 592 702
#
# _framework density 30.214027999999999
#
# number of rings (size 3 to 8) (size 9 to 14) (size 15 to 20)
#    0.000    0.571    0.000    5.143   20.000    6.857 
#    0.000    0.000    0.000    8.571    0.000    0.000 
#    0.000    0.000    0.000    0.000    0.000    0.000 
#
# Total GULP energy -117443.971382 kJ/mol
# GULP energy per Si atom -5592.570066 kJ/mol
# Density = 3.014526 g / cm^3
# Si number density = 30.214028 Si / 1000 Ang^3
#
#
#
# Elastic Constant Matrix: (Units=GPa)
#
#
# Indices 1 2 3 4 5 6 
#
# 1 106.2493 144.5002 118.3848 0.0000 0.0000 0.0000
# 2 144.5002 106.2493 118.3848 0.0000 0.0000 0.0000
# 3 118.3848 118.3848 340.7324 0.0000 0.0000 0.0000
# 4 0.0000 0.0000 0.0000 64.4675 0.0000 0.0000
# 5 0.0000 0.0000 0.0000 0.0000 64.4675 0.0000
# 6 0.0000 0.0000 0.0000 0.0000 0.0000 -19.1255
#
#
#
# Elastic Compliance Matrix: (Units=1/GPa)
#
#
# Indices 1 2 3 4 5 6 
#
# 1 -0.010104 0.016039 -0.002062 0.000000 0.000000 0.000000
# 2 0.016039 -0.010104 -0.002062 0.000000 0.000000 0.000000
# 3 -0.002062 -0.002062 0.004368 0.000000 0.000000 0.000000
# 4 0.000000 0.000000 0.000000 0.015512 0.000000 0.000000
# 5 0.000000 0.000000 0.000000 0.000000 0.015512 0.000000
# 6 0.000000 0.000000 0.000000 0.000000 0.000000 -0.052286
#
#
# Mechanical properties :
#
#
# Convention : Reuss Voigt Hill
#
# Bulk Modulus (GPa) = 125.16171 146.19673 135.67922
# Shear Modulus (GPa) = -85.80810 33.42596 -26.19107
#
# Velocity S-wave (km/s) = -5.33495 3.32973 -2.94743
# Velocity P-wave (km/s) = 1.88838 7.95455 5.78104
#
# Compressibility (1/GPa) = 0.00798966
#
# Stress axis : x y z
#
# Youngs Moduli (GPa) = -98.97108 -98.97108 228.94782
#
# Poissons Ratio (x) = 1.58742 0.47212
# Poissons Ratio (y) = 1.58742 0.47212
# Poissons Ratio (z) = -0.20409 -0.20409
#
# Static dielectric constant tensor:
#      x y z
#    x 2.465240 0.000000 0.000000 
#    y 0.000000 2.465240 0.000000 
#    z 0.000000 0.000000 2.448400 
# 
# From -- ./inp_files/1899.got.cif
#   From: 2010.05.17/outbox.cif.g08.bks.cpg/sg180_1_cif.got.tgz:1899.got - 2010.05.20 11:43:55.
