data_PCOD9584274
_publ_section_title
;
Structure prediction by ZEFSAII (Michael W. Deem and Ramdas Pophale) SiO2 
 PCOD9584274
Probable space group: P 64 2 2
;
_chemical_formula_sum "Si O2"
_cell_formula_units_Z 60
_cell_length_a 10.447550
_cell_length_b 10.447550
_cell_length_c 27.279810
_cell_angle_alpha 90.000000
_cell_angle_beta 90.000000
_cell_angle_gamma 120.000000
_cell_volume 2578.700411
_symmetry_space_group_name_H-M "P 64 2 2"
_symmetry_group_IT_number 181
_symmetry_cell_setting 'hexagonal'
loop_
_space_group_symop_operation_xyz
x,y,z
x-y,x,2/3+z
-y,x-y,1/3+z
-x,-y,z
-x+y,-x,2/3+z
y,-x+y,1/3+z
x-y,-y,-z
-x,-x+y,2/3-z
y,x,1/3-z
-y,-x,1/3-z
-x+y,y,-z
x,x-y,2/3-z
loop_
_atom_site_type_symbol
_atom_site_label
_atom_site_fract_x
_atom_site_fract_y
_atom_site_fract_z
Si Si1 0.817129 0.157278 0.555458
Si Si2 0.705825 0.540964 0.689763
Si Si3 0.442762 0.617318 0.875600
Si Si4 0.822132 0.121667 0.888870
Si Si5 0.103053 0.814366 0.055652
O O1 0.757358 0.271329 0.557280
O O2 0.904464 0.196009 0.502688
O O3 0.932878 0.197109 0.598741
O O4 0.713919 0.982487 0.557587
O O5 0.618740 0.618740 0.666667
O O6 0.621440 0.378561 0.666667
O O7 0.709460 0.552423 0.748200
O O8 0.864201 0.656714 0.667014
O O9 0.500000 0.500000 0.863935
O O10 0.452831 0.726416 0.833334
O O11 0.555499 0.723774 0.916316
O O12 0.799209 0.977445 0.919000
#
# Coordination Sequence:
#
# PCOD9584274 Si02
#       5
#    12  12  12  12  12
#     4  10  21  36  60  90 131 166 212 266 338 388
#     4   9  20  36  59  90 125 167 225 271 319 386
#     4  10  21  37  63  96 129 168 220 274 321 386
#     4  10  20  37  59  93 130 171 208 271 328 395
#     4  10  19  35  62  92 124 164 223 270 321 386
#
# _framework density 23.267536
#
# number of rings (size 3 to 8) (size 9 to 14) (size 15 to 20)
#    0.000    2.200    0.000    3.600    2.800    2.400 
#    3.600    5.000   13.200    0.000    0.000    0.000 
#    0.000    0.000    0.000    0.000    0.000    0.000 
#
# Total GULP energy -334234.542376 kJ/mol
# GULP energy per Si atom -5570.575706 kJ/mol
# Density = 2.321458 g / cm^3
# Si number density = 23.267536 Si / 1000 Ang^3
#
#
#
# Elastic Constant Matrix: (Units=GPa)
#
#
# Indices 1 2 3 4 5 6 
#
# 1 51.8575 25.5655 16.5685 0.0000 0.0000 0.0000
# 2 25.5655 51.8575 16.5685 0.0000 0.0000 0.0000
# 3 16.5685 16.5685 72.6200 0.0000 0.0000 0.0000
# 4 0.0000 0.0000 0.0000 21.2485 0.0000 0.0000
# 5 0.0000 0.0000 0.0000 0.0000 21.2485 0.0000
# 6 0.0000 0.0000 0.0000 0.0000 0.0000 13.1460
#
#
#
# Elastic Compliance Matrix: (Units=1/GPa)
#
#
# Indices 1 2 3 4 5 6 
#
# 1 0.026174 -0.011860 -0.003266 0.000000 0.000000 0.000000
# 2 -0.011860 0.026174 -0.003266 0.000000 0.000000 0.000000
# 3 -0.003266 -0.003266 0.015260 0.000000 0.000000 0.000000
# 4 0.000000 0.000000 0.000000 0.047062 0.000000 0.000000
# 5 0.000000 0.000000 0.000000 0.000000 0.047062 0.000000
# 6 0.000000 0.000000 0.000000 0.000000 0.000000 0.076069
#
#
# Mechanical properties :
#
#
# Convention : Reuss Voigt Hill
#
# Bulk Modulus (GPa) = 32.44108 32.63779 32.53943
# Shear Modulus (GPa) = 17.55246 18.97078 18.26162
#
# Velocity S-wave (km/s) = 2.74957 2.85850 2.80456
# Velocity P-wave (km/s) = 4.90439 4.99523 4.95002
#
# Compressibility (1/GPa) = 0.03082511
#
# Stress axis : x y z
#
# Youngs Moduli (GPa) = 38.20569 38.20569 65.52866
#
# Poissons Ratio (x) = 0.45313 0.21400
# Poissons Ratio (y) = 0.45313 0.21400
# Poissons Ratio (z) = 0.12477 0.12477
#
# Static dielectric constant tensor:
#      x y z
#    x 1.916400 0.000000 0.000000 
#    y 0.000000 1.916400 0.000000 
#    z 0.000000 0.000000 1.906110 
# 
# From -- ./inp_files/11220.got.cif
#   From: 2010.05.17/outbox.cif.g08.bks.cpg/sg181_6_cif.got.tgz:11220.got - 2010.05.20 11:51:17.
