data_PCOD9584460
_publ_section_title
;
Structure prediction by ZEFSAII (Michael W. Deem and Ramdas Pophale) SiO2 
 PCOD9584460
Probable space group: P 64 2 2
;
_chemical_formula_sum "Si O2"
_cell_formula_units_Z 48
_cell_length_a 14.412972
_cell_length_b 14.412972
_cell_length_c 10.747061
_cell_angle_alpha 90.000000
_cell_angle_beta 90.000000
_cell_angle_gamma 120.000000
_cell_volume 1933.425452
_symmetry_space_group_name_H-M "P 64 2 2"
_symmetry_group_IT_number 181
_symmetry_cell_setting 'hexagonal'
loop_
_space_group_symop_operation_xyz
x,y,z
x-y,x,2/3+z
-y,x-y,1/3+z
-x,-y,z
-x+y,-x,2/3+z
y,-x+y,1/3+z
x-y,-y,-z
-x,-x+y,2/3-z
y,x,1/3-z
-y,-x,1/3-z
-x+y,y,-z
x,x-y,2/3-z
loop_
_atom_site_type_symbol
_atom_site_label
_atom_site_fract_x
_atom_site_fract_y
_atom_site_fract_z
Si Si1 0.883227 0.589931 0.729004
Si Si2 0.488486 0.638603 0.324499
Si Si3 0.813244 0.997537 0.247001
Si Si4 0.908791 0.301448 0.424747
O O1 0.889131 0.484973 0.695144
O O2 0.948592 0.705175 0.661745
O O3 0.761717 0.556692 0.693346
O O4 0.113298 0.691081 0.786378
O O5 0.443016 0.721508 0.333334
O O6 0.542310 0.643721 0.453955
O O7 0.915337 0.084664 0.166667
O O8 0.833815 0.916908 0.333334
O O9 0.723149 0.932452 0.142710
O O10 0.000000 0.377052 0.333334
#
# Coordination Sequence:
#
# PCOD9584460 Si02
#       4
#    12  12  12  12
#     4  10  22  49  74 112 158 198 272 327 407 510
#     4   9  21  45  84 117 152 208 257 329 423 525
#     4  12  27  51  77 109 156 215 277 349 414 482
#     4  11  23  47  76 117 156 202 257 338 411 491
#
# _framework density 24.826402999999999
#
# number of rings (size 3 to 8) (size 9 to 14) (size 15 to 20)
#    0.000    1.500    2.500    2.250    0.000    5.000 
#    9.000   20.000    0.000    0.000    0.000    0.000 
#    0.000    0.000    0.000    0.000    0.000    0.000 
#
# Total GULP energy -268221.917487 kJ/mol
# GULP energy per Si atom -5587.956614 kJ/mol
# Density = 2.476990 g / cm^3
# Si number density = 24.826403 Si / 1000 Ang^3
#
#
#
# Elastic Constant Matrix: (Units=GPa)
#
#
# Indices 1 2 3 4 5 6 
#
# 1 136.4619 71.8276 73.0440 0.0000 0.0000 0.0000
# 2 71.8276 136.4619 73.0440 0.0000 0.0000 0.0000
# 3 73.0440 73.0440 99.6650 0.0000 0.0000 0.0000
# 4 0.0000 0.0000 0.0000 42.0294 0.0000 0.0000
# 5 0.0000 0.0000 0.0000 0.0000 42.0294 0.0000
# 6 0.0000 0.0000 0.0000 0.0000 0.0000 32.3172
#
#
#
# Elastic Compliance Matrix: (Units=1/GPa)
#
#
# Indices 1 2 3 4 5 6 
#
# 1 0.012675 -0.002796 -0.007240 0.000000 0.000000 0.000000
# 2 -0.002796 0.012675 -0.007240 0.000000 0.000000 0.000000
# 3 -0.007240 -0.007240 0.020647 0.000000 0.000000 0.000000
# 4 0.000000 0.000000 0.000000 0.023793 0.000000 0.000000
# 5 0.000000 0.000000 0.000000 0.000000 0.023793 0.000000
# 6 0.000000 0.000000 0.000000 0.000000 0.000000 0.030943
#
#
# Mechanical properties :
#
#
# Convention : Reuss Voigt Hill
#
# Bulk Modulus (GPa) = 87.38754 89.82446 88.60600
# Shear Modulus (GPa) = 30.69460 33.58676 32.14068
#
# Velocity S-wave (km/s) = 3.52002 3.68212 3.60198
# Velocity P-wave (km/s) = 7.19698 7.37136 7.28469
#
# Compressibility (1/GPa) = 0.01144328
#
# Stress axis : x y z
#
# Youngs Moduli (GPa) = 78.89267 78.89267 48.43417
#
# Poissons Ratio (x) = 0.22060 0.35068
# Poissons Ratio (y) = 0.22060 0.35068
# Poissons Ratio (z) = 0.57122 0.57122
#
# Static dielectric constant tensor:
#      x y z
#    x 2.049710 0.000000 0.000000 
#    y 0.000000 2.049710 0.000000 
#    z 0.000000 0.000000 2.028130 
# 
# From -- ./inp_files/4336.got.cif
#   From: 2010.05.17/outbox.cif.g08.bks.cpg/sg181_3_cif.got.tgz:4336.got - 2010.05.20 11:51:17.
