data_PCOD9584952
_publ_section_title
;
Structure prediction by ZEFSAII (Michael W. Deem and Ramdas Pophale) SiO2 
 PCOD9584952
Probable space group: P 6 M M
;
_chemical_formula_sum "Si O2"
_cell_formula_units_Z 60
_cell_length_a 18.048111
_cell_length_b 18.048111
_cell_length_c 14.920370
_cell_angle_alpha 90.000000
_cell_angle_beta 90.000000
_cell_angle_gamma 120.000000
_cell_volume 4208.949659
_symmetry_space_group_name_H-M "P 6 M M"
_symmetry_group_IT_number 183
_symmetry_cell_setting 'hexagonal'
loop_
_space_group_symop_operation_xyz
x,y,z
x-y,x,z
-y,x-y,z
-x,-y,z
-x+y,-x,z
y,-x+y,z
-x+y,y,z
x,x-y,z
-y,-x,z
y,x,z
x-y,-y,z
-x,-x+y,z
loop_
_atom_site_type_symbol
_atom_site_label
_atom_site_fract_x
_atom_site_fract_y
_atom_site_fract_z
Si Si1 0.410401 0.000000 0.993990
Si Si2 0.843094 0.332165 0.865251
Si Si3 0.590256 0.000000 0.198869
Si Si4 0.630454 0.731333 0.692086
Si Si5 0.330382 0.838494 0.317236
Si Si6 0.466659 0.102398 0.516483
O O1 0.432795 0.085677 0.939618
O O2 0.500000 0.000000 0.996598
O O3 0.383782 0.000000 0.096342
O O4 0.836920 0.418460 0.860359
O O5 0.750738 0.249263 0.883659
O O6 0.877316 0.315176 0.771913
O O7 0.571179 0.916547 0.254405
O O8 0.500000 0.000000 0.197862
O O9 0.664696 0.832348 0.700971
O O10 0.699854 0.699854 0.695363
O O11 0.579234 0.698641 0.598577
O O12 0.415682 0.831364 0.311341
O O13 0.248623 0.751378 0.289104
O O14 0.322860 0.857791 0.421361
O O15 0.564891 0.129782 0.538267
O O16 0.417097 0.000000 0.503454
#
# Coordination Sequence:
#
# PCOD9584952 Si02
#       6
#     6  12   6  12  12  12
#     4   9  18  32  47  61  83 115 149 186 228 270
#     4  10  19  31  47  68  92 119 151 186 223 264
#     4   9  18  32  45  59  83 115 149 186 230 270
#     4  10  19  30  46  68  93 121 151 183 221 266
#     4  10  18  29  44  64  88 117 152 188 223 263
#     4   9  16  27  44  65  90 120 150 178 215 265
#
# _framework density 14.255337000000001
#
# number of rings (size 3 to 8) (size 9 to 14) (size 15 to 20)
#    0.000    2.400    2.000    1.600    0.000    1.600 
#    0.000    0.000    0.000    9.000    0.000    0.000 
#    0.000    0.000    0.000    0.300    0.000    2.400 
#
# Total GULP energy -334269.652534 kJ/mol
# GULP energy per Si atom -5571.160876 kJ/mol
# Density = 1.422289 g / cm^3
# Si number density = 14.255337 Si / 1000 Ang^3
#
#
#
# Elastic Constant Matrix: (Units=GPa)
#
#
# Indices 1 2 3 4 5 6 
#
# 1 85.6206 46.0009 51.5019 0.0000 0.0000 0.0000
# 2 46.0009 85.6206 51.5019 0.0000 0.0000 0.0000
# 3 51.5019 51.5019 105.8310 0.0000 0.0000 0.0000
# 4 0.0000 0.0000 0.0000 5.8459 0.0000 0.0000
# 5 0.0000 0.0000 0.0000 0.0000 5.8459 0.0000
# 6 0.0000 0.0000 0.0000 0.0000 0.0000 19.8099
#
#
#
# Elastic Compliance Matrix: (Units=1/GPa)
#
#
# Indices 1 2 3 4 5 6 
#
# 1 0.018755 -0.006485 -0.005971 0.000000 0.000000 0.000000
# 2 -0.006485 0.018755 -0.005971 0.000000 0.000000 0.000000
# 3 -0.005971 -0.005971 0.015261 0.000000 0.000000 0.000000
# 4 0.000000 0.000000 0.000000 0.171061 0.000000 0.000000
# 5 0.000000 0.000000 0.000000 0.000000 0.171061 0.000000
# 6 0.000000 0.000000 0.000000 0.000000 0.000000 0.050480
#
#
# Mechanical properties :
#
#
# Convention : Reuss Voigt Hill
#
# Bulk Modulus (GPa) = 62.82782 63.89796 63.36289
# Shear Modulus (GPa) = 10.25572 14.83817 12.54694
#
# Velocity S-wave (km/s) = 2.68513 3.22978 2.96996
# Velocity P-wave (km/s) = 7.33363 7.67006 7.50373
#
# Compressibility (1/GPa) = 0.01591652
#
# Stress axis : x y z
#
# Youngs Moduli (GPa) = 53.31831 53.31831 65.52692
#
# Poissons Ratio (x) = 0.34575 0.39129
# Poissons Ratio (y) = 0.34575 0.39129
# Poissons Ratio (z) = 0.31839 0.31839
#
# Static dielectric constant tensor:
#      x y z
#    x 1.454850 0.000000 0.000000 
#    y 0.000000 1.454850 0.000000 
#    z 0.000000 0.000000 1.475320 
# 
# From -- ./inp_files/1615.got.cif
#   From: 2010.05.17/outbox.cif.g08.bks.cpg/sg183_1_cif.got.tgz:1615.got - 2010.05.20 12:02:58.
