data_PCOD9584712
_publ_section_title
;
Structure prediction by ZEFSAII (Michael W. Deem and Ramdas Pophale) SiO2 
 PCOD9584712
Probable space group: P 63 2 2
;
_chemical_formula_sum "Si O2"
_cell_formula_units_Z 54
_cell_length_a 22.403744
_cell_length_b 22.403744
_cell_length_c 5.686534
_cell_angle_alpha 90.000000
_cell_angle_beta 90.000000
_cell_angle_gamma 120.000000
_cell_volume 2471.834986
_symmetry_space_group_name_H-M "P 63 2 2"
_symmetry_group_IT_number 182
_symmetry_cell_setting 'hexagonal'
loop_
_space_group_symop_operation_xyz
x,y,z
x-y,x,1/2+z
-y,x-y,z
-x,-y,1/2+z
-x+y,-x,z
y,-x+y,1/2+z
x-y,-y,-z
-x,-x+y,-z
y,x,-z
-y,-x,1/2-z
-x+y,y,1/2-z
x,x-y,1/2-z
loop_
_atom_site_type_symbol
_atom_site_label
_atom_site_fract_x
_atom_site_fract_y
_atom_site_fract_z
Si Si1 0.343796 0.116128 0.010849
Si Si2 0.299990 0.804507 0.079094
Si Si3 0.779994 0.073864 0.994804
Si Si4 0.066938 0.592714 0.117569
Si Si5 0.415798 0.584203 0.750000
O O1 0.421596 0.179824 0.016476
O O2 0.330175 0.079095 0.757257
O O3 0.292818 0.147804 0.004666
O O4 0.332210 0.077335 0.258272
O O5 0.259793 0.740208 0.250000
O O6 0.351829 0.878782 0.199491
O O7 0.347029 0.791008 0.901671
O O8 0.774865 0.000000 0.000000
O O9 0.038939 0.519470 0.250000
O O10 0.118501 0.598094 0.913647
O O11 0.000000 0.589706 0.000000
#
# Coordination Sequence:
#
# PCOD9584712 Si02
#       5
#    12  12  12  12   6
#     4  10  22  39  60  94 140 181 218 282 327 401
#     4  11  24  43  63  97 130 168 216 272 347 419
#     4  10  20  38  60  93 135 185 227 264 320 398
#     4  10  21  41  67  96 126 158 210 274 343 399
#     4  10  24  42  70  90 126 170 204 280 328 406
#
# _framework density 21.846119000000002
#
# number of rings (size 3 to 8) (size 9 to 14) (size 15 to 20)
#    0.000    1.778    3.333    0.667    3.111    1.778 
#    4.000    0.000    0.000   20.000    0.000    0.000 
#    0.000    0.000    0.000  426.667    0.000    0.000 
#
# Total GULP energy -300789.061774 kJ/mol
# GULP energy per Si atom -5570.167811 kJ/mol
# Density = 2.179640 g / cm^3
# Si number density = 21.846119 Si / 1000 Ang^3
#
#
#
# Elastic Constant Matrix: (Units=GPa)
#
#
# Indices 1 2 3 4 5 6 
#
# 1 86.3431 49.5843 35.1349 0.0000 0.0000 0.0000
# 2 49.5843 86.3431 35.1349 0.0000 0.0000 0.0000
# 3 35.1349 35.1349 173.4325 0.0000 0.0000 0.0000
# 4 0.0000 0.0000 0.0000 16.2185 0.0000 0.0000
# 5 0.0000 0.0000 0.0000 0.0000 16.2185 0.0000
# 6 0.0000 0.0000 0.0000 0.0000 0.0000 18.3794
#
#
#
# Elastic Compliance Matrix: (Units=1/GPa)
#
#
# Indices 1 2 3 4 5 6 
#
# 1 0.017711 -0.009493 -0.001665 0.000000 0.000000 0.000000
# 2 -0.009493 0.017711 -0.001665 0.000000 0.000000 0.000000
# 3 -0.001665 -0.001665 0.006440 0.000000 0.000000 0.000000
# 4 0.000000 0.000000 0.000000 0.061658 0.000000 0.000000
# 5 0.000000 0.000000 0.000000 0.000000 0.061658 0.000000
# 6 0.000000 0.000000 0.000000 0.000000 0.000000 0.054409
#
#
# Mechanical properties :
#
#
# Convention : Reuss Voigt Hill
#
# Bulk Modulus (GPa) = 61.66583 65.09187 63.37885
# Shear Modulus (GPa) = 19.94905 25.24757 22.59831
#
# Velocity S-wave (km/s) = 3.02514 3.40325 3.21975
# Velocity P-wave (km/s) = 6.36322 6.73076 6.54957
#
# Compressibility (1/GPa) = 0.01621644
#
# Stress axis : x y z
#
# Youngs Moduli (GPa) = 56.46221 56.46221 155.26898
#
# Poissons Ratio (x) = 0.53602 0.25848
# Poissons Ratio (y) = 0.53602 0.25848
# Poissons Ratio (z) = 0.09399 0.09399
#
# Static dielectric constant tensor:
#      x y z
#    x 1.788750 0.000000 0.000000 
#    y 0.000000 1.788750 0.000000 
#    z 0.000000 0.000000 1.872280 
# 
# From -- ./inp_files/559.got.cif
#   From: 2010.05.17/outbox.cif.g08.bks.cpg/sg182_1_cif.got.tgz:559.got - 2010.05.20 11:58:53.
