data_PCOD9584667
_publ_section_title
;
Structure prediction by ZEFSAII (Michael W. Deem and Ramdas Pophale) SiO2 
 PCOD9584667
Probable space group: P 63 2 2
;
_chemical_formula_sum "Si O2"
_cell_formula_units_Z 70
_cell_length_a 14.898516
_cell_length_b 14.898516
_cell_length_c 18.921559
_cell_angle_alpha 90.000000
_cell_angle_beta 90.000000
_cell_angle_gamma 120.000000
_cell_volume 3637.253508
_symmetry_space_group_name_H-M "P 63 2 2"
_symmetry_group_IT_number 182
_symmetry_cell_setting 'hexagonal'
loop_
_space_group_symop_operation_xyz
x,y,z
x-y,x,1/2+z
-y,x-y,z
-x,-y,1/2+z
-x+y,-x,z
y,-x+y,1/2+z
x-y,-y,-z
-x,-x+y,-z
y,x,-z
-y,-x,1/2-z
-x+y,y,1/2-z
x,x-y,1/2-z
loop_
_atom_site_type_symbol
_atom_site_label
_atom_site_fract_x
_atom_site_fract_y
_atom_site_fract_z
Si Si1 0.000000 0.000000 0.335482
Si Si2 0.364540 0.099574 0.192545
Si Si3 0.236558 0.093389 0.833140
Si Si4 0.347151 0.561533 0.037843
Si Si5 0.180984 0.696648 0.880715
Si Si6 0.128310 0.564155 0.750000
Si Si7 0.960315 0.304506 0.579006
O O1 0.000000 0.000000 0.250000
O O2 0.071633 0.117883 0.357136
O O3 0.344124 0.172062 0.250000
O O4 0.428582 0.180760 0.130829
O O5 0.445634 0.068235 0.223984
O O6 0.260923 0.000964 0.165714
O O7 0.245782 0.122891 0.750000
O O8 0.300306 0.196164 0.880034
O O9 0.435734 0.677790 0.056311
O O10 0.351666 0.467001 0.071247
O O11 0.342369 0.543940 0.953806
O O12 0.193662 0.636717 0.814898
O O13 0.063238 0.674957 0.881528
O O14 0.000000 0.296920 0.500000
#
# Coordination Sequence:
#
# PCOD9584667 Si02
#       7
#     4  12  12  12  12   6  12
#     4   9  18  33  58  86 112 156 199 242 301 369
#     4  10  20  34  53  87 122 151 190 242 307 371
#     4  11  20  36  60  84 116 158 197 240 300 366
#     4   9  20  38  59  78 106 157 202 237 297 372
#     4  10  19  37  57  85 116 147 187 250 306 359
#     4  10  20  32  54  92 120 146 186 252 306 358
#     4  10  22  39  59  84 121 158 199 253 303 373
#
# _framework density 19.245290000000001
#
# number of rings (size 3 to 8) (size 9 to 14) (size 15 to 20)
#    0.343    1.714    0.000    5.657    0.000    1.371 
#   13.886    9.429    0.000    0.000    0.000    0.000 
#    0.000    0.000    0.000    0.000    0.000    0.000 
#
# Total GULP energy -390124.311399 kJ/mol
# GULP energy per Si atom -5573.204449 kJ/mol
# Density = 1.920149 g / cm^3
# Si number density = 19.245290 Si / 1000 Ang^3
#
#
#
# Elastic Constant Matrix: (Units=GPa)
#
#
# Indices 1 2 3 4 5 6 
#
# 1 93.6699 23.8066 24.2385 0.0000 0.0000 0.0000
# 2 23.8066 93.6699 24.2385 0.0000 0.0000 0.0000
# 3 24.2385 24.2385 47.2955 0.0000 0.0000 0.0000
# 4 0.0000 0.0000 0.0000 22.5239 0.0000 0.0000
# 5 0.0000 0.0000 0.0000 0.0000 22.5239 0.0000
# 6 0.0000 0.0000 0.0000 0.0000 0.0000 34.9316
#
#
#
# Elastic Compliance Matrix: (Units=1/GPa)
#
#
# Indices 1 2 3 4 5 6 
#
# 1 0.012555 -0.001759 -0.005533 0.000000 0.000000 0.000000
# 2 -0.001759 0.012555 -0.005533 0.000000 0.000000 0.000000
# 3 -0.005533 -0.005533 0.026814 0.000000 0.000000 0.000000
# 4 0.000000 0.000000 0.000000 0.044397 0.000000 0.000000
# 5 0.000000 0.000000 0.000000 0.000000 0.044397 0.000000
# 6 0.000000 0.000000 0.000000 0.000000 0.000000 0.028627
#
#
# Mechanical properties :
#
#
# Convention : Reuss Voigt Hill
#
# Bulk Modulus (GPa) = 38.05895 42.13362 40.09629
# Shear Modulus (GPa) = 24.53961 26.81932 25.67947
#
# Velocity S-wave (km/s) = 3.57472 3.73708 3.65680
# Velocity P-wave (km/s) = 6.07098 6.36879 6.22167
#
# Compressibility (1/GPa) = 0.02627503
#
# Stress axis : x y z
#
# Youngs Moduli (GPa) = 79.65266 79.65266 37.29337
#
# Poissons Ratio (x) = 0.14012 0.20633
# Poissons Ratio (y) = 0.14012 0.20633
# Poissons Ratio (z) = 0.44068 0.44068
#
# Static dielectric constant tensor:
#      x y z
#    x 1.669600 0.000000 0.000000 
#    y 0.000000 1.669600 0.000000 
#    z 0.000000 0.000000 1.692840 
# 
# From -- ./inp_files/4361.got.cif
#   From: 2010.05.17/outbox.cif.g08.bks.cpg/sg182_3_cif.got.tgz:4361.got - 2010.05.20 11:58:53.
