data_PCOD9584006
_publ_section_title
;
Structure prediction by ZEFSAII (Michael W. Deem and Ramdas Pophale) SiO2 
 PCOD9584006
Probable space group: P 62 2 2
;
_chemical_formula_sum "Si O2"
_cell_formula_units_Z 54
_cell_length_a 22.063561
_cell_length_b 22.063561
_cell_length_c 6.452785
_cell_angle_alpha 90.000000
_cell_angle_beta 90.000000
_cell_angle_gamma 120.000000
_cell_volume 2720.376674
_symmetry_space_group_name_H-M "P 62 2 2"
_symmetry_group_IT_number 180
_symmetry_cell_setting 'hexagonal'
loop_
_space_group_symop_operation_xyz
x,y,z
x-y,x,1/3+z
-y,x-y,2/3+z
-x,-y,z
-x+y,-x,1/3+z
y,-x+y,2/3+z
x-y,-y,-z
-x,-x+y,1/3-z
y,x,2/3-z
-y,-x,2/3-z
-x+y,y,-z
x,x-y,1/3-z
loop_
_atom_site_type_symbol
_atom_site_label
_atom_site_fract_x
_atom_site_fract_y
_atom_site_fract_z
Si Si1 0.661979 0.233123 0.167251
Si Si2 0.000000 0.686949 0.666667
Si Si3 0.322482 0.410064 0.701101
Si Si4 0.530166 0.765083 0.166667
Si Si5 0.933092 0.212880 0.305749
Si Si6 0.561153 0.122305 0.500000
O O1 0.712933 0.287068 0.333334
O O2 0.600163 0.171038 0.299000
O O3 0.632528 0.265055 0.000000
O O4 0.707442 0.215246 0.013821
O O5 0.038684 0.664806 0.835889
O O6 0.047887 0.756931 0.537204
O O7 0.268236 0.433030 0.626637
O O8 0.273999 0.350897 0.865340
O O9 0.393533 0.477837 0.784262
O O10 0.863918 0.136083 0.333334
O O11 0.000000 0.220998 0.166667
#
# Coordination Sequence:
#
# PCOD9584006 Si02
#       6
#    12   6  12   6  12   6
#     4  12  24  40  54  86 121 165 222 286 356 417
#     4  10  24  46  71  98 131 176 226 276 338 398
#     4  11  24  42  64  93 125 175 227 289 350 409
#     4  12  24  39  68  86 122 171 215 294 349 415
#     4  10  23  44  73 107 140 173 223 273 331 409
#     4  12  26  39  61  88 128 173 238 286 358 411
#
# _framework density 19.850192
#
# number of rings (size 3 to 8) (size 9 to 14) (size 15 to 20)
#    0.000    0.889    4.444    1.333    6.222    7.111 
#    0.000    6.111    0.000    0.000    0.000    3.889 
#    0.000    0.000    0.000    0.000    0.000    0.000 
#
# Total GULP energy -300826.151522 kJ/mol
# GULP energy per Si atom -5570.854658 kJ/mol
# Density = 1.980501 g / cm^3
# Si number density = 19.850192 Si / 1000 Ang^3
#
#
#
# Elastic Constant Matrix: (Units=GPa)
#
#
# Indices 1 2 3 4 5 6 
#
# 1 108.3635 47.2475 44.8417 0.0000 0.0000 0.0000
# 2 47.2475 108.3635 44.8417 0.0000 0.0000 0.0000
# 3 44.8417 44.8417 132.0334 0.0000 0.0000 0.0000
# 4 0.0000 0.0000 0.0000 26.1922 0.0000 0.0000
# 5 0.0000 0.0000 0.0000 0.0000 26.1922 0.0000
# 6 0.0000 0.0000 0.0000 0.0000 0.0000 30.5580
#
#
#
# Elastic Compliance Matrix: (Units=1/GPa)
#
#
# Indices 1 2 3 4 5 6 
#
# 1 0.012176 -0.004186 -0.002714 0.000000 0.000000 0.000000
# 2 -0.004186 0.012176 -0.002714 0.000000 0.000000 0.000000
# 3 -0.002714 -0.002714 0.009417 0.000000 0.000000 0.000000
# 4 0.000000 0.000000 0.000000 0.038179 0.000000 0.000000
# 5 0.000000 0.000000 0.000000 0.000000 0.038179 0.000000
# 6 0.000000 0.000000 0.000000 0.000000 0.000000 0.032725
#
#
# Mechanical properties :
#
#
# Convention : Reuss Voigt Hill
#
# Bulk Modulus (GPa) = 68.76212 69.18025 68.97119
# Shear Modulus (GPa) = 29.95316 30.71046 30.33181
#
# Velocity S-wave (km/s) = 3.88875 3.93760 3.91325
# Velocity P-wave (km/s) = 7.40803 7.45653 7.43232
#
# Compressibility (1/GPa) = 0.01454289
#
# Stress axis : x y z
#
# Youngs Moduli (GPa) = 82.12678 82.12678 106.18972
#
# Poissons Ratio (x) = 0.34379 0.28817
# Poissons Ratio (y) = 0.34379 0.28817
# Poissons Ratio (z) = 0.22287 0.22287
#
# Static dielectric constant tensor:
#      x y z
#    x 1.736790 0.000000 0.000000 
#    y 0.000000 1.736790 0.000000 
#    z 0.000000 0.000000 1.678610 
# 
# From -- ./inp_files/1286.got.cif
#   From: 2010.05.17/outbox.cif.g08.bks.cpg/sg180_1_cif.got.tgz:1286.got - 2010.05.20 11:43:55.
