data_PCOD9584554
_publ_section_title
;
Structure prediction by ZEFSAII (Michael W. Deem and Ramdas Pophale) SiO2 
 PCOD9584554
Probable space group: P 64 2 2
;
_chemical_formula_sum "Si O2"
_cell_formula_units_Z 84
_cell_length_a 18.950820
_cell_length_b 18.950820
_cell_length_c 13.852856
_cell_angle_alpha 90.000000
_cell_angle_beta 90.000000
_cell_angle_gamma 120.000000
_cell_volume 4308.498684
_symmetry_space_group_name_H-M "P 64 2 2"
_symmetry_group_IT_number 181
_symmetry_cell_setting 'hexagonal'
loop_
_space_group_symop_operation_xyz
x,y,z
x-y,x,2/3+z
-y,x-y,1/3+z
-x,-y,z
-x+y,-x,2/3+z
y,-x+y,1/3+z
x-y,-y,-z
-x,-x+y,2/3-z
y,x,1/3-z
-y,-x,1/3-z
-x+y,y,-z
x,x-y,2/3-z
loop_
_atom_site_type_symbol
_atom_site_label
_atom_site_fract_x
_atom_site_fract_y
_atom_site_fract_z
Si Si1 0.962342 0.188919 0.484986
Si Si2 0.384637 0.187268 0.055609
Si Si3 0.630676 0.918137 0.788419
Si Si4 0.136431 0.645201 0.834476
Si Si5 0.074842 0.149684 0.000000
Si Si6 0.100259 0.000000 0.000000
Si Si7 0.904635 0.532241 0.359722
Si Si8 0.989297 0.568250 0.989218
O O1 0.881600 0.178638 0.430506
O O2 0.932182 0.136812 0.583540
O O3 0.009988 0.153772 0.425113
O O4 0.031506 0.282922 0.493804
O O5 0.438857 0.263173 0.127187
O O6 0.375828 0.225155 0.953077
O O7 0.436454 0.143323 0.038582
O O8 0.557070 0.891770 0.864977
O O9 0.630949 0.986907 0.721195
O O10 0.180526 0.590263 0.833334
O O11 0.095987 0.633556 0.729680
O O12 0.060091 0.596716 0.908033
O O13 0.100141 0.082438 0.027418
O O14 0.879632 0.439816 0.333334
O O15 0.000000 0.585113 0.333334
O O16 0.000000 0.500000 0.045184
#
# Coordination Sequence:
#
# PCOD9584554 Si02
#       8
#    12  12  12  12   6   6  12  12
#     4  12  24  40  63  97 130 174 232 286 342 400
#     4  11  23  41  66  96 132 168 217 280 335 401
#     4  11  23  39  66  93 128 166 215 273 334 386
#     4   8  16  35  58  88 125 161 202 253 325 390
#     4  11  26  42  64  88 124 178 238 286 348 410
#     4  11  24  46  60  80 129 186 230 288 347 408
#     4  11  24  44  65  91 124 163 211 264 325 406
#     4   8  16  31  59  89 119 161 202 247 313 393
#
# _framework density 19.496351000000001
#
# number of rings (size 3 to 8) (size 9 to 14) (size 15 to 20)
#    0.000    1.714    1.429    3.857    4.000    2.286 
#    2.571    1.429    0.000    0.000    0.000    0.000 
#    0.000    0.000    0.000    0.000    0.000    0.000 
#
# Total GULP energy -467940.562146 kJ/mol
# GULP energy per Si atom -5570.720978 kJ/mol
# Density = 1.945198 g / cm^3
# Si number density = 19.496351 Si / 1000 Ang^3
#
#
#
# Elastic Constant Matrix: (Units=GPa)
#
#
# Indices 1 2 3 4 5 6 
#
# 1 103.0978 26.8577 19.1219 0.0000 0.0000 0.0000
# 2 26.8577 103.0978 19.1219 0.0000 0.0000 0.0000
# 3 19.1219 19.1219 48.7436 0.0000 0.0000 0.0000
# 4 0.0000 0.0000 0.0000 30.4115 0.0000 0.0000
# 5 0.0000 0.0000 0.0000 0.0000 30.4115 0.0000
# 6 0.0000 0.0000 0.0000 0.0000 0.0000 38.1201
#
#
#
# Elastic Compliance Matrix: (Units=1/GPa)
#
#
# Indices 1 2 3 4 5 6 
#
# 1 0.010908 -0.002209 -0.003413 0.000000 0.000000 0.000000
# 2 -0.002209 0.010908 -0.003413 0.000000 0.000000 0.000000
# 3 -0.003413 -0.003413 0.023193 0.000000 0.000000 0.000000
# 4 0.000000 0.000000 0.000000 0.032882 0.000000 0.000000
# 5 0.000000 0.000000 0.000000 0.000000 0.032882 0.000000
# 6 0.000000 0.000000 0.000000 0.000000 0.000000 0.026233
#
#
# Mechanical properties :
#
#
# Convention : Reuss Voigt Hill
#
# Bulk Modulus (GPa) = 37.11832 42.79356 39.95594
# Shear Modulus (GPa) = 30.47770 32.44448 31.46109
#
# Velocity S-wave (km/s) = 3.95809 4.08380 4.02144
# Velocity P-wave (km/s) = 6.32207 6.65085 6.48854
#
# Compressibility (1/GPa) = 0.02694087
#
# Stress axis : x y z
#
# Youngs Moduli (GPa) = 91.67720 91.67720 43.11631
#
# Poissons Ratio (x) = 0.20248 0.14714
# Poissons Ratio (y) = 0.20248 0.14714
# Poissons Ratio (z) = 0.31286 0.31286
#
# Static dielectric constant tensor:
#      x y z
#    x 1.718600 0.000000 0.000000 
#    y 0.000000 1.718600 0.000000 
#    z 0.000000 0.000000 1.480890 
# 
# From -- ./inp_files/6523.got.cif
#   From: 2010.05.17/outbox.cif.g08.bks.cpg/sg181_4_cif.got.tgz:6523.got - 2010.05.20 11:51:17.
