data_PCOD9584441
_publ_section_title
;
Structure prediction by ZEFSAII (Michael W. Deem and Ramdas Pophale) SiO2 
 PCOD9584441
Probable space group: P 64 2 2
;
_chemical_formula_sum "Si O2"
_cell_formula_units_Z 42
_cell_length_a 11.699301
_cell_length_b 11.699301
_cell_length_c 17.237705
_cell_angle_alpha 90.000000
_cell_angle_beta 90.000000
_cell_angle_gamma 120.000000
_cell_volume 2043.289509
_symmetry_space_group_name_H-M "P 64 2 2"
_symmetry_group_IT_number 181
_symmetry_cell_setting 'hexagonal'
loop_
_space_group_symop_operation_xyz
x,y,z
x-y,x,2/3+z
-y,x-y,1/3+z
-x,-y,z
-x+y,-x,2/3+z
y,-x+y,1/3+z
x-y,-y,-z
-x,-x+y,2/3-z
y,x,1/3-z
-y,-x,1/3-z
-x+y,y,-z
x,x-y,2/3-z
loop_
_atom_site_type_symbol
_atom_site_label
_atom_site_fract_x
_atom_site_fract_y
_atom_site_fract_z
Si Si1 0.385965 0.036927 0.641655
Si Si2 0.791743 0.791743 0.166667
Si Si3 0.015229 0.726333 0.148709
Si Si4 0.323255 0.439349 0.712660
O O1 0.446791 0.192411 0.626310
O O2 0.500000 0.000000 0.636834
O O3 0.278126 0.975757 0.573795
O O4 0.318667 0.004793 0.725917
O O5 0.930933 0.796917 0.171987
O O6 0.943581 0.593569 0.201122
O O7 0.168965 0.831036 0.166667
O O8 0.313665 0.313665 0.666667
O O9 0.435633 0.564368 0.666667
#
# Coordination Sequence:
#
# PCOD9584441 Si02
#       4
#    12   6  12  12
#     4  11  24  41  65  93 130 169 218 264 323 392
#     4  10  24  42  62  90 132 164 210 268 318 386
#     4  11  22  40  67  96 122 166 212 266 323 386
#     4  10  22  41  64  91 132 165 210 268 325 384
#
# _framework density 20.555091000000001
#
# number of rings (size 3 to 8) (size 9 to 14) (size 15 to 20)
#    0.000    1.429    2.857    1.714    4.000    2.286 
#    0.000    5.714    0.000    0.000    0.000    0.000 
#    0.000    0.000    0.000    0.000    0.000    0.000 
#
# Total GULP energy -234241.306916 kJ/mol
# GULP energy per Si atom -5577.173974 kJ/mol
# Density = 2.050831 g / cm^3
# Si number density = 20.555091 Si / 1000 Ang^3
#
#
#
# Elastic Constant Matrix: (Units=GPa)
#
#
# Indices 1 2 3 4 5 6 
#
# 1 103.6557 47.3437 27.5845 0.0000 0.0000 0.0000
# 2 47.3437 103.6557 27.5845 0.0000 0.0000 0.0000
# 3 27.5845 27.5845 171.9128 0.0000 0.0000 0.0000
# 4 0.0000 0.0000 0.0000 24.8710 0.0000 0.0000
# 5 0.0000 0.0000 0.0000 0.0000 24.8710 0.0000
# 6 0.0000 0.0000 0.0000 0.0000 0.0000 28.1560
#
#
#
# Elastic Compliance Matrix: (Units=1/GPa)
#
#
# Indices 1 2 3 4 5 6 
#
# 1 0.012397 -0.005362 -0.001129 0.000000 0.000000 0.000000
# 2 -0.005362 0.012397 -0.001129 0.000000 0.000000 0.000000
# 3 -0.001129 -0.001129 0.006179 0.000000 0.000000 0.000000
# 4 0.000000 0.000000 0.000000 0.040208 0.000000 0.000000
# 5 0.000000 0.000000 0.000000 0.000000 0.040208 0.000000
# 6 0.000000 0.000000 0.000000 0.000000 0.000000 0.035516
#
#
# Mechanical properties :
#
#
# Convention : Reuss Voigt Hill
#
# Bulk Modulus (GPa) = 63.55721 64.91663 64.23692
# Shear Modulus (GPa) = 29.87093 34.02702 31.94898
#
# Velocity S-wave (km/s) = 3.81624 4.07308 3.94675
# Velocity P-wave (km/s) = 7.09970 7.33283 7.21721
#
# Compressibility (1/GPa) = 0.01573386
#
# Stress axis : x y z
#
# Youngs Moduli (GPa) = 80.66743 80.66743 161.83449
#
# Poissons Ratio (x) = 0.43251 0.18268
# Poissons Ratio (y) = 0.43251 0.18268
# Poissons Ratio (z) = 0.09106 0.09106
#
# Static dielectric constant tensor:
#      x y z
#    x 1.758130 0.000000 0.000000 
#    y 0.000000 1.758130 0.000000 
#    z 0.000000 0.000000 1.790100 
# 
# From -- ./inp_files/7300.got.cif
#   From: 2010.05.17/outbox.cif.g08.bks.cpg/sg181_4_cif.got.tgz:7300.got - 2010.05.20 11:51:17.
