data_PCOD9584169
_publ_section_title
;
Structure prediction by ZEFSAII (Michael W. Deem and Ramdas Pophale) SiO2 
 PCOD9584169
Probable space group: P 62 2 2
;
_chemical_formula_sum "Si O2"
_cell_formula_units_Z 51
_cell_length_a 17.843407
_cell_length_b 17.843407
_cell_length_c 8.155113
_cell_angle_alpha 90.000000
_cell_angle_beta 90.000000
_cell_angle_gamma 120.000000
_cell_volume 2248.620565
_symmetry_space_group_name_H-M "P 62 2 2"
_symmetry_group_IT_number 180
_symmetry_cell_setting 'hexagonal'
loop_
_space_group_symop_operation_xyz
x,y,z
x-y,x,1/3+z
-y,x-y,2/3+z
-x,-y,z
-x+y,-x,1/3+z
y,-x+y,2/3+z
x-y,-y,-z
-x,-x+y,1/3-z
y,x,2/3-z
-y,-x,2/3-z
-x+y,y,-z
x,x-y,1/3-z
loop_
_atom_site_type_symbol
_atom_site_label
_atom_site_fract_x
_atom_site_fract_y
_atom_site_fract_z
Si Si1 0.500000 0.000000 0.000000
Si Si2 0.963783 0.749659 0.985646
Si Si3 0.938951 0.877901 0.500000
Si Si4 0.426656 0.573345 0.833334
Si Si5 0.719528 0.257466 0.008758
Si Si6 0.560103 0.661104 0.565987
O O1 0.418597 0.942219 0.110583
O O2 0.000000 0.755715 0.166667
O O3 0.869239 0.738477 0.000000
O O4 0.951121 0.663275 0.901805
O O5 0.021967 0.841521 0.897893
O O6 0.925918 0.925918 0.333334
O O7 0.356914 0.568801 0.706227
O O8 0.517782 0.617339 0.740312
O O9 0.754055 0.245946 0.833334
O O10 0.624313 0.248626 0.000000
O O11 0.719507 0.196687 0.154126
#
# Coordination Sequence:
#
# PCOD9584169 Si02
#       6
#     3  12   6   6  12  12
#     4  12  28  50  68 100 160 220 276 336 424 498
#     4  12  28  52  82 120 160 203 266 345 426 511
#     4  12  28  57  92 129 164 213 275 355 444 540
#     4  12  22  41  76 107 152 205 271 339 392 475
#     4  12  20  41  70 108 155 207 270 334 389 466
#     4  12  28  47  71 115 156 214 274 336 417 490
#
# _framework density 22.680569999999999
#
# number of rings (size 3 to 8) (size 9 to 14) (size 15 to 20)
#    0.000    0.000    7.059    2.118    4.941    1.412 
#    6.353    0.000    0.000    0.000    0.000    0.000 
#    0.000    0.000    0.000    0.000    0.000    0.000 
#
# Total GULP energy -284998.648778 kJ/mol
# GULP energy per Si atom -5588.208800 kJ/mol
# Density = 2.262895 g / cm^3
# Si number density = 22.680570 Si / 1000 Ang^3
#
#
#
# Elastic Constant Matrix: (Units=GPa)
#
#
# Indices 1 2 3 4 5 6 
#
# 1 110.9812 71.4625 45.2830 0.0000 0.0000 0.0000
# 2 71.4625 110.9812 45.2830 0.0000 0.0000 0.0000
# 3 45.2830 45.2830 121.5755 0.0000 0.0000 0.0000
# 4 0.0000 0.0000 0.0000 43.4898 0.0000 0.0000
# 5 0.0000 0.0000 0.0000 0.0000 43.4898 0.0000
# 6 0.0000 0.0000 0.0000 0.0000 0.0000 19.7594
#
#
#
# Elastic Compliance Matrix: (Units=1/GPa)
#
#
# Indices 1 2 3 4 5 6 
#
# 1 0.016014 -0.009290 -0.002505 0.000000 0.000000 0.000000
# 2 -0.009290 0.016014 -0.002505 0.000000 0.000000 0.000000
# 3 -0.002505 -0.002505 0.010091 0.000000 0.000000 0.000000
# 4 0.000000 0.000000 0.000000 0.022994 0.000000 0.000000
# 5 0.000000 0.000000 0.000000 0.000000 0.022994 0.000000
# 6 0.000000 0.000000 0.000000 0.000000 0.000000 0.050609
#
#
# Mechanical properties :
#
#
# Convention : Reuss Voigt Hill
#
# Bulk Modulus (GPa) = 73.95641 74.17721 74.06681
# Shear Modulus (GPa) = 29.09978 33.44842 31.27410
#
# Velocity S-wave (km/s) = 3.58582 3.84443 3.71737
# Velocity P-wave (km/s) = 7.05853 7.24447 7.15210
#
# Compressibility (1/GPa) = 0.01352148
#
# Stress axis : x y z
#
# Youngs Moduli (GPa) = 62.44355 62.44355 99.09687
#
# Poissons Ratio (x) = 0.58010 0.24820
# Poissons Ratio (y) = 0.58010 0.24820
# Poissons Ratio (z) = 0.15640 0.15640
#
# Static dielectric constant tensor:
#      x y z
#    x 1.960780 0.000000 0.000000 
#    y 0.000000 1.960780 0.000000 
#    z 0.000000 0.000000 1.576150 
# 
# From -- ./inp_files/2827.got.cif
#   From: 2010.05.17/outbox.cif.g08.bks.cpg/sg180_2_cif.got.tgz:2827.got - 2010.05.20 11:43:55.
