data_PCOD9584147
_publ_section_title
;
Structure prediction by ZEFSAII (Michael W. Deem and Ramdas Pophale) SiO2 
 PCOD9584147
Probable space group: P 62 2 2
;
_chemical_formula_sum "Si O2"
_cell_formula_units_Z 30
_cell_length_a 9.065460
_cell_length_b 9.065460
_cell_length_c 20.060891
_cell_angle_alpha 90.000000
_cell_angle_beta 90.000000
_cell_angle_gamma 120.000000
_cell_volume 1427.777527
_symmetry_space_group_name_H-M "P 62 2 2"
_symmetry_group_IT_number 180
_symmetry_cell_setting 'hexagonal'
loop_
_space_group_symop_operation_xyz
x,y,z
x-y,x,1/3+z
-y,x-y,2/3+z
-x,-y,z
-x+y,-x,1/3+z
y,-x+y,2/3+z
x-y,-y,-z
-x,-x+y,1/3-z
y,x,2/3-z
-y,-x,2/3-z
-x+y,y,-z
x,x-y,1/3-z
loop_
_atom_site_type_symbol
_atom_site_label
_atom_site_fract_x
_atom_site_fract_y
_atom_site_fract_z
Si Si1 0.500000 0.000000 0.500000
Si Si2 0.799443 0.540556 0.426086
Si Si3 0.500000 0.500000 0.333334
Si Si4 0.392791 0.222698 0.593869
O O1 0.560526 0.895034 0.548434
O O2 0.736515 0.473029 0.500000
O O3 0.660427 0.552957 0.381873
O O4 0.821818 0.393553 0.392070
O O5 0.983188 0.707928 0.437344
O O6 0.315176 0.157588 0.666667
#
# Coordination Sequence:
#
# PCOD9584147 Si02
#       4
#     3  12   3  12
#     4  12  24  44  72 100 144 178 228 304 348 406
#     4  11  24  42  69  98 133 182 231 280 349 419
#     4  12  24  44  72 100 144 178 228 304 348 406
#     4  11  24  42  69  98 133 182 231 280 349 419
#
# _framework density 21.011676999999999
#
# number of rings (size 3 to 8) (size 9 to 14) (size 15 to 20)
#    0.000    0.800    4.000    4.800    0.000    0.000 
#    0.000    6.000    0.000    0.000    0.000    0.000 
#    0.000    0.000    0.000    0.000    0.000    0.000 
#
# Total GULP energy -167159.622393 kJ/mol
# GULP energy per Si atom -5571.987413 kJ/mol
# Density = 2.096385 g / cm^3
# Si number density = 21.011677 Si / 1000 Ang^3
#
#
#
# Elastic Constant Matrix: (Units=GPa)
#
#
# Indices 1 2 3 4 5 6 
#
# 1 101.2971 53.9868 34.3353 0.0000 0.0000 0.0000
# 2 53.9868 101.2971 34.3353 0.0000 0.0000 0.0000
# 3 34.3353 34.3353 95.3943 0.0000 0.0000 0.0000
# 4 0.0000 0.0000 0.0000 26.9369 0.0000 0.0000
# 5 0.0000 0.0000 0.0000 0.0000 26.9369 0.0000
# 6 0.0000 0.0000 0.0000 0.0000 0.0000 23.6552
#
#
#
# Elastic Compliance Matrix: (Units=1/GPa)
#
#
# Indices 1 2 3 4 5 6 
#
# 1 0.014398 -0.006739 -0.002757 0.000000 0.000000 0.000000
# 2 -0.006739 0.014398 -0.002757 0.000000 0.000000 0.000000
# 3 -0.002757 -0.002757 0.012467 0.000000 0.000000 0.000000
# 4 0.000000 0.000000 0.000000 0.037124 0.000000 0.000000
# 5 0.000000 0.000000 0.000000 0.000000 0.037124 0.000000
# 6 0.000000 0.000000 0.000000 0.000000 0.000000 0.042274
#
#
# Mechanical properties :
#
#
# Convention : Reuss Voigt Hill
#
# Bulk Modulus (GPa) = 59.67180 60.36702 60.01941
# Shear Modulus (GPa) = 26.61333 27.19452 26.90392
#
# Velocity S-wave (km/s) = 3.56279 3.60148 3.58219
# Velocity P-wave (km/s) = 6.73689 6.78873 6.76286
#
# Compressibility (1/GPa) = 0.01675834
#
# Stress axis : x y z
#
# Youngs Moduli (GPa) = 69.45424 69.45424 80.21030
#
# Poissons Ratio (x) = 0.46806 0.22111
# Poissons Ratio (y) = 0.46806 0.22111
# Poissons Ratio (z) = 0.19146 0.19146
#
# Static dielectric constant tensor:
#      x y z
#    x 1.836530 0.000000 0.000000 
#    y 0.000000 1.836530 0.000000 
#    z 0.000000 0.000000 1.742050 
# 
# From -- ./inp_files/9557.got.cif
#   From: 2010.05.17/outbox.cif.g08.bks.cpg/sg180_5_cif.got.tgz:9557.got - 2010.05.20 11:43:55.
