data_PCOD9584710
_publ_section_title
;
Structure prediction by ZEFSAII (Michael W. Deem and Ramdas Pophale) SiO2 
 PCOD9584710
Probable space group: P 63 2 2
;
_chemical_formula_sum "Si O2"
_cell_formula_units_Z 48
_cell_length_a 22.098017
_cell_length_b 22.098017
_cell_length_c 6.705583
_cell_angle_alpha 90.000000
_cell_angle_beta 90.000000
_cell_angle_gamma 120.000000
_cell_volume 2835.788133
_symmetry_space_group_name_H-M "P 63 2 2"
_symmetry_group_IT_number 182
_symmetry_cell_setting 'hexagonal'
loop_
_space_group_symop_operation_xyz
x,y,z
x-y,x,1/2+z
-y,x-y,z
-x,-y,1/2+z
-x+y,-x,z
y,-x+y,1/2+z
x-y,-y,-z
-x,-x+y,-z
y,x,-z
-y,-x,1/2-z
-x+y,y,1/2-z
x,x-y,1/2-z
loop_
_atom_site_type_symbol
_atom_site_label
_atom_site_fract_x
_atom_site_fract_y
_atom_site_fract_z
Si Si1 0.343842 0.343842 0.000000
Si Si2 0.410108 0.589893 0.750000
Si Si3 0.562870 0.931297 0.616325
Si Si4 0.453262 0.789392 0.138925
Si Si5 0.387015 0.263509 0.739428
O O1 0.361775 0.403190 0.833193
O O2 0.336475 0.279726 0.870648
O O3 0.387853 0.516495 0.642196
O O4 0.426941 0.649048 0.587210
O O5 0.602753 0.901070 0.479857
O O6 0.573741 0.000000 0.500000
O O7 0.409444 0.818888 0.250000
O O8 0.437965 0.718983 0.250000
O O9 0.535491 0.841750 0.161737
O O10 0.367332 0.183666 0.750000
#
# Coordination Sequence:
#
# PCOD9584710 Si02
#       5
#     6   6  12  12  12
#     4  10  20  38  54  84 106 134 178 226 280 336
#     4  12  22  36  56  78 102 146 174 232 312 340
#     4  10  22  34  56  82 108 137 178 234 284 342
#     4  11  23  39  53  72 102 135 185 232 289 360
#     4  10  21  38  57  77 109 138 178 227 273 340
#
# _framework density 16.926511000000001
#
# number of rings (size 3 to 8) (size 9 to 14) (size 15 to 20)
#    0.000    1.500    5.000    0.250    1.750    2.000 
#    0.000    0.000    0.000    0.000    0.000    0.000 
#    0.000    0.000    0.000    0.000    0.000    0.000 
#
# Total GULP energy -267859.507235 kJ/mol
# GULP energy per Si atom -5580.406401 kJ/mol
# Density = 1.688799 g / cm^3
# Si number density = 16.926511 Si / 1000 Ang^3
#
#
#
# Elastic Constant Matrix: (Units=GPa)
#
#
# Indices 1 2 3 4 5 6 
#
# 1 64.9016 35.0392 38.9269 0.0000 0.0000 0.0000
# 2 35.0392 64.9016 38.9269 0.0000 0.0000 0.0000
# 3 38.9269 38.9269 134.0588 0.0000 0.0000 0.0000
# 4 0.0000 0.0000 0.0000 20.6936 0.0000 0.0000
# 5 0.0000 0.0000 0.0000 0.0000 20.6936 0.0000
# 6 0.0000 0.0000 0.0000 0.0000 0.0000 14.9312
#
#
#
# Elastic Compliance Matrix: (Units=1/GPa)
#
#
# Indices 1 2 3 4 5 6 
#
# 1 0.023209 -0.010278 -0.003755 0.000000 0.000000 0.000000
# 2 -0.010278 0.023209 -0.003755 0.000000 0.000000 0.000000
# 3 -0.003755 -0.003755 0.009640 0.000000 0.000000 0.000000
# 4 0.000000 0.000000 0.000000 0.048324 0.000000 0.000000
# 5 0.000000 0.000000 0.000000 0.000000 0.048324 0.000000
# 6 0.000000 0.000000 0.000000 0.000000 0.000000 0.066974
#
#
# Mechanical properties :
#
#
# Convention : Reuss Voigt Hill
#
# Bulk Modulus (GPa) = 48.82178 54.40535 51.61357
# Shear Modulus (GPa) = 19.07798 21.32831 20.20314
#
# Velocity S-wave (km/s) = 3.36088 3.55357 3.45857
# Velocity P-wave (km/s) = 6.63074 7.00350 6.81967
#
# Compressibility (1/GPa) = 0.02048266
#
# Stress axis : x y z
#
# Youngs Moduli (GPa) = 43.08693 43.08693 103.73484
#
# Poissons Ratio (x) = 0.44285 0.38950
# Poissons Ratio (y) = 0.44285 0.38950
# Poissons Ratio (z) = 0.16178 0.16178
#
# Static dielectric constant tensor:
#      x y z
#    x 1.589200 0.000000 0.000000 
#    y 0.000000 1.589200 0.000000 
#    z 0.000000 0.000000 1.660360 
# 
# From -- ./inp_files/516.got.cif
#   From: 2010.05.17/outbox.cif.g08.bks.cpg/sg182_1_cif.got.tgz:516.got - 2010.05.20 11:58:53.
