data_PCOD9584288
_publ_section_title
;
Structure prediction by ZEFSAII (Michael W. Deem and Ramdas Pophale) SiO2 
 PCOD9584288
Probable space group: P 64 2 2
;
_chemical_formula_sum "Si O2"
_cell_formula_units_Z 33
_cell_length_a 11.138451
_cell_length_b 11.138451
_cell_length_c 12.748502
_cell_angle_alpha 90.000000
_cell_angle_beta 90.000000
_cell_angle_gamma 120.000000
_cell_volume 1369.743933
_symmetry_space_group_name_H-M "P 64 2 2"
_symmetry_group_IT_number 181
_symmetry_cell_setting 'hexagonal'
loop_
_space_group_symop_operation_xyz
x,y,z
x-y,x,2/3+z
-y,x-y,1/3+z
-x,-y,z
-x+y,-x,2/3+z
y,-x+y,1/3+z
x-y,-y,-z
-x,-x+y,2/3-z
y,x,1/3-z
-y,-x,1/3-z
-x+y,y,-z
x,x-y,2/3-z
loop_
_atom_site_type_symbol
_atom_site_label
_atom_site_fract_x
_atom_site_fract_y
_atom_site_fract_z
Si Si1 0.754570 0.610091 0.326671
Si Si2 0.697013 0.302988 0.166667
Si Si3 0.000000 0.500000 0.833334
Si Si4 0.594218 0.667831 0.494207
O O1 0.761555 0.495737 0.400238
O O2 0.625624 0.543676 0.247449
O O3 0.708043 0.691240 0.407364
O O4 0.890217 0.667094 0.254573
O O5 0.774818 0.463672 0.134196
O O6 0.500000 0.500000 0.514225
#
# Coordination Sequence:
#
# PCOD9584288 Si02
#       4
#    12   6   3  12
#     4  11  23  38  66  98 160 207 280 307 417 484
#     4  10  19  40  62  99 142 219 257 326 390 501
#     4  12  22  44  64 114 152 226 254 338 408 506
#     4  10  22  41  64 108 151 234 252 339 401 498
#
# _framework density 24.092092000000001
#
# number of rings (size 3 to 8) (size 9 to 14) (size 15 to 20)
#    0.000    1.455    5.455    2.182    0.000   14.545 
#    0.000    0.000    0.000    0.000    0.000    0.000 
#    0.000  279.273    0.000    0.000    0.000    0.000 
#
# Total GULP energy -183720.235245 kJ/mol
# GULP energy per Si atom -5567.279856 kJ/mol
# Density = 2.403726 g / cm^3
# Si number density = 24.092092 Si / 1000 Ang^3
#
#
#
# Elastic Constant Matrix: (Units=GPa)
#
#
# Indices 1 2 3 4 5 6 
#
# 1 79.9598 14.2957 67.1214 0.0000 0.0000 0.0000
# 2 14.2957 79.9598 67.1214 0.0000 0.0000 0.0000
# 3 67.1214 67.1214 194.0181 0.0000 0.0000 0.0000
# 4 0.0000 0.0000 0.0000 40.2881 0.0000 0.0000
# 5 0.0000 0.0000 0.0000 0.0000 40.2881 0.0000
# 6 0.0000 0.0000 0.0000 0.0000 0.0000 32.8321
#
#
#
# Elastic Compliance Matrix: (Units=1/GPa)
#
#
# Indices 1 2 3 4 5 6 
#
# 1 0.018072 0.002843 -0.007235 0.000000 0.000000 0.000000
# 2 0.002843 0.018072 -0.007235 0.000000 0.000000 0.000000
# 3 -0.007235 -0.007235 0.010160 0.000000 0.000000 0.000000
# 4 0.000000 0.000000 0.000000 0.024821 0.000000 0.000000
# 5 0.000000 0.000000 0.000000 0.000000 0.024821 0.000000
# 6 0.000000 0.000000 0.000000 0.000000 0.000000 0.030458
#
#
# Mechanical properties :
#
#
# Convention : Reuss Voigt Hill
#
# Bulk Modulus (GPa) = 43.38840 72.33499 57.86170
# Shear Modulus (GPa) = 31.77763 36.37496 34.07630
#
# Velocity S-wave (km/s) = 3.63575 3.88987 3.76496
# Velocity P-wave (km/s) = 5.97272 7.08973 6.55506
#
# Compressibility (1/GPa) = 0.02304763
#
# Stress axis : x y z
#
# Youngs Moduli (GPa) = 55.33488 55.33488 98.42072
#
# Poissons Ratio (x) = -0.15731 0.71212
# Poissons Ratio (y) = -0.15731 0.71212
# Poissons Ratio (z) = 0.40038 0.40038
#
# Static dielectric constant tensor:
#      x y z
#    x 2.030600 0.000000 0.000000 
#    y 0.000000 2.030600 0.000000 
#    z 0.000000 0.000000 1.992730 
# 
# From -- ./inp_files/3984.got.cif
#   From: 2010.05.17/outbox.cif.g08.bks.cpg/sg181_2_cif.got.tgz:3984.got - 2010.05.20 11:51:17.
