data_PCOD9584194
_publ_section_title
;
Structure prediction by ZEFSAII (Michael W. Deem and Ramdas Pophale) SiO2 
 PCOD9584194
Probable space group: P 62 2 2
;
_chemical_formula_sum "Si O2"
_cell_formula_units_Z 75
_cell_length_a 12.000000
_cell_length_b 12.000000
_cell_length_c 30.000000
_cell_angle_alpha 90.000000
_cell_angle_beta 90.000000
_cell_angle_gamma 120.000000
_cell_volume 3741.229744
_symmetry_space_group_name_H-M "P 62 2 2"
_symmetry_group_IT_number 180
_symmetry_cell_setting 'hexagonal'
loop_
_space_group_symop_operation_xyz
x,y,z
x-y,x,1/3+z
-y,x-y,2/3+z
-x,-y,z
-x+y,-x,1/3+z
y,-x+y,2/3+z
x-y,-y,-z
-x,-x+y,1/3-z
y,x,2/3-z
-y,-x,2/3-z
-x+y,y,-z
x,x-y,1/3-z
loop_
_atom_site_type_symbol
_atom_site_label
_atom_site_fract_x
_atom_site_fract_y
_atom_site_fract_z
Si Si1 0.500000 0.500000 0.833334
Si Si2 0.138929 0.095590 0.923423
Si Si3 0.571098 0.410115 0.511355
Si Si4 0.853815 0.146186 0.333334
Si Si5 0.248855 0.822275 0.556265
Si Si6 0.265027 0.763786 0.010313
Si Si7 0.000000 0.223666 0.666667
Si Si8 0.861264 0.379222 0.387592
O O1 0.464637 0.380912 0.865397
O O2 0.270509 0.165503 0.894833
O O3 0.150019 0.995762 0.955765
O O4 0.149608 0.201646 0.960278
O O5 0.000000 0.000000 0.900793
O O6 0.500000 0.500000 0.510195
O O7 0.726248 0.452495 0.500000
O O8 0.487356 0.303030 0.474806
O O9 0.545580 0.350823 0.561889
O O10 0.879776 0.272373 0.361477
O O11 0.271285 0.780338 0.605292
O O12 0.415549 0.831097 0.000000
O O13 0.226627 0.869306 0.999254
O O14 0.209904 0.640455 0.978293
O O15 0.000000 0.500000 0.393781
#
# Coordination Sequence:
#
# PCOD9584194 Si02
#       8
#     3  12  12   6  12  12   6  12
#     4  12  28  48  70  96 156 188 244 292 376 464
#     4  11  23  43  69 104 140 189 235 301 366 438
#     4  11  26  51  72 104 147 199 249 307 385 452
#     4  12  23  42  74  99 146 178 234 298 376 419
#     4  11  27  43  73 102 143 196 241 297 377 446
#     4  11  23  39  67 106 134 174 236 296 354 433
#     4  10  20  40  62 100 144 176 212 284 372 420
#     4  11  25  41  67 101 136 180 238 293 353 432
#
# _framework density 20.046883999999999
#
# number of rings (size 3 to 8) (size 9 to 14) (size 15 to 20)
#    0.000    0.960    3.200    3.120    5.600    5.120 
#    2.880    0.400    0.000    0.000    0.000    0.000 
#    0.000    0.000    0.000    0.000    0.000    0.000 
#
# Total GULP energy -417544.184322 kJ/mol
# GULP energy per Si atom -5567.255791 kJ/mol
# Density = 2.000126 g / cm^3
# Si number density = 20.046884 Si / 1000 Ang^3
#
#
#
# Elastic Constant Matrix: (Units=GPa)
#
#
# Indices 1 2 3 4 5 6 
#
# 1 93.9732 66.6497 55.4553 0.0000 0.0000 0.0000
# 2 66.6497 93.9732 55.4553 0.0000 0.0000 0.0000
# 3 55.4553 55.4553 134.9452 0.0000 0.0000 0.0000
# 4 0.0000 0.0000 0.0000 -39.7554 0.0000 0.0000
# 5 0.0000 0.0000 0.0000 0.0000 -39.7554 0.0000
# 6 0.0000 0.0000 0.0000 0.0000 0.0000 13.6618
#
#
#
# Elastic Compliance Matrix: (Units=1/GPa)
#
#
# Indices 1 2 3 4 5 6 
#
# 1 0.022645 -0.013953 -0.003572 0.000000 0.000000 0.000000
# 2 -0.013953 0.022645 -0.003572 0.000000 0.000000 0.000000
# 3 -0.003572 -0.003572 0.010346 0.000000 0.000000 0.000000
# 4 0.000000 0.000000 0.000000 -0.025154 0.000000 0.000000
# 5 0.000000 0.000000 0.000000 0.000000 -0.025154 0.000000
# 6 0.000000 0.000000 0.000000 0.000000 0.000000 0.073197
#
#
# Mechanical properties :
#
#
# Convention : Reuss Voigt Hill
#
# Bulk Modulus (GPa) = 74.39050 75.33469 74.86260
# Shear Modulus (GPa) = 39.93552 -3.48105 18.22724
#
# Velocity S-wave (km/s) = 4.46814 -1.31918 3.01862
# Velocity P-wave (km/s) = 7.98798 5.94479 7.04090
#
# Compressibility (1/GPa) = 0.01344258
#
# Stress axis : x y z
#
# Youngs Moduli (GPa) = 44.15908 44.15908 96.65311
#
# Poissons Ratio (x) = 0.61616 0.34525
# Poissons Ratio (y) = 0.61616 0.34525
# Poissons Ratio (z) = 0.15774 0.15774
#
# Static dielectric constant tensor:
#      x y z
#    x 1.776040 0.000000 0.000000 
#    y 0.000000 1.776040 0.000000 
#    z 0.000000 0.000000 1.711950 
# 
# From -- ./inp_files/12410.got.cif
#   From: 2010.05.17/outbox.ucp.g08.bks.cvg/sg180_7_cif.got.tgz:12410.got - 2010.06.11 15:20:15.
