data_PCOD9584402
_publ_section_title
;
Structure prediction by ZEFSAII (Michael W. Deem and Ramdas Pophale) SiO2 
 PCOD9584402
Probable space group: P 64 2 2
;
_chemical_formula_sum "Si O2"
_cell_formula_units_Z 60
_cell_length_a 16.872489
_cell_length_b 16.872489
_cell_length_c 10.682575
_cell_angle_alpha 90.000000
_cell_angle_beta 90.000000
_cell_angle_gamma 120.000000
_cell_volume 2633.691424
_symmetry_space_group_name_H-M "P 64 2 2"
_symmetry_group_IT_number 181
_symmetry_cell_setting 'hexagonal'
loop_
_space_group_symop_operation_xyz
x,y,z
x-y,x,2/3+z
-y,x-y,1/3+z
-x,-y,z
-x+y,-x,2/3+z
y,-x+y,1/3+z
x-y,-y,-z
-x,-x+y,2/3-z
y,x,1/3-z
-y,-x,1/3-z
-x+y,y,-z
x,x-y,2/3-z
loop_
_atom_site_type_symbol
_atom_site_label
_atom_site_fract_x
_atom_site_fract_y
_atom_site_fract_z
Si Si1 0.232764 0.388933 0.866201
Si Si2 0.156608 0.896023 0.006611
Si Si3 0.946683 0.286483 0.114549
Si Si4 0.582887 0.479460 0.308635
Si Si5 0.232381 0.584265 0.196904
O O1 0.157510 0.300436 0.794959
O O2 0.313660 0.364679 0.873596
O O3 0.263938 0.484550 0.799497
O O4 0.198070 0.396139 0.000000
O O5 0.067823 0.811732 0.067458
O O6 0.246817 0.903872 0.080816
O O7 0.178106 0.000000 0.000000
O O8 0.901818 0.327070 0.020167
O O9 0.500000 0.500000 0.326843
O O10 0.562824 0.437177 0.166667
O O11 0.579690 0.409254 0.412678
O O12 0.332618 0.667383 0.166667
O O13 0.203716 0.601858 0.333334
#
# Coordination Sequence:
#
# PCOD9584402 Si02
#       5
#    12  12  12  12  12
#     4  11  24  41  65 101 133 178 239 294 363 444
#     4   9  21  40  70  99 133 177 231 286 370 448
#     4  10  21  43  67  95 134 179 227 298 363 447
#     4  11  25  43  67  98 132 177 240 309 382 428
#     4  12  28  46  63  93 137 194 241 303 364 438
#
# _framework density 22.781711999999999
#
# number of rings (size 3 to 8) (size 9 to 14) (size 15 to 20)
#    0.000    1.400    2.000    1.800    8.400    2.000 
#    0.000    0.000    0.000    0.600    0.000    5.600 
#    0.000    0.000    0.000    0.000    0.000    0.000 
#
# Total GULP energy -334405.109984 kJ/mol
# GULP energy per Si atom -5573.418500 kJ/mol
# Density = 2.272986 g / cm^3
# Si number density = 22.781712 Si / 1000 Ang^3
#
#
#
# Elastic Constant Matrix: (Units=GPa)
#
#
# Indices 1 2 3 4 5 6 
#
# 1 82.7964 25.3226 22.6683 0.0000 0.0000 0.0000
# 2 25.3226 82.7964 22.6683 0.0000 0.0000 0.0000
# 3 22.6683 22.6683 125.7024 0.0000 0.0000 0.0000
# 4 0.0000 0.0000 0.0000 32.9956 0.0000 0.0000
# 5 0.0000 0.0000 0.0000 0.0000 32.9956 0.0000
# 6 0.0000 0.0000 0.0000 0.0000 0.0000 28.7369
#
#
#
# Elastic Compliance Matrix: (Units=1/GPa)
#
#
# Indices 1 2 3 4 5 6 
#
# 1 0.013702 -0.003697 -0.001804 0.000000 0.000000 0.000000
# 2 -0.003697 0.013702 -0.001804 0.000000 0.000000 0.000000
# 3 -0.001804 -0.001804 0.008606 0.000000 0.000000 0.000000
# 4 0.000000 0.000000 0.000000 0.030307 0.000000 0.000000
# 5 0.000000 0.000000 0.000000 0.000000 0.030307 0.000000
# 6 0.000000 0.000000 0.000000 0.000000 0.000000 0.034799
#
#
# Mechanical properties :
#
#
# Convention : Reuss Voigt Hill
#
# Bulk Modulus (GPa) = 46.72900 48.06820 47.39860
# Shear Modulus (GPa) = 32.64389 33.65466 33.14927
#
# Velocity S-wave (km/s) = 3.78947 3.84769 3.81869
# Velocity P-wave (km/s) = 6.30103 6.39413 6.34775
#
# Compressibility (1/GPa) = 0.02139999
#
# Stress axis : x y z
#
# Youngs Moduli (GPa) = 72.97959 72.97959 116.19708
#
# Poissons Ratio (x) = 0.26979 0.20966
# Poissons Ratio (y) = 0.26979 0.20966
# Poissons Ratio (z) = 0.13168 0.13168
#
# Static dielectric constant tensor:
#      x y z
#    x 1.878730 0.000000 0.000000 
#    y 0.000000 1.878730 0.000000 
#    z 0.000000 0.000000 2.013400 
# 
# From -- ./inp_files/4869.got.cif
#   From: 2010.05.17/outbox.cif.g08.bks.cpg/sg181_3_cif.got.tgz:4869.got - 2010.05.20 11:51:17.
