data_PCOD9584774
_publ_section_title
;
Structure prediction by ZEFSAII (Michael W. Deem and Ramdas Pophale) SiO2 
 PCOD9584774
Probable space group: P 63 2 2
;
_chemical_formula_sum "Si O2"
_cell_formula_units_Z 42
_cell_length_a 8.925262
_cell_length_b 8.925262
_cell_length_c 32.452212
_cell_angle_alpha 90.000000
_cell_angle_beta 90.000000
_cell_angle_gamma 120.000000
_cell_volume 2238.808172
_symmetry_space_group_name_H-M "P 63 2 2"
_symmetry_group_IT_number 182
_symmetry_cell_setting 'hexagonal'
loop_
_space_group_symop_operation_xyz
x,y,z
x-y,x,1/2+z
-y,x-y,z
-x,-y,1/2+z
-x+y,-x,z
y,-x+y,1/2+z
x-y,-y,-z
-x,-x+y,-z
y,x,-z
-y,-x,1/2-z
-x+y,y,1/2-z
x,x-y,1/2-z
loop_
_atom_site_type_symbol
_atom_site_label
_atom_site_fract_x
_atom_site_fract_y
_atom_site_fract_z
Si Si1 0.219540 0.439079 0.250000
Si Si2 0.663684 0.658860 0.048951
Si Si3 0.988671 0.322875 0.581839
Si Si4 0.157316 0.220508 0.167870
O O1 0.426032 0.573969 0.250000
O O2 0.194906 0.321828 0.210431
O O3 0.823841 0.643972 0.067354
O O4 0.489232 0.514385 0.070458
O O5 0.695352 0.848554 0.058031
O O6 0.636438 0.636438 0.000000
O O7 0.937333 0.268892 0.629481
O O8 0.948443 0.128756 0.164884
#
# Coordination Sequence:
#
# PCOD9584774 Si02
#       4
#     6  12  12  12
#     4  10  24  36  68 106 130 166 222 276 332 416
#     4  12  24  42  64  95 135 178 232 290 346 409
#     4  12  25  43  67  99 133 185 232 287 353 418
#     4  10  21  44  68  96 132 183 221 273 346 413
#
# _framework density 18.759981
#
# number of rings (size 3 to 8) (size 9 to 14) (size 15 to 20)
#    0.857    0.000    2.857    5.143    4.000    0.000 
#    0.000    0.000    0.000    4.571    0.000    0.000 
#    0.000    0.000    0.000    0.000    0.000    0.000 
#
# Total GULP energy -234039.584392 kJ/mol
# GULP energy per Si atom -5572.371057 kJ/mol
# Density = 1.871728 g / cm^3
# Si number density = 18.759981 Si / 1000 Ang^3
#
#
#
# Elastic Constant Matrix: (Units=GPa)
#
#
# Indices 1 2 3 4 5 6 
#
# 1 29.9906 12.2370 36.4333 0.0000 0.0000 0.0000
# 2 12.2370 29.9906 36.4333 0.0000 0.0000 0.0000
# 3 36.4333 36.4333 197.4620 0.0000 0.0000 0.0000
# 4 0.0000 0.0000 0.0000 -1.0312 0.0000 0.0000
# 5 0.0000 0.0000 0.0000 0.0000 -1.0312 0.0000
# 6 0.0000 0.0000 0.0000 0.0000 0.0000 8.8768
#
#
#
# Elastic Compliance Matrix: (Units=1/GPa)
#
#
# Indices 1 2 3 4 5 6 
#
# 1 0.045535 -0.010792 -0.006410 0.000000 0.000000 0.000000
# 2 -0.010792 0.045535 -0.006410 0.000000 0.000000 0.000000
# 3 -0.006410 -0.006410 0.007430 0.000000 0.000000 0.000000
# 4 0.000000 0.000000 0.000000 -0.969759 0.000003 0.000000
# 5 0.000000 0.000000 0.000000 0.000003 -0.969763 0.000000
# 6 0.000000 0.000000 0.000000 0.000000 0.000000 0.112654
#
#
# Mechanical properties :
#
#
# Convention : Reuss Voigt Hill
#
# Bulk Modulus (GPa) = 19.50315 47.51668 33.50992
# Shear Modulus (GPa) = -3.00471 12.85219 4.92374
#
# Velocity S-wave (km/s) = -1.26694 2.62025 1.62182
# Velocity P-wave (km/s) = 2.87724 5.87691 4.62691
#
# Compressibility (1/GPa) = 0.05127378
#
# Stress axis : x y z
#
# Youngs Moduli (GPa) = 21.96129 21.96129 134.59399
#
# Poissons Ratio (x) = 0.23701 0.86278
# Poissons Ratio (y) = 0.23701 0.86278
# Poissons Ratio (z) = 0.14078 0.14078
#
# Static dielectric constant tensor:
#      x y z
#    x 1.651840 0.000000 0.000000 
#    y 0.000000 1.651840 0.000000 
#    z 0.000000 0.000000 1.584560 
# 
# From -- ./inp_files/5673.got.cif
#   From: 2010.05.17/outbox.cif.g08.bks.cpg/sg182_3_cif.got.tgz:5673.got - 2010.05.20 11:58:53.
