data_PCOD9584472
_publ_section_title
;
Structure prediction by ZEFSAII (Michael W. Deem and Ramdas Pophale) SiO2 
 PCOD9584472
Probable space group: P 64 2 2
;
_chemical_formula_sum "Si O2"
_cell_formula_units_Z 75
_cell_length_a 11.891178
_cell_length_b 11.891178
_cell_length_c 30.081092
_cell_angle_alpha 90.000000
_cell_angle_beta 90.000000
_cell_angle_gamma 120.000000
_cell_volume 3683.612940
_symmetry_space_group_name_H-M "P 64 2 2"
_symmetry_group_IT_number 181
_symmetry_cell_setting 'hexagonal'
loop_
_space_group_symop_operation_xyz
x,y,z
x-y,x,2/3+z
-y,x-y,1/3+z
-x,-y,z
-x+y,-x,2/3+z
y,-x+y,1/3+z
x-y,-y,-z
-x,-x+y,2/3-z
y,x,1/3-z
-y,-x,1/3-z
-x+y,y,-z
x,x-y,2/3-z
loop_
_atom_site_type_symbol
_atom_site_label
_atom_site_fract_x
_atom_site_fract_y
_atom_site_fract_z
Si Si1 0.081308 0.643633 0.760533
Si Si2 0.296794 0.961883 0.671023
Si Si3 0.000000 0.500000 0.504177
Si Si4 0.603802 0.772334 0.714063
Si Si5 0.000000 0.500000 0.333334
Si Si6 0.626554 0.184219 0.747193
Si Si7 0.732736 0.971162 0.865675
Si Si8 0.782511 0.000000 0.500000
O O1 0.034129 0.643861 0.710403
O O2 0.232728 0.692614 0.754890
O O3 0.059103 0.737023 0.793348
O O4 0.000000 0.500000 0.779034
O O5 0.145752 0.854249 0.666667
O O6 0.351235 0.905905 0.710638
O O7 0.325337 0.104895 0.681599
O O8 0.117090 0.576182 0.538739
O O9 0.002111 0.386049 0.476568
O O10 0.541359 0.629296 0.694549
O O11 0.481383 0.783457 0.731194
O O12 0.708550 0.792708 0.751433
O O13 0.709636 0.854818 0.833334
O O14 0.876273 0.089044 0.853884
#
# Coordination Sequence:
#
# PCOD9584472 Si02
#       8
#    12  12   6  12   3  12  12   6
#     4  11  25  42  70 107 138 180 226 302 365 412
#     4  10  23  43  77 106 130 179 241 298 354 425
#     4  12  21  46  74 105 130 179 252 292 339 438
#     4  12  26  48  72 103 150 189 234 292 365 435
#     4  12  34  44  62 116 152 188 236 288 366 456
#     4  11  21  44  77 103 134 176 243 294 354 429
#     4  12  26  47  72 101 140 197 235 291 357 427
#     4  12  28  46  64 100 152 180 246 288 352 436
#
# _framework density 20.360444000000001
#
# number of rings (size 3 to 8) (size 9 to 14) (size 15 to 20)
#    0.000    0.640    4.800    1.920   10.080    1.280 
#    2.880    0.400    0.000    0.000    0.000    0.000 
#    0.000    0.000    0.000    0.000    0.000    0.000 
#
# Total GULP energy -418966.452856 kJ/mol
# GULP energy per Si atom -5586.219371 kJ/mol
# Density = 2.031410 g / cm^3
# Si number density = 20.360444 Si / 1000 Ang^3
#
#
#
# Elastic Constant Matrix: (Units=GPa)
#
#
# Indices 1 2 3 4 5 6 
#
# 1 121.7816 52.3713 22.5399 0.0000 0.0000 0.0000
# 2 52.3713 121.7816 22.5399 0.0000 0.0000 0.0000
# 3 22.5399 22.5399 54.0848 0.0000 0.0000 0.0000
# 4 0.0000 0.0000 0.0000 -0.7237 0.0000 0.0000
# 5 0.0000 0.0000 0.0000 0.0000 -0.7237 0.0000
# 6 0.0000 0.0000 0.0000 0.0000 0.0000 34.7051
#
#
#
# Elastic Compliance Matrix: (Units=1/GPa)
#
#
# Indices 1 2 3 4 5 6 
#
# 1 0.010422 -0.003985 -0.002682 0.000000 0.000000 0.000000
# 2 -0.003985 0.010422 -0.002682 0.000000 0.000000 0.000000
# 3 -0.002682 -0.002682 0.020725 0.000000 0.000000 0.000000
# 4 0.000000 0.000000 0.000000 -1.381804 0.000000 0.000000
# 5 0.000000 0.000000 0.000000 0.000000 -1.381805 0.000000
# 6 0.000000 0.000000 0.000000 0.000000 0.000000 0.028814
#
#
# Mechanical properties :
#
#
# Convention : Reuss Voigt Hill
#
# Bulk Modulus (GPa) = 43.72817 54.72780 49.22798
# Shear Modulus (GPa) = -1.87483 19.99801 9.06159
#
# Velocity S-wave (km/s) = -0.96064 3.13741 2.11193
# Velocity P-wave (km/s) = 4.50480 6.32947 5.49343
#
# Compressibility (1/GPa) = 0.02286856
#
# Stress axis : x y z
#
# Youngs Moduli (GPa) = 95.95315 95.95315 48.25032
#
# Poissons Ratio (x) = 0.38241 0.12943
# Poissons Ratio (y) = 0.38241 0.12943
# Poissons Ratio (z) = 0.25738 0.25738
#
# Static dielectric constant tensor:
#      x y z
#    x 1.745750 0.000000 0.000000 
#    y 0.000000 1.745750 0.000000 
#    z 0.000000 0.000000 1.920560 
# 
# From -- ./inp_files/12402.got.cif
#   From: 2010.05.17/outbox.cif.g08.bks.cpg/sg181_7_cif.got.tgz:12402.got - 2010.05.20 11:51:17.
