data_PCOD9584304
_publ_section_title
;
Structure prediction by ZEFSAII (Michael W. Deem and Ramdas Pophale) SiO2 
 PCOD9584304
Probable space group: P 64 2 2
;
_chemical_formula_sum "Si O2"
_cell_formula_units_Z 36
_cell_length_a 7.912307
_cell_length_b 7.912307
_cell_length_c 29.047435
_cell_angle_alpha 90.000000
_cell_angle_beta 90.000000
_cell_angle_gamma 120.000000
_cell_volume 1574.869889
_symmetry_space_group_name_H-M "P 64 2 2"
_symmetry_group_IT_number 181
_symmetry_cell_setting 'hexagonal'
loop_
_space_group_symop_operation_xyz
x,y,z
x-y,x,2/3+z
-y,x-y,1/3+z
-x,-y,z
-x+y,-x,2/3+z
y,-x+y,1/3+z
x-y,-y,-z
-x,-x+y,2/3-z
y,x,1/3-z
-y,-x,1/3-z
-x+y,y,-z
x,x-y,2/3-z
loop_
_atom_site_type_symbol
_atom_site_label
_atom_site_fract_x
_atom_site_fract_y
_atom_site_fract_z
Si Si1 0.309680 0.573471 0.718098
Si Si2 0.116580 0.379538 0.549944
Si Si3 0.808308 0.071743 0.615332
O O1 0.394364 0.605637 0.666667
O O2 0.480151 0.688118 0.754598
O O3 0.185823 0.685930 0.718899
O O4 0.153163 0.348388 0.727011
O O5 0.168921 0.337842 0.500000
O O6 0.000000 0.500000 0.545587
O O7 0.978156 0.185648 0.578744
O O8 0.894451 0.105550 0.666667
#
# Coordination Sequence:
#
# PCOD9584304 Si02
#       3
#    12  12  12
#     4   9  15  27  52  88 126 166 225 283 337 410
#     4  10  20  34  55  89 138 177 222 282 352 420
#     4   9  15  27  52  90 128 169 221 284 342 405
#
# _framework density 22.859030000000001
#
# number of rings (size 3 to 8) (size 9 to 14) (size 15 to 20)
#    0.000    2.667    3.333    0.000    0.000    0.000 
#    0.000   13.333    0.000    5.000    0.000    2.333 
#   10.000    0.000    0.000    0.000    0.000    0.000 
#
# Total GULP energy -201560.352248 kJ/mol
# GULP energy per Si atom -5598.898674 kJ/mol
# Density = 2.280700 g / cm^3
# Si number density = 22.859030 Si / 1000 Ang^3
#
#
#
# Elastic Constant Matrix: (Units=GPa)
#
#
# Indices 1 2 3 4 5 6 
#
# 1 169.1405 88.1370 96.5637 0.0000 0.0000 0.0000
# 2 88.1370 169.1405 96.5637 0.0000 0.0000 0.0000
# 3 96.5637 96.5637 240.6643 0.0000 0.0000 0.0000
# 4 0.0000 0.0000 0.0000 14.8337 0.0000 0.0000
# 5 0.0000 0.0000 0.0000 0.0000 14.8337 0.0000
# 6 0.0000 0.0000 0.0000 0.0000 0.0000 40.5017
#
#
#
# Elastic Compliance Matrix: (Units=1/GPa)
#
#
# Indices 1 2 3 4 5 6 
#
# 1 0.008954 -0.003392 -0.002232 0.000000 0.000000 0.000000
# 2 -0.003392 0.008954 -0.002232 0.000000 0.000000 0.000000
# 3 -0.002232 -0.002232 0.005946 0.000000 0.000000 0.000000
# 4 0.000000 0.000000 0.000000 0.067414 0.000000 0.000000
# 5 0.000000 0.000000 0.000000 0.000000 0.067414 0.000000
# 6 0.000000 0.000000 0.000000 0.000000 0.000000 0.024690
#
#
# Mechanical properties :
#
#
# Convention : Reuss Voigt Hill
#
# Bulk Modulus (GPa) = 122.79909 126.83046 124.81477
# Shear Modulus (GPa) = 24.77750 33.87924 29.32837
#
# Velocity S-wave (km/s) = 3.29588 3.85397 3.58580
# Velocity P-wave (km/s) = 8.26562 8.68380 8.47729
#
# Compressibility (1/GPa) = 0.00814338
#
# Stress axis : x y z
#
# Youngs Moduli (GPa) = 111.68647 111.68647 168.17808
#
# Poissons Ratio (x) = 0.37879 0.37533
# Poissons Ratio (y) = 0.37879 0.37533
# Poissons Ratio (z) = 0.24925 0.24925
#
# Static dielectric constant tensor:
#      x y z
#    x 1.869480 0.000000 0.000000 
#    y 0.000000 1.869480 0.000000 
#    z 0.000000 0.000000 1.751740 
# 
# From -- ./inp_files/10754.got.cif
#   From: 2010.05.17/outbox.cif.g08.bks.cpg/sg181_6_cif.got.tgz:10754.got - 2010.05.20 11:51:17.
