data_PCOD9584497
_publ_section_title
;
Structure prediction by ZEFSAII (Michael W. Deem and Ramdas Pophale) SiO2 
 PCOD9584497
Probable space group: P 64 2 2
;
_chemical_formula_sum "Si O2"
_cell_formula_units_Z 60
_cell_length_a 14.800476
_cell_length_b 14.800476
_cell_length_c 14.163110
_cell_angle_alpha 90.000000
_cell_angle_beta 90.000000
_cell_angle_gamma 120.000000
_cell_volume 2686.832704
_symmetry_space_group_name_H-M "P 64 2 2"
_symmetry_group_IT_number 181
_symmetry_cell_setting 'hexagonal'
loop_
_space_group_symop_operation_xyz
x,y,z
x-y,x,2/3+z
-y,x-y,1/3+z
-x,-y,z
-x+y,-x,2/3+z
y,-x+y,1/3+z
x-y,-y,-z
-x,-x+y,2/3-z
y,x,1/3-z
-y,-x,1/3-z
-x+y,y,-z
x,x-y,2/3-z
loop_
_atom_site_type_symbol
_atom_site_label
_atom_site_fract_x
_atom_site_fract_y
_atom_site_fract_z
Si Si1 0.658317 0.893254 0.761546
Si Si2 0.638476 0.485949 0.027438
Si Si3 0.742863 0.477106 0.305201
Si Si4 0.954130 0.230380 0.732548
Si Si5 0.936742 0.548242 0.175753
O O1 0.716969 0.858485 0.833334
O O2 0.551027 0.792069 0.727601
O O3 0.718081 0.945709 0.667175
O O4 0.645063 0.979893 0.816703
O O5 0.557061 0.372410 0.068696
O O6 0.685070 0.598772 0.076381
O O7 0.739798 0.479595 0.000000
O O8 0.593411 0.491941 0.925458
O O9 0.744069 0.372035 0.333334
O O10 0.837383 0.534870 0.232059
O O11 0.864611 0.135390 0.666667
O O12 0.000000 0.220492 0.833334
O O13 0.000000 0.500000 0.226008
#
# Coordination Sequence:
#
# PCOD9584497 Si02
#       5
#    12  12  12  12  12
#     4  11  25  43  70 104 139 190 247 307 380 453
#     4   9  21  40  63  95 140 189 244 299 357 447
#     4  11  24  39  68 102 143 204 244 301 373 456
#     4  10  24  48  74 105 148 197 252 320 382 450
#     4  11  22  42  62  94 149 185 243 308 361 444
#
# _framework density 22.331126999999999
#
# number of rings (size 3 to 8) (size 9 to 14) (size 15 to 20)
#    0.000    1.600    2.000    1.200    8.400    5.200 
#    0.000    1.000    0.000    1.800    0.000    0.000 
#    0.000    0.000    0.000    0.000    0.000    0.000 
#
# Total GULP energy -334855.952332 kJ/mol
# GULP energy per Si atom -5580.932539 kJ/mol
# Density = 2.228030 g / cm^3
# Si number density = 22.331127 Si / 1000 Ang^3
#
#
#
# Elastic Constant Matrix: (Units=GPa)
#
#
# Indices 1 2 3 4 5 6 
#
# 1 104.6295 37.3750 67.5948 0.0000 0.0000 0.0000
# 2 37.3750 104.6295 67.5948 0.0000 0.0000 0.0000
# 3 67.5948 67.5948 123.6632 0.0000 0.0000 0.0000
# 4 0.0000 0.0000 0.0000 40.0696 0.0000 0.0000
# 5 0.0000 0.0000 0.0000 0.0000 40.0696 0.0000
# 6 0.0000 0.0000 0.0000 0.0000 0.0000 33.6272
#
#
#
# Elastic Compliance Matrix: (Units=1/GPa)
#
#
# Indices 1 2 3 4 5 6 
#
# 1 0.014776 -0.000093 -0.008025 0.000000 0.000000 0.000000
# 2 -0.000093 0.014776 -0.008025 0.000000 0.000000 0.000000
# 3 -0.008025 -0.008025 0.016860 0.000000 0.000000 0.000000
# 4 0.000000 0.000000 0.000000 0.024957 0.000000 0.000000
# 5 0.000000 0.000000 0.000000 0.000000 0.024957 0.000000
# 6 0.000000 0.000000 0.000000 0.000000 0.000000 0.029738
#
#
# Mechanical properties :
#
#
# Convention : Reuss Voigt Hill
#
# Bulk Modulus (GPa) = 70.80703 75.33903 73.07303
# Shear Modulus (GPa) = 30.66398 33.44379 32.05389
#
# Velocity S-wave (km/s) = 3.70962 3.87412 3.79276
# Velocity P-wave (km/s) = 7.07990 7.33636 7.20927
#
# Compressibility (1/GPa) = 0.01412289
#
# Stress axis : x y z
#
# Youngs Moduli (GPa) = 67.67925 67.67925 59.31242
#
# Poissons Ratio (x) = 0.00632 0.47600
# Poissons Ratio (y) = 0.00632 0.47600
# Poissons Ratio (z) = 0.54315 0.54315
#
# Static dielectric constant tensor:
#      x y z
#    x 1.812270 0.000000 0.000000 
#    y 0.000000 1.812270 0.000000 
#    z 0.000000 0.000000 1.885820 
# 
# From -- ./inp_files/6157.got.cif
#   From: 2010.05.17/outbox.cif.g08.bks.cpg/sg181_4_cif.got.tgz:6157.got - 2010.05.20 11:51:17.
