data_PCOD9584606
_publ_section_title
;
Structure prediction by ZEFSAII (Michael W. Deem and Ramdas Pophale) SiO2 
 PCOD9584606
Probable space group: P 63 2 2
;
_chemical_formula_sum "Si O2"
_cell_formula_units_Z 84
_cell_length_a 37.130219
_cell_length_b 37.130219
_cell_length_c 5.286709
_cell_angle_alpha 90.000000
_cell_angle_beta 90.000000
_cell_angle_gamma 120.000000
_cell_volume 6312.059138
_symmetry_space_group_name_H-M "P 63 2 2"
_symmetry_group_IT_number 182
_symmetry_cell_setting 'hexagonal'
loop_
_space_group_symop_operation_xyz
x,y,z
x-y,x,1/2+z
-y,x-y,z
-x,-y,1/2+z
-x+y,-x,z
y,-x+y,1/2+z
x-y,-y,-z
-x,-x+y,-z
y,x,-z
-y,-x,1/2-z
-x+y,y,1/2-z
x,x-y,1/2-z
loop_
_atom_site_type_symbol
_atom_site_label
_atom_site_fract_x
_atom_site_fract_y
_atom_site_fract_z
Si Si1 0.661736 0.047013 0.546025
Si Si2 0.616386 0.187777 0.000604
Si Si3 0.472668 0.714757 0.499372
Si Si4 0.764069 0.191001 0.999988
Si Si5 0.496256 0.400447 0.056742
Si Si6 0.590103 0.901856 0.955547
Si Si7 0.426077 0.953747 0.058516
O O1 0.686358 0.076422 0.310834
O O2 0.616827 0.044512 0.553285
O O3 0.651369 0.000000 0.500000
O O4 0.682613 0.067774 0.811478
O O5 0.598341 0.196681 0.750000
O O6 0.665830 0.213057 0.999303
O O7 0.599016 0.198031 0.250000
O O8 0.602180 0.139218 0.008555
O O9 0.460043 0.730022 0.250000
O O10 0.522744 0.736702 0.497352
O O11 0.460644 0.730322 0.750000
O O12 0.792577 0.207424 0.250000
O O13 0.730087 0.142225 0.010510
O O14 0.792817 0.207184 0.750000
O O15 0.456210 0.353269 0.044092
O O16 0.496873 0.419599 0.329886
O O17 0.490363 0.426620 0.834078
O O18 0.462791 0.000000 0.000000
#
# Coordination Sequence:
#
# PCOD9584606 Si02
#       7
#    12  12  12  12  12  12  12
#     4   9  17  26  41  64  87 116 147 174 201 228
#     4  12  24  38  57  78  97 113 134 162 199 231
#     4  10  21  38  58  75  92 109 131 155 185 230
#     4  10  19  30  47  70  92 113 134 160 203 247
#     4  10  19  32  48  69  92 113 144 172 202 228
#     4  10  17  29  45  63  92 113 138 174 201 233
#     4   9  17  29  48  67  88 119 150 177 198 223
#
# _framework density 13.30786
#
# number of rings (size 3 to 8) (size 9 to 14) (size 15 to 20)
#    0.000    2.000    1.429    3.429    0.000    3.429 
#    0.000    0.000    0.000   14.286    0.000    0.000 
#    0.000    0.000    0.000    0.000    0.000    0.000 
#
# Total GULP energy -469143.949219 kJ/mol
# GULP energy per Si atom -5585.047015 kJ/mol
# Density = 1.327757 g / cm^3
# Si number density = 13.307860 Si / 1000 Ang^3
#
#
#
# Elastic Constant Matrix: (Units=GPa)
#
#
# Indices 1 2 3 4 5 6 
#
# 1 34.6086 10.2408 9.0115 0.0000 0.0000 0.0000
# 2 10.2408 34.6086 9.0115 0.0000 0.0000 0.0000
# 3 9.0115 9.0115 88.8529 0.0000 0.0000 0.0000
# 4 0.0000 0.0000 0.0000 23.7100 0.0000 0.0000
# 5 0.0000 0.0000 0.0000 0.0000 23.7100 0.0000
# 6 0.0000 0.0000 0.0000 0.0000 0.0000 12.1839
#
#
#
# Elastic Compliance Matrix: (Units=1/GPa)
#
#
# Indices 1 2 3 4 5 6 
#
# 1 0.032141 -0.008897 -0.002357 0.000000 0.000000 0.000000
# 2 -0.008897 0.032141 -0.002357 0.000000 0.000000 0.000000
# 3 -0.002357 -0.002357 0.011733 0.000000 0.000000 0.000000
# 4 0.000000 0.000000 0.000000 0.042176 0.000000 0.000000
# 5 0.000000 0.000000 0.000000 0.000000 0.042176 0.000000
# 6 0.000000 0.000000 0.000000 0.000000 0.000000 0.082076
#
#
# Mechanical properties :
#
#
# Convention : Reuss Voigt Hill
#
# Bulk Modulus (GPa) = 20.49544 23.84421 22.16982
# Shear Modulus (GPa) = 17.48680 20.57453 19.03067
#
# Velocity S-wave (km/s) = 3.62887 3.93624 3.78568
# Velocity P-wave (km/s) = 5.74393 6.21409 5.98363
#
# Compressibility (1/GPa) = 0.04879134
#
# Stress axis : x y z
#
# Youngs Moduli (GPa) = 31.11292 31.11292 85.23156
#
# Poissons Ratio (x) = 0.27681 0.20093
# Poissons Ratio (y) = 0.27681 0.20093
# Poissons Ratio (z) = 0.07335 0.07335
#
# Static dielectric constant tensor:
#      x y z
#    x 1.415250 0.000000 0.000000 
#    y 0.000000 1.415250 0.000000 
#    z 0.000000 0.000000 1.449840 
# 
# From -- ./inp_files/843.got.cif
#   From: 2010.05.17/outbox.cif.g08.bks.cpg/sg182_1_cif.got.tgz:843.got - 2010.05.20 11:58:53.
