data_PCOD9584714
_publ_section_title
;
Structure prediction by ZEFSAII (Michael W. Deem and Ramdas Pophale) SiO2 
 PCOD9584714
Probable space group: P 63 2 2
;
_chemical_formula_sum "Si O2"
_cell_formula_units_Z 66
_cell_length_a 11.967515
_cell_length_b 11.967515
_cell_length_c 27.781467
_cell_angle_alpha 90.000000
_cell_angle_beta 90.000000
_cell_angle_gamma 120.000000
_cell_volume 3445.829364
_symmetry_space_group_name_H-M "P 63 2 2"
_symmetry_group_IT_number 182
_symmetry_cell_setting 'hexagonal'
loop_
_space_group_symop_operation_xyz
x,y,z
x-y,x,1/2+z
-y,x-y,z
-x,-y,1/2+z
-x+y,-x,z
y,-x+y,1/2+z
x-y,-y,-z
-x,-x+y,-z
y,x,-z
-y,-x,1/2-z
-x+y,y,1/2-z
x,x-y,1/2-z
loop_
_atom_site_type_symbol
_atom_site_label
_atom_site_fract_x
_atom_site_fract_y
_atom_site_fract_z
Si Si1 0.917400 0.339070 0.352240
Si Si2 0.713113 0.093465 0.574067
Si Si3 0.149699 0.000000 0.000000
Si Si4 0.327894 0.403491 0.666983
Si Si5 0.915523 0.333905 0.739105
Si Si6 0.565992 0.623079 0.448190
O O1 0.875920 0.446678 0.344244
O O2 0.811969 0.195485 0.340067
O O3 0.035629 0.386176 0.315172
O O4 0.957883 0.348454 0.407059
O O5 0.773913 0.018371 0.544770
O O6 0.813254 0.244676 0.565210
O O7 0.575846 0.071670 0.555112
O O8 0.681908 0.038967 0.628910
O O9 0.000000 0.880879 0.000000
O O10 0.348697 0.377113 0.721801
O O11 0.809546 0.190455 0.750000
O O12 0.862152 0.431076 0.750000
O O13 0.622059 0.622059 0.500000
#
# Coordination Sequence:
#
# PCOD9584714 Si02
#       6
#    12  12   6  12  12  12
#     4  10  22  37  60  88 117 158 191 248 302 363
#     4  11  23  42  60  94 119 164 210 257 317 358
#     4  10  24  40  62  88 128 174 210 248 300 386
#     4  10  22  38  62  88 122 153 202 249 307 374
#     4  10  20  38  61  89 116 153 197 251 308 363
#     4  11  24  39  64  88 124 159 208 262 305 368
#
# _framework density 19.153587999999999
#
# number of rings (size 3 to 8) (size 9 to 14) (size 15 to 20)
#    0.182    1.455    0.909    3.091    5.091    0.000 
#    0.000    5.455    0.000    5.091    0.000    0.000 
#    0.000    0.000    0.000    0.000    0.000    0.000 
#
# Total GULP energy -368153.754843 kJ/mol
# GULP energy per Si atom -5578.087195 kJ/mol
# Density = 1.910999 g / cm^3
# Si number density = 19.153588 Si / 1000 Ang^3
#
#
#
# Elastic Constant Matrix: (Units=GPa)
#
#
# Indices 1 2 3 4 5 6 
#
# 1 32.5964 25.8217 -6.0034 0.0000 0.0000 0.0000
# 2 25.8217 32.5964 -6.0034 0.0000 0.0000 0.0000
# 3 -6.0034 -6.0034 76.0195 0.0000 0.0000 0.0000
# 4 0.0000 0.0000 0.0000 -26.5638 0.0000 0.0000
# 5 0.0000 0.0000 0.0000 0.0000 -26.5638 0.0000
# 6 0.0000 0.0000 0.0000 0.0000 0.0000 3.3874
#
#
#
# Elastic Compliance Matrix: (Units=1/GPa)
#
#
# Indices 1 2 3 4 5 6 
#
# 1 0.082504 -0.065104 0.001374 0.000000 0.000000 0.000000
# 2 -0.065104 0.082504 0.001374 0.000000 0.000000 0.000000
# 3 0.001374 0.001374 0.013372 0.000000 0.000000 0.000000
# 4 0.000000 0.000000 0.000000 -0.037645 0.000000 0.000000
# 5 0.000000 0.000000 0.000000 0.000000 -0.037645 0.000000
# 6 0.000000 0.000000 0.000000 0.000000 0.000000 0.295215
#
#
# Mechanical properties :
#
#
# Convention : Reuss Voigt Hill
#
# Bulk Modulus (GPa) = 18.63275 18.76024 18.69649
# Shear Modulus (GPa) = 9.24377 -1.45488 3.89444
#
# Velocity S-wave (km/s) = 2.19923 -0.87249 1.42748
# Velocity P-wave (km/s) = 4.02467 2.96663 3.53546
#
# Compressibility (1/GPa) = 0.05366896
#
# Stress axis : x y z
#
# Youngs Moduli (GPa) = 12.12061 12.12061 74.78566
#
# Poissons Ratio (x) = 0.78910 -0.10277
# Poissons Ratio (y) = 0.78910 -0.10277
# Poissons Ratio (z) = -0.01666 -0.01666
#
# Static dielectric constant tensor:
#      x y z
#    x 1.678270 0.000000 0.000000 
#    y 0.000000 1.678270 0.000000 
#    z 0.000000 0.000000 1.658320 
# 
# From -- ./inp_files/5736.got.cif
#   From: 2010.05.17/outbox.cif.g08.bks.cpg/sg182_3_cif.got.tgz:5736.got - 2010.05.20 11:58:53.
