data_PCOD9584748
_publ_section_title
;
Structure prediction by ZEFSAII (Michael W. Deem and Ramdas Pophale) SiO2 
 PCOD9584748
Probable space group: P 63 2 2
;
_chemical_formula_sum "Si O2"
_cell_formula_units_Z 74
_cell_length_a 14.322660
_cell_length_b 14.322660
_cell_length_c 19.359593
_cell_angle_alpha 90.000000
_cell_angle_beta 90.000000
_cell_angle_gamma 120.000000
_cell_volume 3439.332943
_symmetry_space_group_name_H-M "P 63 2 2"
_symmetry_group_IT_number 182
_symmetry_cell_setting 'hexagonal'
loop_
_space_group_symop_operation_xyz
x,y,z
x-y,x,1/2+z
-y,x-y,z
-x,-y,1/2+z
-x+y,-x,z
y,-x+y,1/2+z
x-y,-y,-z
-x,-x+y,-z
y,x,-z
-y,-x,1/2-z
-x+y,y,1/2-z
x,x-y,1/2-z
loop_
_atom_site_type_symbol
_atom_site_label
_atom_site_fract_x
_atom_site_fract_y
_atom_site_fract_z
Si Si1 0.183201 0.816800 0.750000
Si Si2 0.780657 0.956814 0.876196
Si Si3 0.000000 0.000000 0.583869
Si Si4 0.412471 0.519363 0.171994
Si Si5 0.171099 0.365536 0.130799
Si Si6 0.877712 0.661113 0.480079
Si Si7 0.333334 0.666668 0.164862
Si Si8 0.634829 0.048513 0.350659
O O1 0.101543 0.810893 0.809466
O O2 0.129935 0.700521 0.711749
O O3 0.880152 0.937416 0.886310
O O4 0.708243 0.898515 0.943300
O O5 0.832048 0.084041 0.873416
O O6 0.000000 0.000000 0.500000
O O7 0.451808 0.548193 0.250000
O O8 0.286071 0.434666 0.168907
O O9 0.411896 0.623956 0.141666
O O10 0.506983 0.503875 0.140640
O O11 0.060861 0.356061 0.160152
O O12 0.175681 0.398629 0.050616
O O13 0.000000 0.754240 0.500000
O O14 0.897461 0.593765 0.421335
O O15 0.333334 0.666667 0.250000
#
# Coordination Sequence:
#
# PCOD9584748 Si02
#       8
#     6  12   4  12  12  12   4  12
#     4  10  22  36  54  84 124 162 196 256 318 390
#     4  11  21  33  52  79 113 155 201 245 302 378
#     4  12  21  31  50  73 111 165 205 236 292 378
#     4  11  21  35  59  89 124 161 211 270 337 398
#     4  11  21  35  58  83 118 162 212 261 316 392
#     4   9  19  37  55  77 116 158 200 249 307 380
#     4   9  18  33  54  84 117 162 198 262 335 394
#     4  10  21  38  58  86 124 164 205 261 328 395
#
# _framework density 21.515799000000001
#
# number of rings (size 3 to 8) (size 9 to 14) (size 15 to 20)
#    0.000    1.622    1.622    5.838    0.000    3.892 
#    0.000    4.865    0.000    0.000    0.000    0.000 
#   64.865    0.000    0.000    0.000    0.000    0.000 
#
# Total GULP energy -412559.513859 kJ/mol
# GULP energy per Si atom -5575.128566 kJ/mol
# Density = 2.146683 g / cm^3
# Si number density = 21.515799 Si / 1000 Ang^3
#
#
#
# Elastic Constant Matrix: (Units=GPa)
#
#
# Indices 1 2 3 4 5 6 
#
# 1 49.3324 5.6999 11.6803 0.0000 0.0000 -0.0001
# 2 5.6999 49.3326 11.6803 0.0000 0.0000 0.0000
# 3 11.6803 11.6803 86.1712 0.0000 0.0000 0.0000
# 4 0.0000 0.0000 0.0000 23.7345 0.0000 0.0000
# 5 0.0000 0.0000 0.0000 0.0000 23.7346 0.0000
# 6 -0.0001 0.0000 0.0000 0.0000 0.0000 21.8163
#
#
#
# Elastic Compliance Matrix: (Units=1/GPa)
#
#
# Indices 1 2 3 4 5 6 
#
# 1 0.021100 -0.001819 -0.002613 0.000000 0.000000 0.000000
# 2 -0.001819 0.021100 -0.002613 0.000000 0.000000 0.000000
# 3 -0.002613 -0.002613 0.012313 0.000000 0.000000 0.000000
# 4 0.000000 0.000000 0.000000 0.042133 0.000000 0.000000
# 5 0.000000 0.000000 0.000000 0.000000 0.042133 0.000000
# 6 0.000000 0.000000 0.000000 0.000000 0.000000 0.045837
#
#
# Mechanical properties :
#
#
# Convention : Reuss Voigt Hill
#
# Bulk Modulus (GPa) = 24.73988 26.99524 25.86756
# Shear Modulus (GPa) = 23.56485 24.24213 23.90349
#
# Velocity S-wave (km/s) = 3.31302 3.36030 3.33674
# Velocity P-wave (km/s) = 5.11452 5.25637 5.18593
#
# Compressibility (1/GPa) = 0.04042057
#
# Stress axis : x y z
#
# Youngs Moduli (GPa) = 47.39426 47.39444 81.21300
#
# Poissons Ratio (x) = 0.08621 0.21224
# Poissons Ratio (y) = 0.08621 0.21224
# Poissons Ratio (z) = 0.12386 0.12386
#
# Static dielectric constant tensor:
#      x y z
#    x 1.870560 0.000000 0.000000 
#    y 0.000000 1.870560 0.000000 
#    z 0.000000 0.000000 1.778060 
# 
# From -- ./inp_files/4962.got.cif
#   From: 2010.05.17/outbox.cif.g08.bks.cpg/sg182_3_cif.got.tgz:4962.got - 2010.05.20 11:58:53.
