data_PCOD9584574
_publ_section_title
;
Structure prediction by ZEFSAII (Michael W. Deem and Ramdas Pophale) SiO2 
 PCOD9584574
Probable space group: P 64 2 2
;
_chemical_formula_sum "Si O2"
_cell_formula_units_Z 45
_cell_length_a 11.167137
_cell_length_b 11.167137
_cell_length_c 20.730270
_cell_angle_alpha 90.000000
_cell_angle_beta 90.000000
_cell_angle_gamma 120.000000
_cell_volume 2238.820519
_symmetry_space_group_name_H-M "P 64 2 2"
_symmetry_group_IT_number 181
_symmetry_cell_setting 'hexagonal'
loop_
_space_group_symop_operation_xyz
x,y,z
x-y,x,2/3+z
-y,x-y,1/3+z
-x,-y,z
-x+y,-x,2/3+z
y,-x+y,1/3+z
x-y,-y,-z
-x,-x+y,2/3-z
y,x,1/3-z
-y,-x,1/3-z
-x+y,y,-z
x,x-y,2/3-z
loop_
_atom_site_type_symbol
_atom_site_label
_atom_site_fract_x
_atom_site_fract_y
_atom_site_fract_z
Si Si1 0.613713 0.386288 0.666667
Si Si2 0.000000 0.000000 0.333334
Si Si3 0.663081 0.564426 0.541976
Si Si4 0.109274 0.214796 0.778383
Si Si5 0.487637 0.857336 0.568121
O O1 0.648269 0.507978 0.615303
O O2 0.579670 0.257688 0.621809
O O3 0.915422 0.045984 0.379617
O O4 0.500000 0.500000 0.519904
O O5 0.762303 0.524605 0.500000
O O6 0.743617 0.731594 0.543139
O O7 0.116121 0.360399 0.776354
O O8 0.000000 0.126350 0.833334
O O9 0.408099 0.816197 0.500000
O O10 0.500000 0.000000 0.589135
#
# Coordination Sequence:
#
# PCOD9584574 Si02
#       5
#     6   3  12  12  12
#     4  12  25  45  74 103 142 189 248 304 361 449
#     4  12  26  42  70 108 128 188 242 300 360 436
#     4  12  27  47  77 109 147 197 247 307 374 448
#     4  12  25  47  74 100 148 186 239 303 368 436
#     4  11  24  46  69 101 145 188 235 303 369 434
#
# _framework density 20.099871
#
# number of rings (size 3 to 8) (size 9 to 14) (size 15 to 20)
#    0.000    0.267    5.333    4.800    0.000    2.133 
#    0.000    0.000    0.000    0.000    0.000    0.000 
#    0.000    0.000    0.000    0.000    0.000    0.000 
#
# Total GULP energy -251447.168309 kJ/mol
# GULP energy per Si atom -5587.714851 kJ/mol
# Density = 2.005412 g / cm^3
# Si number density = 20.099871 Si / 1000 Ang^3
#
#
#
# Elastic Constant Matrix: (Units=GPa)
#
#
# Indices 1 2 3 4 5 6 
#
# 1 176.6842 71.1799 86.6387 0.0000 0.0000 0.0000
# 2 71.1799 176.6842 86.6387 0.0000 0.0000 0.0000
# 3 86.6387 86.6387 149.5060 0.0000 0.0000 0.0000
# 4 0.0000 0.0000 0.0000 166.1164 0.0000 0.0000
# 5 0.0000 0.0000 0.0000 0.0000 166.1164 0.0000
# 6 0.0000 0.0000 0.0000 0.0000 0.0000 52.7521
#
#
#
# Elastic Compliance Matrix: (Units=1/GPa)
#
#
# Indices 1 2 3 4 5 6 
#
# 1 0.008130 -0.001348 -0.003930 0.000000 0.000000 0.000000
# 2 -0.001348 0.008130 -0.003930 0.000000 0.000000 0.000000
# 3 -0.003930 -0.003930 0.011244 0.000000 0.000000 0.000000
# 4 0.000000 0.000000 0.000000 0.006020 0.000000 0.000000
# 5 0.000000 0.000000 0.000000 0.000000 0.006020 0.000000
# 6 0.000000 0.000000 0.000000 0.000000 0.000000 0.018957
#
#
# Mechanical properties :
#
#
# Convention : Reuss Voigt Hill
#
# Bulk Modulus (GPa) = 110.04643 110.19879 110.12261
# Shear Modulus (GPa) = 62.54199 94.22477 78.38338
#
# Velocity S-wave (km/s) = 5.58419 6.85420 6.25153
# Velocity P-wave (km/s) = 9.82070 10.84365 10.34483
#
# Compressibility (1/GPa) = 0.00908707
#
# Stress axis : x y z
#
# Youngs Moduli (GPa) = 122.99925 122.99925 88.93840
#
# Poissons Ratio (x) = 0.16582 0.34954
# Poissons Ratio (y) = 0.16582 0.34954
# Poissons Ratio (z) = 0.48341 0.48341
#
# Static dielectric constant tensor:
#      x y z
#    x 1.721770 0.000000 0.000000 
#    y 0.000000 1.721770 0.000000 
#    z 0.000000 0.000000 1.664270 
# 
# From -- ./inp_files/7408.got.cif
#   From: 2010.05.17/outbox.cif.g08.bks.cpg/sg181_4_cif.got.tgz:7408.got - 2010.05.20 11:51:17.
