data_PCOD9584141
_publ_section_title
;
Structure prediction by ZEFSAII (Michael W. Deem and Ramdas Pophale) SiO2 
 PCOD9584141
Probable space group: P 62 2 2
;
_chemical_formula_sum "Si O2"
_cell_formula_units_Z 36
_cell_length_a 9.194644
_cell_length_b 9.194644
_cell_length_c 19.417978
_cell_angle_alpha 90.000000
_cell_angle_beta 90.000000
_cell_angle_gamma 120.000000
_cell_volume 1421.688577
_symmetry_space_group_name_H-M "P 62 2 2"
_symmetry_group_IT_number 180
_symmetry_cell_setting 'hexagonal'
loop_
_space_group_symop_operation_xyz
x,y,z
x-y,x,1/3+z
-y,x-y,2/3+z
-x,-y,z
-x+y,-x,1/3+z
y,-x+y,2/3+z
x-y,-y,-z
-x,-x+y,1/3-z
y,x,2/3-z
-y,-x,2/3-z
-x+y,y,-z
x,x-y,1/3-z
loop_
_atom_site_type_symbol
_atom_site_label
_atom_site_fract_x
_atom_site_fract_y
_atom_site_fract_z
Si Si1 0.185877 0.649157 0.541701
Si Si2 0.227094 0.180624 0.553841
Si Si3 0.192437 0.318952 0.686866
O O1 0.293630 0.587260 0.500000
O O2 0.231477 0.495615 0.274699
O O3 0.000000 0.500000 0.558489
O O4 0.840055 0.230984 0.489495
O O5 0.184406 0.012012 0.596726
O O6 0.045405 0.316736 0.385914
O O7 0.087862 0.175725 0.500000
O O8 0.000000 0.253057 0.666667
#
# Coordination Sequence:
#
# PCOD9584141 Si02
#       3
#    12  12  12
#     4  12  29  52  72 106 158 208 260 328 393 467
#     4  11  23  46  79 116 150 195 261 317 397 476
#     4  11  25  43  81 115 147 203 256 320 389 481
#
# _framework density 25.321999000000002
#
# number of rings (size 3 to 8) (size 9 to 14) (size 15 to 20)
#    0.000    0.667    3.333    4.000    4.667    3.333 
#   12.000    0.000    0.000    0.000    0.000    0.000 
#    0.000    0.000    0.000    0.000    0.000    0.000 
#
# Total GULP energy -201455.587029 kJ/mol
# GULP energy per Si atom -5595.988529 kJ/mol
# Density = 2.526436 g / cm^3
# Si number density = 25.321999 Si / 1000 Ang^3
#
#
#
# Elastic Constant Matrix: (Units=GPa)
#
#
# Indices 1 2 3 4 5 6 
#
# 1 61.7111 29.8320 46.4153 0.0000 0.0000 0.0000
# 2 29.8320 61.7111 46.4153 0.0000 0.0000 0.0000
# 3 46.4153 46.4153 164.7120 0.0000 0.0000 0.0000
# 4 0.0000 0.0000 0.0000 36.2758 0.0000 0.0000
# 5 0.0000 0.0000 0.0000 0.0000 36.2758 0.0000
# 6 0.0000 0.0000 0.0000 0.0000 0.0000 15.9396
#
#
#
# Elastic Compliance Matrix: (Units=1/GPa)
#
#
# Indices 1 2 3 4 5 6 
#
# 1 0.023331 -0.008037 -0.004310 0.000000 0.000000 0.000000
# 2 -0.008037 0.023331 -0.004310 0.000000 0.000000 0.000000
# 3 -0.004310 -0.004310 0.008500 0.000000 0.000000 0.000000
# 4 0.000000 0.000000 0.000000 0.027567 0.000000 0.000000
# 5 0.000000 0.000000 0.000000 0.000000 0.027567 0.000000
# 6 0.000000 0.000000 0.000000 0.000000 0.000000 0.062737
#
#
# Mechanical properties :
#
#
# Convention : Reuss Voigt Hill
#
# Bulk Modulus (GPa) = 45.76806 59.27327 52.52066
# Shear Modulus (GPa) = 23.40494 28.72967 26.06731
#
# Velocity S-wave (km/s) = 3.04352 3.37200 3.21196
# Velocity P-wave (km/s) = 5.51945 6.21443 5.87722
#
# Compressibility (1/GPa) = 0.02184930
#
# Stress axis : x y z
#
# Youngs Moduli (GPa) = 42.86069 42.86069 117.64400
#
# Poissons Ratio (x) = 0.34448 0.50703
# Poissons Ratio (y) = 0.34448 0.50703
# Poissons Ratio (z) = 0.18472 0.18472
#
# Static dielectric constant tensor:
#      x y z
#    x 2.009720 0.000000 0.000000 
#    y 0.000000 2.009720 0.000000 
#    z 0.000000 0.000000 2.061510 
# 
# From -- ./inp_files/9743.got.cif
#   From: 2010.05.17/outbox.cif.g08.bks.cpg/sg180_5_cif.got.tgz:9743.got - 2010.05.20 11:43:55.
