data_PCOD9584632
_publ_section_title
;
Structure prediction by ZEFSAII (Michael W. Deem and Ramdas Pophale) SiO2 
 PCOD9584632
Probable space group: P 63 2 2
;
_chemical_formula_sum "Si O2"
_cell_formula_units_Z 84
_cell_length_a 14.635526
_cell_length_b 14.635526
_cell_length_c 24.867182
_cell_angle_alpha 90.000000
_cell_angle_beta 90.000000
_cell_angle_gamma 120.000000
_cell_volume 4612.898256
_symmetry_space_group_name_H-M "P 63 2 2"
_symmetry_group_IT_number 182
_symmetry_cell_setting 'hexagonal'
loop_
_space_group_symop_operation_xyz
x,y,z
x-y,x,1/2+z
-y,x-y,z
-x,-y,1/2+z
-x+y,-x,z
y,-x+y,1/2+z
x-y,-y,-z
-x,-x+y,-z
y,x,-z
-y,-x,1/2-z
-x+y,y,1/2-z
x,x-y,1/2-z
loop_
_atom_site_type_symbol
_atom_site_label
_atom_site_fract_x
_atom_site_fract_y
_atom_site_fract_z
Si Si1 0.964234 0.622881 0.321991
Si Si2 0.821285 0.178716 0.250000
Si Si3 0.792264 0.959048 0.060602
Si Si4 0.599468 0.501895 0.902483
Si Si5 0.735629 0.160828 0.884375
Si Si6 0.249286 0.942746 0.274001
Si Si7 0.346935 0.346935 0.500000
Si Si8 0.052932 0.820097 0.590329
O O1 0.995697 0.560292 0.363310
O O2 0.047343 0.669329 0.273095
O O3 0.851456 0.578120 0.292338
O O4 0.972757 0.720027 0.357368
O O5 0.934319 0.217134 0.278265
O O6 0.668154 0.889929 0.071673
O O7 0.835756 0.881435 0.076371
O O8 0.845373 0.065959 0.095067
O O9 0.821585 0.000000 0.000000
O O10 0.714293 0.529072 0.881328
O O11 0.516782 0.379738 0.900075
O O12 0.622854 0.554455 0.961342
O O13 0.736403 0.106263 0.828248
O O14 0.133293 0.866708 0.250000
O O15 0.248452 0.309451 0.541005
#
# Coordination Sequence:
#
# PCOD9584632 Si02
#       8
#    12   6  12  12  12  12   6  12
#     4   9  19  36  55  79 117 154 188 239 297 348
#     4   8  18  34  56  80 118 156 184 232 294 360
#     4  12  21  34  57  94 123 155 202 240 302 380
#     4  11  23  40  60  84 118 158 206 258 308 347
#     4  12  23  39  61  87 119 159 210 257 301 366
#     4  10  18  37  56  85 121 150 193 243 294 368
#     4  10  20  42  56  78 122 154 190 254 308 352
#     4  11  19  36  58  85 124 162 182 245 301 368
#
# _framework density 18.209809
#
# number of rings (size 3 to 8) (size 9 to 14) (size 15 to 20)
#    0.857    0.571    5.714    1.429    1.000    0.571 
#    0.429    0.000    0.000    0.000    0.000    0.000 
#   14.286    0.000    0.000    0.000    0.000    0.000 
#
# Total GULP energy -467769.367448 kJ/mol
# GULP energy per Si atom -5568.682946 kJ/mol
# Density = 1.816836 g / cm^3
# Si number density = 18.209809 Si / 1000 Ang^3
#
#
#
# Elastic Constant Matrix: (Units=GPa)
#
#
# Indices 1 2 3 4 5 6 
#
# 1 66.5671 34.2643 8.0978 0.0000 0.0000 0.0000
# 2 34.2643 66.5671 8.0978 0.0000 0.0000 0.0000
# 3 8.0978 8.0978 77.1271 0.0000 0.0000 0.0000
# 4 0.0000 0.0000 0.0000 5.2197 0.0000 0.0000
# 5 0.0000 0.0000 0.0000 0.0000 5.2197 0.0000
# 6 0.0000 0.0000 0.0000 0.0000 0.0000 16.1514
#
#
#
# Elastic Compliance Matrix: (Units=1/GPa)
#
#
# Indices 1 2 3 4 5 6 
#
# 1 0.020522 -0.010435 -0.001059 0.000000 0.000000 0.000000
# 2 -0.010435 0.020522 -0.001059 0.000000 0.000000 0.000000
# 3 -0.001059 -0.001059 0.013188 0.000000 0.000000 0.000000
# 4 0.000000 0.000000 0.000000 0.191584 0.000000 0.000000
# 5 0.000000 0.000000 0.000000 0.000000 0.191584 0.000000
# 6 0.000000 0.000000 0.000000 0.000000 0.000000 0.061914
#
#
# Mechanical properties :
#
#
# Convention : Reuss Voigt Hill
#
# Bulk Modulus (GPa) = 34.33262 34.57567 34.45414
# Shear Modulus (GPa) = 9.36104 15.97156 12.66630
#
# Velocity S-wave (km/s) = 2.26976 2.96478 2.64024
# Velocity P-wave (km/s) = 5.07582 5.54513 5.31566
#
# Compressibility (1/GPa) = 0.02912682
#
# Stress axis : x y z
#
# Youngs Moduli (GPa) = 48.72730 48.72730 75.82643
#
# Poissons Ratio (x) = 0.50846 0.08031
# Poissons Ratio (y) = 0.50846 0.08031
# Poissons Ratio (z) = 0.05161 0.05161
#
# Static dielectric constant tensor:
#      x y z
#    x 1.613970 0.000000 0.000000 
#    y 0.000000 1.613970 0.000000 
#    z 0.000000 0.000000 1.677540 
# 
# From -- ./inp_files/5570.got.cif
#   From: 2010.05.17/outbox.cif.g08.bks.cpg/sg182_3_cif.got.tgz:5570.got - 2010.05.20 11:58:53.
