data_PCOD9584798
_publ_section_title
;
Structure prediction by ZEFSAII (Michael W. Deem and Ramdas Pophale) SiO2 
 PCOD9584798
Probable space group: P 63 2 2
;
_chemical_formula_sum "Si O2"
_cell_formula_units_Z 46
_cell_length_a 17.629041
_cell_length_b 17.629041
_cell_length_c 8.201126
_cell_angle_alpha 90.000000
_cell_angle_beta 90.000000
_cell_angle_gamma 120.000000
_cell_volume 2207.300652
_symmetry_space_group_name_H-M "P 63 2 2"
_symmetry_group_IT_number 182
_symmetry_cell_setting 'hexagonal'
loop_
_space_group_symop_operation_xyz
x,y,z
x-y,x,1/2+z
-y,x-y,z
-x,-y,1/2+z
-x+y,-x,z
y,-x+y,1/2+z
x-y,-y,-z
-x,-x+y,-z
y,x,-z
-y,-x,1/2-z
-x+y,y,1/2-z
x,x-y,1/2-z
loop_
_atom_site_type_symbol
_atom_site_label
_atom_site_fract_x
_atom_site_fract_y
_atom_site_fract_z
Si Si1 0.967330 0.640674 0.309735
Si Si2 0.465962 0.634454 0.902738
Si Si3 0.171511 0.000075 0.805907
Si Si4 0.549607 0.549607 0.500000
Si Si5 0.666667 0.333333 0.562190
O O1 0.868387 0.563153 0.336169
O O2 0.000000 0.653052 0.500000
O O3 0.981855 0.733312 0.250344
O O4 0.003731 0.601859 0.167469
O O5 0.402101 0.597900 0.750000
O O6 0.460234 0.546821 0.982967
O O7 0.427277 0.681709 0.008871
O O8 0.186786 0.093393 0.750000
O O9 0.077804 0.922197 0.750000
O O10 0.172475 0.000000 0.000000
O O11 0.666668 0.333334 0.750000
#
# Coordination Sequence:
#
# PCOD9584798 Si02
#       5
#    12  12  12   6   4
#     4  10  23  41  69  99 136 178 232 285 342 425
#     4  10  22  44  65  94 132 183 229 287 357 416
#     4  11  25  45  70 102 139 182 226 284 352 423
#     4  10  22  40  74  92 134 184 224 292 348 418
#     4  12  28  38  64 102 136 182 238 300 361 440
#
# _framework density 20.839932999999998
#
# number of rings (size 3 to 8) (size 9 to 14) (size 15 to 20)
#    0.000    1.565    1.304    1.826    7.304    4.174 
#    4.696    0.000    0.000    0.000    0.000    0.000 
#    0.000    0.000    0.000    0.000    0.000    0.000 
#
# Total GULP energy -256548.880044 kJ/mol
# GULP energy per Si atom -5577.149566 kJ/mol
# Density = 2.079250 g / cm^3
# Si number density = 20.839933 Si / 1000 Ang^3
#
#
#
# Elastic Constant Matrix: (Units=GPa)
#
#
# Indices 1 2 3 4 5 6 
#
# 1 140.3401 39.4713 24.4455 0.0000 -0.0001 -0.0008
# 2 39.4713 140.3427 24.4462 -0.0001 0.0001 -0.0006
# 3 24.4455 24.4462 86.0803 0.0000 0.0001 -0.0004
# 4 0.0000 -0.0001 0.0000 74.0835 0.0021 -0.0001
# 5 -0.0001 0.0001 0.0001 0.0021 74.0874 -0.0001
# 6 -0.0008 -0.0006 -0.0004 -0.0001 -0.0001 50.4348
#
#
#
# Elastic Compliance Matrix: (Units=1/GPa)
#
#
# Indices 1 2 3 4 5 6 
#
# 1 0.007970 -0.001944 -0.001711 0.000000 0.000000 0.000000
# 2 -0.001944 0.007970 -0.001712 0.000000 0.000000 0.000000
# 3 -0.001711 -0.001712 0.012589 0.000000 0.000000 0.000000
# 4 0.000000 0.000000 0.000000 0.013498 0.000000 0.000000
# 5 0.000000 0.000000 0.000000 0.000000 0.013498 0.000000
# 6 0.000000 0.000000 0.000000 0.000000 0.000000 0.019828
#
#
# Mechanical properties :
#
#
# Convention : Reuss Voigt Hill
#
# Bulk Modulus (GPa) = 56.19078 60.38766 58.28922
# Shear Modulus (GPa) = 54.33699 58.28115 56.30907
#
# Velocity S-wave (km/s) = 5.11176 5.29403 5.20370
# Velocity P-wave (km/s) = 7.86522 8.14916 8.00845
#
# Compressibility (1/GPa) = 0.01779652
#
# Stress axis : x y z
#
# Youngs Moduli (GPa) = 125.46593 125.46797 79.43335
#
# Poissons Ratio (x) = 0.24385 0.13595
# Poissons Ratio (y) = 0.24384 0.13595
# Poissons Ratio (z) = 0.21473 0.21474
#
# Static dielectric constant tensor:
#      x y z
#    x 1.748530 0.000000 0.000000 
#    y 0.000000 1.748530 0.000000 
#    z 0.000000 0.000000 1.741570 
# 
# From -- ./inp_files/1486.got.cif
#   From: 2010.05.17/outbox.cif.g08.bks.cpg/sg182_1_cif.got.tgz:1486.got - 2010.05.20 11:58:53.
