data_PCOD9584844
_publ_section_title
;
Structure prediction by ZEFSAII (Michael W. Deem and Ramdas Pophale) SiO2 
 PCOD9584844
Probable space group: P 63 2 2
;
_chemical_formula_sum "Si O2"
_cell_formula_units_Z 70
_cell_length_a 14.149552
_cell_length_b 14.149552
_cell_length_c 21.188647
_cell_angle_alpha 90.000000
_cell_angle_beta 90.000000
_cell_angle_gamma 120.000000
_cell_volume 3673.831525
_symmetry_space_group_name_H-M "P 63 2 2"
_symmetry_group_IT_number 182
_symmetry_cell_setting 'hexagonal'
loop_
_space_group_symop_operation_xyz
x,y,z
x-y,x,1/2+z
-y,x-y,z
-x,-y,1/2+z
-x+y,-x,z
y,-x+y,1/2+z
x-y,-y,-z
-x,-x+y,-z
y,x,-z
-y,-x,1/2-z
-x+y,y,1/2-z
x,x-y,1/2-z
loop_
_atom_site_type_symbol
_atom_site_label
_atom_site_fract_x
_atom_site_fract_y
_atom_site_fract_z
Si Si1 0.807398 0.113356 0.390505
Si Si2 0.422194 0.196312 0.865026
Si Si3 0.648254 0.001259 0.074679
Si Si4 0.564079 0.995558 0.575265
Si Si5 0.666667 0.333333 0.675500
Si Si6 0.000000 0.126807 0.000000
Si Si7 0.116653 0.233305 0.750000
Si Si8 0.130595 0.261189 0.250000
O O1 0.688902 0.097005 0.405011
O O2 0.822547 0.028104 0.437783
O O3 0.818582 0.105013 0.315002
O O4 0.901902 0.234192 0.406775
O O5 0.368832 0.254087 0.904095
O O6 0.543435 0.289167 0.846372
O O7 0.342667 0.140798 0.805660
O O8 0.437401 0.105981 0.900972
O O9 0.548324 0.015646 0.100342
O O10 0.640599 0.000000 0.000000
O O11 0.562426 0.000000 0.500000
O O12 0.666668 0.333334 0.750000
O O13 0.101234 0.101234 0.000000
O O14 0.178564 0.170179 0.772919
#
# Coordination Sequence:
#
# PCOD9584844 Si02
#       8
#    12  12  12  12   4   6   6   6
#     4  12  24  45  65  98 141 179 232 281 338 412
#     4  12  23  42  67  97 132 173 219 283 343 405
#     4  11  25  42  68  97 129 178 230 281 343 405
#     4  11  24  43  67  96 131 177 224 280 342 403
#     4  12  24  39  66 102 132 162 219 277 344 415
#     4  10  26  38  66 100 128 184 226 270 342 416
#     4  12  27  38  64 100 136 184 219 274 342 408
#     4  12  25  42  66  94 142 180 217 274 342 410
#
# _framework density 19.053675999999999
#
# number of rings (size 3 to 8) (size 9 to 14) (size 15 to 20)
#    0.171    0.343    6.857    1.714    4.800    0.000 
#    1.029    2.571    0.000    0.000    0.000    0.000 
#    0.000    0.000    0.000    0.000    0.000    0.000 
#
# Total GULP energy -390395.284194 kJ/mol
# GULP energy per Si atom -5577.075488 kJ/mol
# Density = 1.901031 g / cm^3
# Si number density = 19.053676 Si / 1000 Ang^3
#
#
#
# Elastic Constant Matrix: (Units=GPa)
#
#
# Indices 1 2 3 4 5 6 
#
# 1 118.9222 36.8286 27.2376 -0.0002 0.0000 0.0002
# 2 36.8286 118.9220 27.2376 0.0001 0.0000 -0.0001
# 3 27.2376 27.2376 94.3541 0.0001 0.0000 0.0000
# 4 -0.0002 0.0001 0.0001 40.7208 -0.0013 0.0000
# 5 0.0000 0.0000 0.0000 -0.0013 40.7202 0.0002
# 6 0.0002 -0.0001 0.0000 0.0000 0.0002 41.0469
#
#
#
# Elastic Compliance Matrix: (Units=1/GPa)
#
#
# Indices 1 2 3 4 5 6 
#
# 1 0.009661 -0.002520 -0.002062 0.000000 0.000000 0.000000
# 2 -0.002520 0.009661 -0.002062 0.000000 0.000000 0.000000
# 3 -0.002062 -0.002062 0.011789 0.000000 0.000000 0.000000
# 4 0.000000 0.000000 0.000000 0.024557 0.000001 0.000000
# 5 0.000000 0.000000 0.000000 0.000001 0.024558 0.000000
# 6 0.000000 0.000000 0.000000 0.000000 0.000000 0.024362
#
#
# Mechanical properties :
#
#
# Convention : Reuss Voigt Hill
#
# Bulk Modulus (GPa) = 56.09966 57.20067 56.65017
# Shear Modulus (GPa) = 40.38220 40.55722 40.46971
#
# Velocity S-wave (km/s) = 4.60868 4.61866 4.61367
# Velocity P-wave (km/s) = 7.60439 7.65040 7.62743
#
# Compressibility (1/GPa) = 0.01782542
#
# Stress axis : x y z
#
# Youngs Moduli (GPa) = 103.50471 103.50455 84.82752
#
# Poissons Ratio (x) = 0.26081 0.17488
# Poissons Ratio (y) = 0.26081 0.17488
# Poissons Ratio (z) = 0.21338 0.21338
#
# Static dielectric constant tensor:
#      x y z
#    x 1.672870 0.000000 0.000000 
#    y 0.000000 1.672870 0.000000 
#    z 0.000000 0.000000 1.656670 
# 
# From -- ./inp_files/4392.got.cif
#   From: 2010.05.17/outbox.cif.g08.bks.cpg/sg182_3_cif.got.tgz:4392.got - 2010.05.20 11:58:53.
