data_PCOD9584125
_publ_section_title
;
Structure prediction by ZEFSAII (Michael W. Deem and Ramdas Pophale) SiO2 
 PCOD9584125
Probable space group: P 62 2 2
;
_chemical_formula_sum "Si O2"
_cell_formula_units_Z 48
_cell_length_a 17.078932
_cell_length_b 17.078932
_cell_length_c 9.516250
_cell_angle_alpha 90.000000
_cell_angle_beta 90.000000
_cell_angle_gamma 120.000000
_cell_volume 2403.908280
_symmetry_space_group_name_H-M "P 62 2 2"
_symmetry_group_IT_number 180
_symmetry_cell_setting 'hexagonal'
loop_
_space_group_symop_operation_xyz
x,y,z
x-y,x,1/3+z
-y,x-y,2/3+z
-x,-y,z
-x+y,-x,1/3+z
y,-x+y,2/3+z
x-y,-y,-z
-x,-x+y,1/3-z
y,x,2/3-z
-y,-x,2/3-z
-x+y,y,-z
x,x-y,1/3-z
loop_
_atom_site_type_symbol
_atom_site_label
_atom_site_fract_x
_atom_site_fract_y
_atom_site_fract_z
Si Si1 0.929150 0.675155 0.050634
Si Si2 0.524300 0.321058 0.264418
Si Si3 0.207571 0.695634 0.189983
Si Si4 0.397929 0.980482 0.832868
O O1 0.885593 0.579689 0.131092
O O2 0.000000 0.745328 0.166667
O O3 0.845461 0.690922 0.000000
O O4 0.971932 0.648929 0.918046
O O5 0.582612 0.417389 0.333334
O O6 0.581496 0.290748 0.166667
O O7 0.493730 0.258964 0.398740
O O8 0.455554 0.328459 0.161289
O O9 0.262173 0.737828 0.333334
O O10 0.197621 0.598811 0.166667
O O11 0.500000 0.000000 0.789573
O O12 0.401211 0.000000 0.000000
#
# Coordination Sequence:
#
# PCOD9584125 Si02
#       4
#    12  12  12  12
#     4  11  26  43  66  94 133 178 233 284 349 416
#     4  12  23  37  57  86 124 171 222 275 322 380
#     4  11  23  37  57  89 131 174 226 271 327 387
#     4  11  23  40  60  87 131 178 228 279 333 391
#
# _framework density 19.967485
#
# number of rings (size 3 to 8) (size 9 to 14) (size 15 to 20)
#    0.000    0.750    2.500    7.500    7.000    0.000 
#    0.000    0.000    0.000    0.000    0.000    0.000 
#    0.000   72.000    0.000    0.000    0.000    0.000 
#
# Total GULP energy -267513.854873 kJ/mol
# GULP energy per Si atom -5573.205310 kJ/mol
# Density = 1.992204 g / cm^3
# Si number density = 19.967485 Si / 1000 Ang^3
#
#
#
# Elastic Constant Matrix: (Units=GPa)
#
#
# Indices 1 2 3 4 5 6 
#
# 1 93.2913 40.1677 46.1485 0.0000 0.0000 0.0000
# 2 40.1677 93.2913 46.1485 0.0000 0.0000 0.0000
# 3 46.1485 46.1485 110.0583 0.0000 0.0000 0.0000
# 4 0.0000 0.0000 0.0000 26.1455 0.0000 0.0000
# 5 0.0000 0.0000 0.0000 0.0000 26.1455 0.0000
# 6 0.0000 0.0000 0.0000 0.0000 0.0000 26.5618
#
#
#
# Elastic Compliance Matrix: (Units=1/GPa)
#
#
# Indices 1 2 3 4 5 6 
#
# 1 0.014689 -0.004135 -0.004425 0.000000 0.000000 0.000000
# 2 -0.004135 0.014689 -0.004425 0.000000 0.000000 0.000000
# 3 -0.004425 -0.004425 0.012797 0.000000 0.000000 0.000000
# 4 0.000000 0.000000 0.000000 0.038248 0.000000 0.000000
# 5 0.000000 0.000000 0.000000 0.000000 0.038248 0.000000
# 6 0.000000 0.000000 0.000000 0.000000 0.000000 0.037648
#
#
# Mechanical properties :
#
#
# Convention : Reuss Voigt Hill
#
# Bulk Modulus (GPa) = 61.71619 62.39669 62.05644
# Shear Modulus (GPa) = 26.63975 26.71563 26.67769
#
# Velocity S-wave (km/s) = 3.65657 3.66178 3.65918
# Velocity P-wave (km/s) = 6.98590 7.01392 6.99993
#
# Compressibility (1/GPa) = 0.01620320
#
# Stress axis : x y z
#
# Youngs Moduli (GPa) = 68.07992 68.07992 78.14319
#
# Poissons Ratio (x) = 0.28154 0.34579
# Poissons Ratio (y) = 0.28154 0.34579
# Poissons Ratio (z) = 0.30126 0.30126
#
# Static dielectric constant tensor:
#      x y z
#    x 2.147740 0.000000 0.000000 
#    y 0.000000 2.147740 0.000000 
#    z 0.000000 0.000000 1.687790 
# 
# From -- ./inp_files/2632.got.cif
#   From: 2010.05.17/outbox.cif.g08.bks.cpg/sg180_2_cif.got.tgz:2632.got - 2010.05.20 11:43:55.
