data_PCOD9584166
_publ_section_title
;
Structure prediction by ZEFSAII (Michael W. Deem and Ramdas Pophale) SiO2 
 PCOD9584166
Probable space group: P 62 2 2
;
_chemical_formula_sum "Si O2"
_cell_formula_units_Z 15
_cell_length_a 7.257798
_cell_length_b 7.257798
_cell_length_c 13.032174
_cell_angle_alpha 90.000000
_cell_angle_beta 90.000000
_cell_angle_gamma 120.000000
_cell_volume 594.507387
_symmetry_space_group_name_H-M "P 62 2 2"
_symmetry_group_IT_number 180
_symmetry_cell_setting 'hexagonal'
loop_
_space_group_symop_operation_xyz
x,y,z
x-y,x,1/3+z
-y,x-y,2/3+z
-x,-y,z
-x+y,-x,1/3+z
y,-x+y,2/3+z
x-y,-y,-z
-x,-x+y,1/3-z
y,x,2/3-z
-y,-x,2/3-z
-x+y,y,-z
x,x-y,1/3-z
loop_
_atom_site_type_symbol
_atom_site_label
_atom_site_fract_x
_atom_site_fract_y
_atom_site_fract_z
Si Si1 0.000000 0.000000 0.166667
Si Si2 0.821484 0.294243 0.561034
O O1 0.859686 0.780883 0.230223
O O2 0.605457 0.210914 0.500000
O O3 0.794196 0.397098 0.666667
O O4 0.000000 0.500000 0.499753
#
# Coordination Sequence:
#
# PCOD9584166 Si02
#       2
#     3  12
#     4  12  26  54  82 112 168 222 262 350 414 488
#     4  11  26  51  78 118 160 211 272 336 416 492
#
# _framework density 25.230972999999999
#
# number of rings (size 3 to 8) (size 9 to 14) (size 15 to 20)
#    0.000    0.800    4.000    1.200    0.000   12.800 
#    0.000    0.000    0.000    0.000    0.000    0.000 
#    0.000    0.000    0.000    0.000    0.000    0.000 
#
# Total GULP energy -83535.609307 kJ/mol
# GULP energy per Si atom -5569.040620 kJ/mol
# Density = 2.517355 g / cm^3
# Si number density = 25.230973 Si / 1000 Ang^3
#
#
#
# Elastic Constant Matrix: (Units=GPa)
#
#
# Indices 1 2 3 4 5 6 
#
# 1 252.7887 110.2168 90.8891 0.0000 0.0000 0.0000
# 2 110.2168 252.7887 90.8891 0.0000 0.0000 0.0000
# 3 90.8891 90.8891 128.7453 0.0000 0.0000 0.0000
# 4 0.0000 0.0000 0.0000 -46.3928 0.0000 0.0000
# 5 0.0000 0.0000 0.0000 0.0000 -46.3928 0.0000
# 6 0.0000 0.0000 0.0000 0.0000 0.0000 71.2859
#
#
#
# Elastic Compliance Matrix: (Units=1/GPa)
#
#
# Indices 1 2 3 4 5 6 
#
# 1 0.005638 -0.001376 -0.003008 0.000000 0.000000 0.000000
# 2 -0.001376 0.005638 -0.003008 0.000000 0.000000 0.000000
# 3 -0.003008 -0.003008 0.012015 0.000000 0.000000 0.000000
# 4 0.000000 0.000000 0.000000 -0.021555 0.000000 0.000000
# 5 0.000000 0.000000 0.000000 0.000000 -0.021555 0.000000
# 6 0.000000 0.000000 0.000000 0.000000 0.000000 0.014028
#
#
# Mechanical properties :
#
#
# Convention : Reuss Voigt Hill
#
# Bulk Modulus (GPa) = 117.59023 135.36810 126.47917
# Shear Modulus (GPa) = 422.71960 18.52188 220.62074
#
# Velocity S-wave (km/s) = 12.95776 2.71235 9.36110
# Velocity P-wave (km/s) = 16.44926 7.97353 12.92585
#
# Compressibility (1/GPa) = 0.00850411
#
# Stress axis : x y z
#
# Youngs Moduli (GPa) = 177.38073 177.38073 83.23174
#
# Poissons Ratio (x) = 0.24415 0.25038
# Poissons Ratio (y) = 0.24415 0.25038
# Poissons Ratio (z) = 0.53360 0.53360
#
# Static dielectric constant tensor:
#      x y z
#    x 2.251640 0.000000 0.000000 
#    y 0.000000 2.251640 0.000000 
#    z 0.000000 0.000000 2.100860 
# 
# From -- ./inp_files/3542.got.cif
#   From: 2010.05.17/outbox.cif.g08.bks.cpg/sg180_2_cif.got.tgz:3542.got - 2010.05.20 11:43:55.
