data_PCOD9584067
_publ_section_title
;
Structure prediction by ZEFSAII (Michael W. Deem and Ramdas Pophale) SiO2 
 PCOD9584067
Probable space group: P 62 2 2
;
_chemical_formula_sum "Si O2"
_cell_formula_units_Z 96
_cell_length_a 14.288520
_cell_length_b 14.288520
_cell_length_c 29.610787
_cell_angle_alpha 90.000000
_cell_angle_beta 90.000000
_cell_angle_gamma 120.000000
_cell_volume 5235.462776
_symmetry_space_group_name_H-M "P 62 2 2"
_symmetry_group_IT_number 180
_symmetry_cell_setting 'hexagonal'
loop_
_space_group_symop_operation_xyz
x,y,z
x-y,x,1/3+z
-y,x-y,2/3+z
-x,-y,z
-x+y,-x,1/3+z
y,-x+y,2/3+z
x-y,-y,-z
-x,-x+y,1/3-z
y,x,2/3-z
-y,-x,2/3-z
-x+y,y,-z
x,x-y,1/3-z
loop_
_atom_site_type_symbol
_atom_site_label
_atom_site_fract_x
_atom_site_fract_y
_atom_site_fract_z
Si Si1 0.229667 0.804132 0.581986
Si Si2 0.392911 0.001399 0.367071
Si Si3 0.448749 0.237452 0.221379
Si Si4 0.780234 0.559004 0.937797
Si Si5 0.981695 0.383401 0.930913
Si Si6 0.343310 0.685154 0.949211
Si Si7 0.327724 0.455706 0.842010
Si Si8 0.613290 0.612844 0.278680
O O1 0.307423 0.760134 0.599430
O O2 0.236449 0.812713 0.528569
O O3 0.111960 0.716540 0.597310
O O4 0.286778 0.923021 0.603357
O O5 0.287680 0.882500 0.363439
O O6 0.425205 0.049853 0.317029
O O7 0.500000 0.000000 0.385428
O O8 0.453302 0.226651 0.166667
O O9 0.566499 0.306505 0.244876
O O10 0.390200 0.296148 0.246669
O O11 0.401097 0.115495 0.238675
O O12 0.907884 0.620824 0.929635
O O13 0.749726 0.438332 0.951657
O O14 0.721614 0.554286 0.890721
O O15 0.000000 0.500000 0.914553
O O16 0.367050 0.734100 0.000000
O O17 0.382391 0.382391 0.833334
O O18 0.422403 0.577598 0.833334
O O19 0.500000 0.500000 0.271134
O O20 0.626590 0.626590 0.333334
#
# Coordination Sequence:
#
# PCOD9584067 Si02
#       8
#    12  12  12  12  12  12  12  12
#     4  12  23  36  65  88 125 168 206 252 312 367
#     4  11  20  37  61  98 125 156 199 257 312 375
#     4  12  28  44  59  91 133 173 219 267 313 372
#     4  12  23  36  61  91 126 161 201 242 311 382
#     4  11  24  39  61  86 128 166 202 249 317 374
#     4  12  22  37  61  92 128 167 209 255 309 377
#     4  11  22  38  55  90 128 162 197 250 308 372
#     4  11  24  43  67  92 122 170 226 267 310 380
#
# _framework density 18.336487000000002
#
# number of rings (size 3 to 8) (size 9 to 14) (size 15 to 20)
#    0.000    0.500    6.250    3.375    3.500    0.500 
#    0.000    0.000    0.000    0.750    0.000    4.375 
#    0.000    0.000    0.000    0.000    0.000    0.000 
#
# Total GULP energy -535729.610319 kJ/mol
# GULP energy per Si atom -5580.516774 kJ/mol
# Density = 1.829475 g / cm^3
# Si number density = 18.336487 Si / 1000 Ang^3
#
#
#
# Elastic Constant Matrix: (Units=GPa)
#
#
# Indices 1 2 3 4 5 6 
#
# 1 97.4451 39.4149 32.0516 0.0000 0.0000 0.0000
# 2 39.4149 97.4451 32.0516 0.0000 0.0000 0.0000
# 3 32.0516 32.0516 128.0772 0.0000 0.0000 0.0000
# 4 0.0000 0.0000 0.0000 26.9817 0.0000 0.0000
# 5 0.0000 0.0000 0.0000 0.0000 26.9817 0.0000
# 6 0.0000 0.0000 0.0000 0.0000 0.0000 29.0151
#
#
#
# Elastic Compliance Matrix: (Units=1/GPa)
#
#
# Indices 1 2 3 4 5 6 
#
# 1 0.012755 -0.004478 -0.002071 0.000000 0.000000 0.000000
# 2 -0.004478 0.012755 -0.002071 0.000000 0.000000 0.000000
# 3 -0.002071 -0.002071 0.008844 0.000000 0.000000 0.000000
# 4 0.000000 0.000000 0.000000 0.037062 0.000000 0.000000
# 5 0.000000 0.000000 0.000000 0.000000 0.037062 0.000000
# 6 0.000000 0.000000 0.000000 0.000000 0.000000 0.034465
#
#
# Mechanical properties :
#
#
# Convention : Reuss Voigt Hill
#
# Bulk Modulus (GPa) = 58.43491 58.88927 58.66209
# Shear Modulus (GPa) = 30.14080 31.22565 30.68323
#
# Velocity S-wave (km/s) = 4.05873 4.13113 4.09509
# Velocity P-wave (km/s) = 7.34178 7.41219 7.37707
#
# Compressibility (1/GPa) = 0.01711306
#
# Stress axis : x y z
#
# Youngs Moduli (GPa) = 78.40266 78.40266 113.06468
#
# Poissons Ratio (x) = 0.35107 0.23419
# Poissons Ratio (y) = 0.35107 0.23419
# Poissons Ratio (z) = 0.16240 0.16240
#
# Static dielectric constant tensor:
#      x y z
#    x 1.649210 0.000000 0.000000 
#    y 0.000000 1.649210 0.000000 
#    z 0.000000 0.000000 1.687690 
# 
# From -- ./inp_files/12479.got.cif
#   From: 2010.05.17/outbox.cif.g08.bks.cpg/sg180_7_cif.got.tgz:12479.got - 2010.05.20 11:43:55.
