data_PCOD9584393
_publ_section_title
;
Structure prediction by ZEFSAII (Michael W. Deem and Ramdas Pophale) SiO2 
 PCOD9584393
Probable space group: P 64 2 2
;
_chemical_formula_sum "Si O2"
_cell_formula_units_Z 60
_cell_length_a 14.118405
_cell_length_b 14.118405
_cell_length_c 15.392565
_cell_angle_alpha 90.000000
_cell_angle_beta 90.000000
_cell_angle_gamma 120.000000
_cell_volume 2657.130593
_symmetry_space_group_name_H-M "P 64 2 2"
_symmetry_group_IT_number 181
_symmetry_cell_setting 'hexagonal'
loop_
_space_group_symop_operation_xyz
x,y,z
x-y,x,2/3+z
-y,x-y,1/3+z
-x,-y,z
-x+y,-x,2/3+z
y,-x+y,1/3+z
x-y,-y,-z
-x,-x+y,2/3-z
y,x,1/3-z
-y,-x,1/3-z
-x+y,y,-z
x,x-y,2/3-z
loop_
_atom_site_type_symbol
_atom_site_label
_atom_site_fract_x
_atom_site_fract_y
_atom_site_fract_z
Si Si1 0.861587 0.225192 0.013268
Si Si2 0.380259 0.453979 0.016447
Si Si3 0.206678 0.337760 0.152357
Si Si4 0.341298 0.744175 0.256311
Si Si5 0.005423 0.135707 0.584431
O O1 0.781757 0.251019 0.067447
O O2 0.890469 0.135447 0.045623
O O3 0.821499 0.202687 0.913683
O O4 0.979917 0.336416 0.015820
O O5 0.500000 0.500000 0.059785
O O6 0.284310 0.430429 0.084196
O O7 0.392979 0.540909 0.943277
O O8 0.268635 0.268635 0.166667
O O9 0.089500 0.248485 0.116530
O O10 0.319389 0.680612 0.166667
O O11 0.325880 0.662940 0.333334
O O12 0.945604 0.054397 0.666667
O O13 0.052602 0.105204 0.500000
#
# Coordination Sequence:
#
# PCOD9584393 Si02
#       5
#    12  12  12  12  12
#     4  10  23  45  67  99 145 187 238 298 369 452
#     4   9  20  38  69 100 138 184 238 304 367 430
#     4  10  21  41  67 105 139 180 240 300 367 434
#     4  11  26  42  67 107 142 186 238 304 372 445
#     4  12  25  45  69 102 146 201 247 308 366 444
#
# _framework density 22.580749000000001
#
# number of rings (size 3 to 8) (size 9 to 14) (size 15 to 20)
#    0.000    1.600    4.000    0.600    5.600    9.600 
#    3.600    0.000    0.000   12.600    0.000    0.000 
#    0.000    0.000    0.000    0.000    0.000    0.000 
#
# Total GULP energy -335134.272567 kJ/mol
# GULP energy per Si atom -5585.571209 kJ/mol
# Density = 2.252935 g / cm^3
# Si number density = 22.580749 Si / 1000 Ang^3
#
#
#
# Elastic Constant Matrix: (Units=GPa)
#
#
# Indices 1 2 3 4 5 6 
#
# 1 72.9747 32.0957 47.8561 0.0000 0.0000 0.0000
# 2 32.0957 72.9747 47.8561 0.0000 0.0000 0.0000
# 3 47.8561 47.8561 172.1297 0.0000 0.0000 0.0000
# 4 0.0000 0.0000 0.0000 28.5321 0.0000 0.0000
# 5 0.0000 0.0000 0.0000 0.0000 28.5321 0.0000
# 6 0.0000 0.0000 0.0000 0.0000 0.0000 20.4395
#
#
#
# Elastic Compliance Matrix: (Units=1/GPa)
#
#
# Indices 1 2 3 4 5 6 
#
# 1 0.018604 -0.005859 -0.003544 0.000000 0.000000 0.000000
# 2 -0.005859 0.018604 -0.003544 0.000000 0.000000 0.000000
# 3 -0.003544 -0.003544 0.007780 0.000000 0.000000 0.000000
# 4 0.000000 0.000000 0.000000 0.035048 0.000000 0.000000
# 5 0.000000 0.000000 0.000000 0.000000 0.035048 0.000000
# 6 0.000000 0.000000 0.000000 0.000000 0.000000 0.048925
#
#
# Mechanical properties :
#
#
# Convention : Reuss Voigt Hill
#
# Bulk Modulus (GPa) = 52.36541 63.74388 58.05464
# Shear Modulus (GPa) = 25.47568 28.18548 26.83058
#
# Velocity S-wave (km/s) = 3.36252 3.53683 3.45078
# Velocity P-wave (km/s) = 6.18999 6.70593 6.45312
#
# Compressibility (1/GPa) = 0.01909658
#
# Stress axis : x y z
#
# Youngs Moduli (GPa) = 53.75227 53.75227 128.53590
#
# Poissons Ratio (x) = 0.31491 0.45547
# Poissons Ratio (y) = 0.31491 0.45547
# Poissons Ratio (z) = 0.19047 0.19047
#
# Static dielectric constant tensor:
#      x y z
#    x 1.891290 0.000000 0.000000 
#    y 0.000000 1.891290 0.000000 
#    z 0.000000 0.000000 1.872940 
# 
# From -- ./inp_files/6128.got.cif
#   From: 2010.05.17/outbox.cif.g08.bks.cpg/sg181_4_cif.got.tgz:6128.got - 2010.05.20 11:51:17.
