data_PCOD9584062
_publ_section_title
;
Structure prediction by ZEFSAII (Michael W. Deem and Ramdas Pophale) SiO2 
 PCOD9584062
Probable space group: P 62 2 2
;
_chemical_formula_sum "Si O2"
_cell_formula_units_Z 72
_cell_length_a 17.766642
_cell_length_b 17.766642
_cell_length_c 17.442002
_cell_angle_alpha 90.000000
_cell_angle_beta 90.000000
_cell_angle_gamma 120.000000
_cell_volume 4768.015586
_symmetry_space_group_name_H-M "P 62 2 2"
_symmetry_group_IT_number 180
_symmetry_cell_setting 'hexagonal'
loop_
_space_group_symop_operation_xyz
x,y,z
x-y,x,1/3+z
-y,x-y,2/3+z
-x,-y,z
-x+y,-x,1/3+z
y,-x+y,2/3+z
x-y,-y,-z
-x,-x+y,1/3-z
y,x,2/3-z
-y,-x,2/3-z
-x+y,y,-z
x,x-y,1/3-z
loop_
_atom_site_type_symbol
_atom_site_label
_atom_site_fract_x
_atom_site_fract_y
_atom_site_fract_z
Si Si1 0.002873 0.414658 0.574939
Si Si2 0.511952 0.176773 0.853819
Si Si3 0.490835 0.659286 0.658318
Si Si4 0.593155 0.588986 0.745498
Si Si5 0.310068 0.505968 0.430209
Si Si6 0.308816 0.801281 0.620601
O O1 0.097069 0.428883 0.555713
O O2 0.000000 0.500000 0.546118
O O3 0.000000 0.415083 0.666667
O O4 0.911780 0.337253 0.545423
O O5 0.526604 0.164875 0.765179
O O6 0.595223 0.188401 0.902066
O O7 0.505367 0.261292 0.874611
O O8 0.514977 0.757489 0.666667
O O9 0.567400 0.646276 0.692661
O O10 0.399245 0.597387 0.700962
O O11 0.500000 0.500000 0.749333
O O12 0.618713 0.618713 0.833334
O O13 0.662178 0.564878 0.710965
O O14 0.256407 0.512814 0.500000
O O15 0.256317 0.497403 0.353599
#
# Coordination Sequence:
#
# PCOD9584062 Si02
#       6
#    12  12  12  12  12  12
#     4   9  18  31  45  61  93 125 152 189 242 289
#     4  11  21  32  48  68  94 125 162 200 241 287
#     4  11  22  33  49  68  90 123 165 203 239 284
#     4   9  20  36  49  64  90 122 156 199 244 282
#     4  11  20  30  46  70  93 124 158 201 238 281
#     4  11  21  32  49  68  94 121 161 203 246 278
#
# _framework density 15.100621
#
# number of rings (size 3 to 8) (size 9 to 14) (size 15 to 20)
#    0.000    1.667    3.333    2.500    2.333    3.333 
#    0.000    0.000    0.000    0.000    0.000    0.000 
#    0.000    0.000    0.000    3.000    3.000    1.000 
#
# Total GULP energy -401263.644263 kJ/mol
# GULP energy per Si atom -5573.106170 kJ/mol
# Density = 1.506625 g / cm^3
# Si number density = 15.100621 Si / 1000 Ang^3
#
#
#
# Elastic Constant Matrix: (Units=GPa)
#
#
# Indices 1 2 3 4 5 6 
#
# 1 79.0166 44.1985 24.1823 0.0000 0.0000 0.0000
# 2 44.1985 79.0166 24.1823 0.0000 0.0000 0.0000
# 3 24.1823 24.1823 60.0898 0.0000 0.0000 0.0000
# 4 0.0000 0.0000 0.0000 18.9459 0.0000 0.0000
# 5 0.0000 0.0000 0.0000 0.0000 18.9459 0.0000
# 6 0.0000 0.0000 0.0000 0.0000 0.0000 17.4090
#
#
#
# Elastic Compliance Matrix: (Units=1/GPa)
#
#
# Indices 1 2 3 4 5 6 
#
# 1 0.019180 -0.009541 -0.003879 0.000000 0.000000 0.000000
# 2 -0.009541 0.019180 -0.003879 0.000000 0.000000 0.000000
# 3 -0.003879 -0.003879 0.019764 0.000000 0.000000 0.000000
# 4 0.000000 0.000000 0.000000 0.052782 0.000000 0.000000
# 5 0.000000 0.000000 0.000000 0.000000 0.052782 0.000000
# 6 0.000000 0.000000 0.000000 0.000000 0.000000 0.057441
#
#
# Mechanical properties :
#
#
# Convention : Reuss Voigt Hill
#
# Bulk Modulus (GPa) = 42.50768 44.80551 43.65659
# Shear Modulus (GPa) = 18.97048 19.43083 19.20066
#
# Velocity S-wave (km/s) = 3.54824 3.59103 3.56970
# Velocity P-wave (km/s) = 6.70801 6.85053 6.77964
#
# Compressibility (1/GPa) = 0.02352516
#
# Stress axis : x y z
#
# Youngs Moduli (GPa) = 52.13884 52.13884 50.59772
#
# Poissons Ratio (x) = 0.49746 0.19626
# Poissons Ratio (y) = 0.49746 0.19626
# Poissons Ratio (z) = 0.20224 0.20224
#
# Static dielectric constant tensor:
#      x y z
#    x 1.518990 0.000000 0.000000 
#    y 0.000000 1.518990 0.000000 
#    z 0.000000 0.000000 1.563410 
# 
# From -- ./inp_files/7890.got.cif
#   From: 2010.05.17/outbox.cif.g08.bks.cpg/sg180_4_cif.got.tgz:7890.got - 2010.05.20 11:43:55.
