data_PCOD9584964
_publ_section_title
;
Structure prediction by ZEFSAII (Michael W. Deem and Ramdas Pophale) SiO2 
 PCOD9584964
Probable space group: P 6 M M
;
_chemical_formula_sum "Si O2"
_cell_formula_units_Z 72
_cell_length_a 21.378017
_cell_length_b 21.378017
_cell_length_c 11.985057
_cell_angle_alpha 90.000000
_cell_angle_beta 90.000000
_cell_angle_gamma 120.000000
_cell_volume 4743.572817
_symmetry_space_group_name_H-M "P 6 M M"
_symmetry_group_IT_number 183
_symmetry_cell_setting 'hexagonal'
loop_
_space_group_symop_operation_xyz
x,y,z
x-y,x,z
-y,x-y,z
-x,-y,z
-x+y,-x,z
y,-x+y,z
-x+y,y,z
x,x-y,z
-y,-x,z
y,x,z
x-y,-y,z
-x,-x+y,z
loop_
_atom_site_type_symbol
_atom_site_label
_atom_site_fract_x
_atom_site_fract_y
_atom_site_fract_z
Si Si1 0.381682 0.913254 0.282200
Si Si2 0.545922 0.699754 0.505200
Si Si3 0.693467 0.917131 0.641347
Si Si4 0.341339 0.912297 0.032971
Si Si5 0.456345 0.912690 0.883672
Si Si6 0.304843 0.221565 0.900890
Si Si7 0.455887 0.911774 0.620590
O O1 0.450438 0.900876 0.289468
O O2 0.324114 0.870175 0.378011
O O3 0.346936 0.891919 0.159401
O O4 0.415764 0.000000 0.296832
O O5 0.523204 0.761602 0.513835
O O6 0.624678 0.734611 0.561870
O O7 0.497527 0.623841 0.568140
O O8 0.722237 0.861119 0.628092
O O9 0.670217 0.912013 0.771691
O O10 0.750921 0.000000 0.619259
O O11 0.386955 0.000000 0.030958
O O12 0.381996 0.886113 0.948923
O O13 0.264456 0.892479 0.983351
O O14 0.449212 0.898423 0.752921
O O15 0.500000 0.000000 0.893523
O O16 0.274015 0.137008 0.912275
O O17 0.247775 0.247775 0.922402
O O18 0.500000 0.000000 0.600519
#
# Coordination Sequence:
#
# PCOD9584964 Si02
#       7
#    12  12  12  12   6  12   6
#     4  10  18  31  50  69  94 126 163 202 237 282
#     4  11  22  33  46  71  99 126 164 202 246 289
#     4   9  17  30  48  70  99 127 158 199 243 292
#     4   9  16  27  45  71  98 121 150 194 244 282
#     4   9  16  27  47  75  99 118 151 201 241 281
#     4   9  17  29  46  69  96 127 158 196 246 292
#     4  11  20  33  55  75  93 124 167 205 243 293
#
# _framework density 15.178433
#
# number of rings (size 3 to 8) (size 9 to 14) (size 15 to 20)
#    0.000    2.333    1.667    2.500    0.000    3.333 
#    0.500    0.000    0.000    0.333    0.000    2.333 
#    0.833    0.000    0.000    0.000    0.000   21.667 
#
# Total GULP energy -401033.688531 kJ/mol
# GULP energy per Si atom -5569.912341 kJ/mol
# Density = 1.514389 g / cm^3
# Si number density = 15.178433 Si / 1000 Ang^3
#
#
#
# Elastic Constant Matrix: (Units=GPa)
#
#
# Indices 1 2 3 4 5 6 
#
# 1 89.3561 55.3128 52.2122 0.0000 0.0000 0.0000
# 2 55.3128 89.3561 52.2122 0.0000 0.0000 0.0000
# 3 52.2122 52.2122 101.3737 0.0000 0.0000 0.0000
# 4 0.0000 0.0000 0.0000 15.7303 0.0000 0.0000
# 5 0.0000 0.0000 0.0000 0.0000 15.7303 0.0000
# 6 0.0000 0.0000 0.0000 0.0000 0.0000 17.0217
#
#
#
# Elastic Compliance Matrix: (Units=1/GPa)
#
#
# Indices 1 2 3 4 5 6 
#
# 1 0.020189 -0.009186 -0.005667 0.000000 0.000000 0.000000
# 2 -0.009186 0.020189 -0.005667 0.000000 0.000000 0.000000
# 3 -0.005667 -0.005667 0.015702 0.000000 0.000000 0.000000
# 4 0.000000 0.000000 0.000000 0.063572 0.000000 0.000000
# 5 0.000000 0.000000 0.000000 0.000000 0.063572 0.000000
# 6 0.000000 0.000000 0.000000 0.000000 0.000000 0.058749
#
#
# Mechanical properties :
#
#
# Convention : Reuss Voigt Hill
#
# Bulk Modulus (GPa) = 66.49031 66.61783 66.55407
# Shear Modulus (GPa) = 17.35966 17.71968 17.53967
#
# Velocity S-wave (km/s) = 3.38554 3.42047 3.40305
# Velocity P-wave (km/s) = 7.69307 7.71910 7.70610
#
# Compressibility (1/GPa) = 0.01503978
#
# Stress axis : x y z
#
# Youngs Moduli (GPa) = 49.53291 49.53291 63.68607
#
# Poissons Ratio (x) = 0.45500 0.36091
# Poissons Ratio (y) = 0.45500 0.36091
# Poissons Ratio (z) = 0.28070 0.28070
#
# Static dielectric constant tensor:
#      x y z
#    x 1.496580 0.000000 0.000000 
#    y 0.000000 1.496580 0.000000 
#    z 0.000000 0.000000 1.515210 
# 
# From -- ./inp_files/1677.got.cif
#   From: 2010.05.17/outbox.cif.g08.bks.cpg/sg183_1_cif.got.tgz:1677.got - 2010.05.20 12:02:58.
