data_PCOD9584943
_publ_section_title
;
Structure prediction by ZEFSAII (Michael W. Deem and Ramdas Pophale) SiO2 
 PCOD9584943
Probable space group: P 6 M M
;
_chemical_formula_sum "Si O2"
_cell_formula_units_Z 96
_cell_length_a 25.023440
_cell_length_b 25.023440
_cell_length_c 11.588932
_cell_angle_alpha 90.000000
_cell_angle_beta 90.000000
_cell_angle_gamma 120.000000
_cell_volume 6284.461516
_symmetry_space_group_name_H-M "P 6 M M"
_symmetry_group_IT_number 183
_symmetry_cell_setting 'hexagonal'
loop_
_space_group_symop_operation_xyz
x,y,z
x-y,x,z
-y,x-y,z
-x,-y,z
-x+y,-x,z
y,-x+y,z
-x+y,y,z
x,x-y,z
-y,-x,z
y,x,z
x-y,-y,z
-x,-x+y,z
loop_
_atom_site_type_symbol
_atom_site_label
_atom_site_fract_x
_atom_site_fract_y
_atom_site_fract_z
Si Si1 0.263974 0.193213 0.793750
Si Si2 0.930819 0.294330 0.956770
Si Si3 0.209044 0.543901 0.027828
Si Si4 0.276695 0.427438 0.173010
Si Si5 0.194589 0.265899 0.517316
Si Si6 0.925864 0.523784 0.583234
Si Si7 0.073569 0.382987 0.405069
Si Si8 0.387588 0.896016 0.845806
O O1 0.247846 0.123923 0.823311
O O2 0.211948 0.211948 0.820408
O O3 0.325312 0.242206 0.861576
O O4 0.274678 0.201031 0.656002
O O5 0.929046 0.352533 0.900183
O O6 0.000000 0.319128 0.999915
O O7 0.884174 0.268872 0.063092
O O8 0.270212 0.540423 0.012679
O O9 0.223291 0.611646 0.057980
O O10 0.169341 0.495463 0.127469
O O11 0.169555 0.523425 0.910338
O O12 0.212962 0.425924 0.196921
O O13 0.298285 0.406895 0.285068
O O14 0.125231 0.250462 0.486926
O O15 0.214670 0.214670 0.489004
O O16 0.245085 0.329584 0.458195
O O17 0.913982 0.456991 0.541836
O O18 0.907667 0.560930 0.494508
O O19 0.894986 0.514697 0.708399
O O20 0.000000 0.565401 0.602096
O O21 0.000000 0.351445 0.387520
O O22 0.460974 0.921947 0.867378
#
# Coordination Sequence:
#
# PCOD9584943 Si02
#       8
#    12  12  12  12  12  12  12  12
#     4   9  17  29  46  68  92 118 149 185 225 269
#     4  10  18  28  44  65  89 117 145 176 217 264
#     4   9  18  32  49  66  84 110 145 185 226 265
#     4  10  20  32  44  61  86 114 145 182 221 259
#     4   9  17  29  46  67  90 117 149 185 224 268
#     4   9  17  29  45  64  88 118 147 176 213 260
#     4  10  19  31  46  64  88 119 152 183 217 261
#     4   9  17  29  45  67  92 115 142 177 218 264
#
# _framework density 15.275772
#
# number of rings (size 3 to 8) (size 9 to 14) (size 15 to 20)
#    0.000    2.625    0.000    2.375    0.000    3.750 
#    0.000    1.250    0.000    2.500    0.000    1.750 
#    0.000    5.000    0.000    0.000    0.000   26.000 
#
# Total GULP energy -534547.678279 kJ/mol
# GULP energy per Si atom -5568.204982 kJ/mol
# Density = 1.524100 g / cm^3
# Si number density = 15.275772 Si / 1000 Ang^3
#
#
#
# Elastic Constant Matrix: (Units=GPa)
#
#
# Indices 1 2 3 4 5 6 
#
# 1 79.9862 48.9169 44.7726 0.0000 0.0000 0.0000
# 2 48.9169 79.9862 44.7726 0.0000 0.0000 0.0000
# 3 44.7726 44.7726 73.9148 0.0000 0.0000 0.0000
# 4 0.0000 0.0000 0.0000 16.1691 0.0000 0.0000
# 5 0.0000 0.0000 0.0000 0.0000 16.1691 0.0000
# 6 0.0000 0.0000 0.0000 0.0000 0.0000 15.5347
#
#
#
# Elastic Compliance Matrix: (Units=1/GPa)
#
#
# Indices 1 2 3 4 5 6 
#
# 1 0.022790 -0.009396 -0.008113 0.000000 0.000000 0.000000
# 2 -0.009396 0.022790 -0.008113 0.000000 0.000000 0.000000
# 3 -0.008113 -0.008113 0.023358 0.000000 0.000000 0.000000
# 4 0.000000 0.000000 0.000000 0.061847 0.000000 0.000000
# 5 0.000000 0.000000 0.000000 0.000000 0.061847 0.000000
# 6 0.000000 0.000000 0.000000 0.000000 0.000000 0.064372
#
#
# Mechanical properties :
#
#
# Convention : Reuss Voigt Hill
#
# Bulk Modulus (GPa) = 56.51932 56.75683 56.63808
# Shear Modulus (GPa) = 15.91624 15.93623 15.92624
#
# Velocity S-wave (km/s) = 3.23139 3.23342 3.23241
# Velocity P-wave (km/s) = 7.14158 7.15370 7.14764
#
# Compressibility (1/GPa) = 0.01769306
#
# Stress axis : x y z
#
# Youngs Moduli (GPa) = 43.87922 43.87922 42.81254
#
# Poissons Ratio (x) = 0.41230 0.34734
# Poissons Ratio (y) = 0.41230 0.34734
# Poissons Ratio (z) = 0.35599 0.35599
#
# Static dielectric constant tensor:
#      x y z
#    x 1.511910 0.000000 0.000000 
#    y 0.000000 1.511910 0.000000 
#    z 0.000000 0.000000 1.479780 
# 
# From -- ./inp_files/2026.got.cif
#   From: 2010.05.17/outbox.cif.g08.bks.cpg/sg183_2_cif.got.tgz:2026.got - 2010.05.20 12:02:58.
