data_PCOD9584199
_publ_section_title
;
Structure prediction by ZEFSAII (Michael W. Deem and Ramdas Pophale) SiO2 
 PCOD9584199
Probable space group: P 64 2 2
;
_chemical_formula_sum "Si O2"
_cell_formula_units_Z 51
_cell_length_a 11.378923
_cell_length_b 11.378923
_cell_length_c 23.477505
_cell_angle_alpha 90.000000
_cell_angle_beta 90.000000
_cell_angle_gamma 120.000000
_cell_volume 2632.600083
_symmetry_space_group_name_H-M "P 64 2 2"
_symmetry_group_IT_number 181
_symmetry_cell_setting 'hexagonal'
loop_
_space_group_symop_operation_xyz
x,y,z
x-y,x,2/3+z
-y,x-y,1/3+z
-x,-y,z
-x+y,-x,2/3+z
y,-x+y,1/3+z
x-y,-y,-z
-x,-x+y,2/3-z
y,x,1/3-z
-y,-x,1/3-z
-x+y,y,-z
x,x-y,2/3-z
loop_
_atom_site_type_symbol
_atom_site_label
_atom_site_fract_x
_atom_site_fract_y
_atom_site_fract_z
Si Si1 0.000000 0.000000 0.000000
Si Si2 0.241604 0.004973 0.402921
Si Si3 0.578426 0.419307 0.897905
Si Si4 0.231818 0.768183 0.666667
Si Si5 0.785179 0.648926 0.824562
Si Si6 0.817904 0.635808 0.500000
O O1 0.976082 0.101909 0.960160
O O2 0.216434 0.871296 0.436211
O O3 0.360820 0.079113 0.356513
O O4 0.287312 0.116217 0.453748
O O5 0.500000 0.500000 0.912038
O O6 0.679102 0.444016 0.948798
O O7 0.669885 0.498905 0.842813
O O8 0.464299 0.268342 0.884245
O O9 0.721654 0.746476 0.817073
#
# Coordination Sequence:
#
# PCOD9584199 Si02
#       6
#     3  12  12   6  12   6
#     4  10  16  22  40  80 106 126 150 200 294 322
#     4   9  17  29  51  78 105 129 165 226 275 319
#     4   9  19  35  53  75 102 145 181 215 262 320
#     4   9  18  35  52  78 111 138 177 218 276 323
#     4   9  17  32  53  75 101 132 179 218 262 319
#     4  10  18  31  54  75 102 142 182 212 258 322
#
# _framework density 19.372482000000002
#
# number of rings (size 3 to 8) (size 9 to 14) (size 15 to 20)
#    0.000    2.824    0.000    1.412    0.000    3.765 
#    4.235    0.000    0.000    0.000    0.000    0.000 
#    0.000    0.000    0.000    0.000    0.000    0.000 
#
# Total GULP energy -284321.527710 kJ/mol
# GULP energy per Si atom -5574.931916 kJ/mol
# Density = 1.932839 g / cm^3
# Si number density = 19.372482 Si / 1000 Ang^3
#
#
#
# Elastic Constant Matrix: (Units=GPa)
#
#
# Indices 1 2 3 4 5 6 
#
# 1 39.4204 5.5359 5.9295 0.0000 0.0000 0.0000
# 2 5.5359 39.4204 5.9295 0.0000 0.0000 0.0000
# 3 5.9295 5.9295 53.3443 0.0000 0.0000 0.0000
# 4 0.0000 0.0000 0.0000 2.6335 0.0000 0.0000
# 5 0.0000 0.0000 0.0000 0.0000 2.6335 0.0000
# 6 0.0000 0.0000 0.0000 0.0000 0.0000 16.9422
#
#
#
# Elastic Compliance Matrix: (Units=1/GPa)
#
#
# Indices 1 2 3 4 5 6 
#
# 1 0.026214 -0.003298 -0.002547 0.000000 0.000000 0.000000
# 2 -0.003298 0.026214 -0.002547 0.000000 0.000000 0.000000
# 3 -0.002547 -0.002547 0.019312 0.000000 0.000000 0.000000
# 4 0.000000 0.000000 0.000000 0.379727 0.000000 0.000000
# 5 0.000000 0.000000 0.000000 0.000000 0.379727 0.000000
# 6 0.000000 0.000000 0.000000 0.000000 0.000000 0.059024
#
#
# Mechanical properties :
#
#
# Convention : Reuss Voigt Hill
#
# Bulk Modulus (GPa) = 18.19669 18.55278 18.37473
# Shear Modulus (GPa) = 5.40353 12.09451 8.74902
#
# Velocity S-wave (km/s) = 1.67193 2.50134 2.12744
# Velocity P-wave (km/s) = 3.62499 4.23555 3.94211
#
# Compressibility (1/GPa) = 0.05495505
#
# Stress axis : x y z
#
# Youngs Moduli (GPa) = 38.14770 38.14770 51.78012
#
# Poissons Ratio (x) = 0.12582 0.13190
# Poissons Ratio (y) = 0.12582 0.13190
# Poissons Ratio (z) = 0.09717 0.09717
#
# Static dielectric constant tensor:
#      x y z
#    x 1.687130 0.000000 0.000000 
#    y 0.000000 1.687130 0.000000 
#    z 0.000000 0.000000 1.697650 
# 
# From -- ./inp_files/8871.got.cif
#   From: 2010.05.17/outbox.cif.g08.bks.cpg/sg181_5_cif.got.tgz:8871.got - 2010.05.20 11:51:17.
