data_PCOD9584379
_publ_section_title
;
Structure prediction by ZEFSAII (Michael W. Deem and Ramdas Pophale) SiO2 
 PCOD9584379
Probable space group: P 64 2 2
;
_chemical_formula_sum "Si O2"
_cell_formula_units_Z 48
_cell_length_a 10.687239
_cell_length_b 10.687239
_cell_length_c 20.194176
_cell_angle_alpha 90.000000
_cell_angle_beta 90.000000
_cell_angle_gamma 120.000000
_cell_volume 1997.504710
_symmetry_space_group_name_H-M "P 64 2 2"
_symmetry_group_IT_number 181
_symmetry_cell_setting 'hexagonal'
loop_
_space_group_symop_operation_xyz
x,y,z
x-y,x,2/3+z
-y,x-y,1/3+z
-x,-y,z
-x+y,-x,2/3+z
y,-x+y,1/3+z
x-y,-y,-z
-x,-x+y,2/3-z
y,x,1/3-z
-y,-x,1/3-z
-x+y,y,-z
x,x-y,2/3-z
loop_
_atom_site_type_symbol
_atom_site_label
_atom_site_fract_x
_atom_site_fract_y
_atom_site_fract_z
Si Si1 0.835492 0.871999 0.905107
Si Si2 0.638783 0.296044 0.904085
Si Si3 0.263486 0.393108 0.070248
Si Si4 0.228666 0.409486 0.319480
O O1 0.786918 0.893459 0.833334
O O2 0.846301 0.728202 0.896335
O O3 0.730092 0.860588 0.965506
O O4 0.000000 0.000000 0.917684
O O5 0.566200 0.283100 0.833334
O O6 0.783269 0.451519 0.898007
O O7 0.534897 0.304608 0.959212
O O8 0.688324 0.183613 0.932308
O O9 0.204532 0.409064 0.000000
O O10 0.366833 0.329055 0.055472
#
# Coordination Sequence:
#
# PCOD9584379 Si02
#       4
#    12  12  12  12
#     4  10  23  42  68  99 138 188 239 287 359 441
#     4  11  23  39  67 106 138 182 244 302 371 424
#     4  10  21  39  68  92 131 189 233 291 349 430
#     4  10  22  41  66  99 142 185 233 304 361 426
#
# _framework density 24.029979000000001
#
# number of rings (size 3 to 8) (size 9 to 14) (size 15 to 20)
#    0.000    1.750    2.500    1.500    3.500   10.500 
#    0.000    0.000    0.000   24.000    0.000    0.000 
#    0.000    0.000    0.000    0.000    0.000    0.000 
#
# Total GULP energy -267620.093040 kJ/mol
# GULP energy per Si atom -5575.418605 kJ/mol
# Density = 2.397529 g / cm^3
# Si number density = 24.029979 Si / 1000 Ang^3
#
#
#
# Elastic Constant Matrix: (Units=GPa)
#
#
# Indices 1 2 3 4 5 6 
#
# 1 79.9990 66.5571 35.7360 0.0000 0.0000 0.0000
# 2 66.5571 79.9990 35.7360 0.0000 0.0000 0.0000
# 3 35.7360 35.7360 102.5098 0.0000 0.0000 0.0000
# 4 0.0000 0.0000 0.0000 37.2228 0.0000 0.0000
# 5 0.0000 0.0000 0.0000 0.0000 37.2228 0.0000
# 6 0.0000 0.0000 0.0000 0.0000 0.0000 6.7209
#
#
#
# Elastic Compliance Matrix: (Units=1/GPa)
#
#
# Indices 1 2 3 4 5 6 
#
# 1 0.041308 -0.033087 -0.002866 0.000000 0.000000 0.000000
# 2 -0.033087 0.041308 -0.002866 0.000000 0.000000 0.000000
# 3 -0.002866 -0.002866 0.011753 0.000000 0.000000 0.000000
# 4 0.000000 0.000000 0.000000 0.026865 0.000000 0.000000
# 5 0.000000 0.000000 0.000000 0.000000 0.026865 0.000000
# 6 0.000000 0.000000 0.000000 0.000000 0.000000 0.148789
#
#
# Mechanical properties :
#
#
# Convention : Reuss Voigt Hill
#
# Bulk Modulus (GPa) = 59.76710 59.84066 59.80388
# Shear Modulus (GPa) = 13.15436 24.53187 18.84312
#
# Velocity S-wave (km/s) = 2.34223 3.19860 2.80331
# Velocity P-wave (km/s) = 5.67808 6.21272 5.95141
#
# Compressibility (1/GPa) = 0.01673161
#
# Stress axis : x y z
#
# Youngs Moduli (GPa) = 24.20859 24.20859 85.08215
#
# Poissons Ratio (x) = 0.80098 0.24384
# Poissons Ratio (y) = 0.80098 0.24384
# Poissons Ratio (z) = 0.06938 0.06938
#
# Static dielectric constant tensor:
#      x y z
#    x 1.969830 0.000000 0.000000 
#    y 0.000000 1.969830 0.000000 
#    z 0.000000 0.000000 1.962390 
# 
# From -- ./inp_files/9896.got.cif
#   From: 2010.05.17/outbox.cif.g08.bks.cpg/sg181_5_cif.got.tgz:9896.got - 2010.05.20 11:51:17.
