data_PCOD9584912
_publ_section_title
;
Structure prediction by ZEFSAII (Michael W. Deem and Ramdas Pophale) SiO2 
 PCOD9584912
Probable space group: P 6 M M
;
_chemical_formula_sum "Si O2"
_cell_formula_units_Z 96
_cell_length_a 23.076135
_cell_length_b 23.076135
_cell_length_c 12.567026
_cell_angle_alpha 90.000000
_cell_angle_beta 90.000000
_cell_angle_gamma 120.000000
_cell_volume 5795.478343
_symmetry_space_group_name_H-M "P 6 M M"
_symmetry_group_IT_number 183
_symmetry_cell_setting 'hexagonal'
loop_
_space_group_symop_operation_xyz
x,y,z
x-y,x,z
-y,x-y,z
-x,-y,z
-x+y,-x,z
y,-x+y,z
-x+y,y,z
x,x-y,z
-y,-x,z
y,x,z
x-y,-y,z
-x,-x+y,z
loop_
_atom_site_type_symbol
_atom_site_label
_atom_site_fract_x
_atom_site_fract_y
_atom_site_fract_z
Si Si1 0.922634 0.707767 0.636240
Si Si2 0.340795 0.073075 0.207800
Si Si3 0.261165 0.877522 0.434242
Si Si4 0.527237 0.605740 0.941012
Si Si5 0.197224 0.664986 0.366969
Si Si6 0.691197 0.514081 0.128670
Si Si7 0.258856 0.386544 0.840456
Si Si8 0.074368 0.272626 0.007899
O O1 0.863408 0.726815 0.625506
O O2 0.911207 0.654960 0.542227
O O3 0.907347 0.666119 0.745769
O O4 0.000000 0.766713 0.634162
O O5 0.339659 0.081134 0.333368
O O6 0.410070 0.134365 0.169998
O O7 0.285542 0.075272 0.133754
O O8 0.331306 0.000000 0.185003
O O9 0.193995 0.806006 0.429181
O O10 0.319595 0.858813 0.416622
O O11 0.459483 0.540518 0.905871
O O12 0.579544 0.579544 0.967593
O O13 0.559574 0.663872 0.852798
O O14 0.508849 0.638676 0.040310
O O15 0.192512 0.596256 0.403342
O O16 0.270276 0.729725 0.389319
O O17 0.188947 0.662274 0.238146
O O18 0.750867 0.501734 0.088567
O O19 0.207044 0.414087 0.830313
O O20 0.240027 0.343763 0.949502
O O21 0.122337 0.244674 0.979101
O O22 0.000000 0.226606 0.970758
#
# Coordination Sequence:
#
# PCOD9584912 Si02
#       8
#    12  12  12  12  12  12  12  12
#     4  10  20  35  56  79 103 131 165 201 237 282
#     4  10  17  26  44  68  95 124 157 197 242 289
#     4   9  18  31  47  69  96 129 165 201 244 291
#     4  11  21  31  45  68  97 127 161 200 247 301
#     4   9  17  29  46  67  93 126 167 211 254 298
#     4  10  18  29  44  64  93 129 164 199 244 298
#     4  10  20  35  54  73  95 127 165 204 243 283
#     4  10  18  28  46  71  96 122 156 196 236 279
#
# _framework density 16.564637000000001
#
# number of rings (size 3 to 8) (size 9 to 14) (size 15 to 20)
#    0.000    2.125    1.250    4.625    0.000    0.000 
#    0.000    0.625    0.000   11.250    0.000    0.000 
#    0.000    3.000    0.000    4.000    0.000    0.000 
#
# Total GULP energy -534462.962733 kJ/mol
# GULP energy per Si atom -5567.322528 kJ/mol
# Density = 1.652693 g / cm^3
# Si number density = 16.564637 Si / 1000 Ang^3
#
#
#
# Elastic Constant Matrix: (Units=GPa)
#
#
# Indices 1 2 3 4 5 6 
#
# 1 82.5029 49.5247 21.3827 0.0000 0.0000 0.0000
# 2 49.5247 82.5029 21.3827 0.0000 0.0000 0.0000
# 3 21.3827 21.3827 66.5156 0.0000 0.0000 0.0000
# 4 0.0000 0.0000 0.0000 15.3528 0.0000 0.0000
# 5 0.0000 0.0000 0.0000 0.0000 15.3528 0.0000
# 6 0.0000 0.0000 0.0000 0.0000 0.0000 16.4891
#
#
#
# Elastic Compliance Matrix: (Units=1/GPa)
#
#
# Indices 1 2 3 4 5 6 
#
# 1 0.019389 -0.010934 -0.002718 0.000000 0.000000 0.000000
# 2 -0.010934 0.019389 -0.002718 0.000000 0.000000 0.000000
# 3 -0.002718 -0.002718 0.016781 0.000000 0.000000 0.000000
# 4 0.000000 0.000000 0.000000 0.065135 0.000000 0.000000
# 5 0.000000 0.000000 0.000000 0.000000 0.065135 0.000000
# 6 0.000000 0.000000 0.000000 0.000000 0.000000 0.060646
#
#
# Mechanical properties :
#
#
# Convention : Reuss Voigt Hill
#
# Bulk Modulus (GPa) = 43.82297 46.23348 45.02822
# Shear Modulus (GPa) = 17.43250 18.72104 18.07677
#
# Velocity S-wave (km/s) = 3.24758 3.36546 3.30705
# Velocity P-wave (km/s) = 6.36989 6.56303 6.46718
#
# Compressibility (1/GPa) = 0.02281908
#
# Stress axis : x y z
#
# Youngs Moduli (GPa) = 51.57619 51.57619 59.58951
#
# Poissons Ratio (x) = 0.56395 0.16196
# Poissons Ratio (y) = 0.56395 0.16196
# Poissons Ratio (z) = 0.14018 0.14018
#
# Static dielectric constant tensor:
#      x y z
#    x 1.579880 0.000000 0.000000 
#    y 0.000000 1.579880 0.000000 
#    z 0.000000 0.000000 1.581690 
# 
# From -- ./inp_files/2049.got.cif
#   From: 2010.05.17/outbox.cif.g08.bks.cpg/sg183_2_cif.got.tgz:2049.got - 2010.05.20 12:02:58.
