data_PCOD9584998
_publ_section_title
;
Structure prediction by ZEFSAII (Michael W. Deem and Ramdas Pophale) SiO2 
 PCOD9584998
Probable space group: P 6 M M
;
_chemical_formula_sum "Si O2"
_cell_formula_units_Z 72
_cell_length_a 18.409406
_cell_length_b 18.409406
_cell_length_c 15.433052
_cell_angle_alpha 90.000000
_cell_angle_beta 90.000000
_cell_angle_gamma 120.000000
_cell_volume 4529.622431
_symmetry_space_group_name_H-M "P 6 M M"
_symmetry_group_IT_number 183
_symmetry_cell_setting 'hexagonal'
loop_
_space_group_symop_operation_xyz
x,y,z
x-y,x,z
-y,x-y,z
-x,-y,z
-x+y,-x,z
y,-x+y,z
-x+y,y,z
x,x-y,z
-y,-x,z
y,x,z
x-y,-y,z
-x,-x+y,z
loop_
_atom_site_type_symbol
_atom_site_label
_atom_site_fract_x
_atom_site_fract_y
_atom_site_fract_z
Si Si1 0.468553 0.101783 0.540960
Si Si2 0.366866 0.898235 0.344675
Si Si3 0.900050 0.532473 0.855499
Si Si4 0.640979 0.902577 0.189552
Si Si5 0.165895 0.498528 0.047434
Si Si6 0.739872 0.099697 0.696579
O O1 0.564972 0.129943 0.561960
O O2 0.464765 0.129249 0.442811
O O3 0.420794 0.122993 0.613467
O O4 0.419845 0.000000 0.539894
O O5 0.434832 0.869664 0.323523
O O6 0.297537 0.876722 0.272486
O O7 0.419894 0.000000 0.345749
O O8 0.879213 0.439607 0.826478
O O9 0.883030 0.581933 0.780916
O O10 0.000000 0.584091 0.871923
O O11 0.854821 0.523665 0.946355
O O12 0.673897 0.836949 0.182144
O O13 0.581712 0.889229 0.107114
O O14 0.710507 0.000000 0.197118
O O15 0.262107 0.524213 0.063410
O O16 0.150003 0.575002 0.067242
O O17 0.839272 0.160729 0.698486
O O18 0.705841 0.000000 0.693768
#
# Coordination Sequence:
#
# PCOD9584998 Si02
#       6
#    12  12  12  12  12  12
#     4   8  14  26  45  67  89 113 141 174 213 259
#     4   8  14  26  45  68  91 114 141 172 209 257
#     4   9  17  29  46  67  89 115 148 183 218 260
#     4  10  20  32  47  67  90 117 151 192 233 270
#     4  10  19  30  45  67  96 126 152 177 209 254
#     4  10  19  30  45  65  89 117 152 193 233 271
#
# _framework density 15.895365
#
# number of rings (size 3 to 8) (size 9 to 14) (size 15 to 20)
#    0.000    2.833    0.000    3.167    0.000    4.333 
#    0.000    0.000    0.000    4.333    0.000    0.000 
#    0.000    0.000    0.000   13.667    0.000    0.000 
#
# Total GULP energy -401058.559711 kJ/mol
# GULP energy per Si atom -5570.257774 kJ/mol
# Density = 1.585919 g / cm^3
# Si number density = 15.895365 Si / 1000 Ang^3
#
#
#
# Elastic Constant Matrix: (Units=GPa)
#
#
# Indices 1 2 3 4 5 6 
#
# 1 72.2938 43.4221 33.4249 0.0000 0.0000 0.0000
# 2 43.4221 72.2938 33.4249 0.0000 0.0000 0.0000
# 3 33.4249 33.4249 60.8494 0.0000 0.0000 0.0000
# 4 0.0000 0.0000 0.0000 10.1551 0.0000 0.0000
# 5 0.0000 0.0000 0.0000 0.0000 10.1551 0.0000
# 6 0.0000 0.0000 0.0000 0.0000 0.0000 14.4358
#
#
#
# Elastic Compliance Matrix: (Units=1/GPa)
#
#
# Indices 1 2 3 4 5 6 
#
# 1 0.023648 -0.010989 -0.006954 0.000000 0.000000 0.000000
# 2 -0.010989 0.023648 -0.006954 0.000000 0.000000 0.000000
# 3 -0.006954 -0.006954 0.024073 0.000000 0.000000 0.000000
# 4 0.000000 0.000000 0.000000 0.098473 0.000000 0.000000
# 5 0.000000 0.000000 0.000000 0.000000 0.098473 0.000000
# 6 0.000000 0.000000 0.000000 0.000000 0.000000 0.069272
#
#
# Mechanical properties :
#
#
# Convention : Reuss Voigt Hill
#
# Bulk Modulus (GPa) = 46.34617 47.33122 46.83869
# Shear Modulus (GPa) = 12.67200 13.29352 12.98276
#
# Velocity S-wave (km/s) = 2.82656 2.89505 2.86101
# Velocity P-wave (km/s) = 6.31450 6.40441 6.35961
#
# Compressibility (1/GPa) = 0.02157676
#
# Stress axis : x y z
#
# Youngs Moduli (GPa) = 42.28766 42.28766 41.53959
#
# Poissons Ratio (x) = 0.46468 0.28885
# Poissons Ratio (y) = 0.46468 0.28885
# Poissons Ratio (z) = 0.29406 0.29406
#
# Static dielectric constant tensor:
#      x y z
#    x 1.526530 0.000000 0.000000 
#    y 0.000000 1.526530 0.000000 
#    z 0.000000 0.000000 1.545020 
# 
# From -- ./inp_files/2521.got.cif
#   From: 2010.05.17/outbox.cif.g08.bks.cpg/sg183_2_cif.got.tgz:2521.got - 2010.05.20 12:02:58.
