data_PCOD9584117
_publ_section_title
;
Structure prediction by ZEFSAII (Michael W. Deem and Ramdas Pophale) SiO2 
 PCOD9584117
Probable space group: P 62 2 2
;
_chemical_formula_sum "Si O2"
_cell_formula_units_Z 54
_cell_length_a 11.306032
_cell_length_b 11.306032
_cell_length_c 23.790776
_cell_angle_alpha 90.000000
_cell_angle_beta 90.000000
_cell_angle_gamma 120.000000
_cell_volume 2633.659712
_symmetry_space_group_name_H-M "P 62 2 2"
_symmetry_group_IT_number 180
_symmetry_cell_setting 'hexagonal'
loop_
_space_group_symop_operation_xyz
x,y,z
x-y,x,1/3+z
-y,x-y,2/3+z
-x,-y,z
-x+y,-x,1/3+z
y,-x+y,2/3+z
x-y,-y,-z
-x,-x+y,1/3-z
y,x,2/3-z
-y,-x,2/3-z
-x+y,y,-z
x,x-y,1/3-z
loop_
_atom_site_type_symbol
_atom_site_label
_atom_site_fract_x
_atom_site_fract_y
_atom_site_fract_z
Si Si1 0.154931 0.285396 0.185953
Si Si2 0.831892 0.936144 0.058736
Si Si3 0.155845 0.620542 0.102905
Si Si4 0.345294 0.960252 0.253158
Si Si5 0.277247 0.554494 0.000000
O O1 0.204986 0.197979 0.219862
O O2 0.153254 0.393713 0.228113
O O3 0.246960 0.363810 0.132713
O O4 0.000000 0.187920 0.166667
O O5 0.724026 0.773953 0.060403
O O6 0.000000 0.000000 0.063133
O O7 0.820788 0.000000 0.000000
O O8 0.191716 0.595858 0.166667
O O9 0.255976 0.628007 0.053656
O O10 0.000000 0.500000 0.093201
O O11 0.500000 0.000000 0.235111
O O12 0.327370 0.868995 0.306816
#
# Coordination Sequence:
#
# PCOD9584117 Si02
#       5
#    12  12  12  12   6
#     4  12  23  46  73 105 147 198 258 325 386 468
#     4  11  25  43  74 111 147 194 260 332 400 469
#     4  11  22  41  71 103 137 188 254 314 384 473
#     4  12  27  44  71 110 153 197 250 324 401 472
#     4  12  24  44  71 103 146 192 256 306 376 482
#
# _framework density 20.503789000000001
#
# number of rings (size 3 to 8) (size 9 to 14) (size 15 to 20)
#    0.000    0.444    6.667    2.667    6.222    0.000 
#    8.000    0.000    0.000    1.333    0.000    0.000 
#    0.000    0.000    0.000    0.000    0.000    0.000 
#
# Total GULP energy -300903.588318 kJ/mol
# GULP energy per Si atom -5572.288673 kJ/mol
# Density = 2.045712 g / cm^3
# Si number density = 20.503789 Si / 1000 Ang^3
#
#
#
# Elastic Constant Matrix: (Units=GPa)
#
#
# Indices 1 2 3 4 5 6 
#
# 1 63.6658 30.4338 34.8374 0.0000 0.0000 0.0000
# 2 30.4338 63.6658 34.8374 0.0000 0.0000 0.0000
# 3 34.8374 34.8374 123.1233 0.0000 0.0000 0.0000
# 4 0.0000 0.0000 0.0000 47.2933 0.0000 0.0000
# 5 0.0000 0.0000 0.0000 0.0000 47.2933 0.0000
# 6 0.0000 0.0000 0.0000 0.0000 0.0000 16.6160
#
#
#
# Elastic Compliance Matrix: (Units=1/GPa)
#
#
# Indices 1 2 3 4 5 6 
#
# 1 0.021767 -0.008324 -0.003804 0.000000 0.000000 0.000000
# 2 -0.008324 0.021767 -0.003804 0.000000 0.000000 0.000000
# 3 -0.003804 -0.003804 0.010274 0.000000 0.000000 0.000000
# 4 0.000000 0.000000 0.000000 0.021145 0.000000 0.000000
# 5 0.000000 0.000000 0.000000 0.000000 0.021145 0.000000
# 6 0.000000 0.000000 0.000000 0.000000 0.000000 0.060183
#
#
# Mechanical properties :
#
#
# Convention : Reuss Voigt Hill
#
# Bulk Modulus (GPa) = 45.56578 50.07468 47.82023
# Shear Modulus (GPa) = 25.58067 32.26363 28.92215
#
# Velocity S-wave (km/s) = 3.53598 3.97110 3.75984
# Velocity P-wave (km/s) = 6.24037 6.74547 6.49783
#
# Compressibility (1/GPa) = 0.02194630
#
# Stress axis : x y z
#
# Youngs Moduli (GPa) = 45.94012 45.94012 97.32842
#
# Poissons Ratio (x) = 0.38240 0.37022
# Poissons Ratio (y) = 0.38240 0.37022
# Poissons Ratio (z) = 0.17475 0.17475
#
# Static dielectric constant tensor:
#      x y z
#    x 1.775950 0.000000 0.000000 
#    y 0.000000 1.775950 0.000000 
#    z 0.000000 0.000000 1.701170 
# 
# From -- ./inp_files/8840.got.cif
#   From: 2010.05.17/outbox.cif.g08.bks.cpg/sg180_5_cif.got.tgz:8840.got - 2010.05.20 11:43:55.
