data_PCOD9584542
_publ_section_title
;
Structure prediction by ZEFSAII (Michael W. Deem and Ramdas Pophale) SiO2 
 PCOD9584542
Probable space group: P 64 2 2
;
_chemical_formula_sum "Si O2"
_cell_formula_units_Z 57
_cell_length_a 13.280810
_cell_length_b 13.280810
_cell_length_c 17.283950
_cell_angle_alpha 90.000000
_cell_angle_beta 90.000000
_cell_angle_gamma 120.000000
_cell_volume 2640.114487
_symmetry_space_group_name_H-M "P 64 2 2"
_symmetry_group_IT_number 181
_symmetry_cell_setting 'hexagonal'
loop_
_space_group_symop_operation_xyz
x,y,z
x-y,x,2/3+z
-y,x-y,1/3+z
-x,-y,z
-x+y,-x,2/3+z
y,-x+y,1/3+z
x-y,-y,-z
-x,-x+y,2/3-z
y,x,1/3-z
-y,-x,1/3-z
-x+y,y,-z
x,x-y,2/3-z
loop_
_atom_site_type_symbol
_atom_site_label
_atom_site_fract_x
_atom_site_fract_y
_atom_site_fract_z
Si Si1 0.264955 0.654041 0.083274
Si Si2 0.500000 0.500000 0.471900
Si Si3 0.765132 0.830129 0.412943
Si Si4 0.340406 0.076006 0.111524
Si Si5 0.358255 0.187211 0.719382
Si Si6 0.000000 0.000000 0.166667
O O1 0.332859 0.667142 0.166667
O O2 0.263923 0.775341 0.081925
O O3 0.123560 0.564480 0.090724
O O4 0.320291 0.640582 0.000000
O O5 0.574464 0.605262 0.530531
O O6 0.740181 0.870091 0.333334
O O7 0.678928 0.814897 0.481579
O O8 0.755523 0.704817 0.402275
O O9 0.891597 0.923090 0.444304
O O10 0.225396 0.954581 0.089295
O O11 0.368939 0.154390 0.037511
#
# Coordination Sequence:
#
# PCOD9584542 Si02
#       6
#    12   6  12  12  12   3
#     4  12  25  48  77 107 142 188 244 310 368 432
#     4  12  24  45  71 102 142 180 240 312 366 426
#     4  12  23  38  61  94 142 185 223 281 351 438
#     4  11  23  40  66 100 129 178 234 291 355 416
#     4  11  22  42  68  99 137 177 236 302 346 419
#     4  12  22  36  56  98 128 184 228 262 350 424
#
# _framework density 21.589971999999999
#
# number of rings (size 3 to 8) (size 9 to 14) (size 15 to 20)
#    0.000    0.421    6.316    2.842    2.947    1.684 
#    0.000    0.526    4.632    0.000    0.000    0.000 
#    0.000    0.000    0.000    0.000    0.000    0.000 
#
# Total GULP energy -317667.478414 kJ/mol
# GULP energy per Si atom -5573.113656 kJ/mol
# Density = 2.154083 g / cm^3
# Si number density = 21.589972 Si / 1000 Ang^3
#
#
#
# Elastic Constant Matrix: (Units=GPa)
#
#
# Indices 1 2 3 4 5 6 
#
# 1 50.6691 -6.3911 36.2708 0.0000 0.0000 0.0000
# 2 -6.3911 50.6691 36.2708 0.0000 0.0000 0.0000
# 3 36.2708 36.2708 215.0041 0.0000 0.0000 0.0000
# 4 0.0000 0.0000 0.0000 29.4629 0.0000 0.0000
# 5 0.0000 0.0000 0.0000 0.0000 29.4629 0.0000
# 6 0.0000 0.0000 0.0000 0.0000 0.0000 28.5301
#
#
#
# Elastic Compliance Matrix: (Units=1/GPa)
#
#
# Indices 1 2 3 4 5 6 
#
# 1 0.024368 0.006843 -0.005265 0.000000 0.000000 0.000000
# 2 0.006843 0.024368 -0.005265 0.000000 0.000000 0.000000
# 3 -0.005265 -0.005265 0.006428 0.000000 0.000000 0.000000
# 4 0.000000 0.000000 0.000000 0.033941 0.000000 0.000000
# 5 0.000000 0.000000 0.000000 0.000000 0.033941 0.000000
# 6 0.000000 0.000000 0.000000 0.000000 0.000000 0.035051
#
#
# Mechanical properties :
#
#
# Convention : Reuss Voigt Hill
#
# Bulk Modulus (GPa) = 20.92576 49.84927 35.38752
# Shear Modulus (GPa) = 27.56326 34.17064 30.86695
#
# Velocity S-wave (km/s) = 3.57693 3.98264 3.78523
# Velocity P-wave (km/s) = 5.17423 6.65491 5.96072
#
# Compressibility (1/GPa) = 0.04778798
#
# Stress axis : x y z
#
# Youngs Moduli (GPa) = 41.03750 41.03750 155.58095
#
# Poissons Ratio (x) = -0.28080 0.81916
# Poissons Ratio (y) = -0.28080 0.81916
# Poissons Ratio (z) = 0.21607 0.21607
#
# Static dielectric constant tensor:
#      x y z
#    x 1.848540 0.000000 0.000000 
#    y 0.000000 1.848540 0.000000 
#    z 0.000000 0.000000 1.802480 
# 
# From -- ./inp_files/6223.got.cif
#   From: 2010.05.17/outbox.cif.g08.bks.cpg/sg181_4_cif.got.tgz:6223.got - 2010.05.20 11:51:17.
