data_PCOD9584758
_publ_section_title
;
Structure prediction by ZEFSAII (Michael W. Deem and Ramdas Pophale) SiO2 
 PCOD9584758
Probable space group: P 63 2 2
;
_chemical_formula_sum "Si O2"
_cell_formula_units_Z 42
_cell_length_a 15.335781
_cell_length_b 15.335781
_cell_length_c 9.753282
_cell_angle_alpha 90.000000
_cell_angle_beta 90.000000
_cell_angle_gamma 120.000000
_cell_volume 1986.521222
_symmetry_space_group_name_H-M "P 63 2 2"
_symmetry_group_IT_number 182
_symmetry_cell_setting 'hexagonal'
loop_
_space_group_symop_operation_xyz
x,y,z
x-y,x,1/2+z
-y,x-y,z
-x,-y,1/2+z
-x+y,-x,z
y,-x+y,1/2+z
x-y,-y,-z
-x,-x+y,-z
y,x,-z
-y,-x,1/2-z
-x+y,y,1/2-z
x,x-y,1/2-z
loop_
_atom_site_type_symbol
_atom_site_label
_atom_site_fract_x
_atom_site_fract_y
_atom_site_fract_z
Si Si1 0.826572 0.653143 0.750000
Si Si2 0.843538 0.307403 0.008460
Si Si3 0.741457 0.055509 0.247281
Si Si4 0.517969 0.367801 0.110327
O O1 0.825426 0.583669 0.626015
O O2 0.776629 0.721624 0.722467
O O3 0.921782 0.297691 0.109332
O O4 0.733622 0.254999 0.081667
O O5 0.873884 0.423541 0.993010
O O6 0.857947 0.142054 0.250000
O O7 0.678221 0.077900 0.134673
O O8 0.573792 0.426209 0.250000
#
# Coordination Sequence:
#
# PCOD9584758 Si02
#       4
#     6  12  12  12
#     4  12  24  40  58 102 140 160 218 300 332 390
#     4  10  21  39  64  93 129 171 214 273 326 398
#     4   9  21  42  64  90 123 178 226 267 336 404
#     4   9  18  38  64  89 117 171 223 250 311 410
#
# _framework density 21.142489999999999
#
# number of rings (size 3 to 8) (size 9 to 14) (size 15 to 20)
#    0.000    2.286    0.000    4.000    0.000    9.143 
#   26.571    0.000    0.000    0.000    0.000    0.000 
#    0.000    0.000    0.000    0.000    0.000    0.000 
#
# Total GULP energy -234307.308369 kJ/mol
# GULP energy per Si atom -5578.745437 kJ/mol
# Density = 2.109437 g / cm^3
# Si number density = 21.142490 Si / 1000 Ang^3
#
#
#
# Elastic Constant Matrix: (Units=GPa)
#
#
# Indices 1 2 3 4 5 6 
#
# 1 137.4650 107.8963 33.1622 0.0000 0.0000 0.0000
# 2 107.8963 137.4650 33.1622 0.0000 0.0000 0.0000
# 3 33.1622 33.1622 66.8730 0.0000 0.0000 0.0000
# 4 0.0000 0.0000 0.0000 30.9066 0.0000 0.0000
# 5 0.0000 0.0000 0.0000 0.0000 30.9066 0.0000
# 6 0.0000 0.0000 0.0000 0.0000 0.0000 14.7843
#
#
#
# Elastic Compliance Matrix: (Units=1/GPa)
#
#
# Indices 1 2 3 4 5 6 
#
# 1 0.019263 -0.014557 -0.002334 0.000000 0.000000 0.000000
# 2 -0.014557 0.019263 -0.002334 0.000000 0.000000 0.000000
# 3 -0.002334 -0.002334 0.017269 0.000000 0.000000 0.000000
# 4 0.000000 0.000000 0.000000 0.032356 0.000000 0.000000
# 5 0.000000 0.000000 0.000000 0.000000 0.032356 0.000000
# 6 0.000000 0.000000 0.000000 0.000000 0.000000 0.067639
#
#
# Mechanical properties :
#
#
# Convention : Reuss Voigt Hill
#
# Bulk Modulus (GPa) = 57.65103 76.69384 67.17243
# Shear Modulus (GPa) = 21.51686 26.49164 24.00425
#
# Velocity S-wave (km/s) = 3.19361 3.54362 3.37316
# Velocity P-wave (km/s) = 6.39734 7.28673 6.85647
#
# Compressibility (1/GPa) = 0.01734574
#
# Stress axis : x y z
#
# Youngs Moduli (GPa) = 51.91276 51.91276 57.90879
#
# Poissons Ratio (x) = 0.75567 0.13516
# Poissons Ratio (y) = 0.75567 0.13516
# Poissons Ratio (z) = 0.12116 0.12116
#
# Static dielectric constant tensor:
#      x y z
#    x 1.783030 0.000000 0.000000 
#    y 0.000000 1.783030 0.000000 
#    z 0.000000 0.000000 1.902840 
# 
# From -- ./inp_files/2298.got.cif
#   From: 2010.05.17/outbox.cif.g08.bks.cpg/sg182_2_cif.got.tgz:2298.got - 2010.05.20 11:58:53.
