data_PCOD9584686
_publ_section_title
;
Structure prediction by ZEFSAII (Michael W. Deem and Ramdas Pophale) SiO2 
 PCOD9584686
Probable space group: P 63 2 2
;
_chemical_formula_sum "Si O2"
_cell_formula_units_Z 56
_cell_length_a 14.609178
_cell_length_b 14.609178
_cell_length_c 16.105456
_cell_angle_alpha 90.000000
_cell_angle_beta 90.000000
_cell_angle_gamma 120.000000
_cell_volume 2976.838121
_symmetry_space_group_name_H-M "P 63 2 2"
_symmetry_group_IT_number 182
_symmetry_cell_setting 'hexagonal'
loop_
_space_group_symop_operation_xyz
x,y,z
x-y,x,1/2+z
-y,x-y,z
-x,-y,1/2+z
-x+y,-x,z
y,-x+y,1/2+z
x-y,-y,-z
-x,-x+y,-z
y,x,-z
-y,-x,1/2-z
-x+y,y,1/2-z
x,x-y,1/2-z
loop_
_atom_site_type_symbol
_atom_site_label
_atom_site_fract_x
_atom_site_fract_y
_atom_site_fract_z
Si Si1 0.620467 0.854938 0.985019
Si Si2 0.824582 0.649164 0.750000
Si Si3 0.661957 0.524107 0.899568
Si Si4 0.000000 0.000000 0.899979
Si Si5 0.666667 0.333334 0.652040
Si Si6 0.213241 0.999326 0.372322
Si Si7 0.520399 0.000000 0.000000
O O1 0.561529 0.736366 0.018701
O O2 0.711192 0.918564 0.055200
O O3 0.543384 0.904271 0.983368
O O4 0.686254 0.889268 0.899231
O O5 0.738307 0.581231 0.820835
O O6 0.939305 0.722419 0.790774
O O7 0.617167 0.401178 0.881104
O O8 0.559289 0.531170 0.922731
O O9 0.100667 0.108612 0.871513
O O10 0.000000 0.000000 0.000000
O O11 0.666668 0.333334 0.750000
#
# Coordination Sequence:
#
# PCOD9584686 Si02
#       7
#    12   6  12   4   4  12   6
#     4   9  19  35  51  80 117 144 189 245 277 344
#     4  10  22  38  52  88 120 150 186 244 298 342
#     4  11  21  36  59  86 122 152 192 241 304 359
#     4  12  18  34  59  79  96 154 194 223 276 328
#     4  12  21  33  60  96 117 145 194 262 312 336
#     4   9  20  34  54  77 113 144 185 237 277 333
#     4  10  20  34  56  82 112 158 192 228 298 360
#
# _framework density 18.811906
#
# number of rings (size 3 to 8) (size 9 to 14) (size 15 to 20)
#    0.000    2.143    5.357    0.000    0.000    4.286 
#    0.000    0.000    0.000    0.000    0.000    0.000 
#    0.000    0.000    0.000    0.000    0.000    0.000 
#
# Total GULP energy -311745.971382 kJ/mol
# GULP energy per Si atom -5566.892346 kJ/mol
# Density = 1.876909 g / cm^3
# Si number density = 18.811906 Si / 1000 Ang^3
#
#
#
# Elastic Constant Matrix: (Units=GPa)
#
#
# Indices 1 2 3 4 5 6 
#
# 1 71.1566 46.8068 39.1832 0.0001 0.0001 0.0000
# 2 46.8068 71.1563 39.1831 -0.0001 -0.0001 -0.0001
# 3 39.1832 39.1831 65.7163 0.0000 0.0000 0.0000
# 4 0.0001 -0.0001 0.0000 16.5437 0.0000 0.0001
# 5 0.0001 -0.0001 0.0000 0.0000 16.5447 -0.0001
# 6 0.0000 -0.0001 0.0000 0.0001 -0.0001 12.1746
#
#
#
# Elastic Compliance Matrix: (Units=1/GPa)
#
#
# Indices 1 2 3 4 5 6 
#
# 1 0.027553 -0.013515 -0.008370 0.000000 0.000000 0.000000
# 2 -0.013515 0.027553 -0.008370 0.000000 0.000000 0.000000
# 3 -0.008370 -0.008370 0.025198 0.000000 0.000000 0.000000
# 4 0.000000 0.000000 0.000000 0.060446 0.000000 0.000000
# 5 0.000000 0.000000 0.000000 0.000000 0.060442 0.000001
# 6 0.000000 0.000000 0.000000 0.000000 0.000001 0.082138
#
#
# Mechanical properties :
#
#
# Convention : Reuss Voigt Hill
#
# Bulk Modulus (GPa) = 50.52133 50.93060 50.72597
# Shear Modulus (GPa) = 14.26785 14.57635 14.42210
#
# Velocity S-wave (km/s) = 2.75698 2.78663 2.77184
# Velocity P-wave (km/s) = 6.08678 6.12259 6.10471
#
# Compressibility (1/GPa) = 0.01979362
#
# Stress axis : x y z
#
# Youngs Moduli (GPa) = 36.29385 36.29372 39.68585
#
# Poissons Ratio (x) = 0.49052 0.33216
# Poissons Ratio (y) = 0.49053 0.33216
# Poissons Ratio (z) = 0.30377 0.30377
#
# Static dielectric constant tensor:
#      x y z
#    x 1.691080 0.000000 0.000000 
#    y 0.000000 1.691080 0.000000 
#    z 0.000000 0.000000 1.650020 
# 
# From -- ./inp_files/4242.got.cif
#   From: 2010.05.17/outbox.cif.g08.bks.cpg/sg182_3_cif.got.tgz:4242.got - 2010.05.20 11:58:53.
