data_PCOD9584412
_publ_section_title
;
Structure prediction by ZEFSAII (Michael W. Deem and Ramdas Pophale) SiO2 
 PCOD9584412
Probable space group: P 64 2 2
;
_chemical_formula_sum "Si O2"
_cell_formula_units_Z 69
_cell_length_a 16.248414
_cell_length_b 16.248414
_cell_length_c 17.730056
_cell_angle_alpha 90.000000
_cell_angle_beta 90.000000
_cell_angle_gamma 120.000000
_cell_volume 4053.803480
_symmetry_space_group_name_H-M "P 64 2 2"
_symmetry_group_IT_number 181
_symmetry_cell_setting 'hexagonal'
loop_
_space_group_symop_operation_xyz
x,y,z
x-y,x,2/3+z
-y,x-y,1/3+z
-x,-y,z
-x+y,-x,2/3+z
y,-x+y,1/3+z
x-y,-y,-z
-x,-x+y,2/3-z
y,x,1/3-z
-y,-x,1/3-z
-x+y,y,-z
x,x-y,2/3-z
loop_
_atom_site_type_symbol
_atom_site_label
_atom_site_fract_x
_atom_site_fract_y
_atom_site_fract_z
Si Si1 0.622435 0.492798 0.457299
Si Si2 0.333362 0.931108 0.783156
Si Si3 0.000000 0.000000 0.333334
Si Si4 0.976309 0.814899 0.745866
Si Si5 0.093450 0.334138 0.281054
Si Si6 0.161664 0.323327 0.000000
Si Si7 0.521340 0.212451 0.954879
O O1 0.514611 0.407597 0.452177
O O2 0.637220 0.594729 0.430823
O O3 0.648966 0.499054 0.545730
O O4 0.689413 0.467271 0.408614
O O5 0.288733 0.929063 0.865033
O O6 0.247216 0.867060 0.726104
O O7 0.068697 0.090800 0.283678
O O8 0.872439 0.727811 0.728818
O O9 0.000000 0.826376 0.833334
O O10 0.061622 0.808323 0.706780
O O11 0.160953 0.431663 0.323810
O O12 0.000000 0.277398 0.333334
O O13 0.611935 0.223869 0.000000
#
# Coordination Sequence:
#
# PCOD9584412 Si02
#       7
#    12  12   3  12  12   6  12
#     4  10  23  39  61  90 125 154 204 260 313 374
#     4  11  22  41  62  91 120 164 203 253 315 367
#     4  10  22  36  56  82 114 168 198 248 292 348
#     4  11  22  39  56  85 122 159 208 244 294 356
#     4  12  22  38  64  93 122 159 204 259 310 361
#     4  11  24  39  62  84 124 168 203 246 297 374
#     4  11  22  38  61  93 123 158 199 257 317 375
#
# _framework density 17.021052000000001
#
# number of rings (size 3 to 8) (size 9 to 14) (size 15 to 20)
#    0.000    1.043    6.087    1.304    1.217    0.348 
#    0.000    0.000    0.000    0.000    0.000    0.000 
#    0.000    0.000    0.000    0.000    0.000    0.000 
#
# Total GULP energy -385072.112926 kJ/mol
# GULP energy per Si atom -5580.755260 kJ/mol
# Density = 1.698231 g / cm^3
# Si number density = 17.021052 Si / 1000 Ang^3
#
#
#
# Elastic Constant Matrix: (Units=GPa)
#
#
# Indices 1 2 3 4 5 6 
#
# 1 129.8629 69.0599 61.9654 0.0000 0.0000 0.0000
# 2 69.0599 129.8629 61.9654 0.0000 0.0000 0.0000
# 3 61.9654 61.9654 117.2892 0.0000 0.0000 0.0000
# 4 0.0000 0.0000 0.0000 11.9089 0.0000 0.0000
# 5 0.0000 0.0000 0.0000 0.0000 11.9089 0.0000
# 6 0.0000 0.0000 0.0000 0.0000 0.0000 30.4015
#
#
#
# Elastic Compliance Matrix: (Units=1/GPa)
#
#
# Indices 1 2 3 4 5 6 
#
# 1 0.011970 -0.004477 -0.003959 0.000000 0.000000 0.000000
# 2 -0.004477 0.011970 -0.003959 0.000000 0.000000 0.000000
# 3 -0.003959 -0.003959 0.012709 0.000000 0.000000 0.000000
# 4 0.000000 0.000000 0.000000 0.083971 0.000000 0.000000
# 5 0.000000 0.000000 0.000000 0.000000 0.083971 0.000000
# 6 0.000000 0.000000 0.000000 0.000000 0.000000 0.032893
#
#
# Mechanical properties :
#
#
# Convention : Reuss Voigt Hill
#
# Bulk Modulus (GPa) = 84.31430 84.77736 84.54583
# Shear Modulus (GPa) = 18.78101 23.11216 20.94658
#
# Velocity S-wave (km/s) = 3.32535 3.68891 3.51184
# Velocity P-wave (km/s) = 8.02414 8.24982 8.13776
#
# Compressibility (1/GPa) = 0.01186038
#
# Stress axis : x y z
#
# Youngs Moduli (GPa) = 83.54199 83.54199 78.68425
#
# Poissons Ratio (x) = 0.37398 0.31150
# Poissons Ratio (y) = 0.37398 0.31150
# Poissons Ratio (z) = 0.33074 0.33074
#
# Static dielectric constant tensor:
#      x y z
#    x 1.571390 0.000000 0.000000 
#    y 0.000000 1.571390 0.000000 
#    z 0.000000 0.000000 1.571550 
# 
# From -- ./inp_files/7832.got.cif
#   From: 2010.05.17/outbox.cif.g08.bks.cpg/sg181_4_cif.got.tgz:7832.got - 2010.05.20 11:51:17.
