data_PCOD9584357
_publ_section_title
;
Structure prediction by ZEFSAII (Michael W. Deem and Ramdas Pophale) SiO2 
 PCOD9584357
Probable space group: P 64 2 2
;
_chemical_formula_sum "Si O2"
_cell_formula_units_Z 54
_cell_length_a 11.558607
_cell_length_b 11.558607
_cell_length_c 21.805092
_cell_angle_alpha 90.000000
_cell_angle_beta 90.000000
_cell_angle_gamma 120.000000
_cell_volume 2522.897175
_symmetry_space_group_name_H-M "P 64 2 2"
_symmetry_group_IT_number 181
_symmetry_cell_setting 'hexagonal'
loop_
_space_group_symop_operation_xyz
x,y,z
x-y,x,2/3+z
-y,x-y,1/3+z
-x,-y,z
-x+y,-x,2/3+z
y,-x+y,1/3+z
x-y,-y,-z
-x,-x+y,2/3-z
y,x,1/3-z
-y,-x,1/3-z
-x+y,y,-z
x,x-y,2/3-z
loop_
_atom_site_type_symbol
_atom_site_label
_atom_site_fract_x
_atom_site_fract_y
_atom_site_fract_z
Si Si1 0.198022 0.097487 0.112851
Si Si2 0.334946 0.167473 0.833334
Si Si3 0.500000 0.000000 0.000000
Si Si4 0.000000 0.000000 0.333334
Si Si5 0.737943 0.242283 0.281740
Si Si6 0.251834 0.503668 0.000000
Si Si7 0.606616 0.965898 0.606386
O O1 0.116368 0.116368 0.166667
O O2 0.330767 0.238189 0.106863
O O3 0.213002 0.973405 0.133483
O O4 0.122421 0.075500 0.047661
O O5 0.427365 0.260194 0.887526
O O6 0.517574 0.887882 0.960917
O O7 0.612086 0.267573 0.281241
O O8 0.695188 0.143529 0.339582
O O9 0.106237 0.404486 0.973398
O O10 0.500000 0.000000 0.578266
#
# Coordination Sequence:
#
# PCOD9584357 Si02
#       7
#    12   6   3   3  12   6  12
#     4  12  24  39  66 102 138 182 234 297 365 425
#     4  12  23  42  62 118 141 174 244 298 370 426
#     4  10  20  46  66 102 144 190 226 278 382 428
#     4  12  20  42  62  94 142 182 216 298 368 436
#     4  10  22  41  70 100 138 189 232 290 360 436
#     4   9  21  43  68  93 131 195 240 274 360 418
#     4  10  22  42  69  95 135 190 235 283 350 426
#
# _framework density 21.403964999999999
#
# number of rings (size 3 to 8) (size 9 to 14) (size 15 to 20)
#    0.000    1.333    2.222    3.333    3.111    0.444 
#    6.000    6.667    0.000    0.000    0.000    0.000 
#    0.000    0.000    0.000    0.000    0.000    0.000 
#
# Total GULP energy -300891.955623 kJ/mol
# GULP energy per Si atom -5572.073252 kJ/mol
# Density = 2.135525 g / cm^3
# Si number density = 21.403965 Si / 1000 Ang^3
#
#
#
# Elastic Constant Matrix: (Units=GPa)
#
#
# Indices 1 2 3 4 5 6 
#
# 1 112.9323 46.7861 32.6340 0.0000 0.0000 0.0000
# 2 46.7861 112.9323 32.6340 0.0000 0.0000 0.0000
# 3 32.6340 32.6340 110.0580 0.0000 0.0000 0.0000
# 4 0.0000 0.0000 0.0000 18.1240 0.0000 0.0000
# 5 0.0000 0.0000 0.0000 0.0000 18.1240 0.0000
# 6 0.0000 0.0000 0.0000 0.0000 0.0000 33.0731
#
#
#
# Elastic Compliance Matrix: (Units=1/GPa)
#
#
# Indices 1 2 3 4 5 6 
#
# 1 0.011121 -0.003997 -0.002112 0.000000 0.000000 0.000000
# 2 -0.003997 0.011121 -0.002112 0.000000 0.000000 0.000000
# 3 -0.002112 -0.002112 0.010339 0.000000 0.000000 0.000000
# 4 0.000000 0.000000 0.000000 0.055176 0.000000 0.000000
# 5 0.000000 0.000000 0.000000 0.000000 0.055176 0.000000
# 6 0.000000 0.000000 0.000000 0.000000 0.000000 0.030236
#
#
# Mechanical properties :
#
#
# Convention : Reuss Voigt Hill
#
# Bulk Modulus (GPa) = 61.96725 62.22566 62.09646
# Shear Modulus (GPa) = 25.64218 28.78875 27.21546
#
# Velocity S-wave (km/s) = 3.46498 3.67143 3.56970
# Velocity P-wave (km/s) = 6.70987 6.86350 6.78712
#
# Compressibility (1/GPa) = 0.01613756
#
# Stress axis : x y z
#
# Youngs Moduli (GPa) = 89.91873 89.91873 96.72229
#
# Poissons Ratio (x) = 0.35939 0.20432
# Poissons Ratio (y) = 0.35939 0.20432
# Poissons Ratio (z) = 0.18995 0.18995
#
# Static dielectric constant tensor:
#      x y z
#    x 1.856580 0.000000 0.000000 
#    y 0.000000 1.856580 0.000000 
#    z 0.000000 0.000000 1.763550 
# 
# From -- ./inp_files/10097.got.cif
#   From: 2010.05.17/outbox.cif.g08.bks.cpg/sg181_6_cif.got.tgz:10097.got - 2010.05.20 11:51:17.
