data_PCOD9584075
_publ_section_title
;
Structure prediction by ZEFSAII (Michael W. Deem and Ramdas Pophale) SiO2 
 PCOD9584075
Probable space group: P 62 2 2
;
_chemical_formula_sum "Si O2"
_cell_formula_units_Z 36
_cell_length_a 7.923702
_cell_length_b 7.923702
_cell_length_c 26.882877
_cell_angle_alpha 90.000000
_cell_angle_beta 90.000000
_cell_angle_gamma 120.000000
_cell_volume 1461.714801
_symmetry_space_group_name_H-M "P 62 2 2"
_symmetry_group_IT_number 180
_symmetry_cell_setting 'hexagonal'
loop_
_space_group_symop_operation_xyz
x,y,z
x-y,x,1/3+z
-y,x-y,2/3+z
-x,-y,z
-x+y,-x,1/3+z
y,-x+y,2/3+z
x-y,-y,-z
-x,-x+y,1/3-z
y,x,2/3-z
-y,-x,2/3-z
-x+y,y,-z
x,x-y,1/3-z
loop_
_atom_site_type_symbol
_atom_site_label
_atom_site_fract_x
_atom_site_fract_y
_atom_site_fract_z
Si Si1 0.944093 0.305448 0.872484
Si Si2 0.413142 0.770538 0.944745
Si Si3 0.958367 0.179672 0.278120
O O1 0.867119 0.132882 0.833334
O O2 0.772304 0.284658 0.909124
O O3 0.000000 0.500000 0.841917
O O4 0.126058 0.329911 0.903321
O O5 0.605131 0.748222 0.935898
O O6 0.500000 0.000000 0.948586
O O7 0.343049 0.686098 0.000000
O O8 0.000000 0.000000 0.272093
O O9 0.864503 0.135498 0.333334
#
# Coordination Sequence:
#
# PCOD9584075 Si02
#       3
#    12  12  12
#     4  12  28  47  66 106 151 193 242 311 386 448
#     4  11  20  43  75 106 144 186 252 312 361 451
#     4  11  21  43  78 107 133 194 250 300 374 447
#
# _framework density 24.628608
#
# number of rings (size 3 to 8) (size 9 to 14) (size 15 to 20)
#    0.000    0.667    6.667    3.000    0.000    3.333 
#    0.000    1.667    0.000    0.000    0.000    0.000 
#    0.000    0.000    0.000    0.000    0.000    0.000 
#
# Total GULP energy -200909.329370 kJ/mol
# GULP energy per Si atom -5580.814705 kJ/mol
# Density = 2.457255 g / cm^3
# Si number density = 24.628608 Si / 1000 Ang^3
#
#
#
# Elastic Constant Matrix: (Units=GPa)
#
#
# Indices 1 2 3 4 5 6 
#
# 1 104.5960 68.7468 14.7753 0.0000 0.0000 0.0000
# 2 68.7468 104.5960 14.7753 0.0000 0.0000 0.0000
# 3 14.7753 14.7753 83.2375 0.0000 0.0000 0.0000
# 4 0.0000 0.0000 0.0000 21.5456 0.0000 0.0000
# 5 0.0000 0.0000 0.0000 0.0000 21.5456 0.0000
# 6 0.0000 0.0000 0.0000 0.0000 0.0000 17.9246
#
#
#
# Elastic Compliance Matrix: (Units=1/GPa)
#
#
# Indices 1 2 3 4 5 6 
#
# 1 0.016922 -0.010973 -0.001056 0.000000 0.000000 0.000000
# 2 -0.010973 0.016922 -0.001056 0.000000 0.000000 0.000000
# 3 -0.001056 -0.001056 0.012389 0.000000 0.000000 0.000000
# 4 0.000000 0.000000 0.000000 0.046413 0.000000 0.000000
# 5 0.000000 0.000000 0.000000 0.000000 0.046413 0.000000
# 6 0.000000 0.000000 0.000000 0.000000 0.000000 0.055789
#
#
# Mechanical properties :
#
#
# Convention : Reuss Voigt Hill
#
# Bulk Modulus (GPa) = 49.84388 54.33604 52.08996
# Shear Modulus (GPa) = 21.95823 25.14530 23.55177
#
# Velocity S-wave (km/s) = 2.98916 3.19874 3.09573
# Velocity P-wave (km/s) = 5.67412 5.97935 5.82873
#
# Compressibility (1/GPa) = 0.02006264
#
# Stress axis : x y z
#
# Youngs Moduli (GPa) = 59.09542 59.09542 80.71870
#
# Poissons Ratio (x) = 0.64845 0.08524
# Poissons Ratio (y) = 0.64845 0.08524
# Poissons Ratio (z) = 0.06240 0.06240
#
# Static dielectric constant tensor:
#      x y z
#    x 2.117700 0.000000 0.000000 
#    y 0.000000 2.117700 0.000000 
#    z 0.000000 0.000000 1.931800 
# 
# From -- ./inp_files/11692.got.cif
#   From: 2010.05.17/outbox.cif.g08.bks.cpg/sg180_6_cif.got.tgz:11692.got - 2010.05.20 11:43:55.
