data_PCOD9584926
_publ_section_title
;
Structure prediction by ZEFSAII (Michael W. Deem and Ramdas Pophale) SiO2 
 PCOD9584926
Probable space group: P 6 M M
;
_chemical_formula_sum "Si O2"
_cell_formula_units_Z 96
_cell_length_a 18.512097
_cell_length_b 18.512097
_cell_length_c 20.808806
_cell_angle_alpha 90.000000
_cell_angle_beta 90.000000
_cell_angle_gamma 120.000000
_cell_volume 6175.740336
_symmetry_space_group_name_H-M "P 6 M M"
_symmetry_group_IT_number 183
_symmetry_cell_setting 'hexagonal'
loop_
_space_group_symop_operation_xyz
x,y,z
x-y,x,z
-y,x-y,z
-x,-y,z
-x+y,-x,z
y,-x+y,z
-x+y,y,z
x,x-y,z
-y,-x,z
y,x,z
x-y,-y,z
-x,-x+y,z
loop_
_atom_site_type_symbol
_atom_site_label
_atom_site_fract_x
_atom_site_fract_y
_atom_site_fract_z
Si Si1 0.466587 0.366827 0.401070
Si Si2 0.903961 0.364225 0.130855
Si Si3 0.649243 0.906915 0.896695
Si Si4 0.096030 0.737546 0.744960
Si Si5 0.167092 0.498614 0.993933
Si Si6 0.500407 0.669233 0.265117
Si Si7 0.667319 0.504652 0.639895
Si Si8 0.733362 0.098984 0.523420
O O1 0.564930 0.435071 0.412291
O O2 0.420528 0.420528 0.395656
O O3 0.455319 0.321097 0.333137
O O4 0.422425 0.304189 0.459629
O O5 0.899121 0.449561 0.133116
O O6 0.869749 0.319996 0.199173
O O7 0.000000 0.391913 0.123996
O O8 0.855823 0.319106 0.066412
O O9 0.673493 0.836747 0.910231
O O10 0.625613 0.899780 0.821383
O O11 0.572045 0.886863 0.942467
O O12 0.722334 0.000000 0.908141
O O13 0.166234 0.833767 0.730001
O O14 0.123453 0.681171 0.704765
O O15 0.000000 0.709267 0.729302
O O16 0.263024 0.526048 0.982084
O O17 0.152535 0.576268 0.988684
O O18 0.466845 0.733423 0.262828
O O19 0.424983 0.575018 0.265899
O O20 0.740200 0.480399 0.637894
O O21 0.576619 0.423382 0.634832
O O22 0.688230 0.571070 0.582661
O O23 0.832112 0.167889 0.527710
O O24 0.703922 0.000000 0.523186
#
# Coordination Sequence:
#
# PCOD9584926 Si02
#       8
#    12  12  12  12  12  12  12  12
#     4   9  17  29  45  64  86 113 145 180 216 257
#     4   9  17  28  41  56  75 103 141 184 225 261
#     4   9  18  32  49  68  90 117 149 185 225 268
#     4   9  18  32  49  69  92 119 151 186 225 267
#     4  10  19  30  44  63  88 117 149 184 222 264
#     4  10  18  27  39  56  80 109 141 176 215 259
#     4  10  20  33  49  70  96 125 155 187 222 259
#     4  10  20  33  49  69  92 118 149 185 226 270
#
# _framework density 15.544695000000001
#
# number of rings (size 3 to 8) (size 9 to 14) (size 15 to 20)
#    0.000    2.500    0.000    2.625    0.000    4.250 
#    0.000    2.500    0.000    5.875    0.000    1.750 
#    0.000    3.000    0.000    0.125    0.000    0.000 
#
# Total GULP energy -534591.076495 kJ/mol
# GULP energy per Si atom -5568.657047 kJ/mol
# Density = 1.550931 g / cm^3
# Si number density = 15.544695 Si / 1000 Ang^3
#
#
#
# Elastic Constant Matrix: (Units=GPa)
#
#
# Indices 1 2 3 4 5 6 
#
# 1 65.3777 52.2724 40.2167 0.0000 0.0000 0.0000
# 2 52.2724 65.3777 40.2167 0.0000 0.0000 0.0000
# 3 40.2167 40.2167 68.1609 0.0000 0.0000 0.0000
# 4 0.0000 0.0000 0.0000 19.3702 0.0000 0.0000
# 5 0.0000 0.0000 0.0000 0.0000 19.3702 0.0000
# 6 0.0000 0.0000 0.0000 0.0000 0.0000 6.5526
#
#
#
# Elastic Compliance Matrix: (Units=1/GPa)
#
#
# Indices 1 2 3 4 5 6 
#
# 1 0.045276 -0.031029 -0.008406 0.000000 0.000000 0.000000
# 2 -0.031029 0.045276 -0.008406 0.000000 0.000000 0.000000
# 3 -0.008406 -0.008406 0.024591 0.000000 0.000000 0.000000
# 4 0.000000 0.000000 0.000000 0.051626 0.000000 0.000000
# 5 0.000000 0.000000 0.000000 0.000000 0.051626 0.000000
# 6 0.000000 0.000000 0.000000 0.000000 0.000000 0.152610
#
#
# Mechanical properties :
#
#
# Convention : Reuss Voigt Hill
#
# Bulk Modulus (GPa) = 51.38679 51.59199 51.48939
# Shear Modulus (GPa) = 10.56697 13.47262 12.01980
#
# Velocity S-wave (km/s) = 2.61009 2.94717 2.78374
# Velocity P-wave (km/s) = 6.49712 6.69646 6.59755
#
# Compressibility (1/GPa) = 0.01946026
#
# Stress axis : x y z
#
# Youngs Moduli (GPa) = 22.08683 22.08683 40.66602
#
# Poissons Ratio (x) = 0.68534 0.34183
# Poissons Ratio (y) = 0.68534 0.34183
# Poissons Ratio (z) = 0.18566 0.18566
#
# Static dielectric constant tensor:
#      x y z
#    x 1.510020 0.000000 0.000000 
#    y 0.000000 1.510020 0.000000 
#    z 0.000000 0.000000 1.545800 
# 
# From -- ./inp_files/2961.got.cif
#   From: 2010.05.17/outbox.cif.g08.bks.cpg/sg183_2_cif.got.tgz:2961.got - 2010.05.20 12:02:58.
