data_PCOD9584453
_publ_section_title
;
Structure prediction by ZEFSAII (Michael W. Deem and Ramdas Pophale) SiO2 
 PCOD9584453
Probable space group: P 64 2 2
;
_chemical_formula_sum "Si O2"
_cell_formula_units_Z 63
_cell_length_a 19.733093
_cell_length_b 19.733093
_cell_length_c 9.102587
_cell_angle_alpha 90.000000
_cell_angle_beta 90.000000
_cell_angle_gamma 120.000000
_cell_volume 3069.628338
_symmetry_space_group_name_H-M "P 64 2 2"
_symmetry_group_IT_number 181
_symmetry_cell_setting 'hexagonal'
loop_
_space_group_symop_operation_xyz
x,y,z
x-y,x,2/3+z
-y,x-y,1/3+z
-x,-y,z
-x+y,-x,2/3+z
y,-x+y,1/3+z
x-y,-y,-z
-x,-x+y,2/3-z
y,x,1/3-z
-y,-x,1/3-z
-x+y,y,-z
x,x-y,2/3-z
loop_
_atom_site_type_symbol
_atom_site_label
_atom_site_fract_x
_atom_site_fract_y
_atom_site_fract_z
Si Si1 0.333000 0.166500 0.833334
Si Si2 0.428972 0.380253 0.405139
Si Si3 0.269608 0.573079 0.664023
Si Si4 0.127064 0.563532 0.833334
Si Si5 0.757294 0.576553 0.776681
Si Si6 0.664865 0.731471 0.054807
Si Si7 0.500000 0.500000 0.666667
O O1 0.386738 0.235525 0.718775
O O2 0.291020 0.090393 0.732790
O O3 0.487592 0.410593 0.267007
O O4 0.401092 0.290866 0.447886
O O5 0.352038 0.384253 0.360311
O O6 0.473063 0.428946 0.551136
O O7 0.337028 0.662973 0.666667
O O8 0.273099 0.546197 0.500000
O O9 0.186823 0.559548 0.716459
O O10 0.285754 0.517304 0.769544
O O11 0.849963 0.610336 0.801084
O O12 0.719212 0.719212 0.166667
#
# Coordination Sequence:
#
# PCOD9584453 Si02
#       7
#     6  12  12   6  12  12   3
#     4   8  20  41  66  96 129 172 227 290 357 445
#     4  12  28  46  73 102 139 184 250 303 376 444
#     4  12  23  40  61  86 132 179 242 308 372 433
#     4  12  30  42  66  98 131 186 244 322 366 451
#     4  10  23  43  70  92 134 183 234 302 374 433
#     4  10  22  43  72  94 134 182 229 303 375 442
#     4  12  32  42  72 108 128 198 236 314 360 430
#
# _framework density 20.523655999999999
#
# number of rings (size 3 to 8) (size 9 to 14) (size 15 to 20)
#    1.143    0.000    1.905    3.429    9.333    2.286 
#    0.000    0.000    0.000    0.000    0.000    0.000 
#    0.000    0.000    0.000   30.000    0.000    0.190 
#
# Total GULP energy -351377.912834 kJ/mol
# GULP energy per Si atom -5577.427188 kJ/mol
# Density = 2.047694 g / cm^3
# Si number density = 20.523656 Si / 1000 Ang^3
#
#
#
# Elastic Constant Matrix: (Units=GPa)
#
#
# Indices 1 2 3 4 5 6 
#
# 1 104.6860 44.4668 53.0758 0.0000 0.0000 0.0000
# 2 44.4668 104.6860 53.0758 0.0000 0.0000 0.0000
# 3 53.0758 53.0758 141.1604 0.0000 0.0000 0.0000
# 4 0.0000 0.0000 0.0000 44.7372 0.0000 0.0000
# 5 0.0000 0.0000 0.0000 0.0000 44.7372 0.0000
# 6 0.0000 0.0000 0.0000 0.0000 0.0000 30.1096
#
#
#
# Elastic Compliance Matrix: (Units=1/GPa)
#
#
# Indices 1 2 3 4 5 6 
#
# 1 0.012880 -0.003726 -0.003442 0.000000 0.000000 0.000000
# 2 -0.003726 0.012880 -0.003442 0.000000 0.000000 0.000000
# 3 -0.003442 -0.003442 0.009672 0.000000 0.000000 0.000000
# 4 0.000000 0.000000 0.000000 0.022353 0.000000 0.000000
# 5 0.000000 0.000000 0.000000 0.000000 0.022353 0.000000
# 6 0.000000 0.000000 0.000000 0.000000 0.000000 0.033212
#
#
# Mechanical properties :
#
#
# Convention : Reuss Voigt Hill
#
# Bulk Modulus (GPa) = 70.35796 72.41878 71.38837
# Shear Modulus (GPa) = 35.89187 37.24441 36.56814
#
# Velocity S-wave (km/s) = 4.18641 4.26456 4.22566
# Velocity P-wave (km/s) = 7.59762 7.72080 7.65946
#
# Compressibility (1/GPa) = 0.01421303
#
# Stress axis : x y z
#
# Youngs Moduli (GPa) = 77.63931 77.63931 103.38649
#
# Poissons Ratio (x) = 0.28928 0.35585
# Poissons Ratio (y) = 0.28928 0.35585
# Poissons Ratio (z) = 0.26723 0.26723
#
# Static dielectric constant tensor:
#      x y z
#    x 1.753140 0.000000 0.000000 
#    y 0.000000 1.753140 0.000000 
#    z 0.000000 0.000000 1.738290 
# 
# From -- ./inp_files/3137.got.cif
#   From: 2010.05.17/outbox.cif.g08.bks.cpg/sg181_2_cif.got.tgz:3137.got - 2010.05.20 11:51:17.
