data_PCOD9584826
_publ_section_title
;
Structure prediction by ZEFSAII (Michael W. Deem and Ramdas Pophale) SiO2 
 PCOD9584826
Probable space group: P 63 2 2
;
_chemical_formula_sum "Si O2"
_cell_formula_units_Z 64
_cell_length_a 15.015110
_cell_length_b 15.015110
_cell_length_c 15.587673
_cell_angle_alpha 90.000000
_cell_angle_beta 90.000000
_cell_angle_gamma 120.000000
_cell_volume 3043.469505
_symmetry_space_group_name_H-M "P 63 2 2"
_symmetry_group_IT_number 182
_symmetry_cell_setting 'hexagonal'
loop_
_space_group_symop_operation_xyz
x,y,z
x-y,x,1/2+z
-y,x-y,z
-x,-y,1/2+z
-x+y,-x,z
y,-x+y,1/2+z
x-y,-y,-z
-x,-x+y,-z
y,x,-z
-y,-x,1/2-z
-x+y,y,1/2-z
x,x-y,1/2-z
loop_
_atom_site_type_symbol
_atom_site_label
_atom_site_fract_x
_atom_site_fract_y
_atom_site_fract_z
Si Si1 0.201953 0.026012 0.900395
Si Si2 0.154318 0.374709 0.875939
Si Si3 0.000000 0.000000 0.850749
Si Si4 0.362965 0.454394 0.773929
Si Si5 0.567053 0.823968 0.423171
Si Si6 0.596987 0.465744 0.657686
O O1 0.319448 0.110478 0.880347
O O2 0.166249 0.913911 0.861439
O O3 0.117133 0.056851 0.882106
O O4 0.197522 0.000000 0.000000
O O5 0.265483 0.420787 0.833780
O O6 0.085983 0.408099 0.819940
O O7 0.167824 0.410790 0.974490
O O8 0.000000 0.000000 0.750000
O O9 0.425996 0.574004 0.750000
O O10 0.440606 0.423167 0.817919
O O11 0.492142 0.868518 0.399793
O O12 0.511557 0.707113 0.388154
O O13 0.587945 0.412056 0.750000
#
# Coordination Sequence:
#
# PCOD9584826 Si02
#       6
#    12  12   4  12  12  12
#     4  10  23  45  67  97 138 180 225 295 346 416
#     4  10  24  44  70 101 138 189 230 295 354 429
#     4  12  28  38  70 102 133 176 235 279 361 425
#     4  10  23  44  69  99 141 182 238 285 364 421
#     4  11  25  45  74 101 145 181 245 290 360 424
#     4  11  24  43  70 103 140 188 228 299 354 432
#
# _framework density 21.028632000000002
#
# number of rings (size 3 to 8) (size 9 to 14) (size 15 to 20)
#    0.000    1.500    0.000    3.750    7.875    2.250 
#    7.875    0.000    0.000    0.000    0.000    0.000 
#    0.000    0.000    0.000    0.000    0.000    0.000 
#
# Total GULP energy -356911.345146 kJ/mol
# GULP energy per Si atom -5576.739768 kJ/mol
# Density = 2.098077 g / cm^3
# Si number density = 21.028632 Si / 1000 Ang^3
#
#
#
# Elastic Constant Matrix: (Units=GPa)
#
#
# Indices 1 2 3 4 5 6 
#
# 1 149.0633 73.4265 41.9452 0.0000 0.0000 0.0000
# 2 73.4265 149.0633 41.9452 0.0000 0.0000 0.0000
# 3 41.9452 41.9452 89.5034 0.0000 0.0000 0.0000
# 4 0.0000 0.0000 0.0000 43.5150 0.0000 0.0000
# 5 0.0000 0.0000 0.0000 0.0000 43.5150 0.0000
# 6 0.0000 0.0000 0.0000 0.0000 0.0000 37.8184
#
#
#
# Elastic Compliance Matrix: (Units=1/GPa)
#
#
# Indices 1 2 3 4 5 6 
#
# 1 0.009340 -0.003881 -0.002558 0.000000 0.000000 0.000000
# 2 -0.003881 0.009340 -0.002558 0.000000 0.000000 0.000000
# 3 -0.002558 -0.002558 0.013571 0.000000 0.000000 0.000000
# 4 0.000000 0.000000 0.000000 0.022981 0.000000 0.000000
# 5 0.000000 0.000000 0.000000 0.000000 0.022981 0.000000
# 6 0.000000 0.000000 0.000000 0.000000 0.000000 0.026442
#
#
# Mechanical properties :
#
#
# Convention : Reuss Voigt Hill
#
# Bulk Modulus (GPa) = 70.14839 78.02930 74.08885
# Shear Modulus (GPa) = 39.24591 40.32391 39.78491
#
# Velocity S-wave (km/s) = 4.32477 4.38376 4.35436
# Velocity P-wave (km/s) = 7.63997 7.92527 7.78392
#
# Compressibility (1/GPa) = 0.01425549
#
# Stress axis : x y z
#
# Youngs Moduli (GPa) = 107.06447 107.06447 73.68786
#
# Poissons Ratio (x) = 0.41551 0.18853
# Poissons Ratio (y) = 0.41551 0.18853
# Poissons Ratio (z) = 0.27392 0.27392
#
# Static dielectric constant tensor:
#      x y z
#    x 1.793180 0.000000 0.000000 
#    y 0.000000 1.793180 0.000000 
#    z 0.000000 0.000000 1.788570 
# 
# From -- ./inp_files/4265.got.cif
#   From: 2010.05.17/outbox.cif.g08.bks.cpg/sg182_3_cif.got.tgz:4265.got - 2010.05.20 11:58:53.
