data_PCOD9584109
_publ_section_title
;
Structure prediction by ZEFSAII (Michael W. Deem and Ramdas Pophale) SiO2 
 PCOD9584109
Probable space group: P 62 2 2
;
_chemical_formula_sum "Si O2"
_cell_formula_units_Z 36
_cell_length_a 8.862044
_cell_length_b 8.862044
_cell_length_c 25.564661
_cell_angle_alpha 90.000000
_cell_angle_beta 90.000000
_cell_angle_gamma 120.000000
_cell_volume 1738.755328
_symmetry_space_group_name_H-M "P 62 2 2"
_symmetry_group_IT_number 180
_symmetry_cell_setting 'hexagonal'
loop_
_space_group_symop_operation_xyz
x,y,z
x-y,x,1/3+z
-y,x-y,2/3+z
-x,-y,z
-x+y,-x,1/3+z
y,-x+y,2/3+z
x-y,-y,-z
-x,-x+y,1/3-z
y,x,2/3-z
-y,-x,2/3-z
-x+y,y,-z
x,x-y,1/3-z
loop_
_atom_site_type_symbol
_atom_site_label
_atom_site_fract_x
_atom_site_fract_y
_atom_site_fract_z
Si Si1 0.841115 0.032709 0.775688
Si Si2 0.339450 0.828549 0.942598
Si Si3 0.510529 0.172477 0.556985
O O1 0.877360 0.122641 0.833334
O O2 0.836948 0.164292 0.733007
O O3 0.670028 0.842442 0.778236
O O4 0.000000 0.000000 0.764738
O O5 0.304164 0.650418 0.917770
O O6 0.500000 0.000000 0.916199
O O7 0.413310 0.826619 0.000000
O O8 0.589323 0.178645 0.500000
O O9 0.500000 0.000000 0.582532
#
# Coordination Sequence:
#
# PCOD9584109 Si02
#       3
#    12  12  12
#     4  11  22  41  69  99 128 165 215 274 329 385
#     4  11  24  42  61  89 127 170 214 261 318 388
#     4  11  22  39  64  95 127 162 208 265 316 376
#
# _framework density 20.704466
#
# number of rings (size 3 to 8) (size 9 to 14) (size 15 to 20)
#    0.000    1.000    0.000   10.000    0.000    2.667 
#    0.000   10.000    0.000    0.000    0.000    0.000 
#    0.000    0.000    0.000    0.000    0.000    0.000 
#
# Total GULP energy -201026.542876 kJ/mol
# GULP energy per Si atom -5584.070635 kJ/mol
# Density = 2.065734 g / cm^3
# Si number density = 20.704466 Si / 1000 Ang^3
#
#
#
# Elastic Constant Matrix: (Units=GPa)
#
#
# Indices 1 2 3 4 5 6 
#
# 1 187.8835 85.1827 49.4261 0.0000 0.0000 0.0000
# 2 85.1827 187.8835 49.4261 0.0000 0.0000 0.0000
# 3 49.4261 49.4261 62.0711 0.0000 0.0000 0.0000
# 4 0.0000 0.0000 0.0000 142.8345 0.0000 0.0000
# 5 0.0000 0.0000 0.0000 0.0000 142.8345 0.0000
# 6 0.0000 0.0000 0.0000 0.0000 0.0000 51.3504
#
#
#
# Elastic Compliance Matrix: (Units=1/GPa)
#
#
# Indices 1 2 3 4 5 6 
#
# 1 0.007441 -0.002296 -0.004097 0.000000 0.000000 0.000000
# 2 -0.002296 0.007441 -0.004097 0.000000 0.000000 0.000000
# 3 -0.004097 -0.004097 0.022635 0.000000 0.000000 0.000000
# 4 0.000000 0.000000 0.000000 0.007001 0.000000 0.000000
# 5 0.000000 0.000000 0.000000 0.000000 0.007001 0.000000
# 6 0.000000 0.000000 0.000000 0.000000 0.000000 0.019474
#
#
# Mechanical properties :
#
#
# Convention : Reuss Voigt Hill
#
# Bulk Modulus (GPa) = 60.46820 89.54533 75.00677
# Shear Modulus (GPa) = 51.28900 84.32409 67.80654
#
# Velocity S-wave (km/s) = 4.98254 6.38873 5.72895
# Velocity P-wave (km/s) = 7.89745 9.88759 8.94802
#
# Compressibility (1/GPa) = 0.01653762
#
# Stress axis : x y z
#
# Youngs Moduli (GPa) = 134.38757 134.38757 44.17845
#
# Poissons Ratio (x) = 0.30853 0.18100
# Poissons Ratio (y) = 0.30853 0.18100
# Poissons Ratio (z) = 0.55060 0.55060
#
# Static dielectric constant tensor:
#      x y z
#    x 1.797600 0.000000 0.000000 
#    y 0.000000 1.797600 0.000000 
#    z 0.000000 0.000000 1.718650 
# 
# From -- ./inp_files/10749.got.cif
#   From: 2010.05.17/outbox.cif.g08.bks.cpg/sg180_6_cif.got.tgz:10749.got - 2010.05.20 11:43:55.
