data_PCOD9584485
_publ_section_title
;
Structure prediction by ZEFSAII (Michael W. Deem and Ramdas Pophale) SiO2 
 PCOD9584485
Probable space group: P 64 2 2
;
_chemical_formula_sum "Si O2"
_cell_formula_units_Z 75
_cell_length_a 15.500610
_cell_length_b 15.500610
_cell_length_c 18.942262
_cell_angle_alpha 90.000000
_cell_angle_beta 90.000000
_cell_angle_gamma 120.000000
_cell_volume 3941.486558
_symmetry_space_group_name_H-M "P 64 2 2"
_symmetry_group_IT_number 181
_symmetry_cell_setting 'hexagonal'
loop_
_space_group_symop_operation_xyz
x,y,z
x-y,x,2/3+z
-y,x-y,1/3+z
-x,-y,z
-x+y,-x,2/3+z
y,-x+y,1/3+z
x-y,-y,-z
-x,-x+y,2/3-z
y,x,1/3-z
-y,-x,1/3-z
-x+y,y,-z
x,x-y,2/3-z
loop_
_atom_site_type_symbol
_atom_site_label
_atom_site_fract_x
_atom_site_fract_y
_atom_site_fract_z
Si Si1 0.108526 0.411238 0.919702
Si Si2 0.567937 0.118127 0.169177
Si Si3 0.723919 0.621612 0.314149
Si Si4 0.080091 0.735272 0.149298
Si Si5 0.753672 0.144125 0.864564
Si Si6 0.794528 0.392929 0.654654
Si Si7 0.500000 0.500000 0.166667
O O1 0.181780 0.395399 0.868251
O O2 0.070976 0.472439 0.874600
O O3 0.006079 0.316549 0.945563
O O4 0.156929 0.484999 0.985387
O O5 0.670569 0.124223 0.145511
O O6 0.496298 0.146317 0.125877
O O7 0.595266 0.184040 0.238949
O O8 0.500000 0.000000 0.188303
O O9 0.728172 0.640797 0.397913
O O10 0.818577 0.637914 0.268760
O O11 0.649870 0.501382 0.308779
O O12 0.150230 0.849771 0.166667
O O13 0.968065 0.688013 0.175790
O O14 0.676434 0.323567 0.666667
#
# Coordination Sequence:
#
# PCOD9584485 Si02
#       7
#    12  12  12  12  12  12   3
#     4  12  19  33  53  91 129 158 186 239 301 367
#     4   9  19  35  54  78 111 152 196 241 294 359
#     4  11  23  36  57  88 121 156 203 249 304 367
#     4  10  24  43  59  80 114 160 207 262 306 355
#     4  11  21  37  62  89 118 158 202 244 311 382
#     4  11  19  30  52  85 126 169 194 229 288 367
#     4  12  20  32  52  88 142 152 172 238 304 348
#
# _framework density 19.028354
#
# number of rings (size 3 to 8) (size 9 to 14) (size 15 to 20)
#    0.000    1.280    4.800    2.880    0.000    3.200 
#    1.440    0.000    0.000    4.800    0.000    4.480 
#    0.000    0.000    0.000    0.000    0.000    0.000 
#
# Total GULP energy -417944.391258 kJ/mol
# GULP energy per Si atom -5572.591883 kJ/mol
# Density = 1.898504 g / cm^3
# Si number density = 19.028354 Si / 1000 Ang^3
#
#
#
# Elastic Constant Matrix: (Units=GPa)
#
#
# Indices 1 2 3 4 5 6 
#
# 1 104.7669 28.8305 19.2749 0.0000 0.0000 0.0000
# 2 28.8305 104.7669 19.2749 0.0000 0.0000 0.0000
# 3 19.2749 19.2749 34.0001 0.0000 0.0000 0.0000
# 4 0.0000 0.0000 0.0000 24.1148 0.0000 0.0000
# 5 0.0000 0.0000 0.0000 0.0000 24.1148 0.0000
# 6 0.0000 0.0000 0.0000 0.0000 0.0000 37.9682
#
#
#
# Elastic Compliance Matrix: (Units=1/GPa)
#
#
# Indices 1 2 3 4 5 6 
#
# 1 0.011059 -0.002110 -0.005073 0.000000 0.000000 0.000000
# 2 -0.002110 0.011059 -0.005073 0.000000 0.000000 0.000000
# 3 -0.005073 -0.005073 0.035164 0.000000 0.000000 0.000000
# 4 0.000000 0.000000 0.000000 0.041468 0.000000 0.000000
# 5 0.000000 0.000000 0.000000 0.000000 0.041468 0.000000
# 6 0.000000 0.000000 0.000000 0.000000 0.000000 0.026338
#
#
# Mechanical properties :
#
#
# Convention : Reuss Voigt Hill
#
# Bulk Modulus (GPa) = 30.51683 42.03272 36.27477
# Shear Modulus (GPa) = 24.75341 28.98311 26.86826
#
# Velocity S-wave (km/s) = 3.61067 3.90699 3.76175
# Velocity P-wave (km/s) = 5.78403 6.51846 6.16219
#
# Compressibility (1/GPa) = 0.03276881
#
# Stress axis : x y z
#
# Youngs Moduli (GPa) = 90.42405 90.42405 28.43835
#
# Poissons Ratio (x) = 0.19079 0.14428
# Poissons Ratio (y) = 0.19079 0.14428
# Poissons Ratio (z) = 0.45875 0.45875
#
# Static dielectric constant tensor:
#      x y z
#    x 1.761270 0.000000 0.000000 
#    y 0.000000 1.761270 0.000000 
#    z 0.000000 0.000000 1.689100 
# 
# From -- ./inp_files/9083.got.cif
#   From: 2010.05.17/outbox.cif.g08.bks.cpg/sg181_5_cif.got.tgz:9083.got - 2010.05.20 11:51:17.
