data_PCOD9584840
_publ_section_title
;
Structure prediction by ZEFSAII (Michael W. Deem and Ramdas Pophale) SiO2 
 PCOD9584840
Probable space group: P 63 2 2
;
_chemical_formula_sum "Si O2"
_cell_formula_units_Z 28
_cell_length_a 9.033743
_cell_length_b 9.033743
_cell_length_c 17.158310
_cell_angle_alpha 90.000000
_cell_angle_beta 90.000000
_cell_angle_gamma 120.000000
_cell_volume 1212.664333
_symmetry_space_group_name_H-M "P 63 2 2"
_symmetry_group_IT_number 182
_symmetry_cell_setting 'hexagonal'
loop_
_space_group_symop_operation_xyz
x,y,z
x-y,x,1/2+z
-y,x-y,z
-x,-y,1/2+z
-x+y,-x,z
y,-x+y,1/2+z
x-y,-y,-z
-x,-x+y,-z
y,x,-z
-y,-x,1/2-z
-x+y,y,1/2-z
x,x-y,1/2-z
loop_
_atom_site_type_symbol
_atom_site_label
_atom_site_fract_x
_atom_site_fract_y
_atom_site_fract_z
Si Si1 0.710684 0.991754 0.698889
Si Si2 0.000000 0.000000 0.907239
Si Si3 0.471443 0.584854 0.075922
O O1 0.843702 0.156299 0.750000
O O2 0.567553 0.016254 0.655921
O O3 0.647360 0.823680 0.750000
O O4 0.824596 0.974129 0.630025
O O5 0.000000 0.000000 0.000000
O O6 0.515694 0.782349 0.074754
O O7 0.539782 0.539782 0.000000
#
# Coordination Sequence:
#
# PCOD9584840 Si02
#       3
#    12   4  12
#     4   9  19  36  61 101 136 175 232 286 357 431
#     4   9  16  29  58  93 127 173 229 282 343 416
#     4  10  24  43  67  98 141 186 242 293 358 424
#
# _framework density 23.089655
#
# number of rings (size 3 to 8) (size 9 to 14) (size 15 to 20)
#    0.857    1.714    0.000    3.000    0.000   10.286 
#    0.000    0.000    0.000    0.857    0.000    0.000 
#    0.000    0.000    0.000    0.000    0.000    0.000 
#
# Total GULP energy -156514.046392 kJ/mol
# GULP energy per Si atom -5589.787371 kJ/mol
# Density = 2.303710 g / cm^3
# Si number density = 23.089655 Si / 1000 Ang^3
#
#
#
# Elastic Constant Matrix: (Units=GPa)
#
#
# Indices 1 2 3 4 5 6 
#
# 1 68.3225 34.7099 44.3180 0.0000 0.0000 0.0000
# 2 34.7099 68.3225 44.3180 0.0000 0.0000 0.0000
# 3 44.3180 44.3180 174.5145 0.0000 0.0000 0.0000
# 4 0.0000 0.0000 0.0000 31.4070 0.0000 0.0000
# 5 0.0000 0.0000 0.0000 0.0000 31.4070 0.0000
# 6 0.0000 0.0000 0.0000 0.0000 0.0000 16.8063
#
#
#
# Elastic Compliance Matrix: (Units=1/GPa)
#
#
# Indices 1 2 3 4 5 6 
#
# 1 0.021085 -0.008666 -0.003154 0.000000 0.000000 0.000000
# 2 -0.008666 0.021085 -0.003154 0.000000 0.000000 0.000000
# 3 -0.003154 -0.003154 0.007332 0.000000 0.000000 0.000000
# 4 0.000000 0.000000 0.000000 0.031840 0.000000 0.000000
# 5 0.000000 0.000000 0.000000 0.000000 0.031840 0.000000
# 6 0.000000 0.000000 0.000000 0.000000 0.000000 0.059501
#
#
# Mechanical properties :
#
#
# Convention : Reuss Voigt Hill
#
# Bulk Modulus (GPa) = 51.13906 61.98347 56.56126
# Shear Modulus (GPa) = 23.90650 28.44498 26.17574
#
# Velocity S-wave (km/s) = 3.22122 3.51370 3.37063
# Velocity P-wave (km/s) = 6.00259 6.58517 6.30062
#
# Compressibility (1/GPa) = 0.01955453
#
# Stress axis : x y z
#
# Youngs Moduli (GPa) = 47.42762 47.42762 136.38885
#
# Poissons Ratio (x) = 0.41101 0.43014
# Poissons Ratio (y) = 0.41101 0.43014
# Poissons Ratio (z) = 0.14958 0.14958
#
# Static dielectric constant tensor:
#      x y z
#    x 1.896110 0.000000 0.000000 
#    y 0.000000 1.896110 0.000000 
#    z 0.000000 0.000000 1.836800 
# 
# From -- ./inp_files/2874.got.cif
#   From: 2010.05.17/outbox.cif.g08.bks.cpg/sg182_2_cif.got.tgz:2874.got - 2010.05.20 11:58:53.
