data_PCOD9584285
_publ_section_title
;
Structure prediction by ZEFSAII (Michael W. Deem and Ramdas Pophale) SiO2 
 PCOD9584285
Probable space group: P 64 2 2
;
_chemical_formula_sum "Si O2"
_cell_formula_units_Z 84
_cell_length_a 17.664541
_cell_length_b 17.664541
_cell_length_c 14.291758
_cell_angle_alpha 90.000000
_cell_angle_beta 90.000000
_cell_angle_gamma 120.000000
_cell_volume 3862.077635
_symmetry_space_group_name_H-M "P 64 2 2"
_symmetry_group_IT_number 181
_symmetry_cell_setting 'hexagonal'
loop_
_space_group_symop_operation_xyz
x,y,z
x-y,x,2/3+z
-y,x-y,1/3+z
-x,-y,z
-x+y,-x,2/3+z
y,-x+y,1/3+z
x-y,-y,-z
-x,-x+y,2/3-z
y,x,1/3-z
-y,-x,1/3-z
-x+y,y,-z
x,x-y,2/3-z
loop_
_atom_site_type_symbol
_atom_site_label
_atom_site_fract_x
_atom_site_fract_y
_atom_site_fract_z
Si Si1 0.476447 0.695233 0.695523
Si Si2 0.611166 0.822171 0.543909
Si Si3 0.621584 0.484890 0.455998
Si Si4 0.474231 0.166995 0.287600
Si Si5 0.017872 0.659059 0.990088
Si Si6 0.169603 0.982738 0.710009
Si Si7 0.194767 0.134315 0.585761
O O1 0.381294 0.618707 0.666667
O O2 0.543390 0.746126 0.612673
O O3 0.470644 0.773142 0.745765
O O4 0.509029 0.648856 0.769879
O O5 0.588243 0.774472 0.444457
O O6 0.611582 0.912395 0.570824
O O7 0.709065 0.846369 0.563835
O O8 0.534447 0.393157 0.439414
O O9 0.623327 0.562902 0.398141
O O10 0.528015 0.264008 0.333334
O O11 0.417377 0.082693 0.353865
O O12 0.013852 0.741928 0.033406
O O13 0.113256 0.886745 0.666667
O O14 0.144186 0.983857 0.818154
O O15 0.148230 0.041802 0.640159
O O16 0.198703 0.198703 0.666667
#
# Coordination Sequence:
#
# PCOD9584285 Si02
#       7
#    12  12  12  12  12  12  12
#     4  10  19  38  63  92 125 169 220 271 327 402
#     4  10  23  39  62  94 128 171 221 266 337 406
#     4  10  22  38  64  93 131 171 215 279 333 393
#     4  12  23  41  65  95 129 177 226 274 335 406
#     4  10  23  41  61  91 134 169 217 273 333 395
#     4  11  23  43  67  96 128 178 221 271 331 409
#     4  11  24  41  65  97 133 167 221 277 339 398
#
# _framework density 21.749950999999999
#
# number of rings (size 3 to 8) (size 9 to 14) (size 15 to 20)
#    0.000    1.429    2.857    2.143    2.000    0.857 
#    0.000    1.429    0.000    3.429    0.000    0.000 
#    0.000    0.000    0.000    0.000    0.000    0.000 
#
# Total GULP energy -468388.499941 kJ/mol
# GULP energy per Si atom -5576.053571 kJ/mol
# Density = 2.170045 g / cm^3
# Si number density = 21.749951 Si / 1000 Ang^3
#
#
#
# Elastic Constant Matrix: (Units=GPa)
#
#
# Indices 1 2 3 4 5 6 
#
# 1 95.9073 17.1117 26.1391 0.0000 0.0000 0.0000
# 2 17.1117 95.9073 26.1391 0.0000 0.0000 0.0000
# 3 26.1391 26.1391 95.7801 0.0000 0.0000 0.0000
# 4 0.0000 0.0000 0.0000 21.1551 0.0000 0.0000
# 5 0.0000 0.0000 0.0000 0.0000 21.1551 0.0000
# 6 0.0000 0.0000 0.0000 0.0000 0.0000 39.3978
#
#
#
# Elastic Compliance Matrix: (Units=1/GPa)
#
#
# Indices 1 2 3 4 5 6 
#
# 1 0.011409 -0.001282 -0.002764 0.000000 0.000000 0.000000
# 2 -0.001282 0.011409 -0.002764 0.000000 0.000000 0.000000
# 3 -0.002764 -0.002764 0.011949 0.000000 0.000000 0.000000
# 4 0.000000 0.000000 0.000000 0.047270 0.000000 0.000000
# 5 0.000000 0.000000 0.000000 0.000000 0.047270 0.000000
# 6 0.000000 0.000000 0.000000 0.000000 0.000000 0.025382
#
#
# Mechanical properties :
#
#
# Convention : Reuss Voigt Hill
#
# Bulk Modulus (GPa) = 47.28694 47.37495 47.33095
# Shear Modulus (GPa) = 28.51331 30.88857 29.70094
#
# Velocity S-wave (km/s) = 3.62465 3.77260 3.69936
# Velocity P-wave (km/s) = 6.26943 6.38793 6.32896
#
# Compressibility (1/GPa) = 0.02114749
#
# Stress axis : x y z
#
# Youngs Moduli (GPa) = 87.65217 87.65217 83.68920
#
# Poissons Ratio (x) = 0.11240 0.23128
# Poissons Ratio (y) = 0.11240 0.23128
# Poissons Ratio (z) = 0.24223 0.24223
#
# Static dielectric constant tensor:
#      x y z
#    x 1.798520 0.000000 0.000000 
#    y 0.000000 1.798520 0.000000 
#    z 0.000000 0.000000 1.879430 
# 
# From -- ./inp_files/6487.got.cif
#   From: 2010.05.17/outbox.cif.g08.bks.cpg/sg181_4_cif.got.tgz:6487.got - 2010.05.20 11:51:17.
