data_PCOD9584628
_publ_section_title
;
Structure prediction by ZEFSAII (Michael W. Deem and Ramdas Pophale) SiO2 
 PCOD9584628
Probable space group: P 63 2 2
;
_chemical_formula_sum "Si O2"
_cell_formula_units_Z 40
_cell_length_a 12.543799
_cell_length_b 12.543799
_cell_length_c 13.249771
_cell_angle_alpha 90.000000
_cell_angle_beta 90.000000
_cell_angle_gamma 120.000000
_cell_volume 1805.498686
_symmetry_space_group_name_H-M "P 63 2 2"
_symmetry_group_IT_number 182
_symmetry_cell_setting 'hexagonal'
loop_
_space_group_symop_operation_xyz
x,y,z
x-y,x,1/2+z
-y,x-y,z
-x,-y,1/2+z
-x+y,-x,z
y,-x+y,1/2+z
x-y,-y,-z
-x,-x+y,-z
y,x,-z
-y,-x,1/2-z
-x+y,y,1/2-z
x,x-y,1/2-z
loop_
_atom_site_type_symbol
_atom_site_label
_atom_site_fract_x
_atom_site_fract_y
_atom_site_fract_z
Si Si1 0.766973 0.027618 0.345550
Si Si2 0.793564 0.141827 0.990002
Si Si3 0.335373 0.443853 0.200376
Si Si4 0.000000 0.000000 0.879402
O O1 0.792610 0.152473 0.402535
O O2 0.893967 0.026988 0.344815
O O3 0.686925 0.909335 0.417151
O O4 0.692881 0.989934 0.240945
O O5 0.679581 0.125624 0.920790
O O6 0.760307 0.000000 0.000000
O O7 0.465307 0.534694 0.250000
O O8 0.238630 0.477260 0.250000
O O9 0.000000 0.000000 0.000000
#
# Coordination Sequence:
#
# PCOD9584628 Si02
#       4
#    12  12  12   4
#     4  10  18  34  59  90 134 163 195 255 342 425
#     4  10  18  35  55  92 123 160 199 245 330 407
#     4  10  23  41  59  84 120 174 226 274 312 378
#     4  12  15  33  57  97 148 152 175 256 335 445
#
# _framework density 22.154546
#
# number of rings (size 3 to 8) (size 9 to 14) (size 15 to 20)
#    0.000    1.800    6.000    0.300    0.000    1.200 
#   21.600    0.000    0.000    0.000    0.000    0.000 
#    0.000    0.000    0.000    0.000    0.000    0.000 
#
# Total GULP energy -222817.759782 kJ/mol
# GULP energy per Si atom -5570.443995 kJ/mol
# Density = 2.210412 g / cm^3
# Si number density = 22.154546 Si / 1000 Ang^3
#
#
#
# Elastic Constant Matrix: (Units=GPa)
#
#
# Indices 1 2 3 4 5 6 
#
# 1 64.4957 21.5056 26.4684 0.0000 0.0000 0.0000
# 2 21.5056 64.4957 26.4684 0.0000 0.0000 0.0000
# 3 26.4684 26.4684 55.5569 0.0000 0.0000 0.0000
# 4 0.0000 0.0000 0.0000 23.0102 0.0000 0.0000
# 5 0.0000 0.0000 0.0000 0.0000 23.0102 0.0000
# 6 0.0000 0.0000 0.0000 0.0000 0.0000 21.4951
#
#
#
# Elastic Compliance Matrix: (Units=1/GPa)
#
#
# Indices 1 2 3 4 5 6 
#
# 1 0.019857 -0.003404 -0.007838 0.000000 0.000000 0.000000
# 2 -0.003404 0.019857 -0.007838 0.000000 0.000000 0.000000
# 3 -0.007838 -0.007838 0.025468 0.000000 0.000000 0.000000
# 4 0.000000 0.000000 0.000000 0.043459 0.000000 0.000000
# 5 0.000000 0.000000 0.000000 0.000000 0.043459 0.000000
# 6 0.000000 0.000000 0.000000 0.000000 0.000000 0.046522
#
#
# Mechanical properties :
#
#
# Convention : Reuss Voigt Hill
#
# Bulk Modulus (GPa) = 37.00962 37.04812 37.02887
# Shear Modulus (GPa) = 20.34253 20.84349 20.59301
#
# Velocity S-wave (km/s) = 3.03349 3.07061 3.05210
# Velocity P-wave (km/s) = 5.38617 5.41576 5.40098
#
# Compressibility (1/GPa) = 0.02702000
#
# Stress axis : x y z
#
# Youngs Moduli (GPa) = 50.36061 50.36061 39.26472
#
# Poissons Ratio (x) = 0.17144 0.30777
# Poissons Ratio (y) = 0.17144 0.30777
# Poissons Ratio (z) = 0.39474 0.39474
#
# Static dielectric constant tensor:
#      x y z
#    x 1.847850 0.000000 0.000000 
#    y 0.000000 1.847850 0.000000 
#    z 0.000000 0.000000 1.929370 
# 
# From -- ./inp_files/4011.got.cif
#   From: 2010.05.17/outbox.cif.g08.bks.cpg/sg182_3_cif.got.tgz:4011.got - 2010.05.20 11:58:53.
