data_PCOD9584864
_publ_section_title
;
Structure prediction by ZEFSAII (Michael W. Deem and Ramdas Pophale) SiO2 
 PCOD9584864
Probable space group: P 63 2 2
;
_chemical_formula_sum "Si O2"
_cell_formula_units_Z 64
_cell_length_a 14.676921
_cell_length_b 14.676921
_cell_length_c 17.420233
_cell_angle_alpha 90.000000
_cell_angle_beta 90.000000
_cell_angle_gamma 120.000000
_cell_volume 3249.784062
_symmetry_space_group_name_H-M "P 63 2 2"
_symmetry_group_IT_number 182
_symmetry_cell_setting 'hexagonal'
loop_
_space_group_symop_operation_xyz
x,y,z
x-y,x,1/2+z
-y,x-y,z
-x,-y,1/2+z
-x+y,-x,z
y,-x+y,1/2+z
x-y,-y,-z
-x,-x+y,-z
y,x,-z
-y,-x,1/2-z
-x+y,y,1/2-z
x,x-y,1/2-z
loop_
_atom_site_type_symbol
_atom_site_label
_atom_site_fract_x
_atom_site_fract_y
_atom_site_fract_z
Si Si1 0.211410 1.000000 0.093540
Si Si2 0.201558 0.430837 0.908942
Si Si3 0.000000 0.000000 0.906263
Si Si4 0.450877 0.575674 0.662460
Si Si5 0.569163 0.798442 0.408942
Si Si6 0.575674 0.450877 0.662460
O O1 0.318815 0.104383 0.117425
O O2 0.105902 1.000000 0.118081
O O3 0.214432 0.895617 0.117425
O O4 0.212027 0.000000 0.000000
O O5 0.310072 0.464010 0.866941
O O6 0.175032 0.522338 0.889755
O O7 0.213963 0.425106 1.000000
O O8 0.000000 0.000000 0.000000
O O9 0.419305 0.580696 0.750000
O O10 0.500362 0.500362 0.660172
O O11 0.477663 0.824968 0.389755
O O12 0.535990 0.689928 0.366941
O O13 0.580696 0.419305 0.750000
#
# Coordination Sequence:
#
# PCOD9584864 Si02
#       6
#    12  12   4  12  12  12
#     4   9  20  36  60  91 127 160 199 257 314 369
#     4  11  22  39  63  93 126 160 207 264 312 374
#     4   9  18  36  57  87 124 164 199 243 316 377
#     4  11  24  41  62  90 124 168 207 253 316 384
#     4  11  22  39  63  93 126 160 207 264 312 374
#     4  11  24  41  62  90 124 168 207 253 316 384
#
# _framework density 19.693615999999999
#
# number of rings (size 3 to 8) (size 9 to 14) (size 15 to 20)
#    0.000    1.500    1.875    3.000    2.625    2.250 
#    0.000    0.000    0.000    0.000    0.000    5.250 
#    0.000    0.000    0.000    0.000    0.000    0.000 
#
# Total GULP energy -357687.972492 kJ/mol
# GULP energy per Si atom -5588.874570 kJ/mol
# Density = 1.964879 g / cm^3
# Si number density = 19.693616 Si / 1000 Ang^3
#
#
#
# Elastic Constant Matrix: (Units=GPa)
#
#
# Indices 1 2 3 4 5 6 
#
# 1 69.3184 -16.5932 14.1883 0.0000 0.0000 0.0000
# 2 -16.5932 69.3184 14.1883 0.0000 0.0000 0.0000
# 3 14.1883 14.1883 66.6361 0.0000 0.0000 0.0000
# 4 0.0000 0.0000 0.0000 22.5732 0.0000 0.0000
# 5 0.0000 0.0000 0.0000 0.0000 22.5732 0.0000
# 6 0.0000 0.0000 0.0000 0.0000 0.0000 42.9558
#
#
#
# Elastic Compliance Matrix: (Units=1/GPa)
#
#
# Indices 1 2 3 4 5 6 
#
# 1 0.016530 0.004891 -0.004561 0.000000 0.000000 0.000000
# 2 0.004891 0.016530 -0.004561 0.000000 0.000000 0.000000
# 3 -0.004561 -0.004561 0.016949 0.000000 0.000000 0.000000
# 4 0.000000 0.000000 0.000000 0.044300 0.000000 0.000000
# 5 0.000000 0.000000 0.000000 0.000000 0.044300 0.000000
# 6 0.000000 0.000000 0.000000 0.000000 0.000000 0.023280
#
#
# Mechanical properties :
#
#
# Convention : Reuss Voigt Hill
#
# Bulk Modulus (GPa) = 24.06905 25.42661 24.74783
# Shear Modulus (GPa) = 27.14409 30.51976 28.83192
#
# Velocity S-wave (km/s) = 3.71660 3.94093 3.83041
# Velocity P-wave (km/s) = 5.53767 5.80061 5.67066
#
# Compressibility (1/GPa) = 0.04154714
#
# Stress axis : x y z
#
# Youngs Moduli (GPa) = 60.49455 60.49455 58.99998
#
# Poissons Ratio (x) = -0.29585 0.26910
# Poissons Ratio (y) = -0.29585 0.26910
# Poissons Ratio (z) = 0.27591 0.27591
#
# Static dielectric constant tensor:
#      x y z
#    x 1.674020 0.000000 0.000000 
#    y 0.000000 1.674020 0.000000 
#    z 0.000000 0.000000 1.683190 
# 
# From -- ./inp_files/4266.got.cif
#   From: 2010.05.17/outbox.cif.g08.bks.cpg/sg182_3_cif.got.tgz:4266.got - 2010.05.20 11:58:53.
