data_PCOD9584140
_publ_section_title
;
Structure prediction by ZEFSAII (Michael W. Deem and Ramdas Pophale) SiO2 
 PCOD9584140
Probable space group: P 62 2 2
;
_chemical_formula_sum "Si O2"
_cell_formula_units_Z 36
_cell_length_a 8.136234
_cell_length_b 8.136234
_cell_length_c 26.314785
_cell_angle_alpha 90.000000
_cell_angle_beta 90.000000
_cell_angle_gamma 120.000000
_cell_volume 1508.611169
_symmetry_space_group_name_H-M "P 62 2 2"
_symmetry_group_IT_number 180
_symmetry_cell_setting 'hexagonal'
loop_
_space_group_symop_operation_xyz
x,y,z
x-y,x,1/3+z
-y,x-y,2/3+z
-x,-y,z
-x+y,-x,1/3+z
y,-x+y,2/3+z
x-y,-y,-z
-x,-x+y,1/3-z
y,x,2/3-z
-y,-x,2/3-z
-x+y,y,-z
x,x-y,1/3-z
loop_
_atom_site_type_symbol
_atom_site_label
_atom_site_fract_x
_atom_site_fract_y
_atom_site_fract_z
Si Si1 0.424328 0.626464 0.117058
Si Si2 0.301026 0.994609 0.939127
Si Si3 0.711877 0.069788 0.380060
O O1 0.500000 0.500000 0.141220
O O2 0.343420 0.671710 0.166667
O O3 0.254209 0.502724 0.078825
O O4 0.614737 0.795018 0.089678
O O5 0.285951 0.180079 0.924233
O O6 0.500000 0.000000 0.931643
O O7 0.281484 0.000000 0.000000
O O8 0.857967 0.142034 0.333334
O O9 0.500000 0.000000 0.359244
#
# Coordination Sequence:
#
# PCOD9584140 Si02
#       3
#    12  12  12
#     4  12  28  50  73 114 161 208 261 325 401 474
#     4  11  23  46  76 111 151 197 259 324 382 464
#     4  12  25  46  83 116 151 205 268 325 396 476
#
# _framework density 23.863009000000002
#
# number of rings (size 3 to 8) (size 9 to 14) (size 15 to 20)
#    0.000    0.333    3.333    6.000    0.000    5.333 
#    0.000    1.667    0.000    0.000    0.000    0.000 
#    0.000    0.000    0.000    0.000    0.000    0.000 
#
# Total GULP energy -200705.663102 kJ/mol
# GULP energy per Si atom -5575.157308 kJ/mol
# Density = 2.380870 g / cm^3
# Si number density = 23.863009 Si / 1000 Ang^3
#
#
#
# Elastic Constant Matrix: (Units=GPa)
#
#
# Indices 1 2 3 4 5 6 
#
# 1 144.7912 50.1907 35.3482 0.0000 0.0000 0.0000
# 2 50.1907 144.7912 35.3482 0.0000 0.0000 0.0000
# 3 35.3482 35.3482 100.3343 0.0000 0.0000 0.0000
# 4 0.0000 0.0000 0.0000 1.5986 0.0000 0.0000
# 5 0.0000 0.0000 0.0000 0.0000 1.5986 0.0000
# 6 0.0000 0.0000 0.0000 0.0000 0.0000 47.3002
#
#
#
# Elastic Compliance Matrix: (Units=1/GPa)
#
#
# Indices 1 2 3 4 5 6 
#
# 1 0.008225 -0.002346 -0.002071 0.000000 0.000000 0.000000
# 2 -0.002346 0.008225 -0.002071 0.000000 0.000000 0.000000
# 3 -0.002071 -0.002071 0.011426 0.000000 0.000000 0.000000
# 4 0.000000 0.000000 0.000000 0.625529 0.000000 0.000000
# 5 0.000000 0.000000 0.000000 0.000000 0.625529 0.000000
# 6 0.000000 0.000000 0.000000 0.000000 0.000000 0.021142
#
#
# Mechanical properties :
#
#
# Convention : Reuss Voigt Hill
#
# Bulk Modulus (GPa) = 67.11451 70.18787 68.65119
# Shear Modulus (GPa) = 3.79357 28.03481 15.91419
#
# Velocity S-wave (km/s) = 1.26221 3.43129 2.58524
# Velocity P-wave (km/s) = 5.50547 6.72123 6.14350
#
# Compressibility (1/GPa) = 0.01489991
#
# Stress axis : x y z
#
# Youngs Moduli (GPa) = 121.57669 121.57669 87.51779
#
# Poissons Ratio (x) = 0.28516 0.18129
# Poissons Ratio (y) = 0.28516 0.18129
# Poissons Ratio (z) = 0.25184 0.25184
#
# Static dielectric constant tensor:
#      x y z
#    x 1.867680 0.000000 0.000000 
#    y 0.000000 1.867680 0.000000 
#    z 0.000000 0.000000 1.874130 
# 
# From -- ./inp_files/10751.got.cif
#   From: 2010.05.17/outbox.cif.g08.bks.cpg/sg180_6_cif.got.tgz:10751.got - 2010.05.20 11:43:55.
