data_PCOD9584281
_publ_section_title
;
Structure prediction by ZEFSAII (Michael W. Deem and Ramdas Pophale) SiO2 
 PCOD9584281
Probable space group: P 64 2 2
;
_chemical_formula_sum "Si O2"
_cell_formula_units_Z 60
_cell_length_a 11.735771
_cell_length_b 11.735771
_cell_length_c 23.235774
_cell_angle_alpha 90.000000
_cell_angle_beta 90.000000
_cell_angle_gamma 120.000000
_cell_volume 2771.475402
_symmetry_space_group_name_H-M "P 64 2 2"
_symmetry_group_IT_number 181
_symmetry_cell_setting 'hexagonal'
loop_
_space_group_symop_operation_xyz
x,y,z
x-y,x,2/3+z
-y,x-y,1/3+z
-x,-y,z
-x+y,-x,2/3+z
y,-x+y,1/3+z
x-y,-y,-z
-x,-x+y,2/3-z
y,x,1/3-z
-y,-x,1/3-z
-x+y,y,-z
x,x-y,2/3-z
loop_
_atom_site_type_symbol
_atom_site_label
_atom_site_fract_x
_atom_site_fract_y
_atom_site_fract_z
Si Si1 0.871700 0.301937 0.449865
Si Si2 0.345198 0.000000 0.000000
Si Si3 0.319388 0.074463 0.711969
Si Si4 0.500000 0.000000 0.210169
Si Si5 0.871689 0.097104 0.802559
Si Si6 0.623181 0.644260 0.080545
O O1 0.928184 0.365591 0.388167
O O2 0.884652 0.403065 0.499170
O O3 0.951530 0.239610 0.481650
O O4 0.736265 0.170137 0.436300
O O5 0.215185 0.879999 0.029684
O O6 0.325509 0.014799 0.650733
O O7 0.425833 0.057003 0.750605
O O8 0.184793 0.993321 0.747339
O O9 0.000000 0.115893 0.833334
O O10 0.916595 0.246556 0.781503
O O11 0.500000 0.500000 0.082982
#
# Coordination Sequence:
#
# PCOD9584281 Si02
#       6
#    12   6  12   6  12  12
#     4   9  21  38  60  88 123 172 217 273 336 399
#     4  10  22  41  63  90 132 172 218 283 353 408
#     4  10  20  39  63  92 129 174 218 279 340 413
#     4  10  20  39  64  90 129 174 226 268 328 416
#     4   9  19  35  56  89 127 163 215 275 329 404
#     4  10  19  37  63  91 129 165 213 284 344 400
#
# _framework density 21.649118000000001
#
# number of rings (size 3 to 8) (size 9 to 14) (size 15 to 20)
#    0.000    2.400    1.000    0.600    0.000    7.200 
#    0.000   31.000    4.400    0.000    0.000    0.000 
#    0.000    0.000    0.000    0.000    0.000    0.000 
#
# Total GULP energy -334172.141252 kJ/mol
# GULP energy per Si atom -5569.535688 kJ/mol
# Density = 2.159984 g / cm^3
# Si number density = 21.649118 Si / 1000 Ang^3
#
#
#
# Elastic Constant Matrix: (Units=GPa)
#
#
# Indices 1 2 3 4 5 6 
#
# 1 69.0855 24.9311 44.0280 0.0000 0.0000 0.0000
# 2 24.9311 69.0855 44.0280 0.0000 0.0000 0.0000
# 3 44.0280 44.0280 174.3335 0.0000 0.0000 0.0000
# 4 0.0000 0.0000 0.0000 30.2218 0.0000 0.0000
# 5 0.0000 0.0000 0.0000 0.0000 30.2218 0.0000
# 6 0.0000 0.0000 0.0000 0.0000 0.0000 22.0772
#
#
#
# Elastic Compliance Matrix: (Units=1/GPa)
#
#
# Indices 1 2 3 4 5 6 
#
# 1 0.018290 -0.004358 -0.003518 0.000000 0.000000 0.000000
# 2 -0.004358 0.018290 -0.003518 0.000000 0.000000 0.000000
# 3 -0.003518 -0.003518 0.007513 0.000000 0.000000 0.000000
# 4 0.000000 0.000000 0.000000 0.033089 0.000000 0.000000
# 5 0.000000 0.000000 0.000000 0.000000 0.033089 0.000000
# 6 0.000000 0.000000 0.000000 0.000000 0.000000 0.045296
#
#
# Mechanical properties :
#
#
# Convention : Reuss Voigt Hill
#
# Bulk Modulus (GPa) = 46.94167 59.83098 53.38633
# Shear Modulus (GPa) = 26.96046 29.80534 28.38290
#
# Velocity S-wave (km/s) = 3.53276 3.71448 3.62476
# Velocity P-wave (km/s) = 6.19440 6.78919 6.49860
#
# Compressibility (1/GPa) = 0.02130303
#
# Stress axis : x y z
#
# Youngs Moduli (GPa) = 54.67525 54.67525 133.09685
#
# Poissons Ratio (x) = 0.23827 0.46830
# Poissons Ratio (y) = 0.23827 0.46830
# Poissons Ratio (z) = 0.19237 0.19237
#
# Static dielectric constant tensor:
#      x y z
#    x 1.834300 0.000000 0.000000 
#    y 0.000000 1.834300 0.000000 
#    z 0.000000 0.000000 1.803580 
# 
# From -- ./inp_files/11231.got.cif
#   From: 2010.05.17/outbox.cif.g08.bks.cpg/sg181_6_cif.got.tgz:11231.got - 2010.05.20 11:51:17.
