data_PCOD9584760
_publ_section_title
;
Structure prediction by ZEFSAII (Michael W. Deem and Ramdas Pophale) SiO2 
 PCOD9584760
Probable space group: P 63 2 2
;
_chemical_formula_sum "Si O2"
_cell_formula_units_Z 46
_cell_length_a 15.182296
_cell_length_b 15.182296
_cell_length_c 10.952993
_cell_angle_alpha 90.000000
_cell_angle_beta 90.000000
_cell_angle_gamma 120.000000
_cell_volume 2186.443960
_symmetry_space_group_name_H-M "P 63 2 2"
_symmetry_group_IT_number 182
_symmetry_cell_setting 'hexagonal'
loop_
_space_group_symop_operation_xyz
x,y,z
x-y,x,1/2+z
-y,x-y,z
-x,-y,1/2+z
-x+y,-x,z
y,-x+y,1/2+z
x-y,-y,-z
-x,-x+y,-z
y,x,-z
-y,-x,1/2-z
-x+y,y,1/2-z
x,x-y,1/2-z
loop_
_atom_site_type_symbol
_atom_site_label
_atom_site_fract_x
_atom_site_fract_y
_atom_site_fract_z
Si Si1 0.666668 0.333334 0.399212
Si Si2 0.301157 0.079977 0.356688
Si Si3 0.980749 0.392208 0.801220
Si Si4 0.722432 0.166986 0.488186
Si Si5 0.000000 0.113301 0.500000
O O1 0.666668 0.333334 0.250000
O O2 0.706189 0.259958 0.450328
O O3 0.313282 0.156641 0.250000
O O4 0.362279 0.159052 0.465355
O O5 0.344638 0.009662 0.312157
O O6 0.183145 0.011816 0.386923
O O7 0.974424 0.487212 0.750000
O O8 0.075413 0.425632 0.895047
O O9 0.880651 0.316061 0.878040
O O10 0.095505 0.095505 0.500000
#
# Coordination Sequence:
#
# PCOD9584760 Si02
#       5
#     4  12  12  12   6
#     4  12  21  39  67 101 133 180 228 285 355 422
#     4  10  22  42  64  90 127 178 223 283 361 411
#     4  10  21  39  65  95 133 180 226 286 357 423
#     4  10  22  38  65  95 133 171 235 281 336 446
#     4  10  26  42  64  94 132 168 242 292 346 420
#
# _framework density 21.038729
#
# number of rings (size 3 to 8) (size 9 to 14) (size 15 to 20)
#    0.261    1.565    0.000    4.696    7.304    5.217 
#    0.000    3.913    0.000    0.000    0.000    0.000 
#    0.000    0.000    0.000    0.000    0.000    0.000 
#
# Total GULP energy -256789.369988 kJ/mol
# GULP energy per Si atom -5582.377608 kJ/mol
# Density = 2.099084 g / cm^3
# Si number density = 21.038729 Si / 1000 Ang^3
#
#
#
# Elastic Constant Matrix: (Units=GPa)
#
#
# Indices 1 2 3 4 5 6 
#
# 1 117.7419 69.4300 60.6846 0.0000 0.0001 -0.0002
# 2 69.4300 117.7426 60.6845 0.0000 0.0000 -0.0001
# 3 60.6846 60.6845 75.0359 0.0001 0.0001 -0.0001
# 4 0.0000 0.0000 0.0001 24.4714 -0.0001 0.0000
# 5 0.0001 0.0000 0.0001 -0.0001 24.4712 0.0000
# 6 -0.0002 -0.0001 -0.0001 0.0000 0.0000 24.1564
#
#
#
# Elastic Compliance Matrix: (Units=1/GPa)
#
#
# Indices 1 2 3 4 5 6 
#
# 1 0.015966 -0.004732 -0.009085 0.000000 0.000000 0.000000
# 2 -0.004732 0.015966 -0.009085 0.000000 0.000000 0.000000
# 3 -0.009085 -0.009085 0.028022 0.000000 0.000000 0.000000
# 4 0.000000 0.000000 0.000000 0.040864 0.000000 0.000000
# 5 0.000000 0.000000 0.000000 0.000000 0.040864 0.000000
# 6 0.000000 0.000000 0.000000 0.000000 0.000000 0.041397
#
#
# Mechanical properties :
#
#
# Convention : Reuss Voigt Hill
#
# Bulk Modulus (GPa) = 70.67719 76.90207 73.78963
# Shear Modulus (GPa) = 21.40386 22.60121 22.00254
#
# Velocity S-wave (km/s) = 3.19306 3.28116 3.23741
# Velocity P-wave (km/s) = 6.87466 7.14049 7.00884
#
# Compressibility (1/GPa) = 0.01414884
#
# Stress axis : x y z
#
# Youngs Moduli (GPa) = 62.63156 62.63228 35.68580
#
# Poissons Ratio (x) = 0.29640 0.32422
# Poissons Ratio (y) = 0.29640 0.32421
# Poissons Ratio (z) = 0.56903 0.56903
#
# Static dielectric constant tensor:
#      x y z
#    x 1.738060 0.000000 0.000000 
#    y 0.000000 1.738050 0.000000 
#    z 0.000000 0.000000 1.796500 
# 
# From -- ./inp_files/2429.got.cif
#   From: 2010.05.17/outbox.cif.g08.bks.cpg/sg182_2_cif.got.tgz:2429.got - 2010.05.20 11:58:53.
