data_PCOD9584477
_publ_section_title
;
Structure prediction by ZEFSAII (Michael W. Deem and Ramdas Pophale) SiO2 
 PCOD9584477
Probable space group: P 64 2 2
;
_chemical_formula_sum "Si O2"
_cell_formula_units_Z 36
_cell_length_a 7.249586
_cell_length_b 7.249586
_cell_length_c 26.941009
_cell_angle_alpha 90.000000
_cell_angle_beta 90.000000
_cell_angle_gamma 120.000000
_cell_volume 1226.227075
_symmetry_space_group_name_H-M "P 64 2 2"
_symmetry_group_IT_number 181
_symmetry_cell_setting 'hexagonal'
loop_
_space_group_symop_operation_xyz
x,y,z
x-y,x,2/3+z
-y,x-y,1/3+z
-x,-y,z
-x+y,-x,2/3+z
y,-x+y,1/3+z
x-y,-y,-z
-x,-x+y,2/3-z
y,x,1/3-z
-y,-x,1/3-z
-x+y,y,-z
x,x-y,2/3-z
loop_
_atom_site_type_symbol
_atom_site_label
_atom_site_fract_x
_atom_site_fract_y
_atom_site_fract_z
Si Si1 0.342630 0.266913 0.479564
Si Si2 0.657370 0.924284 0.687103
Si Si3 0.835858 0.671714 0.750000
O O1 0.500000 0.500000 0.462371
O O2 0.451540 0.262642 0.532478
O O3 0.118354 0.236708 0.500000
O O4 0.278453 0.079217 0.439179
O O5 0.721547 0.800763 0.727488
O O6 0.548461 0.811104 0.634189
O O7 0.500000 0.000000 0.704296
O O8 0.881647 0.118354 0.666667
#
# Coordination Sequence:
#
# PCOD9584477 Si02
#       3
#    12  12  12
#     4  11  23  41  69  99 140 198 254 317 401 478
#     4  11  23  41  69  99 140 198 254 317 401 478
#     4  10  23  46  66  96 149 198 251 332 400 466
#
# _framework density 29.358346999999998
#
# number of rings (size 3 to 8) (size 9 to 14) (size 15 to 20)
#    0.000    1.333    0.000    8.000    0.000   10.667 
#    0.000    6.667    0.000    0.000    0.000    0.000 
#    0.000    0.000    0.000    0.000    0.000    0.667 
#
# Total GULP energy -200957.403354 kJ/mol
# GULP energy per Si atom -5582.150093 kJ/mol
# Density = 2.929153 g / cm^3
# Si number density = 29.358347 Si / 1000 Ang^3
#
#
#
# Elastic Constant Matrix: (Units=GPa)
#
#
# Indices 1 2 3 4 5 6 
#
# 1 162.7760 54.8413 72.6283 0.0000 0.0000 0.0000
# 2 54.8413 162.7760 72.6283 0.0000 0.0000 0.0000
# 3 72.6283 72.6283 399.0958 0.0000 0.0000 0.0000
# 4 0.0000 0.0000 0.0000 25.6922 0.0000 0.0000
# 5 0.0000 0.0000 0.0000 0.0000 25.6922 0.0000
# 6 0.0000 0.0000 0.0000 0.0000 0.0000 53.9674
#
#
#
# Elastic Compliance Matrix: (Units=1/GPa)
#
#
# Indices 1 2 3 4 5 6 
#
# 1 0.007248 -0.002017 -0.000952 0.000000 0.000000 0.000000
# 2 -0.002017 0.007248 -0.000952 0.000000 0.000000 0.000000
# 3 -0.000952 -0.000952 0.002852 0.000000 0.000000 0.000000
# 4 0.000000 0.000000 0.000000 0.038922 0.000000 0.000000
# 5 0.000000 0.000000 0.000000 0.000000 0.038922 0.000000
# 6 0.000000 0.000000 0.000000 0.000000 0.000000 0.018530
#
#
# Mechanical properties :
#
#
# Convention : Reuss Voigt Hill
#
# Bulk Modulus (GPa) = 105.19902 124.98260 115.09081
# Shear Modulus (GPa) = 40.08582 56.04033 48.06307
#
# Velocity S-wave (km/s) = 3.69914 4.37376 4.05052
# Velocity P-wave (km/s) = 7.35903 8.25653 7.82067
#
# Compressibility (1/GPa) = 0.00950579
#
# Stress axis : x y z
#
# Youngs Moduli (GPa) = 137.97438 137.97438 350.61736
#
# Poissons Ratio (x) = 0.27831 0.33374
# Poissons Ratio (y) = 0.27831 0.33374
# Poissons Ratio (z) = 0.13133 0.13133
#
# Static dielectric constant tensor:
#      x y z
#    x 2.466590 0.000000 0.000000 
#    y 0.000000 2.466590 0.000000 
#    z 0.000000 0.000000 2.477660 
# 
# From -- ./inp_files/11599.got.cif
#   From: 2010.05.17/outbox.cif.g08.bks.cpg/sg181_6_cif.got.tgz:11599.got - 2010.05.20 11:51:17.
