data_PCOD9584129
_publ_section_title
;
Structure prediction by ZEFSAII (Michael W. Deem and Ramdas Pophale) SiO2 
 PCOD9584129
Probable space group: P 62 2 2
;
_chemical_formula_sum "Si O2"
_cell_formula_units_Z 36
_cell_length_a 20.378183
_cell_length_b 20.378183
_cell_length_c 4.881158
_cell_angle_alpha 90.000000
_cell_angle_beta 90.000000
_cell_angle_gamma 120.000000
_cell_volume 1755.433627
_symmetry_space_group_name_H-M "P 62 2 2"
_symmetry_group_IT_number 180
_symmetry_cell_setting 'hexagonal'
loop_
_space_group_symop_operation_xyz
x,y,z
x-y,x,1/3+z
-y,x-y,2/3+z
-x,-y,z
-x+y,-x,1/3+z
y,-x+y,2/3+z
x-y,-y,-z
-x,-x+y,1/3-z
y,x,2/3-z
-y,-x,2/3-z
-x+y,y,-z
x,x-y,1/3-z
loop_
_atom_site_type_symbol
_atom_site_label
_atom_site_fract_x
_atom_site_fract_y
_atom_site_fract_z
Si Si1 0.196517 0.247137 0.595313
Si Si2 0.089626 0.622165 0.633423
Si Si3 0.273671 0.418621 0.803772
O O1 0.241610 0.241610 0.333334
O O2 0.115342 0.230683 0.500000
O O3 0.236873 0.329947 0.734772
O O4 0.191694 0.191694 0.833334
O O5 0.101653 0.550827 0.666667
O O6 0.105978 0.653462 0.328189
O O7 0.000000 0.591590 0.666667
O O8 0.145089 0.689984 0.841166
O O9 0.213667 0.427334 0.000000
#
# Coordination Sequence:
#
# PCOD9584129 Si02
#       3
#    12  12  12
#     4  12  24  40  63  94 128 162 203 255 315 375
#     4  11  23  39  61  89 123 161 200 247 303 365
#     4  12  23  38  62  92 124 158 199 252 308 363
#
# _framework density 20.507753000000001
#
# number of rings (size 3 to 8) (size 9 to 14) (size 15 to 20)
#    0.000    0.333    0.000   13.000    0.000    2.667 
#    0.000    0.000    0.000   15.000    0.000    0.000 
#    0.000    0.000    0.000    0.000    0.000    0.000 
#
# Total GULP energy -200983.010865 kJ/mol
# GULP energy per Si atom -5582.861413 kJ/mol
# Density = 2.046108 g / cm^3
# Si number density = 20.507753 Si / 1000 Ang^3
#
#
#
# Elastic Constant Matrix: (Units=GPa)
#
#
# Indices 1 2 3 4 5 6 
#
# 1 99.5360 24.8944 34.4227 0.0000 0.0000 0.0000
# 2 24.8944 99.5360 34.4227 0.0000 0.0000 0.0000
# 3 34.4227 34.4227 147.8095 0.0000 0.0000 0.0000
# 4 0.0000 0.0000 0.0000 37.4378 0.0000 0.0000
# 5 0.0000 0.0000 0.0000 0.0000 37.4378 0.0000
# 6 0.0000 0.0000 0.0000 0.0000 0.0000 37.3208
#
#
#
# Elastic Compliance Matrix: (Units=1/GPa)
#
#
# Indices 1 2 3 4 5 6 
#
# 1 0.011311 -0.002086 -0.002148 0.000000 0.000000 0.000000
# 2 -0.002086 0.011311 -0.002148 0.000000 0.000000 0.000000
# 3 -0.002148 -0.002148 0.007766 0.000000 0.000000 0.000000
# 4 0.000000 0.000000 0.000000 0.026711 0.000000 0.000000
# 5 0.000000 0.000000 0.000000 0.000000 0.026711 0.000000
# 6 0.000000 0.000000 0.000000 0.000000 0.000000 0.026795
#
#
# Mechanical properties :
#
#
# Convention : Reuss Voigt Hill
#
# Bulk Modulus (GPa) = 56.74401 59.37348 58.05874
# Shear Modulus (GPa) = 38.68603 39.31540 39.00071
#
# Velocity S-wave (km/s) = 4.34799 4.38322 4.36564
# Velocity P-wave (km/s) = 7.27574 7.39130 7.33375
#
# Compressibility (1/GPa) = 0.01762301
#
# Stress axis : x y z
#
# Youngs Moduli (GPa) = 88.40688 88.40688 128.76389
#
# Poissons Ratio (x) = 0.18442 0.27664
# Poissons Ratio (y) = 0.18442 0.27664
# Poissons Ratio (z) = 0.18994 0.18994
#
# Static dielectric constant tensor:
#      x y z
#    x 1.728380 0.000000 0.000000 
#    y 0.000000 1.728380 0.000000 
#    z 0.000000 0.000000 1.709970 
# 
# From -- ./inp_files/652.got.cif
#   From: 2010.05.17/outbox.cif.g08.bks.cpg/sg180_1_cif.got.tgz:652.got - 2010.05.20 11:43:55.
