data_PCOD9584729
_publ_section_title
;
Structure prediction by ZEFSAII (Michael W. Deem and Ramdas Pophale) SiO2 
 PCOD9584729
Probable space group: P 63 2 2
;
_chemical_formula_sum "Si O2"
_cell_formula_units_Z 18
_cell_length_a 8.561160
_cell_length_b 8.561160
_cell_length_c 13.942539
_cell_angle_alpha 90.000000
_cell_angle_beta 90.000000
_cell_angle_gamma 120.000000
_cell_volume 884.988703
_symmetry_space_group_name_H-M "P 63 2 2"
_symmetry_group_IT_number 182
_symmetry_cell_setting 'hexagonal'
loop_
_space_group_symop_operation_xyz
x,y,z
x-y,x,1/2+z
-y,x-y,z
-x,-y,1/2+z
-x+y,-x,z
y,-x+y,1/2+z
x-y,-y,-z
-x,-x+y,-z
y,x,-z
-y,-x,1/2-z
-x+y,y,1/2-z
x,x-y,1/2-z
loop_
_atom_site_type_symbol
_atom_site_label
_atom_site_fract_x
_atom_site_fract_y
_atom_site_fract_z
Si Si1 0.000000 0.207583 0.500000
Si Si2 0.333496 0.000415 0.709072
O O1 0.999559 0.311247 0.594945
O O2 0.168096 0.168096 0.500000
O O3 0.136346 0.863655 0.750000
O O4 0.470998 0.941997 0.750000
O O5 0.393473 0.196737 0.750000
#
# Coordination Sequence:
#
# PCOD9584729 Si02
#       2
#     6  12
#     4  10  20  42  76  94 138 200 236 272 366 428
#     4  12  24  43  69 106 140 185 240 292 349 421
#
# _framework density 20.339241000000001
#
# number of rings (size 3 to 8) (size 9 to 14) (size 15 to 20)
#    0.667    0.000    6.667    2.000    0.000    5.333 
#    0.000    0.000    0.000    0.000    0.000    0.000 
#    0.000    0.000    0.000    0.000    0.000    0.000 
#
# Total GULP energy -100549.590385 kJ/mol
# GULP energy per Si atom -5586.088355 kJ/mol
# Density = 2.029295 g / cm^3
# Si number density = 20.339241 Si / 1000 Ang^3
#
#
#
# Elastic Constant Matrix: (Units=GPa)
#
#
# Indices 1 2 3 4 5 6 
#
# 1 72.7342 7.0597 42.2129 0.0000 0.0000 0.0000
# 2 7.0597 72.7342 42.2129 0.0000 0.0000 0.0000
# 3 42.2129 42.2129 254.7833 0.0000 0.0000 0.0000
# 4 0.0000 0.0000 0.0000 -15.6345 0.0000 0.0000
# 5 0.0000 0.0000 0.0000 0.0000 -15.6345 0.0000
# 6 0.0000 0.0000 0.0000 0.0000 0.0000 32.8372
#
#
#
# Elastic Compliance Matrix: (Units=1/GPa)
#
#
# Indices 1 2 3 4 5 6 
#
# 1 0.015211 -0.000015 -0.002518 0.000000 0.000000 0.000000
# 2 -0.000015 0.015211 -0.002518 0.000000 0.000000 0.000000
# 3 -0.002518 -0.002518 0.004759 0.000000 0.000000 0.000000
# 4 0.000000 0.000000 0.000000 -0.063961 0.000000 0.000000
# 5 0.000000 0.000000 0.000000 0.000000 -0.063961 0.000000
# 6 0.000000 0.000000 0.000000 0.000000 0.000000 0.030453
#
#
# Mechanical properties :
#
#
# Convention : Reuss Voigt Hill
#
# Bulk Modulus (GPa) = 39.87141 64.80249 52.33695
# Shear Modulus (GPa) = -114.08956 20.89805 -46.59576
#
# Velocity S-wave (km/s) = -7.49767 3.20890 -4.79156
# Velocity P-wave (km/s) = 7.43692 6.75717 2.19640
#
# Compressibility (1/GPa) = 0.02508063
#
# Stress axis : x y z
#
# Youngs Moduli (GPa) = 65.74020 65.74020 210.12007
#
# Poissons Ratio (x) = 0.00100 0.52902
# Poissons Ratio (y) = 0.00100 0.52902
# Poissons Ratio (z) = 0.16552 0.16552
#
# Static dielectric constant tensor:
#      x y z
#    x 1.707250 0.000000 0.000000 
#    y 0.000000 1.707250 0.000000 
#    z 0.000000 0.000000 1.711720 
# 
# From -- ./inp_files/2041.got.cif
#   From: 2010.05.17/outbox.cif.g08.bks.cpg/sg182_2_cif.got.tgz:2041.got - 2010.05.20 11:58:53.
