data_PCOD9584531
_publ_section_title
;
Structure prediction by ZEFSAII (Michael W. Deem and Ramdas Pophale) SiO2 
 PCOD9584531
Probable space group: P 64 2 2
;
_chemical_formula_sum "Si O2"
_cell_formula_units_Z 51
_cell_length_a 11.599462
_cell_length_b 11.599462
_cell_length_c 21.125320
_cell_angle_alpha 90.000000
_cell_angle_beta 90.000000
_cell_angle_gamma 120.000000
_cell_volume 2461.555436
_symmetry_space_group_name_H-M "P 64 2 2"
_symmetry_group_IT_number 181
_symmetry_cell_setting 'hexagonal'
loop_
_space_group_symop_operation_xyz
x,y,z
x-y,x,2/3+z
-y,x-y,1/3+z
-x,-y,z
-x+y,-x,2/3+z
y,-x+y,1/3+z
x-y,-y,-z
-x,-x+y,2/3-z
y,x,1/3-z
-y,-x,1/3-z
-x+y,y,-z
x,x-y,2/3-z
loop_
_atom_site_type_symbol
_atom_site_label
_atom_site_fract_x
_atom_site_fract_y
_atom_site_fract_z
Si Si1 0.367284 0.506420 0.409188
Si Si2 0.773471 0.557280 0.276633
Si Si3 0.106136 0.157732 0.736112
Si Si4 0.719384 0.359692 0.833334
Si Si5 0.852957 0.147044 0.166667
Si Si6 0.500000 0.000000 0.000000
O O1 0.500000 0.500000 0.404926
O O2 0.311898 0.504516 0.339800
O O3 0.388264 0.629195 0.451673
O O4 0.255136 0.381166 0.447990
O O5 0.805324 0.710167 0.269071
O O6 0.694830 0.483347 0.213772
O O7 0.903731 0.536812 0.290497
O O8 0.164290 0.164290 0.666667
O O9 0.204258 0.190098 0.794540
O O10 0.000000 0.000000 0.743909
#
# Coordination Sequence:
#
# PCOD9584531 Si02
#       6
#    12  12  12   6   6   3
#     4  11  23  40  65 103 143 183 243 306 375 445
#     4  12  23  44  69 107 144 190 250 312 377 451
#     4  11  23  41  67 102 143 186 245 302 370 447
#     4  11  24  40  70 106 142 192 257 304 380 447
#     4  11  21  42  67  98 129 186 250 290 366 441
#     4  12  20  40  74 100 148 188 238 316 360 456
#
# _framework density 20.718606000000001
#
# number of rings (size 3 to 8) (size 9 to 14) (size 15 to 20)
#    0.000    0.706    5.882    1.765    4.941    0.000 
#    0.000   10.000    0.000    0.000    0.000    0.000 
#    0.000    0.000    0.000    0.000    0.000    0.000 
#
# Total GULP energy -284227.024416 kJ/mol
# GULP energy per Si atom -5573.078910 kJ/mol
# Density = 2.067145 g / cm^3
# Si number density = 20.718606 Si / 1000 Ang^3
#
#
#
# Elastic Constant Matrix: (Units=GPa)
#
#
# Indices 1 2 3 4 5 6 
#
# 1 86.3029 19.7193 39.8698 0.0000 0.0000 0.0000
# 2 19.7193 86.3029 39.8698 0.0000 0.0000 0.0000
# 3 39.8698 39.8698 154.3004 0.0000 0.0000 0.0000
# 4 0.0000 0.0000 0.0000 86.9045 0.0000 0.0000
# 5 0.0000 0.0000 0.0000 0.0000 86.9045 0.0000
# 6 0.0000 0.0000 0.0000 0.0000 0.0000 33.2918
#
#
#
# Elastic Compliance Matrix: (Units=1/GPa)
#
#
# Indices 1 2 3 4 5 6 
#
# 1 0.013363 -0.001656 -0.003025 0.000000 0.000000 0.000000
# 2 -0.001656 0.013363 -0.003025 0.000000 0.000000 0.000000
# 3 -0.003025 -0.003025 0.008044 0.000000 0.000000 0.000000
# 4 0.000000 0.000000 0.000000 0.011507 0.000000 0.000000
# 5 0.000000 0.000000 0.000000 0.000000 0.011507 0.000000
# 6 0.000000 0.000000 0.000000 0.000000 0.000000 0.030037
#
#
# Mechanical properties :
#
#
# Convention : Reuss Voigt Hill
#
# Bulk Modulus (GPa) = 51.65741 58.42488 55.04114
# Shear Modulus (GPa) = 45.58485 56.58330 51.08407
#
# Velocity S-wave (km/s) = 4.69571 5.23160 4.97088
# Velocity P-wave (km/s) = 7.37472 8.04695 7.71816
#
# Compressibility (1/GPa) = 0.01935831
#
# Stress axis : x y z
#
# Youngs Moduli (GPa) = 74.83402 74.83402 124.31424
#
# Poissons Ratio (x) = 0.12391 0.37605
# Poissons Ratio (y) = 0.12391 0.37605
# Poissons Ratio (z) = 0.22637 0.22637
#
# Static dielectric constant tensor:
#      x y z
#    x 1.821260 0.000000 0.000000 
#    y 0.000000 1.821260 0.000000 
#    z 0.000000 0.000000 1.683310 
# 
# From -- ./inp_files/8837.got.cif
#   From: 2010.05.17/outbox.cif.g08.bks.cpg/sg181_5_cif.got.tgz:8837.got - 2010.05.20 11:51:17.
