data_PCOD9584602
_publ_section_title
;
Structure prediction by ZEFSAII (Michael W. Deem and Ramdas Pophale) SiO2 
 PCOD9584602
Probable space group: P 63 2 2
;
_chemical_formula_sum "Si O2"
_cell_formula_units_Z 60
_cell_length_a 21.708435
_cell_length_b 21.708435
_cell_length_c 8.888166
_cell_angle_alpha 90.000000
_cell_angle_beta 90.000000
_cell_angle_gamma 120.000000
_cell_volume 3627.436510
_symmetry_space_group_name_H-M "P 63 2 2"
_symmetry_group_IT_number 182
_symmetry_cell_setting 'hexagonal'
loop_
_space_group_symop_operation_xyz
x,y,z
x-y,x,1/2+z
-y,x-y,z
-x,-y,1/2+z
-x+y,-x,z
y,-x+y,1/2+z
x-y,-y,-z
-x,-x+y,-z
y,x,-z
-y,-x,1/2-z
-x+y,y,1/2-z
x,x-y,1/2-z
loop_
_atom_site_type_symbol
_atom_site_label
_atom_site_fract_x
_atom_site_fract_y
_atom_site_fract_z
Si Si1 0.709992 0.216615 0.970500
Si Si2 0.651990 0.651990 0.500000
Si Si3 0.361146 0.115961 0.710789
Si Si4 0.131901 0.464914 0.036444
Si Si5 0.520222 0.897444 0.790318
Si Si6 0.416630 0.833260 0.250000
O O1 0.738347 0.168434 0.890535
O O2 0.781974 0.291004 0.985917
O O3 0.652130 0.213010 0.852941
O O4 0.669408 0.178300 0.123569
O O5 0.717656 0.672431 0.612478
O O6 0.629721 0.581757 0.400383
O O7 0.323209 0.161605 0.750000
O O8 0.395240 0.107019 0.863760
O O9 0.118507 0.518897 0.136919
O O10 0.100396 0.447048 0.871879
O O11 0.454843 0.909686 0.750000
#
# Coordination Sequence:
#
# PCOD9584602 Si02
#       6
#    12   6  12  12  12   6
#     4   9  18  33  47  66  87 125 159 199 259 313
#     4  10  22  34  52  72  92 120 166 192 256 326
#     4   8  17  34  53  71  91 119 151 193 246 307
#     4  10  19  32  50  62  91 125 157 201 263 308
#     4  11  21  35  46  66  95 121 156 214 260 307
#     4  10  16  30  48  66  88 122 164 204 258 316
#
# _framework density 16.540606
#
# number of rings (size 3 to 8) (size 9 to 14) (size 15 to 20)
#    0.000    2.400    2.000    2.400    0.000    2.400 
#    8.400    0.000    0.000    0.000    0.000    0.000 
#    0.000    0.000    0.000    0.000    0.000    0.000 
#
# Total GULP energy -334278.165060 kJ/mol
# GULP energy per Si atom -5571.302751 kJ/mol
# Density = 1.650296 g / cm^3
# Si number density = 16.540606 Si / 1000 Ang^3
#
#
#
# Elastic Constant Matrix: (Units=GPa)
#
#
# Indices 1 2 3 4 5 6 
#
# 1 37.7086 21.3664 29.8784 0.0000 0.0000 0.0000
# 2 21.3664 37.7086 29.8784 0.0000 0.0000 0.0000
# 3 29.8784 29.8784 136.0655 0.0000 0.0000 0.0000
# 4 0.0000 0.0000 0.0000 16.4866 0.0000 0.0000
# 5 0.0000 0.0000 0.0000 0.0000 16.4866 0.0000
# 6 0.0000 0.0000 0.0000 0.0000 0.0000 8.1711
#
#
#
# Elastic Compliance Matrix: (Units=1/GPa)
#
#
# Indices 1 2 3 4 5 6 
#
# 1 0.041476 -0.019715 -0.004779 0.000000 0.000000 0.000000
# 2 -0.019715 0.041476 -0.004779 0.000000 0.000000 0.000000
# 3 -0.004779 -0.004779 0.009448 0.000000 0.000000 0.000000
# 4 0.000000 0.000000 0.000000 0.060655 0.000000 0.000000
# 5 0.000000 0.000000 0.000000 0.000000 0.060655 0.000000
# 6 0.000000 0.000000 0.000000 0.000000 0.000000 0.122383
#
#
# Mechanical properties :
#
#
# Convention : Reuss Voigt Hill
#
# Bulk Modulus (GPa) = 29.53641 41.52548 35.53094
# Shear Modulus (GPa) = 12.31759 16.91949 14.61854
#
# Velocity S-wave (km/s) = 2.73186 3.20176 2.97610
# Velocity P-wave (km/s) = 5.27697 6.23121 5.77384
#
# Compressibility (1/GPa) = 0.03385652
#
# Stress axis : x y z
#
# Youngs Moduli (GPa) = 24.11015 24.11015 105.84220
#
# Poissons Ratio (x) = 0.47533 0.50577
# Poissons Ratio (y) = 0.47533 0.50577
# Poissons Ratio (z) = 0.11521 0.11521
#
# Static dielectric constant tensor:
#      x y z
#    x 1.589590 0.000000 0.000000 
#    y 0.000000 1.589590 0.000000 
#    z 0.000000 0.000000 1.590360 
# 
# From -- ./inp_files/1880.got.cif
#   From: 2010.05.17/outbox.cif.g08.bks.cpg/sg182_1_cif.got.tgz:1880.got - 2010.05.20 11:58:53.
