data_PCOD9584782
_publ_section_title
;
Structure prediction by ZEFSAII (Michael W. Deem and Ramdas Pophale) SiO2 
 PCOD9584782
Probable space group: P 63 2 2
;
_chemical_formula_sum "Si O2"
_cell_formula_units_Z 34
_cell_length_a 8.106326
_cell_length_b 8.106326
_cell_length_c 28.369582
_cell_angle_alpha 90.000000
_cell_angle_beta 90.000000
_cell_angle_gamma 120.000000
_cell_volume 1614.476392
_symmetry_space_group_name_H-M "P 63 2 2"
_symmetry_group_IT_number 182
_symmetry_cell_setting 'hexagonal'
loop_
_space_group_symop_operation_xyz
x,y,z
x-y,x,1/2+z
-y,x-y,z
-x,-y,1/2+z
-x+y,-x,z
y,-x+y,1/2+z
x-y,-y,-z
-x,-x+y,-z
y,x,-z
-y,-x,1/2-z
-x+y,y,1/2-z
x,x-y,1/2-z
loop_
_atom_site_type_symbol
_atom_site_label
_atom_site_fract_x
_atom_site_fract_y
_atom_site_fract_z
Si Si1 0.333334 0.666668 0.651759
Si Si2 0.373808 0.027036 0.282819
Si Si3 0.333334 0.666668 0.959893
Si Si4 0.000000 0.000000 0.818984
Si Si5 0.000000 0.720361 0.000000
Si Si6 0.000000 0.000000 0.931428
O O1 0.382967 0.872809 0.672328
O O2 0.333334 0.666667 0.596276
O O3 0.463287 0.926573 0.250000
O O4 0.406060 0.203030 0.250000
O O5 0.155161 0.942729 0.300253
O O6 0.304803 0.470946 0.979356
O O7 0.000000 0.000000 0.875582
O O8 0.926844 0.797080 0.956577
#
# Coordination Sequence:
#
# PCOD9584782 Si02
#       6
#     4  12   4   4   6   4
#     4   9  19  37  60  81 120 162 198 247 307 366
#     4   9  19  35  57  88 121 154 197 251 306 364
#     4  12  21  37  61  87 120 171 199 247 312 363
#     4  12  20  35  69  91 116 166 210 245 314 384
#     4  10  22  38  58  88 130 160 206 260 314 360
#     4  10  22  40  58  91 119 157 211 262 301 373
#
# _framework density 21.059460999999999
#
# number of rings (size 3 to 8) (size 9 to 14) (size 15 to 20)
#    0.000    2.118    0.000    6.706    0.000    0.000 
#    0.000    0.000    0.000   62.118    0.000    0.000 
#    0.000    0.000    0.000    1.059    0.000    0.000 
#
# Total GULP energy -189622.931406 kJ/mol
# GULP energy per Si atom -5577.145041 kJ/mol
# Density = 2.101153 g / cm^3
# Si number density = 21.059461 Si / 1000 Ang^3
#
#
#
# Elastic Constant Matrix: (Units=GPa)
#
#
# Indices 1 2 3 4 5 6 
#
# 1 89.1721 48.7055 69.9119 -0.0010 -0.0004 -0.0003
# 2 48.7055 89.1704 69.9121 0.0011 0.0004 0.0002
# 3 69.9119 69.9121 221.0638 0.0005 -0.0001 -0.0003
# 4 -0.0010 0.0011 0.0005 17.2605 -0.0002 -0.0004
# 5 -0.0004 0.0004 -0.0001 -0.0002 17.2599 0.0011
# 6 -0.0003 0.0002 -0.0003 -0.0004 0.0011 20.2274
#
#
#
# Elastic Compliance Matrix: (Units=1/GPa)
#
#
# Indices 1 2 3 4 5 6 
#
# 1 0.017695 -0.007017 -0.003377 0.000002 0.000000 0.000000
# 2 -0.007017 0.017695 -0.003377 -0.000001 -0.000001 0.000000
# 3 -0.003377 -0.003377 0.006659 0.000000 0.000000 0.000000
# 4 0.000002 -0.000001 0.000000 0.057936 0.000001 0.000001
# 5 0.000000 -0.000001 0.000000 0.000001 0.057938 -0.000003
# 6 0.000000 0.000000 0.000000 0.000001 -0.000003 0.049438
#
#
# Mechanical properties :
#
#
# Convention : Reuss Voigt Hill
#
# Bulk Modulus (GPa) = 68.93204 86.27392 77.60298
# Shear Modulus (GPa) = 20.85611 25.00801 22.93206
#
# Velocity S-wave (km/s) = 3.15039 3.44974 3.30346
# Velocity P-wave (km/s) = 6.78501 7.54476 7.17495
#
# Compressibility (1/GPa) = 0.01450704
#
# Stress axis : x y z
#
# Youngs Moduli (GPa) = 56.51469 56.51320 150.16435
#
# Poissons Ratio (x) = 0.39658 0.50705
# Poissons Ratio (y) = 0.39659 0.50708
# Poissons Ratio (z) = 0.19083 0.19083
#
# Static dielectric constant tensor:
#      x y z
#    x 1.850970 0.000000 0.000000 
#    y 0.000000 1.850970 0.000000 
#    z 0.000000 0.000000 1.705410 
# 
# From -- ./inp_files/5612.got.cif
#   From: 2010.05.17/outbox.cif.g08.bks.cpg/sg182_3_cif.got.tgz:5612.got - 2010.05.20 11:58:53.
