data_PCOD9584804
_publ_section_title
;
Structure prediction by ZEFSAII (Michael W. Deem and Ramdas Pophale) SiO2 
 PCOD9584804
Probable space group: P 63 2 2
;
_chemical_formula_sum "Si O2"
_cell_formula_units_Z 30
_cell_length_a 9.799984
_cell_length_b 9.799984
_cell_length_c 14.926902
_cell_angle_alpha 90.000000
_cell_angle_beta 90.000000
_cell_angle_gamma 120.000000
_cell_volume 1241.512357
_symmetry_space_group_name_H-M "P 63 2 2"
_symmetry_group_IT_number 182
_symmetry_cell_setting 'hexagonal'
loop_
_space_group_symop_operation_xyz
x,y,z
x-y,x,1/2+z
-y,x-y,z
-x,-y,1/2+z
-x+y,-x,z
y,-x+y,1/2+z
x-y,-y,-z
-x,-x+y,-z
y,x,-z
-y,-x,1/2-z
-x+y,y,1/2-z
x,x-y,1/2-z
loop_
_atom_site_type_symbol
_atom_site_label
_atom_site_fract_x
_atom_site_fract_y
_atom_site_fract_z
Si Si1 0.288680 0.144340 0.750000
Si Si2 0.760560 0.694866 0.407765
Si Si3 0.537918 0.584688 0.843124
O O1 0.197871 0.191573 0.822116
O O2 0.396095 0.298976 0.691385
O O3 0.786183 0.786183 0.500000
O O4 0.845381 0.591577 0.396134
O O5 0.574585 0.569651 0.398457
O O6 0.440835 0.559166 0.750000
#
# Coordination Sequence:
#
# PCOD9584804 Si02
#       3
#     6  12  12
#     4  10  22  42  66  98 140 178 230 282 352 416
#     4  11  25  43  74 104 138 183 239 296 347 432
#     4  10  22  46  69  99 136 187 233 280 360 420
#
# _framework density 24.164079000000001
#
# number of rings (size 3 to 8) (size 9 to 14) (size 15 to 20)
#    0.000    1.600    0.000    5.600    5.600    3.200 
#   42.000    0.000    0.000    0.000    0.000    0.000 
#    0.000    0.000    0.000    0.000    0.000    0.000 
#
# Total GULP energy -167723.753510 kJ/mol
# GULP energy per Si atom -5590.791784 kJ/mol
# Density = 2.410908 g / cm^3
# Si number density = 24.164079 Si / 1000 Ang^3
#
#
#
# Elastic Constant Matrix: (Units=GPa)
#
#
# Indices 1 2 3 4 5 6 
#
# 1 88.1874 13.8031 31.3293 0.0000 0.0000 0.0000
# 2 13.8031 88.1874 31.3293 0.0000 0.0000 0.0000
# 3 31.3293 31.3293 162.7291 0.0000 0.0000 0.0000
# 4 0.0000 0.0000 0.0000 13.3108 0.0000 0.0000
# 5 0.0000 0.0000 0.0000 0.0000 13.3108 0.0000
# 6 0.0000 0.0000 0.0000 0.0000 0.0000 37.1921
#
#
#
# Elastic Compliance Matrix: (Units=1/GPa)
#
#
# Indices 1 2 3 4 5 6 
#
# 1 0.012282 -0.001162 -0.002141 0.000000 0.000000 0.000000
# 2 -0.001162 0.012282 -0.002141 0.000000 0.000000 0.000000
# 3 -0.002141 -0.002141 0.006970 0.000000 0.000000 0.000000
# 4 0.000000 0.000000 0.000000 0.075127 0.000000 0.000000
# 5 0.000000 0.000000 0.000000 0.000000 0.075127 0.000000
# 6 0.000000 0.000000 0.000000 0.000000 0.000000 0.026887
#
#
# Mechanical properties :
#
#
# Convention : Reuss Voigt Hill
#
# Bulk Modulus (GPa) = 48.43514 54.66971 51.55242
# Shear Modulus (GPa) = 22.08056 30.27224 26.17640
#
# Velocity S-wave (km/s) = 3.02615 3.54330 3.29489
# Velocity P-wave (km/s) = 5.68313 6.27801 5.98796
#
# Compressibility (1/GPa) = 0.02064617
#
# Stress axis : x y z
#
# Youngs Moduli (GPa) = 81.42065 81.42065 143.48172
#
# Poissons Ratio (x) = 0.09459 0.30718
# Poissons Ratio (y) = 0.09459 0.30718
# Poissons Ratio (z) = 0.17431 0.17431
#
# Static dielectric constant tensor:
#      x y z
#    x 1.929360 0.000000 0.000000 
#    y 0.000000 1.929360 0.000000 
#    z 0.000000 0.000000 1.979560 
# 
# From -- ./inp_files/2926.got.cif
#   From: 2010.05.17/outbox.cif.g08.bks.cpg/sg182_2_cif.got.tgz:2926.got - 2010.05.20 11:58:53.
