data_PCOD9584092
_publ_section_title
;
Structure prediction by ZEFSAII (Michael W. Deem and Ramdas Pophale) SiO2 
 PCOD9584092
Probable space group: P 62 2 2
;
_chemical_formula_sum "Si O2"
_cell_formula_units_Z 72
_cell_length_a 14.949117
_cell_length_b 14.949117
_cell_length_c 16.728594
_cell_angle_alpha 90.000000
_cell_angle_beta 90.000000
_cell_angle_gamma 120.000000
_cell_volume 3237.584816
_symmetry_space_group_name_H-M "P 62 2 2"
_symmetry_group_IT_number 180
_symmetry_cell_setting 'hexagonal'
loop_
_space_group_symop_operation_xyz
x,y,z
x-y,x,1/3+z
-y,x-y,2/3+z
-x,-y,z
-x+y,-x,1/3+z
y,-x+y,2/3+z
x-y,-y,-z
-x,-x+y,1/3-z
y,x,2/3-z
-y,-x,2/3-z
-x+y,y,-z
x,x-y,1/3-z
loop_
_atom_site_type_symbol
_atom_site_label
_atom_site_fract_x
_atom_site_fract_y
_atom_site_fract_z
Si Si1 0.539795 0.285777 0.381423
Si Si2 0.381797 0.948642 0.585791
Si Si3 0.552687 0.940379 0.843715
Si Si4 0.619528 0.748055 0.244011
Si Si5 0.753197 0.064696 0.296334
Si Si6 0.076018 0.928082 0.741221
O O1 0.647386 0.352615 0.333334
O O2 0.509556 0.174807 0.418203
O O3 0.524566 0.358360 0.445492
O O4 0.450208 0.255638 0.316419
O O5 0.500000 0.000000 0.613249
O O6 0.387331 0.000000 0.500000
O O7 0.321854 0.984949 0.645211
O O8 0.622989 0.922885 0.781943
O O9 0.500000 0.000000 0.803274
O O10 0.634669 0.030047 0.901357
O O11 0.591722 0.795861 0.166667
O O12 0.740392 0.824720 0.256332
O O13 0.823395 0.176606 0.333334
O O14 0.826617 0.018405 0.276065
O O15 0.054104 0.945897 0.833334
O O16 0.000000 0.910351 0.666667
#
# Coordination Sequence:
#
# PCOD9584092 Si02
#       6
#    12  12  12  12  12  12
#     4  12  24  42  74 115 144 188 251 320 397 478
#     4  11  26  50  69  93 142 200 252 311 372 458
#     4  12  23  41  72 113 150 181 234 317 400 471
#     4  11  21  40  67 106 149 189 235 300 397 465
#     4  12  26  44  69 101 136 197 247 292 376 463
#     4  11  23  43  73 103 144 190 245 320 389 460
#
# _framework density 22.238799
#
# number of rings (size 3 to 8) (size 9 to 14) (size 15 to 20)
#    0.000    0.500    6.667    3.000    0.000    2.333 
#    3.000    0.833    0.000    0.000    0.000    0.000 
#    0.000    0.000    0.000    0.000    0.000    0.000 
#
# Total GULP energy -402492.213435 kJ/mol
# GULP energy per Si atom -5590.169631 kJ/mol
# Density = 2.218818 g / cm^3
# Si number density = 22.238799 Si / 1000 Ang^3
#
#
#
# Elastic Constant Matrix: (Units=GPa)
#
#
# Indices 1 2 3 4 5 6 
#
# 1 86.0258 42.6758 32.5007 0.0000 0.0000 0.0000
# 2 42.6758 86.0258 32.5007 0.0000 0.0000 0.0000
# 3 32.5007 32.5007 129.4637 0.0000 0.0000 0.0000
# 4 0.0000 0.0000 0.0000 38.2607 0.0000 0.0000
# 5 0.0000 0.0000 0.0000 0.0000 38.2607 0.0000
# 6 0.0000 0.0000 0.0000 0.0000 0.0000 21.6750
#
#
#
# Elastic Compliance Matrix: (Units=1/GPa)
#
#
# Indices 1 2 3 4 5 6 
#
# 1 0.015983 -0.007085 -0.002234 0.000000 0.000000 0.000000
# 2 -0.007085 0.015983 -0.002234 0.000000 0.000000 0.000000
# 3 -0.002234 -0.002234 0.008846 0.000000 0.000000 0.000000
# 4 0.000000 0.000000 0.000000 0.026136 0.000000 0.000000
# 5 0.000000 0.000000 0.000000 0.000000 0.026136 0.000000
# 6 0.000000 0.000000 0.000000 0.000000 0.000000 0.046136
#
#
# Mechanical properties :
#
#
# Convention : Reuss Voigt Hill
#
# Bulk Modulus (GPa) = 56.47561 57.42998 56.95279
# Shear Modulus (GPa) = 29.72151 32.56182 31.14166
#
# Velocity S-wave (km/s) = 3.65974 3.83062 3.74616
# Velocity P-wave (km/s) = 6.58092 6.74131 6.66160
#
# Compressibility (1/GPa) = 0.01770676
#
# Stress axis : x y z
#
# Youngs Moduli (GPa) = 62.56615 62.56615 113.04903
#
# Poissons Ratio (x) = 0.44328 0.25253
# Poissons Ratio (y) = 0.44328 0.25253
# Poissons Ratio (z) = 0.13976 0.13976
#
# Static dielectric constant tensor:
#      x y z
#    x 1.846190 0.000000 0.000000 
#    y 0.000000 1.846190 0.000000 
#    z 0.000000 0.000000 1.847860 
# 
# From -- ./inp_files/7753.got.cif
#   From: 2010.05.17/outbox.cif.g08.bks.cpg/sg180_4_cif.got.tgz:7753.got - 2010.05.20 11:43:55.
