data_PCOD9584671
_publ_section_title
;
Structure prediction by ZEFSAII (Michael W. Deem and Ramdas Pophale) SiO2 
 PCOD9584671
Probable space group: P 63 2 2
;
_chemical_formula_sum "Si O2"
_cell_formula_units_Z 46
_cell_length_a 16.089994
_cell_length_b 16.089994
_cell_length_c 9.146417
_cell_angle_alpha 90.000000
_cell_angle_beta 90.000000
_cell_angle_gamma 120.000000
_cell_volume 2050.658742
_symmetry_space_group_name_H-M "P 63 2 2"
_symmetry_group_IT_number 182
_symmetry_cell_setting 'hexagonal'
loop_
_space_group_symop_operation_xyz
x,y,z
x-y,x,1/2+z
-y,x-y,z
-x,-y,1/2+z
-x+y,-x,z
y,-x+y,1/2+z
x-y,-y,-z
-x,-x+y,-z
y,x,-z
-y,-x,1/2-z
-x+y,y,1/2-z
x,x-y,1/2-z
loop_
_atom_site_type_symbol
_atom_site_label
_atom_site_fract_x
_atom_site_fract_y
_atom_site_fract_z
Si Si1 0.289044 0.289044 0.000000
Si Si2 0.916437 0.553956 0.794324
Si Si3 0.900401 0.167753 0.091106
Si Si4 0.333334 0.666668 0.578367
Si Si5 0.256022 0.795024 0.019324
O O1 0.350979 0.348273 0.140426
O O2 0.270911 0.182397 0.987405
O O3 0.935269 0.467635 0.750000
O O4 0.869358 0.570152 0.652163
O O5 0.835855 0.532828 0.919396
O O6 0.884601 0.115400 0.250000
O O7 0.856646 0.238905 0.101814
O O8 0.000000 0.213024 0.000000
O O9 0.333334 0.666667 0.750000
O O10 0.241723 0.672322 0.524898
#
# Coordination Sequence:
#
# PCOD9584671 Si02
#       5
#     6  12  12   4  12
#     4  10  24  44  66 106 136 176 242 302 368 452
#     4  10  19  38  64  95 138 186 228 286 357 448
#     4  11  24  46  70  98 138 186 238 308 385 442
#     4  12  21  34  59  94 141 186 241 284 340 423
#     4  10  21  37  63  97 135 186 237 285 350 437
#
# _framework density 22.431816999999999
#
# number of rings (size 3 to 8) (size 9 to 14) (size 15 to 20)
#    0.000    1.565    2.609    2.348    0.000    3.130 
#    7.826    2.609    0.000    0.000    0.000    0.000 
#    0.000    0.000    0.000    0.000    0.000    0.000 
#
# Total GULP energy -256105.413643 kJ/mol
# GULP energy per Si atom -5567.508992 kJ/mol
# Density = 2.238076 g / cm^3
# Si number density = 22.431817 Si / 1000 Ang^3
#
#
#
# Elastic Constant Matrix: (Units=GPa)
#
#
# Indices 1 2 3 4 5 6 
#
# 1 124.5879 62.3633 51.3707 -0.0001 -0.0001 -0.0001
# 2 62.3633 124.5887 51.3702 0.0000 -0.0001 0.0003
# 3 51.3707 51.3702 121.4426 -0.0001 -0.0001 -0.0002
# 4 -0.0001 0.0000 -0.0001 20.8303 0.0000 0.0000
# 5 -0.0001 -0.0001 -0.0001 0.0000 20.8305 0.0000
# 6 -0.0001 0.0003 -0.0002 0.0000 0.0000 31.1121
#
#
#
# Elastic Compliance Matrix: (Units=1/GPa)
#
#
# Indices 1 2 3 4 5 6 
#
# 1 0.011520 -0.004551 -0.002948 0.000000 0.000000 0.000000
# 2 -0.004551 0.011520 -0.002948 0.000000 0.000000 0.000000
# 3 -0.002948 -0.002948 0.010728 0.000000 0.000000 0.000000
# 4 0.000000 0.000000 0.000000 0.048007 0.000000 0.000000
# 5 0.000000 0.000000 0.000000 0.000000 0.048007 0.000000
# 6 0.000000 0.000000 0.000000 0.000000 0.000000 0.032142
#
#
# Mechanical properties :
#
#
# Convention : Reuss Voigt Hill
#
# Bulk Modulus (GPa) = 77.67173 77.86972 77.77073
# Shear Modulus (GPa) = 26.72250 28.25559 27.48905
#
# Velocity S-wave (km/s) = 3.45523 3.55296 3.50444
# Velocity P-wave (km/s) = 7.11471 7.18476 7.14982
#
# Compressibility (1/GPa) = 0.01287470
#
# Stress axis : x y z
#
# Youngs Moduli (GPa) = 86.80608 86.80703 93.21156
#
# Poissons Ratio (x) = 0.39504 0.27478
# Poissons Ratio (y) = 0.39504 0.27477
# Poissons Ratio (z) = 0.25590 0.25589
#
# Static dielectric constant tensor:
#      x y z
#    x 1.895860 0.000000 0.000000 
#    y 0.000000 1.895860 0.000000 
#    z 0.000000 0.000000 1.865360 
# 
# From -- ./inp_files/1527.got.cif
#   From: 2010.05.17/outbox.cif.g08.bks.cpg/sg182_1_cif.got.tgz:1527.got - 2010.05.20 11:58:53.
