data_PCOD9584207
_publ_section_title
;
Structure prediction by ZEFSAII (Michael W. Deem and Ramdas Pophale) SiO2 
 PCOD9584207
Probable space group: P 64 2 2
;
_chemical_formula_sum "Si O2"
_cell_formula_units_Z 84
_cell_length_a 18.347420
_cell_length_b 18.347420
_cell_length_c 14.462709
_cell_angle_alpha 90.000000
_cell_angle_beta 90.000000
_cell_angle_gamma 120.000000
_cell_volume 4216.288163
_symmetry_space_group_name_H-M "P 64 2 2"
_symmetry_group_IT_number 181
_symmetry_cell_setting 'hexagonal'
loop_
_space_group_symop_operation_xyz
x,y,z
x-y,x,2/3+z
-y,x-y,1/3+z
-x,-y,z
-x+y,-x,2/3+z
y,-x+y,1/3+z
x-y,-y,-z
-x,-x+y,2/3-z
y,x,1/3-z
-y,-x,1/3-z
-x+y,y,-z
x,x-y,2/3-z
loop_
_atom_site_type_symbol
_atom_site_label
_atom_site_fract_x
_atom_site_fract_y
_atom_site_fract_z
Si Si1 0.662383 0.906548 0.276093
Si Si2 0.053988 0.749812 0.915091
Si Si3 0.739109 0.311744 0.036174
Si Si4 0.689507 0.207787 0.790111
Si Si5 0.348345 0.863792 0.995767
Si Si6 0.495447 0.350009 0.140694
Si Si7 0.222131 0.922029 0.943949
O O1 0.681168 0.840584 0.333334
O O2 0.560965 0.859845 0.267823
O O3 0.694256 0.927338 0.168878
O O4 0.700621 0.990969 0.335249
O O5 0.089755 0.694041 0.867209
O O6 0.133564 0.835122 0.951584
O O7 0.000000 0.760976 0.833334
O O8 0.778186 0.391325 0.101612
O O9 0.655218 0.310435 0.000000
O O10 0.702183 0.215088 0.064802
O O11 0.808941 0.335175 0.957859
O O12 0.676277 0.177357 0.894680
O O13 0.777428 0.295830 0.788523
O O14 0.297819 0.913817 0.993157
O O15 0.449471 0.898942 0.000000
O O16 0.552601 0.447400 0.166667
O O17 0.226102 0.000000 0.000000
#
# Coordination Sequence:
#
# PCOD9584207 Si02
#       7
#    12  12  12  12  12  12  12
#     4  11  22  43  72  96 129 184 223 270 354 429
#     4  12  24  44  70 101 134 174 223 284 354 423
#     4  10  17  28  55  84 121 178 230 265 306 370
#     4  10  19  35  58  88 129 186 233 265 324 389
#     4   9  20  37  58  85 130 183 233 274 320 372
#     4  11  21  36  58  95 140 175 225 282 331 380
#     4  11  24  47  72  99 136 175 227 285 349 426
#
# _framework density 19.922737000000001
#
# number of rings (size 3 to 8) (size 9 to 14) (size 15 to 20)
#    0.000    1.429    7.143    0.429    2.000    1.143 
#    2.571    1.429    0.000    0.429    0.000    0.000 
#    0.000    0.000    0.000    0.000    0.000    0.000 
#
# Total GULP energy -467994.061373 kJ/mol
# GULP energy per Si atom -5571.357873 kJ/mol
# Density = 1.987739 g / cm^3
# Si number density = 19.922737 Si / 1000 Ang^3
#
#
#
# Elastic Constant Matrix: (Units=GPa)
#
#
# Indices 1 2 3 4 5 6 
#
# 1 98.1671 67.0087 36.8557 0.0000 0.0000 0.0000
# 2 67.0087 98.1671 36.8557 0.0000 0.0000 0.0000
# 3 36.8557 36.8557 71.8228 0.0000 0.0000 0.0000
# 4 0.0000 0.0000 0.0000 35.6233 0.0000 0.0000
# 5 0.0000 0.0000 0.0000 0.0000 35.6233 0.0000
# 6 0.0000 0.0000 0.0000 0.0000 0.0000 15.5792
#
#
#
# Elastic Compliance Matrix: (Units=1/GPa)
#
#
# Indices 1 2 3 4 5 6 
#
# 1 0.019973 -0.012121 -0.004029 0.000000 0.000000 0.000000
# 2 -0.012121 0.019973 -0.004029 0.000000 0.000000 0.000000
# 3 -0.004029 -0.004029 0.018059 0.000000 0.000000 0.000000
# 4 0.000000 0.000000 0.000000 0.028071 0.000000 0.000000
# 5 0.000000 0.000000 0.000000 0.000000 0.028071 0.000000
# 6 0.000000 0.000000 0.000000 0.000000 0.000000 0.064188
#
#
# Mechanical properties :
#
#
# Convention : Reuss Voigt Hill
#
# Bulk Modulus (GPa) = 56.67151 61.06636 58.86894
# Shear Modulus (GPa) = 22.26406 25.86096 24.06251
#
# Velocity S-wave (km/s) = 3.34656 3.60677 3.47910
# Velocity P-wave (km/s) = 6.59090 6.93276 6.76399
#
# Compressibility (1/GPa) = 0.01764555
#
# Stress axis : x y z
#
# Youngs Moduli (GPa) = 50.06711 50.06711 55.37549
#
# Poissons Ratio (x) = 0.60686 0.22313
# Poissons Ratio (y) = 0.60686 0.22313
# Poissons Ratio (z) = 0.20174 0.20174
#
# Static dielectric constant tensor:
#      x y z
#    x 1.748610 0.000000 0.000000 
#    y 0.000000 1.748610 0.000000 
#    z 0.000000 0.000000 1.578100 
# 
# From -- ./inp_files/6507.got.cif
#   From: 2010.05.17/outbox.cif.g08.bks.cpg/sg181_4_cif.got.tgz:6507.got - 2010.05.20 11:51:17.
