data_PCOD9584488
_publ_section_title
;
Structure prediction by ZEFSAII (Michael W. Deem and Ramdas Pophale) SiO2 
 PCOD9584488
Probable space group: P 64 2 2
;
_chemical_formula_sum "Si O2"
_cell_formula_units_Z 57
_cell_length_a 13.244668
_cell_length_b 13.244668
_cell_length_c 16.312303
_cell_angle_alpha 90.000000
_cell_angle_beta 90.000000
_cell_angle_gamma 120.000000
_cell_volume 2478.152706
_symmetry_space_group_name_H-M "P 64 2 2"
_symmetry_group_IT_number 181
_symmetry_cell_setting 'hexagonal'
loop_
_space_group_symop_operation_xyz
x,y,z
x-y,x,2/3+z
-y,x-y,1/3+z
-x,-y,z
-x+y,-x,2/3+z
y,-x+y,1/3+z
x-y,-y,-z
-x,-x+y,2/3-z
y,x,1/3-z
-y,-x,1/3-z
-x+y,y,-z
x,x-y,2/3-z
loop_
_atom_site_type_symbol
_atom_site_label
_atom_site_fract_x
_atom_site_fract_y
_atom_site_fract_z
Si Si1 0.476123 0.238062 0.833334
Si Si2 0.659062 0.645032 0.919257
Si Si3 0.500000 0.500000 0.666667
Si Si4 0.178193 0.523981 0.209703
Si Si5 0.636900 0.908259 0.574087
Si Si6 0.047129 0.863479 0.493348
O O1 0.402790 0.293784 0.869913
O O2 0.568124 0.228456 0.892465
O O3 0.631899 0.522978 0.877532
O O4 0.796425 0.727307 0.900200
O O5 0.632102 0.656844 0.012564
O O6 0.533644 0.609482 0.609105
O O7 0.270902 0.481727 0.220995
O O8 0.730003 0.859691 0.579516
O O9 0.678653 0.000000 0.500000
O O10 0.909748 0.819495 0.500000
O O11 0.104590 0.000000 0.500000
#
# Coordination Sequence:
#
# PCOD9584488 Si02
#       6
#     6  12   3  12  12  12
#     4  12  22  46  68 106 130 178 240 296 360 414
#     4  11  22  42  69  98 142 183 226 299 352 412
#     4  12  20  44  68 108 134 170 240 304 356 402
#     4  11  25  42  74 104 139 182 232 299 350 427
#     4  10  24  43  65  97 140 188 230 276 354 427
#     4   9  19  35  58  97 131 176 223 269 338 412
#
# _framework density 23.001004999999999
#
# number of rings (size 3 to 8) (size 9 to 14) (size 15 to 20)
#    0.000    1.474    3.158    1.263    0.000    8.421 
#    0.000   13.158    0.000    0.000    0.000    0.000 
#    0.000    0.000    0.000    0.000    0.000    0.000 
#
# Total GULP energy -317322.574517 kJ/mol
# GULP energy per Si atom -5567.062711 kJ/mol
# Density = 2.294865 g / cm^3
# Si number density = 23.001005 Si / 1000 Ang^3
#
#
#
# Elastic Constant Matrix: (Units=GPa)
#
#
# Indices 1 2 3 4 5 6 
#
# 1 77.2724 17.7781 11.6370 0.0000 0.0000 0.0000
# 2 17.7781 77.2724 11.6370 0.0000 0.0000 0.0000
# 3 11.6370 11.6370 91.0685 0.0000 0.0000 0.0000
# 4 0.0000 0.0000 0.0000 21.0978 0.0000 0.0000
# 5 0.0000 0.0000 0.0000 0.0000 21.0978 0.0000
# 6 0.0000 0.0000 0.0000 0.0000 0.0000 29.7472
#
#
#
# Elastic Compliance Matrix: (Units=1/GPa)
#
#
# Indices 1 2 3 4 5 6 
#
# 1 0.013834 -0.002974 -0.001388 0.000000 0.000000 0.000000
# 2 -0.002974 0.013834 -0.001388 0.000000 0.000000 0.000000
# 3 -0.001388 -0.001388 0.011335 0.000000 0.000000 0.000000
# 4 0.000000 0.000000 0.000000 0.047398 0.000000 0.000000
# 5 0.000000 0.000000 0.000000 0.000000 0.047398 0.000000
# 6 0.000000 0.000000 0.000000 0.000000 0.000000 0.033617
#
#
# Mechanical properties :
#
#
# Convention : Reuss Voigt Hill
#
# Bulk Modulus (GPa) = 36.35658 36.41304 36.38481
# Shear Modulus (GPa) = 26.58373 28.02596 27.30484
#
# Velocity S-wave (km/s) = 3.40334 3.49444 3.44919
# Velocity P-wave (km/s) = 5.59325 5.66983 5.63167
#
# Compressibility (1/GPa) = 0.02750534
#
# Stress axis : x y z
#
# Youngs Moduli (GPa) = 72.28339 72.28339 88.21910
#
# Poissons Ratio (x) = 0.21496 0.12243
# Poissons Ratio (y) = 0.21496 0.12243
# Poissons Ratio (z) = 0.10031 0.10031
#
# Static dielectric constant tensor:
#      x y z
#    x 1.933050 0.000000 0.000000 
#    y 0.000000 1.933050 0.000000 
#    z 0.000000 0.000000 1.876470 
# 
# From -- ./inp_files/6217.got.cif
#   From: 2010.05.17/outbox.cif.g08.bks.cpg/sg181_4_cif.got.tgz:6217.got - 2010.05.20 11:51:17.
