data_PCOD9584533
_publ_section_title
;
Structure prediction by ZEFSAII (Michael W. Deem and Ramdas Pophale) SiO2 
 PCOD9584533
Probable space group: P 64 2 2
;
_chemical_formula_sum "Si O2"
_cell_formula_units_Z 54
_cell_length_a 17.271587
_cell_length_b 17.271587
_cell_length_c 11.687366
_cell_angle_alpha 90.000000
_cell_angle_beta 90.000000
_cell_angle_gamma 120.000000
_cell_volume 3019.338226
_symmetry_space_group_name_H-M "P 64 2 2"
_symmetry_group_IT_number 181
_symmetry_cell_setting 'hexagonal'
loop_
_space_group_symop_operation_xyz
x,y,z
x-y,x,2/3+z
-y,x-y,1/3+z
-x,-y,z
-x+y,-x,2/3+z
y,-x+y,1/3+z
x-y,-y,-z
-x,-x+y,2/3-z
y,x,1/3-z
-y,-x,1/3-z
-x+y,y,-z
x,x-y,2/3-z
loop_
_atom_site_type_symbol
_atom_site_label
_atom_site_fract_x
_atom_site_fract_y
_atom_site_fract_z
Si Si1 0.753121 0.192004 0.968575
Si Si2 0.424449 0.712225 0.833334
Si Si3 0.500000 0.500000 0.846857
Si Si4 0.461066 0.353896 0.166952
Si Si5 0.649863 0.475907 0.929982
Si Si6 0.360804 0.360804 0.666667
O O1 0.846555 0.279658 0.933240
O O2 0.698568 0.173408 0.851792
O O3 0.707865 0.218694 0.070520
O O4 0.733852 0.092351 0.998008
O O5 0.365459 0.622213 0.904810
O O6 0.551367 0.464326 0.923362
O O7 0.426376 0.418937 0.770902
O O8 0.396099 0.396099 0.166667
O O9 0.563082 0.436919 0.166667
O O10 0.467356 0.310763 0.288092
#
# Coordination Sequence:
#
# PCOD9584533 Si02
#       6
#    12   6   6  12  12   6
#     4  11  23  35  53  77 102 144 191 236 280 332
#     4  12  22  34  52  76 105 146 189 232 272 328
#     4   9  16  32  51  72  96 140 177 225 276 316
#     4  11  23  38  55  78 109 146 185 233 295 354
#     4  11  22  35  54  76 108 142 187 236 278 331
#     4   9  18  34  52  72 100 138 187 238 274 315
#
# _framework density 17.884715
#
# number of rings (size 3 to 8) (size 9 to 14) (size 15 to 20)
#    0.000    1.333    4.444    2.667    1.556    1.778 
#    0.000    0.000    0.000    0.000    0.000    0.000 
#    0.000    0.000    0.000   27.000    0.000    0.111 
#
# Total GULP energy -300674.037479 kJ/mol
# GULP energy per Si atom -5568.037731 kJ/mol
# Density = 1.784401 g / cm^3
# Si number density = 17.884715 Si / 1000 Ang^3
#
#
#
# Elastic Constant Matrix: (Units=GPa)
#
#
# Indices 1 2 3 4 5 6 
#
# 1 82.5421 37.9275 17.4526 0.0000 0.0000 0.0000
# 2 37.9275 82.5421 17.4526 0.0000 0.0000 0.0000
# 3 17.4526 17.4526 99.6828 0.0000 0.0000 0.0000
# 4 0.0000 0.0000 0.0000 88.9872 0.0000 0.0000
# 5 0.0000 0.0000 0.0000 0.0000 88.9872 0.0000
# 6 0.0000 0.0000 0.0000 0.0000 0.0000 22.3073
#
#
#
# Elastic Compliance Matrix: (Units=1/GPa)
#
#
# Indices 1 2 3 4 5 6 
#
# 1 0.015579 -0.006835 -0.001531 0.000000 0.000000 0.000000
# 2 -0.006835 0.015579 -0.001531 0.000000 0.000000 0.000000
# 3 -0.001531 -0.001531 0.010568 0.000000 0.000000 0.000000
# 4 0.000000 0.000000 0.000000 0.011238 0.000000 0.000000
# 5 0.000000 0.000000 0.000000 0.000000 0.011238 0.000000
# 6 0.000000 0.000000 0.000000 0.000000 0.000000 0.044828
#
#
# Mechanical properties :
#
#
# Convention : Reuss Voigt Hill
#
# Bulk Modulus (GPa) = 45.59374 45.60362 45.59868
# Shear Modulus (GPa) = 36.72833 52.85196 44.79014
#
# Velocity S-wave (km/s) = 4.53660 5.44202 5.00981
# Velocity P-wave (km/s) = 7.27939 8.06483 7.68215
#
# Compressibility (1/GPa) = 0.02193284
#
# Stress axis : x y z
#
# Youngs Moduli (GPa) = 64.18768 64.18768 94.62606
#
# Poissons Ratio (x) = 0.43871 0.14487
# Poissons Ratio (y) = 0.43871 0.14487
# Poissons Ratio (z) = 0.09827 0.09827
#
# Static dielectric constant tensor:
#      x y z
#    x 1.555200 0.000000 0.000000 
#    y 0.000000 1.555200 0.000000 
#    z 0.000000 0.000000 1.780660 
# 
# From -- ./inp_files/4739.got.cif
#   From: 2010.05.17/outbox.cif.g08.bks.cpg/sg181_3_cif.got.tgz:4739.got - 2010.05.20 11:51:17.
