data_PCOD9584568
_publ_section_title
;
Structure prediction by ZEFSAII (Michael W. Deem and Ramdas Pophale) SiO2 
 PCOD9584568
Probable space group: P 64 2 2
;
_chemical_formula_sum "Si O2"
_cell_formula_units_Z 36
_cell_length_a 8.924260
_cell_length_b 8.924260
_cell_length_c 20.447990
_cell_angle_alpha 90.000000
_cell_angle_beta 90.000000
_cell_angle_gamma 120.000000
_cell_volume 1410.346045
_symmetry_space_group_name_H-M "P 64 2 2"
_symmetry_group_IT_number 181
_symmetry_cell_setting 'hexagonal'
loop_
_space_group_symop_operation_xyz
x,y,z
x-y,x,2/3+z
-y,x-y,1/3+z
-x,-y,z
-x+y,-x,2/3+z
y,-x+y,1/3+z
x-y,-y,-z
-x,-x+y,2/3-z
y,x,1/3-z
-y,-x,1/3-z
-x+y,y,-z
x,x-y,2/3-z
loop_
_atom_site_type_symbol
_atom_site_label
_atom_site_fract_x
_atom_site_fract_y
_atom_site_fract_z
Si Si1 0.613128 0.699468 0.008367
Si Si2 0.139118 0.200664 0.901097
Si Si3 0.321959 0.499565 0.796339
O O1 0.500000 0.500000 0.990596
O O2 0.769729 0.720142 0.053558
O O3 0.513810 0.761775 0.056542
O O4 0.700588 0.794149 0.940770
O O5 0.202053 0.325733 0.838728
O O6 0.000000 0.000000 0.895826
O O7 0.500000 0.500000 0.793769
O O8 0.328599 0.664300 0.833334
#
# Coordination Sequence:
#
# PCOD9584568 Si02
#       3
#    12  12  12
#     4  11  23  48  79 113 162 210 266 340 414 499
#     4  11  26  48  81 120 155 214 287 339 418 516
#     4  12  28  51  80 121 165 218 278 354 435 513
#
# _framework density 25.525648
#
# number of rings (size 3 to 8) (size 9 to 14) (size 15 to 20)
#    0.000    0.667    3.333    4.000    4.667    2.667 
#    6.000    0.000    0.000    0.000    0.000    0.000 
#    0.000    0.000    0.000    0.000    0.000    0.000 
#
# Total GULP energy -201761.353446 kJ/mol
# GULP energy per Si atom -5604.482040 kJ/mol
# Density = 2.546755 g / cm^3
# Si number density = 25.525648 Si / 1000 Ang^3
#
#
#
# Elastic Constant Matrix: (Units=GPa)
#
#
# Indices 1 2 3 4 5 6 
#
# 1 175.7711 85.3796 68.9484 0.0000 0.0000 0.0000
# 2 85.3796 175.7711 68.9484 0.0000 0.0000 0.0000
# 3 68.9484 68.9484 139.5221 0.0000 0.0000 0.0000
# 4 0.0000 0.0000 0.0000 4.0159 0.0000 0.0000
# 5 0.0000 0.0000 0.0000 0.0000 4.0159 0.0000
# 6 0.0000 0.0000 0.0000 0.0000 0.0000 45.1958
#
#
#
# Elastic Compliance Matrix: (Units=1/GPa)
#
#
# Indices 1 2 3 4 5 6 
#
# 1 0.008122 -0.002941 -0.002560 0.000000 0.000000 0.000000
# 2 -0.002941 0.008122 -0.002560 0.000000 0.000000 0.000000
# 3 -0.002560 -0.002560 0.009698 0.000000 0.000000 0.000000
# 4 0.000000 0.000000 0.000000 0.249013 0.000000 0.000000
# 5 0.000000 0.000000 0.000000 0.000000 0.249013 0.000000
# 6 0.000000 0.000000 0.000000 0.000000 0.000000 0.022126
#
#
# Mechanical properties :
#
#
# Convention : Reuss Voigt Hill
#
# Bulk Modulus (GPa) = 101.84718 104.17967 103.01343
# Shear Modulus (GPa) = 8.84190 28.49804 18.66997
#
# Velocity S-wave (km/s) = 1.86318 3.34495 2.70741
# Velocity P-wave (km/s) = 6.67946 7.47132 7.08646
#
# Compressibility (1/GPa) = 0.00981863
#
# Stress axis : x y z
#
# Youngs Moduli (GPa) = 123.12103 123.12103 103.11494
#
# Poissons Ratio (x) = 0.36209 0.26402
# Poissons Ratio (y) = 0.36209 0.26402
# Poissons Ratio (z) = 0.31524 0.31524
#
# Static dielectric constant tensor:
#      x y z
#    x 2.039090 0.000000 0.000000 
#    y 0.000000 2.039090 0.000000 
#    z 0.000000 0.000000 2.149790 
# 
# From -- ./inp_files/10793.got.cif
#   From: 2010.05.17/outbox.cif.g08.bks.cpg/sg181_6_cif.got.tgz:10793.got - 2010.05.20 11:51:17.
