data_PCOD9584593
_publ_section_title
;
Structure prediction by ZEFSAII (Michael W. Deem and Ramdas Pophale) SiO2 
 PCOD9584593
Probable space group: P 64 2 2
;
_chemical_formula_sum "Si O2"
_cell_formula_units_Z 48
_cell_length_a 17.686644
_cell_length_b 17.686644
_cell_length_c 8.083280
_cell_angle_alpha 90.000000
_cell_angle_beta 90.000000
_cell_angle_gamma 120.000000
_cell_volume 2189.823556
_symmetry_space_group_name_H-M "P 64 2 2"
_symmetry_group_IT_number 181
_symmetry_cell_setting 'hexagonal'
loop_
_space_group_symop_operation_xyz
x,y,z
x-y,x,2/3+z
-y,x-y,1/3+z
-x,-y,z
-x+y,-x,2/3+z
y,-x+y,1/3+z
x-y,-y,-z
-x,-x+y,2/3-z
y,x,1/3-z
-y,-x,1/3-z
-x+y,y,-z
x,x-y,2/3-z
loop_
_atom_site_type_symbol
_atom_site_label
_atom_site_fract_x
_atom_site_fract_y
_atom_site_fract_z
Si Si1 0.158708 0.528928 0.171238
Si Si2 0.320468 0.263190 0.498163
Si Si3 0.479239 0.787368 0.659577
Si Si4 0.791972 0.679675 0.327223
O O1 0.131362 0.565681 0.333334
O O2 0.101097 0.425244 0.145937
O O3 0.164966 0.589592 0.020966
O O4 0.257628 0.549380 0.200963
O O5 0.297763 0.297763 0.666667
O O6 0.296528 0.163902 0.527801
O O7 0.261210 0.270984 0.357903
O O8 0.477835 0.738918 0.833334
O O9 0.579130 0.857576 0.628113
O O10 0.841416 0.682831 0.500000
#
# Coordination Sequence:
#
# PCOD9584593 Si02
#       4
#    12  12  12  12
#     4   9  15  22  32  47  70 103 139 191 242 269
#     4   9  15  22  32  47  70 103 140 186 238 284
#     4   8  14  22  31  46  69 101 139 189 240 270
#     4   8  14  22  31  46  69 101 139 184 235 285
#
# _framework density 21.919574999999998
#
# number of rings (size 3 to 8) (size 9 to 14) (size 15 to 20)
#    0.000    3.500    0.000    4.500    0.000    3.500 
#    0.000    0.000    0.000    0.000    0.000    0.000 
#    0.000    0.000    0.000  918.000    0.000    0.000 
#
# Total GULP energy -268017.226403 kJ/mol
# GULP energy per Si atom -5583.692217 kJ/mol
# Density = 2.186968 g / cm^3
# Si number density = 21.919575 Si / 1000 Ang^3
#
#
#
# Elastic Constant Matrix: (Units=GPa)
#
#
# Indices 1 2 3 4 5 6 
#
# 1 147.7988 95.3028 40.3388 0.0000 0.0000 0.0000
# 2 95.3028 147.7988 40.3388 0.0000 0.0000 0.0000
# 3 40.3388 40.3388 81.9904 0.0000 0.0000 0.0000
# 4 0.0000 0.0000 0.0000 16.8286 0.0000 0.0000
# 5 0.0000 0.0000 0.0000 0.0000 16.8286 0.0000
# 6 0.0000 0.0000 0.0000 0.0000 0.0000 26.2480
#
#
#
# Elastic Compliance Matrix: (Units=1/GPa)
#
#
# Indices 1 2 3 4 5 6 
#
# 1 0.011983 -0.007066 -0.002419 0.000000 0.000000 0.000000
# 2 -0.007066 0.011983 -0.002419 0.000000 0.000000 0.000000
# 3 -0.002419 -0.002419 0.014577 0.000000 0.000000 0.000000
# 4 0.000000 0.000000 0.000000 0.059423 0.000000 0.000000
# 5 0.000000 0.000000 0.000000 0.000000 0.059423 0.000000
# 6 0.000000 0.000000 0.000000 0.000000 0.000000 0.038098
#
#
# Mechanical properties :
#
#
# Convention : Reuss Voigt Hill
#
# Bulk Modulus (GPa) = 67.87020 81.06097 74.46559
# Shear Modulus (GPa) = 22.30106 25.42154 23.86130
#
# Velocity S-wave (km/s) = 3.19314 3.40923 3.30295
# Velocity P-wave (km/s) = 6.68022 7.24972 6.97079
#
# Compressibility (1/GPa) = 0.01473401
#
# Stress axis : x y z
#
# Youngs Moduli (GPa) = 83.45407 83.45407 68.60324
#
# Poissons Ratio (x) = 0.58972 0.16593
# Poissons Ratio (y) = 0.58972 0.16593
# Poissons Ratio (z) = 0.20185 0.20185
#
# Static dielectric constant tensor:
#      x y z
#    x 1.787100 0.000000 0.000000 
#    y 0.000000 1.787100 0.000000 
#    z 0.000000 0.000000 1.919550 
# 
# From -- ./inp_files/2643.got.cif
#   From: 2010.05.17/outbox.cif.g08.bks.cpg/sg181_2_cif.got.tgz:2643.got - 2010.05.20 11:51:17.
