data_PCOD9584197
_publ_section_title
;
Structure prediction by ZEFSAII (Michael W. Deem and Ramdas Pophale) SiO2 
 PCOD9584197
Probable space group: P 62 2 2
;
_chemical_formula_sum "Si O2"
_cell_formula_units_Z 84
_cell_length_a 18.000000
_cell_length_b 18.000000
_cell_length_c 15.000000
_cell_angle_alpha 90.000000
_cell_angle_beta 90.000000
_cell_angle_gamma 120.000000
_cell_volume 4208.883462
_symmetry_space_group_name_H-M "P 62 2 2"
_symmetry_group_IT_number 180
_symmetry_cell_setting 'hexagonal'
loop_
_space_group_symop_operation_xyz
x,y,z
x-y,x,1/3+z
-y,x-y,2/3+z
-x,-y,z
-x+y,-x,1/3+z
y,-x+y,2/3+z
x-y,-y,-z
-x,-x+y,1/3-z
y,x,2/3-z
-y,-x,2/3-z
-x+y,y,-z
x,x-y,1/3-z
loop_
_atom_site_type_symbol
_atom_site_label
_atom_site_fract_x
_atom_site_fract_y
_atom_site_fract_z
Si Si1 0.364725 0.263894 0.120792
Si Si2 0.928085 0.856169 0.500000
Si Si3 0.258526 0.944276 0.084670
Si Si4 0.898159 0.433846 0.916723
Si Si5 0.874975 0.874975 0.833334
Si Si6 0.643450 0.159117 0.071261
Si Si7 0.079999 0.241802 0.315344
Si Si8 0.245459 0.606998 0.273346
O O1 0.365305 0.182653 0.166667
O O2 0.301818 0.289488 0.170791
O O3 0.458780 0.344173 0.119663
O O4 0.326333 0.241183 0.022021
O O5 0.911942 0.803708 0.406922
O O6 0.029708 0.918632 0.507079
O O7 0.311170 0.897042 0.061690
O O8 0.158326 0.878747 0.088361
O O9 0.265948 0.000000 0.000000
O O10 0.857858 0.464608 0.838556
O O11 0.000000 0.500000 0.925740
O O12 0.845127 0.413129 0.008696
O O13 0.826140 0.827011 0.923516
O O14 0.712277 0.258425 0.053704
O O15 0.567009 0.134017 0.000000
O O16 0.309719 0.690281 0.333334
O O17 0.242363 0.621182 0.166667
#
# Coordination Sequence:
#
# PCOD9584197 Si02
#       8
#    12   6  12  12   6  12  12  12
#     4  12  25  39  66  98 133 173 224 278 350 410
#     4  11  22  38  62  92 126 176 230 280 322 388
#     4  12  22  39  62  96 134 172 211 280 346 402
#     4  12  26  46  69 105 142 181 230 283 349 418
#     4  11  24  38  60  88 129 176 230 274 323 382
#     4  11  25  40  69 105 141 172 224 286 353 409
#     4  12  23  41  62  94 129 175 225 275 337 398
#     4  11  24  46  74 104 138 182 230 284 339 411
#
# _framework density 19.957787
#
# number of rings (size 3 to 8) (size 9 to 14) (size 15 to 20)
#    0.000    0.429    5.000    4.286    4.000    1.429 
#    0.000    2.857    3.143    0.000    0.000    0.000 
#    0.000    0.000    0.000    0.000    0.000    0.000 
#
# Total GULP energy -468986.905807 kJ/mol
# GULP energy per Si atom -5583.177450 kJ/mol
# Density = 1.991236 g / cm^3
# Si number density = 19.957787 Si / 1000 Ang^3
#
#
#
# Elastic Constant Matrix: (Units=GPa)
#
#
# Indices 1 2 3 4 5 6 
#
# 1 90.3777 -27.6953 1.2950 0.0000 0.0000 0.0000
# 2 -27.6953 90.3777 1.2950 0.0000 0.0000 0.0000
# 3 1.2950 1.2950 84.4808 0.0000 0.0000 0.0000
# 4 0.0000 0.0000 0.0000 16.8979 0.0000 0.0000
# 5 0.0000 0.0000 0.0000 0.0000 16.8979 0.0000
# 6 0.0000 0.0000 0.0000 0.0000 0.0000 59.0365
#
#
#
# Elastic Compliance Matrix: (Units=1/GPa)
#
#
# Indices 1 2 3 4 5 6 
#
# 1 0.012216 0.003747 -0.000245 0.000000 0.000000 0.000000
# 2 0.003747 0.012216 -0.000245 0.000000 0.000000 0.000000
# 3 -0.000245 -0.000245 0.011845 0.000000 0.000000 0.000000
# 4 0.000000 0.000000 0.000000 0.059179 0.000000 0.000000
# 5 0.000000 0.000000 0.000000 0.000000 0.059179 0.000000
# 6 0.000000 0.000000 0.000000 0.000000 0.000000 0.016939
#
#
# Mechanical properties :
#
#
# Convention : Reuss Voigt Hill
#
# Bulk Modulus (GPa) = 23.36842 23.89174 23.63008
# Shear Modulus (GPa) = 27.88267 37.92255 32.90261
#
# Velocity S-wave (km/s) = 3.74181 4.36379 4.06471
# Velocity P-wave (km/s) = 5.51385 6.11452 5.82193
#
# Compressibility (1/GPa) = 0.04279279
#
# Stress axis : x y z
#
# Youngs Moduli (GPa) = 81.85689 81.85689 84.42725
#
# Poissons Ratio (x) = -0.30673 0.02066
# Poissons Ratio (y) = -0.30673 0.02066
# Poissons Ratio (z) = 0.02003 0.02003
#
# Static dielectric constant tensor:
#      x y z
#    x 1.629810 0.000000 0.000000 
#    y 0.000000 1.629810 0.000000 
#    z 0.000000 0.000000 1.755450 
# 
# From -- ./inp_files/6502.got.cif
#   From: 2010.05.17/outbox.ucp.g08.bks.cvg/sg180_4_cif.got.tgz:6502.got - 2010.06.11 15:20:15.
