data_PCOD9584308
_publ_section_title
;
Structure prediction by ZEFSAII (Michael W. Deem and Ramdas Pophale) SiO2 
 PCOD9584308
Probable space group: P 64 2 2
;
_chemical_formula_sum "Si O2"
_cell_formula_units_Z 69
_cell_length_a 14.644691
_cell_length_b 14.644691
_cell_length_c 20.259244
_cell_angle_alpha 90.000000
_cell_angle_beta 90.000000
_cell_angle_gamma 120.000000
_cell_volume 3762.827349
_symmetry_space_group_name_H-M "P 64 2 2"
_symmetry_group_IT_number 181
_symmetry_cell_setting 'hexagonal'
loop_
_space_group_symop_operation_xyz
x,y,z
x-y,x,2/3+z
-y,x-y,1/3+z
-x,-y,z
-x+y,-x,2/3+z
y,-x+y,1/3+z
x-y,-y,-z
-x,-x+y,2/3-z
y,x,1/3-z
-y,-x,1/3-z
-x+y,y,-z
x,x-y,2/3-z
loop_
_atom_site_type_symbol
_atom_site_label
_atom_site_fract_x
_atom_site_fract_y
_atom_site_fract_z
Si Si1 0.600376 0.494645 0.940650
Si Si2 0.399787 0.894978 0.878158
Si Si3 0.177817 0.994092 0.420135
Si Si4 0.175176 0.824825 0.666667
Si Si5 0.548071 0.254673 0.944521
Si Si6 0.879350 0.655397 0.309282
Si Si7 0.000000 0.000000 0.666667
O O1 0.500000 0.500000 0.967063
O O2 0.614479 0.528389 0.864228
O O3 0.705316 0.574152 0.978290
O O4 0.579275 0.375757 0.941465
O O5 0.426715 0.800987 0.884255
O O6 0.301175 0.878996 0.919788
O O7 0.500000 0.000000 0.906022
O O8 0.275350 0.101415 0.391860
O O9 0.176218 0.000000 0.500000
O O10 0.177869 0.891855 0.389752
O O11 0.074905 0.982613 0.383400
O O12 0.622717 0.245434 0.000000
O O13 0.425241 0.186349 0.965009
O O14 0.000000 0.734300 0.333334
#
# Coordination Sequence:
#
# PCOD9584308 Si02
#       7
#    12  12  12   6  12  12   3
#     4  11  22  39  59  85 122 162 209 249 301 365
#     4  10  20  34  59  92 121 153 198 262 317 362
#     4  11  23  41  64  90 125 162 205 252 311 377
#     4  11  24  43  62  86 127 168 207 252 306 366
#     4  10  20  35  59  85 118 158 198 248 306 360
#     4  11  20  36  63  91 120 157 203 250 315 374
#     4  10  22  40  64  90 114 160 196 256 314 366
#
# _framework density 18.337275000000002
#
# number of rings (size 3 to 8) (size 9 to 14) (size 15 to 20)
#    0.000    1.391    3.478    2.870    0.000    0.000 
#    0.000    0.000    0.000    1.043    0.000    0.000 
#    0.000    0.000    0.000    0.000    0.000    0.000 
#
# Total GULP energy -384774.498059 kJ/mol
# GULP energy per Si atom -5576.442001 kJ/mol
# Density = 1.829554 g / cm^3
# Si number density = 18.337275 Si / 1000 Ang^3
#
#
#
# Elastic Constant Matrix: (Units=GPa)
#
#
# Indices 1 2 3 4 5 6 
#
# 1 110.9121 53.8148 31.0143 0.0000 0.0000 0.0000
# 2 53.8148 110.9121 31.0143 0.0000 0.0000 0.0000
# 3 31.0143 31.0143 86.2622 0.0000 0.0000 0.0000
# 4 0.0000 0.0000 0.0000 16.5837 0.0000 0.0000
# 5 0.0000 0.0000 0.0000 0.0000 16.5837 0.0000
# 6 0.0000 0.0000 0.0000 0.0000 0.0000 28.5486
#
#
#
# Elastic Compliance Matrix: (Units=1/GPa)
#
#
# Indices 1 2 3 4 5 6 
#
# 1 0.012268 -0.005246 -0.002524 0.000000 0.000000 0.000000
# 2 -0.005246 0.012268 -0.002524 0.000000 0.000000 0.000000
# 3 -0.002524 -0.002524 0.013408 0.000000 0.000000 0.000000
# 4 0.000000 0.000000 0.000000 0.060300 0.000000 0.000000
# 5 0.000000 0.000000 0.000000 0.000000 0.060300 0.000000
# 6 0.000000 0.000000 0.000000 0.000000 0.000000 0.035028
#
#
# Mechanical properties :
#
#
# Convention : Reuss Voigt Hill
#
# Bulk Modulus (GPa) = 57.62791 59.97480 58.80135
# Shear Modulus (GPa) = 22.73287 25.15940 23.94614
#
# Velocity S-wave (km/s) = 3.52477 3.70812 3.61761
# Velocity P-wave (km/s) = 6.93255 7.14920 7.04171
#
# Compressibility (1/GPa) = 0.01735270
#
# Stress axis : x y z
#
# Youngs Moduli (GPa) = 81.51555 81.51555 74.58363
#
# Poissons Ratio (x) = 0.42766 0.18828
# Poissons Ratio (y) = 0.42766 0.18828
# Poissons Ratio (z) = 0.20578 0.20578
#
# Static dielectric constant tensor:
#      x y z
#    x 1.646260 0.000000 0.000000 
#    y 0.000000 1.646260 0.000000 
#    z 0.000000 0.000000 1.630020 
# 
# From -- ./inp_files/7812.got.cif
#   From: 2010.05.17/outbox.cif.g08.bks.cpg/sg181_4_cif.got.tgz:7812.got - 2010.05.20 11:51:17.
