data_PCOD9584419
_publ_section_title
;
Structure prediction by ZEFSAII (Michael W. Deem and Ramdas Pophale) SiO2 
 PCOD9584419
Probable space group: P 64 2 2
;
_chemical_formula_sum "Si O2"
_cell_formula_units_Z 54
_cell_length_a 22.666961
_cell_length_b 22.666961
_cell_length_c 5.822750
_cell_angle_alpha 90.000000
_cell_angle_beta 90.000000
_cell_angle_gamma 120.000000
_cell_volume 2590.868498
_symmetry_space_group_name_H-M "P 64 2 2"
_symmetry_group_IT_number 181
_symmetry_cell_setting 'hexagonal'
loop_
_space_group_symop_operation_xyz
x,y,z
x-y,x,2/3+z
-y,x-y,1/3+z
-x,-y,z
-x+y,-x,2/3+z
y,-x+y,1/3+z
x-y,-y,-z
-x,-x+y,2/3-z
y,x,1/3-z
-y,-x,1/3-z
-x+y,y,-z
x,x-y,2/3-z
loop_
_atom_site_type_symbol
_atom_site_label
_atom_site_fract_x
_atom_site_fract_y
_atom_site_fract_z
Si Si1 0.391898 0.783796 0.500000
Si Si2 0.104954 0.000000 0.000000
Si Si3 0.376922 0.020063 0.252672
Si Si4 0.000000 0.744982 0.833334
Si Si5 0.696702 0.522084 0.885513
Si Si6 0.891572 0.783144 0.000000
Si Si7 0.458489 0.729245 0.833334
O O1 0.457014 0.824759 0.336262
O O2 0.412232 0.737686 0.647944
O O3 0.169726 0.053419 0.143675
O O4 0.043518 0.956483 0.166667
O O5 0.413715 0.101445 0.250406
O O6 0.397040 0.000000 0.500000
O O7 0.295952 0.989686 0.289704
O O8 0.391009 0.000000 0.000000
O O9 0.068313 0.817185 0.786932
O O10 0.702265 0.503722 0.622974
O O11 0.765744 0.531487 0.000000
#
# Coordination Sequence:
#
# PCOD9584419 Si02
#       7
#     6   6  12   6  12   6   6
#     4  10  22  39  67 104 149 192 230 292 356 442
#     4  12  24  39  58  82 124 154 200 255 334 424
#     4  10  26  47  71  98 135 183 242 300 345 420
#     4  10  26  44  67  95 124 172 228 290 354 430
#     4  10  23  42  69 102 143 188 238 294 359 431
#     4  12  24  43  62  92 122 162 212 274 352 426
#     4  10  22  37  68 106 151 184 237 290 369 426
#
# _framework density 20.842433
#
# number of rings (size 3 to 8) (size 9 to 14) (size 15 to 20)
#    0.667    0.889    2.222    0.667    9.333   11.111 
#    0.000    0.556    0.000    0.000    0.000    0.000 
#    0.000    0.000    0.000    0.000    0.000    0.000 
#
# Total GULP energy -301023.161070 kJ/mol
# GULP energy per Si atom -5574.502983 kJ/mol
# Density = 2.079499 g / cm^3
# Si number density = 20.842433 Si / 1000 Ang^3
#
#
#
# Elastic Constant Matrix: (Units=GPa)
#
#
# Indices 1 2 3 4 5 6 
#
# 1 215.6744 -142.7111 21.2302 0.0000 0.0000 0.0000
# 2 -142.7111 215.6744 21.2302 0.0000 0.0000 0.0000
# 3 21.2302 21.2302 123.0888 0.0000 0.0000 0.0000
# 4 0.0000 0.0000 0.0000 9.7515 0.0000 0.0000
# 5 0.0000 0.0000 0.0000 0.0000 9.7515 0.0000
# 6 0.0000 0.0000 0.0000 0.0000 0.0000 179.1928
#
#
#
# Elastic Compliance Matrix: (Units=1/GPa)
#
#
# Indices 1 2 3 4 5 6 
#
# 1 0.009012 0.006222 -0.002628 0.000000 0.000000 0.000000
# 2 0.006222 0.009012 -0.002628 0.000000 0.000000 0.000000
# 3 -0.002628 -0.002628 0.009031 0.000000 0.000000 0.000000
# 4 0.000000 0.000000 0.000000 0.102549 0.000000 0.000000
# 5 0.000000 0.000000 0.000000 0.000000 0.102549 0.000000
# 6 0.000000 0.000000 0.000000 0.000000 0.000000 0.005581
#
#
# Mechanical properties :
#
#
# Convention : Reuss Voigt Hill
#
# Bulk Modulus (GPa) = 34.49542 39.32625 36.91084
# Shear Modulus (GPa) = 20.36968 83.38502 51.87735
#
# Velocity S-wave (km/s) = 3.12960 6.33200 4.99443
# Velocity P-wave (km/s) = 5.44479 8.50695 7.14192
#
# Compressibility (1/GPa) = 0.02898935
#
# Stress axis : x y z
#
# Youngs Moduli (GPa) = 110.95722 110.95722 110.73403
#
# Poissons Ratio (x) = -0.69040 0.29097
# Poissons Ratio (y) = -0.69040 0.29097
# Poissons Ratio (z) = 0.29156 0.29156
#
# Static dielectric constant tensor:
#      x y z
#    x 1.738320 0.000000 0.000000 
#    y 0.000000 1.738320 0.000000 
#    z 0.000000 0.000000 1.894620 
# 
# From -- ./inp_files/1319.got.cif
#   From: 2010.05.17/outbox.cif.g08.bks.cpg/sg181_1_cif.got.tgz:1319.got - 2010.05.20 11:51:17.
