data_PCOD9584466
_publ_section_title
;
Structure prediction by ZEFSAII (Michael W. Deem and Ramdas Pophale) SiO2 
 PCOD9584466
Probable space group: P 64 2 2
;
_chemical_formula_sum "Si O2"
_cell_formula_units_Z 57
_cell_length_a 14.525810
_cell_length_b 14.525810
_cell_length_c 14.270669
_cell_angle_alpha 90.000000
_cell_angle_beta 90.000000
_cell_angle_gamma 120.000000
_cell_volume 2607.688328
_symmetry_space_group_name_H-M "P 64 2 2"
_symmetry_group_IT_number 181
_symmetry_cell_setting 'hexagonal'
loop_
_space_group_symop_operation_xyz
x,y,z
x-y,x,2/3+z
-y,x-y,1/3+z
-x,-y,z
-x+y,-x,2/3+z
y,-x+y,1/3+z
x-y,-y,-z
-x,-x+y,2/3-z
y,x,1/3-z
-y,-x,1/3-z
-x+y,y,-z
x,x-y,2/3-z
loop_
_atom_site_type_symbol
_atom_site_label
_atom_site_fract_x
_atom_site_fract_y
_atom_site_fract_z
Si Si1 0.173095 0.586548 0.333334
Si Si2 0.233210 0.223499 0.848999
Si Si3 0.500000 0.000000 0.500000
Si Si4 0.661447 0.338554 0.166667
Si Si5 0.347283 0.339527 0.023509
Si Si6 0.184247 0.184247 0.166667
Si Si7 0.245718 0.754283 0.666667
Si Si8 0.656722 0.656722 0.666667
O O1 0.243436 0.625648 0.239965
O O2 0.100282 0.639761 0.327314
O O3 0.228297 0.114149 0.833334
O O4 0.269155 0.290081 0.754876
O O5 0.109434 0.190324 0.867645
O O6 0.331614 0.290513 0.920727
O O7 0.597410 0.049822 0.423031
O O8 0.562760 0.294603 0.239918
O O9 0.267413 0.237373 0.082890
O O10 0.299672 0.418021 0.005659
#
# Coordination Sequence:
#
# PCOD9584466 Si02
#       8
#     6  12   3   6  12   6   6   6
#     4  10  24  45  66 104 138 185 226 286 348 432
#     4  12  25  44  71 102 141 194 238 299 356 426
#     4  10  26  44  70 106 130 180 226 288 354 424
#     4  10  23  40  72  97 140 177 228 284 351 424
#     4  11  23  43  70 100 140 177 232 292 353 422
#     4  11  23  45  69 102 140 182 241 303 355 423
#     4  11  20  41  64 102 128 179 218 283 344 412
#     4  11  26  44  67 104 146 186 241 288 352 439
#
# _framework density 21.858440999999999
#
# number of rings (size 3 to 8) (size 9 to 14) (size 15 to 20)
#    0.000    1.053    2.105    3.474    1.474    3.368 
#    7.579    3.158    0.000    0.000    0.000    0.000 
#    0.000    0.000    0.000    0.000    0.000    0.000 
#
# Total GULP energy -317508.773220 kJ/mol
# GULP energy per Si atom -5570.329355 kJ/mol
# Density = 2.180869 g / cm^3
# Si number density = 21.858441 Si / 1000 Ang^3
#
#
#
# Elastic Constant Matrix: (Units=GPa)
#
#
# Indices 1 2 3 4 5 6 
#
# 1 95.3097 39.9605 22.2198 0.0000 0.0000 0.0000
# 2 39.9605 95.3097 22.2198 0.0000 0.0000 0.0000
# 3 22.2198 22.2198 121.8444 0.0000 0.0000 0.0000
# 4 0.0000 0.0000 0.0000 20.9895 0.0000 0.0000
# 5 0.0000 0.0000 0.0000 0.0000 20.9895 0.0000
# 6 0.0000 0.0000 0.0000 0.0000 0.0000 27.6746
#
#
#
# Elastic Compliance Matrix: (Units=1/GPa)
#
#
# Indices 1 2 3 4 5 6 
#
# 1 0.012965 -0.005102 -0.001434 0.000000 0.000000 0.000000
# 2 -0.005102 0.012965 -0.001434 0.000000 0.000000 0.000000
# 3 -0.001434 -0.001434 0.008730 0.000000 0.000000 0.000000
# 4 0.000000 0.000000 0.000000 0.047643 0.000000 0.000000
# 5 0.000000 0.000000 0.000000 0.000000 0.047643 0.000000
# 6 0.000000 0.000000 0.000000 0.000000 0.000000 0.036134
#
#
# Mechanical properties :
#
#
# Convention : Reuss Voigt Hill
#
# Bulk Modulus (GPa) = 53.41455 53.47379 53.44417
# Shear Modulus (GPa) = 26.55885 29.13495 27.84690
#
# Velocity S-wave (km/s) = 3.48952 3.65484 3.57314
# Velocity P-wave (km/s) = 6.38164 6.50594 6.44409
#
# Compressibility (1/GPa) = 0.01872149
#
# Stress axis : x y z
#
# Youngs Moduli (GPa) = 77.12822 77.12822 114.54459
#
# Poissons Ratio (x) = 0.39348 0.16426
# Poissons Ratio (y) = 0.39348 0.16426
# Poissons Ratio (z) = 0.11061 0.11061
#
# Static dielectric constant tensor:
#      x y z
#    x 1.792880 0.000000 0.000000 
#    y 0.000000 1.792880 0.000000 
#    z 0.000000 0.000000 1.981430 
# 
# From -- ./inp_files/6273.got.cif
#   From: 2010.05.17/outbox.cif.g08.bks.cpg/sg181_4_cif.got.tgz:6273.got - 2010.05.20 11:51:17.
