data_PCOD9584878
_publ_section_title
;
Structure prediction by ZEFSAII (Michael W. Deem and Ramdas Pophale) SiO2 
 PCOD9584878
Probable space group: P 63 2 2
;
_chemical_formula_sum "Si O2"
_cell_formula_units_Z 76
_cell_length_a 17.495442
_cell_length_b 17.495442
_cell_length_c 13.734178
_cell_angle_alpha 90.000000
_cell_angle_beta 90.000000
_cell_angle_gamma 120.000000
_cell_volume 3640.685307
_symmetry_space_group_name_H-M "P 63 2 2"
_symmetry_group_IT_number 182
_symmetry_cell_setting 'hexagonal'
loop_
_space_group_symop_operation_xyz
x,y,z
x-y,x,1/2+z
-y,x-y,z
-x,-y,1/2+z
-x+y,-x,z
y,-x+y,1/2+z
x-y,-y,-z
-x,-x+y,-z
y,x,-z
-y,-x,1/2-z
-x+y,y,1/2-z
x,x-y,1/2-z
loop_
_atom_site_type_symbol
_atom_site_label
_atom_site_fract_x
_atom_site_fract_y
_atom_site_fract_z
Si Si1 0.032251 0.707909 0.892285
Si Si2 0.000000 0.000000 0.887874
Si Si3 0.200002 0.722894 0.951082
Si Si4 0.793229 0.917380 0.140704
Si Si5 0.570932 0.974360 0.286347
Si Si6 0.168808 0.774447 0.362773
Si Si7 0.611613 0.449674 0.142653
O O1 0.136780 0.750621 0.894627
O O2 0.999489 0.778363 0.879146
O O3 0.992016 0.635389 0.806760
O O4 0.000000 0.666817 0.000000
O O5 0.946093 0.895686 0.865760
O O6 0.000000 0.000000 0.000000
O O7 0.156216 0.619192 0.930095
O O8 0.294964 0.769683 0.901337
O O9 0.208427 0.753519 0.062647
O O10 0.772802 0.886401 0.250000
O O11 0.706072 0.834272 0.093909
O O12 0.472146 0.944292 0.250000
O O13 0.578566 0.905736 0.356244
O O14 0.603080 0.067363 0.339529
O O15 0.201840 0.798161 0.250000
O O16 0.594347 0.405654 0.250000
#
# Coordination Sequence:
#
# PCOD9584878 Si02
#       7
#    12   4  12  12  12  12  12
#     4  12  22  42  75 101 137 194 245 293 363 442
#     4  12  28  44  67 102 145 197 247 318 367 431
#     4  12  25  45  75 103 143 196 238 299 380 433
#     4  11  23  46  68  97 145 189 241 304 369 439
#     4  11  23  45  70 105 144 187 237 308 359 432
#     4  11  24  46  72 105 145 190 242 305 360 447
#     4  11  25  45  68 106 145 182 243 305 365 437
#
# _framework density 20.87519
#
# number of rings (size 3 to 8) (size 9 to 14) (size 15 to 20)
#    0.000    0.632    7.895    1.737    0.000    4.421 
#    2.842    0.000    0.000    0.316    0.000    0.000 
#    0.000    0.000    0.000    0.000    0.000    0.000 
#
# Total GULP energy -423907.091872 kJ/mol
# GULP energy per Si atom -5577.724893 kJ/mol
# Density = 2.082768 g / cm^3
# Si number density = 20.875190 Si / 1000 Ang^3
#
#
#
# Elastic Constant Matrix: (Units=GPa)
#
#
# Indices 1 2 3 4 5 6 
#
# 1 78.2299 6.6268 25.0752 0.0000 0.0000 0.0000
# 2 6.6268 78.2299 25.0752 0.0000 0.0000 0.0000
# 3 25.0752 25.0752 96.2765 0.0000 0.0000 0.0000
# 4 0.0000 0.0000 0.0000 39.0120 0.0000 0.0000
# 5 0.0000 0.0000 0.0000 0.0000 39.0120 0.0000
# 6 0.0000 0.0000 0.0000 0.0000 0.0000 35.8016
#
#
#
# Elastic Compliance Matrix: (Units=1/GPa)
#
#
# Indices 1 2 3 4 5 6 
#
# 1 0.013947 -0.000019 -0.003628 0.000000 0.000000 0.000000
# 2 -0.000019 0.013947 -0.003628 0.000000 0.000000 0.000000
# 3 -0.003628 -0.003628 0.012276 0.000000 0.000000 0.000000
# 4 0.000000 0.000000 0.000000 0.025633 0.000000 0.000000
# 5 0.000000 0.000000 0.000000 0.000000 0.025633 0.000000
# 6 0.000000 0.000000 0.000000 0.000000 0.000000 0.027932
#
#
# Mechanical properties :
#
#
# Convention : Reuss Voigt Hill
#
# Bulk Modulus (GPa) = 39.02781 40.69895 39.86338
# Shear Modulus (GPa) = 35.09814 35.82909 35.46362
#
# Velocity S-wave (km/s) = 4.10485 4.14738 4.12617
# Velocity P-wave (km/s) = 6.41894 6.51713 6.46822
#
# Compressibility (1/GPa) = 0.02562275
#
# Stress axis : x y z
#
# Youngs Moduli (GPa) = 71.69901 71.69902 81.45713
#
# Poissons Ratio (x) = 0.00134 0.29550
# Poissons Ratio (y) = 0.00134 0.29550
# Poissons Ratio (z) = 0.26010 0.26010
#
# Static dielectric constant tensor:
#      x y z
#    x 1.699960 0.000000 0.000000 
#    y 0.000000 1.699960 0.000000 
#    z 0.000000 0.000000 1.752900 
# 
# From -- ./inp_files/3655.got.cif
#   From: 2010.05.17/outbox.cif.g08.bks.cpg/sg182_2_cif.got.tgz:3655.got - 2010.05.20 11:58:53.
