data_PCOD9584559
_publ_section_title
;
Structure prediction by ZEFSAII (Michael W. Deem and Ramdas Pophale) SiO2 
 PCOD9584559
Probable space group: P 64 2 2
;
_chemical_formula_sum "Si O2"
_cell_formula_units_Z 48
_cell_length_a 14.194944
_cell_length_b 14.194944
_cell_length_c 12.196672
_cell_angle_alpha 90.000000
_cell_angle_beta 90.000000
_cell_angle_gamma 120.000000
_cell_volume 2128.331846
_symmetry_space_group_name_H-M "P 64 2 2"
_symmetry_group_IT_number 181
_symmetry_cell_setting 'hexagonal'
loop_
_space_group_symop_operation_xyz
x,y,z
x-y,x,2/3+z
-y,x-y,1/3+z
-x,-y,z
-x+y,-x,2/3+z
y,-x+y,1/3+z
x-y,-y,-z
-x,-x+y,2/3-z
y,x,1/3-z
-y,-x,1/3-z
-x+y,y,-z
x,x-y,2/3-z
loop_
_atom_site_type_symbol
_atom_site_label
_atom_site_fract_x
_atom_site_fract_y
_atom_site_fract_z
Si Si1 0.893896 0.844046 0.880621
Si Si2 0.520088 0.247016 0.965120
Si Si3 0.229647 0.398868 0.838454
Si Si4 0.884546 0.493034 0.978270
O O1 0.800794 0.722363 0.869331
O O2 0.000000 0.845873 0.833334
O O3 0.871199 0.935600 0.833334
O O4 0.939394 0.878788 0.000000
O O5 0.507545 0.253773 0.833334
O O6 0.574388 0.367084 0.019707
O O7 0.602832 0.205663 0.000000
O O8 0.413909 0.181049 0.041063
O O9 0.344391 0.469536 0.899466
O O10 0.150362 0.438094 0.896971
O O11 0.000000 0.500000 0.958063
#
# Coordination Sequence:
#
# PCOD9584559 Si02
#       4
#    12  12  12  12
#     4  11  24  47  75 101 141 189 248 312 371 434
#     4  12  22  43  72 107 154 196 233 300 373 443
#     4  11  24  44  73 109 147 187 250 303 358 446
#     4  11  23  42  71 107 145 186 247 296 358 436
#
# _framework density 22.552873000000002
#
# number of rings (size 3 to 8) (size 9 to 14) (size 15 to 20)
#    0.000    0.750    7.500    2.250    3.500    1.000 
#    0.000   13.750    0.000    0.000    0.000    0.000 
#    0.000    0.000    0.000    0.000    0.000    0.000 
#
# Total GULP energy -267611.698017 kJ/mol
# GULP energy per Si atom -5575.243709 kJ/mol
# Density = 2.250154 g / cm^3
# Si number density = 22.552873 Si / 1000 Ang^3
#
#
#
# Elastic Constant Matrix: (Units=GPa)
#
#
# Indices 1 2 3 4 5 6 
#
# 1 73.7121 45.1332 24.4828 0.0000 0.0000 0.0000
# 2 45.1332 73.7121 24.4828 0.0000 0.0000 0.0000
# 3 24.4828 24.4828 182.1330 0.0000 0.0000 0.0000
# 4 0.0000 0.0000 0.0000 -29.9228 0.0000 0.0000
# 5 0.0000 0.0000 0.0000 0.0000 -29.9228 0.0000
# 6 0.0000 0.0000 0.0000 0.0000 0.0000 14.2894
#
#
#
# Elastic Compliance Matrix: (Units=1/GPa)
#
#
# Indices 1 2 3 4 5 6 
#
# 1 0.021949 -0.013042 -0.001197 0.000000 0.000000 0.000000
# 2 -0.013042 0.021949 -0.001197 0.000000 0.000000 0.000000
# 3 -0.001197 -0.001197 0.005812 0.000000 0.000000 0.000000
# 4 0.000000 0.000000 0.000000 -0.033419 0.000000 0.000000
# 5 0.000000 0.000000 0.000000 0.000000 -0.033419 0.000000
# 6 0.000000 0.000000 0.000000 0.000000 0.000000 0.069982
#
#
# Mechanical properties :
#
#
# Convention : Reuss Voigt Hill
#
# Bulk Modulus (GPa) = 53.08383 57.52830 55.30606
# Shear Modulus (GPa) = 55.55164 6.58598 31.06881
#
# Velocity S-wave (km/s) = 4.96842 1.71072 3.71563
# Velocity P-wave (km/s) = 7.51680 5.42823 6.55621
#
# Compressibility (1/GPa) = 0.01883813
#
# Stress axis : x y z
#
# Youngs Moduli (GPa) = 45.55959 45.55959 172.04577
#
# Poissons Ratio (x) = 0.59417 0.20601
# Poissons Ratio (y) = 0.59417 0.20601
# Poissons Ratio (z) = 0.05455 0.05455
#
# Static dielectric constant tensor:
#      x y z
#    x 2.234710 0.000000 0.000000 
#    y 0.000000 2.234710 0.000000 
#    z 0.000000 0.000000 1.871530 
# 
# From -- ./inp_files/4358.got.cif
#   From: 2010.05.17/outbox.cif.g08.bks.cpg/sg181_3_cif.got.tgz:4358.got - 2010.05.20 11:51:17.
