data_PCOD9584790
_publ_section_title
;
Structure prediction by ZEFSAII (Michael W. Deem and Ramdas Pophale) SiO2 
 PCOD9584790
Probable space group: P 63 2 2
;
_chemical_formula_sum "Si O2"
_cell_formula_units_Z 76
_cell_length_a 17.060636
_cell_length_b 17.060636
_cell_length_c 14.425427
_cell_angle_alpha 90.000000
_cell_angle_beta 90.000000
_cell_angle_gamma 120.000000
_cell_volume 3636.216585
_symmetry_space_group_name_H-M "P 63 2 2"
_symmetry_group_IT_number 182
_symmetry_cell_setting 'hexagonal'
loop_
_space_group_symop_operation_xyz
x,y,z
x-y,x,1/2+z
-y,x-y,z
-x,-y,1/2+z
-x+y,-x,z
y,-x+y,1/2+z
x-y,-y,-z
-x,-x+y,-z
y,x,-z
-y,-x,1/2-z
-x+y,y,1/2-z
x,x-y,1/2-z
loop_
_atom_site_type_symbol
_atom_site_label
_atom_site_fract_x
_atom_site_fract_y
_atom_site_fract_z
Si Si1 0.796498 0.101689 0.657527
Si Si2 0.666668 0.333334 0.358665
Si Si3 0.581659 0.571839 0.298410
Si Si4 0.843223 0.469297 0.045672
Si Si5 0.898860 0.652567 0.322369
Si Si6 0.325845 0.891967 0.012611
Si Si7 0.914481 0.645275 0.933398
O O1 0.846025 0.153976 0.750000
O O2 0.719045 0.118788 0.613350
O O3 0.874516 0.163029 0.583307
O O4 0.748410 0.993245 0.665411
O O5 0.666668 0.333334 0.250000
O O6 0.576200 0.247633 0.395424
O O7 0.484676 0.515325 0.250000
O O8 0.585824 0.514622 0.385078
O O9 0.658294 0.584023 0.226099
O O10 0.616911 0.671483 0.338954
O O11 0.848041 0.388960 0.993221
O O12 0.850432 0.547575 0.979490
O O13 0.830138 0.660275 0.250000
O O14 0.866429 0.610311 0.425025
O O15 0.389740 0.000000 0.000000
O O16 0.000000 0.694914 0.000000
#
# Coordination Sequence:
#
# PCOD9584790 Si02
#       7
#    12   4  12  12  12  12  12
#     4  11  23  42  63  96 128 169 221 276 325 400
#     4  12  27  36  51  84 124 182 205 276 321 381
#     4  11  21  37  64  98 126 166 216 266 326 393
#     4  11  23  38  56  87 133 171 219 260 328 384
#     4  11  25  40  67  98 130 170 217 277 342 399
#     4  10  22  39  62  91 130 167 216 268 324 388
#     4  10  23  38  64  91 126 173 217 271 326 398
#
# _framework density 20.900845
#
# number of rings (size 3 to 8) (size 9 to 14) (size 15 to 20)
#    0.000    1.263    3.158    2.842    8.842    0.000 
#    0.000    0.000    0.000    0.316    0.000    3.316 
#    0.000    0.000    0.000    0.000    0.000    0.000 
#
# Total GULP energy -424073.693691 kJ/mol
# GULP energy per Si atom -5579.917022 kJ/mol
# Density = 2.085327 g / cm^3
# Si number density = 20.900845 Si / 1000 Ang^3
#
#
#
# Elastic Constant Matrix: (Units=GPa)
#
#
# Indices 1 2 3 4 5 6 
#
# 1 83.5533 31.3064 22.2309 0.0001 -0.0001 0.0001
# 2 31.3064 83.5529 22.2309 -0.0001 0.0002 -0.0002
# 3 22.2309 22.2309 79.0434 0.0000 -0.0001 0.0000
# 4 0.0001 -0.0001 0.0000 25.8587 -0.0003 -0.0002
# 5 -0.0001 0.0002 -0.0001 -0.0003 25.8589 -0.0001
# 6 0.0001 -0.0002 0.0000 -0.0002 -0.0001 26.1237
#
#
#
# Elastic Compliance Matrix: (Units=1/GPa)
#
#
# Indices 1 2 3 4 5 6 
#
# 1 0.014455 -0.004685 -0.002748 0.000000 0.000000 0.000000
# 2 -0.004685 0.014455 -0.002748 0.000000 0.000000 0.000000
# 3 -0.002748 -0.002748 0.014197 0.000000 0.000000 0.000000
# 4 0.000000 0.000000 0.000000 0.038672 0.000000 0.000000
# 5 0.000000 0.000000 0.000000 0.000000 0.038671 0.000000
# 6 0.000000 0.000000 0.000000 0.000000 0.000000 0.038279
#
#
# Mechanical properties :
#
#
# Convention : Reuss Voigt Hill
#
# Bulk Modulus (GPa) = 43.96446 44.18733 44.07590
# Shear Modulus (GPa) = 26.78487 26.92701 26.85594
#
# Velocity S-wave (km/s) = 3.58372 3.59321 3.58847
# Velocity P-wave (km/s) = 6.18098 6.19695 6.18897
#
# Compressibility (1/GPa) = 0.02274564
#
# Stress axis : x y z
#
# Youngs Moduli (GPa) = 69.18058 69.18022 70.43787
#
# Poissons Ratio (x) = 0.32411 0.19355
# Poissons Ratio (y) = 0.32411 0.19355
# Poissons Ratio (z) = 0.19009 0.19009
#
# Static dielectric constant tensor:
#      x y z
#    x 1.789600 0.000000 0.000000 
#    y 0.000000 1.789600 0.000000 
#    z 0.000000 0.000000 1.836870 
# 
# From -- ./inp_files/3670.got.cif
#   From: 2010.05.17/outbox.cif.g08.bks.cpg/sg182_2_cif.got.tgz:3670.got - 2010.05.20 11:58:53.
