data_PCOD9584311
_publ_section_title
;
Structure prediction by ZEFSAII (Michael W. Deem and Ramdas Pophale) SiO2 
 PCOD9584311
Probable space group: P 64 2 2
;
_chemical_formula_sum "Si O2"
_cell_formula_units_Z 84
_cell_length_a 14.467386
_cell_length_b 14.467386
_cell_length_c 24.376349
_cell_angle_alpha 90.000000
_cell_angle_beta 90.000000
_cell_angle_gamma 120.000000
_cell_volume 4418.546488
_symmetry_space_group_name_H-M "P 64 2 2"
_symmetry_group_IT_number 181
_symmetry_cell_setting 'hexagonal'
loop_
_space_group_symop_operation_xyz
x,y,z
x-y,x,2/3+z
-y,x-y,1/3+z
-x,-y,z
-x+y,-x,2/3+z
y,-x+y,1/3+z
x-y,-y,-z
-x,-x+y,2/3-z
y,x,1/3-z
-y,-x,1/3-z
-x+y,y,-z
x,x-y,2/3-z
loop_
_atom_site_type_symbol
_atom_site_label
_atom_site_fract_x
_atom_site_fract_y
_atom_site_fract_z
Si Si1 0.193200 0.252267 0.052927
Si Si2 0.905520 0.014604 0.227623
Si Si3 0.175673 0.726368 0.791807
Si Si4 0.524893 0.608160 0.424301
Si Si5 0.724473 0.879575 0.984631
Si Si6 0.543896 0.879442 0.691862
Si Si7 0.111849 0.608050 0.899729
O O1 0.271640 0.364746 0.081181
O O2 0.240609 0.178132 0.031744
O O3 0.103398 0.194091 0.099932
O O4 0.132858 0.265715 0.000000
O O5 0.940340 0.059661 0.166667
O O6 0.889222 0.094186 0.265297
O O7 0.000000 0.000000 0.252922
O O8 0.284120 0.839089 0.787806
O O9 0.132068 0.695527 0.853721
O O10 0.195115 0.629670 0.774776
O O11 0.500000 0.500000 0.457392
O O12 0.618017 0.618573 0.382873
O O13 0.415578 0.565939 0.389466
O O14 0.604033 0.791335 0.968600
O O15 0.756160 0.000000 0.000000
O O16 0.527253 0.884201 0.627936
O O17 0.000000 0.500000 0.890315
#
# Coordination Sequence:
#
# PCOD9584311 Si02
#       7
#    12  12  12  12  12  12  12
#     4  10  21  31  56  81 111 156 208 230 293 379
#     4  10  20  35  47  75 114 152 201 248 269 344
#     4  11  22  35  62  92 122 160 182 256 334 365
#     4   8  19  38  61  88 114 157 221 238 292 377
#     4  11  20  34  54  78 115 162 199 246 293 355
#     4   9  20  38  60  83 122 156 207 253 285 368
#     4  11  22  40  58  97 137 141 187 265 327 376
#
# _framework density 19.010776
#
# number of rings (size 3 to 8) (size 9 to 14) (size 15 to 20)
#    0.857    1.000    2.857    3.429    2.000    1.143 
#    5.143    0.000    3.143    0.000    0.000    1.000 
#    0.000    0.000    0.000    0.000    0.000    0.000 
#
# Total GULP energy -467708.226276 kJ/mol
# GULP energy per Si atom -5567.955075 kJ/mol
# Density = 1.896751 g / cm^3
# Si number density = 19.010776 Si / 1000 Ang^3
#
#
#
# Elastic Constant Matrix: (Units=GPa)
#
#
# Indices 1 2 3 4 5 6 
#
# 1 75.7272 14.0626 20.9868 0.0000 0.0000 0.0000
# 2 14.0626 75.7272 20.9868 0.0000 0.0000 0.0000
# 3 20.9868 20.9868 67.9586 0.0000 0.0000 0.0000
# 4 0.0000 0.0000 0.0000 18.9844 0.0000 0.0000
# 5 0.0000 0.0000 0.0000 0.0000 18.9844 0.0000
# 6 0.0000 0.0000 0.0000 0.0000 0.0000 30.8323
#
#
#
# Elastic Compliance Matrix: (Units=1/GPa)
#
#
# Indices 1 2 3 4 5 6 
#
# 1 0.014616 -0.001600 -0.004020 0.000000 0.000000 0.000000
# 2 -0.001600 0.014616 -0.004020 0.000000 0.000000 0.000000
# 3 -0.004020 -0.004020 0.017197 0.000000 0.000000 0.000000
# 4 0.000000 0.000000 0.000000 0.052675 0.000000 0.000000
# 5 0.000000 0.000000 0.000000 0.000000 0.052675 0.000000
# 6 0.000000 0.000000 0.000000 0.000000 0.000000 0.032434
#
#
# Mechanical properties :
#
#
# Convention : Reuss Voigt Hill
#
# Bulk Modulus (GPa) = 36.83060 36.83172 36.83116
# Shear Modulus (GPa) = 23.52461 24.65199 24.08830
#
# Velocity S-wave (km/s) = 3.52154 3.60493 3.56348
# Velocity P-wave (km/s) = 5.99588 6.06165 6.02885
#
# Compressibility (1/GPa) = 0.02715134
#
# Stress axis : x y z
#
# Youngs Moduli (GPa) = 68.41602 68.41602 58.14802
#
# Poissons Ratio (x) = 0.10949 0.23373
# Poissons Ratio (y) = 0.10949 0.23373
# Poissons Ratio (z) = 0.27501 0.27501
#
# Static dielectric constant tensor:
#      x y z
#    x 1.734700 0.000000 0.000000 
#    y 0.000000 1.734700 0.000000 
#    z 0.000000 0.000000 1.657200 
# 
# From -- ./inp_files/10203.got.cif
#   From: 2010.05.17/outbox.cif.g08.bks.cpg/sg181_6_cif.got.tgz:10203.got - 2010.05.20 11:51:17.
