data_PCOD9584801
_publ_section_title
;
Structure prediction by ZEFSAII (Michael W. Deem and Ramdas Pophale) SiO2 
 PCOD9584801
Probable space group: P 63 2 2
;
_chemical_formula_sum "Si O2"
_cell_formula_units_Z 60
_cell_length_a 15.911948
_cell_length_b 15.911948
_cell_length_c 12.952582
_cell_angle_alpha 90.000000
_cell_angle_beta 90.000000
_cell_angle_gamma 120.000000
_cell_volume 2840.100340
_symmetry_space_group_name_H-M "P 63 2 2"
_symmetry_group_IT_number 182
_symmetry_cell_setting 'hexagonal'
loop_
_space_group_symop_operation_xyz
x,y,z
x-y,x,1/2+z
-y,x-y,z
-x,-y,1/2+z
-x+y,-x,z
y,-x+y,1/2+z
x-y,-y,-z
-x,-x+y,-z
y,x,-z
-y,-x,1/2-z
-x+y,y,1/2-z
x,x-y,1/2-z
loop_
_atom_site_type_symbol
_atom_site_label
_atom_site_fract_x
_atom_site_fract_y
_atom_site_fract_z
Si Si1 0.172634 0.351094 0.125120
Si Si2 0.826436 0.516474 0.453663
Si Si3 0.957903 0.708947 0.135550
Si Si4 0.950506 0.222670 0.123348
Si Si5 0.843000 0.365492 0.355361
O O1 0.182791 0.365581 0.250000
O O2 0.242353 0.309067 0.093897
O O3 0.062364 0.271735 0.090552
O O4 0.195400 0.447545 0.061445
O O5 0.909055 0.614857 0.401602
O O6 0.860608 0.438318 0.449891
O O7 0.730939 0.471410 0.380516
O O8 0.882475 0.741896 0.095441
O O9 0.964754 0.740359 0.254238
O O10 0.912379 0.593108 0.139750
O O11 0.851281 0.425641 0.250000
#
# Coordination Sequence:
#
# PCOD9584801 Si02
#       5
#    12  12  12  12  12
#     4  10  22  42  59  90 140 180 212 261 320 406
#     4  11  22  39  64  95 122 166 215 270 334 385
#     4   9  19  38  62  96 130 166 213 280 326 381
#     4   9  18  37  64  89 126 170 218 266 326 374
#     4  11  21  38  65  97 124 151 213 287 332 368
#
# _framework density 21.126016
#
# number of rings (size 3 to 8) (size 9 to 14) (size 15 to 20)
#    0.000    2.000    2.000    1.600    0.000    3.200 
#    8.400    1.000    0.000    0.000    0.000    0.000 
#    0.000    0.000    0.000    0.000    0.000    0.000 
#
# Total GULP energy -334280.671025 kJ/mol
# GULP energy per Si atom -5571.344517 kJ/mol
# Density = 2.107793 g / cm^3
# Si number density = 21.126016 Si / 1000 Ang^3
#
#
#
# Elastic Constant Matrix: (Units=GPa)
#
#
# Indices 1 2 3 4 5 6 
#
# 1 74.2658 58.3783 34.9733 0.0000 0.0000 0.0000
# 2 58.3783 74.2658 34.9733 0.0000 0.0000 0.0000
# 3 34.9733 34.9733 100.5328 0.0000 0.0000 0.0000
# 4 0.0000 0.0000 0.0000 30.0512 0.0000 0.0000
# 5 0.0000 0.0000 0.0000 0.0000 30.0512 0.0000
# 6 0.0000 0.0000 0.0000 0.0000 0.0000 7.9437
#
#
#
# Elastic Compliance Matrix: (Units=1/GPa)
#
#
# Indices 1 2 3 4 5 6 
#
# 1 0.036088 -0.026855 -0.003212 0.000000 0.000000 0.000000
# 2 -0.026855 0.036088 -0.003212 0.000000 0.000000 0.000000
# 3 -0.003212 -0.003212 0.012182 0.000000 0.000000 0.000000
# 4 0.000000 0.000000 0.000000 0.033277 0.000000 0.000000
# 5 0.000000 0.000000 0.000000 0.000000 0.033277 0.000000
# 6 0.000000 0.000000 0.000000 0.000000 0.000000 0.125885
#
#
# Mechanical properties :
#
#
# Convention : Reuss Voigt Hill
#
# Bulk Modulus (GPa) = 56.18111 56.19050 56.18581
# Shear Modulus (GPa) = 14.31492 21.65853 17.98673
#
# Velocity S-wave (km/s) = 2.60589 3.20536 2.92104
# Velocity P-wave (km/s) = 5.97539 6.35253 6.16684
#
# Compressibility (1/GPa) = 0.01779958
#
# Stress axis : x y z
#
# Youngs Moduli (GPa) = 27.71031 27.71031 82.09048
#
# Poissons Ratio (x) = 0.74416 0.26366
# Poissons Ratio (y) = 0.74416 0.26366
# Poissons Ratio (z) = 0.08900 0.08900
#
# Static dielectric constant tensor:
#      x y z
#    x 1.766560 0.000000 0.000000 
#    y 0.000000 1.766560 0.000000 
#    z 0.000000 0.000000 1.976500 
# 
# From -- ./inp_files/3447.got.cif
#   From: 2010.05.17/outbox.cif.g08.bks.cpg/sg182_2_cif.got.tgz:3447.got - 2010.05.20 11:58:53.
