data_PCOD9584167
_publ_section_title
;
Structure prediction by ZEFSAII (Michael W. Deem and Ramdas Pophale) SiO2 
 PCOD9584167
Probable space group: P 62 2 2
;
_chemical_formula_sum "Si O2"
_cell_formula_units_Z 30
_cell_length_a 6.996276
_cell_length_b 6.996276
_cell_length_c 22.515025
_cell_angle_alpha 90.000000
_cell_angle_beta 90.000000
_cell_angle_gamma 120.000000
_cell_volume 954.414289
_symmetry_space_group_name_H-M "P 62 2 2"
_symmetry_group_IT_number 180
_symmetry_cell_setting 'hexagonal'
loop_
_space_group_symop_operation_xyz
x,y,z
x-y,x,1/3+z
-y,x-y,2/3+z
-x,-y,z
-x+y,-x,1/3+z
y,-x+y,2/3+z
x-y,-y,-z
-x,-x+y,1/3-z
y,x,2/3-z
-y,-x,2/3-z
-x+y,y,-z
x,x-y,1/3-z
loop_
_atom_site_type_symbol
_atom_site_label
_atom_site_fract_x
_atom_site_fract_y
_atom_site_fract_z
Si Si1 0.000000 0.000000 0.333334
Si Si2 0.287026 0.329503 0.900867
Si Si3 0.793919 0.463224 0.432281
Si Si4 0.500000 0.000000 0.000000
O O1 0.032382 0.193900 0.288582
O O2 0.240342 0.240342 0.833334
O O3 0.070048 0.391090 0.906613
O O4 0.566871 0.388502 0.903148
O O5 0.753795 0.507590 0.500000
O O6 0.691540 0.529579 0.378518
#
# Coordination Sequence:
#
# PCOD9584167 Si02
#       4
#     3  12  12   3
#     4  12  28  46  84 126 152 234 300 346 460 538
#     4  11  26  52  77 113 171 217 277 374 434 527
#     4  12  27  52  83 122 172 230 295 371 457 547
#     4  12  30  54  88 124 176 242 308 378 468 556
#
# _framework density 31.432894000000001
#
# number of rings (size 3 to 8) (size 9 to 14) (size 15 to 20)
#    0.000    0.400    6.000    1.800    0.000   16.000 
#    0.000    0.000    0.000    0.000    0.000    0.000 
#    0.000    0.000    0.000    0.000    0.000    0.000 
#
# Total GULP energy -168261.688464 kJ/mol
# GULP energy per Si atom -5608.722949 kJ/mol
# Density = 3.136135 g / cm^3
# Si number density = 31.432894 Si / 1000 Ang^3
#
#
#
# Elastic Constant Matrix: (Units=GPa)
#
#
# Indices 1 2 3 4 5 6 
#
# 1 310.2377 117.0045 188.6367 0.0000 0.0000 0.0000
# 2 117.0045 310.2377 188.6367 0.0000 0.0000 0.0000
# 3 188.6367 188.6367 434.8285 0.0000 0.0000 0.0000
# 4 0.0000 0.0000 0.0000 80.7937 0.0000 0.0000
# 5 0.0000 0.0000 0.0000 0.0000 80.7937 0.0000
# 6 0.0000 0.0000 0.0000 0.0000 0.0000 96.6166
#
#
#
# Elastic Compliance Matrix: (Units=1/GPa)
#
#
# Indices 1 2 3 4 5 6 
#
# 1 0.004485 -0.000691 -0.001646 0.000000 0.000000 0.000000
# 2 -0.000691 0.004485 -0.001646 0.000000 0.000000 0.000000
# 3 -0.001646 -0.001646 0.003728 0.000000 0.000000 0.000000
# 4 0.000000 0.000000 0.000000 0.012377 0.000000 0.000000
# 5 0.000000 0.000000 0.000000 0.000000 0.012377 0.000000
# 6 0.000000 0.000000 0.000000 0.000000 0.000000 0.010350
#
#
# Mechanical properties :
#
#
# Convention : Reuss Voigt Hill
#
# Bulk Modulus (GPa) = 211.31921 227.09554 219.20737
# Shear Modulus (GPa) = 87.19366 89.04254 88.11810
#
# Velocity S-wave (km/s) = 5.27256 5.32816 5.30043
# Velocity P-wave (km/s) = 10.21964 10.50033 10.36094
#
# Compressibility (1/GPa) = 0.00473218
#
# Stress axis : x y z
#
# Youngs Moduli (GPa) = 222.98794 222.98794 268.25407
#
# Poissons Ratio (x) = 0.15398 0.44152
# Poissons Ratio (y) = 0.15398 0.44152
# Poissons Ratio (z) = 0.36702 0.36702
#
# Static dielectric constant tensor:
#      x y z
#    x 3.062020 0.000000 0.000000 
#    y 0.000000 3.062020 0.000000 
#    z 0.000000 0.000000 1.889550 
# 
# From -- ./inp_files/9680.got.cif
#   From: 2010.05.17/outbox.cif.g08.bks.cpg/sg180_5_cif.got.tgz:9680.got - 2010.05.20 11:43:55.
