data_PCOD9584484
_publ_section_title
;
Structure prediction by ZEFSAII (Michael W. Deem and Ramdas Pophale) SiO2 
 PCOD9584484
Probable space group: P 64 2 2
;
_chemical_formula_sum "Si O2"
_cell_formula_units_Z 54
_cell_length_a 23.986356
_cell_length_b 23.986356
_cell_length_c 5.749373
_cell_angle_alpha 90.000000
_cell_angle_beta 90.000000
_cell_angle_gamma 120.000000
_cell_volume 2864.703423
_symmetry_space_group_name_H-M "P 64 2 2"
_symmetry_group_IT_number 181
_symmetry_cell_setting 'hexagonal'
loop_
_space_group_symop_operation_xyz
x,y,z
x-y,x,2/3+z
-y,x-y,1/3+z
-x,-y,z
-x+y,-x,2/3+z
y,-x+y,1/3+z
x-y,-y,-z
-x,-x+y,2/3-z
y,x,1/3-z
-y,-x,1/3-z
-x+y,y,-z
x,x-y,2/3-z
loop_
_atom_site_type_symbol
_atom_site_label
_atom_site_fract_x
_atom_site_fract_y
_atom_site_fract_z
Si Si1 0.461180 0.230590 0.833334
Si Si2 0.601422 0.861970 0.456986
Si Si3 0.760777 0.333203 0.478516
Si Si4 0.406521 0.406521 0.666667
Si Si5 0.661030 0.000000 0.500000
Si Si6 0.105780 0.595428 0.637896
O O1 0.415415 0.163259 0.716343
O O2 0.508926 0.287931 0.667482
O O3 0.604807 0.802404 0.333334
O O4 0.542179 0.873899 0.388968
O O5 0.661038 0.934106 0.446335
O O6 0.713782 0.286219 0.666667
O O7 0.727141 0.363571 0.333334
O O8 0.824977 0.394565 0.573235
O O9 0.367153 0.379289 0.416184
O O10 0.473892 0.414077 0.580085
O O11 0.078023 0.539012 0.833334
#
# Coordination Sequence:
#
# PCOD9584484 Si02
#       6
#     6  12  12   6   6  12
#     4  12  20  40  68  86 120 162 204 260 330 386
#     4  11  22  42  67  94 125 164 208 264 330 399
#     4  12  26  42  59  82 113 151 201 251 320 393
#     4  10  24  46  69  92 122 154 208 266 323 394
#     4  10  24  42  71 102 124 166 216 263 324 406
#     4  11  22  46  66  89 118 161 206 265 335 396
#
# _framework density 18.85012
#
# number of rings (size 3 to 8) (size 9 to 14) (size 15 to 20)
#    0.000    0.889    4.444    2.667    3.111    2.667 
#    0.000   22.778    0.000    0.000    0.000    0.000 
#    0.000    0.000    0.000    0.000    0.000    5.556 
#
# Total GULP energy -300853.141150 kJ/mol
# GULP energy per Si atom -5571.354466 kJ/mol
# Density = 1.880722 g / cm^3
# Si number density = 18.850120 Si / 1000 Ang^3
#
#
#
# Elastic Constant Matrix: (Units=GPa)
#
#
# Indices 1 2 3 4 5 6 
#
# 1 118.6308 27.3057 44.3769 0.0000 0.0000 0.0000
# 2 27.3057 118.6308 44.3769 0.0000 0.0000 0.0000
# 3 44.3769 44.3769 109.1545 0.0000 0.0000 0.0000
# 4 0.0000 0.0000 0.0000 68.9722 0.0000 0.0000
# 5 0.0000 0.0000 0.0000 0.0000 68.9722 0.0000
# 6 0.0000 0.0000 0.0000 0.0000 0.0000 45.6626
#
#
#
# Elastic Compliance Matrix: (Units=1/GPa)
#
#
# Indices 1 2 3 4 5 6 
#
# 1 0.010026 -0.000923 -0.003701 0.000000 0.000000 0.000000
# 2 -0.000923 0.010026 -0.003701 0.000000 0.000000 0.000000
# 3 -0.003701 -0.003701 0.012170 0.000000 0.000000 0.000000
# 4 0.000000 0.000000 0.000000 0.014499 0.000000 0.000000
# 5 0.000000 0.000000 0.000000 0.000000 0.014499 0.000000
# 6 0.000000 0.000000 0.000000 0.000000 0.000000 0.021900
#
#
# Mechanical properties :
#
#
# Convention : Reuss Voigt Hill
#
# Bulk Modulus (GPa) = 64.21306 64.28171 64.24738
# Shear Modulus (GPa) = 47.63643 52.07851 49.85747
#
# Velocity S-wave (km/s) = 5.03250 5.26191 5.14848
# Velocity P-wave (km/s) = 8.24057 8.43163 8.33665
#
# Compressibility (1/GPa) = 0.01557316
#
# Stress axis : x y z
#
# Youngs Moduli (GPa) = 99.73608 99.73608 82.16591
#
# Poissons Ratio (x) = 0.09210 0.30408
# Poissons Ratio (y) = 0.09210 0.30408
# Poissons Ratio (z) = 0.36911 0.36911
#
# Static dielectric constant tensor:
#      x y z
#    x 1.674820 0.000000 0.000000 
#    y 0.000000 1.674820 0.000000 
#    z 0.000000 0.000000 1.815480 
# 
# From -- ./inp_files/1255.got.cif
#   From: 2010.05.17/outbox.cif.g08.bks.cpg/sg181_1_cif.got.tgz:1255.got - 2010.05.20 11:51:17.
