data_PCOD9584786
_publ_section_title
;
Structure prediction by ZEFSAII (Michael W. Deem and Ramdas Pophale) SiO2 
 PCOD9584786
Probable space group: P 63 2 2
;
_chemical_formula_sum "Si O2"
_cell_formula_units_Z 84
_cell_length_a 18.499961
_cell_length_b 18.499961
_cell_length_c 14.885421
_cell_angle_alpha 90.000000
_cell_angle_beta 90.000000
_cell_angle_gamma 120.000000
_cell_volume 4411.978421
_symmetry_space_group_name_H-M "P 63 2 2"
_symmetry_group_IT_number 182
_symmetry_cell_setting 'hexagonal'
loop_
_space_group_symop_operation_xyz
x,y,z
x-y,x,1/2+z
-y,x-y,z
-x,-y,1/2+z
-x+y,-x,z
y,-x+y,1/2+z
x-y,-y,-z
-x,-x+y,-z
y,x,-z
-y,-x,1/2-z
-x+y,y,1/2-z
x,x-y,1/2-z
loop_
_atom_site_type_symbol
_atom_site_label
_atom_site_fract_x
_atom_site_fract_y
_atom_site_fract_z
Si Si1 0.528954 0.758793 0.528743
Si Si2 0.174396 0.835005 0.379066
Si Si3 0.953936 0.661779 0.745261
Si Si4 0.525239 0.545865 0.151115
Si Si5 0.318872 0.201910 0.159121
Si Si6 0.423968 0.864410 0.977870
Si Si7 0.093040 0.190474 0.511324
O O1 0.585335 0.809772 0.443475
O O2 0.598375 0.772620 0.602274
O O3 0.472694 0.800520 0.547070
O O4 0.474648 0.659529 0.516100
O O5 0.257525 0.878860 0.317844
O O6 0.089453 0.786354 0.321859
O O7 0.157712 0.896855 0.439481
O O8 0.979416 0.609029 0.680806
O O9 0.030020 0.721310 0.808527
O O10 0.483772 0.516229 0.250000
O O11 0.541831 0.478247 0.099485
O O12 0.476134 0.567329 0.075024
O O13 0.326154 0.163077 0.250000
O O14 0.238575 0.133934 0.104563
O O15 0.159718 0.159718 0.500000
O O16 0.000000 0.114080 0.500000
#
# Coordination Sequence:
#
# PCOD9584786 Si02
#       7
#    12  12  12  12  12  12  12
#     4  11  23  42  63  93 132 171 215 266 331 403
#     4  10  22  38  64  92 121 168 213 273 324 383
#     4  11  20  39  64  89 129 157 219 270 319 388
#     4  11  23  41  65  97 129 171 219 278 330 396
#     4  11  23  39  64  94 125 171 224 271 323 384
#     4  11  24  42  65  96 134 174 220 270 340 404
#     4  11  22  40  60  90 130 171 217 264 331 392
#
# _framework density 19.039078
#
# number of rings (size 3 to 8) (size 9 to 14) (size 15 to 20)
#    0.000    1.143    2.857    3.857    0.000    2.286 
#    0.000    0.000    0.000    1.714    0.000    0.000 
#    0.000    0.000    0.000    0.000    0.000    0.000 
#
# Total GULP energy -467978.307181 kJ/mol
# GULP energy per Si atom -5571.170324 kJ/mol
# Density = 1.899574 g / cm^3
# Si number density = 19.039078 Si / 1000 Ang^3
#
#
#
# Elastic Constant Matrix: (Units=GPa)
#
#
# Indices 1 2 3 4 5 6 
#
# 1 155.9938 -10.8451 40.0878 0.0000 0.0000 0.0000
# 2 -10.8451 155.9938 40.0878 0.0000 0.0000 0.0000
# 3 40.0878 40.0878 104.9136 0.0000 0.0000 0.0000
# 4 0.0000 0.0000 0.0000 27.9522 0.0000 0.0000
# 5 0.0000 0.0000 0.0000 0.0000 27.9522 0.0000
# 6 0.0000 0.0000 0.0000 0.0000 0.0000 83.4195
#
#
#
# Elastic Compliance Matrix: (Units=1/GPa)
#
#
# Indices 1 2 3 4 5 6 
#
# 1 0.007363 0.001369 -0.003337 0.000000 0.000000 0.000000
# 2 0.001369 0.007363 -0.003337 0.000000 0.000000 0.000000
# 3 -0.003337 -0.003337 0.012082 0.000000 0.000000 0.000000
# 4 0.000000 0.000000 0.000000 0.035775 0.000000 0.000000
# 5 0.000000 0.000000 0.000000 0.000000 0.035775 0.000000
# 6 0.000000 0.000000 0.000000 0.000000 0.000000 0.011988
#
#
# Mechanical properties :
#
#
# Convention : Reuss Voigt Hill
#
# Bulk Modulus (GPa) = 61.72910 61.72913 61.72912
# Shear Modulus (GPa) = 39.57116 51.03613 45.30365
#
# Velocity S-wave (km/s) = 4.56391 5.18307 4.88331
# Velocity P-wave (km/s) = 7.76306 8.26508 8.01800
#
# Compressibility (1/GPa) = 0.01619981
#
# Stress axis : x y z
#
# Youngs Moduli (GPa) = 135.81032 135.81032 82.77026
#
# Poissons Ratio (x) = -0.18598 0.27618
# Poissons Ratio (y) = -0.18598 0.27618
# Poissons Ratio (z) = 0.45317 0.45317
#
# Static dielectric constant tensor:
#      x y z
#    x 1.659790 0.000000 0.000000 
#    y 0.000000 1.659790 0.000000 
#    z 0.000000 0.000000 1.684940 
# 
# From -- ./inp_files/3717.got.cif
#   From: 2010.05.17/outbox.cif.g08.bks.cpg/sg182_2_cif.got.tgz:3717.got - 2010.05.20 11:58:53.
