data_PCOD9584473
_publ_section_title
;
Structure prediction by ZEFSAII (Michael W. Deem and Ramdas Pophale) SiO2 
 PCOD9584473
Probable space group: P 64 2 2
;
_chemical_formula_sum "Si O2"
_cell_formula_units_Z 42
_cell_length_a 9.298493
_cell_length_b 9.298493
_cell_length_c 25.705489
_cell_angle_alpha 90.000000
_cell_angle_beta 90.000000
_cell_angle_gamma 120.000000
_cell_volume 1924.782399
_symmetry_space_group_name_H-M "P 64 2 2"
_symmetry_group_IT_number 181
_symmetry_cell_setting 'hexagonal'
loop_
_space_group_symop_operation_xyz
x,y,z
x-y,x,2/3+z
-y,x-y,1/3+z
-x,-y,z
-x+y,-x,2/3+z
y,-x+y,1/3+z
x-y,-y,-z
-x,-x+y,2/3-z
y,x,1/3-z
-y,-x,1/3-z
-x+y,y,-z
x,x-y,2/3-z
loop_
_atom_site_type_symbol
_atom_site_label
_atom_site_fract_x
_atom_site_fract_y
_atom_site_fract_z
Si Si1 0.072775 0.825969 0.109544
Si Si2 0.312417 0.894461 0.902261
Si Si3 0.500000 0.000000 0.718537
Si Si4 0.349609 0.650392 0.666667
Si Si5 0.000000 0.758766 0.833334
O O1 0.151806 0.848195 0.166667
O O2 0.016934 0.650074 0.085780
O O3 0.901770 0.822269 0.122550
O O4 0.229582 0.971843 0.079422
O O5 0.339055 0.803887 0.951517
O O6 0.162546 0.770706 0.862338
O O7 0.500000 0.000000 0.878771
O O8 0.583339 0.163860 0.684843
#
# Coordination Sequence:
#
# PCOD9584473 Si02
#       5
#    12  12   6   6   6
#     4  10  23  44  73 106 140 182 250 312 363 439
#     4  11  22  47  77 102 147 197 253 304 381 464
#     4  12  28  44  68 103 154 187 240 306 378 450
#     4  12  29  48  68 109 150 206 242 299 392 468
#     4  10  25  46  77 116 137 186 267 318 373 444
#
# _framework density 21.820650000000001
#
# number of rings (size 3 to 8) (size 9 to 14) (size 15 to 20)
#    0.000    1.143    2.857    4.286   12.000    0.000 
#    0.000    1.429    0.000    0.000    0.000    0.000 
#    0.000    0.000    0.000    0.000    0.000    0.000 
#
# Total GULP energy -234045.389312 kJ/mol
# GULP energy per Si atom -5572.509269 kJ/mol
# Density = 2.177099 g / cm^3
# Si number density = 21.820650 Si / 1000 Ang^3
#
#
#
# Elastic Constant Matrix: (Units=GPa)
#
#
# Indices 1 2 3 4 5 6 
#
# 1 143.1891 67.6067 60.3775 0.0000 0.0000 0.0000
# 2 67.6067 143.1891 60.3775 0.0000 0.0000 0.0000
# 3 60.3775 60.3775 81.2309 0.0000 0.0000 0.0000
# 4 0.0000 0.0000 0.0000 33.9720 0.0000 0.0000
# 5 0.0000 0.0000 0.0000 0.0000 33.9720 0.0000
# 6 0.0000 0.0000 0.0000 0.0000 0.0000 37.7912
#
#
#
# Elastic Compliance Matrix: (Units=1/GPa)
#
#
# Indices 1 2 3 4 5 6 
#
# 1 0.010746 -0.002484 -0.006141 0.000000 0.000000 0.000000
# 2 -0.002484 0.010746 -0.006141 0.000000 0.000000 0.000000
# 3 -0.006141 -0.006141 0.021439 0.000000 0.000000 0.000000
# 4 0.000000 0.000000 0.000000 0.029436 0.000000 0.000000
# 5 0.000000 0.000000 0.000000 0.000000 0.029436 0.000000
# 6 0.000000 0.000000 0.000000 0.000000 0.000000 0.026461
#
#
# Mechanical properties :
#
#
# Convention : Reuss Voigt Hill
#
# Bulk Modulus (GPa) = 74.62944 82.70362 78.66653
# Shear Modulus (GPa) = 30.81416 33.09688 31.95552
#
# Velocity S-wave (km/s) = 3.76194 3.89880 3.83098
# Velocity P-wave (km/s) = 7.29007 7.63225 7.46312
#
# Compressibility (1/GPa) = 0.01339954
#
# Stress axis : x y z
#
# Youngs Moduli (GPa) = 93.05669 93.05669 46.64350
#
# Poissons Ratio (x) = 0.23120 0.28643
# Poissons Ratio (y) = 0.23120 0.28643
# Poissons Ratio (z) = 0.57144 0.57144
#
# Static dielectric constant tensor:
#      x y z
#    x 1.861790 0.000000 0.000000 
#    y 0.000000 1.861790 0.000000 
#    z 0.000000 0.000000 1.780220 
# 
# From -- ./inp_files/12000.got.cif
#   From: 2010.05.17/outbox.cif.g08.bks.cpg/sg181_6_cif.got.tgz:12000.got - 2010.05.20 11:51:17.
