data_PCOD9584783
_publ_section_title
;
Structure prediction by ZEFSAII (Michael W. Deem and Ramdas Pophale) SiO2 
 PCOD9584783
Probable space group: P 63 2 2
;
_chemical_formula_sum "Si O2"
_cell_formula_units_Z 34
_cell_length_a 11.111640
_cell_length_b 11.111640
_cell_length_c 19.374418
_cell_angle_alpha 90.000000
_cell_angle_beta 90.000000
_cell_angle_gamma 120.000000
_cell_volume 2071.646364
_symmetry_space_group_name_H-M "P 63 2 2"
_symmetry_group_IT_number 182
_symmetry_cell_setting 'hexagonal'
loop_
_space_group_symop_operation_xyz
x,y,z
x-y,x,1/2+z
-y,x-y,z
-x,-y,1/2+z
-x+y,-x,z
y,-x+y,1/2+z
x-y,-y,-z
-x,-x+y,-z
y,x,-z
-y,-x,1/2-z
-x+y,y,1/2-z
x,x-y,1/2-z
loop_
_atom_site_type_symbol
_atom_site_label
_atom_site_fract_x
_atom_site_fract_y
_atom_site_fract_z
Si Si1 0.333334 0.666668 0.166480
Si Si2 0.978870 0.489434 0.888835
Si Si3 0.576996 0.423005 0.250000
Si Si4 0.289979 0.000000 0.500000
Si Si5 0.000000 0.289979 0.000000
O O1 0.333334 0.666667 0.250000
O O2 0.410381 0.589626 0.136148
O O3 0.006631 0.384779 0.934956
O O4 0.068513 0.534257 0.819794
O O5 0.006629 0.621851 0.934956
O O6 0.515405 0.257703 0.250000
O O7 0.278406 0.139203 0.503173
#
# Coordination Sequence:
#
# PCOD9584783 Si02
#       5
#     4  12   6   6   6
#     4  12  21  39  66  87 117 157 200 253 294 354
#     4  11  22  39  60  89 117 159 200 245 298 362
#     4  10  22  38  60  88 116 150 192 246 304 348
#     4  11  23  38  60  86 123 159 202 244 300 355
#     4  11  23  38  60  86 123 159 202 244 300 355
#
# _framework density 16.412067
#
# number of rings (size 3 to 8) (size 9 to 14) (size 15 to 20)
#    0.353    0.706    5.294    2.471    0.000    0.000 
#    2.118    0.000    0.000    0.000    0.000    0.000 
#    0.000    0.000    0.000    0.000    0.000    0.000 
#
# Total GULP energy -189727.606669 kJ/mol
# GULP energy per Si atom -5580.223726 kJ/mol
# Density = 1.637471 g / cm^3
# Si number density = 16.412067 Si / 1000 Ang^3
#
#
#
# Elastic Constant Matrix: (Units=GPa)
#
#
# Indices 1 2 3 4 5 6 
#
# 1 149.9661 87.4756 84.2356 0.0002 -0.0001 -0.0001
# 2 87.4756 149.9653 84.2358 -0.0004 0.0001 0.0000
# 3 84.2356 84.2358 173.0242 0.0000 0.0000 0.0001
# 4 0.0002 -0.0004 0.0000 27.6689 -0.0001 -0.0001
# 5 -0.0001 0.0001 0.0000 -0.0001 27.6690 -0.0003
# 6 -0.0001 0.0000 0.0001 -0.0001 -0.0003 31.2469
#
#
#
# Elastic Compliance Matrix: (Units=1/GPa)
#
#
# Indices 1 2 3 4 5 6 
#
# 1 0.011218 -0.004784 -0.003132 0.000000 0.000000 0.000000
# 2 -0.004784 0.011218 -0.003132 0.000000 0.000000 0.000000
# 3 -0.003132 -0.003132 0.008830 0.000000 0.000000 0.000000
# 4 0.000000 0.000000 0.000000 0.036142 0.000000 0.000000
# 5 0.000000 0.000000 0.000000 0.000000 0.036142 0.000000
# 6 0.000000 0.000000 0.000000 0.000000 0.000000 0.032003
#
#
# Mechanical properties :
#
#
# Convention : Reuss Voigt Hill
#
# Bulk Modulus (GPa) = 109.07373 109.42776 109.25074
# Shear Modulus (GPa) = 31.11260 31.78420 31.44840
#
# Velocity S-wave (km/s) = 4.35870 4.40550 4.38216
# Velocity P-wave (km/s) = 9.58826 9.62797 9.60814
#
# Compressibility (1/GPa) = 0.00916811
#
# Stress axis : x y z
#
# Youngs Moduli (GPa) = 89.14039 89.13951 113.25659
#
# Poissons Ratio (x) = 0.42646 0.35476
# Poissons Ratio (y) = 0.42647 0.35477
# Poissons Ratio (z) = 0.27922 0.27922
#
# Static dielectric constant tensor:
#      x y z
#    x 1.533540 0.000000 0.000000 
#    y 0.000000 1.533540 0.000000 
#    z 0.000000 0.000000 1.531370 
# 
# From -- ./inp_files/3085.got.cif
#   From: 2010.05.17/outbox.cif.g08.bks.cpg/sg182_2_cif.got.tgz:3085.got - 2010.05.20 11:58:53.
