data_PCOD9584366
_publ_section_title
;
Structure prediction by ZEFSAII (Michael W. Deem and Ramdas Pophale) SiO2 
 PCOD9584366
Probable space group: P 64 2 2
;
_chemical_formula_sum "Si O2"
_cell_formula_units_Z 51
_cell_length_a 10.704568
_cell_length_b 10.704568
_cell_length_c 19.077353
_cell_angle_alpha 90.000000
_cell_angle_beta 90.000000
_cell_angle_gamma 120.000000
_cell_volume 1893.158772
_symmetry_space_group_name_H-M "P 64 2 2"
_symmetry_group_IT_number 181
_symmetry_cell_setting 'hexagonal'
loop_
_space_group_symop_operation_xyz
x,y,z
x-y,x,2/3+z
-y,x-y,1/3+z
-x,-y,z
-x+y,-x,2/3+z
y,-x+y,1/3+z
x-y,-y,-z
-x,-x+y,2/3-z
y,x,1/3-z
-y,-x,1/3-z
-x+y,y,-z
x,x-y,2/3-z
loop_
_atom_site_type_symbol
_atom_site_label
_atom_site_fract_x
_atom_site_fract_y
_atom_site_fract_z
Si Si1 0.741580 0.551832 0.579846
Si Si2 0.500000 0.500000 0.166667
Si Si3 0.454839 0.315644 0.552787
Si Si4 0.780326 0.581387 0.078409
Si Si5 0.764453 0.834637 0.027546
O O1 0.791962 0.583923 0.500000
O O2 0.617297 0.382503 0.581630
O O3 0.631824 0.613066 0.586663
O O4 0.873368 0.639006 0.633053
O O5 0.629601 0.526358 0.116114
O O6 0.456097 0.323991 0.468303
O O7 0.341689 0.154554 0.574111
O O8 0.844010 0.753379 0.062024
O O9 0.760973 0.521945 0.000000
O O10 0.866298 0.000000 0.000000
#
# Coordination Sequence:
#
# PCOD9584366 Si02
#       5
#    12   3  12  12  12
#     4  10  21  36  64 100 130 178 238 285 354 433
#     4  12  28  52  68 106 152 196 242 320 378 454
#     4  10  21  41  63  97 143 177 230 297 355 429
#     4  12  26  46  71 100 146 191 241 299 373 444
#     4  10  21  42  70  96 136 182 237 302 359 425
#
# _framework density 26.939104
#
# number of rings (size 3 to 8) (size 9 to 14) (size 15 to 20)
#    0.000    1.412    2.353    2.118    1.647    7.059 
#    0.000    0.000    5.176    0.000    0.000    0.000 
#    0.000    0.000    0.000    0.000    0.000    0.000 
#
# Total GULP energy -284282.708080 kJ/mol
# GULP energy per Si atom -5574.170747 kJ/mol
# Density = 2.687779 g / cm^3
# Si number density = 26.939104 Si / 1000 Ang^3
#
#
#
# Elastic Constant Matrix: (Units=GPa)
#
#
# Indices 1 2 3 4 5 6 
#
# 1 91.7634 17.5080 27.6269 0.0000 0.0000 0.0000
# 2 17.5080 91.7634 27.6269 0.0000 0.0000 0.0000
# 3 27.6269 27.6269 185.9287 0.0000 0.0000 0.0000
# 4 0.0000 0.0000 0.0000 24.0473 0.0000 0.0000
# 5 0.0000 0.0000 0.0000 0.0000 24.0473 0.0000
# 6 0.0000 0.0000 0.0000 0.0000 0.0000 37.1277
#
#
#
# Elastic Compliance Matrix: (Units=1/GPa)
#
#
# Indices 1 2 3 4 5 6 
#
# 1 0.011681 -0.001786 -0.001470 0.000000 0.000000 0.000000
# 2 -0.001786 0.011681 -0.001470 0.000000 0.000000 0.000000
# 3 -0.001470 -0.001470 0.005815 0.000000 0.000000 0.000000
# 4 0.000000 0.000000 0.000000 0.041585 0.000000 0.000000
# 5 0.000000 0.000000 0.000000 0.000000 0.041585 0.000000
# 6 0.000000 0.000000 0.000000 0.000000 0.000000 0.026934
#
#
# Mechanical properties :
#
#
# Convention : Reuss Voigt Hill
#
# Bulk Modulus (GPa) = 50.69919 57.21988 53.95953
# Shear Modulus (GPa) = 32.19393 36.82404 34.50898
#
# Velocity S-wave (km/s) = 3.46072 3.70122 3.58299
# Velocity P-wave (km/s) = 5.90166 6.28903 6.09842
#
# Compressibility (1/GPa) = 0.01972418
#
# Stress axis : x y z
#
# Youngs Moduli (GPa) = 85.60903 85.60903 171.95900
#
# Poissons Ratio (x) = 0.15290 0.25283
# Poissons Ratio (y) = 0.15290 0.25283
# Poissons Ratio (z) = 0.12587 0.12587
#
# Static dielectric constant tensor:
#      x y z
#    x 2.613280 0.000000 0.000000 
#    y 0.000000 2.613280 0.000000 
#    z 0.000000 0.000000 2.117760 
# 
# From -- ./inp_files/8754.got.cif
#   From: 2010.05.17/outbox.cif.g08.bks.cpg/sg181_5_cif.got.tgz:8754.got - 2010.05.20 11:51:17.
