data_PCOD9584058
_publ_section_title
;
Structure prediction by ZEFSAII (Michael W. Deem and Ramdas Pophale) SiO2 
 PCOD9584058
Probable space group: P 62 2 2
;
_chemical_formula_sum "Si O2"
_cell_formula_units_Z 54
_cell_length_a 11.677712
_cell_length_b 11.677712
_cell_length_c 25.147513
_cell_angle_alpha 90.000000
_cell_angle_beta 90.000000
_cell_angle_gamma 120.000000
_cell_volume 2969.895673
_symmetry_space_group_name_H-M "P 62 2 2"
_symmetry_group_IT_number 180
_symmetry_cell_setting 'hexagonal'
loop_
_space_group_symop_operation_xyz
x,y,z
x-y,x,1/3+z
-y,x-y,2/3+z
-x,-y,z
-x+y,-x,1/3+z
y,-x+y,2/3+z
x-y,-y,-z
-x,-x+y,1/3-z
y,x,2/3-z
-y,-x,2/3-z
-x+y,y,-z
x,x-y,1/3-z
loop_
_atom_site_type_symbol
_atom_site_label
_atom_site_fract_x
_atom_site_fract_y
_atom_site_fract_z
Si Si1 0.826239 0.523695 0.921164
Si Si2 0.630771 0.415029 0.418137
Si Si3 0.500000 0.000000 0.827753
Si Si4 0.234103 0.384730 0.323268
Si Si5 0.040329 0.642503 0.297646
O O1 0.710807 0.373880 0.907879
O O2 0.756604 0.610839 0.926713
O O3 0.940717 0.566453 0.878095
O O4 0.886411 0.532677 0.980025
O O5 0.599543 0.477373 0.468891
O O6 0.720774 0.528770 0.376714
O O7 0.489091 0.323326 0.389399
O O8 0.272451 0.272451 0.333334
O O9 0.084016 0.340595 0.310358
O O10 0.000000 0.500000 0.273806
#
# Coordination Sequence:
#
# PCOD9584058 Si02
#       5
#    12  12   6  12  12
#     4  11  22  36  58  90 118 158 205 254 315 360
#     4  11  19  34  61  86 121 157 208 258 302 363
#     4  12  22  35  52  90 130 158 193 254 322 376
#     4  11  19  35  60  91 120 161 208 258 303 360
#     4  11  19  37  63  86 120 156 206 262 302 360
#
# _framework density 18.182456999999999
#
# number of rings (size 3 to 8) (size 9 to 14) (size 15 to 20)
#    0.000    0.889    7.778    2.667    0.000    0.000 
#    0.000    3.333    0.000    0.000    0.000    0.000 
#    0.000    0.000    0.000    0.000    0.000    0.000 
#
# Total GULP energy -301305.480626 kJ/mol
# GULP energy per Si atom -5579.731123 kJ/mol
# Density = 1.814107 g / cm^3
# Si number density = 18.182457 Si / 1000 Ang^3
#
#
#
# Elastic Constant Matrix: (Units=GPa)
#
#
# Indices 1 2 3 4 5 6 
#
# 1 120.0827 64.6784 35.9936 0.0000 0.0000 0.0000
# 2 64.6784 120.0827 35.9936 0.0000 0.0000 0.0000
# 3 35.9936 35.9936 82.7604 0.0000 0.0000 0.0000
# 4 0.0000 0.0000 0.0000 20.0709 0.0000 0.0000
# 5 0.0000 0.0000 0.0000 0.0000 20.0709 0.0000
# 6 0.0000 0.0000 0.0000 0.0000 0.0000 27.7021
#
#
#
# Elastic Compliance Matrix: (Units=1/GPa)
#
#
# Indices 1 2 3 4 5 6 
#
# 1 0.012283 -0.005766 -0.002834 0.000000 0.000000 0.000000
# 2 -0.005766 0.012283 -0.002834 0.000000 0.000000 0.000000
# 3 -0.002834 -0.002834 0.014548 0.000000 0.000000 0.000000
# 4 0.000000 0.000000 0.000000 0.049823 0.000000 0.000000
# 5 0.000000 0.000000 0.000000 0.000000 0.049823 0.000000
# 6 0.000000 0.000000 0.000000 0.000000 0.000000 0.036098
#
#
# Mechanical properties :
#
#
# Convention : Reuss Voigt Hill
#
# Bulk Modulus (GPa) = 61.55775 66.25079 63.90427
# Shear Modulus (GPa) = 24.61318 25.98614 25.29966
#
# Velocity S-wave (km/s) = 3.68323 3.78456 3.73424
# Velocity P-wave (km/s) = 7.21230 7.45741 7.33588
#
# Compressibility (1/GPa) = 0.01624491
#
# Stress axis : x y z
#
# Youngs Moduli (GPa) = 81.41396 81.41396 68.73646
#
# Poissons Ratio (x) = 0.46945 0.19481
# Poissons Ratio (y) = 0.46945 0.19481
# Poissons Ratio (z) = 0.23074 0.23074
#
# Static dielectric constant tensor:
#      x y z
#    x 1.652510 0.000000 0.000000 
#    y 0.000000 1.652510 0.000000 
#    z 0.000000 0.000000 1.650940 
# 
# From -- ./inp_files/10054.got.cif
#   From: 2010.05.17/outbox.cif.g08.bks.cpg/sg180_6_cif.got.tgz:10054.got - 2010.05.20 11:43:55.
