data_PCOD9584980
_publ_section_title
;
Structure prediction by ZEFSAII (Michael W. Deem and Ramdas Pophale) SiO2 
 PCOD9584980
Probable space group: P 6 M M
;
_chemical_formula_sum "Si O2"
_cell_formula_units_Z 96
_cell_length_a 18.341243
_cell_length_b 18.341243
_cell_length_c 21.008490
_cell_angle_alpha 90.000000
_cell_angle_beta 90.000000
_cell_angle_gamma 120.000000
_cell_volume 6120.445000
_symmetry_space_group_name_H-M "P 6 M M"
_symmetry_group_IT_number 183
_symmetry_cell_setting 'hexagonal'
loop_
_space_group_symop_operation_xyz
x,y,z
x-y,x,z
-y,x-y,z
-x,-y,z
-x+y,-x,z
y,-x+y,z
-x+y,y,z
x,x-y,z
-y,-x,z
y,x,z
x-y,-y,z
-x,-x+y,z
loop_
_atom_site_type_symbol
_atom_site_label
_atom_site_fract_x
_atom_site_fract_y
_atom_site_fract_z
Si Si1 0.331203 0.833750 0.615210
Si Si2 0.095871 0.459745 0.258836
Si Si3 0.164779 0.668555 0.120867
Si Si4 0.532338 0.634558 0.891384
Si Si5 0.503418 0.668648 0.396595
Si Si6 0.095444 0.361365 0.506585
Si Si7 0.903629 0.363529 0.752170
Si Si8 0.901888 0.264520 0.010287
O O1 0.425398 0.850795 0.606139
O O2 0.263346 0.736655 0.601760
O O3 0.308767 0.887910 0.567879
O O4 0.321149 0.853962 0.688278
O O5 0.093424 0.546712 0.258682
O O6 0.140252 0.462145 0.192864
O O7 0.141500 0.463186 0.324419
O O8 0.000000 0.384854 0.259407
O O9 0.149541 0.574771 0.112580
O O10 0.262333 0.737668 0.110662
O O11 0.112177 0.689819 0.070904
O O12 0.434232 0.565769 0.903091
O O13 0.580098 0.580098 0.887440
O O14 0.544624 0.675423 0.821495
O O15 0.576722 0.698195 0.948702
O O16 0.474392 0.737196 0.407580
O O17 0.425136 0.574865 0.405226
O O18 0.577920 0.690586 0.445974
O O19 0.168145 0.336289 0.506395
O O20 0.000000 0.286559 0.506158
O O21 0.906335 0.453168 0.755506
O O22 0.000000 0.385753 0.745236
O O23 0.834389 0.165612 0.014977
O O24 0.000000 0.292264 0.005978
#
# Coordination Sequence:
#
# PCOD9584980 Si02
#       8
#    12  12  12  12  12  12  12  12
#     4  10  19  29  42  62  91 126 161 193 222 252
#     4   9  17  28  42  60  84 119 162 200 227 253
#     4  10  19  30  45  66  93 123 153 184 219 261
#     4   8  14  26  44  65  88 114 145 180 219 263
#     4  10  19  30  45  66  94 127 161 194 225 257
#     4  10  21  35  51  70  90 114 144 182 227 273
#     4   8  14  25  41  60  83 114 152 190 223 256
#     4  10  20  32  47  66  87 113 145 184 227 270
#
# _framework density 15.685134
#
# number of rings (size 3 to 8) (size 9 to 14) (size 15 to 20)
#    0.000    2.625    0.000    3.375    0.000    3.750 
#    0.000    2.500    0.000    0.500    0.000    0.000 
#    0.000    0.000    0.000    0.000    0.000   42.250 
#
# Total GULP energy -534863.803816 kJ/mol
# GULP energy per Si atom -5571.497956 kJ/mol
# Density = 1.564943 g / cm^3
# Si number density = 15.685134 Si / 1000 Ang^3
#
#
#
# Elastic Constant Matrix: (Units=GPa)
#
#
# Indices 1 2 3 4 5 6 
#
# 1 67.2638 45.4451 29.3208 0.0000 0.0000 0.0000
# 2 45.4451 67.2638 29.3208 0.0000 0.0000 0.0000
# 3 29.3208 29.3208 104.8670 0.0000 0.0000 0.0000
# 4 0.0000 0.0000 0.0000 16.0147 0.0000 0.0000
# 5 0.0000 0.0000 0.0000 0.0000 16.0147 0.0000
# 6 0.0000 0.0000 0.0000 0.0000 0.0000 10.9093
#
#
#
# Elastic Compliance Matrix: (Units=1/GPa)
#
#
# Indices 1 2 3 4 5 6 
#
# 1 0.028108 -0.017725 -0.002903 0.000000 0.000000 0.000000
# 2 -0.017725 0.028108 -0.002903 0.000000 0.000000 0.000000
# 3 -0.002903 -0.002903 0.011159 0.000000 0.000000 0.000000
# 4 0.000000 0.000000 0.000000 0.062443 0.000000 0.000000
# 5 0.000000 0.000000 0.000000 0.000000 0.062443 0.000000
# 6 0.000000 0.000000 0.000000 0.000000 0.000000 0.091665
#
#
# Mechanical properties :
#
#
# Convention : Reuss Voigt Hill
#
# Bulk Modulus (GPa) = 49.23005 49.72976 49.47991
# Shear Modulus (GPa) = 14.80353 17.60826 16.20589
#
# Velocity S-wave (km/s) = 3.07546 3.35417 3.21783
# Velocity P-wave (km/s) = 6.63821 6.83919 6.73945
#
# Compressibility (1/GPa) = 0.02031280
#
# Stress axis : x y z
#
# Youngs Moduli (GPa) = 35.57758 35.57758 89.61168
#
# Poissons Ratio (x) = 0.63060 0.26015
# Poissons Ratio (y) = 0.63060 0.26015
# Poissons Ratio (z) = 0.10328 0.10328
#
# Static dielectric constant tensor:
#      x y z
#    x 1.512800 0.000000 0.000000 
#    y 0.000000 1.512800 0.000000 
#    z 0.000000 0.000000 1.552940 
# 
# From -- ./inp_files/3122.got.cif
#   From: 2010.05.17/outbox.cif.g08.bks.cpg/sg183_2_cif.got.tgz:3122.got - 2010.05.20 12:02:58.
