data_PCOD9584238
_publ_section_title
;
Structure prediction by ZEFSAII (Michael W. Deem and Ramdas Pophale) SiO2 
 PCOD9584238
Probable space group: P 64 2 2
;
_chemical_formula_sum "Si O2"
_cell_formula_units_Z 48
_cell_length_a 18.883900
_cell_length_b 18.883900
_cell_length_c 7.541105
_cell_angle_alpha 90.000000
_cell_angle_beta 90.000000
_cell_angle_gamma 120.000000
_cell_volume 2328.890147
_symmetry_space_group_name_H-M "P 64 2 2"
_symmetry_group_IT_number 181
_symmetry_cell_setting 'hexagonal'
loop_
_space_group_symop_operation_xyz
x,y,z
x-y,x,2/3+z
-y,x-y,1/3+z
-x,-y,z
-x+y,-x,2/3+z
y,-x+y,1/3+z
x-y,-y,-z
-x,-x+y,2/3-z
y,x,1/3-z
-y,-x,1/3-z
-x+y,y,-z
x,x-y,2/3-z
loop_
_atom_site_type_symbol
_atom_site_label
_atom_site_fract_x
_atom_site_fract_y
_atom_site_fract_z
Si Si1 0.000000 0.100579 0.833334
Si Si2 0.387470 0.841217 0.818863
Si Si3 0.747947 0.873974 0.333334
Si Si4 0.301679 0.384117 0.057712
Si Si5 0.780182 0.496431 0.690075
O O1 0.078240 0.193266 0.830207
O O2 0.962314 0.037687 0.666667
O O3 0.358365 0.900794 0.740084
O O4 0.439910 0.819281 0.686352
O O5 0.437342 0.874683 0.000000
O O6 0.305525 0.756960 0.872784
O O7 0.690747 0.913065 0.302653
O O8 0.351833 0.351833 0.166667
O O9 0.269189 0.426860 0.195316
O O10 0.760257 0.520514 0.500000
#
# Coordination Sequence:
#
# PCOD9584238 Si02
#       5
#     6  12   6  12  12
#     4   8  16  32  60 106 159 190 233 296 364 447
#     4  10  22  38  60  88 128 176 242 296 352 410
#     4  10  18  34  62  98 144 190 233 280 367 442
#     4  12  22  38  63  92 134 183 231 290 359 433
#     4  10  22  38  58  89 129 180 236 298 349 409
#
# _framework density 20.610676000000002
#
# number of rings (size 3 to 8) (size 9 to 14) (size 15 to 20)
#    0.750    1.000    3.750    0.750    0.000   14.000 
#    0.000    8.750    0.000    0.000    0.000    0.000 
#   18.750    0.000    0.000    5.500    0.000    0.000 
#
# Total GULP energy -267342.363577 kJ/mol
# GULP energy per Si atom -5569.632575 kJ/mol
# Density = 2.056377 g / cm^3
# Si number density = 20.610676 Si / 1000 Ang^3
#
#
#
# Elastic Constant Matrix: (Units=GPa)
#
#
# Indices 1 2 3 4 5 6 
#
# 1 121.8157 56.7809 50.1374 0.0000 0.0000 0.0000
# 2 56.7809 121.8157 50.1374 0.0000 0.0000 0.0000
# 3 50.1374 50.1374 108.0215 0.0000 0.0000 0.0000
# 4 0.0000 0.0000 0.0000 14.5654 0.0000 0.0000
# 5 0.0000 0.0000 0.0000 0.0000 14.5654 0.0000
# 6 0.0000 0.0000 0.0000 0.0000 0.0000 32.5174
#
#
#
# Elastic Compliance Matrix: (Units=1/GPa)
#
#
# Indices 1 2 3 4 5 6 
#
# 1 0.011474 -0.003902 -0.003515 0.000000 0.000000 0.000000
# 2 -0.003902 0.011474 -0.003515 0.000000 0.000000 0.000000
# 3 -0.003515 -0.003515 0.012520 0.000000 0.000000 0.000000
# 4 0.000000 0.000000 0.000000 0.068656 0.000000 0.000000
# 5 0.000000 0.000000 0.000000 0.000000 0.068656 0.000000
# 6 0.000000 0.000000 0.000000 0.000000 0.000000 0.030753
#
#
# Mechanical properties :
#
#
# Convention : Reuss Voigt Hill
#
# Bulk Modulus (GPa) = 73.49556 73.97380 73.73468
# Shear Modulus (GPa) = 21.74562 25.30282 23.52422
#
# Velocity S-wave (km/s) = 3.25170 3.50759 3.38207
# Velocity P-wave (km/s) = 7.05935 7.23693 7.14870
#
# Compressibility (1/GPa) = 0.01360626
#
# Stress axis : x y z
#
# Youngs Moduli (GPa) = 87.14986 87.14986 79.87142
#
# Poissons Ratio (x) = 0.34005 0.28073
# Poissons Ratio (y) = 0.34005 0.28073
# Poissons Ratio (z) = 0.30631 0.30631
#
# Static dielectric constant tensor:
#      x y z
#    x 1.778520 0.000000 0.000000 
#    y 0.000000 1.778520 0.000000 
#    z 0.000000 0.000000 1.780500 
# 
# From -- ./inp_files/2707.got.cif
#   From: 2010.05.17/outbox.cif.g08.bks.cpg/sg181_2_cif.got.tgz:2707.got - 2010.05.20 11:51:17.
