data_PCOD9584858
_publ_section_title
;
Structure prediction by ZEFSAII (Michael W. Deem and Ramdas Pophale) SiO2 
 PCOD9584858
Probable space group: P 63 2 2
;
_chemical_formula_sum "Si O2"
_cell_formula_units_Z 90
_cell_length_a 26.486614
_cell_length_b 26.486614
_cell_length_c 8.029159
_cell_angle_alpha 90.000000
_cell_angle_beta 90.000000
_cell_angle_gamma 120.000000
_cell_volume 4878.132302
_symmetry_space_group_name_H-M "P 63 2 2"
_symmetry_group_IT_number 182
_symmetry_cell_setting 'hexagonal'
loop_
_space_group_symop_operation_xyz
x,y,z
x-y,x,1/2+z
-y,x-y,z
-x,-y,1/2+z
-x+y,-x,z
y,-x+y,1/2+z
x-y,-y,-z
-x,-x+y,-z
y,x,-z
-y,-x,1/2-z
-x+y,y,1/2-z
x,x-y,1/2-z
loop_
_atom_site_type_symbol
_atom_site_label
_atom_site_fract_x
_atom_site_fract_y
_atom_site_fract_z
Si Si1 0.635727 0.676235 0.752079
Si Si2 0.482275 0.669115 0.118582
Si Si3 0.525245 0.739298 0.572827
Si Si4 0.428052 0.943369 0.610359
Si Si5 0.342239 0.210454 0.091446
Si Si6 0.620213 0.441208 0.523851
Si Si7 0.698287 0.088875 0.626844
Si Si8 0.830745 0.661489 0.750000
O O1 0.571134 0.629693 0.685049
O O2 0.667562 0.736877 0.650508
O O3 0.670929 0.641119 0.764578
O O4 0.627504 0.695341 0.936930
O O5 0.430323 0.624325 0.999507
O O6 0.452784 0.652306 0.298982
O O7 0.539108 0.661916 0.129052
O O8 0.505410 0.733801 0.056205
O O9 0.535672 0.767836 0.750000
O O10 0.589639 0.752237 0.529512
O O11 0.473584 0.673887 0.598956
O O12 0.470609 0.941218 0.750000
O O13 0.410694 0.889983 0.487073
O O14 0.461330 0.000000 0.500000
O O15 0.336414 0.168207 0.250000
O O16 0.309547 0.174713 0.924352
O O17 0.763900 0.135344 0.682173
#
# Coordination Sequence:
#
# PCOD9584858 Si02
#       8
#    12  12  12  12  12  12  12   6
#     4  11  24  41  58  88 125 149 194 250 300 348
#     4  11  23  41  61  82 110 143 190 236 294 378
#     4  11  22  38  62  84 107 138 182 234 298 361
#     4  12  28  40  58  83 117 154 192 242 308 382
#     4  11  21  38  60  89 116 153 192 243 289 358
#     4  11  25  40  61  82 106 145 186 234 305 369
#     4  11  23  39  64  87 117 158 192 245 300 364
#     4  12  22  36  66  88 112 156 202 230 300 342
#
# _framework density 18.449683
#
# number of rings (size 3 to 8) (size 9 to 14) (size 15 to 20)
#    0.000    0.800    4.000    3.600    9.333    0.000 
#    0.800    0.000    0.000    0.000    0.000    0.000 
#    0.000    0.000    0.000    0.000    0.000    0.000 
#
# Total GULP energy -501997.313242 kJ/mol
# GULP energy per Si atom -5577.747925 kJ/mol
# Density = 1.840769 g / cm^3
# Si number density = 18.449683 Si / 1000 Ang^3
#
#
#
# Elastic Constant Matrix: (Units=GPa)
#
#
# Indices 1 2 3 4 5 6 
#
# 1 36.8993 30.3057 -2.7740 0.0000 0.0000 0.0000
# 2 30.3057 36.8993 -2.7740 0.0000 0.0000 0.0000
# 3 -2.7740 -2.7740 50.2610 0.0000 0.0000 0.0000
# 4 0.0000 0.0000 0.0000 24.1035 0.0000 0.0000
# 5 0.0000 0.0000 0.0000 0.0000 24.1035 0.0000
# 6 0.0000 0.0000 0.0000 0.0000 0.0000 3.2968
#
#
#
# Elastic Compliance Matrix: (Units=1/GPa)
#
#
# Indices 1 2 3 4 5 6 
#
# 1 0.083305 -0.068357 0.000825 0.000000 0.000000 0.000000
# 2 -0.068357 0.083305 0.000825 0.000000 0.000000 0.000000
# 3 0.000825 0.000825 0.019987 0.000000 0.000000 0.000000
# 4 0.000000 0.000000 0.000000 0.041488 0.000000 0.000000
# 5 0.000000 0.000000 0.000000 0.000000 0.041488 0.000000
# 6 0.000000 0.000000 0.000000 0.000000 0.000000 0.303324
#
#
# Mechanical properties :
#
#
# Convention : Reuss Voigt Hill
#
# Bulk Modulus (GPa) = 18.80295 19.28610 19.04453
# Shear Modulus (GPa) = 6.90571 16.92089 11.91330
#
# Velocity S-wave (km/s) = 1.93678 3.03171 2.54386
# Velocity P-wave (km/s) = 3.90065 4.76771 4.35581
#
# Compressibility (1/GPa) = 0.05318315
#
# Stress axis : x y z
#
# Youngs Moduli (GPa) = 12.00408 12.00408 50.03198
#
# Poissons Ratio (x) = 0.82056 -0.04128
# Poissons Ratio (y) = 0.82056 -0.04128
# Poissons Ratio (z) = -0.00990 -0.00990
#
# Static dielectric constant tensor:
#      x y z
#    x 1.649810 0.000000 0.000000 
#    y 0.000000 1.649810 0.000000 
#    z 0.000000 0.000000 1.718410 
# 
# From -- ./inp_files/2025.got.cif
#   From: 2010.05.17/outbox.cif.g08.bks.cpg/sg182_2_cif.got.tgz:2025.got - 2010.05.20 11:58:53.
