data_PCOD9584144
_publ_section_title
;
Structure prediction by ZEFSAII (Michael W. Deem and Ramdas Pophale) SiO2 
 PCOD9584144
Probable space group: P 62 2 2
;
_chemical_formula_sum "Si O2"
_cell_formula_units_Z 30
_cell_length_a 18.357547
_cell_length_b 18.357547
_cell_length_c 4.975634
_cell_angle_alpha 90.000000
_cell_angle_beta 90.000000
_cell_angle_gamma 120.000000
_cell_volume 1452.139557
_symmetry_space_group_name_H-M "P 62 2 2"
_symmetry_group_IT_number 180
_symmetry_cell_setting 'hexagonal'
loop_
_space_group_symop_operation_xyz
x,y,z
x-y,x,1/3+z
-y,x-y,2/3+z
-x,-y,z
-x+y,-x,1/3+z
y,-x+y,2/3+z
x-y,-y,-z
-x,-x+y,1/3-z
y,x,2/3-z
-y,-x,2/3-z
-x+y,y,-z
x,x-y,1/3-z
loop_
_atom_site_type_symbol
_atom_site_label
_atom_site_fract_x
_atom_site_fract_y
_atom_site_fract_z
Si Si1 0.855090 0.427545 0.666667
Si Si2 0.511414 0.755707 0.166667
Si Si3 0.696039 0.696039 0.833334
Si Si4 0.362631 0.181316 0.666667
Si Si5 0.601205 0.000000 0.000000
O O1 0.797409 0.451817 0.490596
O O2 0.924010 0.516461 0.796207
O O3 0.573266 0.778647 0.418907
O O4 0.695038 0.776941 0.718029
O O5 0.664461 0.632060 0.581803
#
# Coordination Sequence:
#
# PCOD9584144 Si02
#       5
#     6   6   6   6   6
#     4  11  24  43  62  95 128 190 233 290 343 393
#     4  12  26  42  60  92 136 178 240 280 342 392
#     4  12  22  45  68  94 132 169 226 284 346 423
#     4  12  24  43  66  97 126 175 219 289 345 420
#     4  11  24  40  70  90 126 181 236 285 340 404
#
# _framework density 20.659171000000001
#
# number of rings (size 3 to 8) (size 9 to 14) (size 15 to 20)
#    0.000    0.400    8.000    0.000    0.000    9.600 
#    0.000    0.000    0.000    0.000    0.000    0.000 
#    0.000   41.600    0.000    0.000    0.000    0.000 
#
# Total GULP energy -167348.860679 kJ/mol
# GULP energy per Si atom -5578.295356 kJ/mol
# Density = 2.061215 g / cm^3
# Si number density = 20.659171 Si / 1000 Ang^3
#
#
#
# Elastic Constant Matrix: (Units=GPa)
#
#
# Indices 1 2 3 4 5 6 
#
# 1 142.2633 86.2201 34.8826 0.0000 0.0000 0.0000
# 2 86.2201 142.2633 34.8826 0.0000 0.0000 0.0000
# 3 34.8826 34.8826 119.2138 0.0000 0.0000 0.0000
# 4 0.0000 0.0000 0.0000 20.1725 0.0000 0.0000
# 5 0.0000 0.0000 0.0000 0.0000 20.1725 0.0000
# 6 0.0000 0.0000 0.0000 0.0000 0.0000 28.0216
#
#
#
# Elastic Compliance Matrix: (Units=1/GPa)
#
#
# Indices 1 2 3 4 5 6 
#
# 1 0.011325 -0.006519 -0.001406 0.000000 0.000000 0.000000
# 2 -0.006519 0.011325 -0.001406 0.000000 0.000000 0.000000
# 3 -0.001406 -0.001406 0.009211 0.000000 0.000000 0.000000
# 4 0.000000 0.000000 0.000000 0.049572 0.000000 0.000000
# 5 0.000000 0.000000 0.000000 0.000000 0.049572 0.000000
# 6 0.000000 0.000000 0.000000 0.000000 0.000000 0.035687
#
#
# Mechanical properties :
#
#
# Convention : Reuss Voigt Hill
#
# Bulk Modulus (GPa) = 75.76744 79.52346 77.64545
# Shear Modulus (GPa) = 26.34989 30.19032 28.27011
#
# Velocity S-wave (km/s) = 3.57523 3.82691 3.70321
# Velocity P-wave (km/s) = 7.33468 7.62257 7.48001
#
# Compressibility (1/GPa) = 0.01319828
#
# Stress axis : x y z
#
# Youngs Moduli (GPa) = 88.30229 88.30229 108.56269
#
# Poissons Ratio (x) = 0.57561 0.15267
# Poissons Ratio (y) = 0.57561 0.15267
# Poissons Ratio (z) = 0.12418 0.12418
#
# Static dielectric constant tensor:
#      x y z
#    x 1.831050 0.000000 0.000000 
#    y 0.000000 1.831050 0.000000 
#    z 0.000000 0.000000 1.758180 
# 
# From -- ./inp_files/468.got.cif
#   From: 2010.05.17/outbox.cif.g08.bks.cpg/sg180_1_cif.got.tgz:468.got - 2010.05.20 11:43:55.
