data_PCOD9584583
_publ_section_title
;
Structure prediction by ZEFSAII (Michael W. Deem and Ramdas Pophale) SiO2 
 PCOD9584583
Probable space group: P 64 2 2
;
_chemical_formula_sum "Si O2"
_cell_formula_units_Z 42
_cell_length_a 13.440846
_cell_length_b 13.440846
_cell_length_c 13.110745
_cell_angle_alpha 90.000000
_cell_angle_beta 90.000000
_cell_angle_gamma 120.000000
_cell_volume 2051.215136
_symmetry_space_group_name_H-M "P 64 2 2"
_symmetry_group_IT_number 181
_symmetry_cell_setting 'hexagonal'
loop_
_space_group_symop_operation_xyz
x,y,z
x-y,x,2/3+z
-y,x-y,1/3+z
-x,-y,z
-x+y,-x,2/3+z
y,-x+y,1/3+z
x-y,-y,-z
-x,-x+y,2/3-z
y,x,1/3-z
-y,-x,1/3-z
-x+y,y,-z
x,x-y,2/3-z
loop_
_atom_site_type_symbol
_atom_site_label
_atom_site_fract_x
_atom_site_fract_y
_atom_site_fract_z
Si Si1 0.122557 0.277775 0.284807
Si Si2 0.204534 0.684351 0.272507
Si Si3 0.500000 0.000000 0.184125
Si Si4 0.068274 0.744849 0.607988
O O1 0.164625 0.405450 0.329612
O O2 0.219769 0.249119 0.323469
O O3 0.094093 0.280340 0.165725
O O4 0.000000 0.189796 0.333334
O O5 0.253229 0.746772 0.166667
O O6 0.278955 0.639478 0.333334
O O7 0.102584 0.568080 0.226951
O O8 0.412794 0.024381 0.249277
O O9 0.188967 0.811034 0.666667
#
# Coordination Sequence:
#
# PCOD9584583 Si02
#       4
#    12  12   6  12
#     4  12  22  45  75 102 138 186 242 299 363 430
#     4  12  22  41  72 105 137 186 243 300 354 428
#     4  12  23  44  73 100 142 188 239 288 357 420
#     4  12  27  45  69 107 149 188 235 301 363 432
#
# _framework density 20.475669
#
# number of rings (size 3 to 8) (size 9 to 14) (size 15 to 20)
#    0.000    0.000    8.571    2.143    0.000    1.714 
#    0.000    5.714    0.000    0.000    0.000    0.000 
#    0.000    0.000    0.000    0.000    0.000    0.000 
#
# Total GULP energy -234264.401358 kJ/mol
# GULP energy per Si atom -5577.723842 kJ/mol
# Density = 2.042907 g / cm^3
# Si number density = 20.475669 Si / 1000 Ang^3
#
#
#
# Elastic Constant Matrix: (Units=GPa)
#
#
# Indices 1 2 3 4 5 6 
#
# 1 88.5509 28.7471 35.1545 0.0000 0.0000 0.0000
# 2 28.7471 88.5509 35.1545 0.0000 0.0000 0.0000
# 3 35.1545 35.1545 90.4963 0.0000 0.0000 0.0000
# 4 0.0000 0.0000 0.0000 34.2272 0.0000 0.0000
# 5 0.0000 0.0000 0.0000 0.0000 34.2272 0.0000
# 6 0.0000 0.0000 0.0000 0.0000 0.0000 29.9019
#
#
#
# Elastic Compliance Matrix: (Units=1/GPa)
#
#
# Indices 1 2 3 4 5 6 
#
# 1 0.013917 -0.002804 -0.004317 0.000000 0.000000 0.000000
# 2 -0.002804 0.013917 -0.004317 0.000000 0.000000 0.000000
# 3 -0.004317 -0.004317 0.014404 0.000000 0.000000 0.000000
# 4 0.000000 0.000000 0.000000 0.029217 0.000000 0.000000
# 5 0.000000 0.000000 0.000000 0.000000 0.029217 0.000000
# 6 0.000000 0.000000 0.000000 0.000000 0.000000 0.033443
#
#
# Mechanical properties :
#
#
# Convention : Reuss Voigt Hill
#
# Bulk Modulus (GPa) = 51.64725 51.74558 51.69642
# Shear Modulus (GPa) = 30.59143 30.90739 30.74941
#
# Velocity S-wave (km/s) = 3.86947 3.88940 3.87945
# Velocity P-wave (km/s) = 6.72623 6.74511 6.73568
#
# Compressibility (1/GPa) = 0.01936212
#
# Stress axis : x y z
#
# Youngs Moduli (GPa) = 71.85391 71.85391 69.42444
#
# Poissons Ratio (x) = 0.20149 0.29970
# Poissons Ratio (y) = 0.20149 0.29970
# Poissons Ratio (z) = 0.31019 0.31019
#
# Static dielectric constant tensor:
#      x y z
#    x 1.705100 0.000000 0.000000 
#    y 0.000000 1.705100 0.000000 
#    z 0.000000 0.000000 1.939970 
# 
# From -- ./inp_files/4219.got.cif
#   From: 2010.05.17/outbox.cif.g08.bks.cpg/sg181_3_cif.got.tgz:4219.got - 2010.05.20 11:51:17.
