data_PCOD9584626
_publ_section_title
;
Structure prediction by ZEFSAII (Michael W. Deem and Ramdas Pophale) SiO2 
 PCOD9584626
Probable space group: P 63 2 2
;
_chemical_formula_sum "Si O2"
_cell_formula_units_Z 46
_cell_length_a 11.446439
_cell_length_b 11.446439
_cell_length_c 23.657505
_cell_angle_alpha 90.000000
_cell_angle_beta 90.000000
_cell_angle_gamma 120.000000
_cell_volume 2684.357589
_symmetry_space_group_name_H-M "P 63 2 2"
_symmetry_group_IT_number 182
_symmetry_cell_setting 'hexagonal'
loop_
_space_group_symop_operation_xyz
x,y,z
x-y,x,1/2+z
-y,x-y,z
-x,-y,1/2+z
-x+y,-x,z
y,-x+y,1/2+z
x-y,-y,-z
-x,-x+y,-z
y,x,-z
-y,-x,1/2-z
-x+y,y,1/2-z
x,x-y,1/2-z
loop_
_atom_site_type_symbol
_atom_site_label
_atom_site_fract_x
_atom_site_fract_y
_atom_site_fract_z
Si Si1 0.853706 0.146294 0.373399
Si Si2 0.177719 0.088860 0.250000
Si Si3 0.392271 0.334631 0.937213
Si Si4 0.000000 0.000000 0.067742
Si Si5 0.665369 0.057639 0.562787
O O1 0.869113 0.130887 0.307187
O O2 0.925079 0.074921 0.407036
O O3 0.938429 0.299630 0.394075
O O4 0.700370 0.061571 0.394075
O O5 0.072754 0.145508 0.250000
O O6 0.379815 0.189907 0.927356
O O7 0.546295 0.453705 0.933960
O O8 0.339326 0.339326 0.000000
O O9 0.000000 0.000000 0.000000
O O10 0.660674 0.000000 0.500000
#
# Coordination Sequence:
#
# PCOD9584626 Si02
#       5
#    12   6  12   4  12
#     4  12  20  36  58  86 114 144 197 240 295 344
#     4  10  18  34  56  90 114 142 180 248 292 328
#     4  11  22  36  55  84 118 154 189 238 298 355
#     4  12  18  28  62  88 114 129 181 245 298 348
#     4  11  22  36  55  84 118 154 189 238 298 355
#
# _framework density 17.136316000000001
#
# number of rings (size 3 to 8) (size 9 to 14) (size 15 to 20)
#    0.261    0.522    7.826    2.087    0.000    0.000 
#    1.565    1.304    0.000    0.000    0.000    3.652 
#    0.000    0.000    0.000    0.000    0.000    0.000 
#
# Total GULP energy -256847.675425 kJ/mol
# GULP energy per Si atom -5583.645118 kJ/mol
# Density = 1.709731 g / cm^3
# Si number density = 17.136316 Si / 1000 Ang^3
#
#
#
# Elastic Constant Matrix: (Units=GPa)
#
#
# Indices 1 2 3 4 5 6 
#
# 1 64.8963 31.0434 22.3414 0.0000 0.0000 0.0000
# 2 31.0434 64.8963 22.3414 0.0000 0.0000 0.0000
# 3 22.3414 22.3414 149.4815 0.0000 0.0000 0.0000
# 4 0.0000 0.0000 0.0000 9.9517 0.0000 0.0000
# 5 0.0000 0.0000 0.0000 0.0000 9.9517 0.0000
# 6 0.0000 0.0000 0.0000 0.0000 0.0000 16.9265
#
#
#
# Elastic Compliance Matrix: (Units=1/GPa)
#
#
# Indices 1 2 3 4 5 6 
#
# 1 0.020371 -0.009168 -0.001674 0.000000 0.000000 0.000000
# 2 -0.009168 0.020371 -0.001674 0.000000 0.000000 0.000000
# 3 -0.001674 -0.001674 0.007190 0.000000 0.000000 0.000000
# 4 0.000000 0.000000 0.000000 0.100486 0.000000 0.000000
# 5 0.000000 0.000000 0.000000 0.000000 0.100486 0.000000
# 6 0.000000 0.000000 0.000000 0.000000 0.000000 0.059079
#
#
# Mechanical properties :
#
#
# Convention : Reuss Voigt Hill
#
# Bulk Modulus (GPa) = 43.67042 47.85849 45.76445
# Shear Modulus (GPa) = 14.67782 20.93584 17.80683
#
# Velocity S-wave (km/s) = 2.92983 3.49911 3.22705
# Velocity P-wave (km/s) = 6.08150 6.65686 6.37567
#
# Compressibility (1/GPa) = 0.02289880
#
# Stress axis : x y z
#
# Youngs Moduli (GPa) = 49.08870 49.08870 139.07631
#
# Poissons Ratio (x) = 0.45006 0.23287
# Poissons Ratio (y) = 0.45006 0.23287
# Poissons Ratio (z) = 0.08219 0.08219
#
# Static dielectric constant tensor:
#      x y z
#    x 1.590060 0.000000 0.000000 
#    y 0.000000 1.590060 0.000000 
#    z 0.000000 0.000000 1.553820 
# 
# From -- ./inp_files/5165.got.cif
#   From: 2010.05.17/outbox.cif.g08.bks.cpg/sg182_3_cif.got.tgz:5165.got - 2010.05.20 11:58:53.
