data_PCOD9584507
_publ_section_title
;
Structure prediction by ZEFSAII (Michael W. Deem and Ramdas Pophale) SiO2 
 PCOD9584507
Probable space group: P 64 2 2
;
_chemical_formula_sum "Si O2"
_cell_formula_units_Z 69
_cell_length_a 15.276066
_cell_length_b 15.276066
_cell_length_c 15.871627
_cell_angle_alpha 90.000000
_cell_angle_beta 90.000000
_cell_angle_gamma 120.000000
_cell_volume 3207.562536
_symmetry_space_group_name_H-M "P 64 2 2"
_symmetry_group_IT_number 181
_symmetry_cell_setting 'hexagonal'
loop_
_space_group_symop_operation_xyz
x,y,z
x-y,x,2/3+z
-y,x-y,1/3+z
-x,-y,z
-x+y,-x,2/3+z
y,-x+y,1/3+z
x-y,-y,-z
-x,-x+y,2/3-z
y,x,1/3-z
-y,-x,1/3-z
-x+y,y,-z
x,x-y,2/3-z
loop_
_atom_site_type_symbol
_atom_site_label
_atom_site_fract_x
_atom_site_fract_y
_atom_site_fract_z
Si Si1 0.790574 0.843353 0.075784
Si Si2 0.645402 0.354599 0.666667
Si Si3 0.567420 0.134628 0.599292
Si Si4 0.654143 0.632448 0.991186
Si Si5 0.000000 0.000000 0.333334
Si Si6 0.262115 0.524230 0.500000
Si Si7 0.273589 0.273589 0.666667
Si Si8 0.382322 0.419621 0.514995
O O1 0.796287 0.796287 0.166667
O O2 0.736725 0.744496 0.016796
O O3 0.905655 0.924900 0.055903
O O4 0.740166 0.912581 0.047893
O O5 0.598992 0.245959 0.625252
O O6 0.666958 0.421005 0.581649
O O7 0.559629 0.119258 0.500000
O O8 0.457518 0.061955 0.640513
O O9 0.657648 0.117252 0.631358
O O10 0.652116 0.615983 0.891418
O O11 0.316803 0.463443 0.470845
O O12 0.317242 0.359350 0.595170
O O13 0.500000 0.500000 0.534134
#
# Coordination Sequence:
#
# PCOD9584507 Si02
#       8
#    12   6  12  12   3   6   6  12
#     4  11  25  48  72 107 140 187 242 311 378 450
#     4  12  24  41  65  98 140 185 229 288 360 428
#     4  11  22  42  65 101 137 179 236 291 351 441
#     4  11  22  44  71  97 137 186 231 295 368 429
#     4  10  26  46  74 102 142 178 244 314 384 444
#     4  12  26  44  68 101 139 192 236 300 366 436
#     4  11  29  45  75 108 140 198 247 303 379 455
#     4  12  25  48  71 103 149 188 250 302 366 452
#
# _framework density 21.511662000000001
#
# number of rings (size 3 to 8) (size 9 to 14) (size 15 to 20)
#    0.000    0.696    4.348    3.652    4.870    0.696 
#    6.261    0.000    0.000    0.000    0.000    0.000 
#    0.000    0.000    0.000    0.000    0.000    0.000 
#
# Total GULP energy -384233.036558 kJ/mol
# GULP energy per Si atom -5568.594733 kJ/mol
# Density = 2.146270 g / cm^3
# Si number density = 21.511662 Si / 1000 Ang^3
#
#
#
# Elastic Constant Matrix: (Units=GPa)
#
#
# Indices 1 2 3 4 5 6 
#
# 1 58.0537 31.9644 23.3134 0.0000 0.0000 0.0000
# 2 31.9644 58.0537 23.3134 0.0000 0.0000 0.0000
# 3 23.3134 23.3134 149.3195 0.0000 0.0000 0.0000
# 4 0.0000 0.0000 0.0000 22.6967 0.0000 0.0000
# 5 0.0000 0.0000 0.0000 0.0000 22.6967 0.0000
# 6 0.0000 0.0000 0.0000 0.0000 0.0000 13.0446
#
#
#
# Elastic Compliance Matrix: (Units=1/GPa)
#
#
# Indices 1 2 3 4 5 6 
#
# 1 0.025208 -0.013122 -0.001887 0.000000 0.000000 0.000000
# 2 -0.013122 0.025208 -0.001887 0.000000 0.000000 0.000000
# 3 -0.001887 -0.001887 0.007286 0.000000 0.000000 0.000000
# 4 0.000000 0.000000 0.000000 0.044059 0.000000 0.000000
# 5 0.000000 0.000000 0.000000 0.000000 0.044059 0.000000
# 6 0.000000 0.000000 0.000000 0.000000 0.000000 0.076660
#
#
# Mechanical properties :
#
#
# Convention : Reuss Voigt Hill
#
# Bulk Modulus (GPa) = 41.82225 46.95662 44.38943
# Shear Modulus (GPa) = 18.92199 24.14332 21.53265
#
# Velocity S-wave (km/s) = 2.96905 3.35376 3.16725
# Velocity P-wave (km/s) = 5.58905 6.07230 5.83568
#
# Compressibility (1/GPa) = 0.02391072
#
# Stress axis : x y z
#
# Youngs Moduli (GPa) = 39.66978 39.66978 137.24379
#
# Poissons Ratio (x) = 0.52054 0.25899
# Poissons Ratio (y) = 0.52054 0.25899
# Poissons Ratio (z) = 0.07486 0.07486
#
# Static dielectric constant tensor:
#      x y z
#    x 1.825390 0.000000 0.000000 
#    y 0.000000 1.825390 0.000000 
#    z 0.000000 0.000000 1.884950 
# 
# From -- ./inp_files/7849.got.cif
#   From: 2010.05.17/outbox.cif.g08.bks.cpg/sg181_4_cif.got.tgz:7849.got - 2010.05.20 11:51:17.
