data_PCOD9584813
_publ_section_title
;
Structure prediction by ZEFSAII (Michael W. Deem and Ramdas Pophale) SiO2 
 PCOD9584813
Probable space group: P 63 2 2
;
_chemical_formula_sum "Si O2"
_cell_formula_units_Z 30
_cell_length_a 8.551019
_cell_length_b 8.551019
_cell_length_c 21.167008
_cell_angle_alpha 90.000000
_cell_angle_beta 90.000000
_cell_angle_gamma 120.000000
_cell_volume 1340.373548
_symmetry_space_group_name_H-M "P 63 2 2"
_symmetry_group_IT_number 182
_symmetry_cell_setting 'hexagonal'
loop_
_space_group_symop_operation_xyz
x,y,z
x-y,x,1/2+z
-y,x-y,z
-x,-y,1/2+z
-x+y,-x,z
y,-x+y,1/2+z
x-y,-y,-z
-x,-x+y,-z
y,x,-z
-y,-x,1/2-z
-x+y,y,1/2-z
x,x-y,1/2-z
loop_
_atom_site_type_symbol
_atom_site_label
_atom_site_fract_x
_atom_site_fract_y
_atom_site_fract_z
Si Si1 0.024074 0.335045 0.622906
Si Si2 0.333333 0.666666 0.545122
Si Si3 0.000000 0.000000 0.073467
Si Si4 0.570192 0.785096 0.750000
Si Si5 0.666668 0.333335 0.891524
O O1 0.170571 0.482580 0.575003
O O2 0.933944 0.135594 0.595088
O O3 0.129473 0.328763 0.685558
O O4 0.863449 0.377932 0.632151
O O5 0.333334 0.666667 0.468973
O O6 0.000000 0.000000 0.000000
O O7 0.430050 0.860099 0.750000
#
# Coordination Sequence:
#
# PCOD9584813 Si02
#       5
#    12   4   4   6   4
#     4  12  25  46  73 108 146 194 240 296 364 422
#     4  12  21  46  73 103 154 192 232 299 364 423
#     4  12  27  46  71 109 150 189 244 296 358 432
#     4  10  22  48  72  94 140 182 232 294 356 418
#     4  12  27  42  74 113 141 189 247 293 355 444
#
# _framework density 22.381822
#
# number of rings (size 3 to 8) (size 9 to 14) (size 15 to 20)
#    0.400    0.000    4.000    6.000    0.000    1.600 
#    0.000    0.000    0.000    0.000    0.000    0.000 
#    0.000    0.000    0.000    0.000    0.000    0.000 
#
# Total GULP energy -167575.066899 kJ/mol
# GULP energy per Si atom -5585.835563 kJ/mol
# Density = 2.233088 g / cm^3
# Si number density = 22.381822 Si / 1000 Ang^3
#
#
#
# Elastic Constant Matrix: (Units=GPa)
#
#
# Indices 1 2 3 4 5 6 
#
# 1 134.7893 -38.6964 33.2461 0.0008 0.0016 -0.0013
# 2 -38.6964 134.7878 33.2469 -0.0005 -0.0016 0.0018
# 3 33.2461 33.2469 151.4141 -0.0006 -0.0001 -0.0004
# 4 0.0008 -0.0005 -0.0006 55.8318 -0.0004 0.0016
# 5 0.0016 -0.0016 -0.0001 -0.0004 55.8319 -0.0007
# 6 -0.0013 0.0018 -0.0004 0.0016 -0.0007 86.7434
#
#
#
# Elastic Compliance Matrix: (Units=1/GPa)
#
#
# Indices 1 2 3 4 5 6 
#
# 1 0.009018 0.003253 -0.002694 0.000000 0.000000 0.000000
# 2 0.003253 0.009018 -0.002694 0.000000 0.000000 0.000000
# 3 -0.002694 -0.002694 0.007788 0.000000 0.000000 0.000000
# 4 0.000000 0.000000 0.000000 0.017911 0.000000 0.000000
# 5 0.000000 0.000000 0.000000 0.000000 0.017911 0.000000
# 6 0.000000 0.000000 0.000000 0.000000 0.000000 0.011528
#
#
# Mechanical properties :
#
#
# Convention : Reuss Voigt Hill
#
# Bulk Modulus (GPa) = 46.39887 52.95384 49.67635
# Shear Modulus (GPa) = 59.08220 65.89440 62.48830
#
# Velocity S-wave (km/s) = 5.14341 5.43185 5.28960
# Velocity P-wave (km/s) = 7.48656 7.94044 7.71684
#
# Compressibility (1/GPa) = 0.02155225
#
# Stress axis : x y z
#
# Youngs Moduli (GPa) = 110.89433 110.89274 128.40844
#
# Poissons Ratio (x) = -0.36079 0.34598
# Poissons Ratio (y) = -0.36079 0.34599
# Poissons Ratio (z) = 0.29879 0.29879
#
# Static dielectric constant tensor:
#      x y z
#    x 1.742410 0.000000 0.000010 
#    y 0.000000 1.742410 -0.000010 
#    z 0.000010 -0.000010 0.381440 
# 
# From -- ./inp_files/5094.got.cif
#   From: 2010.05.17/outbox.cif.g08.bks.cpg/sg182_3_cif.got.tgz:5094.got - 2010.05.20 11:58:53.
