data_PCOD9584892
_publ_section_title
;
Structure prediction by ZEFSAII (Michael W. Deem and Ramdas Pophale) SiO2 
 PCOD9584892
Probable space group: P 63 2 2
;
_chemical_formula_sum "Si O2"
_cell_formula_units_Z 40
_cell_length_a 11.255111
_cell_length_b 11.255111
_cell_length_c 15.677816
_cell_angle_alpha 90.000000
_cell_angle_beta 90.000000
_cell_angle_gamma 120.000000
_cell_volume 1719.949754
_symmetry_space_group_name_H-M "P 63 2 2"
_symmetry_group_IT_number 182
_symmetry_cell_setting 'hexagonal'
loop_
_space_group_symop_operation_xyz
x,y,z
x-y,x,1/2+z
-y,x-y,z
-x,-y,1/2+z
-x+y,-x,z
y,-x+y,1/2+z
x-y,-y,-z
-x,-x+y,-z
y,x,-z
-y,-x,1/2-z
-x+y,y,1/2-z
x,x-y,1/2-z
loop_
_atom_site_type_symbol
_atom_site_label
_atom_site_fract_x
_atom_site_fract_y
_atom_site_fract_z
Si Si1 0.130655 0.739530 0.843906
Si Si2 0.044527 0.590122 0.590766
Si Si3 0.000000 0.000000 0.398151
Si Si4 0.158373 0.295964 0.348725
O O1 0.186585 0.813416 0.750000
O O2 0.253431 0.829657 0.909282
O O3 0.096532 0.582494 0.846036
O O4 0.984671 0.717470 0.876713
O O5 0.000000 0.515870 0.500000
O O6 0.912972 0.604363 0.616083
O O7 0.015356 0.874894 0.363228
O O8 0.000000 0.000000 0.500000
O O9 0.163887 0.327775 0.250000
#
# Coordination Sequence:
#
# PCOD9584892 Si02
#       4
#    12  12   4  12
#     4  12  26  51  79 106 157 214 266 323 408 492
#     4  12  29  47  77 116 156 208 266 335 397 472
#     4  12  22  38  70 105 145 179 253 333 376 449
#     4  12  24  45  75 108 145 196 265 325 385 474
#
# _framework density 23.256492999999999
#
# number of rings (size 3 to 8) (size 9 to 14) (size 15 to 20)
#    0.000    0.000    6.000    3.300    4.200    0.000 
#    1.800    0.000    0.000    0.000    0.000    0.000 
#    0.000    0.000    0.000    0.000    0.000    0.000 
#
# Total GULP energy -223254.914697 kJ/mol
# GULP energy per Si atom -5581.372867 kJ/mol
# Density = 2.320356 g / cm^3
# Si number density = 23.256493 Si / 1000 Ang^3
#
#
#
# Elastic Constant Matrix: (Units=GPa)
#
#
# Indices 1 2 3 4 5 6 
#
# 1 125.7137 46.0892 24.1828 0.0000 0.0000 0.0000
# 2 46.0892 125.7137 24.1828 0.0000 0.0000 0.0000
# 3 24.1828 24.1828 98.7844 0.0000 0.0000 0.0000
# 4 0.0000 0.0000 0.0000 -16.8821 0.0000 0.0000
# 5 0.0000 0.0000 0.0000 0.0000 -16.8821 0.0000
# 6 0.0000 0.0000 0.0000 0.0000 0.0000 39.8122
#
#
#
# Elastic Compliance Matrix: (Units=1/GPa)
#
#
# Indices 1 2 3 4 5 6 
#
# 1 0.009405 -0.003154 -0.001530 0.000000 0.000000 0.000000
# 2 -0.003154 0.009405 -0.001530 0.000000 0.000000 0.000000
# 3 -0.001530 -0.001530 0.010872 0.000000 0.000000 0.000000
# 4 0.000000 0.000000 0.000000 -0.059234 0.000000 0.000000
# 5 0.000000 0.000000 0.000000 0.000000 -0.059234 0.000000
# 6 0.000000 0.000000 0.000000 0.000000 0.000000 0.025118
#
#
# Mechanical properties :
#
#
# Convention : Reuss Voigt Hill
#
# Bulk Modulus (GPa) = 57.95846 59.90235 58.93040
# Shear Modulus (GPa) = -109.91903 18.26009 -45.82947
#
# Velocity S-wave (km/s) = -6.88233 2.80511 -4.44397
# Velocity P-wave (km/s) = 6.17897 6.02534 0.96824
#
# Compressibility (1/GPa) = 0.01725374
#
# Stress axis : x y z
#
# Youngs Moduli (GPa) = 106.32414 106.32414 91.97654
#
# Poissons Ratio (x) = 0.33532 0.14076
# Poissons Ratio (y) = 0.33532 0.14076
# Poissons Ratio (z) = 0.16272 0.16272
#
# Static dielectric constant tensor:
#      x y z
#    x 2.118970 0.000000 0.000000 
#    y 0.000000 2.118970 0.000000 
#    z 0.000000 0.000000 1.895580 
# 
# From -- ./inp_files/4031.got.cif
#   From: 2010.05.17/outbox.cif.g08.bks.cpg/sg182_3_cif.got.tgz:4031.got - 2010.05.20 11:58:53.
