data_PCOD9584334
_publ_section_title
;
Structure prediction by ZEFSAII (Michael W. Deem and Ramdas Pophale) SiO2 
 PCOD9584334
Probable space group: P 64 2 2
;
_chemical_formula_sum "Si O2"
_cell_formula_units_Z 63
_cell_length_a 19.916007
_cell_length_b 19.916007
_cell_length_c 8.770785
_cell_angle_alpha 90.000000
_cell_angle_beta 90.000000
_cell_angle_gamma 120.000000
_cell_volume 3012.823134
_symmetry_space_group_name_H-M "P 64 2 2"
_symmetry_group_IT_number 181
_symmetry_cell_setting 'hexagonal'
loop_
_space_group_symop_operation_xyz
x,y,z
x-y,x,2/3+z
-y,x-y,1/3+z
-x,-y,z
-x+y,-x,2/3+z
y,-x+y,1/3+z
x-y,-y,-z
-x,-x+y,2/3-z
y,x,1/3-z
-y,-x,1/3-z
-x+y,y,-z
x,x-y,2/3-z
loop_
_atom_site_type_symbol
_atom_site_label
_atom_site_fract_x
_atom_site_fract_y
_atom_site_fract_z
Si Si1 0.528942 0.643264 0.455205
Si Si2 0.412433 0.587568 0.166667
Si Si3 0.000000 0.500000 0.333334
Si Si4 0.503997 0.261919 0.013684
Si Si5 0.264750 0.285049 0.841339
Si Si6 0.132072 0.264144 0.000000
Si Si7 0.917500 0.644788 0.766875
O O1 0.483042 0.610856 0.292402
O O2 0.517131 0.571254 0.556951
O O3 0.498173 0.691770 0.551617
O O4 0.622836 0.701673 0.453117
O O5 0.423915 0.656609 0.056604
O O6 0.435923 0.277973 0.069335
O O7 0.497329 0.248665 0.833334
O O8 0.277220 0.277220 0.666667
O O9 0.175781 0.232243 0.895325
O O10 0.315002 0.258574 0.937402
O O11 0.199703 0.309787 0.123392
O O12 0.000000 0.657508 0.833334
#
# Coordination Sequence:
#
# PCOD9584334 Si02
#       7
#    12   6   3  12  12   6  12
#     4  12  26  48  69  98 134 176 231 305 362 439
#     4  12  28  45  72  96 128 178 234 298 362 442
#     4  12  28  50  68 102 136 170 236 294 352 434
#     4  12  26  49  70  97 131 179 232 296 369 439
#     4  11  22  40  69 100 134 182 231 289 360 435
#     4  10  20  38  58  93 140 172 225 272 338 433
#     4  10  22  38  65  99 130 176 223 274 352 427
#
# _framework density 20.910617999999999
#
# number of rings (size 3 to 8) (size 9 to 14) (size 15 to 20)
#    0.000    0.762    2.857    5.143    2.667    0.381 
#   10.286    0.000    0.000    0.000    0.000    0.000 
#    0.000    0.000    0.000  347.143   41.143    0.000 
#
# Total GULP energy -350877.507796 kJ/mol
# GULP energy per Si atom -5569.484251 kJ/mol
# Density = 2.086302 g / cm^3
# Si number density = 20.910618 Si / 1000 Ang^3
#
#
#
# Elastic Constant Matrix: (Units=GPa)
#
#
# Indices 1 2 3 4 5 6 
#
# 1 70.5737 24.8520 33.4689 0.0000 0.0000 0.0000
# 2 24.8520 70.5737 33.4689 0.0000 0.0000 0.0000
# 3 33.4689 33.4689 171.9270 0.0000 0.0000 0.0000
# 4 0.0000 0.0000 0.0000 67.3032 0.0000 0.0000
# 5 0.0000 0.0000 0.0000 0.0000 67.3032 0.0000
# 6 0.0000 0.0000 0.0000 0.0000 0.0000 22.8608
#
#
#
# Elastic Compliance Matrix: (Units=1/GPa)
#
#
# Indices 1 2 3 4 5 6 
#
# 1 0.017004 -0.004867 -0.002363 0.000000 0.000000 0.000000
# 2 -0.004867 0.017004 -0.002363 0.000000 0.000000 0.000000
# 3 -0.002363 -0.002363 0.006736 0.000000 0.000000 0.000000
# 4 0.000000 0.000000 0.000000 0.014858 0.000000 0.000000
# 5 0.000000 0.000000 0.000000 0.000000 0.014858 0.000000
# 6 0.000000 0.000000 0.000000 0.000000 0.000000 0.043743
#
#
# Mechanical properties :
#
#
# Convention : Reuss Voigt Hill
#
# Bulk Modulus (GPa) = 46.38417 55.18376 50.78397
# Shear Modulus (GPa) = 35.56812 46.24575 40.90694
#
# Velocity S-wave (km/s) = 4.12874 4.70786 4.42778
# Velocity P-wave (km/s) = 6.70515 7.48328 7.10487
#
# Compressibility (1/GPa) = 0.02155908
#
# Stress axis : x y z
#
# Youngs Moduli (GPa) = 58.80947 58.80947 148.44977
#
# Poissons Ratio (x) = 0.28625 0.35073
# Poissons Ratio (y) = 0.28625 0.35073
# Poissons Ratio (z) = 0.13895 0.13895
#
# Static dielectric constant tensor:
#      x y z
#    x 1.802970 0.000000 0.000000 
#    y 0.000000 1.802970 0.000000 
#    z 0.000000 0.000000 1.777930 
# 
# From -- ./inp_files/3145.got.cif
#   From: 2010.05.17/outbox.cif.g08.bks.cpg/sg181_2_cif.got.tgz:3145.got - 2010.05.20 11:51:17.
