data_PCOD9584906
_publ_section_title
;
Structure prediction by ZEFSAII (Michael W. Deem and Ramdas Pophale) SiO2 
 PCOD9584906
Probable space group: P 63 2 2
;
_chemical_formula_sum "Si O2"
_cell_formula_units_Z 60
_cell_length_a 15.000000
_cell_length_b 15.000000
_cell_length_c 15.000000
_cell_angle_alpha 90.000000
_cell_angle_beta 90.000000
_cell_angle_gamma 120.000000
_cell_volume 2922.835738
_symmetry_space_group_name_H-M "P 63 2 2"
_symmetry_group_IT_number 182
_symmetry_cell_setting 'hexagonal'
loop_
_space_group_symop_operation_xyz
x,y,z
x-y,x,1/2+z
-y,x-y,z
-x,-y,1/2+z
-x+y,-x,z
y,-x+y,1/2+z
x-y,-y,-z
-x,-x+y,-z
y,x,-z
-y,-x,1/2-z
-x+y,y,1/2-z
x,x-y,1/2-z
loop_
_atom_site_type_symbol
_atom_site_label
_atom_site_fract_x
_atom_site_fract_y
_atom_site_fract_z
Si Si1 0.582020 0.718745 0.329071
Si Si2 0.054766 0.716222 0.590489
Si Si3 0.046214 0.536453 0.846917
Si Si4 0.881587 0.273166 0.474194
Si Si5 0.801437 0.797693 0.749277
O O1 0.556795 0.778398 0.250000
O O2 0.530067 0.594101 0.326553
O O3 0.564716 0.740716 0.430917
O O4 0.704780 0.759410 0.320640
O O5 0.044758 0.606692 0.610931
O O6 0.170525 0.811586 0.581983
O O7 0.989270 0.735078 0.663246
O O8 0.000000 0.709728 0.500000
O O9 0.096962 0.548481 0.750000
O O10 0.103575 0.630885 0.914961
O O11 0.000000 0.305900 0.500000
O O12 0.774506 0.887253 0.750000
O O13 0.922947 0.845893 0.750000
#
# Coordination Sequence:
#
# PCOD9584906 Si02
#       5
#    12  12  12  12  12
#     4  10  20  41  66  93 131 181 228 285 347 420
#     4  12  24  40  70  98 129 180 231 277 354 422
#     4  11  23  42  68  98 135 178 232 293 355 432
#     4  10  23  43  66  98 139 178 232 293 349 432
#     4  11  22  38  63  94 132 174 218 270 339 411
#
# _framework density 20.528009999999998
#
# number of rings (size 3 to 8) (size 9 to 14) (size 15 to 20)
#    0.000    1.200    2.000    6.800    0.000    0.000 
#    1.200    0.000    0.000    2.000    0.000    0.000 
#    0.000    0.000    0.000    0.000    0.000    0.000 
#
# Total GULP energy -334242.767729 kJ/mol
# GULP energy per Si atom -5570.712795 kJ/mol
# Density = 2.048129 g / cm^3
# Si number density = 20.528010 Si / 1000 Ang^3
#
#
#
# Elastic Constant Matrix: (Units=GPa)
#
#
# Indices 1 2 3 4 5 6 
#
# 1 95.7156 36.6431 34.0952 0.0000 0.0000 0.0000
# 2 36.6431 95.7156 34.0952 0.0000 0.0000 0.0000
# 3 34.0952 34.0952 149.3483 0.0000 0.0000 0.0000
# 4 0.0000 0.0000 0.0000 36.6379 0.0000 0.0000
# 5 0.0000 0.0000 0.0000 0.0000 36.6379 0.0000
# 6 0.0000 0.0000 0.0000 0.0000 0.0000 29.5363
#
#
#
# Elastic Compliance Matrix: (Units=1/GPa)
#
#
# Indices 1 2 3 4 5 6 
#
# 1 0.012745 -0.004183 -0.001955 0.000000 0.000000 0.000000
# 2 -0.004183 0.012745 -0.001955 0.000000 0.000000 0.000000
# 3 -0.001955 -0.001955 0.007588 0.000000 0.000000 0.000000
# 4 0.000000 0.000000 0.000000 0.027294 0.000000 0.000000
# 5 0.000000 0.000000 0.000000 0.000000 0.027294 0.000000
# 6 0.000000 0.000000 0.000000 0.000000 0.000000 0.033857
#
#
# Mechanical properties :
#
#
# Convention : Reuss Voigt Hill
#
# Bulk Modulus (GPa) = 59.19271 61.16072 60.17672
# Shear Modulus (GPa) = 34.88207 36.29214 35.58711
#
# Velocity S-wave (km/s) = 4.12666 4.20924 4.16815
# Velocity P-wave (km/s) = 7.18355 7.31314 7.24864
#
# Compressibility (1/GPa) = 0.01689397
#
# Stress axis : x y z
#
# Youngs Moduli (GPa) = 78.46025 78.46025 131.78264
#
# Poissons Ratio (x) = 0.32820 0.25760
# Poissons Ratio (y) = 0.32820 0.25760
# Poissons Ratio (z) = 0.15337 0.15337
#
# Static dielectric constant tensor:
#      x y z
#    x 1.766620 0.000000 0.000000 
#    y 0.000000 1.766620 0.000000 
#    z 0.000000 0.000000 1.603490 
# 
# From -- ./inp_files/3423.got.cif
#   From: 2010.05.17/outbox.ucp.g08.bks.cvg/sg182_2_cif.got.tgz:3423.got - 2010.06.11 15:20:57.
