data_PCOD9584971
_publ_section_title
;
Structure prediction by ZEFSAII (Michael W. Deem and Ramdas Pophale) SiO2 
 PCOD9584971
Probable space group: P 6 M M
;
_chemical_formula_sum "Si O2"
_cell_formula_units_Z 96
_cell_length_a 18.693708
_cell_length_b 18.693708
_cell_length_c 20.575333
_cell_angle_alpha 90.000000
_cell_angle_beta 90.000000
_cell_angle_gamma 120.000000
_cell_volume 6226.850139
_symmetry_space_group_name_H-M "P 6 M M"
_symmetry_group_IT_number 183
_symmetry_cell_setting 'hexagonal'
loop_
_space_group_symop_operation_xyz
x,y,z
x-y,x,z
-y,x-y,z
-x,-y,z
-x+y,-x,z
y,-x+y,z
-x+y,y,z
x,x-y,z
-y,-x,z
y,x,z
x-y,-y,z
-x,-x+y,z
loop_
_atom_site_type_symbol
_atom_site_label
_atom_site_fract_x
_atom_site_fract_y
_atom_site_fract_z
Si Si1 0.743920 0.092236 0.550640
Si Si2 0.905265 0.365903 0.164048
Si Si3 0.737110 0.097271 0.903007
Si Si4 0.742659 0.093320 0.398620
Si Si5 0.499901 0.331628 0.301829
Si Si6 0.834663 0.500871 0.796781
Si Si7 0.632131 0.100247 0.021100
Si Si8 0.334253 0.834691 0.644437
O O1 0.837560 0.162441 0.563550
O O2 0.726006 0.100104 0.474874
O O3 0.686939 0.110424 0.597821
O O4 0.725156 0.000000 0.560684
O O5 0.907427 0.453714 0.162363
O O6 0.856039 0.321443 0.228460
O O7 0.871545 0.329195 0.092889
O O8 0.000000 0.388107 0.170586
O O9 0.834592 0.165409 0.899868
O O10 0.692720 0.112340 0.841256
O O11 0.708947 0.000000 0.906702
O O12 0.697637 0.119132 0.964814
O O13 0.837140 0.162861 0.385968
O O14 0.686951 0.115121 0.352887
O O15 0.720384 0.000000 0.386750
O O16 0.526668 0.263334 0.312915
O O17 0.577046 0.422955 0.308570
O O18 0.739188 0.478376 0.804167
O O19 0.844408 0.422204 0.814422
O O20 0.856207 0.519838 0.720611
O O21 0.564326 0.128652 0.007995
O O22 0.578505 0.000000 0.024937
O O23 0.420359 0.840718 0.627982
O O24 0.259242 0.740759 0.636964
#
# Coordination Sequence:
#
# PCOD9584971 Si02
#       8
#    12  12  12  12  12  12  12  12
#     4   9  18  32  48  66  88 113 142 177 219 263
#     4   8  14  25  41  60  82 110 144 180 216 253
#     4  10  20  32  46  64  86 113 145 182 222 262
#     4   9  18  32  49  67  86 110 140 176 219 266
#     4  10  19  29  41  59  86 120 156 190 219 245
#     4   9  17  29  46  68  94 122 149 176 208 249
#     4   8  14  26  44  65  88 112 138 170 211 259
#     4   9  17  29  45  66  93 124 154 181 209 243
#
# _framework density 15.417104
#
# number of rings (size 3 to 8) (size 9 to 14) (size 15 to 20)
#    0.000    3.000    0.000    1.875    0.000    4.250 
#    0.000    2.500    0.000    2.125    0.000    1.750 
#    0.000    0.000    0.000    6.250    0.000   19.500 
#
# Total GULP energy -534482.188156 kJ/mol
# GULP energy per Si atom -5567.522793 kJ/mol
# Density = 1.538201 g / cm^3
# Si number density = 15.417104 Si / 1000 Ang^3
#
#
#
# Elastic Constant Matrix: (Units=GPa)
#
#
# Indices 1 2 3 4 5 6 
#
# 1 68.8161 53.5307 44.5059 0.0000 0.0000 0.0000
# 2 53.5307 68.8161 44.5059 0.0000 0.0000 0.0000
# 3 44.5059 44.5059 61.8840 0.0000 0.0000 0.0000
# 4 0.0000 0.0000 0.0000 18.9282 0.0000 0.0000
# 5 0.0000 0.0000 0.0000 0.0000 18.9282 0.0000
# 6 0.0000 0.0000 0.0000 0.0000 0.0000 7.6427
#
#
#
# Elastic Compliance Matrix: (Units=1/GPa)
#
#
# Indices 1 2 3 4 5 6 
#
# 1 0.041283 -0.024139 -0.012329 0.000000 0.000000 0.000000
# 2 -0.024139 0.041283 -0.012329 0.000000 0.000000 0.000000
# 3 -0.012329 -0.012329 0.033893 0.000000 0.000000 0.000000
# 4 0.000000 0.000000 0.000000 0.052831 0.000000 0.000000
# 5 0.000000 0.000000 0.000000 0.000000 0.052831 0.000000
# 6 0.000000 0.000000 0.000000 0.000000 0.000000 0.130844
#
#
# Mechanical properties :
#
#
# Convention : Reuss Voigt Hill
#
# Bulk Modulus (GPa) = 53.01360 53.84458 53.42909
# Shear Modulus (GPa) = 10.94452 12.89803 11.92128
#
# Velocity S-wave (km/s) = 2.66728 2.89555 2.78375
# Velocity P-wave (km/s) = 6.62923 6.79559 6.71292
#
# Compressibility (1/GPa) = 0.01886308
#
# Stress axis : x y z
#
# Youngs Moduli (GPa) = 24.22314 24.22314 29.50427
#
# Poissons Ratio (x) = 0.58473 0.36377
# Poissons Ratio (y) = 0.58473 0.36377
# Poissons Ratio (z) = 0.29866 0.29866
#
# Static dielectric constant tensor:
#      x y z
#    x 1.501560 0.000000 0.000000 
#    y 0.000000 1.501560 0.000000 
#    z 0.000000 0.000000 1.535950 
# 
# From -- ./inp_files/3087.got.cif
#   From: 2010.05.17/outbox.cif.g08.bks.cpg/sg183_2_cif.got.tgz:3087.got - 2010.05.20 12:02:58.
