data_PCOD9584139
_publ_section_title
;
Structure prediction by ZEFSAII (Michael W. Deem and Ramdas Pophale) SiO2 
 PCOD9584139
Probable space group: P 62 2 2
;
_chemical_formula_sum "Si O2"
_cell_formula_units_Z 42
_cell_length_a 19.673711
_cell_length_b 19.673711
_cell_length_c 5.428561
_cell_angle_alpha 90.000000
_cell_angle_beta 90.000000
_cell_angle_gamma 120.000000
_cell_volume 1819.650281
_symmetry_space_group_name_H-M "P 62 2 2"
_symmetry_group_IT_number 180
_symmetry_cell_setting 'hexagonal'
loop_
_space_group_symop_operation_xyz
x,y,z
x-y,x,1/3+z
-y,x-y,2/3+z
-x,-y,z
-x+y,-x,1/3+z
y,-x+y,2/3+z
x-y,-y,-z
-x,-x+y,1/3-z
y,x,2/3-z
-y,-x,2/3-z
-x+y,y,-z
x,x-y,1/3-z
loop_
_atom_site_type_symbol
_atom_site_label
_atom_site_fract_x
_atom_site_fract_y
_atom_site_fract_z
Si Si1 0.709784 0.419568 0.000000
Si Si2 0.868795 0.868795 0.833334
Si Si3 0.414911 0.585090 0.333334
Si Si4 0.566292 0.952573 0.259108
Si Si5 0.289605 0.219228 0.129082
O O1 0.728363 0.364182 0.166667
O O2 0.670176 0.450877 0.196142
O O3 0.886350 0.943175 0.666667
O O4 0.840763 0.787441 0.691818
O O5 0.400659 0.519526 0.534716
O O6 0.636396 0.933908 0.307509
O O7 0.569572 0.000000 0.500000
O O8 0.587765 0.000000 0.000000
O O9 0.252138 0.252138 0.333334
O O10 0.325660 0.162830 0.166667
#
# Coordination Sequence:
#
# PCOD9584139 Si02
#       5
#     6   6   6  12  12
#     4   9  22  44  73 110 151 206 260 322 404 482
#     4  12  24  44  79 106 157 198 266 334 406 487
#     4  11  25  48  81 114 168 206 272 344 413 494
#     4  11  27  48  78 114 156 210 267 325 408 483
#     4  11  23  44  71 108 149 200 257 327 391 477
#
# _framework density 23.081361000000001
#
# number of rings (size 3 to 8) (size 9 to 14) (size 15 to 20)
#    0.000    1.143    4.286    0.429    4.000    4.571 
#    0.000    3.571    6.286    0.000    0.000    0.000 
#    0.000    0.000    0.000    0.000    0.000    0.000 
#
# Total GULP energy -233924.945631 kJ/mol
# GULP energy per Si atom -5569.641563 kJ/mol
# Density = 2.302883 g / cm^3
# Si number density = 23.081361 Si / 1000 Ang^3
#
#
#
# Elastic Constant Matrix: (Units=GPa)
#
#
# Indices 1 2 3 4 5 6 
#
# 1 148.4750 86.1003 65.0982 0.0000 0.0000 0.0000
# 2 86.1003 148.4750 65.0982 0.0000 0.0000 0.0000
# 3 65.0982 65.0982 126.1236 0.0000 0.0000 0.0000
# 4 0.0000 0.0000 0.0000 32.9031 0.0000 0.0000
# 5 0.0000 0.0000 0.0000 0.0000 32.9031 0.0000
# 6 0.0000 0.0000 0.0000 0.0000 0.0000 31.1873
#
#
#
# Elastic Compliance Matrix: (Units=1/GPa)
#
#
# Indices 1 2 3 4 5 6 
#
# 1 0.011003 -0.005029 -0.003084 0.000000 0.000000 0.000000
# 2 -0.005029 0.011003 -0.003084 0.000000 0.000000 0.000000
# 3 -0.003084 -0.003084 0.011112 0.000000 0.000000 0.000000
# 4 0.000000 0.000000 0.000000 0.030392 0.000000 0.000000
# 5 0.000000 0.000000 0.000000 0.000000 0.030392 0.000000
# 6 0.000000 0.000000 0.000000 0.000000 0.000000 0.032064
#
#
# Mechanical properties :
#
#
# Convention : Reuss Voigt Hill
#
# Bulk Modulus (GPa) = 93.22948 95.07408 94.15178
# Shear Modulus (GPa) = 32.90867 33.18385 33.04626
#
# Velocity S-wave (km/s) = 3.78003 3.79580 3.78792
# Velocity P-wave (km/s) = 7.71563 7.77760 7.74668
#
# Compressibility (1/GPa) = 0.01072622
#
# Stress axis : x y z
#
# Youngs Moduli (GPa) = 90.88120 90.88120 89.99214
#
# Poissons Ratio (x) = 0.45702 0.27751
# Poissons Ratio (y) = 0.45702 0.27751
# Poissons Ratio (z) = 0.28026 0.28026
#
# Static dielectric constant tensor:
#      x y z
#    x 1.955490 0.000000 0.000000 
#    y 0.000000 1.955490 0.000000 
#    z 0.000000 0.000000 1.908200 
# 
# From -- ./inp_files/867.got.cif
#   From: 2010.05.17/outbox.cif.g08.bks.cpg/sg180_1_cif.got.tgz:867.got - 2010.05.20 11:43:55.
