data_PCOD9584142
_publ_section_title
;
Structure prediction by ZEFSAII (Michael W. Deem and Ramdas Pophale) SiO2 
 PCOD9584142
Probable space group: P 62 2 2
;
_chemical_formula_sum "Si O2"
_cell_formula_units_Z 57
_cell_length_a 14.543023
_cell_length_b 14.543023
_cell_length_c 13.470526
_cell_angle_alpha 90.000000
_cell_angle_beta 90.000000
_cell_angle_gamma 120.000000
_cell_volume 2467.314824
_symmetry_space_group_name_H-M "P 62 2 2"
_symmetry_group_IT_number 180
_symmetry_cell_setting 'hexagonal'
loop_
_space_group_symop_operation_xyz
x,y,z
x-y,x,1/3+z
-y,x-y,2/3+z
-x,-y,z
-x+y,-x,1/3+z
y,-x+y,2/3+z
x-y,-y,-z
-x,-x+y,1/3-z
y,x,2/3-z
-y,-x,2/3-z
-x+y,y,-z
x,x-y,1/3-z
loop_
_atom_site_type_symbol
_atom_site_label
_atom_site_fract_x
_atom_site_fract_y
_atom_site_fract_z
Si Si1 0.233375 0.116688 0.666667
Si Si2 0.000000 0.500000 0.166667
Si Si3 0.936136 0.327189 0.768952
Si Si4 0.215443 0.625778 0.550674
Si Si5 0.591610 0.735936 0.825984
Si Si6 0.222250 0.917103 0.704443
O O1 0.312934 0.185620 0.755511
O O2 0.169852 0.178525 0.643393
O O3 0.085638 0.471153 0.118368
O O4 0.886580 0.399109 0.802403
O O5 0.852892 0.205416 0.735443
O O6 0.976108 0.305691 0.873039
O O7 0.000000 0.373812 0.666667
O O8 0.313233 0.626465 0.500000
O O9 0.231802 0.615901 0.666667
O O10 0.217705 0.731353 0.515289
O O11 0.637471 0.730454 0.933623
#
# Coordination Sequence:
#
# PCOD9584142 Si02
#       6
#     6   3  12  12  12  12
#     4  12  26  44  73  98 140 192 247 298 368 442
#     4  12  24  44  68  96 158 190 252 300 370 448
#     4  11  24  46  72 106 142 191 243 313 382 447
#     4  12  24  43  68 100 149 184 233 305 357 439
#     4  12  25  44  67 107 142 197 245 297 369 450
#     4  11  23  47  68 101 144 185 246 309 363 453
#
# _framework density 23.102039000000001
#
# number of rings (size 3 to 8) (size 9 to 14) (size 15 to 20)
#    0.000    0.421    7.368    1.263    1.474    2.105 
#    0.000    0.526    0.000    2.526    0.000    0.000 
#    0.000    0.000    0.000    0.000    0.000    0.000 
#
# Total GULP energy -317876.825300 kJ/mol
# GULP energy per Si atom -5576.786409 kJ/mol
# Density = 2.304946 g / cm^3
# Si number density = 23.102039 Si / 1000 Ang^3
#
#
#
# Elastic Constant Matrix: (Units=GPa)
#
#
# Indices 1 2 3 4 5 6 
#
# 1 111.0112 39.3980 -1.6908 0.0000 0.0000 0.0000
# 2 39.3980 111.0112 -1.6908 0.0000 0.0000 0.0000
# 3 -1.6908 -1.6908 80.0085 0.0000 0.0000 0.0000
# 4 0.0000 0.0000 0.0000 94.0253 0.0000 0.0000
# 5 0.0000 0.0000 0.0000 0.0000 94.0253 0.0000
# 6 0.0000 0.0000 0.0000 0.0000 0.0000 35.8066
#
#
#
# Elastic Compliance Matrix: (Units=1/GPa)
#
#
# Indices 1 2 3 4 5 6 
#
# 1 0.010308 -0.003656 0.000141 0.000000 0.000000 0.000000
# 2 -0.003656 0.010308 0.000141 0.000000 0.000000 0.000000
# 3 0.000141 0.000141 0.012505 0.000000 0.000000 0.000000
# 4 0.000000 0.000000 0.000000 0.010635 0.000000 0.000000
# 5 0.000000 0.000000 0.000000 0.000000 0.010635 0.000000
# 6 0.000000 0.000000 0.000000 0.000000 0.000000 0.027928
#
#
# Mechanical properties :
#
#
# Convention : Reuss Voigt Hill
#
# Bulk Modulus (GPa) = 37.92149 41.56263 39.74206
# Shear Modulus (GPa) = 51.09399 62.50576 56.79987
#
# Velocity S-wave (km/s) = 4.70794 5.20722 4.96386
# Velocity P-wave (km/s) = 6.78257 7.36094 7.07767
#
# Compressibility (1/GPa) = 0.02637027
#
# Stress axis : x y z
#
# Youngs Moduli (GPa) = 97.01400 97.01400 79.97046
#
# Poissons Ratio (x) = 0.35469 -0.01124
# Poissons Ratio (y) = 0.35469 -0.01124
# Poissons Ratio (z) = -0.01364 -0.01364
#
# Static dielectric constant tensor:
#      x y z
#    x 1.882910 0.000000 0.000000 
#    y 0.000000 1.882910 0.000000 
#    z 0.000000 0.000000 1.860110 
# 
# From -- ./inp_files/6131.got.cif
#   From: 2010.05.17/outbox.cif.g08.bks.cpg/sg180_4_cif.got.tgz:6131.got - 2010.05.20 11:43:55.
