data_PCOD9584509
_publ_section_title
;
Structure prediction by ZEFSAII (Michael W. Deem and Ramdas Pophale) SiO2 
 PCOD9584509
Probable space group: P 64 2 2
;
_chemical_formula_sum "Si O2"
_cell_formula_units_Z 45
_cell_length_a 13.594436
_cell_length_b 13.594436
_cell_length_c 13.573604
_cell_angle_alpha 90.000000
_cell_angle_beta 90.000000
_cell_angle_gamma 120.000000
_cell_volume 2172.442025
_symmetry_space_group_name_H-M "P 64 2 2"
_symmetry_group_IT_number 181
_symmetry_cell_setting 'hexagonal'
loop_
_space_group_symop_operation_xyz
x,y,z
x-y,x,2/3+z
-y,x-y,1/3+z
-x,-y,z
-x+y,-x,2/3+z
y,-x+y,1/3+z
x-y,-y,-z
-x,-x+y,2/3-z
y,x,1/3-z
-y,-x,1/3-z
-x+y,y,-z
x,x-y,2/3-z
loop_
_atom_site_type_symbol
_atom_site_label
_atom_site_fract_x
_atom_site_fract_y
_atom_site_fract_z
Si Si1 0.977509 0.375699 0.451376
Si Si2 0.121395 0.000000 0.000000
Si Si3 0.500000 0.500000 0.166667
Si Si4 0.148888 0.851113 0.166667
Si Si5 0.000000 0.163955 0.833334
Si Si6 0.820991 0.583504 0.887820
O O1 0.847009 0.285742 0.483573
O O2 0.000000 0.500000 0.474236
O O3 0.000000 0.373300 0.333334
O O4 0.073549 0.359357 0.509108
O O5 0.030903 0.918828 0.923189
O O6 0.223008 0.088685 0.929560
O O7 0.467826 0.373388 0.207835
O O8 0.101478 0.283288 0.867039
O O9 0.779915 0.559830 0.000000
#
# Coordination Sequence:
#
# PCOD9584509 Si02
#       6
#    12   6   3   6   6  12
#     4  11  25  48  76 107 149 195 259 323 387 472
#     4  12  26  41  67 102 148 184 229 292 373 442
#     4  10  28  50  78 106 160 198 260 318 398 482
#     4  12  22  46  70 106 139 193 238 312 374 452
#     4  11  24  44  67 102 144 181 233 295 367 442
#     4  11  24  49  73 108 147 195 246 317 379 462
#
# _framework density 20.714016000000001
#
# number of rings (size 3 to 8) (size 9 to 14) (size 15 to 20)
#    0.000    0.800    4.000    1.600    1.867    4.800 
#    4.800    0.000    0.000    0.000    0.000    0.000 
#    0.000    0.000    0.000    0.000    0.000    0.000 
#
# Total GULP energy -250561.793200 kJ/mol
# GULP energy per Si atom -5568.039849 kJ/mol
# Density = 2.066687 g / cm^3
# Si number density = 20.714016 Si / 1000 Ang^3
#
#
#
# Elastic Constant Matrix: (Units=GPa)
#
#
# Indices 1 2 3 4 5 6 
#
# 1 160.5436 85.8508 71.7864 0.0000 0.0000 0.0000
# 2 85.8508 160.5436 71.7864 0.0000 0.0000 0.0000
# 3 71.7864 71.7864 135.6245 0.0000 0.0000 0.0000
# 4 0.0000 0.0000 0.0000 43.4191 0.0000 0.0000
# 5 0.0000 0.0000 0.0000 0.0000 43.4191 0.0000
# 6 0.0000 0.0000 0.0000 0.0000 0.0000 37.3464
#
#
#
# Elastic Compliance Matrix: (Units=1/GPa)
#
#
# Indices 1 2 3 4 5 6 
#
# 1 0.009628 -0.003760 -0.003106 0.000000 0.000000 0.000000
# 2 -0.003760 0.009628 -0.003106 0.000000 0.000000 0.000000
# 3 -0.003106 -0.003106 0.010662 0.000000 0.000000 0.000000
# 4 0.000000 0.000000 0.000000 0.023031 0.000000 0.000000
# 5 0.000000 0.000000 0.000000 0.000000 0.023031 0.000000
# 6 0.000000 0.000000 0.000000 0.000000 0.000000 0.026776
#
#
# Mechanical properties :
#
#
# Convention : Reuss Voigt Hill
#
# Bulk Modulus (GPa) = 100.26361 101.72876 100.99619
# Shear Modulus (GPa) = 39.67424 39.98946 39.83185
#
# Velocity S-wave (km/s) = 4.38120 4.39857 4.38989
# Velocity P-wave (km/s) = 8.60825 8.66108 8.63471
#
# Compressibility (1/GPa) = 0.00997371
#
# Stress axis : x y z
#
# Youngs Moduli (GPa) = 103.86001 103.86001 93.79483
#
# Poissons Ratio (x) = 0.39050 0.29135
# Poissons Ratio (y) = 0.39050 0.29135
# Poissons Ratio (z) = 0.32261 0.32261
#
# Static dielectric constant tensor:
#      x y z
#    x 1.508030 0.000000 0.000000 
#    y 0.000000 1.508030 0.000000 
#    z 0.000000 0.000000 1.746700 
# 
# From -- ./inp_files/4493.got.cif
#   From: 2010.05.17/outbox.cif.g08.bks.cpg/sg181_3_cif.got.tgz:4493.got - 2010.05.20 11:51:17.
