data_PCOD9584444
_publ_section_title
;
Structure prediction by ZEFSAII (Michael W. Deem and Ramdas Pophale) SiO2 
 PCOD9584444
Probable space group: P 64 2 2
;
_chemical_formula_sum "Si O2"
_cell_formula_units_Z 51
_cell_length_a 14.326894
_cell_length_b 14.326894
_cell_length_c 14.330476
_cell_angle_alpha 90.000000
_cell_angle_beta 90.000000
_cell_angle_gamma 120.000000
_cell_volume 2547.389435
_symmetry_space_group_name_H-M "P 64 2 2"
_symmetry_group_IT_number 181
_symmetry_cell_setting 'hexagonal'
loop_
_space_group_symop_operation_xyz
x,y,z
x-y,x,2/3+z
-y,x-y,1/3+z
-x,-y,z
-x+y,-x,2/3+z
y,-x+y,1/3+z
x-y,-y,-z
-x,-x+y,2/3-z
y,x,1/3-z
-y,-x,1/3-z
-x+y,y,-z
x,x-y,2/3-z
loop_
_atom_site_type_symbol
_atom_site_label
_atom_site_fract_x
_atom_site_fract_y
_atom_site_fract_z
Si Si1 0.242653 0.604273 0.091721
Si Si2 0.091775 0.861919 0.898746
Si Si3 0.137835 0.383627 0.597574
Si Si4 0.000000 0.000000 0.666667
Si Si5 0.743503 0.638282 0.915802
O O1 0.334393 0.665607 0.166667
O O2 0.196640 0.683563 0.067535
O O3 0.162626 0.482388 0.124825
O O4 0.294949 0.589898 0.000000
O O5 0.187045 0.919363 0.824671
O O6 0.000000 0.767053 0.833334
O O7 0.034882 0.926796 0.939139
O O8 0.145468 0.831419 0.983807
O O9 0.178773 0.357546 0.500000
O O10 0.012788 0.347154 0.610014
O O11 0.823050 0.646099 0.000000
#
# Coordination Sequence:
#
# PCOD9584444 Si02
#       5
#    12  12  12   3  12
#     4  10  22  41  67  95 128 170 219 285 342 395
#     4  12  23  41  62  91 133 174 228 263 331 403
#     4  11  23  41  64  95 132 173 220 272 334 397
#     4  12  26  40  62  96 136 192 222 272 338 398
#     4  11  22  41  64  94 132 170 224 276 330 401
#
# _framework density 20.020496000000001
#
# number of rings (size 3 to 8) (size 9 to 14) (size 15 to 20)
#    0.000    0.941    2.353    5.294    0.000    0.000 
#    0.000    0.000    0.000    4.235    0.000    0.000 
#    0.000    0.000    0.000    0.000    0.000    0.000 
#
# Total GULP energy -284054.855682 kJ/mol
# GULP energy per Si atom -5569.703053 kJ/mol
# Density = 1.997493 g / cm^3
# Si number density = 20.020496 Si / 1000 Ang^3
#
#
#
# Elastic Constant Matrix: (Units=GPa)
#
#
# Indices 1 2 3 4 5 6 
#
# 1 88.4413 8.3583 27.1081 0.0000 0.0000 0.0000
# 2 8.3583 88.4413 27.1081 0.0000 0.0000 0.0000
# 3 27.1081 27.1081 80.7572 0.0000 0.0000 0.0000
# 4 0.0000 0.0000 0.0000 24.5393 0.0000 0.0000
# 5 0.0000 0.0000 0.0000 0.0000 24.5393 0.0000
# 6 0.0000 0.0000 0.0000 0.0000 0.0000 40.0415
#
#
#
# Elastic Compliance Matrix: (Units=1/GPa)
#
#
# Indices 1 2 3 4 5 6 
#
# 1 0.012605 0.000118 -0.004271 0.000000 0.000000 0.000000
# 2 0.000118 0.012605 -0.004271 0.000000 0.000000 0.000000
# 3 -0.004271 -0.004271 0.015250 0.000000 0.000000 0.000000
# 4 0.000000 0.000000 0.000000 0.040751 0.000000 0.000000
# 5 0.000000 0.000000 0.000000 0.000000 0.040751 0.000000
# 6 0.000000 0.000000 0.000000 0.000000 0.000000 0.024974
#
#
# Mechanical properties :
#
#
# Convention : Reuss Voigt Hill
#
# Bulk Modulus (GPa) = 42.35055 42.53210 42.44132
# Shear Modulus (GPa) = 29.12846 30.82836 29.97841
#
# Velocity S-wave (km/s) = 3.81849 3.92834 3.87380
# Velocity P-wave (km/s) = 6.37501 6.47041 6.42288
#
# Compressibility (1/GPa) = 0.02361245
#
# Stress axis : x y z
#
# Youngs Moduli (GPa) = 79.33484 79.33484 65.57426
#
# Poissons Ratio (x) = -0.00934 0.28004
# Poissons Ratio (y) = -0.00934 0.28004
# Poissons Ratio (z) = 0.33881 0.33881
#
# Static dielectric constant tensor:
#      x y z
#    x 1.859530 0.000000 0.000000 
#    y 0.000000 1.859530 0.000000 
#    z 0.000000 0.000000 1.869940 
# 
# From -- ./inp_files/6031.got.cif
#   From: 2010.05.17/outbox.cif.g08.bks.cpg/sg181_4_cif.got.tgz:6031.got - 2010.05.20 11:51:17.
