data_PCOD9584924
_publ_section_title
;
Structure prediction by ZEFSAII (Michael W. Deem and Ramdas Pophale) SiO2 
 PCOD9584924
Probable space group: P 6 M M
;
_chemical_formula_sum "Si O2"
_cell_formula_units_Z 96
_cell_length_a 18.156134
_cell_length_b 18.156134
_cell_length_c 21.494574
_cell_angle_alpha 90.000000
_cell_angle_beta 90.000000
_cell_angle_gamma 120.000000
_cell_volume 6136.295038
_symmetry_space_group_name_H-M "P 6 M M"
_symmetry_group_IT_number 183
_symmetry_cell_setting 'hexagonal'
loop_
_space_group_symop_operation_xyz
x,y,z
x-y,x,z
-y,x-y,z
-x,-y,z
-x+y,-x,z
y,-x+y,z
-x+y,y,z
x,x-y,z
-y,-x,z
y,x,z
x-y,-y,z
-x,-x+y,z
loop_
_atom_site_type_symbol
_atom_site_label
_atom_site_fract_x
_atom_site_fract_y
_atom_site_fract_z
Si Si1 0.501427 0.831939 0.614580
Si Si2 0.101758 0.466313 0.005619
Si Si3 0.100005 0.731334 0.126770
Si Si4 0.669488 0.501426 0.873888
Si Si5 0.159132 0.667445 0.244233
Si Si6 0.731333 0.100005 0.361697
Si Si7 0.466313 0.364556 0.482849
Si Si8 0.101144 0.464937 0.744234
O O1 0.428826 0.857651 0.613848
O O2 0.462634 0.731317 0.616177
O O3 0.547392 0.865037 0.548752
O O4 0.552228 0.867691 0.678835
O O5 0.133730 0.566865 0.014732
O O6 0.121236 0.424483 0.063926
O O7 0.000000 0.419468 0.001394
O O8 0.134963 0.452609 0.939716
O O9 0.168428 0.831573 0.133012
O O10 0.116787 0.684083 0.183992
O O11 0.000000 0.702316 0.125787
O O12 0.731317 0.462633 0.872291
O O13 0.571175 0.428826 0.874620
O O14 0.684538 0.552228 0.809632
O O15 0.149855 0.574928 0.244233
O O16 0.258214 0.741786 0.244234
O O17 0.116787 0.684081 0.304475
O O18 0.831572 0.168429 0.355454
O O19 0.696753 0.121236 0.424541
O O20 0.702316 0.000000 0.362680
O O21 0.566865 0.433136 0.473736
O O22 0.419468 0.419468 0.487073
O O23 0.132235 0.566117 0.744234
O O24 0.000000 0.415092 0.744234
#
# Coordination Sequence:
#
# PCOD9584924 Si02
#       8
#    12  12  12  12  12  12  12  12
#     4  10  18  27  39  56  79 105 134 168 207 250
#     4   9  17  29  45  64  86 113 144 176 210 254
#     4  10  20  33  49  69  92 119 152 189 228 268
#     4  10  18  27  39  56  79 105 134 168 207 250
#     4  10  20  33  50  73 100 128 155 184 218 257
#     4  10  20  33  49  69  92 119 152 189 228 268
#     4   9  17  29  45  64  86 113 144 176 210 254
#     4   9  17  28  40  52  68  95 132 172 210 246
#
# _framework density 15.64462
#
# number of rings (size 3 to 8) (size 9 to 14) (size 15 to 20)
#    0.000    2.375    0.000    3.375    0.000    5.000 
#    0.000    1.250    0.000    8.250    0.000    0.000 
#    0.000    3.000    0.000    0.000    0.000    0.000 
#
# Total GULP energy -534462.815306 kJ/mol
# GULP energy per Si atom -5567.320993 kJ/mol
# Density = 1.560901 g / cm^3
# Si number density = 15.644620 Si / 1000 Ang^3
#
#
#
# Elastic Constant Matrix: (Units=GPa)
#
#
# Indices 1 2 3 4 5 6 
#
# 1 57.6867 34.2130 34.7211 0.0000 0.0000 0.0000
# 2 34.2130 57.6867 34.7211 0.0000 0.0000 0.0000
# 3 34.7211 34.7211 152.0965 0.0000 0.0000 0.0000
# 4 0.0000 0.0000 0.0000 -14.2065 0.0000 0.0000
# 5 0.0000 0.0000 0.0000 0.0000 -14.2065 0.0000
# 6 0.0000 0.0000 0.0000 0.0000 0.0000 11.7369
#
#
#
# Elastic Compliance Matrix: (Units=1/GPa)
#
#
# Indices 1 2 3 4 5 6 
#
# 1 0.027875 -0.014725 -0.003002 0.000000 0.000000 0.000000
# 2 -0.014725 0.027875 -0.003002 0.000000 0.000000 0.000000
# 3 -0.003002 -0.003002 0.007945 0.000000 0.000000 0.000000
# 4 0.000000 0.000000 0.000000 -0.070390 0.000000 0.000000
# 5 0.000000 0.000000 0.000000 0.000000 -0.070390 0.000000
# 6 0.000000 0.000000 0.000000 0.000000 0.000000 0.085201
#
#
# Mechanical properties :
#
#
# Convention : Reuss Voigt Hill
#
# Bulk Modulus (GPa) = 44.96944 52.75337 48.86141
# Shear Modulus (GPa) = 87.73834 7.58576 47.66205
#
# Velocity S-wave (km/s) = 7.49692 2.20439 5.52554
# Velocity P-wave (km/s) = 10.18554 6.34603 8.48579
#
# Compressibility (1/GPa) = 0.02223732
#
# Stress axis : x y z
#
# Youngs Moduli (GPa) = 35.87414 35.87414 125.86011
#
# Poissons Ratio (x) = 0.52826 0.37782
# Poissons Ratio (y) = 0.52826 0.37782
# Poissons Ratio (z) = 0.10769 0.10769
#
# Static dielectric constant tensor:
#      x y z
#    x 1.510760 0.000000 0.000000 
#    y 0.000000 1.510760 0.000000 
#    z 0.000000 0.000000 1.567990 
# 
# From -- ./inp_files/2992.got.cif
#   From: 2010.05.17/outbox.cif.g08.bks.cpg/sg183_2_cif.got.tgz:2992.got - 2010.05.20 12:02:58.
