data_PCOD9584656
_publ_section_title
;
Structure prediction by ZEFSAII (Michael W. Deem and Ramdas Pophale) SiO2 
 PCOD9584656
Probable space group: P 63 2 2
;
_chemical_formula_sum "Si O2"
_cell_formula_units_Z 76
_cell_length_a 16.793954
_cell_length_b 16.793954
_cell_length_c 16.250159
_cell_angle_alpha 90.000000
_cell_angle_beta 90.000000
_cell_angle_gamma 120.000000
_cell_volume 3969.119412
_symmetry_space_group_name_H-M "P 63 2 2"
_symmetry_group_IT_number 182
_symmetry_cell_setting 'hexagonal'
loop_
_space_group_symop_operation_xyz
x,y,z
x-y,x,1/2+z
-y,x-y,z
-x,-y,1/2+z
-x+y,-x,z
y,-x+y,1/2+z
x-y,-y,-z
-x,-x+y,-z
y,x,-z
-y,-x,1/2-z
-x+y,y,1/2-z
x,x-y,1/2-z
loop_
_atom_site_type_symbol
_atom_site_label
_atom_site_fract_x
_atom_site_fract_y
_atom_site_fract_z
Si Si1 0.026814 0.601483 0.740001
Si Si2 0.796682 0.869445 0.843243
Si Si3 0.000000 0.000000 0.597336
Si Si4 0.594060 0.742749 0.444171
Si Si5 0.330579 0.818715 0.296349
Si Si6 0.338577 0.063460 0.388993
Si Si7 0.958535 0.667237 0.590853
O O1 0.069556 0.534778 0.750000
O O2 0.926123 0.544179 0.779686
O O3 0.999708 0.616518 0.647976
O O4 0.076366 0.690406 0.799476
O O5 0.789629 0.894815 0.750000
O O6 0.734021 0.901153 0.891625
O O7 0.763924 0.764173 0.861767
O O8 0.900675 0.927450 0.870723
O O9 0.000000 0.000000 0.500000
O O10 0.498713 0.686468 0.393520
O O11 0.668698 0.714764 0.410038
O O12 0.589906 0.714430 0.539394
O O13 0.625924 0.849163 0.423680
O O14 0.233181 0.766820 0.250000
O O15 0.392401 0.784802 0.250000
O O16 0.000000 0.682154 0.500000
#
# Coordination Sequence:
#
# PCOD9584656 Si02
#       7
#    12  12   4  12  12  12  12
#     4  10  22  41  59  84 117 155 205 257 325 387
#     4  12  23  38  58  86 128 180 231 265 311 369
#     4  12  28  38  52  90 142 191 238 285 301 359
#     4  10  21  36  57  88 123 164 202 256 309 377
#     4  10  19  35  58  83 114 149 190 242 318 383
#     4  10  21  38  60  84 123 168 210 256 316 380
#     4  12  22  37  62  91 124 164 215 266 316 378
#
# _framework density 19.147825999999998
#
# number of rings (size 3 to 8) (size 9 to 14) (size 15 to 20)
#    0.000    1.263    4.737    2.053    2.211    0.000 
#    8.526    0.000    0.000    0.000    0.000    0.000 
#    6.316    0.000    0.000    0.000    0.000    0.000 
#
# Total GULP energy -423211.094626 kJ/mol
# GULP energy per Si atom -5568.567035 kJ/mol
# Density = 1.910424 g / cm^3
# Si number density = 19.147826 Si / 1000 Ang^3
#
#
#
# Elastic Constant Matrix: (Units=GPa)
#
#
# Indices 1 2 3 4 5 6 
#
# 1 41.2910 21.4532 13.9961 0.0000 0.0000 0.0000
# 2 21.4532 41.2910 13.9961 0.0000 0.0000 0.0000
# 3 13.9961 13.9961 122.1875 0.0000 0.0000 0.0000
# 4 0.0000 0.0000 0.0000 30.5796 0.0000 0.0000
# 5 0.0000 0.0000 0.0000 0.0000 30.5796 0.0000
# 6 0.0000 0.0000 0.0000 0.0000 0.0000 9.9189
#
#
#
# Elastic Compliance Matrix: (Units=1/GPa)
#
#
# Indices 1 2 3 4 5 6 
#
# 1 0.033602 -0.016806 -0.001924 0.000000 0.000000 0.000000
# 2 -0.016806 0.033602 -0.001924 0.000000 0.000000 0.000000
# 3 -0.001924 -0.001924 0.008625 0.000000 0.000000 0.000000
# 4 0.000000 0.000000 0.000000 0.032702 0.000000 0.000000
# 5 0.000000 0.000000 0.000000 0.000000 0.032702 0.000000
# 6 0.000000 0.000000 0.000000 0.000000 0.000000 0.100818
#
#
# Mechanical properties :
#
#
# Convention : Reuss Voigt Hill
#
# Bulk Modulus (GPa) = 28.96759 33.74003 31.35381
# Shear Modulus (GPa) = 16.95685 24.57056 20.76370
#
# Velocity S-wave (km/s) = 2.97909 3.58607 3.29658
# Velocity P-wave (km/s) = 5.19563 5.89963 5.55878
#
# Compressibility (1/GPa) = 0.03452134
#
# Stress axis : x y z
#
# Youngs Moduli (GPa) = 29.75972 29.75972 115.94342
#
# Poissons Ratio (x) = 0.50015 0.22307
# Poissons Ratio (y) = 0.50015 0.22307
# Poissons Ratio (z) = 0.05726 0.05726
#
# Static dielectric constant tensor:
#      x y z
#    x 1.665030 0.000000 0.000000 
#    y 0.000000 1.665030 0.000000 
#    z 0.000000 0.000000 1.727390 
# 
# From -- ./inp_files/3687.got.cif
#   From: 2010.05.17/outbox.cif.g08.bks.cpg/sg182_2_cif.got.tgz:3687.got - 2010.05.20 11:58:53.
