data_PCOD9584902
_publ_section_title
;
Structure prediction by ZEFSAII (Michael W. Deem and Ramdas Pophale) SiO2 
 PCOD9584902
Probable space group: P 63 2 2
;
_chemical_formula_sum "Si O2"
_cell_formula_units_Z 46
_cell_length_a 14.550686
_cell_length_b 14.550686
_cell_length_c 11.550418
_cell_angle_alpha 90.000000
_cell_angle_beta 90.000000
_cell_angle_gamma 120.000000
_cell_volume 2117.850358
_symmetry_space_group_name_H-M "P 63 2 2"
_symmetry_group_IT_number 182
_symmetry_cell_setting 'hexagonal'
loop_
_space_group_symop_operation_xyz
x,y,z
x-y,x,1/2+z
-y,x-y,z
-x,-y,1/2+z
-x+y,-x,z
y,-x+y,1/2+z
x-y,-y,-z
-x,-x+y,-z
y,x,-z
-y,-x,1/2-z
-x+y,y,1/2-z
x,x-y,1/2-z
loop_
_atom_site_type_symbol
_atom_site_label
_atom_site_fract_x
_atom_site_fract_y
_atom_site_fract_z
Si Si1 0.570391 0.772215 0.525326
Si Si2 0.074235 0.739771 0.321189
Si Si3 0.564656 0.564656 0.500000
Si Si4 0.497610 0.995219 0.250000
Si Si5 0.333334 0.666668 0.608488
Si Si6 0.148402 0.851599 0.750000
O O1 0.632419 0.879193 0.451038
O O2 0.572286 0.674599 0.463271
O O3 0.451070 0.739716 0.557862
O O4 0.630923 0.784389 0.644205
O O5 0.168213 0.831788 0.250000
O O6 0.056844 0.627039 0.277531
O O7 0.971844 0.754032 0.298180
O O8 0.494984 0.536215 0.618668
O O9 0.333334 0.666667 0.750000
#
# Coordination Sequence:
#
# PCOD9584902 Si02
#       6
#    12  12   6   6   4   6
#     4  12  25  46  71 110 150 204 264 329 403 482
#     4  12  27  49  75 112 153 211 266 337 418 495
#     4  12  26  46  76 110 160 206 266 328 402 490
#     4  12  26  46  77 110 160 205 256 330 406 494
#     4  12  27  42  67 113 163 198 264 325 386 508
#     4  12  26  46  79 104 152 203 268 334 406 484
#
# _framework density 21.720137999999999
#
# number of rings (size 3 to 8) (size 9 to 14) (size 15 to 20)
#    0.000    0.000    6.522    2.348    9.130    0.000 
#    1.565    0.000    0.000    0.000    0.000    0.000 
#    0.000    0.000    0.000    0.000    0.000    0.000 
#
# Total GULP energy -256317.522168 kJ/mol
# GULP energy per Si atom -5572.120047 kJ/mol
# Density = 2.167070 g / cm^3
# Si number density = 21.720138 Si / 1000 Ang^3
#
#
#
# Elastic Constant Matrix: (Units=GPa)
#
#
# Indices 1 2 3 4 5 6 
#
# 1 110.4078 79.8554 33.1150 -0.0004 0.0006 0.0006
# 2 79.8554 110.4073 33.1149 0.0003 -0.0006 0.0000
# 3 33.1150 33.1149 161.7868 0.0001 -0.0002 -0.0001
# 4 -0.0004 0.0003 0.0001 48.5980 0.0009 0.0006
# 5 0.0006 -0.0006 -0.0002 0.0009 48.5962 0.0004
# 6 0.0006 0.0000 -0.0001 0.0006 0.0004 15.2748
#
#
#
# Elastic Compliance Matrix: (Units=1/GPa)
#
#
# Indices 1 2 3 4 5 6 
#
# 1 0.019195 -0.013536 -0.001158 0.000000 0.000000 -0.000001
# 2 -0.013536 0.019195 -0.001158 0.000000 0.000000 0.000001
# 3 -0.001158 -0.001158 0.006655 0.000000 0.000000 0.000000
# 4 0.000000 0.000000 0.000000 0.020577 0.000000 -0.000001
# 5 0.000000 0.000000 0.000000 0.000000 0.020578 -0.000001
# 6 -0.000001 0.000001 0.000000 -0.000001 -0.000001 0.065467
#
#
# Mechanical properties :
#
#
# Convention : Reuss Voigt Hill
#
# Bulk Modulus (GPa) = 74.96218 74.97472 74.96845
# Shear Modulus (GPa) = 26.62136 38.26157 32.44146
#
# Velocity S-wave (km/s) = 3.50473 4.20166 3.86892
# Velocity P-wave (km/s) = 7.13899 7.62444 7.38570
#
# Compressibility (1/GPa) = 0.01334006
#
# Stress axis : x y z
#
# Youngs Moduli (GPa) = 52.09701 52.09677 150.25963
#
# Poissons Ratio (x) = 0.70518 0.17405
# Poissons Ratio (y) = 0.70518 0.17405
# Poissons Ratio (z) = 0.06034 0.06034
#
# Static dielectric constant tensor:
#      x y z
#    x 1.715120 0.000010 0.000000 
#    y 0.000010 1.715130 0.000000 
#    z 0.000000 0.000000 1.862880 
# 
# From -- ./inp_files/2436.got.cif
#   From: 2010.05.17/outbox.cif.g08.bks.cpg/sg182_2_cif.got.tgz:2436.got - 2010.05.20 11:58:53.
