data_PCOD9584993
_publ_section_title
;
Structure prediction by ZEFSAII (Michael W. Deem and Ramdas Pophale) SiO2 
 PCOD9584993
Probable space group: P 6 M M
;
_chemical_formula_sum "Si O2"
_cell_formula_units_Z 84
_cell_length_a 18.785594
_cell_length_b 18.785594
_cell_length_c 17.546808
_cell_angle_alpha 90.000000
_cell_angle_beta 90.000000
_cell_angle_gamma 120.000000
_cell_volume 5362.639709
_symmetry_space_group_name_H-M "P 6 M M"
_symmetry_group_IT_number 183
_symmetry_cell_setting 'hexagonal'
loop_
_space_group_symop_operation_xyz
x,y,z
x-y,x,z
-y,x-y,z
-x,-y,z
-x+y,-x,z
y,-x+y,z
-x+y,y,z
x,x-y,z
-y,-x,z
y,x,z
x-y,-y,z
-x,-x+y,z
loop_
_atom_site_type_symbol
_atom_site_label
_atom_site_fract_x
_atom_site_fract_y
_atom_site_fract_z
Si Si1 0.666208 0.166362 0.880360
Si Si2 0.255271 0.907411 0.344847
Si Si3 0.653033 0.908003 0.165982
Si Si4 0.901871 0.531974 0.621106
Si Si5 0.262201 0.903394 0.758452
Si Si6 0.833579 0.334253 0.059582
Si Si7 0.500966 0.167900 0.453513
O O1 0.578109 0.156218 0.859517
O O2 0.738704 0.261296 0.870715
O O3 0.693002 0.112997 0.829551
O O4 0.663808 0.146161 0.969985
O O5 0.161389 0.838612 0.360161
O O6 0.271395 0.900773 0.255330
O O7 0.311072 0.885634 0.397701
O O8 0.277139 0.000000 0.359283
O O9 0.676426 0.838213 0.150131
O O10 0.576427 0.888686 0.112659
O O11 0.725349 0.000000 0.152870
O O12 0.879687 0.439844 0.645866
O O13 0.884889 0.582457 0.684746
O O14 0.857966 0.524625 0.541101
O O15 0.000000 0.581545 0.607905
O O16 0.165439 0.834562 0.761720
O O17 0.289222 0.000000 0.756484
O O18 0.840553 0.420277 0.079518
O O19 0.739995 0.260006 0.069126
O O20 0.578263 0.156526 0.437386
O O21 0.523733 0.261867 0.443416
#
# Coordination Sequence:
#
# PCOD9584993 Si02
#       7
#    12  12  12  12  12  12  12
#     4   9  17  29  46  68  94 123 152 181 214 255
#     4   9  18  32  49  67  87 113 145 182 225 272
#     4   9  18  32  48  66  88 114 145 182 225 270
#     4   9  17  29  46  68  92 117 146 181 220 261
#     4  10  20  33  48  66  89 117 149 185 225 268
#     4   9  17  29  45  66  93 124 155 184 214 250
#     4  10  19  30  44  64  92 125 159 190 217 246
#
# _framework density 15.663926999999999
#
# number of rings (size 3 to 8) (size 9 to 14) (size 15 to 20)
#    0.000    2.714    0.000    1.714    0.000    4.286 
#    0.000    2.857    0.000    6.714    0.000    2.000 
#    0.000    0.000    0.000   11.714    0.000    6.857 
#
# Total GULP energy -468066.369739 kJ/mol
# GULP energy per Si atom -5572.218687 kJ/mol
# Density = 1.562828 g / cm^3
# Si number density = 15.663927 Si / 1000 Ang^3
#
#
#
# Elastic Constant Matrix: (Units=GPa)
#
#
# Indices 1 2 3 4 5 6 
#
# 1 85.7844 67.1181 46.6601 0.0000 0.0000 0.0000
# 2 67.1181 85.7844 46.6601 0.0000 0.0000 0.0000
# 3 46.6601 46.6601 47.4225 0.0000 0.0000 0.0000
# 4 0.0000 0.0000 0.0000 21.4480 0.0000 0.0000
# 5 0.0000 0.0000 0.0000 0.0000 21.4480 0.0000
# 6 0.0000 0.0000 0.0000 0.0000 0.0000 9.3332
#
#
#
# Elastic Compliance Matrix: (Units=1/GPa)
#
#
# Indices 1 2 3 4 5 6 
#
# 1 0.034972 -0.018601 -0.016108 0.000000 0.000000 0.000000
# 2 -0.018601 0.034972 -0.016108 0.000000 0.000000 0.000000
# 3 -0.016108 -0.016108 0.052785 0.000000 0.000000 0.000000
# 4 0.000000 0.000000 0.000000 0.046624 0.000000 0.000000
# 5 0.000000 0.000000 0.000000 0.000000 0.046624 0.000000
# 6 0.000000 0.000000 0.000000 0.000000 0.000000 0.107145
#
#
# Mechanical properties :
#
#
# Convention : Reuss Voigt Hill
#
# Bulk Modulus (GPa) = 47.40347 59.98533 53.69440
# Shear Modulus (GPa) = 11.57975 14.34935 12.96455
#
# Velocity S-wave (km/s) = 2.72189 3.02996 2.88005
# Velocity P-wave (km/s) = 6.34088 7.11472 6.73892
#
# Compressibility (1/GPa) = 0.02109550
#
# Stress axis : x y z
#
# Youngs Moduli (GPa) = 28.59442 28.59442 18.94463
#
# Poissons Ratio (x) = 0.53187 0.30516
# Poissons Ratio (y) = 0.53187 0.30516
# Poissons Ratio (z) = 0.46060 0.46060
#
# Static dielectric constant tensor:
#      x y z
#    x 1.511200 0.000000 0.000000 
#    y 0.000000 1.511200 0.000000 
#    z 0.000000 0.000000 1.523860 
# 
# From -- ./inp_files/2258.got.cif
#   From: 2010.05.17/outbox.cif.g08.bks.cpg/sg183_2_cif.got.tgz:2258.got - 2010.05.20 12:02:58.
