data_PCOD9584867
_publ_section_title
;
Structure prediction by ZEFSAII (Michael W. Deem and Ramdas Pophale) SiO2 
 PCOD9584867
Probable space group: P 63 2 2
;
_chemical_formula_sum "Si O2"
_cell_formula_units_Z 30
_cell_length_a 16.106707
_cell_length_b 16.106707
_cell_length_c 7.155471
_cell_angle_alpha 90.000000
_cell_angle_beta 90.000000
_cell_angle_gamma 120.000000
_cell_volume 1607.616202
_symmetry_space_group_name_H-M "P 63 2 2"
_symmetry_group_IT_number 182
_symmetry_cell_setting 'hexagonal'
loop_
_space_group_symop_operation_xyz
x,y,z
x-y,x,1/2+z
-y,x-y,z
-x,-y,1/2+z
-x+y,-x,z
y,-x+y,1/2+z
x-y,-y,-z
-x,-x+y,-z
y,x,-z
-y,-x,1/2-z
-x+y,y,1/2-z
x,x-y,1/2-z
loop_
_atom_site_type_symbol
_atom_site_label
_atom_site_fract_x
_atom_site_fract_y
_atom_site_fract_z
Si Si1 0.325341 0.821154 0.864715
Si Si2 0.466442 0.233221 0.750000
Si Si3 0.029948 0.421829 0.284925
O O1 0.227638 0.772363 0.750000
O O2 0.401798 0.803596 0.750000
O O3 0.368391 0.935520 0.845617
O O4 0.291654 0.768229 0.064629
O O5 0.403661 0.285026 0.773881
O O6 0.069645 0.534823 0.250000
O O7 0.000000 0.405624 0.500000
#
# Coordination Sequence:
#
# PCOD9584867 Si02
#       3
#    12   6  12
#     4  11  23  40  61  88 123 162 213 252 306 373
#     4  12  24  38  64  86 118 170 204 260 314 358
#     4  11  22  42  60  84 124 163 204 259 309 369
#
# _framework density 18.661169000000001
#
# number of rings (size 3 to 8) (size 9 to 14) (size 15 to 20)
#    0.000    0.800    4.000    6.400    0.000    0.000 
#    1.200    0.000    0.000    0.000    0.000    0.000 
#    2.000    0.800    0.000    0.000    0.000    0.000 
#
# Total GULP energy -167046.541398 kJ/mol
# GULP energy per Si atom -5568.218047 kJ/mol
# Density = 1.861870 g / cm^3
# Si number density = 18.661169 Si / 1000 Ang^3
#
#
#
# Elastic Constant Matrix: (Units=GPa)
#
#
# Indices 1 2 3 4 5 6 
#
# 1 111.1737 56.0194 44.6661 0.0000 0.0000 0.0000
# 2 56.0194 111.1737 44.6661 0.0000 0.0000 0.0000
# 3 44.6661 44.6661 144.9973 0.0000 0.0000 0.0000
# 4 0.0000 0.0000 0.0000 25.5168 0.0000 0.0000
# 5 0.0000 0.0000 0.0000 0.0000 25.5168 0.0000
# 6 0.0000 0.0000 0.0000 0.0000 0.0000 27.5771
#
#
#
# Elastic Compliance Matrix: (Units=1/GPa)
#
#
# Indices 1 2 3 4 5 6 
#
# 1 0.012645 -0.005486 -0.002205 0.000000 0.000000 0.000000
# 2 -0.005486 0.012645 -0.002205 0.000000 0.000000 0.000000
# 3 -0.002205 -0.002205 0.008255 0.000000 0.000000 0.000000
# 4 0.000000 0.000000 0.000000 0.039190 0.000000 0.000000
# 5 0.000000 0.000000 0.000000 0.000000 0.039190 0.000000
# 6 0.000000 0.000000 0.000000 0.000000 0.000000 0.036262
#
#
# Mechanical properties :
#
#
# Convention : Reuss Voigt Hill
#
# Bulk Modulus (GPa) = 72.71356 73.11641 72.91498
# Shear Modulus (GPa) = 28.97457 30.52169 29.74813
#
# Velocity S-wave (km/s) = 3.94466 4.04861 3.99697
# Velocity P-wave (km/s) = 7.73285 7.81800 7.77554
#
# Compressibility (1/GPa) = 0.01375259
#
# Stress axis : x y z
#
# Youngs Moduli (GPa) = 79.08120 79.08120 121.13198
#
# Poissons Ratio (x) = 0.43382 0.26715
# Poissons Ratio (y) = 0.43382 0.26715
# Poissons Ratio (z) = 0.17441 0.17441
#
# Static dielectric constant tensor:
#      x y z
#    x 1.664900 0.000000 0.000000 
#    y 0.000000 1.664900 0.000000 
#    z 0.000000 0.000000 1.866190 
# 
# From -- ./inp_files/1179.got.cif
#   From: 2010.05.17/outbox.cif.g08.bks.cpg/sg182_1_cif.got.tgz:1179.got - 2010.05.20 11:58:53.
