data_PCOD9584282
_publ_section_title
;
Structure prediction by ZEFSAII (Michael W. Deem and Ramdas Pophale) SiO2 
 PCOD9584282
Probable space group: P 64 2 2
;
_chemical_formula_sum "Si O2"
_cell_formula_units_Z 66
_cell_length_a 14.066585
_cell_length_b 14.066585
_cell_length_c 19.835770
_cell_angle_alpha 90.000000
_cell_angle_beta 90.000000
_cell_angle_gamma 120.000000
_cell_volume 3399.046026
_symmetry_space_group_name_H-M "P 64 2 2"
_symmetry_group_IT_number 181
_symmetry_cell_setting 'hexagonal'
loop_
_space_group_symop_operation_xyz
x,y,z
x-y,x,2/3+z
-y,x-y,1/3+z
-x,-y,z
-x+y,-x,2/3+z
y,-x+y,1/3+z
x-y,-y,-z
-x,-x+y,2/3-z
y,x,1/3-z
-y,-x,1/3-z
-x+y,y,-z
x,x-y,2/3-z
loop_
_atom_site_type_symbol
_atom_site_label
_atom_site_fract_x
_atom_site_fract_y
_atom_site_fract_z
Si Si1 0.545580 0.277523 0.969841
Si Si2 0.410492 0.229370 0.490711
Si Si3 0.660647 0.321293 0.500000
Si Si4 0.221135 0.945264 0.612102
Si Si5 0.682402 0.800846 0.632369
Si Si6 0.900838 0.383819 0.640085
O O1 0.593623 0.308304 0.894999
O O2 0.592756 0.399555 0.001221
O O3 0.610390 0.220779 0.000000
O O4 0.418166 0.200982 0.985470
O O5 0.529492 0.243871 0.507785
O O6 0.313317 0.115699 0.459830
O O7 0.368625 0.254973 0.559954
O O8 0.441187 0.309707 0.426581
O O9 0.126185 0.873816 0.666667
O O10 0.325555 0.936915 0.638378
O O11 0.248172 0.069522 0.616244
O O12 0.751312 0.751312 0.666667
O O13 0.000000 0.500000 0.620680
#
# Coordination Sequence:
#
# PCOD9584282 Si02
#       6
#    12  12   6  12  12  12
#     4  11  21  39  60  92 134 166 207 257 330 400
#     4  10  22  39  65  95 132 165 213 275 327 393
#     4  10  20  38  65  98 130 171 204 264 330 402
#     4  10  22  43  66  92 122 166 225 283 328 378
#     4  12  26  42  61  94 133 176 221 267 326 398
#     4  10  19  37  67  94 127 167 213 265 337 395
#
# _framework density 19.417211000000002
#
# number of rings (size 3 to 8) (size 9 to 14) (size 15 to 20)
#    0.000    1.455    3.636    3.273    0.000    3.636 
#    0.000    0.909    0.000    4.364    0.000    0.000 
#    0.000    0.000    0.000    0.000    0.000    0.000 
#
# Total GULP energy -367901.892597 kJ/mol
# GULP energy per Si atom -5574.271100 kJ/mol
# Density = 1.937302 g / cm^3
# Si number density = 19.417211 Si / 1000 Ang^3
#
#
#
# Elastic Constant Matrix: (Units=GPa)
#
#
# Indices 1 2 3 4 5 6 
#
# 1 98.2613 46.4004 29.9075 0.0000 0.0000 0.0000
# 2 46.4004 98.2613 29.9075 0.0000 0.0000 0.0000
# 3 29.9075 29.9075 93.4618 0.0000 0.0000 0.0000
# 4 0.0000 0.0000 0.0000 22.0607 0.0000 0.0000
# 5 0.0000 0.0000 0.0000 0.0000 22.0607 0.0000
# 6 0.0000 0.0000 0.0000 0.0000 0.0000 25.9304
#
#
#
# Elastic Compliance Matrix: (Units=1/GPa)
#
#
# Indices 1 2 3 4 5 6 
#
# 1 0.013625 -0.005658 -0.002549 0.000000 0.000000 0.000000
# 2 -0.005658 0.013625 -0.002549 0.000000 0.000000 0.000000
# 3 -0.002549 -0.002549 0.012331 0.000000 0.000000 0.000000
# 4 0.000000 0.000000 0.000000 0.045329 0.000000 0.000000
# 5 0.000000 0.000000 0.000000 0.000000 0.045329 0.000000
# 6 0.000000 0.000000 0.000000 0.000000 0.000000 0.038565
#
#
# Mechanical properties :
#
#
# Convention : Reuss Voigt Hill
#
# Bulk Modulus (GPa) = 55.34860 55.82393 55.58627
# Shear Modulus (GPa) = 25.46612 26.26163 25.86388
#
# Velocity S-wave (km/s) = 3.62542 3.68161 3.65363
# Velocity P-wave (km/s) = 6.78909 6.84723 6.81822
#
# Compressibility (1/GPa) = 0.01806730
#
# Stress axis : x y z
#
# Youngs Moduli (GPa) = 73.39673 73.39673 81.09558
#
# Poissons Ratio (x) = 0.41526 0.20674
# Poissons Ratio (y) = 0.41526 0.20674
# Poissons Ratio (z) = 0.18711 0.18711
#
# Static dielectric constant tensor:
#      x y z
#    x 1.713840 0.000000 0.000000 
#    y 0.000000 1.713840 0.000000 
#    z 0.000000 0.000000 1.707200 
# 
# From -- ./inp_files/9054.got.cif
#   From: 2010.05.17/outbox.cif.g08.bks.cpg/sg181_5_cif.got.tgz:9054.got - 2010.05.20 11:51:17.
