data_PCOD9584434
_publ_section_title
;
Structure prediction by ZEFSAII (Michael W. Deem and Ramdas Pophale) SiO2 
 PCOD9584434
Probable space group: P 64 2 2
;
_chemical_formula_sum "Si O2"
_cell_formula_units_Z 57
_cell_length_a 15.212169
_cell_length_b 15.212169
_cell_length_c 13.256159
_cell_angle_alpha 90.000000
_cell_angle_beta 90.000000
_cell_angle_gamma 120.000000
_cell_volume 2656.627228
_symmetry_space_group_name_H-M "P 64 2 2"
_symmetry_group_IT_number 181
_symmetry_cell_setting 'hexagonal'
loop_
_space_group_symop_operation_xyz
x,y,z
x-y,x,2/3+z
-y,x-y,1/3+z
-x,-y,z
-x+y,-x,2/3+z
y,-x+y,1/3+z
x-y,-y,-z
-x,-x+y,2/3-z
y,x,1/3-z
-y,-x,1/3-z
-x+y,y,-z
x,x-y,2/3-z
loop_
_atom_site_type_symbol
_atom_site_label
_atom_site_fract_x
_atom_site_fract_y
_atom_site_fract_z
Si Si1 0.871795 0.761038 0.710985
Si Si2 0.500000 0.000000 0.839229
Si Si3 0.724514 0.602283 0.564288
Si Si4 0.520096 0.658933 0.338978
Si Si5 0.000000 0.500000 0.833334
Si Si6 0.040196 0.257254 0.089412
O O1 0.832512 0.832512 0.666667
O O2 0.788579 0.648907 0.666738
O O3 0.866988 0.757403 0.830580
O O4 0.980228 0.803470 0.662153
O O5 0.454168 0.057763 0.903165
O O6 0.577616 0.091285 0.764330
O O7 0.773526 0.547052 0.500000
O O8 0.747806 0.698778 0.494183
O O9 0.475919 0.737959 0.333334
O O10 0.515937 0.593759 0.239540
O O11 0.636112 0.731334 0.369153
#
# Coordination Sequence:
#
# PCOD9584434 Si02
#       6
#    12   6  12  12   3  12
#     4   9  16  30  53  88 124 162 203 266 320 387
#     4   9  18  37  58  86 118 156 211 265 333 411
#     4   8  15  30  52  79 116 156 199 255 325 383
#     4  10  22  40  62  86 118 164 217 270 336 416
#     4  10  24  44  66  88 130 170 214 288 360 404
#     4   9  18  31  56  85 118 162 213 256 316 395
#
# _framework density 21.455776
#
# number of rings (size 3 to 8) (size 9 to 14) (size 15 to 20)
#    0.000    2.947    0.000    1.895    2.947    0.000 
#    1.895   14.211    0.000    0.632    0.000   20.632 
#    0.000    0.000    0.000    0.000    0.000    0.000 
#
# Total GULP energy -317361.154436 kJ/mol
# GULP energy per Si atom -5567.739552 kJ/mol
# Density = 2.140694 g / cm^3
# Si number density = 21.455776 Si / 1000 Ang^3
#
#
#
# Elastic Constant Matrix: (Units=GPa)
#
#
# Indices 1 2 3 4 5 6 
#
# 1 81.3368 34.4885 68.1118 0.0000 0.0000 0.0000
# 2 34.4885 81.3368 68.1118 0.0000 0.0000 0.0000
# 3 68.1118 68.1118 153.5782 0.0000 0.0000 0.0000
# 4 0.0000 0.0000 0.0000 27.5661 0.0000 0.0000
# 5 0.0000 0.0000 0.0000 0.0000 27.5661 0.0000
# 6 0.0000 0.0000 0.0000 0.0000 0.0000 23.4241
#
#
#
# Elastic Compliance Matrix: (Units=1/GPa)
#
#
# Indices 1 2 3 4 5 6 
#
# 1 0.019696 -0.001649 -0.008004 0.000000 0.000000 0.000000
# 2 -0.001649 0.019696 -0.008004 0.000000 0.000000 0.000000
# 3 -0.008004 -0.008004 0.013611 0.000000 0.000000 0.000000
# 4 0.000000 0.000000 0.000000 0.036276 0.000000 0.000000
# 5 0.000000 0.000000 0.000000 0.000000 0.036276 0.000000
# 6 0.000000 0.000000 0.000000 0.000000 0.000000 0.042691
#
#
# Mechanical properties :
#
#
# Convention : Reuss Voigt Hill
#
# Bulk Modulus (GPa) = 56.53057 73.07511 64.80284
# Shear Modulus (GPa) = 23.87114 25.41391 24.64253
#
# Velocity S-wave (km/s) = 3.33915 3.44536 3.39267
# Velocity P-wave (km/s) = 6.42427 7.06822 6.75392
#
# Compressibility (1/GPa) = 0.01768954
#
# Stress axis : x y z
#
# Youngs Moduli (GPa) = 50.77077 50.77077 73.47097
#
# Poissons Ratio (x) = 0.08373 0.58806
# Poissons Ratio (y) = 0.08373 0.58806
# Poissons Ratio (z) = 0.40637 0.40637
#
# Static dielectric constant tensor:
#      x y z
#    x 1.853250 0.000000 0.000000 
#    y 0.000000 1.853250 0.000000 
#    z 0.000000 0.000000 2.013860 
# 
# From -- ./inp_files/6200.got.cif
#   From: 2010.05.17/outbox.cif.g08.bks.cpg/sg181_4_cif.got.tgz:6200.got - 2010.05.20 11:51:17.
