data_PCOD9584811
_publ_section_title
;
Structure prediction by ZEFSAII (Michael W. Deem and Ramdas Pophale) SiO2 
 PCOD9584811
Probable space group: P 63 2 2
;
_chemical_formula_sum "Si O2"
_cell_formula_units_Z 58
_cell_length_a 14.470188
_cell_length_b 14.470188
_cell_length_c 14.681016
_cell_angle_alpha 90.000000
_cell_angle_beta 90.000000
_cell_angle_gamma 120.000000
_cell_volume 2662.165745
_symmetry_space_group_name_H-M "P 63 2 2"
_symmetry_group_IT_number 182
_symmetry_cell_setting 'hexagonal'
loop_
_space_group_symop_operation_xyz
x,y,z
x-y,x,1/2+z
-y,x-y,z
-x,-y,1/2+z
-x+y,-x,z
y,-x+y,1/2+z
x-y,-y,-z
-x,-x+y,-z
y,x,-z
-y,-x,1/2-z
-x+y,y,1/2-z
x,x-y,1/2-z
loop_
_atom_site_type_symbol
_atom_site_label
_atom_site_fract_x
_atom_site_fract_y
_atom_site_fract_z
Si Si1 0.498394 0.501607 0.750000
Si Si2 0.094814 0.739610 0.815803
Si Si3 0.000000 0.000000 0.356393
Si Si4 0.899345 0.464978 0.944252
Si Si5 0.923662 0.152164 0.587320
Si Si6 0.798798 0.567229 0.501111
O O1 0.371699 0.442773 0.770599
O O2 0.544187 0.478253 0.842361
O O3 0.161512 0.838489 0.750000
O O4 0.983772 0.735469 0.840525
O O5 0.169922 0.765912 0.904962
O O6 0.879103 0.954335 0.387650
O O7 0.000000 0.000000 0.250000
O O8 0.808339 0.496409 0.945413
O O9 0.861674 0.358001 0.001869
O O10 0.000000 0.556392 0.000000
O O11 0.810436 0.135031 0.558477
O O12 0.000000 0.198252 0.500000
#
# Coordination Sequence:
#
# PCOD9584811 Si02
#       6
#     6  12   4  12  12  12
#     4  12  24  44  72 100 142 188 246 302 350 434
#     4  11  23  43  69 103 138 186 238 296 359 421
#     4  12  25  38  67 105 136 170 238 288 340 434
#     4  12  24  46  70 104 143 190 243 298 362 436
#     4  10  22  44  66  94 139 180 219 287 355 424
#     4  11  24  45  71  97 147 185 232 298 363 423
#
# _framework density 21.786773
#
# number of rings (size 3 to 8) (size 9 to 14) (size 15 to 20)
#    0.000    0.828    4.138    3.517    0.000    7.448 
#    0.621    0.000    0.000    0.000    0.000    0.000 
#    0.000    0.000    0.000    0.000    0.000    0.000 
#
# Total GULP energy -324483.118497 kJ/mol
# GULP energy per Si atom -5594.536526 kJ/mol
# Density = 2.173719 g / cm^3
# Si number density = 21.786773 Si / 1000 Ang^3
#
#
#
# Elastic Constant Matrix: (Units=GPa)
#
#
# Indices 1 2 3 4 5 6 
#
# 1 56.9999 -2.3479 -0.2735 0.0000 0.0000 0.0000
# 2 -2.3479 56.9999 -0.2735 0.0000 0.0000 0.0000
# 3 -0.2735 -0.2735 89.7060 0.0000 0.0000 0.0000
# 4 0.0000 0.0000 0.0000 24.5385 0.0000 0.0000
# 5 0.0000 0.0000 0.0000 0.0000 24.5385 0.0000
# 6 0.0000 0.0000 0.0000 0.0000 0.0000 29.6739
#
#
#
# Elastic Compliance Matrix: (Units=1/GPa)
#
#
# Indices 1 2 3 4 5 6 
#
# 1 0.017574 0.000724 0.000056 0.000000 0.000000 0.000000
# 2 0.000724 0.017574 0.000056 0.000000 0.000000 0.000000
# 3 0.000056 0.000056 0.011148 0.000000 0.000000 0.000000
# 4 0.000000 0.000000 0.000000 0.040752 0.000000 0.000000
# 5 0.000000 0.000000 0.000000 0.000000 0.040752 0.000000
# 6 0.000000 0.000000 0.000000 0.000000 0.000000 0.033700
#
#
# Mechanical properties :
#
#
# Convention : Reuss Voigt Hill
#
# Bulk Modulus (GPa) = 20.84754 21.99068 21.41911
# Shear Modulus (GPa) = 28.43852 29.52354 28.98103
#
# Velocity S-wave (km/s) = 3.61683 3.68518 3.65116
# Velocity P-wave (km/s) = 5.19919 5.31252 5.25616
#
# Compressibility (1/GPa) = 0.04796729
#
# Stress axis : x y z
#
# Youngs Moduli (GPa) = 56.90228 56.90228 89.70328
#
# Poissons Ratio (x) = -0.04121 -0.00500
# Poissons Ratio (y) = -0.04121 -0.00500
# Poissons Ratio (z) = -0.00317 -0.00317
#
# Static dielectric constant tensor:
#      x y z
#    x 1.775370 0.000000 0.000000 
#    y 0.000000 1.775370 0.000000 
#    z 0.000000 0.000000 1.807600 
# 
# From -- ./inp_files/3485.got.cif
#   From: 2010.05.17/outbox.cif.g08.bks.cpg/sg182_2_cif.got.tgz:3485.got - 2010.05.20 11:58:53.
