data_PCOD9584551
_publ_section_title
;
Structure prediction by ZEFSAII (Michael W. Deem and Ramdas Pophale) SiO2 
 PCOD9584551
Probable space group: P 64 2 2
;
_chemical_formula_sum "Si O2"
_cell_formula_units_Z 27
_cell_length_a 13.920182
_cell_length_b 13.920182
_cell_length_c 8.254788
_cell_angle_alpha 90.000000
_cell_angle_beta 90.000000
_cell_angle_gamma 120.000000
_cell_volume 1385.244335
_symmetry_space_group_name_H-M "P 64 2 2"
_symmetry_group_IT_number 181
_symmetry_cell_setting 'hexagonal'
loop_
_space_group_symop_operation_xyz
x,y,z
x-y,x,2/3+z
-y,x-y,1/3+z
-x,-y,z
-x+y,-x,2/3+z
y,-x+y,1/3+z
x-y,-y,-z
-x,-x+y,2/3-z
y,x,1/3-z
-y,-x,1/3-z
-x+y,y,-z
x,x-y,2/3-z
loop_
_atom_site_type_symbol
_atom_site_label
_atom_site_fract_x
_atom_site_fract_y
_atom_site_fract_z
Si Si1 0.454533 0.819454 0.251568
Si Si2 0.873682 0.287063 0.279097
Si Si3 0.000000 0.500000 0.833334
O O1 0.397547 0.698774 0.333334
O O2 0.373123 0.853543 0.162255
O O3 0.517192 0.916715 0.383563
O O4 0.535059 0.815038 0.116240
O O5 0.821069 0.178932 0.166667
O O6 0.000000 0.338948 0.333334
#
# Coordination Sequence:
#
# PCOD9584551 Si02
#       3
#    12  12   3
#     4  11  23  37  59  88 129 185 234 287 345 419
#     4  11  23  42  59  89 132 179 237 290 350 434
#     4  12  20  38  56  92 128 170 258 284 332 456
#
# _framework density 19.491146000000001
#
# number of rings (size 3 to 8) (size 9 to 14) (size 15 to 20)
#    0.000    0.889    4.444    4.000    9.333    0.000 
#    0.000    0.000    0.000    0.000    0.000    0.000 
#    0.000   12.444    0.000    0.000    0.000    0.000 
#
# Total GULP energy -150720.807770 kJ/mol
# GULP energy per Si atom -5582.252140 kJ/mol
# Density = 1.944678 g / cm^3
# Si number density = 19.491146 Si / 1000 Ang^3
#
#
#
# Elastic Constant Matrix: (Units=GPa)
#
#
# Indices 1 2 3 4 5 6 
#
# 1 98.9094 48.2192 53.1411 0.0000 0.0000 0.0000
# 2 48.2192 98.9094 53.1411 0.0000 0.0000 0.0000
# 3 53.1411 53.1411 141.9402 0.0000 0.0000 0.0000
# 4 0.0000 0.0000 0.0000 48.1242 0.0000 0.0000
# 5 0.0000 0.0000 0.0000 0.0000 48.1242 0.0000
# 6 0.0000 0.0000 0.0000 0.0000 0.0000 25.3451
#
#
#
# Elastic Compliance Matrix: (Units=1/GPa)
#
#
# Indices 1 2 3 4 5 6 
#
# 1 0.014522 -0.005206 -0.003488 0.000000 0.000000 0.000000
# 2 -0.005206 0.014522 -0.003488 0.000000 0.000000 0.000000
# 3 -0.003488 -0.003488 0.009657 0.000000 0.000000 0.000000
# 4 0.000000 0.000000 0.000000 0.020780 0.000000 0.000000
# 5 0.000000 0.000000 0.000000 0.000000 0.020780 0.000000
# 6 0.000000 0.000000 0.000000 0.000000 0.000000 0.039455
#
#
# Mechanical properties :
#
#
# Convention : Reuss Voigt Hill
#
# Bulk Modulus (GPa) = 69.74538 72.08461 70.91500
# Shear Modulus (GPa) = 33.58906 36.66921 35.12913
#
# Velocity S-wave (km/s) = 4.15577 4.34213 4.24997
# Velocity P-wave (km/s) = 7.67385 7.88685 7.78108
#
# Compressibility (1/GPa) = 0.01433787
#
# Stress axis : x y z
#
# Youngs Moduli (GPa) = 68.86085 68.86085 103.55232
#
# Poissons Ratio (x) = 0.35846 0.36119
# Poissons Ratio (y) = 0.35846 0.36119
# Poissons Ratio (z) = 0.24019 0.24019
#
# Static dielectric constant tensor:
#      x y z
#    x 1.723280 0.000000 0.000000 
#    y 0.000000 1.723280 0.000000 
#    z 0.000000 0.000000 1.775920 
# 
# From -- ./inp_files/2029.got.cif
#   From: 2010.05.17/outbox.cif.g08.bks.cpg/sg181_2_cif.got.tgz:2029.got - 2010.05.20 11:51:17.
