data_PCOD9584903
_publ_section_title
;
Structure prediction by ZEFSAII (Michael W. Deem and Ramdas Pophale) SiO2 
 PCOD9584903
Probable space group: P 63 2 2
;
_chemical_formula_sum "Si O2"
_cell_formula_units_Z 24
_cell_length_a 8.261778
_cell_length_b 8.261778
_cell_length_c 15.241559
_cell_angle_alpha 90.000000
_cell_angle_beta 90.000000
_cell_angle_gamma 120.000000
_cell_volume 900.963226
_symmetry_space_group_name_H-M "P 63 2 2"
_symmetry_group_IT_number 182
_symmetry_cell_setting 'hexagonal'
loop_
_space_group_symop_operation_xyz
x,y,z
x-y,x,1/2+z
-y,x-y,z
-x,-y,1/2+z
-x+y,-x,z
y,-x+y,1/2+z
x-y,-y,-z
-x,-x+y,-z
y,x,-z
-y,-x,1/2-z
-x+y,y,1/2-z
x,x-y,1/2-z
loop_
_atom_site_type_symbol
_atom_site_label
_atom_site_fract_x
_atom_site_fract_y
_atom_site_fract_z
Si Si1 0.969531 0.285735 0.168539
Si Si2 0.636571 0.641944 0.402102
O O1 0.860458 0.139543 0.250000
O O2 0.188570 0.373389 0.145710
O O3 0.938215 0.461027 0.158986
O O4 0.854214 0.144616 0.091160
O O5 0.568955 0.568955 0.500000
#
# Coordination Sequence:
#
# PCOD9584903 Si02
#       2
#    12  12
#     4  12  27  48  78 116 159 207 262 324 394 469
#     4  12  25  48  77 114 157 207 262 326 393 467
#
# _framework density 26.638159000000002
#
# number of rings (size 3 to 8) (size 9 to 14) (size 15 to 20)
#    0.000    0.000    0.000   10.500    0.000    0.000 
#    0.000    5.000    0.000    0.000    0.000    0.000 
#    0.000    0.000    0.000    0.000    0.000    0.000 
#
# Total GULP energy -133733.565633 kJ/mol
# GULP energy per Si atom -5572.231901 kJ/mol
# Density = 2.657753 g / cm^3
# Si number density = 26.638159 Si / 1000 Ang^3
#
#
#
# Elastic Constant Matrix: (Units=GPa)
#
#
# Indices 1 2 3 4 5 6 
#
# 1 126.8767 27.8089 37.7629 0.0000 0.0000 0.0000
# 2 27.8089 126.8767 37.7629 0.0000 0.0000 0.0000
# 3 37.7629 37.7629 208.5129 0.0000 0.0000 0.0000
# 4 0.0000 0.0000 0.0000 36.8124 0.0000 0.0000
# 5 0.0000 0.0000 0.0000 0.0000 36.8124 0.0000
# 6 0.0000 0.0000 0.0000 0.0000 0.0000 49.5339
#
#
#
# Elastic Compliance Matrix: (Units=1/GPa)
#
#
# Indices 1 2 3 4 5 6 
#
# 1 0.008593 -0.001501 -0.001284 0.000000 0.000000 0.000000
# 2 -0.001501 0.008593 -0.001284 0.000000 0.000000 0.000000
# 3 -0.001284 -0.001284 0.005261 0.000000 0.000000 0.000000
# 4 0.000000 0.000000 0.000000 0.027165 0.000000 0.000000
# 5 0.000000 0.000000 0.000000 0.000000 0.027165 0.000000
# 6 0.000000 0.000000 0.000000 0.000000 0.000000 0.020188
#
#
# Mechanical properties :
#
#
# Convention : Reuss Voigt Hill
#
# Bulk Modulus (GPa) = 69.89463 74.32616 72.11039
# Shear Modulus (GPa) = 45.50684 48.56051 47.03367
#
# Velocity S-wave (km/s) = 4.13768 4.27425 4.20652
# Velocity P-wave (km/s) = 7.00876 7.23338 7.12195
#
# Compressibility (1/GPa) = 0.01430725
#
# Stress axis : x y z
#
# Youngs Moduli (GPa) = 116.37437 116.37437 190.07503
#
# Poissons Ratio (x) = 0.17469 0.24413
# Poissons Ratio (y) = 0.17469 0.24413
# Poissons Ratio (z) = 0.14947 0.14947
#
# Static dielectric constant tensor:
#      x y z
#    x 2.071110 0.000000 0.000000 
#    y 0.000000 2.071110 0.000000 
#    z 0.000000 0.000000 2.255670 
# 
# From -- ./inp_files/3839.got.cif
#   From: 2010.05.17/outbox.cif.g08.bks.cpg/sg182_2_cif.got.tgz:3839.got - 2010.05.20 11:58:53.
