data_PCOD9584068
_publ_section_title
;
Structure prediction by ZEFSAII (Michael W. Deem and Ramdas Pophale) SiO2 
 PCOD9584068
Probable space group: P 62 2 2
;
_chemical_formula_sum "Si O2"
_cell_formula_units_Z 72
_cell_length_a 12.094003
_cell_length_b 12.094003
_cell_length_c 31.700642
_cell_angle_alpha 90.000000
_cell_angle_beta 90.000000
_cell_angle_gamma 120.000000
_cell_volume 4015.492632
_symmetry_space_group_name_H-M "P 62 2 2"
_symmetry_group_IT_number 180
_symmetry_cell_setting 'hexagonal'
loop_
_space_group_symop_operation_xyz
x,y,z
x-y,x,1/3+z
-y,x-y,2/3+z
-x,-y,z
-x+y,-x,1/3+z
y,-x+y,2/3+z
x-y,-y,-z
-x,-x+y,1/3-z
y,x,2/3-z
-y,-x,2/3-z
-x+y,y,-z
x,x-y,1/3-z
loop_
_atom_site_type_symbol
_atom_site_label
_atom_site_fract_x
_atom_site_fract_y
_atom_site_fract_z
Si Si1 0.203793 0.531494 0.955794
Si Si2 0.644367 0.050826 0.412382
Si Si3 0.998546 0.199038 0.468335
Si Si4 0.725616 0.000000 0.500000
Si Si5 0.078091 0.384014 0.391982
Si Si6 0.821984 0.785710 0.681359
Si Si7 0.000000 0.000000 0.929730
O O1 0.275334 0.480368 0.925096
O O2 0.181549 0.647282 0.941694
O O3 0.058212 0.416303 0.959357
O O4 0.278392 0.556784 0.000000
O O5 0.652441 0.003023 0.458654
O O6 0.500000 0.000000 0.399838
O O7 0.702223 0.988799 0.381381
O O8 0.865891 0.127065 0.494467
O O9 0.110294 0.220588 0.500000
O O10 0.042779 0.323114 0.438943
O O11 0.979041 0.093294 0.433556
O O12 0.110813 0.304000 0.358213
O O13 0.950380 0.874245 0.708109
O O14 0.792102 0.896051 0.666667
#
# Coordination Sequence:
#
# PCOD9584068 Si02
#       7
#    12  12  12   6  12  12   6
#     4  11  20  38  59  87 119 157 198 254 317 369
#     4  12  22  36  58  85 120 159 204 257 307 366
#     4  12  21  37  57  85 118 159 195 250 316 365
#     4  12  20  38  52  86 120 151 205 256 302 368
#     4  11  22  34  60  88 119 153 198 252 308 385
#     4  12  19  32  54  91 120 143 189 253 316 371
#     4  12  20  32  56  86 125 145 190 260 312 368
#
# _framework density 17.930551999999999
#
# number of rings (size 3 to 8) (size 9 to 14) (size 15 to 20)
#    0.000    0.333   10.000    1.500    0.000    0.000 
#    0.000    1.667    0.000    0.000    0.000    5.833 
#    0.000    0.000    0.000    0.000    0.000    0.000 
#
# Total GULP energy -401382.314435 kJ/mol
# GULP energy per Si atom -5574.754367 kJ/mol
# Density = 1.788974 g / cm^3
# Si number density = 17.930552 Si / 1000 Ang^3
#
#
#
# Elastic Constant Matrix: (Units=GPa)
#
#
# Indices 1 2 3 4 5 6 
#
# 1 84.9002 26.8453 26.6596 0.0000 0.0000 0.0000
# 2 26.8453 84.9002 26.6596 0.0000 0.0000 0.0000
# 3 26.6596 26.6596 100.5670 0.0000 0.0000 0.0000
# 4 0.0000 0.0000 0.0000 9.2915 0.0000 0.0000
# 5 0.0000 0.0000 0.0000 0.0000 9.2915 0.0000
# 6 0.0000 0.0000 0.0000 0.0000 0.0000 29.0274
#
#
#
# Elastic Compliance Matrix: (Units=1/GPa)
#
#
# Indices 1 2 3 4 5 6 
#
# 1 0.013735 -0.003490 -0.002716 0.000000 0.000000 0.000000
# 2 -0.003490 0.013735 -0.002716 0.000000 0.000000 0.000000
# 3 -0.002716 -0.002716 0.011384 0.000000 0.000000 0.000000
# 4 0.000000 0.000000 0.000000 0.107625 0.000000 0.000000
# 5 0.000000 0.000000 0.000000 0.000000 0.107625 0.000000
# 6 0.000000 0.000000 0.000000 0.000000 0.000000 0.034450
#
#
# Mechanical properties :
#
#
# Convention : Reuss Voigt Hill
#
# Bulk Modulus (GPa) = 47.59693 47.85516 47.72605
# Shear Modulus (GPa) = 15.95404 22.20228 19.07816
#
# Velocity S-wave (km/s) = 2.98613 3.52268 3.26544
# Velocity P-wave (km/s) = 6.20420 6.57973 6.39472
#
# Compressibility (1/GPa) = 0.02100976
#
# Stress axis : x y z
#
# Youngs Moduli (GPa) = 72.80712 72.80712 87.84632
#
# Poissons Ratio (x) = 0.25411 0.23857
# Poissons Ratio (y) = 0.25411 0.23857
# Poissons Ratio (z) = 0.19773 0.19773
#
# Static dielectric constant tensor:
#      x y z
#    x 1.648840 0.000000 0.000000 
#    y 0.000000 1.648840 0.000000 
#    z 0.000000 0.000000 1.665130 
# 
# From -- ./inp_files/12361.got.cif
#   From: 2010.05.17/outbox.cif.g08.bks.cpg/sg180_7_cif.got.tgz:12361.got - 2010.05.20 11:43:55.
