data_PCOD9584905
_publ_section_title
;
Structure prediction by ZEFSAII (Michael W. Deem and Ramdas Pophale) SiO2 
 PCOD9584905
Probable space group: P 63 2 2
;
_chemical_formula_sum "Si O2"
_cell_formula_units_Z 96
_cell_length_a 19.477485
_cell_length_b 19.477485
_cell_length_c 14.398739
_cell_angle_alpha 90.000000
_cell_angle_beta 90.000000
_cell_angle_gamma 120.000000
_cell_volume 4730.650334
_symmetry_space_group_name_H-M "P 63 2 2"
_symmetry_group_IT_number 182
_symmetry_cell_setting 'hexagonal'
loop_
_space_group_symop_operation_xyz
x,y,z
x-y,x,1/2+z
-y,x-y,z
-x,-y,1/2+z
-x+y,-x,z
y,-x+y,1/2+z
x-y,-y,-z
-x,-x+y,-z
y,x,-z
-y,-x,1/2-z
-x+y,y,1/2-z
x,x-y,1/2-z
loop_
_atom_site_type_symbol
_atom_site_label
_atom_site_fract_x
_atom_site_fract_y
_atom_site_fract_z
Si Si1 0.754711 0.091876 0.859202
Si Si2 0.997033 0.576059 0.863391
Si Si3 0.997033 0.420974 0.863391
Si Si4 0.156171 0.155530 0.388427
Si Si5 0.754711 0.091876 0.640798
Si Si6 0.999359 0.155530 0.388427
Si Si7 0.332014 0.821249 0.863027
Si Si8 0.510765 0.178751 0.363027
O O1 0.667494 0.060635 0.897941
O O2 0.750972 0.107052 0.750000
O O3 0.828335 0.171665 0.900726
O O4 0.778869 0.023866 0.864055
O O5 0.976175 0.488087 0.892223
O O6 0.995369 0.575828 0.750000
O O7 0.088076 0.636606 0.889796
O O8 0.939365 0.332506 0.897941
O O9 0.088076 0.451470 0.889796
O O10 0.152346 0.152346 0.500000
O O11 0.221131 0.244996 0.364055
O O12 0.171291 0.085646 0.356624
O O13 0.071126 0.142252 0.355807
O O14 0.000000 0.152346 0.500000
O O15 0.400909 0.801819 0.889866
O O16 0.246295 0.753705 0.896618
O O17 0.329782 0.819997 0.750000
#
# Coordination Sequence:
#
# PCOD9584905 Si02
#       8
#    12  12  12  12  12  12  12  12
#     4   9  17  28  42  61  83 106 134 171 214 252
#     4   8  14  24  37  53  75 104 133 159 194 242
#     4   8  14  24  37  53  75 104 133 159 194 242
#     4   9  17  29  44  61  83 113 146 175 203 240
#     4   9  17  28  42  61  83 106 134 171 214 252
#     4   9  17  29  44  61  83 113 146 175 203 240
#     4   8  12  17  26  42  65  93 123 151 177 209
#     4   8  12  17  26  42  65  93 123 151 177 209
#
# _framework density 20.293192999999999
#
# number of rings (size 3 to 8) (size 9 to 14) (size 15 to 20)
#    0.000    3.500    0.000    2.000    0.000    3.500 
#    0.000    2.500    0.000    2.750    0.000    3.500 
#    0.000    0.000    0.000    0.500    0.000    3.000 
#
# Total GULP energy -535186.553991 kJ/mol
# GULP energy per Si atom -5574.859937 kJ/mol
# Density = 2.024700 g / cm^3
# Si number density = 20.293193 Si / 1000 Ang^3
#
#
#
# Elastic Constant Matrix: (Units=GPa)
#
#
# Indices 1 2 3 4 5 6 
#
# 1 -716.9094 977.8654 1.9534 0.0000 0.0000 0.0000
# 2 977.8654 -716.9094 1.9534 0.0000 0.0000 0.0000
# 3 1.9534 1.9534 54.8728 0.0000 0.0000 0.0000
# 4 0.0000 0.0000 0.0000 4.4411 0.0000 0.0000
# 5 0.0000 0.0000 0.0000 0.0000 4.4411 0.0000
# 6 0.0000 0.0000 0.0000 0.0000 0.0000 -847.3874
#
#
#
# Elastic Compliance Matrix: (Units=1/GPa)
#
#
# Indices 1 2 3 4 5 6 
#
# 1 0.001622 0.002212 -0.000136 0.000000 0.000000 0.000000
# 2 0.002212 0.001622 -0.000136 0.000000 0.000000 0.000000
# 3 -0.000136 -0.000136 0.018234 0.000000 0.000000 0.000000
# 4 0.000000 0.000000 0.000000 0.225171 0.000000 0.000000
# 5 0.000000 0.000000 0.000000 0.000000 0.225171 0.000000
# 6 0.000000 0.000000 0.000000 0.000000 0.000000 -0.001180
#
#
# Mechanical properties :
#
#
# Convention : Reuss Voigt Hill
#
# Bulk Modulus (GPa) = 39.43851 64.95539 52.19695
# Shear Modulus (GPa) = 10.52160 -325.08226 -157.28033
#
# Velocity S-wave (km/s) = 2.27948 -12.67046 -8.81319
# Velocity P-wave (km/s) = 5.13854 13.48985 8.81962
#
# Compressibility (1/GPa) = 0.02535593
#
# Stress axis : x y z
#
# Youngs Moduli (GPa) = 616.51178 616.51178 54.84359
#
# Poissons Ratio (x) = -1.36377 0.00749
# Poissons Ratio (y) = -1.36377 0.00749
# Poissons Ratio (z) = 0.08415 0.08415
#
# Static dielectric constant tensor:
#      x y z
#    x 1.716330 0.000000 0.000000 
#    y 0.000000 1.716330 0.000000 
#    z 0.000000 0.000000 1.762040 
# 
# From -- ./inp_files/5036.got.cif
#   From: 2010.05.17/outbox.cif.g08.bks.cpg/sg182_3_cif.got.tgz:5036.got - 2010.05.20 11:58:53.
