data_PCOD9584069
_publ_section_title
;
Structure prediction by ZEFSAII (Michael W. Deem and Ramdas Pophale) SiO2 
 PCOD9584069
Probable space group: P 62 2 2
;
_chemical_formula_sum "Si O2"
_cell_formula_units_Z 48
_cell_length_a 11.447328
_cell_length_b 11.447328
_cell_length_c 19.966933
_cell_angle_alpha 90.000000
_cell_angle_beta 90.000000
_cell_angle_gamma 120.000000
_cell_volume 2265.949600
_symmetry_space_group_name_H-M "P 62 2 2"
_symmetry_group_IT_number 180
_symmetry_cell_setting 'hexagonal'
loop_
_space_group_symop_operation_xyz
x,y,z
x-y,x,1/3+z
-y,x-y,2/3+z
-x,-y,z
-x+y,-x,1/3+z
y,-x+y,2/3+z
x-y,-y,-z
-x,-x+y,1/3-z
y,x,2/3-z
-y,-x,2/3-z
-x+y,y,-z
x,x-y,1/3-z
loop_
_atom_site_type_symbol
_atom_site_label
_atom_site_fract_x
_atom_site_fract_y
_atom_site_fract_z
Si Si1 0.182044 0.552318 0.089228
Si Si2 0.146790 0.941600 0.137314
Si Si3 0.649130 0.927890 0.369024
Si Si4 0.415428 0.344120 0.569879
O O1 0.185036 0.592518 0.166667
O O2 0.178486 0.669294 0.046119
O O3 0.301102 0.522488 0.073885
O O4 0.051865 0.402990 0.076424
O O5 0.124650 0.872163 0.063314
O O6 0.258867 0.919352 0.172130
O O7 0.000000 0.843756 0.166667
O O8 0.174301 0.087151 0.166667
O O9 0.682899 0.988771 0.294451
O O10 0.500000 0.500000 0.555284
#
# Coordination Sequence:
#
# PCOD9584069 Si02
#       4
#    12  12  12  12
#     4  11  20  38  66  96 129 171 219 288 350 406
#     4  11  24  42  63  91 135 183 228 284 354 420
#     4  11  21  39  68  99 127 170 232 289 344 416
#     4  12  25  38  67 103 136 175 238 288 351 435
#
# _framework density 21.183173
#
# number of rings (size 3 to 8) (size 9 to 14) (size 15 to 20)
#    0.000    0.750    7.500    2.250    0.000    2.000 
#    0.000    2.500    0.000    0.000    0.000    0.000 
#    0.000    0.000    0.000    0.000    0.000    0.000 
#
# Total GULP energy -267311.758376 kJ/mol
# GULP energy per Si atom -5568.994966 kJ/mol
# Density = 2.113496 g / cm^3
# Si number density = 21.183173 Si / 1000 Ang^3
#
#
#
# Elastic Constant Matrix: (Units=GPa)
#
#
# Indices 1 2 3 4 5 6 
#
# 1 86.7711 30.6917 4.4625 0.0000 0.0000 0.0000
# 2 30.6917 86.7711 4.4625 0.0000 0.0000 0.0000
# 3 4.4625 4.4625 72.0661 0.0000 0.0000 0.0000
# 4 0.0000 0.0000 0.0000 18.3714 0.0000 0.0000
# 5 0.0000 0.0000 0.0000 0.0000 18.3714 0.0000
# 6 0.0000 0.0000 0.0000 0.0000 0.0000 28.0397
#
#
#
# Elastic Compliance Matrix: (Units=1/GPa)
#
#
# Indices 1 2 3 4 5 6 
#
# 1 0.013193 -0.004639 -0.000530 0.000000 0.000000 0.000000
# 2 -0.004639 0.013193 -0.000530 0.000000 0.000000 0.000000
# 3 -0.000530 -0.000530 0.013942 0.000000 0.000000 0.000000
# 4 0.000000 0.000000 0.000000 0.054432 0.000000 0.000000
# 5 0.000000 0.000000 0.000000 0.000000 0.054432 0.000000
# 6 0.000000 0.000000 0.000000 0.000000 0.000000 0.035664
#
#
# Mechanical properties :
#
#
# Convention : Reuss Voigt Hill
#
# Bulk Modulus (GPa) = 34.56588 36.09353 35.32970
# Shear Modulus (GPa) = 24.28408 26.68926 25.48667
#
# Velocity S-wave (km/s) = 3.38950 3.55340 3.47242
# Velocity P-wave (km/s) = 5.62773 5.82334 5.72637
#
# Compressibility (1/GPa) = 0.02893026
#
# Stress axis : x y z
#
# Youngs Moduli (GPa) = 75.79937 75.79937 71.72703
#
# Poissons Ratio (x) = 0.35164 0.03799
# Poissons Ratio (y) = 0.35164 0.03799
# Poissons Ratio (z) = 0.04015 0.04015
#
# Static dielectric constant tensor:
#      x y z
#    x 1.838890 0.000000 0.000000 
#    y 0.000000 1.838890 0.000000 
#    z 0.000000 0.000000 1.814100 
# 
# From -- ./inp_files/8678.got.cif
#   From: 2010.05.17/outbox.cif.g08.bks.cpg/sg180_5_cif.got.tgz:8678.got - 2010.05.20 11:43:55.
