data_PCOD9584470
_publ_section_title
;
Structure prediction by ZEFSAII (Michael W. Deem and Ramdas Pophale) SiO2 
 PCOD9584470
Probable space group: P 64 2 2
;
_chemical_formula_sum "Si O2"
_cell_formula_units_Z 42
_cell_length_a 8.417546
_cell_length_b 8.417546
_cell_length_c 28.381992
_cell_angle_alpha 90.000000
_cell_angle_beta 90.000000
_cell_angle_gamma 120.000000
_cell_volume 1741.584303
_symmetry_space_group_name_H-M "P 64 2 2"
_symmetry_group_IT_number 181
_symmetry_cell_setting 'hexagonal'
loop_
_space_group_symop_operation_xyz
x,y,z
x-y,x,2/3+z
-y,x-y,1/3+z
-x,-y,z
-x+y,-x,2/3+z
y,-x+y,1/3+z
x-y,-y,-z
-x,-x+y,2/3-z
y,x,1/3-z
-y,-x,1/3-z
-x+y,y,-z
x,x-y,2/3-z
loop_
_atom_site_type_symbol
_atom_site_label
_atom_site_fract_x
_atom_site_fract_y
_atom_site_fract_z
Si Si1 0.722598 0.277403 0.166667
Si Si2 0.105960 0.385472 0.876613
Si Si3 0.708271 0.065769 0.704908
Si Si4 0.500000 0.500000 0.753590
Si Si5 0.000000 0.717619 0.333334
O O1 0.530545 0.223847 0.191322
O O2 0.664073 0.135729 0.122683
O O3 0.143099 0.297818 0.920747
O O4 0.000000 0.500000 0.886770
O O5 0.000000 0.255050 0.833334
O O6 0.772576 0.227425 0.666667
O O7 0.500000 0.000000 0.718666
O O8 0.724704 0.900221 0.683828
O O9 0.339970 0.412941 0.713888
#
# Coordination Sequence:
#
# PCOD9584470 Si02
#       5
#     6  12  12   6   6
#     4  10  23  42  78 108 141 196 256 310 385 446
#     4   9  22  45  76 106 142 191 255 315 377 457
#     4  12  27  46  78 108 153 209 252 313 394 466
#     4  11  26  46  74 114 158 196 254 329 380 472
#     4  11  29  48  72 116 164 196 264 318 388 470
#
# _framework density 24.115971999999999
#
# number of rings (size 3 to 8) (size 9 to 14) (size 15 to 20)
#    0.000    1.714    0.000    3.000   22.000    0.000 
#    0.000    0.000    0.000    0.000    0.000    0.000 
#    0.000    0.000    0.000    0.000    0.000    0.000 
#
# Total GULP energy -234376.871861 kJ/mol
# GULP energy per Si atom -5580.401711 kJ/mol
# Density = 2.406108 g / cm^3
# Si number density = 24.115972 Si / 1000 Ang^3
#
#
#
# Elastic Constant Matrix: (Units=GPa)
#
#
# Indices 1 2 3 4 5 6 
#
# 1 81.4981 39.1254 77.3317 0.0000 0.0000 0.0000
# 2 39.1254 81.4981 77.3317 0.0000 0.0000 0.0000
# 3 77.3317 77.3317 213.0623 0.0000 0.0000 0.0000
# 4 0.0000 0.0000 0.0000 49.8426 0.0000 0.0000
# 5 0.0000 0.0000 0.0000 0.0000 49.8426 0.0000
# 6 0.0000 0.0000 0.0000 0.0000 0.0000 21.1864
#
#
#
# Elastic Compliance Matrix: (Units=1/GPa)
#
#
# Indices 1 2 3 4 5 6 
#
# 1 0.019553 -0.004047 -0.005628 0.000000 0.000000 0.000000
# 2 -0.004047 0.019553 -0.005628 0.000000 0.000000 0.000000
# 3 -0.005628 -0.005628 0.008779 0.000000 0.000000 0.000000
# 4 0.000000 0.000000 0.000000 0.020063 0.000000 0.000000
# 5 0.000000 0.000000 0.000000 0.000000 0.020063 0.000000
# 6 0.000000 0.000000 0.000000 0.000000 0.000000 0.047200
#
#
# Mechanical properties :
#
#
# Convention : Reuss Voigt Hill
#
# Bulk Modulus (GPa) = 57.87153 84.84843 71.35998
# Shear Modulus (GPa) = 29.14119 36.32565 32.73342
#
# Velocity S-wave (km/s) = 3.47994 3.88531 3.68820
# Velocity P-wave (km/s) = 6.34003 7.44227 6.91315
#
# Compressibility (1/GPa) = 0.01727965
#
# Stress axis : x y z
#
# Youngs Moduli (GPa) = 51.14192 51.14192 113.90769
#
# Poissons Ratio (x) = 0.20695 0.64110
# Poissons Ratio (y) = 0.20695 0.64110
# Poissons Ratio (z) = 0.28784 0.28784
#
# Static dielectric constant tensor:
#      x y z
#    x 1.969410 0.000000 0.000000 
#    y 0.000000 1.969410 0.000000 
#    z 0.000000 0.000000 2.026350 
# 
# From -- ./inp_files/12008.got.cif
#   From: 2010.05.17/outbox.cif.g08.bks.cpg/sg181_7_cif.got.tgz:12008.got - 2010.05.20 11:51:17.
