data_PCOD9584184
_publ_section_title
;
Structure prediction by ZEFSAII (Michael W. Deem and Ramdas Pophale) SiO2 
 PCOD9584184
Probable space group: P 62 2 2
;
_chemical_formula_sum "Si O2"
_cell_formula_units_Z 42
_cell_length_a 19.811335
_cell_length_b 19.811335
_cell_length_c 6.002830
_cell_angle_alpha 90.000000
_cell_angle_beta 90.000000
_cell_angle_gamma 120.000000
_cell_volume 2040.394572
_symmetry_space_group_name_H-M "P 62 2 2"
_symmetry_group_IT_number 180
_symmetry_cell_setting 'hexagonal'
loop_
_space_group_symop_operation_xyz
x,y,z
x-y,x,1/3+z
-y,x-y,2/3+z
-x,-y,z
-x+y,-x,1/3+z
y,-x+y,2/3+z
x-y,-y,-z
-x,-x+y,1/3-z
y,x,2/3-z
-y,-x,2/3-z
-x+y,y,-z
x,x-y,1/3-z
loop_
_atom_site_type_symbol
_atom_site_label
_atom_site_fract_x
_atom_site_fract_y
_atom_site_fract_z
Si Si1 0.516477 0.328037 0.783561
Si Si2 0.790545 0.209456 0.833334
Si Si3 0.000000 0.782005 0.166667
Si Si4 0.853156 0.926578 0.166667
Si Si5 0.743767 0.635000 0.112052
O O1 0.587988 0.412013 0.833334
O O2 0.544269 0.272135 0.666667
O O3 0.448244 0.327606 0.631979
O O4 0.473825 0.279900 0.004575
O O5 0.871267 0.238802 0.703228
O O6 0.946769 0.803959 0.321962
O O7 0.040232 0.752045 0.342753
O O8 0.902804 0.902804 0.333334
O O9 0.816186 0.632371 0.000000
#
# Coordination Sequence:
#
# PCOD9584184 Si02
#       5
#    12   6   6   6  12
#     4   9  19  31  54  89 128 164 209 260 316 376
#     4   8  18  37  58  85 128 167 206 255 312 373
#     4  12  26  43  67  92 122 164 214 260 322 380
#     4  12  28  46  68  97 130 158 194 254 318 375
#     4   9  20  39  58  86 120 162 211 257 309 382
#
# _framework density 20.584253
#
# number of rings (size 3 to 8) (size 9 to 14) (size 15 to 20)
#    0.000    2.857    0.000    2.571    2.000   16.571 
#    0.000    0.714    0.000    0.000    0.000   28.000 
#    0.000    0.000    0.000    0.000    0.000    0.000 
#
# Total GULP energy -234076.077787 kJ/mol
# GULP energy per Si atom -5573.239947 kJ/mol
# Density = 2.053740 g / cm^3
# Si number density = 20.584253 Si / 1000 Ang^3
#
#
#
# Elastic Constant Matrix: (Units=GPa)
#
#
# Indices 1 2 3 4 5 6 
#
# 1 115.9611 75.5746 61.4331 0.0000 0.0000 0.0000
# 2 75.5746 115.9611 61.4331 0.0000 0.0000 0.0000
# 3 61.4331 61.4331 140.5971 0.0000 0.0000 0.0000
# 4 0.0000 0.0000 0.0000 18.3326 0.0000 0.0000
# 5 0.0000 0.0000 0.0000 0.0000 18.3326 0.0000
# 6 0.0000 0.0000 0.0000 0.0000 0.0000 20.1932
#
#
#
# Elastic Compliance Matrix: (Units=1/GPa)
#
#
# Indices 1 2 3 4 5 6 
#
# 1 0.016008 -0.008753 -0.003170 0.000000 0.000000 0.000000
# 2 -0.008753 0.016008 -0.003170 0.000000 0.000000 0.000000
# 3 -0.003170 -0.003170 0.009882 0.000000 0.000000 0.000000
# 4 0.000000 0.000000 0.000000 0.054548 0.000000 0.000000
# 5 0.000000 0.000000 0.000000 0.000000 0.054548 0.000000
# 6 0.000000 0.000000 0.000000 0.000000 0.000000 0.049522
#
#
# Mechanical properties :
#
#
# Convention : Reuss Voigt Hill
#
# Bulk Modulus (GPa) = 85.38118 85.48900 85.43509
# Shear Modulus (GPa) = 21.31255 22.97693 22.14474
#
# Velocity S-wave (km/s) = 3.22122 3.34464 3.28351
# Velocity P-wave (km/s) = 7.44338 7.51910 7.48134
#
# Compressibility (1/GPa) = 0.01171218
#
# Stress axis : x y z
#
# Youngs Moduli (GPa) = 62.47067 62.47067 101.18902
#
# Poissons Ratio (x) = 0.54682 0.32074
# Poissons Ratio (y) = 0.54682 0.32074
# Poissons Ratio (z) = 0.19801 0.19801
#
# Static dielectric constant tensor:
#      x y z
#    x 1.802680 0.000000 0.000000 
#    y 0.000000 1.802680 0.000000 
#    z 0.000000 0.000000 1.860210 
# 
# From -- ./inp_files/890.got.cif
#   From: 2010.05.17/outbox.cif.g08.bks.cpg/sg180_1_cif.got.tgz:890.got - 2010.05.20 11:43:55.
