data_PCOD9584526
_publ_section_title
;
Structure prediction by ZEFSAII (Michael W. Deem and Ramdas Pophale) SiO2 
 PCOD9584526
Probable space group: P 64 2 2
;
_chemical_formula_sum "Si O2"
_cell_formula_units_Z 84
_cell_length_a 18.743041
_cell_length_b 18.743041
_cell_length_c 13.404348
_cell_angle_alpha 90.000000
_cell_angle_beta 90.000000
_cell_angle_gamma 120.000000
_cell_volume 4078.086529
_symmetry_space_group_name_H-M "P 64 2 2"
_symmetry_group_IT_number 181
_symmetry_cell_setting 'hexagonal'
loop_
_space_group_symop_operation_xyz
x,y,z
x-y,x,2/3+z
-y,x-y,1/3+z
-x,-y,z
-x+y,-x,2/3+z
y,-x+y,1/3+z
x-y,-y,-z
-x,-x+y,2/3-z
y,x,1/3-z
-y,-x,1/3-z
-x+y,y,-z
x,x-y,2/3-z
loop_
_atom_site_type_symbol
_atom_site_label
_atom_site_fract_x
_atom_site_fract_y
_atom_site_fract_z
Si Si1 0.080940 0.709404 0.762855
Si Si2 0.304091 0.546034 0.611658
Si Si3 0.308399 0.378306 0.585145
Si Si4 0.794104 0.917160 0.436533
Si Si5 0.805277 0.973438 0.894417
Si Si6 0.512115 0.349454 0.097789
Si Si7 0.426938 0.012459 0.721453
O O1 0.089661 0.796958 0.742362
O O2 0.154478 0.713767 0.828134
O O3 0.000000 0.664328 0.833334
O O4 0.062822 0.650417 0.667548
O O5 0.388513 0.611488 0.666667
O O6 0.283131 0.566262 0.500000
O O7 0.298937 0.457379 0.606733
O O8 0.235099 0.540581 0.686394
O O9 0.363644 0.363644 0.666667
O O10 0.222296 0.292371 0.582058
O O11 0.348681 0.392720 0.476047
O O12 0.837260 0.918630 0.333334
O O13 0.781521 0.838772 0.498747
O O14 0.845707 0.000000 0.500000
O O15 0.823415 0.911708 0.833334
O O16 0.850240 0.000000 0.000000
O O17 0.584351 0.415649 0.166667
O O18 0.473168 0.392906 0.031248
O O19 0.500000 0.000000 0.763799
#
# Coordination Sequence:
#
# PCOD9584526 Si02
#       7
#    12  12  12  12  12  12  12
#     4   9  21  37  66 101 135 172 222 283 343 414
#     4  12  27  48  70 100 138 193 237 290 358 430
#     4  11  27  44  70 101 142 189 235 293 356 432
#     4  11  23  43  67  99 139 180 227 288 353 416
#     4  11  25  44  70 102 140 185 242 290 357 430
#     4  11  22  42  69  99 137 179 230 289 351 415
#     4  11  21  39  69 102 138 173 232 284 356 413
#
# _framework density 20.597895999999999
#
# number of rings (size 3 to 8) (size 9 to 14) (size 15 to 20)
#    0.000    1.143    2.857    2.571    6.000    1.429 
#    0.000    2.143    0.000    0.000    0.000    0.000 
#    0.000    0.000    0.000    0.000    0.000    0.000 
#
# Total GULP energy -469186.001828 kJ/mol
# GULP energy per Si atom -5585.547641 kJ/mol
# Density = 2.055101 g / cm^3
# Si number density = 20.597896 Si / 1000 Ang^3
#
#
#
# Elastic Constant Matrix: (Units=GPa)
#
#
# Indices 1 2 3 4 5 6 
#
# 1 77.1264 36.3405 46.0032 0.0000 0.0000 0.0000
# 2 36.3405 77.1264 46.0032 0.0000 0.0000 0.0000
# 3 46.0032 46.0032 147.2907 0.0000 0.0000 0.0000
# 4 0.0000 0.0000 0.0000 37.6800 0.0000 0.0000
# 5 0.0000 0.0000 0.0000 0.0000 37.6800 0.0000
# 6 0.0000 0.0000 0.0000 0.0000 0.0000 20.3929
#
#
#
# Elastic Compliance Matrix: (Units=1/GPa)
#
#
# Indices 1 2 3 4 5 6 
#
# 1 0.018160 -0.006358 -0.003686 0.000000 0.000000 0.000000
# 2 -0.006358 0.018160 -0.003686 0.000000 0.000000 0.000000
# 3 -0.003686 -0.003686 0.009092 0.000000 0.000000 0.000000
# 4 0.000000 0.000000 0.000000 0.026539 0.000000 0.000000
# 5 0.000000 0.000000 0.000000 0.000000 0.026539 0.000000
# 6 0.000000 0.000000 0.000000 0.000000 0.000000 0.049037
#
#
# Mechanical properties :
#
#
# Convention : Reuss Voigt Hill
#
# Bulk Modulus (GPa) = 55.70556 62.02634 58.86595
# Shear Modulus (GPa) = 27.62858 30.69702 29.16280
#
# Velocity S-wave (km/s) = 3.66639 3.86463 3.76681
# Velocity P-wave (km/s) = 6.71016 7.07758 6.89632
#
# Compressibility (1/GPa) = 0.01795153
#
# Stress axis : x y z
#
# Youngs Moduli (GPa) = 55.06546 55.06546 109.98824
#
# Poissons Ratio (x) = 0.35011 0.40543
# Poissons Ratio (y) = 0.35011 0.40543
# Poissons Ratio (z) = 0.20298 0.20298
#
# Static dielectric constant tensor:
#      x y z
#    x 1.727800 0.000000 0.000000 
#    y 0.000000 1.727800 0.000000 
#    z 0.000000 0.000000 1.669490 
# 
# From -- ./inp_files/6510.got.cif
#   From: 2010.05.17/outbox.cif.g08.bks.cpg/sg181_4_cif.got.tgz:6510.got - 2010.05.20 11:51:17.
