data_PCOD9584404
_publ_section_title
;
Structure prediction by ZEFSAII (Michael W. Deem and Ramdas Pophale) SiO2 
 PCOD9584404
Probable space group: P 64 2 2
;
_chemical_formula_sum "Si O2"
_cell_formula_units_Z 39
_cell_length_a 8.573112
_cell_length_b 8.573112
_cell_length_c 27.717149
_cell_angle_alpha 90.000000
_cell_angle_beta 90.000000
_cell_angle_gamma 120.000000
_cell_volume 1764.233982
_symmetry_space_group_name_H-M "P 64 2 2"
_symmetry_group_IT_number 181
_symmetry_cell_setting 'hexagonal'
loop_
_space_group_symop_operation_xyz
x,y,z
x-y,x,2/3+z
-y,x-y,1/3+z
-x,-y,z
-x+y,-x,2/3+z
y,-x+y,1/3+z
x-y,-y,-z
-x,-x+y,2/3-z
y,x,1/3-z
-y,-x,1/3-z
-x+y,y,-z
x,x-y,2/3-z
loop_
_atom_site_type_symbol
_atom_site_label
_atom_site_fract_x
_atom_site_fract_y
_atom_site_fract_z
Si Si1 0.180376 0.173765 0.092621
Si Si2 0.202609 0.659098 0.457838
Si Si3 0.000000 0.000000 0.000000
Si Si4 0.194029 0.519559 0.053809
O O1 0.356654 0.201306 0.118700
O O2 0.180264 0.359783 0.088074
O O3 0.000000 0.000000 0.112457
O O4 0.165259 0.114433 0.036017
O O5 0.331244 0.662487 0.500000
O O6 0.291193 0.632602 0.409519
O O7 0.000000 0.500000 0.465295
O O8 0.000000 0.500000 0.052752
O O9 0.250348 0.500695 0.000000
#
# Coordination Sequence:
#
# PCOD9584404 Si02
#       4
#    12  12   3  12
#     4  10  21  43  75 106 145 185 234 302 380 438
#     4  12  28  48  69 101 146 198 249 302 366 442
#     4   8  20  40  74 110 154 164 240 292 396 420
#     4  12  24  42  72 109 147 187 244 303 361 436
#
# _framework density 22.105910000000002
#
# number of rings (size 3 to 8) (size 9 to 14) (size 15 to 20)
#    0.923    0.000    1.538    5.538    0.000    3.077 
#    0.000    1.538    0.000    0.000    0.000    0.000 
#    0.000    0.000    0.000    0.000    0.000    0.000 
#
# Total GULP energy -218115.765592 kJ/mol
# GULP energy per Si atom -5592.711938 kJ/mol
# Density = 2.205560 g / cm^3
# Si number density = 22.105910 Si / 1000 Ang^3
#
#
#
# Elastic Constant Matrix: (Units=GPa)
#
#
# Indices 1 2 3 4 5 6 
#
# 1 201.8131 101.9556 68.1989 0.0000 0.0000 0.0000
# 2 101.9556 201.8131 68.1989 0.0000 0.0000 0.0000
# 3 68.1989 68.1989 101.7720 0.0000 0.0000 0.0000
# 4 0.0000 0.0000 0.0000 25.6491 0.0000 0.0000
# 5 0.0000 0.0000 0.0000 0.0000 25.6491 0.0000
# 6 0.0000 0.0000 0.0000 0.0000 0.0000 49.9287
#
#
#
# Elastic Compliance Matrix: (Units=1/GPa)
#
#
# Indices 1 2 3 4 5 6 
#
# 1 0.007362 -0.002653 -0.003155 0.000000 0.000000 0.000000
# 2 -0.002653 0.007362 -0.003155 0.000000 0.000000 0.000000
# 3 -0.003155 -0.003155 0.014055 0.000000 0.000000 0.000000
# 4 0.000000 0.000000 0.000000 0.038988 0.000000 0.000000
# 5 0.000000 0.000000 0.000000 0.000000 0.038988 0.000000
# 6 0.000000 0.000000 0.000000 0.000000 0.000000 0.020029
#
#
# Mechanical properties :
#
#
# Convention : Reuss Voigt Hill
#
# Bulk Modulus (GPa) = 92.15945 109.12277 100.64111
# Shear Modulus (GPa) = 33.70946 38.04836 35.87891
#
# Velocity S-wave (km/s) = 3.90924 4.15322 4.03307
# Velocity P-wave (km/s) = 7.88395 8.51292 8.20446
#
# Compressibility (1/GPa) = 0.01085076
#
# Stress axis : x y z
#
# Youngs Moduli (GPa) = 135.84082 135.84082 71.14936
#
# Poissons Ratio (x) = 0.36035 0.22451
# Poissons Ratio (y) = 0.36035 0.22451
# Poissons Ratio (z) = 0.42864 0.42864
#
# Static dielectric constant tensor:
#      x y z
#    x 1.786670 0.000000 0.000000 
#    y 0.000000 1.786670 0.000000 
#    z 0.000000 0.000000 1.847910 
# 
# From -- ./inp_files/11808.got.cif
#   From: 2010.05.17/outbox.cif.g08.bks.cpg/sg181_6_cif.got.tgz:11808.got - 2010.05.20 11:51:17.
