data_PCOD9584157
_publ_section_title
;
Structure prediction by ZEFSAII (Michael W. Deem and Ramdas Pophale) SiO2 
 PCOD9584157
Probable space group: P 62 2 2
;
_chemical_formula_sum "Si O2"
_cell_formula_units_Z 51
_cell_length_a 11.318554
_cell_length_b 11.318554
_cell_length_c 21.007904
_cell_angle_alpha 90.000000
_cell_angle_beta 90.000000
_cell_angle_gamma 120.000000
_cell_volume 2330.747624
_symmetry_space_group_name_H-M "P 62 2 2"
_symmetry_group_IT_number 180
_symmetry_cell_setting 'hexagonal'
loop_
_space_group_symop_operation_xyz
x,y,z
x-y,x,1/3+z
-y,x-y,2/3+z
-x,-y,z
-x+y,-x,1/3+z
y,-x+y,2/3+z
x-y,-y,-z
-x,-x+y,1/3-z
y,x,2/3-z
-y,-x,2/3-z
-x+y,y,-z
x,x-y,1/3-z
loop_
_atom_site_type_symbol
_atom_site_label
_atom_site_fract_x
_atom_site_fract_y
_atom_site_fract_z
Si Si1 0.866713 0.849845 0.063491
Si Si2 0.784047 0.224178 0.946148
Si Si3 0.344780 0.468689 0.749181
Si Si4 0.000000 0.500000 0.666667
Si Si5 0.315625 0.684376 0.833334
Si Si6 0.211479 0.000000 0.500000
O O1 0.721872 0.839577 0.059271
O O2 0.878241 0.795067 0.132045
O O3 0.891093 0.782186 0.000000
O O4 0.000000 0.000000 0.064382
O O5 0.787050 0.314808 0.886429
O O6 0.631268 0.099393 0.957725
O O7 0.831341 0.315624 0.009699
O O8 0.500000 0.500000 0.757943
O O9 0.298203 0.557572 0.791022
O O10 0.255633 0.317682 0.776106
#
# Coordination Sequence:
#
# PCOD9584157 Si02
#       6
#    12  12  12   3   6   6
#     4  11  25  45  71 106 149 194 256 306 384 467
#     4  12  28  48  75 111 153 206 253 323 392 469
#     4  12  25  51  76 104 151 202 252 323 388 464
#     4  12  24  48  78 100 168 196 240 322 392 440
#     4  12  25  48  71 110 150 196 264 312 385 476
#     4  12  24  44  78 104 148 194 256 320 390 444
#
# _framework density 21.881392000000002
#
# number of rings (size 3 to 8) (size 9 to 14) (size 15 to 20)
#    0.000    0.235    7.059    1.765    3.294    1.882 
#    6.353    0.000    0.000    0.000    0.000    0.000 
#    0.000    0.000    0.000    0.000    0.000    0.000 
#
# Total GULP energy -284746.313000 kJ/mol
# GULP energy per Si atom -5583.261039 kJ/mol
# Density = 2.183159 g / cm^3
# Si number density = 21.881392 Si / 1000 Ang^3
#
#
#
# Elastic Constant Matrix: (Units=GPa)
#
#
# Indices 1 2 3 4 5 6 
#
# 1 112.6431 50.1976 45.7860 0.0000 0.0000 0.0000
# 2 50.1976 112.6431 45.7860 0.0000 0.0000 0.0000
# 3 45.7860 45.7860 167.8779 0.0000 0.0000 0.0000
# 4 0.0000 0.0000 0.0000 86.8269 0.0000 0.0000
# 5 0.0000 0.0000 0.0000 0.0000 86.8269 0.0000
# 6 0.0000 0.0000 0.0000 0.0000 0.0000 31.2228
#
#
#
# Elastic Compliance Matrix: (Units=1/GPa)
#
#
# Indices 1 2 3 4 5 6 
#
# 1 0.011634 -0.004380 -0.001978 0.000000 0.000000 0.000000
# 2 -0.004380 0.011634 -0.001978 0.000000 0.000000 0.000000
# 3 -0.001978 -0.001978 0.007036 0.000000 0.000000 0.000000
# 4 0.000000 0.000000 0.000000 0.011517 0.000000 0.000000
# 5 0.000000 0.000000 0.000000 0.000000 0.011517 0.000000
# 6 0.000000 0.000000 0.000000 0.000000 0.000000 0.032028
#
#
# Mechanical properties :
#
#
# Convention : Reuss Voigt Hill
#
# Bulk Modulus (GPa) = 73.36967 75.18927 74.27947
# Shear Modulus (GPa) = 46.91216 57.73495 52.32355
#
# Velocity S-wave (km/s) = 4.63528 5.14225 4.89533
# Velocity P-wave (km/s) = 7.88994 8.34828 8.12234
#
# Compressibility (1/GPa) = 0.01362961
#
# Stress axis : x y z
#
# Youngs Moduli (GPa) = 85.95725 85.95725 142.13061
#
# Poissons Ratio (x) = 0.37652 0.28117
# Poissons Ratio (y) = 0.37652 0.28117
# Poissons Ratio (z) = 0.17005 0.17005
#
# Static dielectric constant tensor:
#      x y z
#    x 1.755260 0.000000 0.000000 
#    y 0.000000 1.755260 0.000000 
#    z 0.000000 0.000000 1.851050 
# 
# From -- ./inp_files/8947.got.cif
#   From: 2010.05.17/outbox.cif.g08.bks.cpg/sg180_5_cif.got.tgz:8947.got - 2010.05.20 11:43:55.
