data_PCOD9584269
_publ_section_title
;
Structure prediction by ZEFSAII (Michael W. Deem and Ramdas Pophale) SiO2 
 PCOD9584269
Probable space group: P 64 2 2
;
_chemical_formula_sum "Si O2"
_cell_formula_units_Z 84
_cell_length_a 14.648921
_cell_length_b 14.648921
_cell_length_c 23.121577
_cell_angle_alpha 90.000000
_cell_angle_beta 90.000000
_cell_angle_gamma 120.000000
_cell_volume 4296.940670
_symmetry_space_group_name_H-M "P 64 2 2"
_symmetry_group_IT_number 181
_symmetry_cell_setting 'hexagonal'
loop_
_space_group_symop_operation_xyz
x,y,z
x-y,x,2/3+z
-y,x-y,1/3+z
-x,-y,z
-x+y,-x,2/3+z
y,-x+y,1/3+z
x-y,-y,-z
-x,-x+y,2/3-z
y,x,1/3-z
-y,-x,1/3-z
-x+y,y,-z
x,x-y,2/3-z
loop_
_atom_site_type_symbol
_atom_site_label
_atom_site_fract_x
_atom_site_fract_y
_atom_site_fract_z
Si Si1 0.161448 0.122550 0.065566
Si Si2 0.564918 0.446202 0.265004
Si Si3 0.132370 0.972298 0.264976
Si Si4 0.588046 0.879519 0.490764
Si Si5 0.493546 0.773384 0.007010
Si Si6 0.896157 0.648299 0.222986
Si Si7 0.632643 0.781322 0.775258
O O1 0.267601 0.139444 0.091895
O O2 0.087581 0.164314 0.092397
O O3 0.091471 0.995113 0.066926
O O4 0.181989 0.161375 0.999215
O O5 0.500000 0.500000 0.288736
O O6 0.636288 0.513016 0.210022
O O7 0.474260 0.338845 0.235776
O O8 0.651698 0.452614 0.309258
O O9 0.166032 0.899377 0.231860
O O10 0.604926 0.779807 0.499234
O O11 0.684652 0.000000 0.500000
O O12 0.563179 0.849684 0.059231
O O13 0.393201 0.786401 0.000000
O O14 0.563151 0.808887 0.948857
O O15 0.022099 0.702936 0.219496
O O16 0.576504 0.788252 0.833334
#
# Coordination Sequence:
#
# PCOD9584269 Si02
#       7
#    12  12  12  12  12  12  12
#     4   8  13  25  49  75 104 155 213 238 271 338
#     4   8  16  36  63  86 111 140 187 258 315 355
#     4   8  14  27  47  72 108 158 204 243 278 337
#     4   8  15  30  57  92 117 140 186 249 305 349
#     4  11  23  41  65  85 111 163 218 245 292 379
#     4  10  19  34  59  87 122 165 208 249 297 370
#     4  11  23  38  53  84 132 165 203 255 307 355
#
# _framework density 19.548791000000001
#
# number of rings (size 3 to 8) (size 9 to 14) (size 15 to 20)
#    0.000    2.857    1.429    2.143    0.000    2.286 
#    5.143    6.429    0.000    0.000    0.000    0.000 
#    0.000    0.000    0.000    0.000    0.000    0.000 
#
# Total GULP energy -467702.054564 kJ/mol
# GULP energy per Si atom -5567.881602 kJ/mol
# Density = 1.950430 g / cm^3
# Si number density = 19.548791 Si / 1000 Ang^3
#
#
#
# Elastic Constant Matrix: (Units=GPa)
#
#
# Indices 1 2 3 4 5 6 
#
# 1 90.2345 46.5673 46.2170 0.0000 0.0000 0.0000
# 2 46.5673 90.2345 46.2170 0.0000 0.0000 0.0000
# 3 46.2170 46.2170 73.5198 0.0000 0.0000 0.0000
# 4 0.0000 0.0000 0.0000 3.9404 0.0000 0.0000
# 5 0.0000 0.0000 0.0000 0.0000 3.9404 0.0000
# 6 0.0000 0.0000 0.0000 0.0000 0.0000 21.8336
#
#
#
# Elastic Compliance Matrix: (Units=1/GPa)
#
#
# Indices 1 2 3 4 5 6 
#
# 1 0.017804 -0.005097 -0.007988 0.000000 0.000000 0.000000
# 2 -0.005097 0.017804 -0.007988 0.000000 0.000000 0.000000
# 3 -0.007988 -0.007988 0.023645 0.000000 0.000000 0.000000
# 4 0.000000 0.000000 0.000000 0.253780 0.000000 0.000000
# 5 0.000000 0.000000 0.000000 0.000000 0.253780 0.000000
# 6 0.000000 0.000000 0.000000 0.000000 0.000000 0.045801
#
#
# Mechanical properties :
#
#
# Convention : Reuss Voigt Hill
#
# Bulk Modulus (GPa) = 58.45631 59.11017 58.78324
# Shear Modulus (GPa) = 7.57046 13.60872 10.58959
#
# Velocity S-wave (km/s) = 1.97003 2.64131 2.32997
# Velocity P-wave (km/s) = 5.92810 6.29324 6.11340
#
# Compressibility (1/GPa) = 0.01710679
#
# Stress axis : x y z
#
# Youngs Moduli (GPa) = 56.16740 56.16740 42.29190
#
# Poissons Ratio (x) = 0.28626 0.33784
# Poissons Ratio (y) = 0.28626 0.33784
# Poissons Ratio (z) = 0.44868 0.44868
#
# Static dielectric constant tensor:
#      x y z
#    x 1.719340 0.000000 0.000000 
#    y 0.000000 1.719340 0.000000 
#    z 0.000000 0.000000 1.736590 
# 
# From -- ./inp_files/10215.got.cif
#   From: 2010.05.17/outbox.cif.g08.bks.cpg/sg181_6_cif.got.tgz:10215.got - 2010.05.20 11:51:17.
