data_PCOD9584839
_publ_section_title
;
Structure prediction by ZEFSAII (Michael W. Deem and Ramdas Pophale) SiO2 
 PCOD9584839
Probable space group: P 63 2 2
;
_chemical_formula_sum "Si O2"
_cell_formula_units_Z 28
_cell_length_a 13.839823
_cell_length_b 13.839823
_cell_length_c 8.839006
_cell_angle_alpha 90.000000
_cell_angle_beta 90.000000
_cell_angle_gamma 120.000000
_cell_volume 1466.206472
_symmetry_space_group_name_H-M "P 63 2 2"
_symmetry_group_IT_number 182
_symmetry_cell_setting 'hexagonal'
loop_
_space_group_symop_operation_xyz
x,y,z
x-y,x,1/2+z
-y,x-y,z
-x,-y,1/2+z
-x+y,-x,z
y,-x+y,1/2+z
x-y,-y,-z
-x,-x+y,-z
y,x,-z
-y,-x,1/2-z
-x+y,y,1/2-z
x,x-y,1/2-z
loop_
_atom_site_type_symbol
_atom_site_label
_atom_site_fract_x
_atom_site_fract_y
_atom_site_fract_z
Si Si1 0.896847 0.374042 0.891255
Si Si2 0.000000 0.871745 0.000000
Si Si3 0.144228 0.855773 0.250000
Si Si4 0.333334 0.666668 0.064585
O O1 0.906652 0.453326 0.750000
O O2 0.885150 0.257284 0.838659
O O3 0.783379 0.345482 0.977824
O O4 0.000000 0.437610 0.000000
O O5 0.962203 0.790023 0.856945
O O6 0.896990 0.896990 0.000000
O O7 0.333334 0.666667 0.250000
#
# Coordination Sequence:
#
# PCOD9584839 Si02
#       4
#    12   6   6   4
#     4  11  23  41  69  99 129 179 227 275 344 409
#     4  10  24  42  64  96 140 176 224 282 338 412
#     4  12  22  42  70  96 136 186 220 278 360 406
#     4   9  18  45  61  83 142 171 205 290 337 375
#
# _framework density 19.096900999999999
#
# number of rings (size 3 to 8) (size 9 to 14) (size 15 to 20)
#    0.429    0.857    6.429    2.571    3.000    0.000 
#    0.000    6.429    0.000    0.000    0.000    0.000 
#    0.000    0.000    0.000    0.000    0.000    0.000 
#
# Total GULP energy -155924.405743 kJ/mol
# GULP energy per Si atom -5568.728777 kJ/mol
# Density = 1.905344 g / cm^3
# Si number density = 19.096901 Si / 1000 Ang^3
#
#
#
# Elastic Constant Matrix: (Units=GPa)
#
#
# Indices 1 2 3 4 5 6 
#
# 1 131.9856 77.8264 52.6315 -0.0003 -0.0001 -0.0002
# 2 77.8264 131.9839 52.6308 -0.0001 0.0003 -0.0005
# 3 52.6315 52.6308 61.4082 -0.0001 0.0000 0.0000
# 4 -0.0003 -0.0001 -0.0001 34.4817 0.0002 -0.0002
# 5 -0.0001 0.0003 0.0000 0.0002 34.4821 0.0001
# 6 -0.0002 -0.0005 0.0000 -0.0002 0.0001 27.0784
#
#
#
# Elastic Compliance Matrix: (Units=1/GPa)
#
#
# Indices 1 2 3 4 5 6 
#
# 1 0.013413 -0.005051 -0.007167 0.000000 0.000000 0.000000
# 2 -0.005051 0.013413 -0.007166 0.000000 0.000000 0.000000
# 3 -0.007167 -0.007166 0.028569 0.000000 0.000000 0.000000
# 4 0.000000 0.000000 0.000000 0.029001 0.000000 0.000000
# 5 0.000000 0.000000 0.000000 0.000000 0.029001 0.000000
# 6 0.000000 0.000000 0.000000 0.000000 0.000000 0.036930
#
#
# Mechanical properties :
#
#
# Convention : Reuss Voigt Hill
#
# Bulk Modulus (GPa) = 60.14639 76.83945 68.49292
# Shear Modulus (GPa) = 25.68886 28.69436 27.19161
#
# Velocity S-wave (km/s) = 3.67165 3.88050 3.77752
# Velocity P-wave (km/s) = 7.03836 7.77185 7.41418
#
# Compressibility (1/GPa) = 0.01662610
#
# Stress axis : x y z
#
# Youngs Moduli (GPa) = 74.55482 74.55432 35.00320
#
# Poissons Ratio (x) = 0.37660 0.25085
# Poissons Ratio (y) = 0.37660 0.25085
# Poissons Ratio (z) = 0.53430 0.53429
#
# Static dielectric constant tensor:
#      x y z
#    x 1.681440 0.000000 0.000000 
#    y 0.000000 1.681440 0.000000 
#    z 0.000000 0.000000 1.688960 
# 
# From -- ./inp_files/1123.got.cif
#   From: 2010.05.17/outbox.cif.g08.bks.cpg/sg182_1_cif.got.tgz:1123.got - 2010.05.20 11:58:53.
