data_PCOD9584216
_publ_section_title
;
Structure prediction by ZEFSAII (Michael W. Deem and Ramdas Pophale) SiO2 
 PCOD9584216
Probable space group: P 64 2 2
;
_chemical_formula_sum "Si O2"
_cell_formula_units_Z 75
_cell_length_a 18.860962
_cell_length_b 18.860962
_cell_length_c 14.653345
_cell_angle_alpha 90.000000
_cell_angle_beta 90.000000
_cell_angle_gamma 120.000000
_cell_volume 4514.348540
_symmetry_space_group_name_H-M "P 64 2 2"
_symmetry_group_IT_number 181
_symmetry_cell_setting 'hexagonal'
loop_
_space_group_symop_operation_xyz
x,y,z
x-y,x,2/3+z
-y,x-y,1/3+z
-x,-y,z
-x+y,-x,2/3+z
y,-x+y,1/3+z
x-y,-y,-z
-x,-x+y,2/3-z
y,x,1/3-z
-y,-x,1/3-z
-x+y,y,-z
x,x-y,2/3-z
loop_
_atom_site_type_symbol
_atom_site_label
_atom_site_fract_x
_atom_site_fract_y
_atom_site_fract_z
Si Si1 0.534172 0.813293 0.742264
Si Si2 0.000000 0.000000 0.333334
Si Si3 0.875202 0.049982 0.412680
Si Si4 0.575265 0.482479 0.531232
Si Si5 0.293815 0.051468 0.093150
Si Si6 0.798438 0.722767 0.429285
Si Si7 0.523458 0.683378 0.625497
O O1 0.519341 0.759670 0.833334
O O2 0.504646 0.876158 0.772359
O O3 0.632061 0.861821 0.726911
O O4 0.496955 0.747594 0.661142
O O5 0.942471 0.023329 0.392019
O O6 0.915682 0.146013 0.433491
O O7 0.825212 0.038595 0.319429
O O8 0.823907 0.000000 0.500000
O O9 0.500000 0.500000 0.527969
O O10 0.538288 0.387737 0.558962
O O11 0.635566 0.529672 0.617216
O O12 0.387787 0.119832 0.086516
O O13 0.275272 0.991941 0.178117
O O14 0.271163 0.000000 0.000000
O O15 0.873457 0.746913 0.500000
#
# Coordination Sequence:
#
# PCOD9584216 Si02
#       7
#    12   3  12  12  12  12  12
#     4   9  17  30  48  76 113 138 171 207 274 357
#     4  12  22  40  48  70  98 146 214 260 274 316
#     4  12  24  36  50  70 102 148 198 251 291 317
#     4  10  18  28  49  85 117 141 171 221 277 345
#     4  12  19  33  53  73 102 150 187 234 290 330
#     4  11  19  33  51  75 101 147 191 229 286 339
#     4  10  18  30  49  79 116 140 169 220 292 351
#
# _framework density 16.613693000000001
#
# number of rings (size 3 to 8) (size 9 to 14) (size 15 to 20)
#    0.000    1.280    4.000    6.000    0.000    0.000 
#    0.000    0.000    0.000    0.000    0.000   33.600 
#    0.000    1.760    0.000    0.000    0.000    0.000 
#
# Total GULP energy -418387.769676 kJ/mol
# GULP energy per Si atom -5578.503596 kJ/mol
# Density = 1.657588 g / cm^3
# Si number density = 16.613693 Si / 1000 Ang^3
#
#
#
# Elastic Constant Matrix: (Units=GPa)
#
#
# Indices 1 2 3 4 5 6 
#
# 1 66.4603 25.2546 30.6169 0.0000 0.0000 0.0000
# 2 25.2546 66.4603 30.6169 0.0000 0.0000 0.0000
# 3 30.6169 30.6169 70.2324 0.0000 0.0000 0.0000
# 4 0.0000 0.0000 0.0000 10.0529 0.0000 0.0000
# 5 0.0000 0.0000 0.0000 0.0000 10.0529 0.0000
# 6 0.0000 0.0000 0.0000 0.0000 0.0000 20.6029
#
#
#
# Elastic Compliance Matrix: (Units=1/GPa)
#
#
# Indices 1 2 3 4 5 6 
#
# 1 0.019824 -0.004444 -0.006705 0.000000 0.000000 0.000000
# 2 -0.004444 0.019824 -0.006705 0.000000 0.000000 0.000000
# 3 -0.006705 -0.006705 0.020084 0.000000 0.000000 0.000000
# 4 0.000000 0.000000 0.000000 0.099474 0.000000 0.000000
# 5 0.000000 0.000000 0.000000 0.000000 0.099474 0.000000
# 6 0.000000 0.000000 0.000000 0.000000 0.000000 0.048537
#
#
# Mechanical properties :
#
#
# Convention : Reuss Voigt Hill
#
# Bulk Modulus (GPa) = 41.62320 41.79220 41.70770
# Shear Modulus (GPa) = 14.24779 15.91938 15.08359
#
# Velocity S-wave (km/s) = 2.93165 3.09885 3.01641
# Velocity P-wave (km/s) = 6.04709 6.16553 6.10660
#
# Compressibility (1/GPa) = 0.02402506
#
# Stress axis : x y z
#
# Youngs Moduli (GPa) = 50.44371 50.44371 49.79092
#
# Poissons Ratio (x) = 0.22419 0.33383
# Poissons Ratio (y) = 0.22419 0.33383
# Poissons Ratio (z) = 0.33820 0.33820
#
# Static dielectric constant tensor:
#      x y z
#    x 1.589340 0.000000 0.000000 
#    y 0.000000 1.589340 0.000000 
#    z 0.000000 0.000000 1.560410 
# 
# From -- ./inp_files/6421.got.cif
#   From: 2010.05.17/outbox.cif.g08.bks.cpg/sg181_4_cif.got.tgz:6421.got - 2010.05.20 11:51:17.
