data_PCOD9584211
_publ_section_title
;
Structure prediction by ZEFSAII (Michael W. Deem and Ramdas Pophale) SiO2 
 PCOD9584211
Probable space group: P 64 2 2
;
_chemical_formula_sum "Si O2"
_cell_formula_units_Z 66
_cell_length_a 20.856668
_cell_length_b 20.856668
_cell_length_c 11.073687
_cell_angle_alpha 90.000000
_cell_angle_beta 90.000000
_cell_angle_gamma 120.000000
_cell_volume 4171.696756
_symmetry_space_group_name_H-M "P 64 2 2"
_symmetry_group_IT_number 181
_symmetry_cell_setting 'hexagonal'
loop_
_space_group_symop_operation_xyz
x,y,z
x-y,x,2/3+z
-y,x-y,1/3+z
-x,-y,z
-x+y,-x,2/3+z
y,-x+y,1/3+z
x-y,-y,-z
-x,-x+y,2/3-z
y,x,1/3-z
-y,-x,1/3-z
-x+y,y,-z
x,x-y,2/3-z
loop_
_atom_site_type_symbol
_atom_site_label
_atom_site_fract_x
_atom_site_fract_y
_atom_site_fract_z
Si Si1 0.357132 0.400548 0.796149
Si Si2 0.413432 0.176958 0.006817
Si Si3 0.129940 0.569646 0.571610
Si Si4 0.410923 0.821845 0.500000
Si Si5 0.596866 0.697975 0.903747
Si Si6 0.262921 0.688242 0.415774
O O1 0.384382 0.384382 0.666667
O O2 0.276159 0.391777 0.777167
O O3 0.412892 0.484804 0.837975
O O4 0.356622 0.343886 0.895040
O O5 0.502578 0.215100 0.001318
O O6 0.395808 0.243945 0.006813
O O7 0.384323 0.130558 0.884535
O O8 0.131793 0.582195 0.714949
O O9 0.117422 0.487496 0.559303
O O10 0.208697 0.629253 0.513626
O O11 0.325466 0.764196 0.471129
O O12 0.294679 0.647340 0.333334
#
# Coordination Sequence:
#
# PCOD9584211 Si02
#       6
#    12  12  12   6  12  12
#     4   9  20  33  51  70  86 116 159 206 254 310
#     4   9  18  29  48  68  86 106 153 205 251 298
#     4  11  21  32  46  68  92 123 160 199 257 315
#     4  12  24  30  41  66 100 128 154 194 260 324
#     4  10  17  31  46  67  88 112 148 204 258 298
#     4  11  19  31  47  64  87 122 167 207 250 299
#
# _framework density 15.820900999999999
#
# number of rings (size 3 to 8) (size 9 to 14) (size 15 to 20)
#    0.000    1.818    3.636    2.182    0.000    2.182 
#    0.000    1.818    0.000    0.000    0.000    0.000 
#    0.000    0.000    0.000    0.000    0.000    0.000 
#
# Total GULP energy -367447.414178 kJ/mol
# GULP energy per Si atom -5567.385063 kJ/mol
# Density = 1.578489 g / cm^3
# Si number density = 15.820901 Si / 1000 Ang^3
#
#
#
# Elastic Constant Matrix: (Units=GPa)
#
#
# Indices 1 2 3 4 5 6 
#
# 1 73.9845 36.6351 17.3396 0.0000 0.0000 0.0000
# 2 36.6351 73.9845 17.3396 0.0000 0.0000 0.0000
# 3 17.3396 17.3396 45.6208 0.0000 0.0000 0.0000
# 4 0.0000 0.0000 0.0000 17.9372 0.0000 0.0000
# 5 0.0000 0.0000 0.0000 0.0000 17.9372 0.0000
# 6 0.0000 0.0000 0.0000 0.0000 0.0000 18.6747
#
#
#
# Elastic Compliance Matrix: (Units=1/GPa)
#
#
# Indices 1 2 3 4 5 6 
#
# 1 0.018519 -0.008256 -0.003901 0.000000 0.000000 0.000000
# 2 -0.008256 0.018519 -0.003901 0.000000 0.000000 0.000000
# 3 -0.003901 -0.003901 0.024885 0.000000 0.000000 0.000000
# 4 0.000000 0.000000 0.000000 0.055750 0.000000 0.000000
# 5 0.000000 0.000000 0.000000 0.000000 0.055750 0.000000
# 6 0.000000 0.000000 0.000000 0.000000 0.000000 0.053548
#
#
# Mechanical properties :
#
#
# Convention : Reuss Voigt Hill
#
# Bulk Modulus (GPa) = 33.54818 37.35758 35.45288
# Shear Modulus (GPa) = 18.58593 19.06153 18.82373
#
# Velocity S-wave (km/s) = 3.43121 3.47483 3.45309
# Velocity P-wave (km/s) = 6.07854 6.30582 6.19322
#
# Compressibility (1/GPa) = 0.02980788
#
# Stress axis : x y z
#
# Youngs Moduli (GPa) = 54.00002 54.00002 40.18480
#
# Poissons Ratio (x) = 0.44581 0.15675
# Poissons Ratio (y) = 0.44581 0.15675
# Poissons Ratio (z) = 0.21064 0.21064
#
# Static dielectric constant tensor:
#      x y z
#    x 1.562970 0.000000 0.000000 
#    y 0.000000 1.562970 0.000000 
#    z 0.000000 0.000000 1.578220 
# 
# From -- ./inp_files/4990.got.cif
#   From: 2010.05.17/outbox.cif.g08.bks.cpg/sg181_3_cif.got.tgz:4990.got - 2010.05.20 11:51:17.
