data_PCOD9584005
_publ_section_title
;
Structure prediction by ZEFSAII (Michael W. Deem and Ramdas Pophale) SiO2 
 PCOD9584005
Probable space group: P 62 2 2
;
_chemical_formula_sum "Si O2"
_cell_formula_units_Z 45
_cell_length_a 13.718304
_cell_length_b 13.718304
_cell_length_c 12.233295
_cell_angle_alpha 90.000000
_cell_angle_beta 90.000000
_cell_angle_gamma 120.000000
_cell_volume 1993.769398
_symmetry_space_group_name_H-M "P 62 2 2"
_symmetry_group_IT_number 180
_symmetry_cell_setting 'hexagonal'
loop_
_space_group_symop_operation_xyz
x,y,z
x-y,x,1/3+z
-y,x-y,2/3+z
-x,-y,z
-x+y,-x,1/3+z
y,-x+y,2/3+z
x-y,-y,-z
-x,-x+y,1/3-z
y,x,2/3-z
-y,-x,2/3-z
-x+y,y,-z
x,x-y,1/3-z
loop_
_atom_site_type_symbol
_atom_site_label
_atom_site_fract_x
_atom_site_fract_y
_atom_site_fract_z
Si Si1 0.740394 0.740394 0.333334
Si Si2 0.500000 0.500000 0.833334
Si Si3 0.171480 0.195058 0.714327
Si Si4 0.621170 0.154615 0.305542
Si Si5 0.669400 0.048485 0.789512
O O1 0.785800 0.852973 0.403967
O O2 0.640161 0.708353 0.248006
O O3 0.513889 0.596744 0.750719
O O4 0.226940 0.226940 0.833334
O O5 0.240011 0.285110 0.622085
O O6 0.148172 0.074086 0.666667
O O7 0.721162 0.278839 0.333334
O O8 0.501398 0.134331 0.261230
O O9 0.644774 0.080363 0.218556
#
# Coordination Sequence:
#
# PCOD9584005 Si02
#       5
#     6   3  12  12  12
#     4  12  25  43  70 106 154 180 241 304 389 440
#     4   8  20  40  68  98 140 172 254 306 334 464
#     4  12  25  43  72 105 143 193 245 305 374 450
#     4  10  23  44  72 102 138 194 249 298 375 433
#     4  10  24  42  71 106 146 189 246 309 368 447
#
# _framework density 22.570314
#
# number of rings (size 3 to 8) (size 9 to 14) (size 15 to 20)
#    0.000    1.600    2.667    2.000    7.467    3.200 
#    4.800    0.000    0.000    0.000    0.000    0.000 
#    0.000    0.000    0.000    0.000    0.000    0.000 
#
# Total GULP energy -250723.371143 kJ/mol
# GULP energy per Si atom -5571.630470 kJ/mol
# Density = 2.251894 g / cm^3
# Si number density = 22.570314 Si / 1000 Ang^3
#
#
#
# Elastic Constant Matrix: (Units=GPa)
#
#
# Indices 1 2 3 4 5 6 
#
# 1 108.5556 53.3615 29.2208 0.0000 0.0000 0.0000
# 2 53.3615 108.5556 29.2208 0.0000 0.0000 0.0000
# 3 29.2208 29.2208 131.8536 0.0000 0.0000 0.0000
# 4 0.0000 0.0000 0.0000 20.9430 0.0000 0.0000
# 5 0.0000 0.0000 0.0000 0.0000 20.9430 0.0000
# 6 0.0000 0.0000 0.0000 0.0000 0.0000 27.5970
#
#
#
# Elastic Compliance Matrix: (Units=1/GPa)
#
#
# Indices 1 2 3 4 5 6 
#
# 1 0.012415 -0.005702 -0.001488 0.000000 0.000000 0.000000
# 2 -0.005702 0.012415 -0.001488 0.000000 0.000000 0.000000
# 3 -0.001488 -0.001488 0.008244 0.000000 0.000000 0.000000
# 4 0.000000 0.000000 0.000000 0.047749 0.000000 0.000000
# 5 0.000000 0.000000 0.000000 0.000000 0.047749 0.000000
# 6 0.000000 0.000000 0.000000 0.000000 0.000000 0.036236
#
#
# Mechanical properties :
#
#
# Convention : Reuss Voigt Hill
#
# Bulk Modulus (GPa) = 63.61851 63.61902 63.61876
# Shear Modulus (GPa) = 26.68050 29.70738 28.19394
#
# Velocity S-wave (km/s) = 3.44191 3.63190 3.53818
# Velocity P-wave (km/s) = 6.63654 6.77022 6.70371
#
# Compressibility (1/GPa) = 0.01571870
#
# Stress axis : x y z
#
# Youngs Moduli (GPa) = 80.54493 80.54493 121.30677
#
# Poissons Ratio (x) = 0.45930 0.18047
# Poissons Ratio (y) = 0.45930 0.18047
# Poissons Ratio (z) = 0.11983 0.11983
#
# Static dielectric constant tensor:
#      x y z
#    x 1.995740 0.000000 0.000000 
#    y 0.000000 1.995740 0.000000 
#    z 0.000000 0.000000 1.951640 
# 
# From -- ./inp_files/4467.got.cif
#   From: 2010.05.17/outbox.cif.g08.bks.cpg/sg180_3_cif.got.tgz:4467.got - 2010.05.20 11:43:55.
