data_PCOD9584818
_publ_section_title
;
Structure prediction by ZEFSAII (Michael W. Deem and Ramdas Pophale) SiO2 
 PCOD9584818
Probable space group: P 63 2 2
;
_chemical_formula_sum "Si O2"
_cell_formula_units_Z 42
_cell_length_a 8.195923
_cell_length_b 8.195923
_cell_length_c 35.163626
_cell_angle_alpha 90.000000
_cell_angle_beta 90.000000
_cell_angle_gamma 120.000000
_cell_volume 2045.596741
_symmetry_space_group_name_H-M "P 63 2 2"
_symmetry_group_IT_number 182
_symmetry_cell_setting 'hexagonal'
loop_
_space_group_symop_operation_xyz
x,y,z
x-y,x,1/2+z
-y,x-y,z
-x,-y,1/2+z
-x+y,-x,z
y,-x+y,1/2+z
x-y,-y,-z
-x,-x+y,-z
y,x,-z
-y,-x,1/2-z
-x+y,y,1/2-z
x,x-y,1/2-z
loop_
_atom_site_type_symbol
_atom_site_label
_atom_site_fract_x
_atom_site_fract_y
_atom_site_fract_z
Si Si1 0.333416 0.000646 0.767255
Si Si2 0.452313 0.335433 0.350797
Si Si3 0.118237 0.451710 0.074506
Si Si4 0.784932 0.784932 0.000000
O O1 0.461074 0.922148 0.750000
O O2 0.409737 0.204869 0.750000
O O3 0.335438 0.987470 0.812487
O O4 0.128463 0.871538 0.750000
O O5 0.489718 0.158905 0.350519
O O6 0.349590 0.350667 0.387977
O O7 0.333175 0.491119 0.074376
O O8 0.014455 0.332878 0.037323
O O9 0.824535 0.000000 0.000000
#
# Coordination Sequence:
#
# PCOD9584818 Si02
#       4
#    12  12  12   6
#     4  12  24  44  67  98 136 184 233 284 339 411
#     4  10  23  42  69  90 132 175 219 274 342 392
#     4  10  26  40  68  99 132 166 225 276 333 406
#     4  10  26  44  68  94 134 176 216 266 346 410
#
# _framework density 20.531904000000001
#
# number of rings (size 3 to 8) (size 9 to 14) (size 15 to 20)
#    1.429    0.000    2.857    0.857   10.000    0.000 
#    0.000    0.000    0.000    0.000    0.000    0.000 
#    0.000    0.000    0.000    0.000    0.000    0.000 
#
# Total GULP energy -234156.676051 kJ/mol
# GULP energy per Si atom -5575.158954 kJ/mol
# Density = 2.048517 g / cm^3
# Si number density = 20.531904 Si / 1000 Ang^3
#
#
#
# Elastic Constant Matrix: (Units=GPa)
#
#
# Indices 1 2 3 4 5 6 
#
# 1 70.4115 43.0485 68.3720 0.0000 0.0000 0.0000
# 2 43.0485 70.4115 68.3720 0.0000 0.0000 0.0000
# 3 68.3720 68.3720 267.0456 0.0000 0.0000 0.0000
# 4 0.0000 0.0000 0.0000 42.9840 0.0000 0.0000
# 5 0.0000 0.0000 0.0000 0.0000 42.9840 0.0000
# 6 0.0000 0.0000 0.0000 0.0000 0.0000 13.6815
#
#
#
# Elastic Compliance Matrix: (Units=1/GPa)
#
#
# Indices 1 2 3 4 5 6 
#
# 1 0.024646 -0.011899 -0.003264 0.000000 0.000000 0.000000
# 2 -0.011899 0.024646 -0.003264 0.000000 0.000000 0.000000
# 3 -0.003264 -0.003264 0.005416 0.000000 0.000000 0.000000
# 4 0.000000 0.000000 0.000000 0.023264 0.000000 0.000000
# 5 0.000000 0.000000 0.000000 0.000000 0.023264 0.000000
# 6 0.000000 0.000000 0.000000 0.000000 0.000000 0.073092
#
#
# Mechanical properties :
#
#
# Convention : Reuss Voigt Hill
#
# Bulk Modulus (GPa) = 56.00532 85.27261 70.63896
# Shear Modulus (GPa) = 23.02721 35.13494 29.08108
#
# Velocity S-wave (km/s) = 3.35256 4.14120 3.76757
# Velocity P-wave (km/s) = 6.50559 8.03044 7.30789
#
# Compressibility (1/GPa) = 0.01785545
#
# Stress axis : x y z
#
# Youngs Moduli (GPa) = 40.57381 40.57381 184.64243
#
# Poissons Ratio (x) = 0.48280 0.60261
# Poissons Ratio (y) = 0.48280 0.60261
# Poissons Ratio (z) = 0.13242 0.13242
#
# Static dielectric constant tensor:
#      x y z
#    x 1.708340 0.000000 0.000000 
#    y 0.000000 1.708340 0.000000 
#    z 0.000000 0.000000 1.671970 
# 
# From -- ./inp_files/5677.got.cif
#   From: 2010.05.17/outbox.cif.g08.bks.cpg/sg182_3_cif.got.tgz:5677.got - 2010.05.20 11:58:53.
