data_PCOD9584570
_publ_section_title
;
Structure prediction by ZEFSAII (Michael W. Deem and Ramdas Pophale) SiO2 
 PCOD9584570
Probable space group: P 64 2 2
;
_chemical_formula_sum "Si O2"
_cell_formula_units_Z 84
_cell_length_a 17.162852
_cell_length_b 17.162852
_cell_length_c 15.622919
_cell_angle_alpha 90.000000
_cell_angle_beta 90.000000
_cell_angle_gamma 120.000000
_cell_volume 3985.398268
_symmetry_space_group_name_H-M "P 64 2 2"
_symmetry_group_IT_number 181
_symmetry_cell_setting 'hexagonal'
loop_
_space_group_symop_operation_xyz
x,y,z
x-y,x,2/3+z
-y,x-y,1/3+z
-x,-y,z
-x+y,-x,2/3+z
y,-x+y,1/3+z
x-y,-y,-z
-x,-x+y,2/3-z
y,x,1/3-z
-y,-x,1/3-z
-x+y,y,-z
x,x-y,2/3-z
loop_
_atom_site_type_symbol
_atom_site_label
_atom_site_fract_x
_atom_site_fract_y
_atom_site_fract_z
Si Si1 0.242810 0.808559 0.330827
Si Si2 0.599888 0.016723 0.252758
Si Si3 0.555767 0.698478 0.282162
Si Si4 0.153261 0.010048 0.899460
Si Si5 0.352142 0.060809 0.916709
Si Si6 0.810184 0.706770 0.191201
Si Si7 0.617140 0.354335 0.077074
O O1 0.332132 0.882033 0.283454
O O2 0.163396 0.736905 0.270841
O O3 0.207338 0.865371 0.383846
O O4 0.275958 0.759761 0.396299
O O5 0.644029 0.012951 0.163346
O O6 0.500000 0.000000 0.240877
O O7 0.593928 0.945107 0.323908
O O8 0.544416 0.772208 0.333334
O O9 0.624425 0.758603 0.208279
O O10 0.453942 0.627249 0.253516
O O11 0.121099 0.060550 0.833334
O O12 0.261361 0.064853 0.903603
O O13 0.134909 0.915492 0.859305
O O14 0.121458 0.000000 0.000000
O O15 0.336335 0.000000 0.000000
O O16 0.763614 0.763614 0.166667
O O17 0.655484 0.344516 0.166667
O O18 0.675283 0.350565 0.000000
#
# Coordination Sequence:
#
# PCOD9584570 Si02
#       7
#    12  12  12  12  12  12  12
#     4  12  23  46  70 104 143 190 242 302 373 439
#     4  12  25  43  71 106 143 189 245 303 373 439
#     4  11  24  41  67  99 139 180 238 300 356 440
#     4  11  24  46  74 107 148 189 246 309 380 458
#     4  11  25  45  73 100 141 196 248 308 366 455
#     4  12  24  41  73 106 136 189 240 296 382 449
#     4  11  25  43  69 101 149 197 242 305 369 439
#
# _framework density 21.07694
#
# number of rings (size 3 to 8) (size 9 to 14) (size 15 to 20)
#    0.000    0.571    7.143    2.143    0.000    2.857 
#    2.571    2.857    0.000    0.000    0.000    0.000 
#    0.000    0.000    0.000    0.000    0.000    0.000 
#
# Total GULP energy -468881.574145 kJ/mol
# GULP energy per Si atom -5581.923502 kJ/mol
# Density = 2.102897 g / cm^3
# Si number density = 21.076940 Si / 1000 Ang^3
#
#
#
# Elastic Constant Matrix: (Units=GPa)
#
#
# Indices 1 2 3 4 5 6 
#
# 1 90.4865 29.1579 37.7514 0.0000 0.0000 0.0000
# 2 29.1579 90.4865 37.7514 0.0000 0.0000 0.0000
# 3 37.7514 37.7514 134.6765 0.0000 0.0000 0.0000
# 4 0.0000 0.0000 0.0000 28.3920 0.0000 0.0000
# 5 0.0000 0.0000 0.0000 0.0000 28.3920 0.0000
# 6 0.0000 0.0000 0.0000 0.0000 0.0000 30.6643
#
#
#
# Elastic Compliance Matrix: (Units=1/GPa)
#
#
# Indices 1 2 3 4 5 6 
#
# 1 0.013230 -0.003076 -0.002846 0.000000 0.000000 0.000000
# 2 -0.003076 0.013230 -0.002846 0.000000 0.000000 0.000000
# 3 -0.002846 -0.002846 0.009021 0.000000 0.000000 0.000000
# 4 0.000000 0.000000 0.000000 0.035221 0.000000 0.000000
# 5 0.000000 0.000000 0.000000 0.000000 0.035221 0.000000
# 6 0.000000 0.000000 0.000000 0.000000 0.000000 0.032611
#
#
# Mechanical properties :
#
#
# Convention : Reuss Voigt Hill
#
# Bulk Modulus (GPa) = 55.72861 58.33009 57.02935
# Shear Modulus (GPa) = 30.85416 31.55557 31.20487
#
# Velocity S-wave (km/s) = 3.83022 3.87351 3.85193
# Velocity P-wave (km/s) = 6.78666 6.90944 6.84833
#
# Compressibility (1/GPa) = 0.01794410
#
# Stress axis : x y z
#
# Youngs Moduli (GPa) = 75.58598 75.58598 110.85309
#
# Poissons Ratio (x) = 0.23247 0.31553
# Poissons Ratio (y) = 0.23247 0.31553
# Poissons Ratio (z) = 0.21515 0.21515
#
# Static dielectric constant tensor:
#      x y z
#    x 1.796160 0.000000 0.000000 
#    y 0.000000 1.796160 0.000000 
#    z 0.000000 0.000000 1.896490 
# 
# From -- ./inp_files/6506.got.cif
#   From: 2010.05.17/outbox.cif.g08.bks.cpg/sg181_4_cif.got.tgz:6506.got - 2010.05.20 11:51:17.
