data_PCOD9584414
_publ_section_title
;
Structure prediction by ZEFSAII (Michael W. Deem and Ramdas Pophale) SiO2 
 PCOD9584414
Probable space group: P 64 2 2
;
_chemical_formula_sum "Si O2"
_cell_formula_units_Z 51
_cell_length_a 12.189783
_cell_length_b 12.189783
_cell_length_c 17.471836
_cell_angle_alpha 90.000000
_cell_angle_beta 90.000000
_cell_angle_gamma 120.000000
_cell_volume 2248.335538
_symmetry_space_group_name_H-M "P 64 2 2"
_symmetry_group_IT_number 181
_symmetry_cell_setting 'hexagonal'
loop_
_space_group_symop_operation_xyz
x,y,z
x-y,x,2/3+z
-y,x-y,1/3+z
-x,-y,z
-x+y,-x,2/3+z
y,-x+y,1/3+z
x-y,-y,-z
-x,-x+y,2/3-z
y,x,1/3-z
-y,-x,1/3-z
-x+y,y,-z
x,x-y,2/3-z
loop_
_atom_site_type_symbol
_atom_site_label
_atom_site_fract_x
_atom_site_fract_y
_atom_site_fract_z
Si Si1 0.758305 0.143457 0.466401
Si Si2 0.308496 0.392042 0.379030
Si Si3 0.197003 0.522351 0.073578
Si Si4 0.000000 0.000000 0.166667
Si Si5 0.976573 0.766408 0.420791
O O1 0.712992 0.123679 0.377847
O O2 0.727930 0.223293 0.527196
O O3 0.911829 0.240763 0.464019
O O4 0.703821 0.000000 0.500000
O O5 0.381252 0.526943 0.421770
O O6 0.393791 0.325161 0.380787
O O7 0.175347 0.309382 0.422303
O O8 0.286024 0.572048 0.000000
O O9 0.110410 0.020251 0.110171
O O10 0.000000 0.750595 0.333334
#
# Coordination Sequence:
#
# PCOD9584414 Si02
#       5
#    12  12  12   3  12
#     4  11  21  42  73 105 139 187 238 306 372 423
#     4  10  24  43  65 103 148 183 237 297 357 448
#     4  11  23  43  68 100 140 189 245 299 350 432
#     4  12  18  32  60  98 128 182 212 284 360 434
#     4  10  22  36  61 101 142 177 223 290 368 434
#
# _framework density 22.683447000000001
#
# number of rings (size 3 to 8) (size 9 to 14) (size 15 to 20)
#    0.000    1.412    3.529    1.765    0.000    0.941 
#    0.000   11.765    0.000    4.941    0.000    4.941 
#    0.000    0.000    0.000    0.000    0.000    0.000 
#
# Total GULP energy -284060.744886 kJ/mol
# GULP energy per Si atom -5569.818527 kJ/mol
# Density = 2.263182 g / cm^3
# Si number density = 22.683447 Si / 1000 Ang^3
#
#
#
# Elastic Constant Matrix: (Units=GPa)
#
#
# Indices 1 2 3 4 5 6 
#
# 1 83.5618 35.4782 14.8776 0.0000 0.0000 0.0000
# 2 35.4782 83.5618 14.8776 0.0000 0.0000 0.0000
# 3 14.8776 14.8776 85.7592 0.0000 0.0000 0.0000
# 4 0.0000 0.0000 0.0000 18.0287 0.0000 0.0000
# 5 0.0000 0.0000 0.0000 0.0000 18.0287 0.0000
# 6 0.0000 0.0000 0.0000 0.0000 0.0000 24.0418
#
#
#
# Elastic Compliance Matrix: (Units=1/GPa)
#
#
# Indices 1 2 3 4 5 6 
#
# 1 0.014789 -0.006008 -0.001523 0.000000 0.000000 0.000000
# 2 -0.006008 0.014789 -0.001523 0.000000 0.000000 0.000000
# 3 -0.001523 -0.001523 0.012189 0.000000 0.000000 0.000000
# 4 0.000000 0.000000 0.000000 0.055467 0.000000 0.000000
# 5 0.000000 0.000000 0.000000 0.000000 0.055467 0.000000
# 6 0.000000 0.000000 0.000000 0.000000 0.000000 0.041594
#
#
# Mechanical properties :
#
#
# Convention : Reuss Voigt Hill
#
# Bulk Modulus (GPa) = 42.26864 42.59438 42.43151
# Shear Modulus (GPa) = 22.69721 24.52980 23.61351
#
# Velocity S-wave (km/s) = 3.16667 3.29203 3.22996
# Velocity P-wave (km/s) = 5.66083 5.76788 5.71460
#
# Compressibility (1/GPa) = 0.02365820
#
# Stress axis : x y z
#
# Youngs Moduli (GPa) = 67.61684 67.61684 82.04040
#
# Poissons Ratio (x) = 0.40623 0.12498
# Poissons Ratio (y) = 0.40623 0.12498
# Poissons Ratio (z) = 0.10301 0.10301
#
# Static dielectric constant tensor:
#      x y z
#    x 1.695740 0.000000 0.000000 
#    y 0.000000 1.695740 0.000000 
#    z 0.000000 0.000000 1.872020 
# 
# From -- ./inp_files/8797.got.cif
#   From: 2010.05.17/outbox.cif.g08.bks.cpg/sg181_5_cif.got.tgz:8797.got - 2010.05.20 11:51:17.
