data_PCOD9584264
_publ_section_title
;
Structure prediction by ZEFSAII (Michael W. Deem and Ramdas Pophale) SiO2 
 PCOD9584264
Probable space group: P 64 2 2
;
_chemical_formula_sum "Si O2"
_cell_formula_units_Z 72
_cell_length_a 15.685917
_cell_length_b 15.685917
_cell_length_c 15.028722
_cell_angle_alpha 90.000000
_cell_angle_beta 90.000000
_cell_angle_gamma 120.000000
_cell_volume 3202.377369
_symmetry_space_group_name_H-M "P 64 2 2"
_symmetry_group_IT_number 181
_symmetry_cell_setting 'hexagonal'
loop_
_space_group_symop_operation_xyz
x,y,z
x-y,x,2/3+z
-y,x-y,1/3+z
-x,-y,z
-x+y,-x,2/3+z
y,-x+y,1/3+z
x-y,-y,-z
-x,-x+y,2/3-z
y,x,1/3-z
-y,-x,1/3-z
-x+y,y,-z
x,x-y,2/3-z
loop_
_atom_site_type_symbol
_atom_site_label
_atom_site_fract_x
_atom_site_fract_y
_atom_site_fract_z
Si Si1 0.912427 0.782110 0.396099
Si Si2 0.925871 0.634047 0.658376
Si Si3 0.528914 0.139803 0.145304
Si Si4 0.669318 0.538074 0.011469
Si Si5 0.340222 0.948892 0.116152
Si Si6 0.424237 0.754245 0.609502
O O1 0.905519 0.811038 0.500000
O O2 0.811367 0.735752 0.340515
O O3 0.925063 0.685957 0.406090
O O4 0.000000 0.859514 0.333334
O O5 0.941575 0.623323 0.554261
O O6 0.826612 0.534289 0.684621
O O7 0.024803 0.649973 0.705114
O O8 0.507180 0.120196 0.250263
O O9 0.614184 0.122156 0.106414
O O10 0.556828 0.249944 0.130519
O O11 0.428742 0.059062 0.097575
O O12 0.784442 0.568883 0.000000
O O13 0.618084 0.444589 0.074765
O O14 0.335311 0.664690 0.666667
#
# Coordination Sequence:
#
# PCOD9584264 Si02
#       6
#    12  12  12  12  12  12
#     4  10  20  34  58  93 127 164 213 269 340 413
#     4  10  19  37  57  80 119 164 205 262 335 400
#     4  10  19  34  54  83 120 161 208 264 323 389
#     4  10  22  38  56  78 111 164 218 263 326 399
#     4   9  18  33  56  83 123 161 204 259 328 402
#     4  11  21  31  54  85 115 158 208 259 309 393
#
# _framework density 22.483294999999998
#
# number of rings (size 3 to 8) (size 9 to 14) (size 15 to 20)
#    0.000    2.000    1.667    2.500    0.000    2.667 
#    0.000    2.500    0.000    4.500    0.000    5.833 
#    0.000    0.000    0.000    1.667    0.000    0.000 
#
# Total GULP energy -401801.237728 kJ/mol
# GULP energy per Si atom -5580.572746 kJ/mol
# Density = 2.243212 g / cm^3
# Si number density = 22.483295 Si / 1000 Ang^3
#
#
#
# Elastic Constant Matrix: (Units=GPa)
#
#
# Indices 1 2 3 4 5 6 
#
# 1 93.5570 41.8717 35.7040 0.0000 0.0000 0.0000
# 2 41.8717 93.5570 35.7040 0.0000 0.0000 0.0000
# 3 35.7040 35.7040 59.2727 0.0000 0.0000 0.0000
# 4 0.0000 0.0000 0.0000 31.2034 0.0000 0.0000
# 5 0.0000 0.0000 0.0000 0.0000 31.2034 0.0000
# 6 0.0000 0.0000 0.0000 0.0000 0.0000 25.8426
#
#
#
# Elastic Compliance Matrix: (Units=1/GPa)
#
#
# Indices 1 2 3 4 5 6 
#
# 1 0.015084 -0.004264 -0.006518 0.000000 0.000000 0.000000
# 2 -0.004264 0.015084 -0.006518 0.000000 0.000000 0.000000
# 3 -0.006518 -0.006518 0.024724 0.000000 0.000000 0.000000
# 4 0.000000 0.000000 0.000000 0.032048 0.000000 0.000000
# 5 0.000000 0.000000 0.000000 0.000000 0.032048 0.000000
# 6 0.000000 0.000000 0.000000 0.000000 0.000000 0.038696
#
#
# Mechanical properties :
#
#
# Convention : Reuss Voigt Hill
#
# Bulk Modulus (GPa) = 49.27821 52.54956 50.91388
# Shear Modulus (GPa) = 25.11962 26.52368 25.82165
#
# Velocity S-wave (km/s) = 3.34617 3.43841 3.39260
# Velocity P-wave (km/s) = 6.07407 6.25995 6.16771
#
# Compressibility (1/GPa) = 0.02029295
#
# Stress axis : x y z
#
# Youngs Moduli (GPa) = 66.29400 66.29400 40.44689
#
# Poissons Ratio (x) = 0.28265 0.26364
# Poissons Ratio (y) = 0.28265 0.26364
# Poissons Ratio (z) = 0.43211 0.43211
#
# Static dielectric constant tensor:
#      x y z
#    x 1.871140 0.000000 0.000000 
#    y 0.000000 1.871140 0.000000 
#    z 0.000000 0.000000 1.921710 
# 
# From -- ./inp_files/7751.got.cif
#   From: 2010.05.17/outbox.cif.g08.bks.cpg/sg181_4_cif.got.tgz:7751.got - 2010.05.20 11:51:17.
