data_PCOD9584514
_publ_section_title
;
Structure prediction by ZEFSAII (Michael W. Deem and Ramdas Pophale) SiO2 
 PCOD9584514
Probable space group: P 64 2 2
;
_chemical_formula_sum "Si O2"
_cell_formula_units_Z 60
_cell_length_a 12.663759
_cell_length_b 12.663759
_cell_length_c 24.604558
_cell_angle_alpha 90.000000
_cell_angle_beta 90.000000
_cell_angle_gamma 120.000000
_cell_volume 3417.208464
_symmetry_space_group_name_H-M "P 64 2 2"
_symmetry_group_IT_number 181
_symmetry_cell_setting 'hexagonal'
loop_
_space_group_symop_operation_xyz
x,y,z
x-y,x,2/3+z
-y,x-y,1/3+z
-x,-y,z
-x+y,-x,2/3+z
y,-x+y,1/3+z
x-y,-y,-z
-x,-x+y,2/3-z
y,x,1/3-z
-y,-x,1/3-z
-x+y,y,-z
x,x-y,2/3-z
loop_
_atom_site_type_symbol
_atom_site_label
_atom_site_fract_x
_atom_site_fract_y
_atom_site_fract_z
Si Si1 0.448995 0.294182 0.278442
Si Si2 0.301810 0.473339 0.835697
Si Si3 0.319161 0.888271 0.144057
Si Si4 0.868505 0.311462 0.934440
Si Si5 0.314468 0.454870 0.649972
O O1 0.429213 0.214607 0.333334
O O2 0.455701 0.219785 0.226580
O O3 0.574878 0.423637 0.281690
O O4 0.353500 0.341866 0.266060
O O5 0.347971 0.378337 0.822849
O O6 0.432600 0.598373 0.834875
O O7 0.208547 0.460960 0.787648
O O8 0.184736 0.815265 0.166667
O O9 0.309020 0.859819 0.080733
O O10 0.807785 0.216300 0.983368
O O11 0.378927 0.378927 0.666667
O O12 0.405845 0.594155 0.666667
#
# Coordination Sequence:
#
# PCOD9584514 Si02
#       5
#    12  12  12  12  12
#     4  11  26  38  59  89 118 158 195 241 295 347
#     4  11  22  41  58  88 122 157 195 235 298 355
#     4  11  23  35  62  94 120 152 191 253 296 343
#     4  11  22  40  63  83 120 158 194 238 291 363
#     4  11  19  37  62  90 116 146 198 240 298 348
#
# _framework density 17.558191999999998
#
# number of rings (size 3 to 8) (size 9 to 14) (size 15 to 20)
#    0.000    1.000    4.000    4.200    5.600    3.200 
#    0.000    0.000    0.000    5.400    0.000    0.000 
#    0.000    0.000    0.000    0.000    0.000    0.000 
#
# Total GULP energy -334758.177386 kJ/mol
# GULP energy per Si atom -5579.302956 kJ/mol
# Density = 1.751823 g / cm^3
# Si number density = 17.558192 Si / 1000 Ang^3
#
#
#
# Elastic Constant Matrix: (Units=GPa)
#
#
# Indices 1 2 3 4 5 6 
#
# 1 81.4324 29.5594 40.2900 0.0000 0.0000 0.0000
# 2 29.5594 81.4324 40.2900 0.0000 0.0000 0.0000
# 3 40.2900 40.2900 110.1971 0.0000 0.0000 0.0000
# 4 0.0000 0.0000 0.0000 29.3835 0.0000 0.0000
# 5 0.0000 0.0000 0.0000 0.0000 29.3835 0.0000
# 6 0.0000 0.0000 0.0000 0.0000 0.0000 25.9365
#
#
#
# Elastic Compliance Matrix: (Units=1/GPa)
#
#
# Indices 1 2 3 4 5 6 
#
# 1 0.015772 -0.003506 -0.004484 0.000000 0.000000 0.000000
# 2 -0.003506 0.015772 -0.004484 0.000000 0.000000 0.000000
# 3 -0.004484 -0.004484 0.012354 0.000000 0.000000 0.000000
# 4 0.000000 0.000000 0.000000 0.034033 0.000000 0.000000
# 5 0.000000 0.000000 0.000000 0.000000 0.034033 0.000000
# 6 0.000000 0.000000 0.000000 0.000000 0.000000 0.038556
#
#
# Mechanical properties :
#
#
# Convention : Reuss Voigt Hill
#
# Bulk Modulus (GPa) = 52.77931 54.81566 53.79749
# Shear Modulus (GPa) = 27.50516 27.80218 27.65367
#
# Velocity S-wave (km/s) = 3.96222 3.98355 3.97290
# Velocity P-wave (km/s) = 7.14543 7.24192 7.19384
#
# Compressibility (1/GPa) = 0.01894682
#
# Stress axis : x y z
#
# Youngs Moduli (GPa) = 63.40507 63.40507 80.94657
#
# Poissons Ratio (x) = 0.22231 0.36300
# Poissons Ratio (y) = 0.22231 0.36300
# Poissons Ratio (z) = 0.28434 0.28434
#
# Static dielectric constant tensor:
#      x y z
#    x 1.616610 0.000000 0.000000 
#    y 0.000000 1.616610 0.000000 
#    z 0.000000 0.000000 1.570240 
# 
# From -- ./inp_files/11164.got.cif
#   From: 2010.05.17/outbox.cif.g08.bks.cpg/sg181_6_cif.got.tgz:11164.got - 2010.05.20 11:51:17.
