data_PCOD9584233
_publ_section_title
;
Structure prediction by ZEFSAII (Michael W. Deem and Ramdas Pophale) SiO2 
 PCOD9584233
Probable space group: P 64 2 2
;
_chemical_formula_sum "Si O2"
_cell_formula_units_Z 60
_cell_length_a 11.219896
_cell_length_b 11.219896
_cell_length_c 27.267885
_cell_angle_alpha 90.000000
_cell_angle_beta 90.000000
_cell_angle_gamma 120.000000
_cell_volume 2972.759312
_symmetry_space_group_name_H-M "P 64 2 2"
_symmetry_group_IT_number 181
_symmetry_cell_setting 'hexagonal'
loop_
_space_group_symop_operation_xyz
x,y,z
x-y,x,2/3+z
-y,x-y,1/3+z
-x,-y,z
-x+y,-x,2/3+z
y,-x+y,1/3+z
x-y,-y,-z
-x,-x+y,2/3-z
y,x,1/3-z
-y,-x,1/3-z
-x+y,y,-z
x,x-y,2/3-z
loop_
_atom_site_type_symbol
_atom_site_label
_atom_site_fract_x
_atom_site_fract_y
_atom_site_fract_z
Si Si1 0.478801 0.301699 0.247094
Si Si2 0.158621 0.292623 0.823986
Si Si3 0.100108 0.665116 0.143126
Si Si4 0.878883 0.286100 0.937132
Si Si5 0.147606 0.525123 0.630960
O O1 0.416197 0.230799 0.195225
O O2 0.601345 0.456869 0.241847
O O3 0.353698 0.309012 0.273836
O O4 0.546558 0.229541 0.278961
O O5 0.280163 0.265694 0.837920
O O6 0.174146 0.335423 0.767053
O O7 0.000000 0.176496 0.833334
O O8 0.252518 0.747483 0.166667
O O9 0.122475 0.683235 0.084992
O O10 0.000000 0.500000 0.152395
O O11 0.807914 0.274338 0.989723
O O12 0.000000 0.500000 0.647857
#
# Coordination Sequence:
#
# PCOD9584233 Si02
#       5
#    12  12  12  12  12
#     4  10  18  33  52  85 128 164 209 256 315 380
#     4  10  21  38  58  87 123 163 210 264 317 383
#     4  11  25  43  65  91 122 169 220 258 319 396
#     4  10  21  31  56  91 127 161 208 273 324 358
#     4  11  20  35  57  90 124 169 213 262 322 394
#
# _framework density 20.18327
#
# number of rings (size 3 to 8) (size 9 to 14) (size 15 to 20)
#    0.000    1.600    6.000    1.200    2.800    2.800 
#    0.000    1.000    0.000    1.200    0.000    2.800 
#    0.000    0.000    0.000    0.000    0.000    0.000 
#
# Total GULP energy -334105.801817 kJ/mol
# GULP energy per Si atom -5568.430030 kJ/mol
# Density = 2.013733 g / cm^3
# Si number density = 20.183270 Si / 1000 Ang^3
#
#
#
# Elastic Constant Matrix: (Units=GPa)
#
#
# Indices 1 2 3 4 5 6 
#
# 1 77.8996 37.0471 41.4226 0.0000 0.0000 0.0000
# 2 37.0471 77.8996 41.4226 0.0000 0.0000 0.0000
# 3 41.4226 41.4226 146.8570 0.0000 0.0000 0.0000
# 4 0.0000 0.0000 0.0000 -89.8547 0.0000 0.0000
# 5 0.0000 0.0000 0.0000 0.0000 -89.8547 0.0000
# 6 0.0000 0.0000 0.0000 0.0000 0.0000 20.4263
#
#
#
# Elastic Compliance Matrix: (Units=1/GPa)
#
#
# Indices 1 2 3 4 5 6 
#
# 1 0.017699 -0.006779 -0.003080 0.000000 0.000000 0.000000
# 2 -0.006779 0.017699 -0.003080 0.000000 0.000000 0.000000
# 3 -0.003080 -0.003080 0.008547 0.000000 0.000000 0.000000
# 4 0.000000 0.000000 0.000000 -0.011129 0.000000 0.000000
# 5 0.000000 0.000000 0.000000 0.000000 -0.011129 0.000000
# 6 0.000000 0.000000 0.000000 0.000000 0.000000 0.048957
#
#
# Mechanical properties :
#
#
# Convention : Reuss Voigt Hill
#
# Bulk Modulus (GPa) = 55.35273 60.27121 57.81197
# Shear Modulus (GPa) = 48.75973 -19.67234 14.54369
#
# Velocity S-wave (km/s) = 4.92046 -3.12538 2.68728
# Velocity P-wave (km/s) = 7.73084 4.11130 6.19147
#
# Compressibility (1/GPa) = 0.01806596
#
# Stress axis : x y z
#
# Youngs Moduli (GPa) = 56.50072 56.50072 117.00263
#
# Poissons Ratio (x) = 0.38304 0.36036
# Poissons Ratio (y) = 0.38304 0.36036
# Poissons Ratio (z) = 0.17402 0.17402
#
# Static dielectric constant tensor:
#      x y z
#    x 1.819850 0.000000 0.000000 
#    y 0.000000 1.819850 0.000000 
#    z 0.000000 0.000000 1.766690 
# 
# From -- ./inp_files/11166.got.cif
#   From: 2010.05.17/outbox.cif.g08.bks.cpg/sg181_6_cif.got.tgz:11166.got - 2010.05.20 11:51:17.
