data_PCOD9584425
_publ_section_title
;
Structure prediction by ZEFSAII (Michael W. Deem and Ramdas Pophale) SiO2 
 PCOD9584425
Probable space group: P 64 2 2
;
_chemical_formula_sum "Si O2"
_cell_formula_units_Z 60
_cell_length_a 11.656947
_cell_length_b 11.656947
_cell_length_c 24.668511
_cell_angle_alpha 90.000000
_cell_angle_beta 90.000000
_cell_angle_gamma 120.000000
_cell_volume 2902.974437
_symmetry_space_group_name_H-M "P 64 2 2"
_symmetry_group_IT_number 181
_symmetry_cell_setting 'hexagonal'
loop_
_space_group_symop_operation_xyz
x,y,z
x-y,x,2/3+z
-y,x-y,1/3+z
-x,-y,z
-x+y,-x,2/3+z
y,-x+y,1/3+z
x-y,-y,-z
-x,-x+y,2/3-z
y,x,1/3-z
-y,-x,1/3-z
-x+y,y,-z
x,x-y,2/3-z
loop_
_atom_site_type_symbol
_atom_site_label
_atom_site_fract_x
_atom_site_fract_y
_atom_site_fract_z
Si Si1 0.775789 0.874765 0.460843
Si Si2 0.184871 0.710005 0.864598
Si Si3 0.113384 0.278974 0.404144
Si Si4 0.623579 0.139743 0.132175
Si Si5 0.928029 0.733992 0.713305
O O1 0.633297 0.820633 0.488458
O O2 0.821697 0.768986 0.450207
O O3 0.869893 0.000000 0.500000
O O4 0.777499 0.930303 0.400803
O O5 0.151241 0.575621 0.833334
O O6 0.333082 0.777494 0.886820
O O7 0.098021 0.709131 0.915031
O O8 0.104911 0.407341 0.419743
O O9 0.195587 0.299675 0.349184
O O10 0.960736 0.166460 0.396083
O O11 0.748890 0.251111 0.166667
O O12 0.500000 0.000000 0.154930
#
# Coordination Sequence:
#
# PCOD9584425 Si02
#       5
#    12  12  12  12  12
#     4  10  22  38  66  95 128 165 216 272 336 398
#     4  10  22  41  64  90 123 174 222 255 322 401
#     4  11  22  38  62  97 131 158 214 272 341 387
#     4  11  22  39  66  93 130 171 222 275 324 398
#     4  10  22  38  62  96 127 167 202 275 338 394
#
# _framework density 20.668455000000002
#
# number of rings (size 3 to 8) (size 9 to 14) (size 15 to 20)
#    0.000    1.600    2.000    2.400    2.800    8.400 
#    0.000    0.000   30.800    0.000    0.000    0.000 
#    0.000    0.000    0.000    0.000    0.000    0.000 
#
# Total GULP energy -334483.080259 kJ/mol
# GULP energy per Si atom -5574.718004 kJ/mol
# Density = 2.062141 g / cm^3
# Si number density = 20.668455 Si / 1000 Ang^3
#
#
#
# Elastic Constant Matrix: (Units=GPa)
#
#
# Indices 1 2 3 4 5 6 
#
# 1 114.6328 33.3997 37.1431 0.0000 0.0000 0.0000
# 2 33.3997 114.6328 37.1431 0.0000 0.0000 0.0000
# 3 37.1431 37.1431 98.7944 0.0000 0.0000 0.0000
# 4 0.0000 0.0000 0.0000 9.9626 0.0000 0.0000
# 5 0.0000 0.0000 0.0000 0.0000 9.9626 0.0000
# 6 0.0000 0.0000 0.0000 0.0000 0.0000 40.6166
#
#
#
# Elastic Compliance Matrix: (Units=1/GPa)
#
#
# Indices 1 2 3 4 5 6 
#
# 1 0.010318 -0.001992 -0.003130 0.000000 0.000000 0.000000
# 2 -0.001992 0.010318 -0.003130 0.000000 0.000000 0.000000
# 3 -0.003130 -0.003130 0.012476 0.000000 0.000000 0.000000
# 4 0.000000 0.000000 0.000000 0.100376 0.000000 0.000000
# 5 0.000000 0.000000 0.000000 0.000000 0.100376 0.000000
# 6 0.000000 0.000000 0.000000 0.000000 0.000000 0.024620
#
#
# Mechanical properties :
#
#
# Convention : Reuss Voigt Hill
#
# Bulk Modulus (GPa) = 60.21633 60.38131 60.29882
# Shear Modulus (GPa) = 17.82372 26.79996 22.31184
#
# Velocity S-wave (km/s) = 2.93979 3.60482 3.28916
# Velocity P-wave (km/s) = 6.38129 6.82671 6.60775
#
# Compressibility (1/GPa) = 0.01660679
#
# Stress axis : x y z
#
# Youngs Moduli (GPa) = 96.91619 96.91619 80.15513
#
# Poissons Ratio (x) = 0.19306 0.25091
# Poissons Ratio (y) = 0.19306 0.25091
# Poissons Ratio (z) = 0.30338 0.30338
#
# Static dielectric constant tensor:
#      x y z
#    x 1.784260 0.000000 0.000000 
#    y 0.000000 1.784260 0.000000 
#    z 0.000000 0.000000 1.768040 
# 
# From -- ./inp_files/11173.got.cif
#   From: 2010.05.17/outbox.cif.g08.bks.cpg/sg181_6_cif.got.tgz:11173.got - 2010.05.20 11:51:17.
