data_PCOD9584615
_publ_section_title
;
Structure prediction by ZEFSAII (Michael W. Deem and Ramdas Pophale) SiO2 
 PCOD9584615
Probable space group: P 63 2 2
;
_chemical_formula_sum "Si O2"
_cell_formula_units_Z 48
_cell_length_a 17.081662
_cell_length_b 17.081662
_cell_length_c 9.351741
_cell_angle_alpha 90.000000
_cell_angle_beta 90.000000
_cell_angle_gamma 120.000000
_cell_volume 2363.106802
_symmetry_space_group_name_H-M "P 63 2 2"
_symmetry_group_IT_number 182
_symmetry_cell_setting 'hexagonal'
loop_
_space_group_symop_operation_xyz
x,y,z
x-y,x,1/2+z
-y,x-y,z
-x,-y,1/2+z
-x+y,-x,z
y,-x+y,1/2+z
x-y,-y,-z
-x,-x+y,-z
y,x,-z
-y,-x,1/2-z
-x+y,y,1/2-z
x,x-y,1/2-z
loop_
_atom_site_type_symbol
_atom_site_label
_atom_site_fract_x
_atom_site_fract_y
_atom_site_fract_z
Si Si1 0.071806 0.713348 0.628040
Si Si2 0.000000 0.830670 0.000000
Si Si3 0.842917 0.631020 0.914567
Si Si4 0.417407 0.447546 0.149507
Si Si5 0.100729 0.899272 0.750000
O O1 0.166241 0.765072 0.537110
O O2 0.064919 0.795383 0.702239
O O3 0.000000 0.671167 0.500000
O O4 0.044443 0.636863 0.751857
O O5 0.038772 0.898577 0.873277
O O6 0.916258 0.733673 0.954667
O O7 0.814575 0.629150 0.750000
O O8 0.896791 0.577448 0.906791
O O9 0.466025 0.533976 0.250000
O O10 0.470543 0.470543 0.000000
#
# Coordination Sequence:
#
# PCOD9584615 Si02
#       5
#    12   6  12  12   6
#     4  11  20  36  60  92 126 163 207 268 333 382
#     4  10  18  32  50  88 126 158 198 270 320 388
#     4  11  20  36  62  92 131 158 212 273 334 386
#     4  12  24  40  60  97 134 171 223 276 334 394
#     4  10  18  30  54  82 132 150 208 262 330 378
#
# _framework density 20.312242999999999
#
# number of rings (size 3 to 8) (size 9 to 14) (size 15 to 20)
#    0.000    1.000    6.250    2.250    0.000    0.000 
#    0.000    0.000    0.000    0.500    0.000    0.000 
#  543.750    0.000    0.000    0.000    0.000    0.000 
#
# Total GULP energy -267598.543813 kJ/mol
# GULP energy per Si atom -5574.969663 kJ/mol
# Density = 2.026601 g / cm^3
# Si number density = 20.312243 Si / 1000 Ang^3
#
#
#
# Elastic Constant Matrix: (Units=GPa)
#
#
# Indices 1 2 3 4 5 6 
#
# 1 18.8196 28.2958 26.1228 0.0000 0.0000 0.0000
# 2 28.2958 18.8196 26.1228 0.0000 0.0000 0.0000
# 3 26.1228 26.1228 151.5303 0.0000 0.0000 0.0000
# 4 0.0000 0.0000 0.0000 5.5841 0.0000 0.0000
# 5 0.0000 0.0000 0.0000 0.0000 5.5841 0.0000
# 6 0.0000 0.0000 0.0000 0.0000 0.0000 -4.7381
#
#
#
# Elastic Compliance Matrix: (Units=1/GPa)
#
#
# Indices 1 2 3 4 5 6 
#
# 1 -0.039643 0.065884 -0.004524 0.000000 0.000000 0.000000
# 2 0.065884 -0.039643 -0.004524 0.000000 0.000000 0.000000
# 3 -0.004524 -0.004524 0.008159 0.000000 0.000000 0.000000
# 4 0.000000 0.000000 0.000000 0.179079 0.000000 0.000000
# 5 0.000000 0.000000 0.000000 0.000000 0.179079 0.000000
# 6 0.000000 0.000000 0.000000 0.000000 0.000000 -0.211054
#
#
# Mechanical properties :
#
#
# Convention : Reuss Voigt Hill
#
# Bulk Modulus (GPa) = 23.50414 38.91695 31.21055
# Shear Modulus (GPa) = -212.64015 8.52789 -102.05613
#
# Velocity S-wave (km/s) = -10.24270 2.05122 -7.09597
# Velocity P-wave (km/s) = 11.32640 4.98106 7.19293
#
# Compressibility (1/GPa) = 0.04254569
#
# Stress axis : x y z
#
# Youngs Moduli (GPa) = -25.22502 -25.22502 122.56304
#
# Poissons Ratio (x) = 1.66192 0.55444
# Poissons Ratio (y) = 1.66192 0.55444
# Poissons Ratio (z) = -0.11411 -0.11411
#
# Static dielectric constant tensor:
#      x y z
#    x 1.796190 0.000000 0.000000 
#    y 0.000000 1.796190 0.000000 
#    z 0.000000 0.000000 1.797490 
# 
# From -- ./inp_files/1477.got.cif
#   From: 2010.05.17/outbox.cif.g08.bks.cpg/sg182_1_cif.got.tgz:1477.got - 2010.05.20 11:58:53.
