data_PCOD9584707
_publ_section_title
;
Structure prediction by ZEFSAII (Michael W. Deem and Ramdas Pophale) SiO2 
 PCOD9584707
Probable space group: P 63 2 2
;
_chemical_formula_sum "Si O2"
_cell_formula_units_Z 36
_cell_length_a 9.357075
_cell_length_b 9.357075
_cell_length_c 16.176236
_cell_angle_alpha 90.000000
_cell_angle_beta 90.000000
_cell_angle_gamma 120.000000
_cell_volume 1226.558671
_symmetry_space_group_name_H-M "P 63 2 2"
_symmetry_group_IT_number 182
_symmetry_cell_setting 'hexagonal'
loop_
_space_group_symop_operation_xyz
x,y,z
x-y,x,1/2+z
-y,x-y,z
-x,-y,1/2+z
-x+y,-x,z
y,-x+y,1/2+z
x-y,-y,-z
-x,-x+y,-z
y,x,-z
-y,-x,1/2-z
-x+y,y,1/2-z
x,x-y,1/2-z
loop_
_atom_site_type_symbol
_atom_site_label
_atom_site_fract_x
_atom_site_fract_y
_atom_site_fract_z
Si Si1 0.267515 0.371274 0.873020
Si Si2 0.583049 0.632474 0.200994
Si Si3 0.176839 0.397188 0.040270
O O1 0.101706 0.341087 0.828912
O O2 0.415804 0.449582 0.804624
O O3 0.272451 0.216700 0.909582
O O4 0.293459 0.470136 0.959227
O O5 0.577446 0.788723 0.250000
O O6 0.504968 0.649944 0.111655
O O7 0.000000 0.288833 0.000000
#
# Coordination Sequence:
#
# PCOD9584707 Si02
#       3
#    12  12  12
#     4   9  19  38  60  93 134 176 230 293 358 435
#     4  10  20  37  62  95 137 183 236 291 357 445
#     4   9  18  37  63  95 133 175 228 297 368 445
#
# _framework density 29.350411000000001
#
# number of rings (size 3 to 8) (size 9 to 14) (size 15 to 20)
#    0.000    2.667    0.000    1.000    0.000    0.000 
#   78.000    0.000    0.000    5.333    0.000    0.000 
#    0.000    0.000    0.000    0.000    0.000    0.000 
#
# Total GULP energy -200469.191640 kJ/mol
# GULP energy per Si atom -5568.588657 kJ/mol
# Density = 2.928361 g / cm^3
# Si number density = 29.350411 Si / 1000 Ang^3
#
#
#
# Elastic Constant Matrix: (Units=GPa)
#
#
# Indices 1 2 3 4 5 6 
#
# 1 189.7298 87.7329 101.6607 0.0000 0.0000 0.0000
# 2 87.7329 189.7298 101.6607 0.0000 0.0000 0.0000
# 3 101.6607 101.6607 375.5614 0.0000 0.0000 0.0000
# 4 0.0000 0.0000 0.0000 59.5617 0.0000 0.0000
# 5 0.0000 0.0000 0.0000 0.0000 59.5617 0.0000
# 6 0.0000 0.0000 0.0000 0.0000 0.0000 50.9985
#
#
#
# Elastic Compliance Matrix: (Units=1/GPa)
#
#
# Indices 1 2 3 4 5 6 
#
# 1 0.007150 -0.002654 -0.001217 0.000000 0.000000 0.000000
# 2 -0.002654 0.007150 -0.001217 0.000000 0.000000 0.000000
# 3 -0.001217 -0.001217 0.003322 0.000000 0.000000 0.000000
# 4 0.000000 0.000000 0.000000 0.016789 0.000000 0.000000
# 5 0.000000 0.000000 0.000000 0.000000 0.016789 0.000000
# 6 0.000000 0.000000 0.000000 0.000000 0.000000 0.019608
#
#
# Mechanical properties :
#
#
# Convention : Reuss Voigt Hill
#
# Bulk Modulus (GPa) = 134.31222 148.56998 141.44110
# Shear Modulus (GPa) = 59.90410 64.95551 62.42980
#
# Velocity S-wave (km/s) = 4.52264 4.70947 4.61700
# Velocity P-wave (km/s) = 8.55180 8.96110 8.75884
#
# Compressibility (1/GPa) = 0.00744534
#
# Stress axis : x y z
#
# Youngs Moduli (GPa) = 139.85916 139.85916 301.06563
#
# Poissons Ratio (x) = 0.37121 0.36639
# Poissons Ratio (y) = 0.37121 0.36639
# Poissons Ratio (z) = 0.17021 0.17021
#
# Static dielectric constant tensor:
#      x y z
#    x 2.277850 0.000000 0.000000 
#    y 0.000000 2.277850 0.000000 
#    z 0.000000 0.000000 2.618540 
# 
# From -- ./inp_files/3933.got.cif
#   From: 2010.05.17/outbox.cif.g08.bks.cpg/sg182_2_cif.got.tgz:3933.got - 2010.05.20 11:58:53.
