data_PCOD9584646
_publ_section_title
;
Structure prediction by ZEFSAII (Michael W. Deem and Ramdas Pophale) SiO2 
 PCOD9584646
Probable space group: P 63 2 2
;
_chemical_formula_sum "Si O2"
_cell_formula_units_Z 28
_cell_length_a 8.558513
_cell_length_b 8.558513
_cell_length_c 24.180228
_cell_angle_alpha 90.000000
_cell_angle_beta 90.000000
_cell_angle_gamma 120.000000
_cell_volume 1533.866819
_symmetry_space_group_name_H-M "P 63 2 2"
_symmetry_group_IT_number 182
_symmetry_cell_setting 'hexagonal'
loop_
_space_group_symop_operation_xyz
x,y,z
x-y,x,1/2+z
-y,x-y,z
-x,-y,1/2+z
-x+y,-x,z
y,-x+y,1/2+z
x-y,-y,-z
-x,-x+y,-z
y,x,-z
-y,-x,1/2-z
-x+y,y,1/2-z
x,x-y,1/2-z
loop_
_atom_site_type_symbol
_atom_site_label
_atom_site_fract_x
_atom_site_fract_y
_atom_site_fract_z
Si Si1 0.666667 0.333334 0.315421
Si Si2 0.049576 0.671936 0.607282
Si Si3 0.333335 0.666668 0.101924
Si Si4 0.333334 0.666668 0.530232
Si Si5 0.000000 0.000000 0.433221
O O1 0.666668 0.333334 0.250000
O O2 0.475712 0.290264 0.341900
O O3 0.143320 0.625097 0.556521
O O4 0.033508 0.842559 0.589060
O O5 0.854527 0.503654 0.619890
O O6 0.333334 0.666667 0.035010
O O7 0.000000 0.000000 0.500000
#
# Coordination Sequence:
#
# PCOD9584646 Si02
#       5
#     4  12   4   4   4
#     4  10  23  46  63  78 108 148 200 262 298 326
#     4  10  22  35  56  85 115 152 196 230 281 348
#     4  12  19  34  55  86 121 148 181 228 280 350
#     4  10  19  33  52  83 121 159 184 223 277 338
#     4  12  21  36  58  92 130 159 183 231 292 362
#
# _framework density 18.254518999999998
#
# number of rings (size 3 to 8) (size 9 to 14) (size 15 to 20)
#    0.000    1.714    0.000    9.000    0.000    0.000 
#    0.000    8.571    0.000    0.000    0.000    0.000 
#    0.000    0.000    0.000    0.000    0.000    0.000 
#
# Total GULP energy -156447.641213 kJ/mol
# GULP energy per Si atom -5587.415758 kJ/mol
# Density = 1.821297 g / cm^3
# Si number density = 18.254519 Si / 1000 Ang^3
#
#
#
# Elastic Constant Matrix: (Units=GPa)
#
#
# Indices 1 2 3 4 5 6 
#
# 1 133.4279 69.4802 41.2234 0.0007 0.0020 0.0024
# 2 69.4802 133.4320 41.2250 -0.0006 -0.0020 -0.0031
# 3 41.2234 41.2250 105.2319 0.0000 0.0008 0.0007
# 4 0.0007 -0.0006 0.0000 2.7876 0.0015 0.0020
# 5 0.0020 -0.0020 0.0008 0.0015 2.7866 -0.0006
# 6 0.0024 -0.0031 0.0007 0.0020 -0.0006 31.9714
#
#
#
# Elastic Compliance Matrix: (Units=1/GPa)
#
#
# Indices 1 2 3 4 5 6 
#
# 1 0.010749 -0.004888 -0.002296 -0.000004 -0.000011 -0.000001
# 2 -0.004888 0.010749 -0.002296 0.000003 0.000012 0.000001
# 3 -0.002296 -0.002296 0.011302 0.000000 -0.000003 0.000000
# 4 -0.000004 0.000003 0.000000 0.358727 -0.000190 -0.000022
# 5 -0.000011 0.000012 -0.000003 -0.000190 0.358863 0.000007
# 6 -0.000001 0.000001 0.000000 -0.000022 0.000007 0.031278
#
#
# Mechanical properties :
#
#
# Convention : Reuss Voigt Hill
#
# Bulk Modulus (GPa) = 72.25514 75.10543 73.68028
# Shear Modulus (GPa) = 6.20931 22.18668 14.19799
#
# Velocity S-wave (km/s) = 1.84632 3.49005 2.79190
# Velocity P-wave (km/s) = 6.64930 7.58112 7.13045
#
# Compressibility (1/GPa) = 0.01383985
#
# Stress axis : x y z
#
# Youngs Moduli (GPa) = 93.02837 93.03068 88.48133
#
# Poissons Ratio (x) = 0.45473 0.20316
# Poissons Ratio (y) = 0.45472 0.20317
# Poissons Ratio (z) = 0.21360 0.21362
#
# Static dielectric constant tensor:
#      x y z
#    x 1.635920 0.000000 0.000000 
#    y 0.000000 1.635920 0.000000 
#    z 0.000000 0.000000 1.597230 
# 
# From -- ./inp_files/5059.got.cif
#   From: 2010.05.17/outbox.cif.g08.bks.cpg/sg182_3_cif.got.tgz:5059.got - 2010.05.20 11:58:53.
