data_PCOD9584420
_publ_section_title
;
Structure prediction by ZEFSAII (Michael W. Deem and Ramdas Pophale) SiO2 
 PCOD9584420
Probable space group: P 64 2 2
;
_chemical_formula_sum "Si O2"
_cell_formula_units_Z 66
_cell_length_a 20.980483
_cell_length_b 20.980483
_cell_length_c 8.122138
_cell_angle_alpha 90.000000
_cell_angle_beta 90.000000
_cell_angle_gamma 120.000000
_cell_volume 3096.221057
_symmetry_space_group_name_H-M "P 64 2 2"
_symmetry_group_IT_number 181
_symmetry_cell_setting 'hexagonal'
loop_
_space_group_symop_operation_xyz
x,y,z
x-y,x,2/3+z
-y,x-y,1/3+z
-x,-y,z
-x+y,-x,2/3+z
y,-x+y,1/3+z
x-y,-y,-z
-x,-x+y,2/3-z
y,x,1/3-z
-y,-x,1/3-z
-x+y,y,-z
x,x-y,2/3-z
loop_
_atom_site_type_symbol
_atom_site_label
_atom_site_fract_x
_atom_site_fract_y
_atom_site_fract_z
Si Si1 0.932367 0.586893 0.562251
Si Si2 0.310508 0.689493 0.166667
Si Si3 0.420392 0.316886 0.514780
Si Si4 0.856537 0.431045 0.517468
Si Si5 0.946503 0.215887 0.992997
Si Si6 0.177317 0.269306 0.845627
O O1 0.897408 0.579899 0.380705
O O2 0.903219 0.504099 0.623828
O O3 0.916963 0.643469 0.661742
O O4 0.019917 0.627595 0.540976
O O5 0.334885 0.667443 0.333334
O O6 0.353459 0.777213 0.165051
O O7 0.502638 0.353196 0.441677
O O8 0.356092 0.236210 0.467249
O O9 0.892190 0.446095 0.333334
O O10 0.877464 0.134819 0.970490
O O11 0.000000 0.240658 0.833334
O O12 0.003650 0.230139 0.141183
O O13 0.122187 0.244373 0.000000
#
# Coordination Sequence:
#
# PCOD9584420 Si02
#       6
#    12   6  12  12  12  12
#     4   9  17  30  50  73  99 133 176 222 267 323
#     4  10  22  38  52  72 101 136 184 230 273 328
#     4   9  17  30  50  75  98 133 176 221 270 323
#     4   9  18  32  50  70  97 134 182 232 279 324
#     4   9  18  32  50  74 104 141 176 217 276 339
#     4   9  18  32  50  71 101 138 173 213 271 334
#
# _framework density 21.316307999999999
#
# number of rings (size 3 to 8) (size 9 to 14) (size 15 to 20)
#    0.000    2.909    0.000    0.545    0.000    8.000 
#    0.000    3.636    0.000    8.727    0.000    0.000 
#    0.000    0.000    0.000 1466.182    0.000   50.545 
#
# Total GULP energy -367622.032974 kJ/mol
# GULP energy per Si atom -5570.030803 kJ/mol
# Density = 2.126779 g / cm^3
# Si number density = 21.316308 Si / 1000 Ang^3
#
#
#
# Elastic Constant Matrix: (Units=GPa)
#
#
# Indices 1 2 3 4 5 6 
#
# 1 105.9921 64.1350 18.8457 0.0000 0.0000 0.0000
# 2 64.1350 105.9921 18.8457 0.0000 0.0000 0.0000
# 3 18.8457 18.8457 43.3855 0.0000 0.0000 0.0000
# 4 0.0000 0.0000 0.0000 21.6004 0.0000 0.0000
# 5 0.0000 0.0000 0.0000 0.0000 21.6004 0.0000
# 6 0.0000 0.0000 0.0000 0.0000 0.0000 20.9285
#
#
#
# Elastic Compliance Matrix: (Units=1/GPa)
#
#
# Indices 1 2 3 4 5 6 
#
# 1 0.015197 -0.008693 -0.002825 0.000000 0.000000 0.000000
# 2 -0.008693 0.015197 -0.002825 0.000000 0.000000 0.000000
# 3 -0.002825 -0.002825 0.025504 0.000000 0.000000 0.000000
# 4 0.000000 0.000000 0.000000 0.046296 0.000000 0.000000
# 5 0.000000 0.000000 0.000000 0.000000 0.046296 0.000000
# 6 0.000000 0.000000 0.000000 0.000000 0.000000 0.047782
#
#
# Mechanical properties :
#
#
# Convention : Reuss Voigt Hill
#
# Bulk Modulus (GPa) = 36.75024 51.00250 43.87637
# Shear Modulus (GPa) = 21.36491 23.06207 22.21349
#
# Velocity S-wave (km/s) = 3.16932 3.29279 3.23164
# Velocity P-wave (km/s) = 5.53811 6.19960 5.87817
#
# Compressibility (1/GPa) = 0.02721070
#
# Stress axis : x y z
#
# Youngs Moduli (GPa) = 65.80101 65.80101 39.21030
#
# Poissons Ratio (x) = 0.57204 0.11077
# Poissons Ratio (y) = 0.57204 0.11077
# Poissons Ratio (z) = 0.18590 0.18590
#
# Static dielectric constant tensor:
#      x y z
#    x 1.803420 0.000000 0.000000 
#    y 0.000000 1.803420 0.000000 
#    z 0.000000 0.000000 1.893710 
# 
# From -- ./inp_files/3209.got.cif
#   From: 2010.05.17/outbox.cif.g08.bks.cpg/sg181_2_cif.got.tgz:3209.got - 2010.05.20 11:51:17.
