data_PCOD9584917
_publ_section_title
;
Structure prediction by ZEFSAII (Michael W. Deem and Ramdas Pophale) SiO2 
 PCOD9584917
Probable space group: P 6 M M
;
_chemical_formula_sum "Si O2"
_cell_formula_units_Z 96
_cell_length_a 18.418693
_cell_length_b 18.418693
_cell_length_c 21.051786
_cell_angle_alpha 90.000000
_cell_angle_beta 90.000000
_cell_angle_gamma 120.000000
_cell_volume 6184.964292
_symmetry_space_group_name_H-M "P 6 M M"
_symmetry_group_IT_number 183
_symmetry_cell_setting 'hexagonal'
loop_
_space_group_symop_operation_xyz
x,y,z
x-y,x,z
-y,x-y,z
-x,-y,z
-x+y,-x,z
y,-x+y,z
-x+y,y,z
x,x-y,z
-y,-x,z
y,x,z
x-y,-y,z
-x,-x+y,z
loop_
_atom_site_type_symbol
_atom_site_label
_atom_site_fract_x
_atom_site_fract_y
_atom_site_fract_z
Si Si1 0.361138 0.263645 0.660580
Si Si2 0.634180 0.532264 0.138497
Si Si3 0.497561 0.334031 0.766951
Si Si4 0.829362 0.498851 0.409761
Si Si5 0.636975 0.539596 0.277729
Si Si6 0.502465 0.836525 0.916019
Si Si7 0.366300 0.466731 0.542789
Si Si8 0.262885 0.902664 0.021781
O O1 0.330250 0.165125 0.663358
O O2 0.290933 0.290933 0.654872
O O3 0.417804 0.307251 0.722681
O O4 0.424904 0.303769 0.601164
O O5 0.565278 0.434723 0.126812
O O6 0.580062 0.580062 0.142157
O O7 0.674819 0.543427 0.208250
O O8 0.698342 0.576890 0.081806
O O9 0.520868 0.260434 0.759878
O O10 0.576481 0.423520 0.749015
O O11 0.479245 0.337116 0.841484
O O12 0.730491 0.460981 0.412518
O O13 0.853702 0.426851 0.409625
O O14 0.860234 0.544930 0.342406
O O15 0.867277 0.547011 0.475297
O O16 0.550919 0.449082 0.276979
O O17 0.608557 0.608557 0.281355
O O18 0.423457 0.846914 0.933919
O O19 0.479435 0.739718 0.923177
O O20 0.582149 0.889697 0.960319
O O21 0.434254 0.565747 0.552056
O O22 0.420185 0.420185 0.539520
O O23 0.164450 0.835551 0.018025
O O24 0.290086 0.000000 0.027457
#
# Coordination Sequence:
#
# PCOD9584917 Si02
#       8
#    12  12  12  12  12  12  12  12
#     4  10  20  33  48  66  88 113 143 180 222 264
#     4   8  14  26  44  64  84 106 134 168 208 257
#     4   9  17  29  46  69  97 127 154 178 205 241
#     4  10  18  26  36  52  77 108 141 174 205 236
#     4   8  14  25  40  56  75 102 136 171 203 237
#     4   9  17  29  46  69  97 126 152 176 205 244
#     4   9  17  29  45  63  82 106 137 172 210 255
#     4  10  20  32  46  64  86 112 143 181 223 264
#
# _framework density 15.521513000000001
#
# number of rings (size 3 to 8) (size 9 to 14) (size 15 to 20)
#    0.000    2.875    0.000    2.625    0.000    5.000 
#    0.000    1.250    0.000    4.500    0.000    0.000 
#    0.000    0.000    0.000    6.250    0.000    0.000 
#
# Total GULP energy -534419.671044 kJ/mol
# GULP energy per Si atom -5566.871573 kJ/mol
# Density = 1.548618 g / cm^3
# Si number density = 15.521513 Si / 1000 Ang^3
#
#
#
# Elastic Constant Matrix: (Units=GPa)
#
#
# Indices 1 2 3 4 5 6 
#
# 1 55.6002 34.6116 31.6256 0.0000 0.0000 0.0000
# 2 34.6116 55.6002 31.6256 0.0000 0.0000 0.0000
# 3 31.6256 31.6256 76.1840 0.0000 0.0000 0.0000
# 4 0.0000 0.0000 0.0000 10.5743 0.0000 0.0000
# 5 0.0000 0.0000 0.0000 0.0000 10.5743 0.0000
# 6 0.0000 0.0000 0.0000 0.0000 0.0000 10.4943
#
#
#
# Elastic Compliance Matrix: (Units=1/GPa)
#
#
# Indices 1 2 3 4 5 6 
#
# 1 0.031641 -0.016005 -0.006491 0.000000 0.000000 0.000000
# 2 -0.016005 0.031641 -0.006491 0.000000 0.000000 0.000000
# 3 -0.006491 -0.006491 0.018515 0.000000 0.000000 0.000000
# 4 0.000000 0.000000 0.000000 0.094569 0.000000 0.000000
# 5 0.000000 0.000000 0.000000 0.000000 0.094569 0.000000
# 6 0.000000 0.000000 0.000000 0.000000 0.000000 0.095290
#
#
# Mechanical properties :
#
#
# Convention : Reuss Voigt Hill
#
# Bulk Modulus (GPa) = 41.97491 42.56777 42.27134
# Shear Modulus (GPa) = 11.57039 12.29667 11.93353
#
# Velocity S-wave (km/s) = 2.73324 2.81772 2.77580
# Velocity P-wave (km/s) = 6.08790 6.17014 6.12916
#
# Compressibility (1/GPa) = 0.02382376
#
# Stress axis : x y z
#
# Youngs Moduli (GPa) = 31.60499 31.60499 54.00997
#
# Poissons Ratio (x) = 0.50582 0.35057
# Poissons Ratio (y) = 0.50582 0.35057
# Poissons Ratio (z) = 0.20514 0.20514
#
# Static dielectric constant tensor:
#      x y z
#    x 1.502370 0.000000 0.000000 
#    y 0.000000 1.502370 0.000000 
#    z 0.000000 0.000000 1.558390 
# 
# From -- ./inp_files/2976.got.cif
#   From: 2010.05.17/outbox.cif.g08.bks.cpg/sg183_2_cif.got.tgz:2976.got - 2010.05.20 12:02:58.
