data_PCOD9584784
_publ_section_title
;
Structure prediction by ZEFSAII (Michael W. Deem and Ramdas Pophale) SiO2 
 PCOD9584784
Probable space group: P 63 2 2
;
_chemical_formula_sum "Si O2"
_cell_formula_units_Z 28
_cell_length_a 13.186462
_cell_length_b 13.186462
_cell_length_c 9.460504
_cell_angle_alpha 90.000000
_cell_angle_beta 90.000000
_cell_angle_gamma 120.000000
_cell_volume 1424.628015
_symmetry_space_group_name_H-M "P 63 2 2"
_symmetry_group_IT_number 182
_symmetry_cell_setting 'hexagonal'
loop_
_space_group_symop_operation_xyz
x,y,z
x-y,x,1/2+z
-y,x-y,z
-x,-y,1/2+z
-x+y,-x,z
y,-x+y,1/2+z
x-y,-y,-z
-x,-x+y,-z
y,x,-z
-y,-x,1/2-z
-x+y,y,1/2-z
x,x-y,1/2-z
loop_
_atom_site_type_symbol
_atom_site_label
_atom_site_fract_x
_atom_site_fract_y
_atom_site_fract_z
Si Si1 0.666668 0.333334 0.419393
Si Si2 0.201840 0.002234 0.834080
Si Si3 0.091028 0.471726 0.883487
O O1 0.666668 0.333334 0.250000
O O2 0.678082 0.220322 0.454045
O O3 0.086767 0.913234 0.750000
O O4 0.290071 0.950277 0.835371
O O5 0.250105 0.125053 0.750000
O O6 0.171370 0.000000 0.000000
O O7 0.090195 0.545098 0.750000
O O8 0.000000 0.462742 0.000000
#
# Coordination Sequence:
#
# PCOD9584784 Si02
#       3
#     4  12  12
#     4   9  18  39  61  80 118 162 199 236 295 375
#     4  11  23  39  60  88 119 156 198 249 313 377
#     4  10  22  38  61  88 117 160 203 249 306 364
#
# _framework density 19.654254000000002
#
# number of rings (size 3 to 8) (size 9 to 14) (size 15 to 20)
#    0.000    1.714    0.000    5.571    0.000   10.286 
#    0.000    0.000    0.000    0.857    0.000    0.000 
#    0.000    0.000    0.000    0.000    0.000    0.000 
#
# Total GULP energy -156068.199471 kJ/mol
# GULP energy per Si atom -5573.864267 kJ/mol
# Density = 1.960952 g / cm^3
# Si number density = 19.654254 Si / 1000 Ang^3
#
#
#
# Elastic Constant Matrix: (Units=GPa)
#
#
# Indices 1 2 3 4 5 6 
#
# 1 120.5207 61.9570 41.8447 0.0000 0.0000 0.0001
# 2 61.9570 120.5225 41.8454 0.0001 -0.0002 0.0001
# 3 41.8447 41.8454 115.4866 0.0000 0.0000 -0.0001
# 4 0.0000 0.0001 0.0000 30.1438 -0.0002 0.0001
# 5 0.0000 -0.0002 0.0000 -0.0002 30.1436 0.0000
# 6 0.0001 0.0001 -0.0001 0.0001 0.0000 29.2830
#
#
#
# Elastic Compliance Matrix: (Units=1/GPa)
#
#
# Indices 1 2 3 4 5 6 
#
# 1 0.011824 -0.005251 -0.002381 0.000000 0.000000 0.000000
# 2 -0.005251 0.011824 -0.002381 0.000000 0.000000 0.000000
# 3 -0.002381 -0.002381 0.010385 0.000000 0.000000 0.000000
# 4 0.000000 0.000000 0.000000 0.033174 0.000000 0.000000
# 5 0.000000 0.000000 0.000000 0.000000 0.033175 0.000000
# 6 0.000000 0.000000 0.000000 0.000000 0.000000 0.034150
#
#
# Mechanical properties :
#
#
# Convention : Reuss Voigt Hill
#
# Bulk Modulus (GPa) = 71.40937 71.98044 71.69490
# Shear Modulus (GPa) = 31.40173 31.97291 31.68732
#
# Velocity S-wave (km/s) = 4.00147 4.03770 4.01962
# Velocity P-wave (km/s) = 7.60004 7.64462 7.62236
#
# Compressibility (1/GPa) = 0.01400377
#
# Stress axis : x y z
#
# Youngs Moduli (GPa) = 84.57525 84.57637 96.29525
#
# Poissons Ratio (x) = 0.44415 0.22931
# Poissons Ratio (y) = 0.44414 0.22932
# Poissons Ratio (z) = 0.20140 0.20141
#
# Static dielectric constant tensor:
#      x y z
#    x 1.756080 0.000000 0.000000 
#    y 0.000000 1.756080 0.000000 
#    z 0.000000 0.000000 1.673500 
# 
# From -- ./inp_files/1028.got.cif
#   From: 2010.05.17/outbox.cif.g08.bks.cpg/sg182_1_cif.got.tgz:1028.got - 2010.05.20 11:58:53.
