data_PCOD9584494
_publ_section_title
;
Structure prediction by ZEFSAII (Michael W. Deem and Ramdas Pophale) SiO2 
 PCOD9584494
Probable space group: P 64 2 2
;
_chemical_formula_sum "Si O2"
_cell_formula_units_Z 63
_cell_length_a 12.245163
_cell_length_b 12.245163
_cell_length_c 19.659752
_cell_angle_alpha 90.000000
_cell_angle_beta 90.000000
_cell_angle_gamma 120.000000
_cell_volume 2552.923540
_symmetry_space_group_name_H-M "P 64 2 2"
_symmetry_group_IT_number 181
_symmetry_cell_setting 'hexagonal'
loop_
_space_group_symop_operation_xyz
x,y,z
x-y,x,2/3+z
-y,x-y,1/3+z
-x,-y,z
-x+y,-x,2/3+z
y,-x+y,1/3+z
x-y,-y,-z
-x,-x+y,2/3-z
y,x,1/3-z
-y,-x,1/3-z
-x+y,y,-z
x,x-y,2/3-z
loop_
_atom_site_type_symbol
_atom_site_label
_atom_site_fract_x
_atom_site_fract_y
_atom_site_fract_z
Si Si1 0.212781 0.807895 0.743395
Si Si2 0.715768 0.139699 0.971900
Si Si3 0.106587 0.346014 0.562705
Si Si4 0.562965 0.149539 0.147195
Si Si5 0.000000 0.000000 0.666667
Si Si6 0.222620 0.176848 0.096317
O O1 0.228073 0.771928 0.666667
O O2 0.294662 0.790368 0.801181
O O3 0.266669 0.959995 0.749803
O O4 0.261963 0.938329 0.579373
O O5 0.641462 0.196455 0.929188
O O6 0.810905 0.143516 0.912266
O O7 0.810387 0.197713 0.035696
O O8 0.624262 0.000000 0.000000
O O9 0.139932 0.279863 0.500000
O O10 0.147456 0.479858 0.528555
O O11 0.500000 0.000000 0.131484
O O12 0.030975 0.121901 0.708496
O O13 0.149783 0.149783 0.166667
#
# Coordination Sequence:
#
# PCOD9584494 Si02
#       6
#    12  12  12  12   3  12
#     4  11  21  42  67  97 145 189 224 281 353 428
#     4  12  23  42  72 102 146 189 237 297 369 434
#     4  11  25  43  69 103 142 181 244 298 358 427
#     4  10  24  45  67  94 131 190 243 293 348 407
#     4  12  22  36  52 102 154 192 226 260 338 438
#     4  12  23  36  62 104 147 187 229 276 347 439
#
# _framework density 24.677591
#
# number of rings (size 3 to 8) (size 9 to 14) (size 15 to 20)
#    0.000    0.762    5.714    2.571    0.000    2.667 
#    3.429    0.000    0.000    0.000    0.000    6.667 
#    0.000    0.000    0.000    0.000    0.000    0.000 
#
# Total GULP energy -351058.595880 kJ/mol
# GULP energy per Si atom -5572.358665 kJ/mol
# Density = 2.462142 g / cm^3
# Si number density = 24.677591 Si / 1000 Ang^3
#
#
#
# Elastic Constant Matrix: (Units=GPa)
#
#
# Indices 1 2 3 4 5 6 
#
# 1 78.1906 -20.0691 27.3438 0.0000 0.0000 0.0000
# 2 -20.0691 78.1906 27.3438 0.0000 0.0000 0.0000
# 3 27.3438 27.3438 188.9480 0.0000 0.0000 0.0000
# 4 0.0000 0.0000 0.0000 40.5538 0.0000 0.0000
# 5 0.0000 0.0000 0.0000 0.0000 40.5538 0.0000
# 6 0.0000 0.0000 0.0000 0.0000 0.0000 49.1298
#
#
#
# Elastic Compliance Matrix: (Units=1/GPa)
#
#
# Indices 1 2 3 4 5 6 
#
# 1 0.015047 0.004870 -0.002882 0.000000 0.000000 0.000000
# 2 0.004870 0.015047 -0.002882 0.000000 0.000000 0.000000
# 3 -0.002882 -0.002882 0.006127 0.000000 0.000000 0.000000
# 4 0.000000 0.000000 0.000000 0.024659 0.000000 0.000000
# 5 0.000000 0.000000 0.000000 0.000000 0.024659 0.000000
# 6 0.000000 0.000000 0.000000 0.000000 0.000000 0.020354
#
#
# Mechanical properties :
#
#
# Convention : Reuss Voigt Hill
#
# Bulk Modulus (GPa) = 29.04267 46.06288 37.55278
# Shear Modulus (GPa) = 41.96069 46.76155 44.36112
#
# Velocity S-wave (km/s) = 4.12801 4.35777 4.24444
# Velocity P-wave (km/s) = 5.87495 6.63525 6.26664
#
# Compressibility (1/GPa) = 0.03443210
#
# Stress axis : x y z
#
# Youngs Moduli (GPa) = 66.45723 66.45723 163.21974
#
# Poissons Ratio (x) = -0.32366 0.47046
# Poissons Ratio (y) = -0.32366 0.47046
# Poissons Ratio (z) = 0.19155 0.19155
#
# Static dielectric constant tensor:
#      x y z
#    x 2.015040 0.000000 0.000000 
#    y 0.000000 2.015040 0.000000 
#    z 0.000000 0.000000 2.004370 
# 
# From -- ./inp_files/7669.got.cif
#   From: 2010.05.17/outbox.cif.g08.bks.cpg/sg181_4_cif.got.tgz:7669.got - 2010.05.20 11:51:17.
