data_PCOD9584888
_publ_section_title
;
Structure prediction by ZEFSAII (Michael W. Deem and Ramdas Pophale) SiO2 
 PCOD9584888
Probable space group: P 63 2 2
;
_chemical_formula_sum "Si O2"
_cell_formula_units_Z 30
_cell_length_a 17.587703
_cell_length_b 17.587703
_cell_length_c 5.127378
_cell_angle_alpha 90.000000
_cell_angle_beta 90.000000
_cell_angle_gamma 120.000000
_cell_volume 1373.549179
_symmetry_space_group_name_H-M "P 63 2 2"
_symmetry_group_IT_number 182
_symmetry_cell_setting 'hexagonal'
loop_
_space_group_symop_operation_xyz
x,y,z
x-y,x,1/2+z
-y,x-y,z
-x,-y,1/2+z
-x+y,-x,z
y,-x+y,1/2+z
x-y,-y,-z
-x,-x+y,-z
y,x,-z
-y,-x,1/2-z
-x+y,y,1/2-z
x,x-y,1/2-z
loop_
_atom_site_type_symbol
_atom_site_label
_atom_site_fract_x
_atom_site_fract_y
_atom_site_fract_z
Si Si1 0.532587 0.467414 0.250000
Si Si2 0.161687 0.495708 0.356905
Si Si3 0.702454 0.941855 0.250712
O O1 0.490344 0.490344 0.500000
O O2 0.503115 0.634277 0.659056
O O3 0.251533 0.503065 0.250000
O O4 0.164005 0.582003 0.250000
O O5 0.088518 0.400503 0.258031
O O6 0.707856 0.853928 0.250000
O O7 0.746565 0.000000 0.500000
O O8 0.747549 0.000000 0.000000
#
# Coordination Sequence:
#
# PCOD9584888 Si02
#       3
#     6  12  12
#     4  12  26  46  74 106 142 208 268 324 386 462
#     4  11  27  46  73 109 154 209 258 321 382 460
#     4  11  26  46  76 110 147 192 247 308 381 457
#
# _framework density 21.841225999999999
#
# number of rings (size 3 to 8) (size 9 to 14) (size 15 to 20)
#    0.000    0.800    2.000    2.800   11.200    1.600 
#    0.000    0.000    0.000    8.000    0.000    0.000 
#    0.000    0.000    0.000    0.000    0.000    0.000 
#
# Total GULP energy -167432.142221 kJ/mol
# GULP energy per Si atom -5581.071407 kJ/mol
# Density = 2.179151 g / cm^3
# Si number density = 21.841226 Si / 1000 Ang^3
#
#
#
# Elastic Constant Matrix: (Units=GPa)
#
#
# Indices 1 2 3 4 5 6 
#
# 1 139.9431 68.9294 79.1829 0.0000 0.0000 0.0000
# 2 68.9294 139.9431 79.1829 0.0000 0.0000 0.0000
# 3 79.1829 79.1829 193.1519 0.0000 0.0000 0.0000
# 4 0.0000 0.0000 0.0000 40.5807 0.0000 0.0000
# 5 0.0000 0.0000 0.0000 0.0000 40.5807 0.0000
# 6 0.0000 0.0000 0.0000 0.0000 0.0000 35.5068
#
#
#
# Elastic Compliance Matrix: (Units=1/GPa)
#
#
# Indices 1 2 3 4 5 6 
#
# 1 0.010514 -0.003567 -0.002848 0.000000 0.000000 0.000000
# 2 -0.003567 0.010514 -0.002848 0.000000 0.000000 0.000000
# 3 -0.002848 -0.002848 0.007512 0.000000 0.000000 0.000000
# 4 0.000000 0.000000 0.000000 0.024642 0.000000 0.000000
# 5 0.000000 0.000000 0.000000 0.000000 0.024642 0.000000
# 6 0.000000 0.000000 0.000000 0.000000 0.000000 0.028164
#
#
# Mechanical properties :
#
#
# Convention : Reuss Voigt Hill
#
# Bulk Modulus (GPa) = 99.85559 103.06985 101.46272
# Shear Modulus (GPa) = 39.10722 39.71649 39.41185
#
# Velocity S-wave (km/s) = 4.23605 4.26892 4.25251
# Velocity P-wave (km/s) = 8.35126 8.46116 8.40639
#
# Compressibility (1/GPa) = 0.01001446
#
# Stress axis : x y z
#
# Youngs Moduli (GPa) = 95.10835 95.10835 133.11583
#
# Poissons Ratio (x) = 0.33930 0.37910
# Poissons Ratio (y) = 0.33930 0.37910
# Poissons Ratio (z) = 0.27086 0.27086
#
# Static dielectric constant tensor:
#      x y z
#    x 1.810780 0.000000 0.000000 
#    y 0.000000 1.810780 0.000000 
#    z 0.000000 0.000000 1.947590 
# 
# From -- ./inp_files/182.got.cif
#   From: 2010.05.17/outbox.cif.g08.bks.cpg/sg182_1_cif.got.tgz:182.got - 2010.05.20 11:58:53.
