data_PCOD9584985
_publ_section_title
;
Structure prediction by ZEFSAII (Michael W. Deem and Ramdas Pophale) SiO2 
 PCOD9584985
Probable space group: P 6 M M
;
_chemical_formula_sum "Si O2"
_cell_formula_units_Z 96
_cell_length_a 18.462111
_cell_length_b 18.462111
_cell_length_c 20.828352
_cell_angle_alpha 90.000000
_cell_angle_beta 90.000000
_cell_angle_gamma 120.000000
_cell_volume 6148.203812
_symmetry_space_group_name_H-M "P 6 M M"
_symmetry_group_IT_number 183
_symmetry_cell_setting 'hexagonal'
loop_
_space_group_symop_operation_xyz
x,y,z
x-y,x,z
-y,x-y,z
-x,-y,z
-x+y,-x,z
y,-x+y,z
-x+y,y,z
x,x-y,z
-y,-x,z
y,x,z
x-y,-y,z
-x,-x+y,z
loop_
_atom_site_type_symbol
_atom_site_label
_atom_site_fract_x
_atom_site_fract_y
_atom_site_fract_z
Si Si1 0.742007 0.093012 0.568050
Si Si2 0.836142 0.331777 0.200978
Si Si3 0.731828 0.097070 0.942272
Si Si4 0.499038 0.167734 0.471093
Si Si5 0.459348 0.364782 0.336032
Si Si6 0.837380 0.504743 0.825324
Si Si7 0.667575 0.161377 0.057650
Si Si8 0.640453 0.903686 0.719106
O O1 0.836603 0.163398 0.555033
O O2 0.685197 0.111970 0.520935
O O3 0.724161 0.100875 0.642908
O O4 0.723193 0.000000 0.557845
O O5 0.841972 0.420986 0.202496
O O6 0.740276 0.259725 0.204053
O O7 0.878740 0.324411 0.265730
O O8 0.867806 0.326868 0.130056
O O9 0.830372 0.169629 0.942011
O O10 0.689440 0.117906 0.882426
O O11 0.707226 0.000000 0.939417
O O12 0.689935 0.112721 0.005076
O O13 0.575923 0.151846 0.476454
O O14 0.526863 0.263432 0.485409
O O15 0.466348 0.148537 0.397831
O O16 0.548763 0.451238 0.332741
O O17 0.390179 0.390179 0.349163
O O18 0.739743 0.479485 0.827319
O O19 0.847233 0.423617 0.831075
O O20 0.876437 0.557248 0.760272
O O21 0.576946 0.153891 0.048574
O O22 0.741043 0.258958 0.052716
O O23 0.666802 0.833401 0.733567
O O24 0.708651 0.000000 0.734224
#
# Coordination Sequence:
#
# PCOD9584985 Si02
#       8
#    12  12  12  12  12  12  12  12
#     4   9  18  32  49  68  90 117 148 182 223 270
#     4   9  16  26  40  58  81 110 144 180 217 257
#     4  10  21  35  50  69  92 118 148 184 228 273
#     4  10  19  30  44  62  85 114 149 187 225 265
#     4   9  17  27  38  54  77 106 142 185 229 266
#     4  10  20  33  49  70  97 128 159 189 220 255
#     4   9  17  28  43  64  91 123 156 187 218 255
#     4   9  18  32  49  69  92 119 151 186 225 267
#
# _framework density 15.614317
#
# number of rings (size 3 to 8) (size 9 to 14) (size 15 to 20)
#    0.000    2.625    0.000    2.000    0.000    4.500 
#    0.000    5.000    0.000    1.875    0.000    1.750 
#    0.000    3.000    0.000    0.125    0.000    0.000 
#
# Total GULP energy -534523.040193 kJ/mol
# GULP energy per Si atom -5567.948335 kJ/mol
# Density = 1.557878 g / cm^3
# Si number density = 15.614317 Si / 1000 Ang^3
#
#
#
# Elastic Constant Matrix: (Units=GPa)
#
#
# Indices 1 2 3 4 5 6 
#
# 1 65.1529 56.3974 40.8323 0.0000 0.0000 0.0000
# 2 56.3974 65.1529 40.8323 0.0000 0.0000 0.0000
# 3 40.8323 40.8323 65.5340 0.0000 0.0000 0.0000
# 4 0.0000 0.0000 0.0000 19.2302 0.0000 0.0000
# 5 0.0000 0.0000 0.0000 0.0000 19.2302 0.0000
# 6 0.0000 0.0000 0.0000 0.0000 0.0000 4.3778
#
#
#
# Elastic Compliance Matrix: (Units=1/GPa)
#
#
# Indices 1 2 3 4 5 6 
#
# 1 0.064182 -0.050031 -0.008817 0.000000 0.000000 0.000000
# 2 -0.050031 0.064182 -0.008817 0.000000 0.000000 0.000000
# 3 -0.008817 -0.008817 0.026246 0.000000 0.000000 0.000000
# 4 0.000000 0.000000 0.000000 0.052002 0.000000 0.000000
# 5 0.000000 0.000000 0.000000 0.000000 0.052002 0.000000
# 6 0.000000 0.000000 0.000000 0.000000 0.000000 0.228427
#
#
# Mechanical properties :
#
#
# Convention : Reuss Voigt Hill
#
# Bulk Modulus (GPa) = 51.86664 52.44045 52.15354
# Shear Modulus (GPa) = 7.95167 12.41948 10.18557
#
# Velocity S-wave (km/s) = 2.25912 2.82333 2.55683
# Velocity P-wave (km/s) = 6.33200 6.65477 6.49539
#
# Compressibility (1/GPa) = 0.01928022
#
# Stress axis : x y z
#
# Youngs Moduli (GPa) = 15.58063 15.58063 38.10040
#
# Poissons Ratio (x) = 0.77952 0.33593
# Poissons Ratio (y) = 0.77952 0.33593
# Poissons Ratio (z) = 0.13737 0.13737
#
# Static dielectric constant tensor:
#      x y z
#    x 1.507740 0.000000 0.000000 
#    y 0.000000 1.507740 0.000000 
#    z 0.000000 0.000000 1.563400 
# 
# From -- ./inp_files/2950.got.cif
#   From: 2010.05.17/outbox.cif.g08.bks.cpg/sg183_2_cif.got.tgz:2950.got - 2010.05.20 12:02:58.
