data_PCOD9584950
_publ_section_title
;
Structure prediction by ZEFSAII (Michael W. Deem and Ramdas Pophale) SiO2 
 PCOD9584950
Probable space group: P 6 M M
;
_chemical_formula_sum "Si O2"
_cell_formula_units_Z 96
_cell_length_a 23.638693
_cell_length_b 23.638693
_cell_length_c 12.193162
_cell_angle_alpha 90.000000
_cell_angle_beta 90.000000
_cell_angle_gamma 120.000000
_cell_volume 5900.569044
_symmetry_space_group_name_H-M "P 6 M M"
_symmetry_group_IT_number 183
_symmetry_cell_setting 'hexagonal'
loop_
_space_group_symop_operation_xyz
x,y,z
x-y,x,z
-y,x-y,z
-x,-y,z
-x+y,-x,z
y,-x+y,z
-x+y,y,z
x,x-y,z
-y,-x,z
y,x,z
x-y,-y,z
-x,-x+y,z
loop_
_atom_site_type_symbol
_atom_site_label
_atom_site_fract_x
_atom_site_fract_y
_atom_site_fract_z
Si Si1 0.294405 0.463450 0.165020
Si Si2 0.799474 0.074396 0.974805
Si Si3 0.313990 0.241137 0.219123
Si Si4 0.924389 0.199730 0.468014
Si Si5 0.079018 0.472392 0.741201
Si Si6 0.525128 0.601650 0.318188
Si Si7 0.851431 0.572981 0.914167
Si Si8 0.921266 0.322965 0.526757
O O1 0.244874 0.489748 0.193277
O O2 0.259658 0.388149 0.205320
O O3 0.364455 0.492963 0.221327
O O4 0.297806 0.459808 0.034099
O O5 0.872238 0.127763 0.939579
O O6 0.751564 0.100663 0.933388
O O7 0.771748 0.000000 0.939809
O O8 0.796808 0.075492 0.108191
O O9 0.304061 0.304061 0.219072
O O10 0.286455 0.207779 0.335851
O O11 0.874197 0.125804 0.498481
O O12 0.901374 0.247533 0.522115
O O13 0.000000 0.227300 0.496362
O O14 0.093798 0.546899 0.738150
O O15 0.115504 0.456648 0.836985
O O16 0.098838 0.449837 0.629343
O O17 0.000000 0.427725 0.753443
O O18 0.460039 0.539962 0.363512
O O19 0.571899 0.571899 0.285966
O O20 0.559419 0.654812 0.413178
O O21 0.782436 0.564872 0.873697
O O22 0.000000 0.360993 0.528825
#
# Coordination Sequence:
#
# PCOD9584950 Si02
#       8
#    12  12  12  12  12  12  12  12
#     4  10  18  29  45  66  94 125 158 197 242 287
#     4   9  16  26  42  64  91 124 161 202 247 292
#     4   9  15  24  40  64  93 123 157 197 243 290
#     4  10  18  28  45  70  99 129 164 203 243 287
#     4  10  20  34  52  73  99 129 159 194 239 293
#     4  10  19  30  46  70  98 125 154 190 235 289
#     4   9  19  33  48  68  94 125 161 202 242 282
#     4   9  18  31  46  68  97 128 158 192 236 284
#
# _framework density 16.269617
#
# number of rings (size 3 to 8) (size 9 to 14) (size 15 to 20)
#    0.000    2.500    1.250    3.000    0.000    4.000 
#    0.000    1.250    0.000    0.750    0.000    0.000 
#    0.000    3.000    0.000    0.000    0.000   16.250 
#
# Total GULP energy -534519.453058 kJ/mol
# GULP energy per Si atom -5567.910969 kJ/mol
# Density = 1.623259 g / cm^3
# Si number density = 16.269617 Si / 1000 Ang^3
#
#
#
# Elastic Constant Matrix: (Units=GPa)
#
#
# Indices 1 2 3 4 5 6 
#
# 1 83.5533 38.9783 32.8723 0.0000 0.0000 0.0000
# 2 38.9783 83.5533 32.8723 0.0000 0.0000 0.0000
# 3 32.8723 32.8723 58.1268 0.0000 0.0000 0.0000
# 4 0.0000 0.0000 0.0000 14.8904 0.0000 0.0000
# 5 0.0000 0.0000 0.0000 0.0000 14.8904 0.0000
# 6 0.0000 0.0000 0.0000 0.0000 0.0000 22.2875
#
#
#
# Elastic Compliance Matrix: (Units=1/GPa)
#
#
# Indices 1 2 3 4 5 6 
#
# 1 0.017075 -0.005359 -0.006626 0.000000 0.000000 0.000000
# 2 -0.005359 0.017075 -0.006626 0.000000 0.000000 0.000000
# 3 -0.006626 -0.006626 0.024698 0.000000 0.000000 0.000000
# 4 0.000000 0.000000 0.000000 0.067157 0.000000 0.000000
# 5 0.000000 0.000000 0.000000 0.000000 0.067157 0.000000
# 6 0.000000 0.000000 0.000000 0.000000 0.000000 0.044868
#
#
# Mechanical properties :
#
#
# Convention : Reuss Voigt Hill
#
# Bulk Modulus (GPa) = 46.23837 48.29768 47.26803
# Shear Modulus (GPa) = 17.70152 18.44770 18.07461
#
# Velocity S-wave (km/s) = 3.30208 3.37096 3.33670
# Velocity P-wave (km/s) = 6.55897 6.70085 6.63029
#
# Compressibility (1/GPa) = 0.02162706
#
# Stress axis : x y z
#
# Youngs Moduli (GPa) = 58.56453 58.56453 40.48914
#
# Poissons Ratio (x) = 0.31384 0.26828
# Poissons Ratio (y) = 0.31384 0.26828
# Poissons Ratio (z) = 0.38804 0.38804
#
# Static dielectric constant tensor:
#      x y z
#    x 1.559010 0.000000 0.000000 
#    y 0.000000 1.559010 0.000000 
#    z 0.000000 0.000000 1.567170 
# 
# From -- ./inp_files/1981.got.cif
#   From: 2010.05.17/outbox.cif.g08.bks.cpg/sg183_1_cif.got.tgz:1981.got - 2010.05.20 12:02:58.
