data_PCOD9584833
_publ_section_title
;
Structure prediction by ZEFSAII (Michael W. Deem and Ramdas Pophale) SiO2 
 PCOD9584833
Probable space group: P 63 2 2
;
_chemical_formula_sum "Si O2"
_cell_formula_units_Z 42
_cell_length_a 11.597195
_cell_length_b 11.597195
_cell_length_c 17.579100
_cell_angle_alpha 90.000000
_cell_angle_beta 90.000000
_cell_angle_gamma 120.000000
_cell_volume 2047.543738
_symmetry_space_group_name_H-M "P 63 2 2"
_symmetry_group_IT_number 182
_symmetry_cell_setting 'hexagonal'
loop_
_space_group_symop_operation_xyz
x,y,z
x-y,x,1/2+z
-y,x-y,z
-x,-y,1/2+z
-x+y,-x,z
y,-x+y,1/2+z
x-y,-y,-z
-x,-x+y,-z
y,x,-z
-y,-x,1/2-z
-x+y,y,1/2-z
x,x-y,1/2-z
loop_
_atom_site_type_symbol
_atom_site_label
_atom_site_fract_x
_atom_site_fract_y
_atom_site_fract_z
Si Si1 0.648584 0.064623 0.080014
Si Si2 0.000000 0.153682 0.000000
Si Si3 0.395359 0.311165 0.389784
Si Si4 0.256292 0.998004 0.735416
O O1 0.762990 0.219572 0.083702
O O2 0.500215 0.039487 0.088924
O O3 0.693632 0.011136 0.152201
O O4 0.646904 0.000000 0.000000
O O5 0.120627 0.120627 0.000000
O O6 0.010958 0.248544 0.929530
O O7 0.372173 0.311319 0.299758
O O8 0.296175 0.148088 0.750000
O O9 0.098223 0.901778 0.750000
#
# Coordination Sequence:
#
# PCOD9584833 Si02
#       4
#    12   6  12  12
#     4  11  24  42  65  97 132 174 222 268 327 398
#     4  10  24  38  68 108 134 162 216 288 332 380
#     4  11  23  43  66  97 134 175 218 269 329 398
#     4  10  24  40  64  97 134 174 219 277 334 395
#
# _framework density 20.512381000000001
#
# number of rings (size 3 to 8) (size 9 to 14) (size 15 to 20)
#    0.286    1.143    1.429    2.571   12.000    0.000 
#    0.000    2.857    0.000    4.571    0.000    0.000 
#    0.000    0.000    0.000    0.000    0.000    0.000 
#
# Total GULP energy -234179.943061 kJ/mol
# GULP energy per Si atom -5575.712930 kJ/mol
# Density = 2.046569 g / cm^3
# Si number density = 20.512381 Si / 1000 Ang^3
#
#
#
# Elastic Constant Matrix: (Units=GPa)
#
#
# Indices 1 2 3 4 5 6 
#
# 1 100.1712 51.6734 55.2975 0.0000 0.0000 0.0000
# 2 51.6734 100.1712 55.2975 0.0000 0.0000 0.0000
# 3 55.2975 55.2975 189.7325 0.0000 0.0000 0.0000
# 4 0.0000 0.0000 0.0000 10.8642 0.0000 0.0000
# 5 0.0000 0.0000 0.0000 0.0000 10.8642 0.0000
# 6 0.0000 0.0000 0.0000 0.0000 0.0000 24.2489
#
#
#
# Elastic Compliance Matrix: (Units=1/GPa)
#
#
# Indices 1 2 3 4 5 6 
#
# 1 0.014490 -0.006130 -0.002437 0.000000 0.000000 0.000000
# 2 -0.006130 0.014490 -0.002437 0.000000 0.000000 0.000000
# 3 -0.002437 -0.002437 0.006691 0.000000 0.000000 0.000000
# 4 0.000000 0.000000 0.000000 0.092045 0.000000 0.000000
# 5 0.000000 0.000000 0.000000 0.000000 0.092045 0.000000
# 6 0.000000 0.000000 0.000000 0.000000 0.000000 0.041239
#
#
# Mechanical properties :
#
#
# Convention : Reuss Voigt Hill
#
# Bulk Modulus (GPa) = 73.17894 79.40130 76.29012
# Shear Modulus (GPa) = 17.38760 24.38256 20.88508
#
# Velocity S-wave (km/s) = 2.91463 3.45146 3.19434
# Velocity P-wave (km/s) = 6.86146 7.39435 7.13288
#
# Compressibility (1/GPa) = 0.01366513
#
# Stress axis : x y z
#
# Youngs Moduli (GPa) = 69.01340 69.01340 149.45686
#
# Poissons Ratio (x) = 0.42302 0.36417
# Poissons Ratio (y) = 0.42302 0.36417
# Poissons Ratio (z) = 0.16816 0.16816
#
# Static dielectric constant tensor:
#      x y z
#    x 1.763410 0.000000 0.000000 
#    y 0.000000 1.763410 0.000000 
#    z 0.000000 0.000000 1.770990 
# 
# From -- ./inp_files/4067.got.cif
#   From: 2010.05.17/outbox.cif.g08.bks.cpg/sg182_3_cif.got.tgz:4067.got - 2010.05.20 11:58:53.
