data_PCOD9584524
_publ_section_title
;
Structure prediction by ZEFSAII (Michael W. Deem and Ramdas Pophale) SiO2 
 PCOD9584524
Probable space group: P 64 2 2
;
_chemical_formula_sum "Si O2"
_cell_formula_units_Z 84
_cell_length_a 20.468123
_cell_length_b 20.468123
_cell_length_c 12.399223
_cell_angle_alpha 90.000000
_cell_angle_beta 90.000000
_cell_angle_gamma 120.000000
_cell_volume 4498.638947
_symmetry_space_group_name_H-M "P 64 2 2"
_symmetry_group_IT_number 181
_symmetry_cell_setting 'hexagonal'
loop_
_space_group_symop_operation_xyz
x,y,z
x-y,x,2/3+z
-y,x-y,1/3+z
-x,-y,z
-x+y,-x,2/3+z
y,-x+y,1/3+z
x-y,-y,-z
-x,-x+y,2/3-z
y,x,1/3-z
-y,-x,1/3-z
-x+y,y,-z
x,x-y,2/3-z
loop_
_atom_site_type_symbol
_atom_site_label
_atom_site_fract_x
_atom_site_fract_y
_atom_site_fract_z
Si Si1 0.577051 0.003440 0.162323
Si Si2 0.010997 0.125269 0.705802
Si Si3 0.919151 0.177952 0.366041
Si Si4 0.076277 0.793576 0.615754
Si Si5 0.806855 0.217907 0.040817
Si Si6 0.028180 0.654348 0.957773
Si Si7 0.484834 0.356382 0.658214
O O1 0.588763 0.010203 0.289552
O O2 0.637526 0.076860 0.096117
O O3 0.500000 0.000000 0.133765
O O4 0.561812 0.925791 0.108751
O O5 0.961011 0.038990 0.666667
O O6 0.970594 0.166041 0.649997
O O7 0.000000 0.124291 0.833334
O O8 0.099153 0.180530 0.683565
O O9 0.910652 0.193166 0.489802
O O10 0.852308 0.178618 0.303055
O O11 0.000000 0.244587 0.333334
O O12 0.159212 0.840789 0.666667
O O13 0.024470 0.710065 0.660101
O O14 0.784714 0.215287 0.166667
O O15 0.727782 0.199124 0.984805
O O16 0.882803 0.285538 0.983915
O O17 0.000000 0.631266 0.833334
O O18 0.571811 0.428190 0.666667
#
# Coordination Sequence:
#
# PCOD9584524 Si02
#       7
#    12  12  12  12  12  12  12
#     4   9  19  37  61  89 119 158 200 251 313 377
#     4  11  21  39  55  66  94 147 203 252 302 369
#     4  12  25  35  53  79 108 147 196 263 316 355
#     4  11  21  39  57  70 111 161 203 242 301 370
#     4  12  23  36  59  92 126 157 211 261 318 375
#     4  12  23  36  58  95 131 165 205 255 327 396
#     4   9  19  38  63  89 117 158 213 262 308 374
#
# _framework density 18.672312999999999
#
# number of rings (size 3 to 8) (size 9 to 14) (size 15 to 20)
#    0.000    1.143    5.714    3.857    2.000    0.571 
#    0.000    0.714    0.000    0.000    3.714    0.000 
#    0.000    0.000    0.000    0.000    0.000    0.000 
#
# Total GULP energy -467619.680362 kJ/mol
# GULP energy per Si atom -5566.900957 kJ/mol
# Density = 1.862981 g / cm^3
# Si number density = 18.672313 Si / 1000 Ang^3
#
#
#
# Elastic Constant Matrix: (Units=GPa)
#
#
# Indices 1 2 3 4 5 6 
#
# 1 70.4431 18.4414 10.8653 0.0000 0.0000 0.0000
# 2 18.4414 70.4431 10.8653 0.0000 0.0000 0.0000
# 3 10.8653 10.8653 63.9978 0.0000 0.0000 0.0000
# 4 0.0000 0.0000 0.0000 9.9633 0.0000 0.0000
# 5 0.0000 0.0000 0.0000 0.0000 9.9633 0.0000
# 6 0.0000 0.0000 0.0000 0.0000 0.0000 26.0008
#
#
#
# Elastic Compliance Matrix: (Units=1/GPa)
#
#
# Indices 1 2 3 4 5 6 
#
# 1 0.015484 -0.003746 -0.001993 0.000000 0.000000 0.000000
# 2 -0.003746 0.015484 -0.001993 0.000000 0.000000 0.000000
# 3 -0.001993 -0.001993 0.016302 0.000000 0.000000 0.000000
# 4 0.000000 0.000000 0.000000 0.100368 0.000000 0.000000
# 5 0.000000 0.000000 0.000000 0.000000 0.100368 0.000000
# 6 0.000000 0.000000 0.000000 0.000000 0.000000 0.038460
#
#
# Mechanical properties :
#
#
# Convention : Reuss Voigt Hill
#
# Bulk Modulus (GPa) = 31.44009 31.69202 31.56605
# Shear Modulus (GPa) = 15.99836 20.16630 18.08233
#
# Velocity S-wave (km/s) = 2.93028 3.28992 3.11529
# Velocity P-wave (km/s) = 5.32195 5.60723 5.46645
#
# Compressibility (1/GPa) = 0.03180652
#
# Stress axis : x y z
#
# Youngs Moduli (GPa) = 64.58299 64.58299 61.34141
#
# Poissons Ratio (x) = 0.24194 0.12224
# Poissons Ratio (y) = 0.24194 0.12224
# Poissons Ratio (z) = 0.12870 0.12870
#
# Static dielectric constant tensor:
#      x y z
#    x 1.694080 0.000000 0.000000 
#    y 0.000000 1.694080 0.000000 
#    z 0.000000 0.000000 1.732520 
# 
# From -- ./inp_files/5087.got.cif
#   From: 2010.05.17/outbox.cif.g08.bks.cpg/sg181_3_cif.got.tgz:5087.got - 2010.05.20 11:51:17.
