data_PCOD9584385
_publ_section_title
;
Structure prediction by ZEFSAII (Michael W. Deem and Ramdas Pophale) SiO2 
 PCOD9584385
Probable space group: P 64 2 2
;
_chemical_formula_sum "Si O2"
_cell_formula_units_Z 51
_cell_length_a 11.151651
_cell_length_b 11.151651
_cell_length_c 19.998973
_cell_angle_alpha 90.000000
_cell_angle_beta 90.000000
_cell_angle_gamma 120.000000
_cell_volume 2153.856001
_symmetry_space_group_name_H-M "P 64 2 2"
_symmetry_group_IT_number 181
_symmetry_cell_setting 'hexagonal'
loop_
_space_group_symop_operation_xyz
x,y,z
x-y,x,2/3+z
-y,x-y,1/3+z
-x,-y,z
-x+y,-x,2/3+z
y,-x+y,1/3+z
x-y,-y,-z
-x,-x+y,2/3-z
y,x,1/3-z
-y,-x,1/3-z
-x+y,y,-z
x,x-y,2/3-z
loop_
_atom_site_type_symbol
_atom_site_label
_atom_site_fract_x
_atom_site_fract_y
_atom_site_fract_z
Si Si1 0.658341 0.957067 0.657554
Si Si2 0.118349 0.293452 0.104750
Si Si3 0.000000 0.500000 0.235239
Si Si4 0.000000 0.000000 0.166667
Si Si5 0.236891 0.507064 0.786471
Si Si6 0.277779 0.000000 0.000000
O O1 0.519090 0.843479 0.618296
O O2 0.735296 0.868917 0.662196
O O3 0.678932 0.023074 0.731958
O O4 0.749754 0.084116 0.608885
O O5 0.181783 0.361982 0.175530
O O6 0.034363 0.131267 0.120503
O O7 0.158598 0.559823 0.210880
O O8 0.013880 0.633324 0.273804
O O9 0.206095 0.603048 0.833334
#
# Coordination Sequence:
#
# PCOD9584385 Si02
#       6
#    12  12   6   3  12   6
#     4  10  21  40  64  96 136 176 223 284 352 428
#     4  11  23  38  64 105 134 176 227 279 357 420
#     4   9  22  40  62  90 116 176 231 276 348 418
#     4  12  20  38  66 108 138 176 228 294 352 424
#     4  11  24  46  66  94 139 184 232 297 361 435
#     4   9  18  39  64  90 128 167 220 287 354 412
#
# _framework density 23.678462
#
# number of rings (size 3 to 8) (size 9 to 14) (size 15 to 20)
#    0.000    1.647    2.353    1.412    3.294    5.647 
#    0.000   16.471    0.000    0.000    0.000    0.000 
#    0.000    0.000    0.000    0.000    0.000    0.000 
#
# Total GULP energy -283936.293742 kJ/mol
# GULP energy per Si atom -5567.378309 kJ/mol
# Density = 2.362457 g / cm^3
# Si number density = 23.678462 Si / 1000 Ang^3
#
#
#
# Elastic Constant Matrix: (Units=GPa)
#
#
# Indices 1 2 3 4 5 6 
#
# 1 61.5484 21.1264 17.0451 0.0000 0.0000 0.0000
# 2 21.1264 61.5484 17.0451 0.0000 0.0000 0.0000
# 3 17.0451 17.0451 66.9311 0.0000 0.0000 0.0000
# 4 0.0000 0.0000 0.0000 39.1790 0.0000 0.0000
# 5 0.0000 0.0000 0.0000 0.0000 39.1790 0.0000
# 6 0.0000 0.0000 0.0000 0.0000 0.0000 20.2110
#
#
#
# Elastic Compliance Matrix: (Units=1/GPa)
#
#
# Indices 1 2 3 4 5 6 
#
# 1 0.019127 -0.005612 -0.003442 0.000000 0.000000 0.000000
# 2 -0.005612 0.019127 -0.003442 0.000000 0.000000 0.000000
# 3 -0.003442 -0.003442 0.016694 0.000000 0.000000 0.000000
# 4 0.000000 0.000000 0.000000 0.025524 0.000000 0.000000
# 5 0.000000 0.000000 0.000000 0.000000 0.025524 0.000000
# 6 0.000000 0.000000 0.000000 0.000000 0.000000 0.049478
#
#
# Mechanical properties :
#
#
# Convention : Reuss Voigt Hill
#
# Bulk Modulus (GPa) = 33.38204 33.38458 33.38331
# Shear Modulus (GPa) = 26.25362 28.70124 27.47743
#
# Velocity S-wave (km/s) = 3.33341 3.48533 3.41022
# Velocity P-wave (km/s) = 5.37998 5.50695 5.44383
#
# Compressibility (1/GPa) = 0.02995622
#
# Stress axis : x y z
#
# Youngs Moduli (GPa) = 52.28243 52.28243 59.90272
#
# Poissons Ratio (x) = 0.29342 0.20617
# Poissons Ratio (y) = 0.29342 0.20617
# Poissons Ratio (z) = 0.17994 0.17994
#
# Static dielectric constant tensor:
#      x y z
#    x 1.965020 0.000000 0.000000 
#    y 0.000000 1.965020 0.000000 
#    z 0.000000 0.000000 1.998810 
# 
# From -- ./inp_files/8885.got.cif
#   From: 2010.05.17/outbox.cif.g08.bks.cpg/sg181_5_cif.got.tgz:8885.got - 2010.05.20 11:51:17.
