data_PCOD9584314
_publ_section_title
;
Structure prediction by ZEFSAII (Michael W. Deem and Ramdas Pophale) SiO2 
 PCOD9584314
Probable space group: P 64 2 2
;
_chemical_formula_sum "Si O2"
_cell_formula_units_Z 84
_cell_length_a 15.664252
_cell_length_b 15.664252
_cell_length_c 21.896081
_cell_angle_alpha 90.000000
_cell_angle_beta 90.000000
_cell_angle_gamma 120.000000
_cell_volume 4652.821002
_symmetry_space_group_name_H-M "P 64 2 2"
_symmetry_group_IT_number 181
_symmetry_cell_setting 'hexagonal'
loop_
_space_group_symop_operation_xyz
x,y,z
x-y,x,2/3+z
-y,x-y,1/3+z
-x,-y,z
-x+y,-x,2/3+z
y,-x+y,1/3+z
x-y,-y,-z
-x,-x+y,2/3-z
y,x,1/3-z
-y,-x,1/3-z
-x+y,y,-z
x,x-y,2/3-z
loop_
_atom_site_type_symbol
_atom_site_label
_atom_site_fract_x
_atom_site_fract_y
_atom_site_fract_z
Si Si1 0.562862 0.376274 0.309944
Si Si2 0.085147 0.249820 0.282584
Si Si3 0.427822 0.032815 0.251120
Si Si4 0.072877 0.114695 0.072061
Si Si5 0.401451 0.294458 0.016850
Si Si6 0.605140 0.672110 0.218640
Si Si7 0.101314 0.806448 0.516844
O O1 0.586055 0.293028 0.333334
O O2 0.496189 0.387659 0.362615
O O3 0.655688 0.484044 0.298798
O O4 0.494232 0.344026 0.249971
O O5 0.125024 0.179215 0.257207
O O6 0.177436 0.343040 0.312940
O O7 0.058572 0.279122 0.218218
O O8 0.000000 0.194713 0.333334
O O9 0.375730 0.081044 0.214051
O O10 0.500000 0.000000 0.219374
O O11 0.338387 0.938971 0.284472
O O12 0.058147 0.192090 0.111922
O O13 0.065278 0.130556 0.000000
O O14 0.000000 0.000000 0.087538
O O15 0.346448 0.334521 0.061407
O O16 0.596794 0.596794 0.166667
O O17 0.661520 0.780709 0.188774
#
# Coordination Sequence:
#
# PCOD9584314 Si02
#       7
#    12  12  12  12  12  12  12
#     4  10  20  35  61  91 123 157 190 240 316 390
#     4  12  24  41  55  84 122 167 212 253 307 374
#     4   9  20  37  60  88 117 155 198 246 304 374
#     4  11  22  38  56  88 126 164 203 258 307 374
#     4  10  21  37  56  87 123 156 194 249 303 378
#     4  11  19  34  56  95 131 152 189 245 329 383
#     4  12  22  36  64  87 124 166 208 260 311 371
#
# _framework density 18.053564000000001
#
# number of rings (size 3 to 8) (size 9 to 14) (size 15 to 20)
#    0.000    1.286    5.714    2.571    2.000    2.286 
#    0.000    0.000    3.143    0.000    0.000    0.000 
#    0.000    0.000    0.000    0.000    0.000    0.000 
#
# Total GULP energy -468314.770064 kJ/mol
# GULP energy per Si atom -5575.175834 kJ/mol
# Density = 1.801247 g / cm^3
# Si number density = 18.053564 Si / 1000 Ang^3
#
#
#
# Elastic Constant Matrix: (Units=GPa)
#
#
# Indices 1 2 3 4 5 6 
#
# 1 85.5118 48.8409 28.6183 0.0000 0.0000 0.0000
# 2 48.8409 85.5118 28.6183 0.0000 0.0000 0.0000
# 3 28.6183 28.6183 64.8623 0.0000 0.0000 0.0000
# 4 0.0000 0.0000 0.0000 -25.5513 0.0000 0.0000
# 5 0.0000 0.0000 0.0000 0.0000 -25.5513 0.0000
# 6 0.0000 0.0000 0.0000 0.0000 0.0000 18.3355
#
#
#
# Elastic Compliance Matrix: (Units=1/GPa)
#
#
# Indices 1 2 3 4 5 6 
#
# 1 0.018218 -0.009052 -0.004044 0.000000 0.000000 0.000000
# 2 -0.009052 0.018218 -0.004044 0.000000 0.000000 0.000000
# 3 -0.004044 -0.004044 0.018986 0.000000 0.000000 0.000000
# 4 0.000000 0.000000 0.000000 -0.039137 0.000000 0.000000
# 5 0.000000 0.000000 0.000000 0.000000 -0.039137 0.000000
# 6 0.000000 0.000000 0.000000 0.000000 0.000000 0.054539
#
#
# Mechanical properties :
#
#
# Convention : Reuss Voigt Hill
#
# Bulk Modulus (GPa) = 47.30093 49.78232 48.54163
# Shear Modulus (GPa) = 68.47985 2.10046 35.29016
#
# Velocity S-wave (km/s) = 6.16554 1.07981 4.42605
# Velocity P-wave (km/s) = 8.77168 5.40271 7.28463
#
# Compressibility (1/GPa) = 0.02114123
#
# Stress axis : x y z
#
# Youngs Moduli (GPa) = 54.89142 54.89142 52.67042
#
# Poissons Ratio (x) = 0.49687 0.21301
# Poissons Ratio (y) = 0.49687 0.21301
# Poissons Ratio (z) = 0.22199 0.22199
#
# Static dielectric constant tensor:
#      x y z
#    x 1.653170 0.000000 0.000000 
#    y 0.000000 1.653170 0.000000 
#    z 0.000000 0.000000 1.790730 
# 
# From -- ./inp_files/10221.got.cif
#   From: 2010.05.17/outbox.cif.g08.bks.cpg/sg181_6_cif.got.tgz:10221.got - 2010.05.20 11:51:17.
