data_PCOD9584641
_publ_section_title
;
Structure prediction by ZEFSAII (Michael W. Deem and Ramdas Pophale) SiO2 
 PCOD9584641
Probable space group: P 63 2 2
;
_chemical_formula_sum "Si O2"
_cell_formula_units_Z 66
_cell_length_a 30.014232
_cell_length_b 30.014232
_cell_length_c 5.729932
_cell_angle_alpha 90.000000
_cell_angle_beta 90.000000
_cell_angle_gamma 120.000000
_cell_volume 4470.278390
_symmetry_space_group_name_H-M "P 63 2 2"
_symmetry_group_IT_number 182
_symmetry_cell_setting 'hexagonal'
loop_
_space_group_symop_operation_xyz
x,y,z
x-y,x,1/2+z
-y,x-y,z
-x,-y,1/2+z
-x+y,-x,z
y,-x+y,1/2+z
x-y,-y,-z
-x,-x+y,-z
y,x,-z
-y,-x,1/2-z
-x+y,y,1/2-z
x,x-y,1/2-z
loop_
_atom_site_type_symbol
_atom_site_label
_atom_site_fract_x
_atom_site_fract_y
_atom_site_fract_z
Si Si1 0.435578 0.564423 0.250000
Si Si2 0.052240 0.381093 0.125152
Si Si3 0.759594 0.240407 0.250000
Si Si4 0.668479 0.170730 0.979649
Si Si5 0.411759 0.159946 0.855759
Si Si6 0.082084 0.483727 0.843450
Si Si7 0.587035 0.587035 0.500000
O O1 0.458784 0.623966 0.310896
O O2 0.434418 0.529400 0.471120
O O3 0.099894 0.371278 0.113823
O O4 0.038016 0.397442 0.369977
O O5 0.072023 0.433901 0.985547
O O6 0.000000 0.339091 0.000000
O O7 0.776140 0.291092 0.400954
O O8 0.747538 0.191734 0.416571
O O9 0.706778 0.158605 0.830600
O O10 0.634097 0.130238 0.179078
O O11 0.390679 0.195340 0.750000
O O12 0.031092 0.459185 0.681582
#
# Coordination Sequence:
#
# PCOD9584641 Si02
#       7
#     6  12   6  12  12  12   6
#     4  12  22  32  56  70 102 116 158 195 232 274
#     4  10  19  32  52  70  97 131 159 192 231 279
#     4  10  20  34  56  72  98 108 150 195 238 278
#     4  11  20  35  53  71  98 116 149 194 234 285
#     4  10  19  32  52  76  97 117 155 199 234 278
#     4  11  20  35  53  69 100 130 159 190 226 281
#     4  10  20  34  56  64 104 138 162 182 224 278
#
# _framework density 14.764181000000001
#
# number of rings (size 3 to 8) (size 9 to 14) (size 15 to 20)
#    0.000    1.455    5.455    0.545    0.000    0.000 
#    0.000    0.000   90.000    0.000    0.000    0.000 
#  345.455    0.000    0.000    0.000    0.000    0.000 
#
# Total GULP energy -367621.973039 kJ/mol
# GULP energy per Si atom -5570.029895 kJ/mol
# Density = 1.473058 g / cm^3
# Si number density = 14.764181 Si / 1000 Ang^3
#
#
#
# Elastic Constant Matrix: (Units=GPa)
#
#
# Indices 1 2 3 4 5 6 
#
# 1 77.9543 39.5259 22.5375 0.0000 0.0000 0.0000
# 2 39.5259 77.9543 22.5375 0.0000 0.0000 0.0000
# 3 22.5375 22.5375 64.8175 0.0000 0.0000 0.0000
# 4 0.0000 0.0000 0.0000 23.4700 0.0000 0.0000
# 5 0.0000 0.0000 0.0000 0.0000 23.4700 0.0000
# 6 0.0000 0.0000 0.0000 0.0000 0.0000 19.2142
#
#
#
# Elastic Compliance Matrix: (Units=1/GPa)
#
#
# Indices 1 2 3 4 5 6 
#
# 1 0.017922 -0.008100 -0.003415 0.000000 0.000000 0.000000
# 2 -0.008100 0.017922 -0.003415 0.000000 0.000000 0.000000
# 3 -0.003415 -0.003415 0.017803 0.000000 0.000000 0.000000
# 4 0.000000 0.000000 0.000000 0.042608 0.000000 0.000000
# 5 0.000000 0.000000 0.000000 0.000000 0.042608 0.000000
# 6 0.000000 0.000000 0.000000 0.000000 0.000000 0.052045
#
#
# Mechanical properties :
#
#
# Convention : Reuss Voigt Hill
#
# Bulk Modulus (GPa) = 42.04049 43.32531 42.68290
# Shear Modulus (GPa) = 21.86289 22.30586 22.08438
#
# Velocity S-wave (km/s) = 3.85230 3.89113 3.87176
# Velocity P-wave (km/s) = 6.95150 7.04247 6.99714
#
# Compressibility (1/GPa) = 0.02378659
#
# Stress axis : x y z
#
# Youngs Moduli (GPa) = 55.79593 55.79593 56.17030
#
# Poissons Ratio (x) = 0.45195 0.19184
# Poissons Ratio (y) = 0.45195 0.19184
# Poissons Ratio (z) = 0.19056 0.19056
#
# Static dielectric constant tensor:
#      x y z
#    x 1.506580 0.000000 0.000000 
#    y 0.000000 1.506580 0.000000 
#    z 0.000000 0.000000 1.615420 
# 
# From -- ./inp_files/819.got.cif
#   From: 2010.05.17/outbox.cif.g08.bks.cpg/sg182_1_cif.got.tgz:819.got - 2010.05.20 11:58:53.
