data_PCOD9584723
_publ_section_title
;
Structure prediction by ZEFSAII (Michael W. Deem and Ramdas Pophale) SiO2 
 PCOD9584723
Probable space group: P 63 2 2
;
_chemical_formula_sum "Si O2"
_cell_formula_units_Z 30
_cell_length_a 8.393376
_cell_length_b 8.393376
_cell_length_c 22.714202
_cell_angle_alpha 90.000000
_cell_angle_beta 90.000000
_cell_angle_gamma 120.000000
_cell_volume 1385.802922
_symmetry_space_group_name_H-M "P 63 2 2"
_symmetry_group_IT_number 182
_symmetry_cell_setting 'hexagonal'
loop_
_space_group_symop_operation_xyz
x,y,z
x-y,x,1/2+z
-y,x-y,z
-x,-y,1/2+z
-x+y,-x,z
y,-x+y,1/2+z
x-y,-y,-z
-x,-x+y,-z
y,x,-z
-y,-x,1/2-z
-x+y,y,1/2-z
x,x-y,1/2-z
loop_
_atom_site_type_symbol
_atom_site_label
_atom_site_fract_x
_atom_site_fract_y
_atom_site_fract_z
Si Si1 0.455681 0.911362 0.250000
Si Si2 0.000000 0.000000 0.820183
Si Si3 0.333334 0.666668 0.558348
Si Si4 0.333333 0.666668 0.081698
Si Si5 0.980674 0.344517 0.134819
O O1 0.234513 0.765488 0.250000
O O2 0.486564 0.027332 0.191375
O O3 0.800953 0.847763 0.843384
O O4 0.000000 0.000000 0.750000
O O5 0.333334 0.666667 0.488288
O O6 0.515361 0.836467 0.585373
O O7 0.529223 0.712483 0.107728
#
# Coordination Sequence:
#
# PCOD9584723 Si02
#       5
#     6   4   4   4  12
#     4  10  20  40  72  98 136 180 216 292 356 418
#     4  12  30  42  73 107 148 177 231 301 365 436
#     4  12  30  43  71 106 141 195 244 287 343 438
#     4  12  24  52  74  97 147 189 244 293 349 423
#     4  12  25  46  72 107 140 188 237 291 366 415
#
# _framework density 21.648099999999999
#
# number of rings (size 3 to 8) (size 9 to 14) (size 15 to 20)
#    0.400    0.000    4.000    4.800    5.600    0.000 
#    0.000    6.000    0.000    0.000    0.000    0.000 
#    0.000    0.000    0.000    0.000    0.000    0.000 
#
# Total GULP energy -167988.290749 kJ/mol
# GULP energy per Si atom -5599.609692 kJ/mol
# Density = 2.159883 g / cm^3
# Si number density = 21.648100 Si / 1000 Ang^3
#
#
#
# Elastic Constant Matrix: (Units=GPa)
#
#
# Indices 1 2 3 4 5 6 
#
# 1 64.4975 14.0555 26.8296 0.0009 0.0006 0.0000
# 2 14.0555 64.4973 26.8300 0.0005 0.0005 0.0001
# 3 26.8296 26.8300 188.3385 0.0007 -0.0007 0.0001
# 4 0.0009 0.0005 0.0007 -24.0368 -0.0096 0.0001
# 5 0.0006 0.0005 -0.0007 -0.0096 -23.9980 -0.0002
# 6 0.0000 0.0001 0.0001 0.0001 -0.0002 25.2213
#
#
#
# Elastic Compliance Matrix: (Units=1/GPa)
#
#
# Indices 1 2 3 4 5 6 
#
# 1 0.016964 -0.002861 -0.002009 0.000001 0.000000 0.000000
# 2 -0.002861 0.016964 -0.002009 0.000000 0.000000 0.000000
# 3 -0.002009 -0.002009 0.005882 0.000000 0.000000 0.000000
# 4 0.000001 0.000000 0.000000 -0.041603 0.000017 0.000000
# 5 0.000000 0.000000 0.000000 0.000017 -0.041670 0.000000
# 6 0.000000 0.000000 0.000000 0.000000 0.000000 0.039649
#
#
# Mechanical properties :
#
#
# Convention : Reuss Voigt Hill
#
# Bulk Modulus (GPa) = 38.38589 50.30706 44.34647
# Shear Modulus (GPa) = 268.42281 12.07850 140.25066
#
# Velocity S-wave (km/s) = 11.14733 2.36465 8.05774
# Velocity P-wave (km/s) = 13.54452 5.54477 10.34888
#
# Compressibility (1/GPa) = 0.02605124
#
# Stress axis : x y z
#
# Youngs Moduli (GPa) = 58.94953 58.94927 170.01100
#
# Poissons Ratio (x) = 0.16866 0.34155
# Poissons Ratio (y) = 0.16866 0.34156
# Poissons Ratio (z) = 0.11843 0.11843
#
# Static dielectric constant tensor:
#      x y z
#    x 1.794110 0.000000 0.000000 
#    y 0.000000 1.794110 0.000000 
#    z 0.000000 0.000000 1.741490 
# 
# From -- ./inp_files/5089.got.cif
#   From: 2010.05.17/outbox.cif.g08.bks.cpg/sg182_3_cif.got.tgz:5089.got - 2010.05.20 11:58:53.
