data_PCOD9584023
_publ_section_title
;
Structure prediction by ZEFSAII (Michael W. Deem and Ramdas Pophale) SiO2 
 PCOD9584023
Probable space group: P 62 2 2
;
_chemical_formula_sum "Si O2"
_cell_formula_units_Z 48
_cell_length_a 15.366375
_cell_length_b 15.366375
_cell_length_c 11.788887
_cell_angle_alpha 90.000000
_cell_angle_beta 90.000000
_cell_angle_gamma 120.000000
_cell_volume 2410.717339
_symmetry_space_group_name_H-M "P 62 2 2"
_symmetry_group_IT_number 180
_symmetry_cell_setting 'hexagonal'
loop_
_space_group_symop_operation_xyz
x,y,z
x-y,x,1/3+z
-y,x-y,2/3+z
-x,-y,z
-x+y,-x,1/3+z
y,-x+y,2/3+z
x-y,-y,-z
-x,-x+y,1/3-z
y,x,2/3-z
-y,-x,2/3-z
-x+y,y,-z
x,x-y,1/3-z
loop_
_atom_site_type_symbol
_atom_site_label
_atom_site_fract_x
_atom_site_fract_y
_atom_site_fract_z
Si Si1 0.715970 0.496012 0.826931
Si Si2 0.440919 0.558541 0.469137
Si Si3 0.134110 0.390306 0.409565
Si Si4 0.938171 0.244503 0.279418
O O1 0.609927 0.390074 0.833334
O O2 0.807737 0.476188 0.851979
O O3 0.747485 0.554584 0.705716
O O4 0.711644 0.578218 0.907114
O O5 0.500000 0.500000 0.499919
O O6 0.437223 0.562778 0.333334
O O7 0.332690 0.482291 0.514461
O O8 0.166272 0.332543 0.500000
O O9 0.020816 0.316437 0.369387
O O10 0.863794 0.136207 0.333334
O O11 0.000000 0.246832 0.166667
#
# Coordination Sequence:
#
# PCOD9584023 Si02
#       4
#    12  12  12  12
#     4  11  25  39  63  94 134 178 220 268 323 393
#     4  11  23  37  58  90 131 173 221 263 321 385
#     4  11  23  42  64  94 131 173 221 273 333 400
#     4  10  24  45  68  97 130 172 220 274 340 404
#
# _framework density 19.911086999999998
#
# number of rings (size 3 to 8) (size 9 to 14) (size 15 to 20)
#    0.000    1.250    2.500    2.250    7.000    3.500 
#    0.000    0.000    0.000    2.250    0.000    0.000 
#    0.000    0.000    0.000    0.000    0.000    0.000 
#
# Total GULP energy -267668.548795 kJ/mol
# GULP energy per Si atom -5576.428100 kJ/mol
# Density = 1.986577 g / cm^3
# Si number density = 19.911087 Si / 1000 Ang^3
#
#
#
# Elastic Constant Matrix: (Units=GPa)
#
#
# Indices 1 2 3 4 5 6 
#
# 1 128.5375 88.0626 55.4948 0.0000 0.0000 0.0000
# 2 88.0626 128.5375 55.4948 0.0000 0.0000 0.0000
# 3 55.4948 55.4948 105.6593 0.0000 0.0000 0.0000
# 4 0.0000 0.0000 0.0000 24.5020 0.0000 0.0000
# 5 0.0000 0.0000 0.0000 0.0000 24.5020 0.0000
# 6 0.0000 0.0000 0.0000 0.0000 0.0000 20.2375
#
#
#
# Elastic Compliance Matrix: (Units=1/GPa)
#
#
# Indices 1 2 3 4 5 6 
#
# 1 0.015512 -0.009195 -0.003318 0.000000 0.000000 0.000000
# 2 -0.009195 0.015512 -0.003318 0.000000 0.000000 0.000000
# 3 -0.003318 -0.003318 0.012950 0.000000 0.000000 0.000000
# 4 0.000000 0.000000 0.000000 0.040813 0.000000 0.000000
# 5 0.000000 0.000000 0.000000 0.000000 0.040813 0.000000
# 6 0.000000 0.000000 0.000000 0.000000 0.000000 0.049413
#
#
# Mechanical properties :
#
#
# Convention : Reuss Voigt Hill
#
# Bulk Modulus (GPa) = 81.22030 84.53762 82.87896
# Shear Modulus (GPa) = 23.72172 24.76044 24.24108
#
# Velocity S-wave (km/s) = 3.45539 3.53023 3.49301
# Velocity P-wave (km/s) = 7.53655 7.69197 7.61466
#
# Compressibility (1/GPa) = 0.01231219
#
# Stress axis : x y z
#
# Youngs Moduli (GPa) = 64.46713 64.46713 77.22284
#
# Poissons Ratio (x) = 0.59277 0.25621
# Poissons Ratio (y) = 0.59277 0.25621
# Poissons Ratio (z) = 0.21389 0.21389
#
# Static dielectric constant tensor:
#      x y z
#    x 1.943830 0.000000 0.000000 
#    y 0.000000 1.943830 0.000000 
#    z 0.000000 0.000000 -3.099410 
# 
# From -- ./inp_files/4354.got.cif
#   From: 2010.05.17/outbox.cif.g08.bks.cpg/sg180_3_cif.got.tgz:4354.got - 2010.05.20 11:43:55.
