data_PCOD9584689
_publ_section_title
;
Structure prediction by ZEFSAII (Michael W. Deem and Ramdas Pophale) SiO2 
 PCOD9584689
Probable space group: P 63 2 2
;
_chemical_formula_sum "Si O2"
_cell_formula_units_Z 46
_cell_length_a 13.097220
_cell_length_b 13.097220
_cell_length_c 14.569177
_cell_angle_alpha 90.000000
_cell_angle_beta 90.000000
_cell_angle_gamma 120.000000
_cell_volume 2164.332079
_symmetry_space_group_name_H-M "P 63 2 2"
_symmetry_group_IT_number 182
_symmetry_cell_setting 'hexagonal'
loop_
_space_group_symop_operation_xyz
x,y,z
x-y,x,1/2+z
-y,x-y,z
-x,-y,1/2+z
-x+y,-x,z
y,-x+y,1/2+z
x-y,-y,-z
-x,-x+y,-z
y,x,-z
-y,-x,1/2-z
-x+y,y,1/2-z
x,x-y,1/2-z
loop_
_atom_site_type_symbol
_atom_site_label
_atom_site_fract_x
_atom_site_fract_y
_atom_site_fract_z
Si Si1 0.000000 0.187507 0.000000
Si Si2 0.000000 0.000000 0.362003
Si Si3 0.401712 0.142920 0.500000
Si Si4 0.673556 0.139829 0.802513
Si Si5 0.673556 0.139829 0.197486
O O1 0.881465 0.195147 1.000000
O O2 0.000000 0.112432 0.910527
O O3 0.000000 0.000000 0.250000
O O4 0.478483 0.175479 0.591615
O O5 0.478483 0.175480 0.408385
O O6 0.317177 0.000000 0.500000
O O7 0.796501 0.203500 0.750000
O O8 0.586212 0.172424 0.750000
O O9 0.613963 0.000000 0.797409
O O10 0.796501 0.203500 0.250000
O O11 0.586212 0.172424 0.250000
#
# Coordination Sequence:
#
# PCOD9584689 Si02
#       5
#     6   4  12  12  12
#     4  10  20  38  54  96 134 182 232 282 340 410
#     4  10  20  34  58  86 127 196 239 259 346 425
#     4  10  21  39  60  91 137 171 222 287 333 403
#     4  10  23  42  65  95 129 174 228 281 343 412
#     4  10  23  42  65  95 129 174 228 281 343 412
#
# _framework density 21.253668999999999
#
# number of rings (size 3 to 8) (size 9 to 14) (size 15 to 20)
#    0.000    2.087    2.609    0.522    3.652    4.174 
#    0.000    2.609    0.000    0.522    0.000    0.000 
#    0.000    0.000    0.000    0.000    0.000    0.000 
#
# Total GULP energy -256970.334852 kJ/mol
# GULP energy per Si atom -5586.311627 kJ/mol
# Density = 2.120530 g / cm^3
# Si number density = 21.253669 Si / 1000 Ang^3
#
#
#
# Elastic Constant Matrix: (Units=GPa)
#
#
# Indices 1 2 3 4 5 6 
#
# 1 69.2471 39.3838 71.1879 0.0000 0.0000 0.0000
# 2 39.3838 69.2471 71.1879 0.0000 0.0000 0.0000
# 3 71.1879 71.1879 237.0501 0.0000 0.0000 0.0000
# 4 0.0000 0.0000 0.0000 18.6606 0.0000 0.0000
# 5 0.0000 0.0000 0.0000 0.0000 18.6606 0.0000
# 6 0.0000 0.0000 0.0000 0.0000 0.0000 14.9317
#
#
#
# Elastic Compliance Matrix: (Units=1/GPa)
#
#
# Indices 1 2 3 4 5 6 
#
# 1 0.024333 -0.009153 -0.004559 0.000000 0.000000 0.000000
# 2 -0.009153 0.024333 -0.004559 0.000000 0.000000 0.000000
# 3 -0.004559 -0.004559 0.006957 0.000000 0.000000 0.000000
# 4 0.000000 0.000000 0.000000 0.053589 0.000000 0.000000
# 5 0.000000 0.000000 0.000000 0.000000 0.053589 0.000000
# 6 0.000000 0.000000 0.000000 0.000000 0.000000 0.066972
#
#
# Mechanical properties :
#
#
# Convention : Reuss Voigt Hill
#
# Bulk Modulus (GPa) = 52.40473 82.11819 67.26146
# Shear Modulus (GPa) = 18.33695 23.36957 20.85326
#
# Velocity S-wave (km/s) = 2.94047 3.31955 3.13575
# Velocity P-wave (km/s) = 6.01987 7.30846 6.69524
#
# Compressibility (1/GPa) = 0.01908225
#
# Stress axis : x y z
#
# Youngs Moduli (GPa) = 41.09622 41.09622 143.74844
#
# Poissons Ratio (x) = 0.37614 0.65532
# Poissons Ratio (y) = 0.37614 0.65532
# Poissons Ratio (z) = 0.18735 0.18735
#
# Static dielectric constant tensor:
#      x y z
#    x 1.764030 0.000000 0.000000 
#    y 0.000000 1.764030 0.000000 
#    z 0.000000 0.000000 1.814410 
# 
# From -- ./inp_files/2401.got.cif
#   From: 2010.05.17/outbox.cif.g08.bks.cpg/sg182_2_cif.got.tgz:2401.got - 2010.05.20 11:58:53.
