data_PCOD9584823
_publ_section_title
;
Structure prediction by ZEFSAII (Michael W. Deem and Ramdas Pophale) SiO2 
 PCOD9584823
Probable space group: P 63 2 2
;
_chemical_formula_sum "Si O2"
_cell_formula_units_Z 72
_cell_length_a 15.012662
_cell_length_b 15.012662
_cell_length_c 15.427072
_cell_angle_alpha 90.000000
_cell_angle_beta 90.000000
_cell_angle_gamma 120.000000
_cell_volume 3011.130319
_symmetry_space_group_name_H-M "P 63 2 2"
_symmetry_group_IT_number 182
_symmetry_cell_setting 'hexagonal'
loop_
_space_group_symop_operation_xyz
x,y,z
x-y,x,1/2+z
-y,x-y,z
-x,-y,1/2+z
-x+y,-x,z
y,-x+y,1/2+z
x-y,-y,-z
-x,-x+y,-z
y,x,-z
-y,-x,1/2-z
-x+y,y,1/2-z
x,x-y,1/2-z
loop_
_atom_site_type_symbol
_atom_site_label
_atom_site_fract_x
_atom_site_fract_y
_atom_site_fract_z
Si Si1 0.181628 0.214355 0.907646
Si Si2 0.448150 0.893139 0.454313
Si Si3 0.995856 0.616061 0.184457
Si Si4 0.435075 0.646625 0.627790
Si Si5 0.817516 0.961575 0.341631
Si Si6 0.282066 0.424345 0.325776
O O1 0.270762 0.283758 0.838528
O O2 0.145299 0.094234 0.907556
O O3 0.079779 0.214221 0.871257
O O4 0.242316 0.242316 0.000000
O O5 0.369871 0.822827 0.527838
O O6 0.500107 0.836024 0.405240
O O7 0.533950 0.000000 0.500000
O O8 0.392677 0.930054 0.386027
O O9 0.884297 0.519032 0.178259
O O10 0.044968 0.626132 0.277346
O O11 0.436922 0.752879 0.644776
O O12 0.843028 0.921514 0.250000
O O13 0.693767 0.899441 0.350341
O O14 0.227348 0.454695 0.250000
#
# Coordination Sequence:
#
# PCOD9584823 Si02
#       6
#    12  12  12  12  12  12
#     4  12  24  41  70 100 140 185 235 290 357 427
#     4  10  23  43  71 103 142 186 232 304 354 428
#     4  11  23  45  69 104 148 186 234 297 364 427
#     4   9  22  42  71 105 140 186 235 292 364 424
#     4  11  24  44  63 100 139 185 232 291 349 429
#     4  11  24  43  70 101 140 188 244 293 356 430
#
# _framework density 23.911287000000002
#
# number of rings (size 3 to 8) (size 9 to 14) (size 15 to 20)
#    0.333    1.000    3.333    3.333    2.333    5.333 
#    0.000    1.667    0.000    3.000    0.000    0.000 
#    0.000    0.000    0.000    0.000    0.000    0.000 
#
# Total GULP energy -401795.124618 kJ/mol
# GULP energy per Si atom -5580.487842 kJ/mol
# Density = 2.385686 g / cm^3
# Si number density = 23.911287 Si / 1000 Ang^3
#
#
#
# Elastic Constant Matrix: (Units=GPa)
#
#
# Indices 1 2 3 4 5 6 
#
# 1 84.4131 47.6055 16.5213 0.0000 0.0000 0.0000
# 2 47.6055 84.4131 16.5213 0.0000 0.0000 0.0000
# 3 16.5213 16.5213 65.8262 0.0000 0.0000 0.0000
# 4 0.0000 0.0000 0.0000 36.6117 0.0000 0.0000
# 5 0.0000 0.0000 0.0000 0.0000 36.6117 0.0000
# 6 0.0000 0.0000 0.0000 0.0000 0.0000 18.4038
#
#
#
# Elastic Compliance Matrix: (Units=1/GPa)
#
#
# Indices 1 2 3 4 5 6 
#
# 1 0.017625 -0.009543 -0.002029 0.000000 0.000000 0.000000
# 2 -0.009543 0.017625 -0.002029 0.000000 0.000000 0.000000
# 3 -0.002029 -0.002029 0.016210 0.000000 0.000000 0.000000
# 4 0.000000 0.000000 0.000000 0.027314 0.000000 0.000000
# 5 0.000000 0.000000 0.000000 0.000000 0.027314 0.000000
# 6 0.000000 0.000000 0.000000 0.000000 0.000000 0.054337
#
#
# Mechanical properties :
#
#
# Convention : Reuss Voigt Hill
#
# Bulk Modulus (GPa) = 41.21946 43.99430 42.60688
# Shear Modulus (GPa) = 25.54782 28.59240 27.07011
#
# Velocity S-wave (km/s) = 3.27225 3.46174 3.36833
# Velocity P-wave (km/s) = 5.61718 5.86661 5.74325
#
# Compressibility (1/GPa) = 0.02426039
#
# Stress axis : x y z
#
# Youngs Moduli (GPa) = 56.73640 56.73640 61.69116
#
# Poissons Ratio (x) = 0.54143 0.12514
# Poissons Ratio (y) = 0.54143 0.12514
# Poissons Ratio (z) = 0.11509 0.11509
#
# Static dielectric constant tensor:
#      x y z
#    x 1.924450 0.000000 0.000000 
#    y 0.000000 1.924450 0.000000 
#    z 0.000000 0.000000 2.031700 
# 
# From -- ./inp_files/4345.got.cif
#   From: 2010.05.17/outbox.cif.g08.bks.cpg/sg182_3_cif.got.tgz:4345.got - 2010.05.20 11:58:53.
