data_PCOD9584002
_publ_section_title
;
Structure prediction by ZEFSAII (Michael W. Deem and Ramdas Pophale) SiO2 
 PCOD9584002
Probable space group: P 62 2 2
;
_chemical_formula_sum "Si O2"
_cell_formula_units_Z 75
_cell_length_a 11.584188
_cell_length_b 11.584188
_cell_length_c 29.494032
_cell_angle_alpha 90.000000
_cell_angle_beta 90.000000
_cell_angle_gamma 120.000000
_cell_volume 3427.646082
_symmetry_space_group_name_H-M "P 62 2 2"
_symmetry_group_IT_number 180
_symmetry_cell_setting 'hexagonal'
loop_
_space_group_symop_operation_xyz
x,y,z
x-y,x,1/3+z
-y,x-y,2/3+z
-x,-y,z
-x+y,-x,1/3+z
y,-x+y,2/3+z
x-y,-y,-z
-x,-x+y,1/3-z
y,x,2/3-z
-y,-x,2/3-z
-x+y,y,-z
x,x-y,1/3-z
loop_
_atom_site_type_symbol
_atom_site_label
_atom_site_fract_x
_atom_site_fract_y
_atom_site_fract_z
Si Si1 0.140099 0.624566 0.927455
Si Si2 0.199983 0.525749 0.049877
Si Si3 0.704661 0.946665 0.548094
Si Si4 0.731561 0.794418 0.122180
Si Si5 0.211081 0.425786 0.684562
Si Si6 0.000000 0.500000 0.666667
Si Si7 0.109448 0.149604 0.272036
O O1 0.244324 0.576189 0.920095
O O2 0.108619 0.686867 0.884711
O O3 0.000000 0.500000 0.944081
O O4 0.198542 0.734621 0.966986
O O5 0.087253 0.400468 0.077443
O O6 0.177268 0.651494 0.044000
O O7 0.247961 0.495922 0.000000
O O8 0.718732 0.815380 0.543668
O O9 0.682640 0.000000 0.500000
O O10 0.853248 0.053962 0.564296
O O11 0.758699 0.879350 0.166667
O O12 0.776073 0.901784 0.081478
O O13 0.128105 0.267105 0.692526
O O14 0.100020 0.467876 0.694268
O O15 0.000000 0.000000 0.285486
#
# Coordination Sequence:
#
# PCOD9584002 Si02
#       7
#    12  12  12  12  12   3  12
#     4  11  22  42  69 101 137 184 237 300 368 444
#     4  10  23  44  70 106 144 194 238 295 379 450
#     4  11  22  42  71  98 146 192 238 296 366 441
#     4  11  22  42  68  95 132 185 242 291 361 431
#     4  11  24  43  71 105 145 186 234 304 371 449
#     4  12  20  44  70  92 144 184 230 286 376 440
#     4  10  24  40  69 103 136 182 232 291 358 426
#
# _framework density 21.880904999999998
#
# number of rings (size 3 to 8) (size 9 to 14) (size 15 to 20)
#    0.000    1.280    5.600    0.960    4.480    0.000 
#    0.000   14.800    0.000    0.000    0.000    0.000 
#    0.000    0.000    0.000    0.000    0.000    0.000 
#
# Total GULP energy -418217.414864 kJ/mol
# GULP energy per Si atom -5576.232198 kJ/mol
# Density = 2.183110 g / cm^3
# Si number density = 21.880905 Si / 1000 Ang^3
#
#
#
# Elastic Constant Matrix: (Units=GPa)
#
#
# Indices 1 2 3 4 5 6 
#
# 1 111.3202 55.9677 30.6672 0.0000 0.0000 0.0000
# 2 55.9677 111.3202 30.6672 0.0000 0.0000 0.0000
# 3 30.6672 30.6672 61.5785 0.0000 0.0000 0.0000
# 4 0.0000 0.0000 0.0000 10.4920 0.0000 0.0000
# 5 0.0000 0.0000 0.0000 0.0000 10.4920 0.0000
# 6 0.0000 0.0000 0.0000 0.0000 0.0000 27.6762
#
#
#
# Elastic Compliance Matrix: (Units=1/GPa)
#
#
# Indices 1 2 3 4 5 6 
#
# 1 0.012690 -0.005377 -0.003642 0.000000 0.000000 0.000000
# 2 -0.005377 0.012690 -0.003642 0.000000 0.000000 0.000000
# 3 -0.003642 -0.003642 0.019867 0.000000 0.000000 0.000000
# 4 0.000000 0.000000 0.000000 0.095311 0.000000 0.000000
# 5 0.000000 0.000000 0.000000 0.000000 0.095311 0.000000
# 6 0.000000 0.000000 0.000000 0.000000 0.000000 0.036132
#
#
# Mechanical properties :
#
#
# Convention : Reuss Voigt Hill
#
# Bulk Modulus (GPa) = 50.18821 57.64702 53.91761
# Shear Modulus (GPa) = 16.44938 20.85982 18.65460
#
# Velocity S-wave (km/s) = 2.74481 3.09096 2.92302
# Velocity P-wave (km/s) = 5.74736 6.25633 6.00724
#
# Compressibility (1/GPa) = 0.01992500
#
# Stress axis : x y z
#
# Youngs Moduli (GPa) = 78.80509 78.80509 50.33463
#
# Poissons Ratio (x) = 0.42370 0.18332
# Poissons Ratio (y) = 0.42370 0.18332
# Poissons Ratio (z) = 0.28701 0.28701
#
# Static dielectric constant tensor:
#      x y z
#    x 1.793360 0.000000 0.000000 
#    y 0.000000 1.793360 0.000000 
#    z 0.000000 0.000000 1.840120 
# 
# From -- ./inp_files/12381.got.cif
#   From: 2010.05.17/outbox.cif.g08.bks.cpg/sg180_7_cif.got.tgz:12381.got - 2010.05.20 11:43:55.
