data_PCOD9584417
_publ_section_title
;
Structure prediction by ZEFSAII (Michael W. Deem and Ramdas Pophale) SiO2 
 PCOD9584417
Probable space group: P 64 2 2
;
_chemical_formula_sum "Si O2"
_cell_formula_units_Z 60
_cell_length_a 17.282748
_cell_length_b 17.282748
_cell_length_c 11.006603
_cell_angle_alpha 90.000000
_cell_angle_beta 90.000000
_cell_angle_gamma 120.000000
_cell_volume 2847.144628
_symmetry_space_group_name_H-M "P 64 2 2"
_symmetry_group_IT_number 181
_symmetry_cell_setting 'hexagonal'
loop_
_space_group_symop_operation_xyz
x,y,z
x-y,x,2/3+z
-y,x-y,1/3+z
-x,-y,z
-x+y,-x,2/3+z
y,-x+y,1/3+z
x-y,-y,-z
-x,-x+y,2/3-z
y,x,1/3-z
-y,-x,1/3-z
-x+y,y,-z
x,x-y,2/3-z
loop_
_atom_site_type_symbol
_atom_site_label
_atom_site_fract_x
_atom_site_fract_y
_atom_site_fract_z
Si Si1 0.916579 0.512612 0.591970
Si Si2 0.346550 0.805377 0.882333
Si Si3 0.320765 0.977298 0.875787
Si Si4 0.514990 0.850766 0.504957
Si Si5 0.703221 0.763879 0.288839
O O1 0.833791 0.417539 0.559637
O O2 0.890240 0.557602 0.697379
O O3 0.000000 0.500000 0.624575
O O4 0.949726 0.574802 0.474335
O O5 0.319667 0.883312 0.887240
O O6 0.255152 0.719082 0.847116
O O7 0.398809 0.797617 0.000000
O O8 0.275873 0.984388 0.752607
O O9 0.289013 0.000000 0.000000
O O10 0.439780 0.879560 0.500000
O O11 0.596793 0.890268 0.412146
O O12 0.752413 0.752413 0.166667
O O13 0.725268 0.862634 0.333334
#
# Coordination Sequence:
#
# PCOD9584417 Si02
#       5
#    12  12  12  12  12
#     4  10  22  37  59  82 117 177 240 296 355 401
#     4  11  23  37  57  87 135 184 242 304 351 405
#     4  11  21  42  67  93 126 180 238 292 352 423
#     4  12  26  37  59  91 135 189 248 301 358 416
#     4  12  26  48  71 102 139 184 237 304 369 446
#
# _framework density 21.073746
#
# number of rings (size 3 to 8) (size 9 to 14) (size 15 to 20)
#    0.000    0.800    6.000    2.400    2.800    0.000 
#    0.000    3.000    0.000    0.000    0.000    0.000 
#    0.000    4.000    0.000    0.000    0.000    0.000 
#
# Total GULP energy -334604.300488 kJ/mol
# GULP energy per Si atom -5576.738341 kJ/mol
# Density = 2.102578 g / cm^3
# Si number density = 21.073746 Si / 1000 Ang^3
#
#
#
# Elastic Constant Matrix: (Units=GPa)
#
#
# Indices 1 2 3 4 5 6 
#
# 1 56.9050 21.2538 40.7712 0.0000 0.0000 0.0000
# 2 21.2538 56.9050 40.7712 0.0000 0.0000 0.0000
# 3 40.7712 40.7712 158.7579 0.0000 0.0000 0.0000
# 4 0.0000 0.0000 0.0000 19.3049 0.0000 0.0000
# 5 0.0000 0.0000 0.0000 0.0000 19.3049 0.0000
# 6 0.0000 0.0000 0.0000 0.0000 0.0000 17.8256
#
#
#
# Elastic Compliance Matrix: (Units=1/GPa)
#
#
# Indices 1 2 3 4 5 6 
#
# 1 0.022763 -0.005286 -0.004488 0.000000 0.000000 0.000000
# 2 -0.005286 0.022763 -0.004488 0.000000 0.000000 0.000000
# 3 -0.004488 -0.004488 0.008604 0.000000 0.000000 0.000000
# 4 0.000000 0.000000 0.000000 0.051800 0.000000 0.000000
# 5 0.000000 0.000000 0.000000 0.000000 0.051800 0.000000
# 6 0.000000 0.000000 0.000000 0.000000 0.000000 0.056099
#
#
# Mechanical properties :
#
#
# Convention : Reuss Voigt Hill
#
# Bulk Modulus (GPa) = 39.05478 53.12891 46.09185
# Shear Modulus (GPa) = 19.92894 22.60520 21.26707
#
# Velocity S-wave (km/s) = 3.07852 3.27872 3.18020
# Velocity P-wave (km/s) = 5.58651 6.29277 5.95013
#
# Compressibility (1/GPa) = 0.02560506
#
# Stress axis : x y z
#
# Youngs Moduli (GPa) = 43.93029 43.93029 116.22166
#
# Poissons Ratio (x) = 0.23222 0.52165
# Poissons Ratio (y) = 0.23222 0.52165
# Poissons Ratio (z) = 0.19718 0.19718
#
# Static dielectric constant tensor:
#      x y z
#    x 1.883250 0.000000 0.000000 
#    y 0.000000 1.883250 0.000000 
#    z 0.000000 0.000000 1.912220 
# 
# From -- ./inp_files/4840.got.cif
#   From: 2010.05.17/outbox.cif.g08.bks.cpg/sg181_3_cif.got.tgz:4840.got - 2010.05.20 11:51:17.
