data_PCOD9584874
_publ_section_title
;
Structure prediction by ZEFSAII (Michael W. Deem and Ramdas Pophale) SiO2 
 PCOD9584874
Probable space group: P 63 2 2
;
_chemical_formula_sum "Si O2"
_cell_formula_units_Z 28
_cell_length_a 12.856182
_cell_length_b 12.856182
_cell_length_c 9.128973
_cell_angle_alpha 90.000000
_cell_angle_beta 90.000000
_cell_angle_gamma 120.000000
_cell_volume 1306.702067
_symmetry_space_group_name_H-M "P 63 2 2"
_symmetry_group_IT_number 182
_symmetry_cell_setting 'hexagonal'
loop_
_space_group_symop_operation_xyz
x,y,z
x-y,x,1/2+z
-y,x-y,z
-x,-y,1/2+z
-x+y,-x,z
y,-x+y,1/2+z
x-y,-y,-z
-x,-x+y,-z
y,x,-z
-y,-x,1/2-z
-x+y,y,1/2-z
x,x-y,1/2-z
loop_
_atom_site_type_symbol
_atom_site_label
_atom_site_fract_x
_atom_site_fract_y
_atom_site_fract_z
Si Si1 0.205444 0.004384 0.338658
Si Si2 0.666668 0.333334 0.071746
Si Si3 0.859710 0.516389 0.852090
O O1 0.092642 0.907359 0.250000
O O2 0.294140 0.951141 0.359554
O O3 0.156905 0.000000 0.500000
O O4 0.257641 0.128821 0.250000
O O5 0.666668 0.333334 0.250000
O O6 0.792191 0.440374 0.998542
O O7 0.750443 0.500886 0.750000
O O8 0.920277 0.460139 0.750000
#
# Coordination Sequence:
#
# PCOD9584874 Si02
#       3
#    12   4  12
#     4  11  23  41  63  86 116 159 210 262 313 370
#     4   9  16  32  64 102 130 155 193 252 319 389
#     4   8  17  37  62  88 123 160 194 244 316 387
#
# _framework density 21.427990000000001
#
# number of rings (size 3 to 8) (size 9 to 14) (size 15 to 20)
#    0.000    2.571    0.000    3.429    0.000    1.714 
#    0.000   19.286    0.000    0.857    0.000    0.000 
#    0.000    3.429    0.000    0.000    0.000    0.000 
#
# Total GULP energy -155974.134140 kJ/mol
# GULP energy per Si atom -5570.504791 kJ/mol
# Density = 2.137922 g / cm^3
# Si number density = 21.427990 Si / 1000 Ang^3
#
#
#
# Elastic Constant Matrix: (Units=GPa)
#
#
# Indices 1 2 3 4 5 6 
#
# 1 91.7033 56.1038 70.9378 -0.0001 0.0001 0.0001
# 2 56.1038 91.7040 70.9381 -0.0001 0.0000 0.0002
# 3 70.9378 70.9381 227.1144 -0.0002 0.0001 0.0001
# 4 -0.0001 -0.0001 -0.0002 26.0597 0.0001 0.0000
# 5 0.0001 0.0000 0.0001 0.0001 26.0596 0.0000
# 6 0.0001 0.0002 0.0001 0.0000 0.0000 17.7999
#
#
#
# Elastic Compliance Matrix: (Units=1/GPa)
#
#
# Indices 1 2 3 4 5 6 
#
# 1 0.018876 -0.009214 -0.003018 0.000000 0.000000 0.000000
# 2 -0.009214 0.018876 -0.003018 0.000000 0.000000 0.000000
# 3 -0.003018 -0.003018 0.006288 0.000000 0.000000 0.000000
# 4 0.000000 0.000000 0.000000 0.038373 0.000000 0.000000
# 5 0.000000 0.000000 0.000000 0.000000 0.038374 0.000000
# 6 0.000000 0.000000 0.000000 0.000000 0.000000 0.056180
#
#
# Mechanical properties :
#
#
# Convention : Reuss Voigt Hill
#
# Bulk Modulus (GPa) = 73.84845 89.60900 81.72873
# Shear Modulus (GPa) = 23.58699 28.15331 25.87015
#
# Velocity S-wave (km/s) = 3.32136 3.62865 3.47840
# Velocity P-wave (km/s) = 7.01762 7.71139 7.37267
#
# Compressibility (1/GPa) = 0.01354125
#
# Stress axis : x y z
#
# Youngs Moduli (GPa) = 52.97654 52.97685 159.02318
#
# Poissons Ratio (x) = 0.48812 0.47993
# Poissons Ratio (y) = 0.48811 0.47994
# Poissons Ratio (z) = 0.15988 0.15989
#
# Static dielectric constant tensor:
#      x y z
#    x 1.823460 0.000000 0.000000 
#    y 0.000000 1.823460 0.000000 
#    z 0.000000 0.000000 1.749060 
# 
# From -- ./inp_files/1111.got.cif
#   From: 2010.05.17/outbox.cif.g08.bks.cpg/sg182_1_cif.got.tgz:1111.got - 2010.05.20 11:58:53.
