data_PCOD9584730
_publ_section_title
;
Structure prediction by ZEFSAII (Michael W. Deem and Ramdas Pophale) SiO2 
 PCOD9584730
Probable space group: P 63 2 2
;
_chemical_formula_sum "Si O2"
_cell_formula_units_Z 42
_cell_length_a 8.662690
_cell_length_b 8.662690
_cell_length_c 31.389552
_cell_angle_alpha 90.000000
_cell_angle_beta 90.000000
_cell_angle_gamma 120.000000
_cell_volume 2039.958326
_symmetry_space_group_name_H-M "P 63 2 2"
_symmetry_group_IT_number 182
_symmetry_cell_setting 'hexagonal'
loop_
_space_group_symop_operation_xyz
x,y,z
x-y,x,1/2+z
-y,x-y,z
-x,-y,1/2+z
-x+y,-x,z
y,-x+y,1/2+z
x-y,-y,-z
-x,-x+y,-z
y,x,-z
-y,-x,1/2-z
-x+y,y,1/2-z
x,x-y,1/2-z
loop_
_atom_site_type_symbol
_atom_site_label
_atom_site_fract_x
_atom_site_fract_y
_atom_site_fract_z
Si Si1 0.328392 0.980664 0.130962
Si Si2 0.139339 0.461562 0.034565
Si Si3 0.118086 0.236172 0.750000
Si Si4 0.660049 0.966631 0.836616
O O1 0.319283 0.914375 0.083103
O O2 0.143227 0.849663 0.154851
O O3 0.490926 0.981783 0.156058
O O4 0.360639 0.179293 0.129708
O O5 0.341296 0.504696 0.028895
O O6 0.000000 0.332416 0.000000
O O7 0.217416 0.346997 0.791787
O O8 0.190364 0.095182 0.750000
#
# Coordination Sequence:
#
# PCOD9584730 Si02
#       4
#    12  12   6  12
#     4  12  24  45  69 104 141 189 237 290 357 434
#     4  10  23  41  65 102 140 182 233 284 349 418
#     4  10  20  44  66 100 132 172 228 286 354 412
#     4  12  24  44  73 101 143 186 234 297 357 428
#
# _framework density 20.588657999999999
#
# number of rings (size 3 to 8) (size 9 to 14) (size 15 to 20)
#    0.857    0.000    5.714    1.714    4.000    1.143 
#    0.000    0.000    0.000    0.571    0.000    0.000 
#    0.000    0.000    0.000    0.000    0.000    0.000 
#
# Total GULP energy -234160.957017 kJ/mol
# GULP energy per Si atom -5575.260881 kJ/mol
# Density = 2.054180 g / cm^3
# Si number density = 20.588658 Si / 1000 Ang^3
#
#
#
# Elastic Constant Matrix: (Units=GPa)
#
#
# Indices 1 2 3 4 5 6 
#
# 1 58.8369 -4.1429 25.3182 0.0000 0.0000 0.0000
# 2 -4.1429 58.8369 25.3182 0.0000 0.0000 0.0000
# 3 25.3182 25.3182 132.4837 0.0000 0.0000 0.0000
# 4 0.0000 0.0000 0.0000 32.2715 0.0000 0.0000
# 5 0.0000 0.0000 0.0000 0.0000 32.2715 0.0000
# 6 0.0000 0.0000 0.0000 0.0000 0.0000 31.4899
#
#
#
# Elastic Compliance Matrix: (Units=1/GPa)
#
#
# Indices 1 2 3 4 5 6 
#
# 1 0.019046 0.003168 -0.004245 0.000000 0.000000 0.000000
# 2 0.003168 0.019046 -0.004245 0.000000 0.000000 0.000000
# 3 -0.004245 -0.004245 0.009171 0.000000 0.000000 0.000000
# 4 0.000000 0.000000 0.000000 0.030987 0.000000 0.000000
# 5 0.000000 0.000000 0.000000 0.000000 0.030987 0.000000
# 6 0.000000 0.000000 0.000000 0.000000 0.000000 0.031756
#
#
# Mechanical properties :
#
#
# Convention : Reuss Voigt Hill
#
# Bulk Modulus (GPa) = 27.30932 38.12715 32.71823
# Shear Modulus (GPa) = 30.51690 32.78418 31.65054
#
# Velocity S-wave (km/s) = 3.85414 3.99474 3.92507
# Velocity P-wave (km/s) = 5.75316 6.31158 6.03883
#
# Compressibility (1/GPa) = 0.03661754
#
# Stress axis : x y z
#
# Youngs Moduli (GPa) = 52.50470 52.50470 109.04386
#
# Poissons Ratio (x) = -0.16632 0.46291
# Poissons Ratio (y) = -0.16632 0.46291
# Poissons Ratio (z) = 0.22289 0.22289
#
# Static dielectric constant tensor:
#      x y z
#    x 1.737980 0.000000 0.000000 
#    y 0.000000 1.737980 0.000000 
#    z 0.000000 0.000000 1.750490 
# 
# From -- ./inp_files/5666.got.cif
#   From: 2010.05.17/outbox.cif.g08.bks.cpg/sg182_3_cif.got.tgz:5666.got - 2010.05.20 11:58:53.
