data_PCOD9584083
_publ_section_title
;
Structure prediction by ZEFSAII (Michael W. Deem and Ramdas Pophale) SiO2 
 PCOD9584083
Probable space group: P 62 2 2
;
_chemical_formula_sum "Si O2"
_cell_formula_units_Z 54
_cell_length_a 10.910816
_cell_length_b 10.910816
_cell_length_c 28.078054
_cell_angle_alpha 90.000000
_cell_angle_beta 90.000000
_cell_angle_gamma 120.000000
_cell_volume 2894.756918
_symmetry_space_group_name_H-M "P 62 2 2"
_symmetry_group_IT_number 180
_symmetry_cell_setting 'hexagonal'
loop_
_space_group_symop_operation_xyz
x,y,z
x-y,x,1/3+z
-y,x-y,2/3+z
-x,-y,z
-x+y,-x,1/3+z
y,-x+y,2/3+z
x-y,-y,-z
-x,-x+y,1/3-z
y,x,2/3-z
-y,-x,2/3-z
-x+y,y,-z
x,x-y,1/3-z
loop_
_atom_site_type_symbol
_atom_site_label
_atom_site_fract_x
_atom_site_fract_y
_atom_site_fract_z
Si Si1 0.935901 0.777502 0.343831
Si Si2 0.607486 0.666953 0.582593
Si Si3 0.336518 0.879862 0.604101
Si Si4 0.278104 0.556208 0.000000
Si Si5 0.269871 0.439135 0.829736
O O1 0.804653 0.804653 0.333334
O O2 0.945204 0.678706 0.303591
O O3 0.950553 0.714002 0.395082
O O4 0.073289 0.926712 0.333334
O O5 0.500000 0.500000 0.573415
O O6 0.536220 0.702190 0.626680
O O7 0.603005 0.753042 0.536229
O O8 0.351611 0.771382 0.637708
O O9 0.235863 0.805233 0.559356
O O10 0.500000 0.000000 0.590500
O O11 0.337633 0.337633 0.833334
O O12 0.398262 0.601739 0.833334
#
# Coordination Sequence:
#
# PCOD9584083 Si02
#       5
#    12  12  12   6  12
#     4  11  22  38  62  93 129 167 215 270 330 406
#     4  12  22  39  66  99 129 169 225 288 336 398
#     4  12  20  37  64  94 121 165 223 275 325 391
#     4  12  18  34  68  92 116 154 230 278 318 386
#     4  11  21  35  61  98 125 158 215 285 335 383
#
# _framework density 18.654416000000001
#
# number of rings (size 3 to 8) (size 9 to 14) (size 15 to 20)
#    0.000    0.444   10.000    1.333    0.000    0.000 
#    0.000    6.111    0.000    4.000    0.000    0.000 
#    0.000    0.000    0.000    0.000    0.000    0.000 
#
# Total GULP energy -300810.907572 kJ/mol
# GULP energy per Si atom -5570.572362 kJ/mol
# Density = 1.861196 g / cm^3
# Si number density = 18.654416 Si / 1000 Ang^3
#
#
#
# Elastic Constant Matrix: (Units=GPa)
#
#
# Indices 1 2 3 4 5 6 
#
# 1 82.6523 41.8474 51.4382 0.0000 0.0000 0.0000
# 2 41.8474 82.6523 51.4382 0.0000 0.0000 0.0000
# 3 51.4382 51.4382 163.9808 0.0000 0.0000 0.0000
# 4 0.0000 0.0000 0.0000 80.0278 0.0000 0.0000
# 5 0.0000 0.0000 0.0000 0.0000 80.0278 0.0000
# 6 0.0000 0.0000 0.0000 0.0000 0.0000 20.4024
#
#
#
# Elastic Compliance Matrix: (Units=1/GPa)
#
#
# Indices 1 2 3 4 5 6 
#
# 1 0.017675 -0.006832 -0.003401 0.000000 0.000000 0.000000
# 2 -0.006832 0.017675 -0.003401 0.000000 0.000000 0.000000
# 3 -0.003401 -0.003401 0.008232 0.000000 0.000000 0.000000
# 4 0.000000 0.000000 0.000000 0.012496 0.000000 0.000000
# 5 0.000000 0.000000 0.000000 0.000000 0.012496 0.000000
# 6 0.000000 0.000000 0.000000 0.000000 0.000000 0.049014
#
#
# Mechanical properties :
#
#
# Convention : Reuss Voigt Hill
#
# Bulk Modulus (GPa) = 61.30225 68.74812 65.02518
# Shear Modulus (GPa) = 33.26836 48.39570 40.83203
#
# Velocity S-wave (km/s) = 4.22762 5.09898 4.68361
# Velocity P-wave (km/s) = 7.53417 8.46166 8.01135
#
# Compressibility (1/GPa) = 0.01631261
#
# Stress axis : x y z
#
# Youngs Moduli (GPa) = 56.57798 56.57798 121.47642
#
# Poissons Ratio (x) = 0.38655 0.41316
# Poissons Ratio (y) = 0.38655 0.41316
# Poissons Ratio (z) = 0.19243 0.19243
#
# Static dielectric constant tensor:
#      x y z
#    x 1.684060 0.000000 0.000000 
#    y 0.000000 1.684060 0.000000 
#    z 0.000000 0.000000 1.719820 
# 
# From -- ./inp_files/12126.got.cif
#   From: 2010.05.17/outbox.cif.g08.bks.cpg/sg180_7_cif.got.tgz:12126.got - 2010.05.20 11:43:55.
