data_PCOD9584351
_publ_section_title
;
Structure prediction by ZEFSAII (Michael W. Deem and Ramdas Pophale) SiO2 
 PCOD9584351
Probable space group: P 64 2 2
;
_chemical_formula_sum "Si O2"
_cell_formula_units_Z 60
_cell_length_a 15.918146
_cell_length_b 15.918146
_cell_length_c 12.700951
_cell_angle_alpha 90.000000
_cell_angle_beta 90.000000
_cell_angle_gamma 120.000000
_cell_volume 2787.095433
_symmetry_space_group_name_H-M "P 64 2 2"
_symmetry_group_IT_number 181
_symmetry_cell_setting 'hexagonal'
loop_
_space_group_symop_operation_xyz
x,y,z
x-y,x,2/3+z
-y,x-y,1/3+z
-x,-y,z
-x+y,-x,2/3+z
y,-x+y,1/3+z
x-y,-y,-z
-x,-x+y,2/3-z
y,x,1/3-z
-y,-x,1/3-z
-x+y,y,-z
x,x-y,2/3-z
loop_
_atom_site_type_symbol
_atom_site_label
_atom_site_fract_x
_atom_site_fract_y
_atom_site_fract_z
Si Si1 0.921862 0.536855 0.591796
Si Si2 0.362835 0.796645 0.890904
Si Si3 0.347734 0.050779 0.104419
Si Si4 0.521790 0.854306 0.512763
Si Si5 0.815727 0.716184 0.109919
O O1 0.836263 0.452709 0.521823
O O2 0.880341 0.553676 0.699500
O O3 0.000000 0.500000 0.609462
O O4 0.974623 0.635096 0.525123
O O5 0.350903 0.888625 0.922979
O O6 0.261896 0.725880 0.833993
O O7 0.377458 0.754916 0.000000
O O8 0.313385 0.121880 0.149151
O O9 0.291329 0.000000 0.000000
O O10 0.444423 0.888845 0.500000
O O11 0.613319 0.899641 0.434863
O O12 0.790970 0.790970 0.166667
O O13 0.872788 0.745575 0.000000
#
# Coordination Sequence:
#
# PCOD9584351 Si02
#       5
#    12  12  12  12  12
#     4  10  22  38  63  89 131 182 238 292 348 414
#     4  10  21  36  57  90 134 173 223 291 341 395
#     4  10  20  42  70  96 122 171 226 285 357 430
#     4  11  27  36  59  91 138 198 241 279 332 415
#     4  11  26  47  71 101 141 182 234 300 369 436
#
# _framework density 21.527788999999999
#
# number of rings (size 3 to 8) (size 9 to 14) (size 15 to 20)
#    0.000    1.600    2.000    1.200   14.000    0.000 
#    0.000    3.000    0.000    1.800    0.000    0.000 
#    0.000    0.000    0.000    0.000    0.000    0.000 
#
# Total GULP energy -335666.451888 kJ/mol
# GULP energy per Si atom -5594.440865 kJ/mol
# Density = 2.147879 g / cm^3
# Si number density = 21.527789 Si / 1000 Ang^3
#
#
#
# Elastic Constant Matrix: (Units=GPa)
#
#
# Indices 1 2 3 4 5 6 
#
# 1 84.3482 39.4027 36.0102 0.0000 0.0000 0.0000
# 2 39.4027 84.3482 36.0102 0.0000 0.0000 0.0000
# 3 36.0102 36.0102 86.0898 0.0000 0.0000 0.0000
# 4 0.0000 0.0000 0.0000 30.7461 0.0000 0.0000
# 5 0.0000 0.0000 0.0000 0.0000 30.7461 0.0000
# 6 0.0000 0.0000 0.0000 0.0000 0.0000 22.4728
#
#
#
# Elastic Compliance Matrix: (Units=1/GPa)
#
#
# Indices 1 2 3 4 5 6 
#
# 1 0.016465 -0.005784 -0.004468 0.000000 0.000000 0.000000
# 2 -0.005784 0.016465 -0.004468 0.000000 0.000000 0.000000
# 3 -0.004468 -0.004468 0.015353 0.000000 0.000000 0.000000
# 4 0.000000 0.000000 0.000000 0.032524 0.000000 0.000000
# 5 0.000000 0.000000 0.000000 0.000000 0.032524 0.000000
# 6 0.000000 0.000000 0.000000 0.000000 0.000000 0.044498
#
#
# Mechanical properties :
#
#
# Convention : Reuss Voigt Hill
#
# Bulk Modulus (GPa) = 53.06626 53.07025 53.06825
# Shear Modulus (GPa) = 25.83303 26.35056 26.09179
#
# Velocity S-wave (km/s) = 3.46784 3.50240 3.48516
# Velocity P-wave (km/s) = 6.38265 6.40791 6.39529
#
# Compressibility (1/GPa) = 0.01884437
#
# Stress axis : x y z
#
# Youngs Moduli (GPa) = 60.73495 60.73495 65.13263
#
# Poissons Ratio (x) = 0.35130 0.29099
# Poissons Ratio (y) = 0.35130 0.29099
# Poissons Ratio (z) = 0.27134 0.27134
#
# Static dielectric constant tensor:
#      x y z
#    x 1.820090 0.000000 0.000000 
#    y 0.000000 1.820090 0.000000 
#    z 0.000000 0.000000 1.774970 
# 
# From -- ./inp_files/4839.got.cif
#   From: 2010.05.17/outbox.cif.g08.bks.cpg/sg181_3_cif.got.tgz:4839.got - 2010.05.20 11:51:17.
