data_PCOD9584756
_publ_section_title
;
Structure prediction by ZEFSAII (Michael W. Deem and Ramdas Pophale) SiO2 
 PCOD9584756
Probable space group: P 63 2 2
;
_chemical_formula_sum "Si O2"
_cell_formula_units_Z 60
_cell_length_a 15.506040
_cell_length_b 15.506040
_cell_length_c 13.694852
_cell_angle_alpha 90.000000
_cell_angle_beta 90.000000
_cell_angle_gamma 120.000000
_cell_volume 2851.607674
_symmetry_space_group_name_H-M "P 63 2 2"
_symmetry_group_IT_number 182
_symmetry_cell_setting 'hexagonal'
loop_
_space_group_symop_operation_xyz
x,y,z
x-y,x,1/2+z
-y,x-y,z
-x,-y,1/2+z
-x+y,-x,z
y,-x+y,1/2+z
x-y,-y,-z
-x,-x+y,-z
y,x,-z
-y,-x,1/2-z
-x+y,y,1/2-z
x,x-y,1/2-z
loop_
_atom_site_type_symbol
_atom_site_label
_atom_site_fract_x
_atom_site_fract_y
_atom_site_fract_z
Si Si1 0.285180 0.043167 0.736604
Si Si2 0.077791 0.695017 0.583423
Si Si3 0.667163 0.909111 0.924787
Si Si4 0.468098 0.584145 0.531409
Si Si5 0.170261 0.658384 0.183498
O O1 0.253642 0.126821 0.750000
O O2 0.393004 0.104409 0.683084
O O3 0.302779 0.988204 0.827448
O O4 0.214236 0.952568 0.667695
O O5 0.149318 0.805857 0.544873
O O6 0.134305 0.630583 0.588349
O O7 0.000000 0.639897 0.500000
O O8 0.552236 0.878341 0.904965
O O9 0.715516 0.000000 0.000000
O O10 0.527607 0.527607 0.500000
O O11 0.451054 0.628405 0.428667
O O12 0.267417 0.732584 0.250000
O O13 0.119288 0.559644 0.250000
#
# Coordination Sequence:
#
# PCOD9584756 Si02
#       5
#    12  12  12  12  12
#     4  11  23  41  69  93 123 171 228 281 334 411
#     4  11  24  40  67  97 129 179 227 275 348 423
#     4  11  22  42  64  94 134 174 224 283 342 414
#     4  10  21  39  59  93 130 171 218 270 336 416
#     4  11  22  35  58  90 126 166 218 275 332 386
#
# _framework density 21.040761
#
# number of rings (size 3 to 8) (size 9 to 14) (size 15 to 20)
#    0.000    1.200    4.000    4.400    5.600    0.000 
#    1.200    0.000    0.000   12.000    0.000    0.000 
#    0.000    0.000    0.000    0.000    0.000    0.000 
#
# Total GULP energy -334070.231194 kJ/mol
# GULP energy per Si atom -5567.837187 kJ/mol
# Density = 2.099287 g / cm^3
# Si number density = 21.040761 Si / 1000 Ang^3
#
#
#
# Elastic Constant Matrix: (Units=GPa)
#
#
# Indices 1 2 3 4 5 6 
#
# 1 81.4438 31.3944 15.8992 0.0000 0.0000 0.0000
# 2 31.3944 81.4438 15.8992 0.0000 0.0000 0.0000
# 3 15.8992 15.8992 66.5778 0.0000 0.0000 0.0000
# 4 0.0000 0.0000 0.0000 23.8484 0.0000 0.0000
# 5 0.0000 0.0000 0.0000 0.0000 23.8484 0.0000
# 6 0.0000 0.0000 0.0000 0.0000 0.0000 25.0247
#
#
#
# Elastic Compliance Matrix: (Units=1/GPa)
#
#
# Indices 1 2 3 4 5 6 
#
# 1 0.014741 -0.005239 -0.002269 0.000000 0.000000 0.000000
# 2 -0.005239 0.014741 -0.002269 0.000000 0.000000 0.000000
# 3 -0.002269 -0.002269 0.016104 0.000000 0.000000 0.000000
# 4 0.000000 0.000000 0.000000 0.041932 0.000000 0.000000
# 5 0.000000 0.000000 0.000000 0.000000 0.041932 0.000000
# 6 0.000000 0.000000 0.000000 0.000000 0.000000 0.039960
#
#
# Mechanical properties :
#
#
# Convention : Reuss Voigt Hill
#
# Bulk Modulus (GPa) = 38.41593 39.53900 38.97747
# Shear Modulus (GPa) = 25.29839 25.62915 25.46377
#
# Velocity S-wave (km/s) = 3.47126 3.49387 3.48258
# Velocity P-wave (km/s) = 5.86205 5.92525 5.89374
#
# Compressibility (1/GPa) = 0.02603087
#
# Stress axis : x y z
#
# Youngs Moduli (GPa) = 67.83820 67.83820 62.09729
#
# Poissons Ratio (x) = 0.35542 0.14090
# Poissons Ratio (y) = 0.35542 0.14090
# Poissons Ratio (z) = 0.15393 0.15393
#
# Static dielectric constant tensor:
#      x y z
#    x 1.789790 0.000000 0.000000 
#    y 0.000000 1.789790 0.000000 
#    z 0.000000 0.000000 1.783380 
# 
# From -- ./inp_files/3462.got.cif
#   From: 2010.05.17/outbox.cif.g08.bks.cpg/sg182_2_cif.got.tgz:3462.got - 2010.05.20 11:58:53.
