data_PCOD9584935
_publ_section_title
;
Structure prediction by ZEFSAII (Michael W. Deem and Ramdas Pophale) SiO2 
 PCOD9584935
Probable space group: P 6 M M
;
_chemical_formula_sum "Si O2"
_cell_formula_units_Z 96
_cell_length_a 22.984554
_cell_length_b 22.984554
_cell_length_c 15.465211
_cell_angle_alpha 90.000000
_cell_angle_beta 90.000000
_cell_angle_gamma 120.000000
_cell_volume 7075.524569
_symmetry_space_group_name_H-M "P 6 M M"
_symmetry_group_IT_number 183
_symmetry_cell_setting 'hexagonal'
loop_
_space_group_symop_operation_xyz
x,y,z
x-y,x,z
-y,x-y,z
-x,-y,z
-x+y,-x,z
y,-x+y,z
-x+y,y,z
x,x-y,z
-y,-x,z
y,x,z
x-y,-y,z
-x,-x+y,z
loop_
_atom_site_type_symbol
_atom_site_label
_atom_site_fract_x
_atom_site_fract_y
_atom_site_fract_z
Si Si1 0.207671 0.285112 0.319920
Si Si2 0.666589 0.469744 0.906926
Si Si3 0.333104 0.528821 0.705129
Si Si4 0.715423 0.791584 0.114202
Si Si5 0.390996 0.921174 0.569166
Si Si6 0.920823 0.391076 0.214026
Si Si7 0.285126 0.433377 0.063922
Si Si8 0.411064 0.081188 0.390939
O O1 0.130095 0.260189 0.335571
O O2 0.232240 0.232240 0.339718
O O3 0.220913 0.301273 0.217166
O O4 0.254180 0.353070 0.372530
O O5 0.725666 0.451331 0.916011
O O6 0.594964 0.405037 0.926475
O O7 0.667396 0.488468 0.806497
O O8 0.684028 0.529316 0.973927
O O9 0.261845 0.523689 0.684588
O O10 0.394141 0.605860 0.695016
O O11 0.351950 0.483349 0.645567
O O12 0.737587 0.868794 0.097970
O O13 0.770221 0.770221 0.095257
O O14 0.646677 0.745582 0.063229
O O15 0.459643 0.919285 0.553062
O O16 0.346337 0.898456 0.482404
O O17 0.416055 0.000000 0.588058
O O18 0.916364 0.458182 0.210792
O O19 0.878102 0.340419 0.138670
O O20 0.897545 0.356518 0.307659
O O21 0.000000 0.414393 0.203464
O O22 0.221743 0.443486 0.084637
O O23 0.373001 0.000000 0.391142
#
# Coordination Sequence:
#
# PCOD9584935 Si02
#       8
#    12  12  12  12  12  12  12  12
#     4   9  16  26  41  60  82 107 136 169 201 236
#     4   9  17  29  44  60  79 105 139 175 211 249
#     4   9  17  30  47  64  80 102 136 177 215 252
#     4   9  16  27  42  59  81 108 136 166 201 240
#     4   9  17  29  43  60  84 110 135 167 210 256
#     4  10  18  27  40  58  80 104 132 166 199 232
#     4  10  18  27  40  58  81 107 133 165 203 244
#     4   9  16  26  40  58  80 107 137 164 195 238
#
# _framework density 13.567898
#
# number of rings (size 3 to 8) (size 9 to 14) (size 15 to 20)
#    0.000    2.750    1.250    1.375    0.000    3.000 
#    0.000    1.250    0.000    3.500    0.000    1.750 
#    0.000    0.000    0.000    0.000    0.000    0.000 
#
# Total GULP energy -534462.770690 kJ/mol
# GULP energy per Si atom -5567.320528 kJ/mol
# Density = 1.353702 g / cm^3
# Si number density = 13.567898 Si / 1000 Ang^3
#
#
#
# Elastic Constant Matrix: (Units=GPa)
#
#
# Indices 1 2 3 4 5 6 
#
# 1 77.7243 48.5954 50.5347 0.0000 0.0000 0.0000
# 2 48.5954 77.7243 50.5347 0.0000 0.0000 0.0000
# 3 50.5347 50.5347 77.7266 0.0000 0.0000 0.0000
# 4 0.0000 0.0000 0.0000 19.0666 0.0000 0.0000
# 5 0.0000 0.0000 0.0000 0.0000 19.0666 0.0000
# 6 0.0000 0.0000 0.0000 0.0000 0.0000 14.5645
#
#
#
# Elastic Compliance Matrix: (Units=1/GPa)
#
#
# Indices 1 2 3 4 5 6 
#
# 1 0.025415 -0.008915 -0.010727 0.000000 0.000000 0.000000
# 2 -0.008915 0.025415 -0.010727 0.000000 0.000000 0.000000
# 3 -0.010727 -0.010727 0.026814 0.000000 0.000000 0.000000
# 4 0.000000 0.000000 0.000000 0.052448 0.000000 0.000000
# 5 0.000000 0.000000 0.000000 0.000000 0.052448 0.000000
# 6 0.000000 0.000000 0.000000 0.000000 0.000000 0.068660
#
#
# Mechanical properties :
#
#
# Convention : Reuss Voigt Hill
#
# Bulk Modulus (GPa) = 59.15668 59.16720 59.16194
# Shear Modulus (GPa) = 15.74436 16.10689 15.92563
#
# Velocity S-wave (km/s) = 3.41018 3.44922 3.42975
# Velocity P-wave (km/s) = 7.69421 7.71788 7.70606
#
# Compressibility (1/GPa) = 0.01690426
#
# Stress axis : x y z
#
# Youngs Moduli (GPa) = 39.34724 39.34724 37.29331
#
# Poissons Ratio (x) = 0.35080 0.40005
# Poissons Ratio (y) = 0.35080 0.40005
# Poissons Ratio (z) = 0.42209 0.42209
#
# Static dielectric constant tensor:
#      x y z
#    x 1.443330 0.000000 0.000000 
#    y 0.000000 1.443330 0.000000 
#    z 0.000000 0.000000 1.436850 
# 
# From -- ./inp_files/1966.got.cif
#   From: 2010.05.17/outbox.cif.g08.bks.cpg/sg183_1_cif.got.tgz:1966.got - 2010.05.20 12:02:58.
