data_PCOD9584405
_publ_section_title
;
Structure prediction by ZEFSAII (Michael W. Deem and Ramdas Pophale) SiO2 
 PCOD9584405
Probable space group: P 64 2 2
;
_chemical_formula_sum "Si O2"
_cell_formula_units_Z 39
_cell_length_a 7.887333
_cell_length_b 7.887333
_cell_length_c 26.709543
_cell_angle_alpha 90.000000
_cell_angle_beta 90.000000
_cell_angle_gamma 120.000000
_cell_volume 1438.988897
_symmetry_space_group_name_H-M "P 64 2 2"
_symmetry_group_IT_number 181
_symmetry_cell_setting 'hexagonal'
loop_
_space_group_symop_operation_xyz
x,y,z
x-y,x,2/3+z
-y,x-y,1/3+z
-x,-y,z
-x+y,-x,2/3+z
y,-x+y,1/3+z
x-y,-y,-z
-x,-x+y,2/3-z
y,x,1/3-z
-y,-x,1/3-z
-x+y,y,-z
x,x-y,2/3-z
loop_
_atom_site_type_symbol
_atom_site_label
_atom_site_fract_x
_atom_site_fract_y
_atom_site_fract_z
Si Si1 0.230561 0.614921 0.054248
Si Si2 0.000000 0.000000 0.000000
Si Si3 0.779070 0.999633 0.404278
Si Si4 0.688633 0.653046 0.536613
O O1 0.257776 0.436385 0.078010
O O2 0.287463 0.806659 0.088089
O O3 0.000000 0.500000 0.048916
O O4 0.331535 0.663069 0.000000
O O5 0.945115 0.176157 0.986687
O O6 0.837123 0.175438 0.441009
O O7 0.000000 0.000000 0.403977
O O8 0.500000 0.500000 0.505896
O O9 0.871728 0.743455 0.500000
#
# Coordination Sequence:
#
# PCOD9584405 Si02
#       4
#    12   3  12  12
#     4  12  25  48  80 115 157 199 269 339 402 487
#     4   8  16  36  68 108 134 188 254 294 392 464
#     4  10  21  44  77 102 146 200 243 320 396 464
#     4  12  30  50  73 114 160 210 271 329 405 492
#
# _framework density 27.102360000000001
#
# number of rings (size 3 to 8) (size 9 to 14) (size 15 to 20)
#    0.923    0.000    4.615    0.923    4.308    1.231 
#    0.000    1.538    0.000    0.000    0.000    0.000 
#    0.000    0.000    0.000    0.000    0.000    0.000 
#
# Total GULP energy -217171.803986 kJ/mol
# GULP energy per Si atom -5568.507795 kJ/mol
# Density = 2.704067 g / cm^3
# Si number density = 27.102360 Si / 1000 Ang^3
#
#
#
# Elastic Constant Matrix: (Units=GPa)
#
#
# Indices 1 2 3 4 5 6 
#
# 1 135.1587 41.6020 44.2357 0.0000 0.0000 0.0000
# 2 41.6020 135.1587 44.2357 0.0000 0.0000 0.0000
# 3 44.2357 44.2357 93.8747 0.0000 0.0000 0.0000
# 4 0.0000 0.0000 0.0000 -18.6296 0.0000 0.0000
# 5 0.0000 0.0000 0.0000 0.0000 -18.6296 0.0000
# 6 0.0000 0.0000 0.0000 0.0000 0.0000 46.7784
#
#
#
# Elastic Compliance Matrix: (Units=1/GPa)
#
#
# Indices 1 2 3 4 5 6 
#
# 1 0.009046 -0.001643 -0.003489 0.000000 0.000000 0.000000
# 2 -0.001643 0.009046 -0.003489 0.000000 0.000000 0.000000
# 3 -0.003489 -0.003489 0.013940 0.000000 0.000000 0.000000
# 4 0.000000 0.000000 0.000000 -0.053678 0.000000 0.000000
# 5 0.000000 0.000000 0.000000 0.000000 -0.053678 0.000000
# 6 0.000000 0.000000 0.000000 0.000000 0.000000 0.021377
#
#
# Mechanical properties :
#
#
# Convention : Reuss Voigt Hill
#
# Bulk Modulus (GPa) = 67.60116 69.37100 68.48608
# Shear Modulus (GPa) = -157.35657 17.51174 -69.92242
#
# Velocity S-wave (km/s) = -7.62798 2.54467 -5.08482
# Velocity P-wave (km/s) = 7.25152 5.85537 3.02483
#
# Compressibility (1/GPa) = 0.01479265
#
# Stress axis : x y z
#
# Youngs Moduli (GPa) = 110.54484 110.54484 71.73409
#
# Poissons Ratio (x) = 0.18158 0.25026
# Poissons Ratio (y) = 0.18158 0.25026
# Poissons Ratio (z) = 0.38566 0.38566
#
# Static dielectric constant tensor:
#      x y z
#    x 2.487200 0.000000 0.000000 
#    y 0.000000 2.487200 0.000000 
#    z 0.000000 0.000000 2.233700 
# 
# From -- ./inp_files/11790.got.cif
#   From: 2010.05.17/outbox.cif.g08.bks.cpg/sg181_6_cif.got.tgz:11790.got - 2010.05.20 11:51:17.
