data_PCOD9584152
_publ_section_title
;
Structure prediction by ZEFSAII (Michael W. Deem and Ramdas Pophale) SiO2 
 PCOD9584152
Probable space group: P 62 2 2
;
_chemical_formula_sum "Si O2"
_cell_formula_units_Z 84
_cell_length_a 18.624211
_cell_length_b 18.624211
_cell_length_c 13.759072
_cell_angle_alpha 90.000000
_cell_angle_beta 90.000000
_cell_angle_gamma 120.000000
_cell_volume 4133.096463
_symmetry_space_group_name_H-M "P 62 2 2"
_symmetry_group_IT_number 180
_symmetry_cell_setting 'hexagonal'
loop_
_space_group_symop_operation_xyz
x,y,z
x-y,x,1/3+z
-y,x-y,2/3+z
-x,-y,z
-x+y,-x,1/3+z
y,-x+y,2/3+z
x-y,-y,-z
-x,-x+y,1/3-z
y,x,2/3-z
-y,-x,2/3-z
-x+y,y,-z
x,x-y,1/3-z
loop_
_atom_site_type_symbol
_atom_site_label
_atom_site_fract_x
_atom_site_fract_y
_atom_site_fract_z
Si Si1 0.367663 0.034872 0.342737
Si Si2 0.213704 0.258544 0.504110
Si Si3 0.109818 0.907514 0.449792
Si Si4 0.705516 0.265432 0.442236
Si Si5 0.480881 0.862872 0.909613
Si Si6 0.000000 0.342747 0.666667
Si Si7 0.000000 0.500000 0.429864
Si Si8 0.876472 0.258997 0.192826
O O1 0.304297 0.036124 0.265502
O O2 0.437673 0.018738 0.297767
O O3 0.401097 0.113643 0.413857
O O4 0.313694 0.958771 0.412926
O O5 0.134241 0.268481 0.500000
O O6 0.184062 0.160904 0.503762
O O7 0.274587 0.307588 0.416717
O O8 0.093278 0.906723 0.333334
O O9 0.168671 0.867048 0.466593
O O10 0.154214 0.000000 0.500000
O O11 0.703063 0.296938 0.333334
O O12 0.622381 0.244762 0.500000
O O13 0.782750 0.322997 0.512626
O O14 0.720792 0.188969 0.426888
O O15 0.470717 0.922227 0.833661
O O16 0.419297 0.838594 0.000000
O O17 0.572535 0.924152 0.955008
#
# Coordination Sequence:
#
# PCOD9584152 Si02
#       8
#    12  12  12  12  12   6   6  12
#     4  11  24  45  70 107 139 188 233 311 358 429
#     4  12  28  45  71 108 146 186 252 305 364 439
#     4  12  24  48  76 105 147 195 242 302 380 447
#     4  12  29  47  70 107 147 196 237 295 371 440
#     4  12  23  48  73 102 144 198 244 300 372 440
#     4  12  25  46  74 105 138 192 254 308 358 435
#     4  12  23  43  72 104 148 180 245 299 370 424
#     4  11  24  44  75 101 141 184 242 287 370 432
#
# _framework density 20.323744999999999
#
# number of rings (size 3 to 8) (size 9 to 14) (size 15 to 20)
#    0.000    0.286    5.714    2.571   10.000    0.857 
#    0.000    1.429    0.000    0.000    0.000    0.000 
#    0.000    0.000    0.000    0.000    0.000    0.000 
#
# Total GULP energy -469159.828340 kJ/mol
# GULP energy per Si atom -5585.236052 kJ/mol
# Density = 2.027749 g / cm^3
# Si number density = 20.323745 Si / 1000 Ang^3
#
#
#
# Elastic Constant Matrix: (Units=GPa)
#
#
# Indices 1 2 3 4 5 6 
#
# 1 68.7105 72.5209 44.9079 0.0000 0.0000 0.0000
# 2 72.5209 68.7105 44.9079 0.0000 0.0000 0.0000
# 3 44.9079 44.9079 130.4251 0.0000 0.0000 0.0000
# 4 0.0000 0.0000 0.0000 22.9642 0.0000 0.0000
# 5 0.0000 0.0000 0.0000 0.0000 22.9642 0.0000
# 6 0.0000 0.0000 0.0000 0.0000 0.0000 -1.9052
#
#
#
# Elastic Compliance Matrix: (Units=1/GPa)
#
#
# Indices 1 2 3 4 5 6 
#
# 1 -0.126688 0.135754 -0.003121 0.000000 0.000000 0.000000
# 2 0.135754 -0.126688 -0.003121 0.000000 0.000000 0.000000
# 3 -0.003121 -0.003121 0.009817 0.000000 0.000000 0.000000
# 4 0.000000 0.000000 0.000000 0.043546 0.000000 0.000000
# 5 0.000000 0.000000 0.000000 0.000000 0.043546 0.000000
# 6 0.000000 0.000000 0.000000 0.000000 0.000000 -0.524885
#
#
# Mechanical properties :
#
#
# Convention : Reuss Voigt Hill
#
# Bulk Modulus (GPa) = 64.67377 65.83550 65.25464
# Shear Modulus (GPa) = -5.34633 15.83862 5.24614
#
# Velocity S-wave (km/s) = -1.62367 2.79465 1.60838
# Velocity P-wave (km/s) = 5.32689 6.54806 5.96879
#
# Compressibility (1/GPa) = 0.01546222
#
# Stress axis : x y z
#
# Youngs Moduli (GPa) = -7.89338 -7.89338 101.86597
#
# Poissons Ratio (x) = 1.07156 0.31797
# Poissons Ratio (y) = 1.07156 0.31797
# Poissons Ratio (z) = -0.02464 -0.02464
#
# Static dielectric constant tensor:
#      x y z
#    x 1.774780 0.000000 0.000000 
#    y 0.000000 1.774780 0.000000 
#    z 0.000000 0.000000 1.853400 
# 
# From -- ./inp_files/6504.got.cif
#   From: 2010.05.17/outbox.cif.g08.bks.cpg/sg180_4_cif.got.tgz:6504.got - 2010.05.20 11:43:55.
