data_PCOD9584221
_publ_section_title
;
Structure prediction by ZEFSAII (Michael W. Deem and Ramdas Pophale) SiO2 
 PCOD9584221
Probable space group: P 64 2 2
;
_chemical_formula_sum "Si O2"
_cell_formula_units_Z 66
_cell_length_a 14.740203
_cell_length_b 14.740203
_cell_length_c 22.184443
_cell_angle_alpha 90.000000
_cell_angle_beta 90.000000
_cell_angle_gamma 120.000000
_cell_volume 4174.323377
_symmetry_space_group_name_H-M "P 64 2 2"
_symmetry_group_IT_number 181
_symmetry_cell_setting 'hexagonal'
loop_
_space_group_symop_operation_xyz
x,y,z
x-y,x,2/3+z
-y,x-y,1/3+z
-x,-y,z
-x+y,-x,2/3+z
y,-x+y,1/3+z
x-y,-y,-z
-x,-x+y,2/3-z
y,x,1/3-z
-y,-x,1/3-z
-x+y,y,-z
x,x-y,2/3-z
loop_
_atom_site_type_symbol
_atom_site_label
_atom_site_fract_x
_atom_site_fract_y
_atom_site_fract_z
Si Si1 0.544746 0.647545 0.199243
Si Si2 0.087058 0.368322 0.485381
Si Si3 0.846236 0.384858 0.076151
Si Si4 0.809913 0.435154 0.400874
Si Si5 0.000000 0.500000 0.974680
Si Si6 0.142092 0.692743 0.502165
O O1 0.633523 0.633523 0.166667
O O2 0.435865 0.564136 0.166667
O O3 0.536097 0.601313 0.265797
O O4 0.563416 0.761156 0.188186
O O5 0.157318 0.314635 0.500000
O O6 0.120418 0.448544 0.541273
O O7 0.124296 0.446084 0.427162
O O8 0.961920 0.303502 0.485645
O O9 0.721476 0.310304 0.067740
O O10 0.876423 0.494900 0.106957
O O11 0.913287 0.408274 0.015986
O O12 0.838410 0.419205 0.333334
O O13 0.827569 0.360903 0.447437
#
# Coordination Sequence:
#
# PCOD9584221 Si02
#       6
#    12  12  12  12   6  12
#     4   9  21  34  48  72 105 136 168 209 269 312
#     4   9  19  36  49  68 101 135 169 215 261 300
#     4  10  18  31  48  75 101 136 167 209 252 310
#     4  10  21  29  52  76 105 136 176 205 254 314
#     4  10  19  32  50  70 109 136 176 206 252 332
#     4  11  19  34  51  71 105 137 176 215 263 305
#
# _framework density 15.810945
#
# number of rings (size 3 to 8) (size 9 to 14) (size 15 to 20)
#    0.000    2.364    1.818    4.364    7.636    1.455 
#    0.000    0.000    0.000    0.545    0.000    0.000 
#    0.000    0.000    8.364    0.000    0.000    0.000 
#
# Total GULP energy -367513.425122 kJ/mol
# GULP energy per Si atom -5568.385229 kJ/mol
# Density = 1.577496 g / cm^3
# Si number density = 15.810945 Si / 1000 Ang^3
#
#
#
# Elastic Constant Matrix: (Units=GPa)
#
#
# Indices 1 2 3 4 5 6 
#
# 1 81.7255 39.5014 22.9664 0.0000 0.0000 0.0000
# 2 39.5014 81.7255 22.9664 0.0000 0.0000 0.0000
# 3 22.9664 22.9664 99.1201 0.0000 0.0000 0.0000
# 4 0.0000 0.0000 0.0000 3.4378 0.0000 0.0000
# 5 0.0000 0.0000 0.0000 0.0000 3.4378 0.0000
# 6 0.0000 0.0000 0.0000 0.0000 0.0000 21.1121
#
#
#
# Elastic Compliance Matrix: (Units=1/GPa)
#
#
# Indices 1 2 3 4 5 6 
#
# 1 0.016363 -0.007320 -0.002095 0.000000 0.000000 0.000000
# 2 -0.007320 0.016363 -0.002095 0.000000 0.000000 0.000000
# 3 -0.002095 -0.002095 0.011060 0.000000 0.000000 0.000000
# 4 0.000000 0.000000 0.000000 0.290883 0.000000 0.000000
# 5 0.000000 0.000000 0.000000 0.000000 0.290883 0.000000
# 6 0.000000 0.000000 0.000000 0.000000 0.000000 0.047366
#
#
# Mechanical properties :
#
#
# Convention : Reuss Voigt Hill
#
# Bulk Modulus (GPa) = 48.15922 48.15994 48.15958
# Shear Modulus (GPa) = 7.11378 17.40666 12.26022
#
# Velocity S-wave (km/s) = 2.12345 3.32162 2.78767
# Velocity P-wave (km/s) = 6.04463 6.72584 6.39431
#
# Compressibility (1/GPa) = 0.02076446
#
# Stress axis : x y z
#
# Youngs Moduli (GPa) = 61.11343 61.11343 90.41816
#
# Poissons Ratio (x) = 0.44736 0.18945
# Poissons Ratio (y) = 0.44736 0.18945
# Poissons Ratio (z) = 0.12805 0.12805
#
# Static dielectric constant tensor:
#      x y z
#    x 1.699810 0.000000 0.000000 
#    y 0.000000 1.699810 0.000000 
#    z 0.000000 0.000000 1.549520 
# 
# From -- ./inp_files/10126.got.cif
#   From: 2010.05.17/outbox.cif.g08.bks.cpg/sg181_6_cif.got.tgz:10126.got - 2010.05.20 11:51:17.
