data_PCOD9584805
_publ_section_title
;
Structure prediction by ZEFSAII (Michael W. Deem and Ramdas Pophale) SiO2 
 PCOD9584805
Probable space group: P 63 2 2
;
_chemical_formula_sum "Si O2"
_cell_formula_units_Z 46
_cell_length_a 15.336928
_cell_length_b 15.336928
_cell_length_c 8.694781
_cell_angle_alpha 90.000000
_cell_angle_beta 90.000000
_cell_angle_gamma 120.000000
_cell_volume 1771.193611
_symmetry_space_group_name_H-M "P 63 2 2"
_symmetry_group_IT_number 182
_symmetry_cell_setting 'hexagonal'
loop_
_space_group_symop_operation_xyz
x,y,z
x-y,x,1/2+z
-y,x-y,z
-x,-y,1/2+z
-x+y,-x,z
y,-x+y,1/2+z
x-y,-y,-z
-x,-x+y,-z
y,x,-z
-y,-x,1/2-z
-x+y,y,1/2-z
x,x-y,1/2-z
loop_
_atom_site_type_symbol
_atom_site_label
_atom_site_fract_x
_atom_site_fract_y
_atom_site_fract_z
Si Si1 0.895669 0.306398 0.294882
Si Si2 0.177725 0.175156 0.821182
Si Si3 0.371030 0.371030 0.500000
Si Si4 0.776935 0.231739 0.932114
Si Si5 0.333335 0.666668 0.563859
O O1 0.779576 0.220425 0.250000
O O2 0.957748 0.248991 0.288259
O O3 0.957637 0.392536 0.163716
O O4 0.869882 0.306395 0.477464
O O5 0.070377 0.140754 0.750000
O O6 0.221648 0.110824 0.750000
O O7 0.162495 0.162495 0.000000
O O8 0.268547 0.374048 0.466257
O O9 0.768884 0.231117 0.750000
O O10 0.754567 0.317656 0.995359
O O11 0.333334 0.666667 0.750000
#
# Coordination Sequence:
#
# PCOD9584805 Si02
#       5
#    12  12   6  12   4
#     4   9  22  39  62  95 132 185 236 295 365 436
#     4  11  24  36  56  82 128 185 246 299 363 430
#     4  10  22  42  68 102 150 188 250 312 374 460
#     4  11  25  46  76 111 151 195 255 319 394 475
#     4  12  25  53  85 108 145 200 244 309 403 503
#
# _framework density 25.971184999999998
#
# number of rings (size 3 to 8) (size 9 to 14) (size 15 to 20)
#    0.000    1.565    0.000    4.174   14.609    0.000 
#    0.000    7.826    0.000    0.000    0.000    0.000 
#    0.000    0.000    0.000    0.000    0.000    0.000 
#
# Total GULP energy -256282.939176 kJ/mol
# GULP energy per Si atom -5571.368243 kJ/mol
# Density = 2.591207 g / cm^3
# Si number density = 25.971185 Si / 1000 Ang^3
#
#
#
# Elastic Constant Matrix: (Units=GPa)
#
#
# Indices 1 2 3 4 5 6 
#
# 1 96.5462 34.3139 57.0302 0.0000 0.0003 0.0007
# 2 34.3139 96.5475 57.0296 -0.0004 0.0000 0.0004
# 3 57.0302 57.0296 254.0107 0.0002 -0.0002 0.0000
# 4 0.0000 -0.0004 0.0002 43.4016 0.0001 0.0001
# 5 0.0003 0.0000 -0.0002 0.0001 43.4006 -0.0002
# 6 0.0007 0.0004 0.0000 0.0001 -0.0002 31.1176
#
#
#
# Elastic Compliance Matrix: (Units=1/GPa)
#
#
# Indices 1 2 3 4 5 6 
#
# 1 0.012785 -0.003284 -0.002133 0.000000 0.000000 0.000000
# 2 -0.003284 0.012785 -0.002133 0.000000 0.000000 0.000000
# 3 -0.002133 -0.002133 0.004895 0.000000 0.000000 0.000000
# 4 0.000000 0.000000 0.000000 0.023041 0.000000 0.000000
# 5 0.000000 0.000000 0.000000 0.000000 0.023041 0.000000
# 6 0.000000 0.000000 0.000000 0.000000 0.000000 0.032136
#
#
# Mechanical properties :
#
#
# Convention : Reuss Voigt Hill
#
# Bulk Modulus (GPa) = 65.08678 82.65021 73.86849
# Shear Modulus (GPa) = 38.78860 43.49934 41.14397
#
# Velocity S-wave (km/s) = 3.86881 4.09700 3.98454
# Velocity P-wave (km/s) = 6.71360 7.36705 7.04791
#
# Compressibility (1/GPa) = 0.01536410
#
# Stress axis : x y z
#
# Youngs Moduli (GPa) = 78.21712 78.21853 204.30278
#
# Poissons Ratio (x) = 0.25686 0.43581
# Poissons Ratio (y) = 0.25685 0.43580
# Poissons Ratio (z) = 0.16685 0.16685
#
# Static dielectric constant tensor:
#      x y z
#    x 2.016400 0.000000 0.000000 
#    y 0.000000 2.016390 0.000000 
#    z 0.000000 0.000000 2.290640 
# 
# From -- ./inp_files/1521.got.cif
#   From: 2010.05.17/outbox.cif.g08.bks.cpg/sg182_1_cif.got.tgz:1521.got - 2010.05.20 11:58:53.
