data_PCOD9584170
_publ_section_title
;
Structure prediction by ZEFSAII (Michael W. Deem and Ramdas Pophale) SiO2 
 PCOD9584170
Probable space group: P 62 2 2
;
_chemical_formula_sum "Si O2"
_cell_formula_units_Z 57
_cell_length_a 15.141210
_cell_length_b 15.141210
_cell_length_c 14.429073
_cell_angle_alpha 90.000000
_cell_angle_beta 90.000000
_cell_angle_gamma 120.000000
_cell_volume 2864.773088
_symmetry_space_group_name_H-M "P 62 2 2"
_symmetry_group_IT_number 180
_symmetry_cell_setting 'hexagonal'
loop_
_space_group_symop_operation_xyz
x,y,z
x-y,x,1/3+z
-y,x-y,2/3+z
-x,-y,z
-x+y,-x,1/3+z
y,-x+y,2/3+z
x-y,-y,-z
-x,-x+y,1/3-z
y,x,2/3-z
-y,-x,2/3-z
-x+y,y,-z
x,x-y,1/3-z
loop_
_atom_site_type_symbol
_atom_site_label
_atom_site_fract_x
_atom_site_fract_y
_atom_site_fract_z
Si Si1 0.342528 0.657473 0.833334
Si Si2 0.666884 0.171754 0.951980
Si Si3 0.410847 0.117252 0.390745
Si Si4 0.500000 0.000000 0.500000
Si Si5 0.012874 0.400925 0.458980
Si Si6 0.781163 0.206210 0.224442
O O1 0.341493 0.736182 0.905999
O O2 0.292226 0.544532 0.876419
O O3 0.667025 0.096372 0.873222
O O4 0.556348 0.112695 0.000000
O O5 0.768198 0.227621 0.014898
O O6 0.366930 0.049287 0.299542
O O7 0.361166 0.125525 0.487194
O O8 0.479461 0.072147 0.432298
O O9 0.000000 0.500000 0.442375
O O10 0.900252 0.310457 0.477673
O O11 0.799009 0.200992 0.333334
#
# Coordination Sequence:
#
# PCOD9584170 Si02
#       6
#     6  12  12   3  12  12
#     4  12  21  36  54  81 120 160 222 273 304 363
#     4  12  23  38  60  86 122 169 223 272 314 373
#     4  12  24  40  59  85 117 167 216 264 324 374
#     4  12  26  40  64  84 126 168 222 264 324 382
#     4  12  23  42  58  86 123 167 219 275 324 371
#     4  12  27  40  60  87 124 168 229 273 312 381
#
# _framework density 19.896864000000001
#
# number of rings (size 3 to 8) (size 9 to 14) (size 15 to 20)
#    0.000    0.000    7.368    2.526    5.895    2.947 
#    0.000    0.000    0.000    0.000    0.000    0.000 
#    0.000    0.000    0.000  159.158    0.000    0.000 
#
# Total GULP energy -317719.383311 kJ/mol
# GULP energy per Si atom -5574.024269 kJ/mol
# Density = 1.985158 g / cm^3
# Si number density = 19.896864 Si / 1000 Ang^3
#
#
#
# Elastic Constant Matrix: (Units=GPa)
#
#
# Indices 1 2 3 4 5 6 
#
# 1 80.2223 32.5316 32.1518 0.0000 0.0000 0.0000
# 2 32.5316 80.2223 32.1518 0.0000 0.0000 0.0000
# 3 32.1518 32.1518 129.8837 0.0000 0.0000 0.0000
# 4 0.0000 0.0000 0.0000 19.5990 0.0000 0.0000
# 5 0.0000 0.0000 0.0000 0.0000 19.5990 0.0000
# 6 0.0000 0.0000 0.0000 0.0000 0.0000 23.8454
#
#
#
# Elastic Compliance Matrix: (Units=1/GPa)
#
#
# Indices 1 2 3 4 5 6 
#
# 1 0.015648 -0.005321 -0.002556 0.000000 0.000000 0.000000
# 2 -0.005321 0.015648 -0.002556 0.000000 0.000000 0.000000
# 3 -0.002556 -0.002556 0.008965 0.000000 0.000000 0.000000
# 4 0.000000 0.000000 0.000000 0.051023 0.000000 0.000000
# 5 0.000000 0.000000 0.000000 0.000000 0.051023 0.000000
# 6 0.000000 0.000000 0.000000 0.000000 0.000000 0.041937
#
#
# Mechanical properties :
#
#
# Convention : Reuss Voigt Hill
#
# Bulk Modulus (GPa) = 51.56494 53.77763 52.67128
# Shear Modulus (GPa) = 23.63239 25.50823 24.57031
#
# Velocity S-wave (km/s) = 3.45011 3.58442 3.51790
# Velocity P-wave (km/s) = 6.46864 6.64963 6.55976
#
# Compressibility (1/GPa) = 0.01939302
#
# Stress axis : x y z
#
# Youngs Moduli (GPa) = 63.90765 63.90765 111.54755
#
# Poissons Ratio (x) = 0.34004 0.28515
# Poissons Ratio (y) = 0.34004 0.28515
# Poissons Ratio (z) = 0.16337 0.16337
#
# Static dielectric constant tensor:
#      x y z
#    x 1.735280 0.000000 0.000000 
#    y 0.000000 1.735280 0.000000 
#    z 0.000000 0.000000 1.950470 
# 
# From -- ./inp_files/6164.got.cif
#   From: 2010.05.17/outbox.cif.g08.bks.cpg/sg180_4_cif.got.tgz:6164.got - 2010.05.20 11:43:55.
