data_PCOD9584459
_publ_section_title
;
Structure prediction by ZEFSAII (Michael W. Deem and Ramdas Pophale) SiO2 
 PCOD9584459
Probable space group: P 64 2 2
;
_chemical_formula_sum "Si O2"
_cell_formula_units_Z 72
_cell_length_a 14.309451
_cell_length_b 14.309451
_cell_length_c 19.040843
_cell_angle_alpha 90.000000
_cell_angle_beta 90.000000
_cell_angle_gamma 120.000000
_cell_volume 3376.468850
_symmetry_space_group_name_H-M "P 64 2 2"
_symmetry_group_IT_number 181
_symmetry_cell_setting 'hexagonal'
loop_
_space_group_symop_operation_xyz
x,y,z
x-y,x,2/3+z
-y,x-y,1/3+z
-x,-y,z
-x+y,-x,2/3+z
y,-x+y,1/3+z
x-y,-y,-z
-x,-x+y,2/3-z
y,x,1/3-z
-y,-x,1/3-z
-x+y,y,-z
x,x-y,2/3-z
loop_
_atom_site_type_symbol
_atom_site_label
_atom_site_fract_x
_atom_site_fract_y
_atom_site_fract_z
Si Si1 0.500000 0.000000 0.620881
Si Si2 0.137707 0.725878 0.236619
Si Si3 0.728525 0.072487 0.688694
Si Si4 0.231515 0.113973 0.647975
Si Si5 0.535443 0.321436 0.111143
Si Si6 0.342551 0.089947 0.148340
Si Si7 0.383850 0.616151 0.666667
O O1 0.606670 0.038148 0.668177
O O2 0.500373 0.091363 0.571622
O O3 0.209039 0.790962 0.166667
O O4 0.138304 0.809013 0.296757
O O5 0.170520 0.645679 0.274315
O O6 0.012997 0.654089 0.214791
O O7 0.804706 0.195295 0.666667
O O8 0.747685 0.064837 0.770631
O O9 0.769898 0.998309 0.651419
O O10 0.130264 0.130264 0.666667
O O11 0.258969 0.158173 0.568832
O O12 0.630240 0.369761 0.166667
O O13 0.446849 0.206087 0.139309
O O14 0.575683 0.303960 0.037631
#
# Coordination Sequence:
#
# PCOD9584459 Si02
#       7
#     6  12  12  12  12  12   6
#     4  12  27  50  68  98 153 192 244 312 354 441
#     4  11  22  44  74 103 148 190 232 307 377 431
#     4  12  26  45  75 108 141 197 253 296 378 453
#     4  10  22  47  71 107 148 182 240 311 375 439
#     4  12  27  45  66  96 141 191 237 301 361 428
#     4  11  24  45  74 101 139 197 241 299 374 439
#     4  12  26  43  68 112 142 182 249 304 356 450
#
# _framework density 21.324054
#
# number of rings (size 3 to 8) (size 9 to 14) (size 15 to 20)
#    0.000    0.667    5.000    1.750    3.500    3.667 
#    0.000    0.000    0.000    2.000    0.000    0.000 
#    0.000    0.000    0.000    0.000    0.000    0.000 
#
# Total GULP energy -401957.971779 kJ/mol
# GULP energy per Si atom -5582.749608 kJ/mol
# Density = 2.127552 g / cm^3
# Si number density = 21.324054 Si / 1000 Ang^3
#
#
#
# Elastic Constant Matrix: (Units=GPa)
#
#
# Indices 1 2 3 4 5 6 
#
# 1 123.2483 45.9690 31.3589 0.0000 0.0000 0.0000
# 2 45.9690 123.2483 31.3589 0.0000 0.0000 0.0000
# 3 31.3589 31.3589 110.7499 0.0000 0.0000 0.0000
# 4 0.0000 0.0000 0.0000 19.0483 0.0000 0.0000
# 5 0.0000 0.0000 0.0000 0.0000 19.0483 0.0000
# 6 0.0000 0.0000 0.0000 0.0000 0.0000 38.6397
#
#
#
# Elastic Compliance Matrix: (Units=1/GPa)
#
#
# Indices 1 2 3 4 5 6 
#
# 1 0.009771 -0.003169 -0.001869 0.000000 0.000000 0.000000
# 2 -0.003169 0.009771 -0.001869 0.000000 0.000000 0.000000
# 3 -0.001869 -0.001869 0.010088 0.000000 0.000000 0.000000
# 4 0.000000 0.000000 0.000000 0.052498 0.000000 0.000000
# 5 0.000000 0.000000 0.000000 0.000000 0.052498 0.000000
# 6 0.000000 0.000000 0.000000 0.000000 0.000000 0.025880
#
#
# Mechanical properties :
#
#
# Convention : Reuss Voigt Hill
#
# Bulk Modulus (GPa) = 63.23109 63.84668 63.53888
# Shear Modulus (GPa) = 27.84056 31.91791 29.87924
#
# Velocity S-wave (km/s) = 3.61722 3.87305 3.74732
# Velocity P-wave (km/s) = 6.86750 7.07155 6.97027
#
# Compressibility (1/GPa) = 0.01581501
#
# Stress axis : x y z
#
# Youngs Moduli (GPa) = 102.34087 102.34087 99.12718
#
# Poissons Ratio (x) = 0.32430 0.18532
# Poissons Ratio (y) = 0.32430 0.18532
# Poissons Ratio (z) = 0.19133 0.19133
#
# Static dielectric constant tensor:
#      x y z
#    x 1.783420 0.000000 0.000000 
#    y 0.000000 1.783420 0.000000 
#    z 0.000000 0.000000 1.783970 
# 
# From -- ./inp_files/7799.got.cif
#   From: 2010.05.17/outbox.cif.g08.bks.cpg/sg181_4_cif.got.tgz:7799.got - 2010.05.20 11:51:17.
