data_PCOD9584882
_publ_section_title
;
Structure prediction by ZEFSAII (Michael W. Deem and Ramdas Pophale) SiO2 
 PCOD9584882
Probable space group: P 63 2 2
;
_chemical_formula_sum "Si O2"
_cell_formula_units_Z 28
_cell_length_a 12.865450
_cell_length_b 12.865450
_cell_length_c 9.110782
_cell_angle_alpha 90.000000
_cell_angle_beta 90.000000
_cell_angle_gamma 120.000000
_cell_volume 1305.979168
_symmetry_space_group_name_H-M "P 63 2 2"
_symmetry_group_IT_number 182
_symmetry_cell_setting 'hexagonal'
loop_
_space_group_symop_operation_xyz
x,y,z
x-y,x,1/2+z
-y,x-y,z
-x,-y,1/2+z
-x+y,-x,z
y,-x+y,1/2+z
x-y,-y,-z
-x,-x+y,-z
y,x,-z
-y,-x,1/2-z
-x+y,y,1/2-z
x,x-y,1/2-z
loop_
_atom_site_type_symbol
_atom_site_label
_atom_site_fract_x
_atom_site_fract_y
_atom_site_fract_z
Si Si1 0.126780 0.875306 0.082928
Si Si2 0.666667 0.333334 0.078046
Si Si3 0.376052 0.493680 0.096585
O O1 0.102984 0.897017 0.250000
O O2 0.156770 0.766136 0.098766
O O3 0.000000 0.820320 0.000000
O O4 0.222008 0.000000 0.000000
O O5 0.666668 0.333334 0.250000
O O6 0.795490 0.398225 0.006881
O O7 0.445277 0.554724 0.250000
O O8 0.431544 0.431544 0.000000
#
# Coordination Sequence:
#
# PCOD9584882 Si02
#       3
#    12   4  12
#     4  11  24  42  68 100 140 186 236 297 370 448
#     4  12  25  41  64  93 130 173 223 288 352 428
#     4  11  25  45  70  99 135 183 238 303 373 450
#
# _framework density 21.439852999999999
#
# number of rings (size 3 to 8) (size 9 to 14) (size 15 to 20)
#    0.000    0.857    0.000    6.857    0.000   13.714 
#    0.000    0.000    0.000    0.000    0.000    0.000 
#    0.000    0.000    0.000    0.000    0.000    0.000 
#
# Total GULP energy -155978.083488 kJ/mol
# GULP energy per Si atom -5570.645839 kJ/mol
# Density = 2.139106 g / cm^3
# Si number density = 21.439853 Si / 1000 Ang^3
#
#
#
# Elastic Constant Matrix: (Units=GPa)
#
#
# Indices 1 2 3 4 5 6 
#
# 1 129.1882 49.5691 76.5877 -0.0001 -0.0001 -0.0002
# 2 49.5691 129.1876 76.5872 -0.0002 0.0001 0.0000
# 3 76.5877 76.5872 250.1542 0.0000 -0.0002 -0.0003
# 4 -0.0001 -0.0002 0.0000 42.2008 0.0001 -0.0001
# 5 -0.0001 0.0001 -0.0002 0.0001 42.2012 0.0000
# 6 -0.0002 0.0000 -0.0003 -0.0001 0.0000 39.8096
#
#
#
# Elastic Compliance Matrix: (Units=1/GPa)
#
#
# Indices 1 2 3 4 5 6 
#
# 1 0.010072 -0.002488 -0.002322 0.000000 0.000000 0.000000
# 2 -0.002488 0.010072 -0.002322 0.000000 0.000000 0.000000
# 3 -0.002322 -0.002322 0.005419 0.000000 0.000000 0.000000
# 4 0.000000 0.000000 0.000000 0.023696 0.000000 0.000000
# 5 0.000000 0.000000 0.000000 0.000000 0.023696 0.000000
# 6 0.000000 0.000000 0.000000 0.000000 0.000000 0.025120
#
#
# Mechanical properties :
#
#
# Convention : Reuss Voigt Hill
#
# Bulk Modulus (GPa) = 88.50058 101.55757 95.02907
# Shear Modulus (GPa) = 43.06462 45.22806 44.14634
#
# Velocity S-wave (km/s) = 4.48663 4.59795 4.54263
# Velocity P-wave (km/s) = 8.25881 8.69825 8.48138
#
# Compressibility (1/GPa) = 0.01129936
#
# Stress axis : x y z
#
# Youngs Moduli (GPa) = 99.28726 99.28696 184.52724
#
# Poissons Ratio (x) = 0.24703 0.42845
# Poissons Ratio (y) = 0.24703 0.42844
# Poissons Ratio (z) = 0.23053 0.23053
#
# Static dielectric constant tensor:
#      x y z
#    x 1.771570 0.000000 0.000000 
#    y 0.000000 1.771570 0.000000 
#    z 0.000000 0.000000 1.740740 
# 
# From -- ./inp_files/1112.got.cif
#   From: 2010.05.17/outbox.cif.g08.bks.cpg/sg182_1_cif.got.tgz:1112.got - 2010.05.20 11:58:53.
