data_PCOD9584044
_publ_section_title
;
Structure prediction by ZEFSAII (Michael W. Deem and Ramdas Pophale) SiO2 
 PCOD9584044
Probable space group: P 62 2 2
;
_chemical_formula_sum "Si O2"
_cell_formula_units_Z 21
_cell_length_a 8.735076
_cell_length_b 8.735076
_cell_length_c 11.822991
_cell_angle_alpha 90.000000
_cell_angle_beta 90.000000
_cell_angle_gamma 120.000000
_cell_volume 781.252404
_symmetry_space_group_name_H-M "P 62 2 2"
_symmetry_group_IT_number 180
_symmetry_cell_setting 'hexagonal'
loop_
_space_group_symop_operation_xyz
x,y,z
x-y,x,1/3+z
-y,x-y,2/3+z
-x,-y,z
-x+y,-x,1/3+z
y,-x+y,2/3+z
x-y,-y,-z
-x,-x+y,1/3-z
y,x,2/3-z
-y,-x,2/3-z
-x+y,y,-z
x,x-y,1/3-z
loop_
_atom_site_type_symbol
_atom_site_label
_atom_site_fract_x
_atom_site_fract_y
_atom_site_fract_z
Si Si1 0.000000 0.500000 0.876173
Si Si2 0.626347 0.776016 0.921033
Si Si3 0.000000 0.000000 0.833334
O O1 0.854281 0.509296 0.797063
O O2 0.903800 0.330044 0.961049
O O3 0.645969 0.645969 0.833334
O O4 0.823080 0.941301 0.902493
#
# Coordination Sequence:
#
# PCOD9584044 Si02
#       3
#     6  12   3
#     4  12  25  54  88 129 174 236 299 378 453 558
#     4  10  25  51  83 122 174 231 299 370 456 542
#     4   8  24  52  80 106 174 228 292 362 464 516
#
# _framework density 26.879918
#
# number of rings (size 3 to 8) (size 9 to 14) (size 15 to 20)
#    1.714    0.000    0.000    2.571    0.000    4.571 
#   20.571    5.714    0.000    0.000    0.000    0.000 
#    0.000    0.000    0.000    0.000    0.000    0.000 
#
# Total GULP energy -117186.805219 kJ/mol
# GULP energy per Si atom -5580.324058 kJ/mol
# Density = 2.681874 g / cm^3
# Si number density = 26.879918 Si / 1000 Ang^3
#
#
#
# Elastic Constant Matrix: (Units=GPa)
#
#
# Indices 1 2 3 4 5 6 
#
# 1 183.3071 78.9053 75.9388 0.0000 0.0000 0.0000
# 2 78.9053 183.3071 75.9388 0.0000 0.0000 0.0000
# 3 75.9388 75.9388 173.2345 0.0000 0.0000 0.0000
# 4 0.0000 0.0000 0.0000 29.1220 0.0000 0.0000
# 5 0.0000 0.0000 0.0000 0.0000 29.1220 0.0000
# 6 0.0000 0.0000 0.0000 0.0000 0.0000 52.2009
#
#
#
# Elastic Compliance Matrix: (Units=1/GPa)
#
#
# Indices 1 2 3 4 5 6 
#
# 1 0.007345 -0.002233 -0.002241 0.000000 0.000000 0.000000
# 2 -0.002233 0.007345 -0.002241 0.000000 0.000000 0.000000
# 3 -0.002241 -0.002241 0.007737 0.000000 0.000000 0.000000
# 4 0.000000 0.000000 0.000000 0.034338 0.000000 0.000000
# 5 0.000000 0.000000 0.000000 0.000000 0.034338 0.000000
# 6 0.000000 0.000000 0.000000 0.000000 0.000000 0.019157
#
#
# Mechanical properties :
#
#
# Convention : Reuss Voigt Hill
#
# Bulk Modulus (GPa) = 111.14438 111.26829 111.20634
# Shear Modulus (GPa) = 39.46672 42.69335 41.08003
#
# Velocity S-wave (km/s) = 3.83595 3.98967 3.91356
# Velocity P-wave (km/s) = 7.81393 7.91882 7.86655
#
# Compressibility (1/GPa) = 0.00899731
#
# Stress axis : x y z
#
# Youngs Moduli (GPa) = 136.14773 136.14773 129.24954
#
# Poissons Ratio (x) = 0.30407 0.28961
# Poissons Ratio (y) = 0.30407 0.28961
# Poissons Ratio (z) = 0.30506 0.30506
#
# Static dielectric constant tensor:
#      x y z
#    x 2.228360 0.000000 0.000000 
#    y 0.000000 2.228360 0.000000 
#    z 0.000000 0.000000 2.118610 
# 
# From -- ./inp_files/3642.got.cif
#   From: 2010.05.17/outbox.cif.g08.bks.cpg/sg180_2_cif.got.tgz:3642.got - 2010.05.20 11:43:55.
