data_PCOD9584852
_publ_section_title
;
Structure prediction by ZEFSAII (Michael W. Deem and Ramdas Pophale) SiO2 
 PCOD9584852
Probable space group: P 63 2 2
;
_chemical_formula_sum "Si O2"
_cell_formula_units_Z 54
_cell_length_a 27.393419
_cell_length_b 27.393419
_cell_length_c 5.398260
_cell_angle_alpha 90.000000
_cell_angle_beta 90.000000
_cell_angle_gamma 120.000000
_cell_volume 3508.139950
_symmetry_space_group_name_H-M "P 63 2 2"
_symmetry_group_IT_number 182
_symmetry_cell_setting 'hexagonal'
loop_
_space_group_symop_operation_xyz
x,y,z
x-y,x,1/2+z
-y,x-y,z
-x,-y,1/2+z
-x+y,-x,z
y,-x+y,1/2+z
x-y,-y,-z
-x,-x+y,-z
y,x,-z
-y,-x,1/2-z
-x+y,y,1/2-z
x,x-y,1/2-z
loop_
_atom_site_type_symbol
_atom_site_label
_atom_site_fract_x
_atom_site_fract_y
_atom_site_fract_z
Si Si1 0.335339 0.139188 0.507875
Si Si2 0.962163 0.534239 0.749137
Si Si3 0.000000 0.265040 0.000000
Si Si4 0.159227 0.943804 0.629487
Si Si5 0.057762 0.687729 0.155389
O O1 0.355517 0.177759 0.750000
O O2 0.268465 0.094790 0.546387
O O3 0.368872 0.105500 0.492789
O O4 0.339396 0.169698 0.250000
O O5 0.932585 0.466293 0.750000
O O6 0.928916 0.568643 0.757650
O O7 0.000000 0.555853 0.500000
O O8 0.000000 0.552496 0.000000
O O9 0.033000 0.244852 0.819329
O O10 0.956235 0.280060 0.869593
O O11 0.098783 0.901218 0.750000
O O12 0.166815 0.000000 0.500000
O O13 0.000000 0.656870 0.000000
#
# Coordination Sequence:
#
# PCOD9584852 Si02
#       5
#    12  12   6  12  12
#     4  11  22  33  48  70  98 126 157 196 239 294
#     4   9  18  29  44  66  92 123 166 205 226 259
#     4  12  18  34  50  70 100 122 160 184 252 286
#     4  11  23  33  49  69  96 118 151 197 243 302
#     4  11  19  30  47  68  95 133 164 195 237 289
#
# _framework density 15.392773
#
# number of rings (size 3 to 8) (size 9 to 14) (size 15 to 20)
#    0.000    1.333    5.556    2.667    0.000    0.000 
#    0.000    0.000    0.000    0.000    0.000    0.000 
#   11.111    0.000    0.000    0.667    0.000   25.556 
#
# Total GULP energy -300837.019063 kJ/mol
# GULP energy per Si atom -5571.055909 kJ/mol
# Density = 1.535774 g / cm^3
# Si number density = 15.392773 Si / 1000 Ang^3
#
#
#
# Elastic Constant Matrix: (Units=GPa)
#
#
# Indices 1 2 3 4 5 6 
#
# 1 90.5554 57.5510 25.1549 0.0000 0.0000 0.0000
# 2 57.5510 90.5554 25.1549 0.0000 0.0000 0.0000
# 3 25.1549 25.1549 65.0230 0.0000 0.0000 0.0000
# 4 0.0000 0.0000 0.0000 17.3646 0.0000 0.0000
# 5 0.0000 0.0000 0.0000 0.0000 17.3646 0.0000
# 6 0.0000 0.0000 0.0000 0.0000 0.0000 16.5022
#
#
#
# Elastic Compliance Matrix: (Units=1/GPa)
#
#
# Indices 1 2 3 4 5 6 
#
# 1 0.019036 -0.011263 -0.003007 0.000000 0.000000 0.000000
# 2 -0.011263 0.019036 -0.003007 0.000000 0.000000 0.000000
# 3 -0.003007 -0.003007 0.017706 0.000000 0.000000 0.000000
# 4 0.000000 0.000000 0.000000 0.057588 0.000000 0.000000
# 5 0.000000 0.000000 0.000000 0.000000 0.057588 0.000000
# 6 0.000000 0.000000 0.000000 0.000000 0.000000 0.060598
#
#
# Mechanical properties :
#
#
# Convention : Reuss Voigt Hill
#
# Bulk Modulus (GPa) = 47.11685 51.31726 49.21705
# Shear Modulus (GPa) = 18.30279 19.46448 18.88364
#
# Velocity S-wave (km/s) = 3.45200 3.55987 3.50635
# Velocity P-wave (km/s) = 6.82383 7.09280 6.95961
#
# Compressibility (1/GPa) = 0.02122383
#
# Stress axis : x y z
#
# Youngs Moduli (GPa) = 52.53145 52.53145 56.47824
#
# Poissons Ratio (x) = 0.59165 0.16984
# Poissons Ratio (y) = 0.59165 0.16984
# Poissons Ratio (z) = 0.15797 0.15797
#
# Static dielectric constant tensor:
#      x y z
#    x 1.535820 0.000000 0.000000 
#    y 0.000000 1.535820 0.000000 
#    z 0.000000 0.000000 1.620530 
# 
# From -- ./inp_files/662.got.cif
#   From: 2010.05.17/outbox.cif.g08.bks.cpg/sg182_1_cif.got.tgz:662.got - 2010.05.20 11:58:53.
