data_PCOD9584896
_publ_section_title
;
Structure prediction by ZEFSAII (Michael W. Deem and Ramdas Pophale) SiO2 
 PCOD9584896
Probable space group: P 63 2 2
;
_chemical_formula_sum "Si O2"
_cell_formula_units_Z 42
_cell_length_a 13.264877
_cell_length_b 13.264877
_cell_length_c 11.769567
_cell_angle_alpha 90.000000
_cell_angle_beta 90.000000
_cell_angle_gamma 120.000000
_cell_volume 1793.484269
_symmetry_space_group_name_H-M "P 63 2 2"
_symmetry_group_IT_number 182
_symmetry_cell_setting 'hexagonal'
loop_
_space_group_symop_operation_xyz
x,y,z
x-y,x,1/2+z
-y,x-y,z
-x,-y,1/2+z
-x+y,-x,z
y,-x+y,1/2+z
x-y,-y,-z
-x,-x+y,-z
y,x,-z
-y,-x,1/2-z
-x+y,y,1/2-z
x,x-y,1/2-z
loop_
_atom_site_type_symbol
_atom_site_label
_atom_site_fract_x
_atom_site_fract_y
_atom_site_fract_z
Si Si1 0.416900 0.288446 0.173932
Si Si2 0.887824 0.306238 0.816188
Si Si3 0.130790 0.874207 0.995395
Si Si4 0.512100 0.000000 0.000000
O O1 0.490045 0.245023 0.250000
O O2 0.353159 0.351739 0.235127
O O3 0.329192 0.161208 0.119890
O O4 0.475598 0.376734 0.068992
O O5 0.762561 0.237440 0.750000
O O6 0.875327 0.204495 0.898516
O O7 0.927879 0.413304 0.904511
O O8 0.000000 0.776335 0.000000
O O9 0.144847 0.000000 0.000000
#
# Coordination Sequence:
#
# PCOD9584896 Si02
#       4
#    12  12  12   6
#     4  12  24  45  80 114 154 208 256 321 395 453
#     4  12  24  45  80 114 154 208 256 321 395 453
#     4  12  23  42  72 121 164 195 257 306 380 482
#     4  12  26  48  80 114 160 202 270 324 372 486
#
# _framework density 23.418105000000001
#
# number of rings (size 3 to 8) (size 9 to 14) (size 15 to 20)
#    0.000    0.000    8.571    1.143    0.000    0.000 
#    0.000    0.000    0.000   96.000    0.000    0.000 
#    0.000    0.000    0.000    0.000    0.000    0.000 
#
# Total GULP energy -233915.869582 kJ/mol
# GULP energy per Si atom -5569.425466 kJ/mol
# Density = 2.336480 g / cm^3
# Si number density = 23.418105 Si / 1000 Ang^3
#
#
#
# Elastic Constant Matrix: (Units=GPa)
#
#
# Indices 1 2 3 4 5 6 
#
# 1 182.3070 -63.5060 51.3603 0.0000 0.0000 0.0000
# 2 -63.5060 182.3070 51.3603 0.0000 0.0000 0.0000
# 3 51.3603 51.3603 128.3982 0.0000 0.0000 0.0000
# 4 0.0000 0.0000 0.0000 -375.6727 0.0000 0.0000
# 5 0.0000 0.0000 0.0000 0.0000 -375.6727 0.0000
# 6 0.0000 0.0000 0.0000 0.0000 0.0000 122.9065
#
#
#
# Elastic Compliance Matrix: (Units=1/GPa)
#
#
# Indices 1 2 3 4 5 6 
#
# 1 0.008468 0.004400 -0.005147 0.000000 0.000000 0.000000
# 2 0.004400 0.008468 -0.005147 0.000000 0.000000 0.000000
# 3 -0.005147 -0.005147 0.011906 0.000000 0.000000 0.000000
# 4 0.000000 0.000000 0.000000 -0.002662 0.000000 0.000000
# 5 0.000000 0.000000 0.000000 0.000000 -0.002662 0.000000
# 6 0.000000 0.000000 0.000000 0.000000 0.000000 0.008136
#
#
# Mechanical properties :
#
#
# Convention : Reuss Voigt Hill
#
# Bulk Modulus (GPa) = 58.64064 63.49346 61.06705
# Shear Modulus (GPa) = 101.77385 -95.43462 3.16961
#
# Velocity S-wave (km/s) = 6.59953 -6.39069 1.16466
# Velocity P-wave (km/s) = 9.11959 5.22329 5.28602
#
# Compressibility (1/GPa) = 0.01705302
#
# Stress axis : x y z
#
# Youngs Moduli (GPa) = 118.09046 118.09046 83.98988
#
# Poissons Ratio (x) = -0.51959 0.43232
# Poissons Ratio (y) = -0.51959 0.43232
# Poissons Ratio (z) = 0.60785 0.60785
#
# Static dielectric constant tensor:
#      x y z
#    x 1.926840 0.000000 0.000000 
#    y 0.000000 1.926840 0.000000 
#    z 0.000000 0.000000 1.786670 
# 
# From -- ./inp_files/2307.got.cif
#   From: 2010.05.17/outbox.cif.g08.bks.cpg/sg182_2_cif.got.tgz:2307.got - 2010.05.20 11:58:53.
