data_PCOD9584465
_publ_section_title
;
Structure prediction by ZEFSAII (Michael W. Deem and Ramdas Pophale) SiO2 
 PCOD9584465
Probable space group: P 64 2 2
;
_chemical_formula_sum "Si O2"
_cell_formula_units_Z 39
_cell_length_a 16.779064
_cell_length_b 16.779064
_cell_length_c 8.515332
_cell_angle_alpha 90.000000
_cell_angle_beta 90.000000
_cell_angle_gamma 120.000000
_cell_volume 2076.192787
_symmetry_space_group_name_H-M "P 64 2 2"
_symmetry_group_IT_number 181
_symmetry_cell_setting 'hexagonal'
loop_
_space_group_symop_operation_xyz
x,y,z
x-y,x,2/3+z
-y,x-y,1/3+z
-x,-y,z
-x+y,-x,2/3+z
y,-x+y,1/3+z
x-y,-y,-z
-x,-x+y,2/3-z
y,x,1/3-z
-y,-x,1/3-z
-x+y,y,-z
x,x-y,2/3-z
loop_
_atom_site_type_symbol
_atom_site_label
_atom_site_fract_x
_atom_site_fract_y
_atom_site_fract_z
Si Si1 0.281697 0.500835 0.823516
Si Si2 0.500000 0.500000 0.166667
Si Si3 0.342241 0.103491 0.950088
Si Si4 0.517472 0.147850 0.738723
O O1 0.233802 0.394121 0.772580
O O2 0.392129 0.555579 0.836908
O O3 0.239988 0.540606 0.693262
O O4 0.253825 0.507649 0.000000
O O5 0.417208 0.484770 0.277748
O O6 0.302934 0.151467 0.833334
O O7 0.431565 0.116860 0.853295
O O8 0.273563 0.000000 0.000000
#
# Coordination Sequence:
#
# PCOD9584465 Si02
#       4
#    12   3  12  12
#     4  11  21  37  52  82 114 161 207 256 301 358
#     4  12  20  36  50  76 104 160 208 264 292 348
#     4  10  23  40  59  84 116 158 198 251 308 373
#     4  11  23  34  56  76 116 160 209 260 301 359
#
# _framework density 18.784382999999998
#
# number of rings (size 3 to 8) (size 9 to 14) (size 15 to 20)
#    0.000    1.231    3.077    2.769    0.000   11.077 
#    0.000    0.000    0.000    0.000    0.000    0.000 
#    0.000    6.154    0.000    0.000    0.000    0.000 
#
# Total GULP energy -217701.681448 kJ/mol
# GULP energy per Si atom -5582.094396 kJ/mol
# Density = 1.874163 g / cm^3
# Si number density = 18.784383 Si / 1000 Ang^3
#
#
#
# Elastic Constant Matrix: (Units=GPa)
#
#
# Indices 1 2 3 4 5 6 
#
# 1 77.6067 43.4432 30.7123 0.0000 0.0000 0.0000
# 2 43.4432 77.6067 30.7123 0.0000 0.0000 0.0000
# 3 30.7123 30.7123 92.9012 0.0000 0.0000 0.0000
# 4 0.0000 0.0000 0.0000 26.9333 0.0000 0.0000
# 5 0.0000 0.0000 0.0000 0.0000 26.9333 0.0000
# 6 0.0000 0.0000 0.0000 0.0000 0.0000 17.0817
#
#
#
# Elastic Compliance Matrix: (Units=1/GPa)
#
#
# Indices 1 2 3 4 5 6 
#
# 1 0.019599 -0.009672 -0.003282 0.000000 0.000000 0.000000
# 2 -0.009672 0.019599 -0.003282 0.000000 0.000000 0.000000
# 3 -0.003282 -0.003282 0.012934 0.000000 0.000000 0.000000
# 4 0.000000 0.000000 0.000000 0.037129 0.000000 0.000000
# 5 0.000000 0.000000 0.000000 0.000000 0.037129 0.000000
# 6 0.000000 0.000000 0.000000 0.000000 0.000000 0.058542
#
#
# Mechanical properties :
#
#
# Convention : Reuss Voigt Hill
#
# Bulk Modulus (GPa) = 50.86431 50.87224 50.86827
# Shear Modulus (GPa) = 22.32592 23.73943 23.03268
#
# Velocity S-wave (km/s) = 3.45126 3.55883 3.50546
# Velocity P-wave (km/s) = 6.55883 6.63536 6.59721
#
# Compressibility (1/GPa) = 0.01966015
#
# Stress axis : x y z
#
# Youngs Moduli (GPa) = 51.02401 51.02401 77.31671
#
# Poissons Ratio (x) = 0.49353 0.25372
# Poissons Ratio (y) = 0.49353 0.25372
# Poissons Ratio (z) = 0.16744 0.16744
#
# Static dielectric constant tensor:
#      x y z
#    x 1.680910 0.000000 0.000000 
#    y 0.000000 1.680910 0.000000 
#    z 0.000000 0.000000 1.734150 
# 
# From -- ./inp_files/2500.got.cif
#   From: 2010.05.17/outbox.cif.g08.bks.cpg/sg181_2_cif.got.tgz:2500.got - 2010.05.20 11:51:17.
