data_PCOD9584695
_publ_section_title
;
Structure prediction by ZEFSAII (Michael W. Deem and Ramdas Pophale) SiO2 
 PCOD9584695
Probable space group: P 63 2 2
;
_chemical_formula_sum "Si O2"
_cell_formula_units_Z 42
_cell_length_a 13.258215
_cell_length_b 13.258215
_cell_length_c 13.175965
_cell_angle_alpha 90.000000
_cell_angle_beta 90.000000
_cell_angle_gamma 120.000000
_cell_volume 2005.779457
_symmetry_space_group_name_H-M "P 63 2 2"
_symmetry_group_IT_number 182
_symmetry_cell_setting 'hexagonal'
loop_
_space_group_symop_operation_xyz
x,y,z
x-y,x,1/2+z
-y,x-y,z
-x,-y,1/2+z
-x+y,-x,z
y,-x+y,1/2+z
x-y,-y,-z
-x,-x+y,-z
y,x,-z
-y,-x,1/2-z
-x+y,y,1/2-z
x,x-y,1/2-z
loop_
_atom_site_type_symbol
_atom_site_label
_atom_site_fract_x
_atom_site_fract_y
_atom_site_fract_z
Si Si1 0.409011 0.140703 0.077987
Si Si2 0.447093 0.552908 0.250000
Si Si3 0.888494 0.247083 0.845863
Si Si4 0.924758 0.535162 0.094420
O O1 0.447290 0.265731 0.123453
O O2 0.519135 0.119639 0.069972
O O3 0.315840 0.029057 0.141793
O O4 0.362046 0.144645 0.964634
O O5 0.335102 0.497075 0.321115
O O6 0.424456 0.444456 0.181486
O O7 0.841338 0.158663 0.750000
O O8 0.000000 0.610232 0.000000
#
# Coordination Sequence:
#
# PCOD9584695 Si02
#       4
#    12   6  12  12
#     4  10  21  37  56  86 129 172 208 276 325 387
#     4  10  20  36  56  86 120 162 210 254 322 386
#     4  10  20  36  55  84 124 165 218 264 315 391
#     4  11  20  37  57  86 131 165 214 263 328 391
#
# _framework density 20.939488999999998
#
# number of rings (size 3 to 8) (size 9 to 14) (size 15 to 20)
#    0.000    1.714    5.714    2.286    0.000    4.571 
#    0.857    0.000    0.000    0.000    0.000    0.000 
#  160.000    0.000    0.000    0.000    0.000    0.000 
#
# Total GULP energy -233894.211035 kJ/mol
# GULP energy per Si atom -5568.909787 kJ/mol
# Density = 2.089183 g / cm^3
# Si number density = 20.939489 Si / 1000 Ang^3
#
#
#
# Elastic Constant Matrix: (Units=GPa)
#
#
# Indices 1 2 3 4 5 6 
#
# 1 75.9042 28.1647 15.8390 0.0000 0.0000 0.0000
# 2 28.1647 75.9042 15.8390 0.0000 0.0000 0.0000
# 3 15.8390 15.8390 117.4849 0.0000 0.0000 0.0000
# 4 0.0000 0.0000 0.0000 32.4427 0.0000 0.0000
# 5 0.0000 0.0000 0.0000 0.0000 32.4427 0.0000
# 6 0.0000 0.0000 0.0000 0.0000 0.0000 23.8697
#
#
#
# Elastic Compliance Matrix: (Units=1/GPa)
#
#
# Indices 1 2 3 4 5 6 
#
# 1 0.015484 -0.005463 -0.001351 0.000000 0.000000 0.000000
# 2 -0.005463 0.015484 -0.001351 0.000000 0.000000 0.000000
# 3 -0.001351 -0.001351 0.008876 0.000000 0.000000 0.000000
# 4 0.000000 0.000000 0.000000 0.030824 0.000000 0.000000
# 5 0.000000 0.000000 0.000000 0.000000 0.030824 0.000000
# 6 0.000000 0.000000 0.000000 0.000000 0.000000 0.041894
#
#
# Mechanical properties :
#
#
# Convention : Reuss Voigt Hill
#
# Bulk Modulus (GPa) = 42.52997 43.21986 42.87491
# Shear Modulus (GPa) = 29.84139 31.71438 30.77789
#
# Velocity S-wave (km/s) = 3.77918 3.89597 3.83802
# Velocity P-wave (km/s) = 6.27678 6.39713 6.33724
#
# Compressibility (1/GPa) = 0.02351283
#
# Stress axis : x y z
#
# Youngs Moduli (GPa) = 64.58437 64.58437 112.66355
#
# Poissons Ratio (x) = 0.35285 0.15220
# Poissons Ratio (y) = 0.35285 0.15220
# Poissons Ratio (z) = 0.08725 0.08725
#
# Static dielectric constant tensor:
#      x y z
#    x 1.796100 0.000000 0.000000 
#    y 0.000000 1.796100 0.000000 
#    z 0.000000 0.000000 1.790870 
# 
# From -- ./inp_files/2272.got.cif
#   From: 2010.05.17/outbox.cif.g08.bks.cpg/sg182_2_cif.got.tgz:2272.got - 2010.05.20 11:58:53.
