data_PCOD9584305
_publ_section_title
;
Structure prediction by ZEFSAII (Michael W. Deem and Ramdas Pophale) SiO2 
 PCOD9584305
Probable space group: P 64 2 2
;
_chemical_formula_sum "Si O2"
_cell_formula_units_Z 60
_cell_length_a 14.795320
_cell_length_b 14.795320
_cell_length_c 15.087659
_cell_angle_alpha 90.000000
_cell_angle_beta 90.000000
_cell_angle_gamma 120.000000
_cell_volume 2860.231709
_symmetry_space_group_name_H-M "P 64 2 2"
_symmetry_group_IT_number 181
_symmetry_cell_setting 'hexagonal'
loop_
_space_group_symop_operation_xyz
x,y,z
x-y,x,2/3+z
-y,x-y,1/3+z
-x,-y,z
-x+y,-x,2/3+z
y,-x+y,1/3+z
x-y,-y,-z
-x,-x+y,2/3-z
y,x,1/3-z
-y,-x,1/3-z
-x+y,y,-z
x,x-y,2/3-z
loop_
_atom_site_type_symbol
_atom_site_label
_atom_site_fract_x
_atom_site_fract_y
_atom_site_fract_z
Si Si1 0.236109 0.846412 0.333844
Si Si2 0.426570 0.616513 0.877242
Si Si3 0.340297 0.393456 0.573910
Si Si4 0.247799 0.401590 0.854425
Si Si5 0.959846 0.783693 0.929923
O O1 0.333726 0.845446 0.288654
O O2 0.142013 0.777125 0.265783
O O3 0.211989 0.784730 0.426426
O O4 0.236869 0.952638 0.358885
O O5 0.400005 0.700003 0.833334
O O6 0.491517 0.599867 0.799631
O O7 0.326115 0.509013 0.901725
O O8 0.387438 0.387438 0.666667
O O9 0.343609 0.312136 0.505603
O O10 0.143092 0.325226 0.905340
O O11 0.000000 0.837262 0.833334
O O12 0.918560 0.837120 0.000000
#
# Coordination Sequence:
#
# PCOD9584305 Si02
#       5
#    12  12  12  12  12
#     4   9  20  37  60  87 121 159 208 266 315 381
#     4  10  20  34  56  88 123 158 205 260 314 370
#     4   9  18  32  57  88 115 154 204 260 312 369
#     4  10  20  36  60  86 122 166 207 255 320 385
#     4  10  21  40  65  88 123 170 208 258 323 396
#
# _framework density 20.977322000000001
#
# number of rings (size 3 to 8) (size 9 to 14) (size 15 to 20)
#    0.000    2.400    0.000    1.800    0.000    9.600 
#    3.600    0.000    4.400   25.800    0.000    0.000 
#    0.000    0.000    0.000    0.000    0.000    0.000 
#
# Total GULP energy -334983.368383 kJ/mol
# GULP energy per Si atom -5583.056140 kJ/mol
# Density = 2.092958 g / cm^3
# Si number density = 20.977322 Si / 1000 Ang^3
#
#
#
# Elastic Constant Matrix: (Units=GPa)
#
#
# Indices 1 2 3 4 5 6 
#
# 1 84.0729 51.4251 25.4229 0.0000 0.0000 0.0000
# 2 51.4251 84.0729 25.4229 0.0000 0.0000 0.0000
# 3 25.4229 25.4229 96.6598 0.0000 0.0000 0.0000
# 4 0.0000 0.0000 0.0000 25.4685 0.0000 0.0000
# 5 0.0000 0.0000 0.0000 0.0000 25.4685 0.0000
# 6 0.0000 0.0000 0.0000 0.0000 0.0000 16.3239
#
#
#
# Elastic Compliance Matrix: (Units=1/GPa)
#
#
# Indices 1 2 3 4 5 6 
#
# 1 0.019409 -0.011221 -0.002154 0.000000 0.000000 0.000000
# 2 -0.011221 0.019409 -0.002154 0.000000 0.000000 0.000000
# 3 -0.002154 -0.002154 0.011478 0.000000 0.000000 0.000000
# 4 0.000000 0.000000 0.000000 0.039264 0.000000 0.000000
# 5 0.000000 0.000000 0.000000 0.000000 0.039264 0.000000
# 6 0.000000 0.000000 0.000000 0.000000 0.000000 0.061260
#
#
# Mechanical properties :
#
#
# Convention : Reuss Voigt Hill
#
# Bulk Modulus (GPa) = 51.97363 52.14972 52.06168
# Shear Modulus (GPa) = 21.97275 24.28784 23.13030
#
# Velocity S-wave (km/s) = 3.23995 3.40636 3.32419
# Velocity P-wave (km/s) = 6.23107 6.35492 6.29330
#
# Compressibility (1/GPa) = 0.01924053
#
# Stress axis : x y z
#
# Youngs Moduli (GPa) = 51.52213 51.52213 87.11987
#
# Poissons Ratio (x) = 0.57812 0.18763
# Poissons Ratio (y) = 0.57812 0.18763
# Poissons Ratio (z) = 0.11096 0.11096
#
# Static dielectric constant tensor:
#      x y z
#    x 1.770740 0.000000 0.000000 
#    y 0.000000 1.770740 0.000000 
#    z 0.000000 0.000000 1.793170 
# 
# From -- ./inp_files/6138.got.cif
#   From: 2010.05.17/outbox.cif.g08.bks.cpg/sg181_4_cif.got.tgz:6138.got - 2010.05.20 11:51:17.
