data_PCOD9584617
_publ_section_title
;
Structure prediction by ZEFSAII (Michael W. Deem and Ramdas Pophale) SiO2 
 PCOD9584617
Probable space group: P 63 2 2
;
_chemical_formula_sum "Si O2"
_cell_formula_units_Z 42
_cell_length_a 14.024109
_cell_length_b 14.024109
_cell_length_c 10.767946
_cell_angle_alpha 90.000000
_cell_angle_beta 90.000000
_cell_angle_gamma 120.000000
_cell_volume 1834.062190
_symmetry_space_group_name_H-M "P 63 2 2"
_symmetry_group_IT_number 182
_symmetry_cell_setting 'hexagonal'
loop_
_space_group_symop_operation_xyz
x,y,z
x-y,x,1/2+z
-y,x-y,z
-x,-y,1/2+z
-x+y,-x,z
y,-x+y,1/2+z
x-y,-y,-z
-x,-x+y,-z
y,x,-z
-y,-x,1/2-z
-x+y,y,1/2-z
x,x-y,1/2-z
loop_
_atom_site_type_symbol
_atom_site_label
_atom_site_fract_x
_atom_site_fract_y
_atom_site_fract_z
Si Si1 0.533910 0.404057 0.974910
Si Si2 0.404142 0.243507 0.591566
Si Si3 0.431658 0.863315 0.750000
Si Si4 0.323436 0.064012 0.183059
O O1 0.640059 0.482840 0.893779
O O2 0.447796 0.289637 0.912676
O O3 0.473861 0.473861 0.000000
O O4 0.577581 0.390640 0.111250
O O5 0.308233 0.241701 0.674978
O O6 0.358675 0.243696 0.454140
O O7 0.563261 0.922351 0.737646
O O8 0.288333 0.144167 0.250000
#
# Coordination Sequence:
#
# PCOD9584617 Si02
#       4
#    12  12   6  12
#     4  11  20  34  56  83 128 166 217 268 335 407
#     4  10  20  33  54  86 121 173 216 279 335 405
#     4  10  18  32  54  78 114 160 200 264 324 390
#     4  10  18  34  55  79 118 166 219 271 326 405
#
# _framework density 22.899985999999998
#
# number of rings (size 3 to 8) (size 9 to 14) (size 15 to 20)
#    0.000    1.714    8.571    0.571    0.000    0.000 
#    0.857    1.429    0.000    0.000    0.000    0.000 
#   11.429    2.286    0.000    0.000    0.000    1.429 
#
# Total GULP energy -234148.542601 kJ/mol
# GULP energy per Si atom -5574.965300 kJ/mol
# Density = 2.284786 g / cm^3
# Si number density = 22.899986 Si / 1000 Ang^3
#
#
#
# Elastic Constant Matrix: (Units=GPa)
#
#
# Indices 1 2 3 4 5 6 
#
# 1 71.7941 26.7515 31.5314 0.0000 0.0000 0.0000
# 2 26.7515 71.7941 31.5314 0.0000 0.0000 0.0000
# 3 31.5314 31.5314 93.5321 0.0000 0.0000 0.0000
# 4 0.0000 0.0000 0.0000 23.9746 0.0000 0.0000
# 5 0.0000 0.0000 0.0000 0.0000 23.9746 0.0000
# 6 0.0000 0.0000 0.0000 0.0000 0.0000 22.5213
#
#
#
# Elastic Compliance Matrix: (Units=1/GPa)
#
#
# Indices 1 2 3 4 5 6 
#
# 1 0.017570 -0.004631 -0.004362 0.000000 0.000000 0.000000
# 2 -0.004631 0.017570 -0.004362 0.000000 0.000000 0.000000
# 3 -0.004362 -0.004362 0.013633 0.000000 0.000000 0.000000
# 4 0.000000 0.000000 0.000000 0.041711 0.000000 0.000000
# 5 0.000000 0.000000 0.000000 0.000000 0.041711 0.000000
# 6 0.000000 0.000000 0.000000 0.000000 0.000000 0.044402
#
#
# Mechanical properties :
#
#
# Convention : Reuss Voigt Hill
#
# Bulk Modulus (GPa) = 45.32560 46.30543 45.81552
# Shear Modulus (GPa) = 23.73481 23.91449 23.82465
#
# Velocity S-wave (km/s) = 3.22290 3.23507 3.22899
# Velocity P-wave (km/s) = 5.80390 5.84969 5.82684
#
# Compressibility (1/GPa) = 0.02206259
#
# Stress axis : x y z
#
# Youngs Moduli (GPa) = 56.91488 56.91488 73.35395
#
# Poissons Ratio (x) = 0.26358 0.31997
# Poissons Ratio (y) = 0.26358 0.31997
# Poissons Ratio (z) = 0.24826 0.24826
#
# Static dielectric constant tensor:
#      x y z
#    x 1.859950 0.000000 0.000000 
#    y 0.000000 1.859950 0.000000 
#    z 0.000000 0.000000 2.006410 
# 
# From -- ./inp_files/2277.got.cif
#   From: 2010.05.17/outbox.cif.g08.bks.cpg/sg182_2_cif.got.tgz:2277.got - 2010.05.20 11:58:53.
