data_PCOD9584623
_publ_section_title
;
Structure prediction by ZEFSAII (Michael W. Deem and Ramdas Pophale) SiO2 
 PCOD9584623
Probable space group: P 63 2 2
;
_chemical_formula_sum "Si O2"
_cell_formula_units_Z 90
_cell_length_a 19.741302
_cell_length_b 19.741302
_cell_length_c 15.719066
_cell_angle_alpha 90.000000
_cell_angle_beta 90.000000
_cell_angle_gamma 120.000000
_cell_volume 5305.287866
_symmetry_space_group_name_H-M "P 63 2 2"
_symmetry_group_IT_number 182
_symmetry_cell_setting 'hexagonal'
loop_
_space_group_symop_operation_xyz
x,y,z
x-y,x,1/2+z
-y,x-y,z
-x,-y,1/2+z
-x+y,-x,z
y,-x+y,1/2+z
x-y,-y,-z
-x,-x+y,-z
y,x,-z
-y,-x,1/2-z
-x+y,y,1/2-z
x,x-y,1/2-z
loop_
_atom_site_type_symbol
_atom_site_label
_atom_site_fract_x
_atom_site_fract_y
_atom_site_fract_z
Si Si1 0.250629 0.843554 0.819321
Si Si2 0.996198 0.622686 0.600448
Si Si3 0.486256 0.258262 0.495614
Si Si4 0.159730 0.579865 0.250000
Si Si5 0.435144 0.598932 0.521696
Si Si6 0.270021 0.824922 0.173932
Si Si7 0.516865 0.552970 0.390626
Si Si8 0.613927 0.108033 0.193565
O O1 0.180844 0.819157 0.750000
O O2 0.231009 0.790741 0.905308
O O3 0.313575 0.842344 0.754061
O O4 0.303115 0.931414 0.855151
O O5 0.917188 0.600243 0.652125
O O6 0.998919 0.541472 0.603065
O O7 0.000000 0.642491 0.500000
O O8 0.552879 0.235080 0.503576
O O9 0.525678 0.351909 0.498962
O O10 0.440186 0.229014 0.583658
O O11 0.198394 0.534890 0.201376
O O12 0.104281 0.518306 0.320433
O O13 0.502502 0.587745 0.476960
O O14 0.445874 0.606301 0.622128
O O15 0.207904 0.792097 0.250000
O O16 0.601052 0.569969 0.356782
O O17 0.537065 0.074130 0.250000
#
# Coordination Sequence:
#
# PCOD9584623 Si02
#       8
#    12  12  12   6  12  12  12  12
#     4  12  23  38  56  81 106 137 180 238 297 343
#     4  11  19  37  62  79 101 144 190 231 276 343
#     4  12  23  37  51  72 108 146 181 231 296 355
#     4  10  18  34  50  72 102 132 176 236 284 320
#     4  12  23  35  50  72 105 144 183 236 293 351
#     4  11  23  37  55  79 108 140 187 237 279 339
#     4  11  19  34  55  78  95 131 195 240 281 328
#     4  12  20  32  56  73  96 129 181 238 287 329
#
# _framework density 16.964206000000001
#
# number of rings (size 3 to 8) (size 9 to 14) (size 15 to 20)
#    0.000    0.533    8.667    3.067    0.000    0.000 
#    0.400    0.000    0.000    0.000    0.000    0.000 
#    0.000    0.000    0.000    0.400    0.000    0.400 
#
# Total GULP energy -501025.492326 kJ/mol
# GULP energy per Si atom -5566.949915 kJ/mol
# Density = 1.692559 g / cm^3
# Si number density = 16.964206 Si / 1000 Ang^3
#
#
#
# Elastic Constant Matrix: (Units=GPa)
#
#
# Indices 1 2 3 4 5 6 
#
# 1 39.5533 10.2852 25.9113 0.0000 0.0000 0.0000
# 2 10.2852 39.5533 25.9113 0.0000 0.0000 0.0000
# 3 25.9113 25.9113 146.7143 0.0000 0.0000 0.0000
# 4 0.0000 0.0000 0.0000 27.9457 0.0000 0.0000
# 5 0.0000 0.0000 0.0000 0.0000 27.9457 0.0000
# 6 0.0000 0.0000 0.0000 0.0000 0.0000 14.6340
#
#
#
# Elastic Compliance Matrix: (Units=1/GPa)
#
#
# Indices 1 2 3 4 5 6 
#
# 1 0.029373 -0.004794 -0.004341 0.000000 0.000000 0.000000
# 2 -0.004794 0.029373 -0.004341 0.000000 0.000000 0.000000
# 3 -0.004341 -0.004341 0.008349 0.000000 0.000000 0.000000
# 4 0.000000 0.000000 0.000000 0.035784 0.000000 0.000000
# 5 0.000000 0.000000 0.000000 0.000000 0.035784 0.000000
# 6 0.000000 0.000000 0.000000 0.000000 0.000000 0.068334
#
#
# Mechanical properties :
#
#
# Convention : Reuss Voigt Hill
#
# Bulk Modulus (GPa) = 24.91105 38.89294 31.90200
# Shear Modulus (GPa) = 20.21603 25.01929 22.61766
#
# Velocity S-wave (km/s) = 3.45583 3.84452 3.65534
# Velocity P-wave (km/s) = 5.53534 6.53325 6.05489
#
# Compressibility (1/GPa) = 0.04014283
#
# Stress axis : x y z
#
# Youngs Moduli (GPa) = 34.04526 34.04526 119.77143
#
# Poissons Ratio (x) = 0.16322 0.51991
# Poissons Ratio (y) = 0.16322 0.51991
# Poissons Ratio (z) = 0.14778 0.14778
#
# Static dielectric constant tensor:
#      x y z
#    x 1.624260 0.000000 0.000000 
#    y 0.000000 1.624260 0.000000 
#    z 0.000000 0.000000 1.683230 
# 
# From -- ./inp_files/3801.got.cif
#   From: 2010.05.17/outbox.cif.g08.bks.cpg/sg182_2_cif.got.tgz:3801.got - 2010.05.20 11:58:53.
