data_PCOD9584033
_publ_section_title
;
Structure prediction by ZEFSAII (Michael W. Deem and Ramdas Pophale) SiO2 
 PCOD9584033
Probable space group: P 62 2 2
;
_chemical_formula_sum "Si O2"
_cell_formula_units_Z 45
_cell_length_a 14.405866
_cell_length_b 14.405866
_cell_length_c 12.220103
_cell_angle_alpha 90.000000
_cell_angle_beta 90.000000
_cell_angle_gamma 120.000000
_cell_volume 2196.262467
_symmetry_space_group_name_H-M "P 62 2 2"
_symmetry_group_IT_number 180
_symmetry_cell_setting 'hexagonal'
loop_
_space_group_symop_operation_xyz
x,y,z
x-y,x,1/3+z
-y,x-y,2/3+z
-x,-y,z
-x+y,-x,1/3+z
y,-x+y,2/3+z
x-y,-y,-z
-x,-x+y,1/3-z
y,x,2/3-z
-y,-x,2/3-z
-x+y,y,-z
x,x-y,1/3-z
loop_
_atom_site_type_symbol
_atom_site_label
_atom_site_fract_x
_atom_site_fract_y
_atom_site_fract_z
Si Si1 0.111774 0.611279 0.327105
Si Si2 0.840484 0.840484 0.833334
Si Si3 0.606550 0.804046 0.828484
Si Si4 0.000000 0.000000 0.000000
Si Si5 0.270415 0.747439 0.962121
O O1 0.124211 0.696097 0.422331
O O2 0.143525 0.682190 0.217363
O O3 0.203234 0.582070 0.347864
O O4 0.000000 0.500000 0.325677
O O5 0.727399 0.832251 0.811379
O O6 0.896463 0.922315 0.931236
O O7 0.576449 0.804226 0.954890
O O8 0.248389 0.751612 0.833334
O O9 0.392169 0.784338 0.000000
#
# Coordination Sequence:
#
# PCOD9584033 Si02
#       5
#    12   6  12   3  12
#     4  11  22  39  67  98 136 179 228 287 341 411
#     4  11  24  48  71 102 126 174 237 292 364 425
#     4  11  23  41  68 102 138 175 241 290 340 445
#     4  10  24  50  76  86 134 170 208 314 378 398
#     4  12  21  41  62  93 141 189 219 269 352 410
#
# _framework density 20.489353999999999
#
# number of rings (size 3 to 8) (size 9 to 14) (size 15 to 20)
#    0.000    0.800    5.333    4.000    0.000    1.067 
#    9.600    1.333    0.000    0.000    0.000    0.000 
#    0.000    0.000    0.000    0.000    0.000    0.000 
#
# Total GULP energy -251394.922472 kJ/mol
# GULP energy per Si atom -5586.553833 kJ/mol
# Density = 2.044272 g / cm^3
# Si number density = 20.489354 Si / 1000 Ang^3
#
#
#
# Elastic Constant Matrix: (Units=GPa)
#
#
# Indices 1 2 3 4 5 6 
#
# 1 101.3102 37.5534 33.6760 0.0000 0.0000 0.0000
# 2 37.5534 101.3102 33.6760 0.0000 0.0000 0.0000
# 3 33.6760 33.6760 159.0558 0.0000 0.0000 0.0000
# 4 0.0000 0.0000 0.0000 39.3118 0.0000 0.0000
# 5 0.0000 0.0000 0.0000 0.0000 39.3118 0.0000
# 6 0.0000 0.0000 0.0000 0.0000 0.0000 31.8784
#
#
#
# Elastic Compliance Matrix: (Units=1/GPa)
#
#
# Indices 1 2 3 4 5 6 
#
# 1 0.011855 -0.003830 -0.001699 0.000000 0.000000 0.000000
# 2 -0.003830 0.011855 -0.001699 0.000000 0.000000 0.000000
# 3 -0.001699 -0.001699 0.007007 0.000000 0.000000 0.000000
# 4 0.000000 0.000000 0.000000 0.025438 0.000000 0.000000
# 5 0.000000 0.000000 0.000000 0.000000 0.025438 0.000000
# 6 0.000000 0.000000 0.000000 0.000000 0.000000 0.031369
#
#
# Mechanical properties :
#
#
# Convention : Reuss Voigt Hill
#
# Bulk Modulus (GPa) = 61.49763 63.49856 62.49809
# Shear Modulus (GPa) = 37.64003 39.21846 38.42925
#
# Velocity S-wave (km/s) = 4.29074 4.37978 4.33549
# Velocity P-wave (km/s) = 7.39099 7.52561 7.45861
#
# Compressibility (1/GPa) = 0.01626079
#
# Stress axis : x y z
#
# Youngs Moduli (GPa) = 84.35242 84.35242 142.72214
#
# Poissons Ratio (x) = 0.32303 0.24251
# Poissons Ratio (y) = 0.32303 0.24251
# Poissons Ratio (z) = 0.14333 0.14333
#
# Static dielectric constant tensor:
#      x y z
#    x 1.759670 0.000000 0.000000 
#    y 0.000000 1.759670 0.000000 
#    z 0.000000 0.000000 1.824910 
# 
# From -- ./inp_files/4518.got.cif
#   From: 2010.05.17/outbox.cif.g08.bks.cpg/sg180_3_cif.got.tgz:4518.got - 2010.05.20 11:43:55.
