data_PCOD9584162
_publ_section_title
;
Structure prediction by ZEFSAII (Michael W. Deem and Ramdas Pophale) SiO2 
 PCOD9584162
Probable space group: P 62 2 2
;
_chemical_formula_sum "Si O2"
_cell_formula_units_Z 27
_cell_length_a 10.759706
_cell_length_b 10.759706
_cell_length_c 11.387334
_cell_angle_alpha 90.000000
_cell_angle_beta 90.000000
_cell_angle_gamma 120.000000
_cell_volume 1141.703941
_symmetry_space_group_name_H-M "P 62 2 2"
_symmetry_group_IT_number 180
_symmetry_cell_setting 'hexagonal'
loop_
_space_group_symop_operation_xyz
x,y,z
x-y,x,1/3+z
-y,x-y,2/3+z
-x,-y,z
-x+y,-x,1/3+z
y,-x+y,2/3+z
x-y,-y,-z
-x,-x+y,1/3-z
y,x,2/3-z
-y,-x,2/3-z
-x+y,y,-z
x,x-y,1/3-z
loop_
_atom_site_type_symbol
_atom_site_label
_atom_site_fract_x
_atom_site_fract_y
_atom_site_fract_z
Si Si1 0.712065 0.557498 0.782545
Si Si2 0.500000 0.500000 0.333334
Si Si3 0.653960 0.699218 0.143677
O O1 0.667199 0.667199 0.833334
O O2 0.600069 0.399932 0.833334
O O3 0.679947 0.574201 0.645627
O O4 0.874964 0.618731 0.829770
O O5 0.537074 0.630391 0.247508
O O6 0.740635 0.870318 0.166667
#
# Coordination Sequence:
#
# PCOD9584162 Si02
#       3
#    12   3  12
#     4  11  25  49  76 113 159 208 269 331 409 484
#     4  12  24  44  74 110 156 200 260 324 406 476
#     4  12  25  50  74 114 153 213 269 336 407 489
#
# _framework density 23.648862000000001
#
# number of rings (size 3 to 8) (size 9 to 14) (size 15 to 20)
#    0.000    0.444    4.444    4.000    0.000    2.667 
#   16.000    6.667    0.000    0.000    0.000    0.000 
#    0.000    0.000    0.000    0.000    0.000    0.000 
#
# Total GULP energy -150386.346407 kJ/mol
# GULP energy per Si atom -5569.864682 kJ/mol
# Density = 2.359504 g / cm^3
# Si number density = 23.648862 Si / 1000 Ang^3
#
#
#
# Elastic Constant Matrix: (Units=GPa)
#
#
# Indices 1 2 3 4 5 6 
#
# 1 167.0678 107.7854 69.3227 0.0000 0.0000 0.0000
# 2 107.7854 167.0678 69.3227 0.0000 0.0000 0.0000
# 3 69.3227 69.3227 246.4516 0.0000 0.0000 0.0000
# 4 0.0000 0.0000 0.0000 4.7923 0.0000 0.0000
# 5 0.0000 0.0000 0.0000 0.0000 4.7923 0.0000
# 6 0.0000 0.0000 0.0000 0.0000 0.0000 29.6412
#
#
#
# Elastic Compliance Matrix: (Units=1/GPa)
#
#
# Indices 1 2 3 4 5 6 
#
# 1 0.010554 -0.006314 -0.001193 0.000000 0.000000 0.000000
# 2 -0.006314 0.010554 -0.001193 0.000000 0.000000 0.000000
# 3 -0.001193 -0.001193 0.004729 0.000000 0.000000 0.000000
# 4 0.000000 0.000000 0.000000 0.208667 0.000000 0.000000
# 5 0.000000 0.000000 0.000000 0.000000 0.208667 0.000000
# 6 0.000000 0.000000 0.000000 0.000000 0.000000 0.033737
#
#
# Mechanical properties :
#
#
# Convention : Reuss Voigt Hill
#
# Bulk Modulus (GPa) = 118.51339 119.27210 118.89274
# Shear Modulus (GPa) = 10.05795 30.12227 20.09011
#
# Velocity S-wave (km/s) = 2.06453 3.57281 2.91781
# Velocity P-wave (km/s) = 7.47700 8.21973 7.85715
#
# Compressibility (1/GPa) = 0.00843787
#
# Stress axis : x y z
#
# Youngs Moduli (GPa) = 94.74944 94.74944 211.48285
#
# Poissons Ratio (x) = 0.59827 0.25222
# Poissons Ratio (y) = 0.59827 0.25222
# Poissons Ratio (z) = 0.11300 0.11300
#
# Static dielectric constant tensor:
#      x y z
#    x 2.040180 0.000000 0.000000 
#    y 0.000000 2.040180 0.000000 
#    z 0.000000 0.000000 1.996940 
# 
# From -- ./inp_files/3872.got.cif
#   From: 2010.05.17/outbox.cif.g08.bks.cpg/sg180_2_cif.got.tgz:3872.got - 2010.05.20 11:43:55.
