data_PCOD9584732
_publ_section_title
;
Structure prediction by ZEFSAII (Michael W. Deem and Ramdas Pophale) SiO2 
 PCOD9584732
Probable space group: P 63 2 2
;
_chemical_formula_sum "Si O2"
_cell_formula_units_Z 42
_cell_length_a 8.733749
_cell_length_b 8.733749
_cell_length_c 31.446082
_cell_angle_alpha 90.000000
_cell_angle_beta 90.000000
_cell_angle_gamma 120.000000
_cell_volume 2077.296969
_symmetry_space_group_name_H-M "P 63 2 2"
_symmetry_group_IT_number 182
_symmetry_cell_setting 'hexagonal'
loop_
_space_group_symop_operation_xyz
x,y,z
x-y,x,1/2+z
-y,x-y,z
-x,-y,1/2+z
-x+y,-x,z
y,-x+y,1/2+z
x-y,-y,-z
-x,-x+y,-z
y,x,-z
-y,-x,1/2-z
-x+y,y,1/2-z
x,x-y,1/2-z
loop_
_atom_site_type_symbol
_atom_site_label
_atom_site_fract_x
_atom_site_fract_y
_atom_site_fract_z
Si Si1 0.216201 0.432401 0.750000
Si Si2 0.015162 0.663777 0.131519
Si Si3 0.327757 0.300800 0.336451
Si Si4 0.135249 0.666486 0.035477
O O1 0.427669 0.572332 0.750000
O O2 0.117557 0.323349 0.791757
O O3 0.076127 0.662083 0.083696
O O4 0.843052 0.684113 0.130127
O O5 0.970051 0.481422 0.154999
O O6 0.171020 0.828892 0.156581
O O7 0.168830 0.500863 0.030041
O O8 0.000000 0.653953 0.000000
#
# Coordination Sequence:
#
# PCOD9584732 Si02
#       4
#     6  12  12  12
#     4  10  20  44  66 104 132 176 240 280 358 432
#     4  12  24  45  69 104 143 191 239 298 360 438
#     4  12  24  44  73 101 146 189 239 300 360 437
#     4  10  23  41  65 104 139 184 240 286 357 427
#
# _framework density 20.218584
#
# number of rings (size 3 to 8) (size 9 to 14) (size 15 to 20)
#    0.857    0.000    5.714    1.714    4.000    1.143 
#    0.000    0.000    0.000    0.571    0.000    0.000 
#    0.000    0.000    0.000    0.000    0.000    0.000 
#
# Total GULP energy -234142.348951 kJ/mol
# GULP energy per Si atom -5574.817832 kJ/mol
# Density = 2.017257 g / cm^3
# Si number density = 20.218584 Si / 1000 Ang^3
#
#
#
# Elastic Constant Matrix: (Units=GPa)
#
#
# Indices 1 2 3 4 5 6 
#
# 1 78.0415 8.5511 30.9957 0.0000 0.0000 0.0000
# 2 8.5511 78.0415 30.9957 0.0000 0.0000 0.0000
# 3 30.9957 30.9957 127.6275 0.0000 0.0000 0.0000
# 4 0.0000 0.0000 0.0000 35.4795 0.0000 0.0000
# 5 0.0000 0.0000 0.0000 0.0000 35.4795 0.0000
# 6 0.0000 0.0000 0.0000 0.0000 0.0000 34.7452
#
#
#
# Elastic Compliance Matrix: (Units=1/GPa)
#
#
# Indices 1 2 3 4 5 6 
#
# 1 0.014185 -0.000206 -0.003395 0.000000 0.000000 0.000000
# 2 -0.000206 0.014185 -0.003395 0.000000 0.000000 0.000000
# 3 -0.003395 -0.003395 0.009484 0.000000 0.000000 0.000000
# 4 0.000000 0.000000 0.000000 0.028185 0.000000 0.000000
# 5 0.000000 0.000000 0.000000 0.000000 0.028185 0.000000
# 6 0.000000 0.000000 0.000000 0.000000 0.000000 0.028781
#
#
# Mechanical properties :
#
#
# Convention : Reuss Voigt Hill
#
# Bulk Modulus (GPa) = 41.90731 47.19948 44.55340
# Shear Modulus (GPa) = 34.49459 35.35206 34.92332
#
# Velocity S-wave (km/s) = 4.13496 4.18604 4.16057
# Velocity P-wave (km/s) = 6.60070 6.83807 6.72043
#
# Compressibility (1/GPa) = 0.02386218
#
# Stress axis : x y z
#
# Youngs Moduli (GPa) = 70.49902 70.49902 105.43775
#
# Poissons Ratio (x) = 0.01451 0.35795
# Poissons Ratio (y) = 0.01451 0.35795
# Poissons Ratio (z) = 0.23934 0.23934
#
# Static dielectric constant tensor:
#      x y z
#    x 1.718200 0.000000 0.000000 
#    y 0.000000 1.718200 0.000000 
#    z 0.000000 0.000000 1.743230 
# 
# From -- ./inp_files/5669.got.cif
#   From: 2010.05.17/outbox.cif.g08.bks.cpg/sg182_3_cif.got.tgz:5669.got - 2010.05.20 11:58:53.
