data_PCOD9584795
_publ_section_title
;
Structure prediction by ZEFSAII (Michael W. Deem and Ramdas Pophale) SiO2 
 PCOD9584795
Probable space group: P 63 2 2
;
_chemical_formula_sum "Si O2"
_cell_formula_units_Z 52
_cell_length_a 12.572170
_cell_length_b 12.572170
_cell_length_c 17.568911
_cell_angle_alpha 90.000000
_cell_angle_beta 90.000000
_cell_angle_gamma 120.000000
_cell_volume 2404.894141
_symmetry_space_group_name_H-M "P 63 2 2"
_symmetry_group_IT_number 182
_symmetry_cell_setting 'hexagonal'
loop_
_space_group_symop_operation_xyz
x,y,z
x-y,x,1/2+z
-y,x-y,z
-x,-y,1/2+z
-x+y,-x,z
y,-x+y,1/2+z
x-y,-y,-z
-x,-x+y,-z
y,x,-z
-y,-x,1/2-z
-x+y,y,1/2-z
x,x-y,1/2-z
loop_
_atom_site_type_symbol
_atom_site_label
_atom_site_fract_x
_atom_site_fract_y
_atom_site_fract_z
Si Si1 0.890085 0.445043 0.750000
Si Si2 0.167476 0.895305 0.838916
Si Si3 0.453271 0.000000 0.000000
Si Si4 0.000000 0.000000 0.156994
Si Si5 0.410488 0.263885 0.618532
Si Si6 0.010037 0.376549 0.623512
O O1 0.823046 0.483217 0.683365
O O2 0.978620 0.409100 0.705472
O O3 0.138367 0.861634 0.750000
O O4 0.067075 0.928611 0.868428
O O5 0.128375 0.767152 0.878099
O O6 0.295744 0.017377 0.852999
O O7 0.441905 0.110644 0.962946
O O8 0.513653 0.964848 0.931929
O O9 0.000000 0.000000 0.250000
O O10 0.374192 0.122185 0.608507
#
# Coordination Sequence:
#
# PCOD9584795 Si02
#       6
#     6  12   6   4  12  12
#     4  10  22  40  62  92 128 170 218 262 308 374
#     4  11  20  36  71 104 137 156 197 275 343 403
#     4  10  28  46  58  88 132 184 226 260 316 376
#     4   9  18  30  57 112 137 154 183 238 365 406
#     4  11  23  44  67  95 130 170 218 272 325 386
#     4  11  23  44  67  95 130 170 218 272 325 386
#
# _framework density 21.622572999999999
#
# number of rings (size 3 to 8) (size 9 to 14) (size 15 to 20)
#    0.000    1.385    4.615    0.692    3.231    0.000 
#   19.385    0.000    0.000    2.769    0.000    0.000 
#    0.000    0.000    0.000    0.000    0.000    0.000 
#
# Total GULP energy -289924.342272 kJ/mol
# GULP energy per Si atom -5575.468121 kJ/mol
# Density = 2.157336 g / cm^3
# Si number density = 21.622573 Si / 1000 Ang^3
#
#
#
# Elastic Constant Matrix: (Units=GPa)
#
#
# Indices 1 2 3 4 5 6 
#
# 1 77.4437 31.5807 28.3857 0.0000 0.0000 0.0000
# 2 31.5807 77.4437 28.3857 0.0000 0.0000 0.0000
# 3 28.3857 28.3857 87.0950 0.0000 0.0000 0.0000
# 4 0.0000 0.0000 0.0000 15.8930 0.0000 0.0000
# 5 0.0000 0.0000 0.0000 0.0000 15.8930 0.0000
# 6 0.0000 0.0000 0.0000 0.0000 0.0000 22.9315
#
#
#
# Elastic Compliance Matrix: (Units=1/GPa)
#
#
# Indices 1 2 3 4 5 6 
#
# 1 0.016426 -0.005379 -0.003600 0.000000 0.000000 0.000000
# 2 -0.005379 0.016426 -0.003600 0.000000 0.000000 0.000000
# 3 -0.003600 -0.003600 0.013829 0.000000 0.000000 0.000000
# 4 0.000000 0.000000 0.000000 0.062921 0.000000 0.000000
# 5 0.000000 0.000000 0.000000 0.000000 0.062921 0.000000
# 6 0.000000 0.000000 0.000000 0.000000 0.000000 0.043608
#
#
# Mechanical properties :
#
#
# Convention : Reuss Voigt Hill
#
# Bulk Modulus (GPa) = 46.46614 46.52074 46.49344
# Shear Modulus (GPa) = 20.12382 21.18552 20.65467
#
# Velocity S-wave (km/s) = 3.05402 3.13355 3.09404
# Velocity P-wave (km/s) = 5.82858 5.88675 5.85774
#
# Compressibility (1/GPa) = 0.02152105
#
# Stress axis : x y z
#
# Youngs Moduli (GPa) = 60.88064 60.88064 72.31395
#
# Poissons Ratio (x) = 0.32745 0.26036
# Poissons Ratio (y) = 0.32745 0.26036
# Poissons Ratio (z) = 0.21920 0.21920
#
# Static dielectric constant tensor:
#      x y z
#    x 1.803260 0.000000 0.000000 
#    y 0.000000 1.803260 0.000000 
#    z 0.000000 0.000000 1.874960 
# 
# From -- ./inp_files/4817.got.cif
#   From: 2010.05.17/outbox.cif.g08.bks.cpg/sg182_3_cif.got.tgz:4817.got - 2010.05.20 11:58:53.
