data_PCOD9584612
_publ_section_title
;
Structure prediction by ZEFSAII (Michael W. Deem and Ramdas Pophale) SiO2 
 PCOD9584612
Probable space group: P 63 2 2
;
_chemical_formula_sum "Si O2"
_cell_formula_units_Z 72
_cell_length_a 24.986496
_cell_length_b 24.986496
_cell_length_c 7.915966
_cell_angle_alpha 90.000000
_cell_angle_beta 90.000000
_cell_angle_gamma 120.000000
_cell_volume 4280.014748
_symmetry_space_group_name_H-M "P 63 2 2"
_symmetry_group_IT_number 182
_symmetry_cell_setting 'hexagonal'
loop_
_space_group_symop_operation_xyz
x,y,z
x-y,x,1/2+z
-y,x-y,z
-x,-y,1/2+z
-x+y,-x,z
y,-x+y,1/2+z
x-y,-y,-z
-x,-x+y,-z
y,x,-z
-y,-x,1/2-z
-x+y,y,1/2-z
x,x-y,1/2-z
loop_
_atom_site_type_symbol
_atom_site_label
_atom_site_fract_x
_atom_site_fract_y
_atom_site_fract_z
Si Si1 0.510026 0.371795 0.543023
Si Si2 0.631700 0.702266 0.451393
Si Si3 0.259724 0.740276 0.441824
Si Si4 0.808530 0.191470 0.057098
Si Si5 0.368300 0.297733 0.548608
Si Si6 0.628205 0.489974 0.543023
O O1 0.533821 0.325101 0.483693
O O2 0.439147 0.343849 0.488234
O O3 0.558807 0.441192 0.491073
O O4 0.509452 0.369888 0.750000
O O5 0.675152 0.675152 0.500000
O O6 0.650957 0.769803 0.522343
O O7 0.629907 0.705477 0.250001
O O8 0.560853 0.656151 0.511768
O O9 0.271749 0.728252 0.250000
O O10 0.222151 0.777849 0.441570
O O11 0.325101 0.791279 0.516307
O O12 0.797640 0.202361 0.250000
O O13 0.881154 0.230197 0.022340
O O14 0.324848 0.324848 0.500000
#
# Coordination Sequence:
#
# PCOD9584612 Si02
#       6
#    12  12  12  12  12  12
#     4   8  14  25  40  59  85 114 146 188 236 282
#     4  10  19  31  47  67  91 119 151 187 227 275
#     4   8  14  26  42  58  80 110 144 183 230 281
#     4  10  18  30  48  66  86 114 147 181 220 267
#     4  10  19  31  47  67  91 119 151 187 227 275
#     4   8  14  25  40  59  85 114 146 188 236 282
#
# _framework density 16.822372999999999
#
# number of rings (size 3 to 8) (size 9 to 14) (size 15 to 20)
#    0.000    3.000    0.000    4.500    0.000    0.667 
#    1.000    0.000    0.000   24.000    0.000    0.000 
#    0.000    0.000    0.000    0.500    0.000    7.000 
#
# Total GULP energy -400828.285155 kJ/mol
# GULP energy per Si atom -5567.059516 kJ/mol
# Density = 1.678408 g / cm^3
# Si number density = 16.822373 Si / 1000 Ang^3
#
#
#
# Elastic Constant Matrix: (Units=GPa)
#
#
# Indices 1 2 3 4 5 6 
#
# 1 93.4379 61.7519 10.4445 0.0000 0.0000 0.0000
# 2 61.7519 93.4379 10.4445 0.0000 0.0000 0.0000
# 3 10.4445 10.4445 42.3807 0.0000 0.0000 0.0000
# 4 0.0000 0.0000 0.0000 9.9869 0.0000 0.0000
# 5 0.0000 0.0000 0.0000 0.0000 9.9869 0.0000
# 6 0.0000 0.0000 0.0000 0.0000 0.0000 15.8430
#
#
#
# Elastic Compliance Matrix: (Units=1/GPa)
#
#
# Indices 1 2 3 4 5 6 
#
# 1 0.019112 -0.012447 -0.001643 0.000000 0.000000 0.000000
# 2 -0.012447 0.019112 -0.001643 0.000000 0.000000 0.000000
# 3 -0.001643 -0.001643 0.024405 0.000000 0.000000 0.000000
# 4 0.000000 0.000000 0.000000 0.100131 0.000000 0.000000
# 5 0.000000 0.000000 0.000000 0.000000 0.100131 0.000000
# 6 0.000000 0.000000 0.000000 0.000000 0.000000 0.063119
#
#
# Mechanical properties :
#
#
# Convention : Reuss Voigt Hill
#
# Bulk Modulus (GPa) = 32.08749 43.83758 37.96253
# Shear Modulus (GPa) = 13.59195 16.93772 15.26484
#
# Velocity S-wave (km/s) = 2.84556 3.17654 3.01560
# Velocity P-wave (km/s) = 5.46919 6.29043 5.89413
#
# Compressibility (1/GPa) = 0.03116480
#
# Stress axis : x y z
#
# Youngs Moduli (GPa) = 52.32242 52.32242 40.97487
#
# Poissons Ratio (x) = 0.65128 0.06730
# Poissons Ratio (y) = 0.65128 0.06730
# Poissons Ratio (z) = 0.08594 0.08594
#
# Static dielectric constant tensor:
#      x y z
#    x 1.581710 0.000000 0.000000 
#    y 0.000000 1.581710 0.000000 
#    z 0.000000 0.000000 1.621050 
# 
# From -- ./inp_files/1913.got.cif
#   From: 2010.05.17/outbox.cif.g08.bks.cpg/sg182_1_cif.got.tgz:1913.got - 2010.05.20 11:58:53.
