data_PCOD9584653
_publ_section_title
;
Structure prediction by ZEFSAII (Michael W. Deem and Ramdas Pophale) SiO2 
 PCOD9584653
Probable space group: P 63 2 2
;
_chemical_formula_sum "Si O2"
_cell_formula_units_Z 80
_cell_length_a 16.722963
_cell_length_b 16.722963
_cell_length_c 15.429037
_cell_angle_alpha 90.000000
_cell_angle_beta 90.000000
_cell_angle_gamma 120.000000
_cell_volume 3736.766062
_symmetry_space_group_name_H-M "P 63 2 2"
_symmetry_group_IT_number 182
_symmetry_cell_setting 'hexagonal'
loop_
_space_group_symop_operation_xyz
x,y,z
x-y,x,1/2+z
-y,x-y,z
-x,-y,1/2+z
-x+y,-x,z
y,-x+y,1/2+z
x-y,-y,-z
-x,-x+y,-z
y,x,-z
-y,-x,1/2-z
-x+y,y,1/2-z
x,x-y,1/2-z
loop_
_atom_site_type_symbol
_atom_site_label
_atom_site_fract_x
_atom_site_fract_y
_atom_site_fract_z
Si Si1 0.000000 0.000000 0.105541
Si Si2 0.392661 0.285043 0.339465
Si Si3 0.171861 0.526339 0.524904
Si Si4 0.173644 0.988358 0.395544
Si Si5 0.333334 0.666668 0.645558
Si Si6 0.092327 0.706857 0.843992
Si Si7 0.222735 0.955431 0.093652
Si Si8 0.319823 0.468346 0.475023
O O1 0.102665 0.079376 0.131993
O O2 0.000000 0.000000 0.000000
O O3 0.410369 0.199351 0.340755
O O4 0.419681 0.339521 0.249757
O O5 0.282502 0.240691 0.345745
O O6 0.435479 0.334326 0.429750
O O7 0.234298 0.597734 0.602089
O O8 0.088262 0.440980 0.573612
O O9 0.238426 0.493647 0.481657
O O10 0.146894 0.584905 0.459488
O O11 0.116046 0.879256 0.378107
O O12 0.185089 0.000000 0.500000
O O13 0.275772 0.034176 0.356945
O O14 0.333334 0.666667 0.750000
O O15 0.281652 0.903459 0.083475
O O16 0.222741 0.000000 0.000000
#
# Coordination Sequence:
#
# PCOD9584653 Si02
#       8
#     4  12  12  12   4  12  12  12
#     4   9  18  30  51  76 101 133 184 227 244 300
#     4   9  19  34  49  72 103 141 168 202 259 311
#     4   9  18  30  48  76 105 127 163 211 258 315
#     4  11  19  31  50  74  99 135 177 219 260 295
#     4   9  18  24  48  78  99 132 165 196 257 319
#     4  10  20  31  50  76 108 134 167 212 258 316
#     4  10  19  35  53  68  98 137 176 211 259 316
#     4   9  18  33  53  75 100 134 168 213 259 314
#
# _framework density 21.408887
#
# number of rings (size 3 to 8) (size 9 to 14) (size 15 to 20)
#    0.000    2.400    0.000    5.250    6.300    0.600 
#    0.000    6.750    0.000    1.800    0.000    0.000 
#    0.000    0.000    0.000    0.000    0.000    0.000 
#
# Total GULP energy -446217.040937 kJ/mol
# GULP energy per Si atom -5577.713012 kJ/mol
# Density = 2.136016 g / cm^3
# Si number density = 21.408887 Si / 1000 Ang^3
#
#
#
# Elastic Constant Matrix: (Units=GPa)
#
#
# Indices 1 2 3 4 5 6 
#
# 1 66.9167 7.5982 -8.9052 0.0000 0.0000 0.0000
# 2 7.5982 66.9173 -8.9053 0.0000 0.0001 0.0002
# 3 -8.9052 -8.9053 18.1826 0.0000 0.0000 0.0000
# 4 0.0000 0.0000 0.0000 6.2778 0.0000 0.0000
# 5 0.0000 0.0001 0.0000 0.0000 6.2778 0.0000
# 6 0.0000 0.0002 0.0000 0.0000 0.0000 29.6593
#
#
#
# Elastic Compliance Matrix: (Units=1/GPa)
#
#
# Indices 1 2 3 4 5 6 
#
# 1 0.016029 -0.000829 0.007444 0.000000 0.000000 0.000000
# 2 -0.000829 0.016029 0.007444 0.000000 0.000000 0.000000
# 3 0.007444 0.007444 0.062290 0.000000 0.000000 0.000000
# 4 0.000000 0.000000 0.000000 0.159292 0.000001 0.000000
# 5 0.000000 0.000000 0.000000 0.000001 0.159292 0.000000
# 6 0.000000 0.000000 0.000000 0.000000 0.000000 0.033716
#
#
# Mechanical properties :
#
#
# Convention : Reuss Voigt Hill
#
# Bulk Modulus (GPa) = 8.16559 14.62131 11.39345
# Shear Modulus (GPa) = 10.88493 19.25823 15.07158
#
# Velocity S-wave (km/s) = 2.25729 3.00249 2.65615
# Velocity P-wave (km/s) = 3.25825 4.34331 3.83930
#
# Compressibility (1/GPa) = 0.12246511
#
# Stress axis : x y z
#
# Youngs Moduli (GPa) = 62.38774 62.38824 16.05405
#
# Poissons Ratio (x) = 0.05174 -0.11951
# Poissons Ratio (y) = 0.05174 -0.11951
# Poissons Ratio (z) = -0.46443 -0.46443
#
# Static dielectric constant tensor:
#      x y z
#    x 1.830720 0.000000 0.000000 
#    y 0.000000 1.830720 0.000000 
#    z 0.000000 0.000000 1.862880 
# 
# From -- ./inp_files/4493.got.cif
#   From: 2010.05.17/outbox.cif.g08.bks.cpg/sg182_3_cif.got.tgz:4493.got - 2010.05.20 11:58:53.
