data_PCOD9584956
_publ_section_title
;
Structure prediction by ZEFSAII (Michael W. Deem and Ramdas Pophale) SiO2 
 PCOD9584956
Probable space group: P 6 M M
;
_chemical_formula_sum "Si O2"
_cell_formula_units_Z 96
_cell_length_a 23.122394
_cell_length_b 23.122394
_cell_length_c 12.582563
_cell_angle_alpha 90.000000
_cell_angle_beta 90.000000
_cell_angle_gamma 120.000000
_cell_volume 5825.931039
_symmetry_space_group_name_H-M "P 6 M M"
_symmetry_group_IT_number 183
_symmetry_cell_setting 'hexagonal'
loop_
_space_group_symop_operation_xyz
x,y,z
x-y,x,z
-y,x-y,z
-x,-y,z
-x+y,-x,z
y,-x+y,z
-x+y,y,z
x,x-y,z
-y,-x,z
y,x,z
x-y,-y,z
-x,-x+y,z
loop_
_atom_site_type_symbol
_atom_site_label
_atom_site_fract_x
_atom_site_fract_y
_atom_site_fract_z
Si Si1 0.524079 0.694915 0.004150
Si Si2 0.717909 0.923495 0.829870
Si Si3 0.711297 0.561344 0.773124
Si Si4 0.324672 0.250459 0.064058
Si Si5 0.470901 0.390526 0.581207
Si Si6 0.280488 0.076133 0.302736
Si Si7 0.146248 0.719552 0.398316
Si Si8 0.663801 0.464051 0.218664
O O1 0.505735 0.752868 0.993270
O O2 0.599427 0.729312 0.048025
O O3 0.479975 0.649561 0.099974
O O4 0.527020 0.674182 0.884022
O O5 0.738801 0.869401 0.796700
O O6 0.641651 0.895016 0.790237
O O7 0.764866 0.000000 0.796049
O O8 0.713151 0.922679 0.958855
O O9 0.774215 0.548430 0.755800
O O10 0.657067 0.537771 0.680836
O O11 0.314719 0.314719 0.063688
O O12 0.297116 0.215406 0.176493
O O13 0.545996 0.454005 0.573149
O O14 0.422058 0.422058 0.589626
O O15 0.450389 0.340247 0.481452
O O16 0.256404 0.128202 0.328715
O O17 0.349863 0.100402 0.364517
O O18 0.229016 0.000000 0.327357
O O19 0.217528 0.782473 0.436321
O O20 0.162372 0.690710 0.293052
O O21 0.723841 0.447682 0.212752
O O22 0.598039 0.401962 0.264534
#
# Coordination Sequence:
#
# PCOD9584956 Si02
#       8
#    12  12  12  12  12  12  12  12
#     4   9  16  29  48  70  96 124 158 199 244 292
#     4   9  16  26  44  70  98 127 161 203 246 288
#     4   9  18  33  54  74  94 124 165 208 246 286
#     4   9  15  24  42  67  96 125 157 197 241 286
#     4  11  23  37  52  70  98 132 163 198 244 302
#     4  10  18  29  48  73 100 128 161 201 242 286
#     4  10  20  35  55  73  94 126 166 209 247 286
#     4  10  19  31  49  72  98 126 158 199 248 300
#
# _framework density 16.478052999999999
#
# number of rings (size 3 to 8) (size 9 to 14) (size 15 to 20)
#    0.000    2.375    1.250    3.500    0.000    1.000 
#    0.000    0.000    0.000    4.125    0.000    0.000 
#    0.000    3.000    0.000    0.000    0.000   26.000 
#
# Total GULP energy -534595.904684 kJ/mol
# GULP energy per Si atom -5568.707340 kJ/mol
# Density = 1.644055 g / cm^3
# Si number density = 16.478053 Si / 1000 Ang^3
#
#
#
# Elastic Constant Matrix: (Units=GPa)
#
#
# Indices 1 2 3 4 5 6 
#
# 1 92.7218 52.0546 41.2278 0.0000 0.0000 0.0000
# 2 52.0546 92.7218 41.2278 0.0000 0.0000 0.0000
# 3 41.2278 41.2278 71.9416 0.0000 0.0000 0.0000
# 4 0.0000 0.0000 0.0000 15.1740 0.0000 0.0000
# 5 0.0000 0.0000 0.0000 0.0000 15.1740 0.0000
# 6 0.0000 0.0000 0.0000 0.0000 0.0000 20.3336
#
#
#
# Elastic Compliance Matrix: (Units=1/GPa)
#
#
# Indices 1 2 3 4 5 6 
#
# 1 0.017422 -0.007168 -0.005876 0.000000 0.000000 0.000000
# 2 -0.007168 0.017422 -0.005876 0.000000 0.000000 0.000000
# 3 -0.005876 -0.005876 0.020635 0.000000 0.000000 0.000000
# 4 0.000000 0.000000 0.000000 0.065902 0.000000 0.000000
# 5 0.000000 0.000000 0.000000 0.000000 0.065902 0.000000
# 6 0.000000 0.000000 0.000000 0.000000 0.000000 0.049180
#
#
# Mechanical properties :
#
#
# Convention : Reuss Voigt Hill
#
# Bulk Modulus (GPa) = 56.69553 58.48950 57.59252
# Shear Modulus (GPa) = 17.84545 18.32799 18.08672
#
# Velocity S-wave (km/s) = 3.29444 3.33868 3.31664
# Velocity P-wave (km/s) = 6.99661 7.10175 7.04938
#
# Compressibility (1/GPa) = 0.01763807
#
# Stress axis : x y z
#
# Youngs Moduli (GPa) = 57.39907 57.39907 48.46090
#
# Poissons Ratio (x) = 0.41143 0.28477
# Poissons Ratio (y) = 0.41143 0.28477
# Poissons Ratio (z) = 0.33729 0.33729
#
# Static dielectric constant tensor:
#      x y z
#    x 1.551340 0.000000 0.000000 
#    y 0.000000 1.551340 0.000000 
#    z 0.000000 0.000000 1.576970 
# 
# From -- ./inp_files/2072.got.cif
#   From: 2010.05.17/outbox.cif.g08.bks.cpg/sg183_2_cif.got.tgz:2072.got - 2010.05.20 12:02:58.
