data_PCOD9584390
_publ_section_title
;
Structure prediction by ZEFSAII (Michael W. Deem and Ramdas Pophale) SiO2 
 PCOD9584390
Probable space group: P 64 2 2
;
_chemical_formula_sum "Si O2"
_cell_formula_units_Z 72
_cell_length_a 11.708394
_cell_length_b 11.708394
_cell_length_c 30.567588
_cell_angle_alpha 90.000000
_cell_angle_beta 90.000000
_cell_angle_gamma 120.000000
_cell_volume 3628.995752
_symmetry_space_group_name_H-M "P 64 2 2"
_symmetry_group_IT_number 181
_symmetry_cell_setting 'hexagonal'
loop_
_space_group_symop_operation_xyz
x,y,z
x-y,x,2/3+z
-y,x-y,1/3+z
-x,-y,z
-x+y,-x,2/3+z
y,-x+y,1/3+z
x-y,-y,-z
-x,-x+y,2/3-z
y,x,1/3-z
-y,-x,1/3-z
-x+y,y,-z
x,x-y,2/3-z
loop_
_atom_site_type_symbol
_atom_site_label
_atom_site_fract_x
_atom_site_fract_y
_atom_site_fract_z
Si Si1 0.500000 0.500000 0.536674
Si Si2 0.359085 0.278002 0.598692
Si Si3 0.023413 0.876480 0.882407
Si Si4 0.159773 0.591236 0.583989
Si Si5 0.298002 0.195666 0.381942
Si Si6 0.798898 0.602097 0.358348
Si Si7 0.735698 0.264303 0.166667
O O1 0.472697 0.375865 0.566412
O O2 0.645266 0.539075 0.514709
O O3 0.395740 0.214850 0.639510
O O4 0.302537 0.365669 0.620360
O O5 0.247910 0.164746 0.568821
O O6 0.919311 0.779454 0.917263
O O7 0.000000 0.819522 0.833334
O O8 0.000000 0.000000 0.880705
O O9 0.169027 0.723599 0.600324
O O10 0.202440 0.527364 0.622642
O O11 0.247605 0.601574 0.542148
O O12 0.000000 0.500000 0.574557
O O13 0.296192 0.148096 0.333334
O O14 0.229589 0.284941 0.376433
#
# Coordination Sequence:
#
# PCOD9584390 Si02
#       7
#     6  12  12  12  12  12   6
#     4  12  28  43  72  98 144 184 232 296 355 432
#     4  11  23  41  68 101 133 176 227 290 353 409
#     4  11  24  39  66 102 142 178 227 293 351 416
#     4  10  23  41  66  97 132 176 232 283 345 424
#     4  11  22  41  69  98 134 188 226 287 356 419
#     4  10  21  40  67  99 135 169 230 289 345 411
#     4  12  24  46  66 101 133 188 228 292 356 426
#
# _framework density 19.840201
#
# number of rings (size 3 to 8) (size 9 to 14) (size 15 to 20)
#    0.000    1.167    5.833    0.000    2.333    4.333 
#    0.000    0.000    0.000    1.000    0.000    0.000 
#    0.000    0.000    0.000    0.000    0.000    0.000 
#
# Total GULP energy -401172.114318 kJ/mol
# GULP energy per Si atom -5571.834921 kJ/mol
# Density = 1.979504 g / cm^3
# Si number density = 19.840201 Si / 1000 Ang^3
#
#
#
# Elastic Constant Matrix: (Units=GPa)
#
#
# Indices 1 2 3 4 5 6 
#
# 1 81.5993 31.3002 45.1936 0.0000 0.0000 0.0000
# 2 31.3002 81.5993 45.1936 0.0000 0.0000 0.0000
# 3 45.1936 45.1936 141.4657 0.0000 0.0000 0.0000
# 4 0.0000 0.0000 0.0000 -117.9630 0.0000 0.0000
# 5 0.0000 0.0000 0.0000 0.0000 -117.9631 0.0000
# 6 0.0000 0.0000 0.0000 0.0000 0.0000 25.1496
#
#
#
# Elastic Compliance Matrix: (Units=1/GPa)
#
#
# Indices 1 2 3 4 5 6 
#
# 1 0.015891 -0.003990 -0.003802 0.000000 0.000000 0.000000
# 2 -0.003990 0.015891 -0.003802 0.000000 0.000000 0.000000
# 3 -0.003802 -0.003802 0.009498 0.000000 0.000000 0.000000
# 4 0.000000 0.000000 0.000000 -0.008477 0.000000 0.000000
# 5 0.000000 0.000000 0.000000 0.000000 -0.008477 0.000000
# 6 0.000000 0.000000 0.000000 0.000000 0.000000 0.039762
#
#
# Mechanical properties :
#
#
# Convention : Reuss Voigt Hill
#
# Bulk Modulus (GPa) = 55.27145 60.89325 58.08235
# Shear Modulus (GPa) = 53.58644 -29.95685 11.81480
#
# Velocity S-wave (km/s) = 5.20266 -3.88997 2.44293
# Velocity P-wave (km/s) = 8.00056 3.25310 6.10703
#
# Compressibility (1/GPa) = 0.01809252
#
# Stress axis : x y z
#
# Youngs Moduli (GPa) = 62.92780 62.92780 105.28375
#
# Poissons Ratio (x) = 0.25107 0.40030
# Poissons Ratio (y) = 0.25107 0.40030
# Poissons Ratio (z) = 0.23926 0.23926
#
# Static dielectric constant tensor:
#      x y z
#    x 2.085240 0.000000 0.000000 
#    y 0.000000 2.085240 0.000000 
#    z 0.000000 0.000000 1.732570 
# 
# From -- ./inp_files/12395.got.cif
#   From: 2010.05.17/outbox.cif.g08.bks.cpg/sg181_7_cif.got.tgz:12395.got - 2010.05.20 11:51:17.
