data_PCOD9584118
_publ_section_title
;
Structure prediction by ZEFSAII (Michael W. Deem and Ramdas Pophale) SiO2 
 PCOD9584118
Probable space group: P 62 2 2
;
_chemical_formula_sum "Si O2"
_cell_formula_units_Z 36
_cell_length_a 10.973859
_cell_length_b 10.973859
_cell_length_c 16.836790
_cell_angle_alpha 90.000000
_cell_angle_beta 90.000000
_cell_angle_gamma 120.000000
_cell_volume 1755.935982
_symmetry_space_group_name_H-M "P 62 2 2"
_symmetry_group_IT_number 180
_symmetry_cell_setting 'hexagonal'
loop_
_space_group_symop_operation_xyz
x,y,z
x-y,x,1/3+z
-y,x-y,2/3+z
-x,-y,z
-x+y,-x,1/3+z
y,-x+y,2/3+z
x-y,-y,-z
-x,-x+y,1/3-z
y,x,2/3-z
-y,-x,2/3-z
-x+y,y,-z
x,x-y,1/3-z
loop_
_atom_site_type_symbol
_atom_site_label
_atom_site_fract_x
_atom_site_fract_y
_atom_site_fract_z
Si Si1 0.154265 0.377283 0.141814
Si Si2 0.441261 0.802303 0.372815
Si Si3 0.928251 0.338430 0.875941
O O1 0.151142 0.483093 0.074978
O O2 0.207619 0.475245 0.219606
O O3 0.253285 0.313963 0.122788
O O4 0.000000 0.259695 0.166667
O O5 0.347201 0.652800 0.333334
O O6 0.537547 0.890043 0.299805
O O7 0.787993 0.212008 0.833334
O O8 0.000000 0.500000 0.842053
#
# Coordination Sequence:
#
# PCOD9584118 Si02
#       3
#    12  12  12
#     4  11  25  41  67 105 139 192 244 297 373 442
#     4  11  22  42  71 100 140 186 247 300 361 438
#     4  12  25  44  71 104 145 190 242 308 369 442
#
# _framework density 20.501888000000001
#
# number of rings (size 3 to 8) (size 9 to 14) (size 15 to 20)
#    0.000    0.667    3.333    6.000    0.000    2.000 
#    0.000    3.333    0.000    4.000    0.000    0.000 
#    0.000    0.000    0.000    0.000    0.000    0.000 
#
# Total GULP energy -200901.343552 kJ/mol
# GULP energy per Si atom -5580.592876 kJ/mol
# Density = 2.045522 g / cm^3
# Si number density = 20.501888 Si / 1000 Ang^3
#
#
#
# Elastic Constant Matrix: (Units=GPa)
#
#
# Indices 1 2 3 4 5 6 
#
# 1 125.5831 83.5820 76.4720 0.0000 0.0000 0.0000
# 2 83.5820 125.5831 76.4720 0.0000 0.0000 0.0000
# 3 76.4720 76.4720 150.8671 0.0000 0.0000 0.0000
# 4 0.0000 0.0000 0.0000 15.2808 0.0000 0.0000
# 5 0.0000 0.0000 0.0000 0.0000 15.2808 0.0000
# 6 0.0000 0.0000 0.0000 0.0000 0.0000 21.0006
#
#
#
# Elastic Compliance Matrix: (Units=1/GPa)
#
#
# Indices 1 2 3 4 5 6 
#
# 1 0.015703 -0.008106 -0.003851 0.000000 0.000000 0.000000
# 2 -0.008106 0.015703 -0.003851 0.000000 0.000000 0.000000
# 3 -0.003851 -0.003851 0.010532 0.000000 0.000000 0.000000
# 4 0.000000 0.000000 0.000000 0.065442 0.000000 0.000000
# 5 0.000000 0.000000 0.000000 0.000000 0.065442 0.000000
# 6 0.000000 0.000000 0.000000 0.000000 0.000000 0.047618
#
#
# Mechanical properties :
#
#
# Convention : Reuss Voigt Hill
#
# Bulk Modulus (GPa) = 96.87371 97.23173 97.05272
# Shear Modulus (GPa) = 19.56993 21.34623 20.45808
#
# Velocity S-wave (km/s) = 3.09292 3.23024 3.16232
# Velocity P-wave (km/s) = 7.75297 7.83845 7.79583
#
# Compressibility (1/GPa) = 0.01032272
#
# Stress axis : x y z
#
# Youngs Moduli (GPa) = 63.68341 63.68341 94.94988
#
# Poissons Ratio (x) = 0.51623 0.36561
# Poissons Ratio (y) = 0.51623 0.36561
# Poissons Ratio (z) = 0.24521 0.24521
#
# Static dielectric constant tensor:
#      x y z
#    x 1.799540 0.000000 0.000000 
#    y 0.000000 1.799540 0.000000 
#    z 0.000000 0.000000 1.699650 
# 
# From -- ./inp_files/7015.got.cif
#   From: 2010.05.17/outbox.cif.g08.bks.cpg/sg180_4_cif.got.tgz:7015.got - 2010.05.20 11:43:55.
