data_PCOD9584886
_publ_section_title
;
Structure prediction by ZEFSAII (Michael W. Deem and Ramdas Pophale) SiO2 
 PCOD9584886
Probable space group: P 63 2 2
;
_chemical_formula_sum "Si O2"
_cell_formula_units_Z 48
_cell_length_a 15.704358
_cell_length_b 15.704358
_cell_length_c 9.238286
_cell_angle_alpha 90.000000
_cell_angle_beta 90.000000
_cell_angle_gamma 120.000000
_cell_volume 1973.160481
_symmetry_space_group_name_H-M "P 63 2 2"
_symmetry_group_IT_number 182
_symmetry_cell_setting 'hexagonal'
loop_
_space_group_symop_operation_xyz
x,y,z
x-y,x,1/2+z
-y,x-y,z
-x,-y,1/2+z
-x+y,-x,z
y,-x+y,1/2+z
x-y,-y,-z
-x,-x+y,-z
y,x,-z
-y,-x,1/2-z
-x+y,y,1/2-z
x,x-y,1/2-z
loop_
_atom_site_type_symbol
_atom_site_label
_atom_site_fract_x
_atom_site_fract_y
_atom_site_fract_z
Si Si1 0.802390 0.899636 0.918783
Si Si2 0.521841 0.854143 0.193796
Si Si3 0.218501 0.425602 0.917350
Si Si4 0.950881 0.411021 0.136928
O O1 0.828853 0.914427 0.750000
O O2 0.689396 0.871783 0.927521
O O3 0.817771 0.817771 0.000000
O O4 0.870446 0.000000 0.000000
O O5 0.413507 0.827013 0.250000
O O6 0.553796 0.776898 0.250000
O O7 0.589337 0.963951 0.260501
O O8 0.520424 0.831086 0.023008
O O9 0.228003 0.456005 0.750000
O O10 0.122529 0.434867 0.947297
O O11 0.902691 0.451346 0.250000
O O12 0.000000 0.482605 0.000000
#
# Coordination Sequence:
#
# PCOD9584886 Si02
#       4
#    12  12  12  12
#     4  11  25  44  70 104 148 200 250 314 387 472
#     4  11  25  45  74 104 148 196 254 314 393 461
#     4  11  27  43  72 109 150 196 256 318 386 475
#     4  11  25  46  74 108 146 202 253 321 391 467
#
# _framework density 24.326454999999999
#
# number of rings (size 3 to 8) (size 9 to 14) (size 15 to 20)
#    0.000    1.000    2.500    2.000   14.000    0.000 
#    0.000    0.000    0.000    0.500    0.000    0.000 
#    0.000    0.000    0.000    0.000    0.000    0.000 
#
# Total GULP energy -267996.361895 kJ/mol
# GULP energy per Si atom -5583.257539 kJ/mol
# Density = 2.427109 g / cm^3
# Si number density = 24.326455 Si / 1000 Ang^3
#
#
#
# Elastic Constant Matrix: (Units=GPa)
#
#
# Indices 1 2 3 4 5 6 
#
# 1 83.7139 44.7903 49.9812 0.0000 0.0000 0.0000
# 2 44.7903 83.7139 49.9812 0.0000 0.0000 0.0000
# 3 49.9812 49.9812 208.1731 0.0000 0.0000 0.0000
# 4 0.0000 0.0000 0.0000 41.9012 0.0000 0.0000
# 5 0.0000 0.0000 0.0000 0.0000 41.9012 0.0000
# 6 0.0000 0.0000 0.0000 0.0000 0.0000 19.4618
#
#
#
# Elastic Compliance Matrix: (Units=1/GPa)
#
#
# Indices 1 2 3 4 5 6 
#
# 1 0.017630 -0.008061 -0.002297 0.000000 0.000000 0.000000
# 2 -0.008061 0.017630 -0.002297 0.000000 0.000000 0.000000
# 3 -0.002297 -0.002297 0.005907 0.000000 0.000000 0.000000
# 4 0.000000 0.000000 0.000000 0.023866 0.000000 0.000000
# 5 0.000000 0.000000 0.000000 0.000000 0.023866 0.000000
# 6 0.000000 0.000000 0.000000 0.000000 0.000000 0.051383
#
#
# Mechanical properties :
#
#
# Convention : Reuss Voigt Hill
#
# Bulk Modulus (GPa) = 63.07122 73.90069 68.48596
# Shear Modulus (GPa) = 29.26054 36.04271 32.65162
#
# Velocity S-wave (km/s) = 3.47194 3.85337 3.66762
# Velocity P-wave (km/s) = 6.48505 7.08820 6.79332
#
# Compressibility (1/GPa) = 0.01585509
#
# Stress axis : x y z
#
# Youngs Moduli (GPa) = 56.72088 56.72088 169.29314
#
# Poissons Ratio (x) = 0.45724 0.38895
# Poissons Ratio (y) = 0.45724 0.38895
# Poissons Ratio (z) = 0.13031 0.13031
#
# Static dielectric constant tensor:
#      x y z
#    x 2.052580 0.000000 0.000000 
#    y 0.000000 2.052580 0.000000 
#    z 0.000000 0.000000 2.023540 
# 
# From -- ./inp_files/1446.got.cif
#   From: 2010.05.17/outbox.cif.g08.bks.cpg/sg182_1_cif.got.tgz:1446.got - 2010.05.20 11:58:53.
