data_PCOD9584512
_publ_section_title
;
Structure prediction by ZEFSAII (Michael W. Deem and Ramdas Pophale) SiO2 
 PCOD9584512
Probable space group: P 64 2 2
;
_chemical_formula_sum "Si O2"
_cell_formula_units_Z 84
_cell_length_a 21.737278
_cell_length_b 21.737278
_cell_length_c 12.247776
_cell_angle_alpha 90.000000
_cell_angle_beta 90.000000
_cell_angle_gamma 120.000000
_cell_volume 5011.851401
_symmetry_space_group_name_H-M "P 64 2 2"
_symmetry_group_IT_number 181
_symmetry_cell_setting 'hexagonal'
loop_
_space_group_symop_operation_xyz
x,y,z
x-y,x,2/3+z
-y,x-y,1/3+z
-x,-y,z
-x+y,-x,2/3+z
y,-x+y,1/3+z
x-y,-y,-z
-x,-x+y,2/3-z
y,x,1/3-z
-y,-x,1/3-z
-x+y,y,-z
x,x-y,2/3-z
loop_
_atom_site_type_symbol
_atom_site_label
_atom_site_fract_x
_atom_site_fract_y
_atom_site_fract_z
Si Si1 0.226739 0.637813 0.212025
Si Si2 0.433384 0.056215 0.415958
Si Si3 0.233592 0.367975 0.818228
Si Si4 0.319553 0.983603 0.240703
Si Si5 0.272040 0.851111 0.096730
Si Si6 0.808544 0.486724 0.046694
Si Si7 0.927044 0.238331 0.873257
O O1 0.302258 0.697743 0.166667
O O2 0.235961 0.617981 0.333334
O O3 0.177878 0.673704 0.220138
O O4 0.194716 0.569193 0.134635
O O5 0.498496 0.131154 0.377514
O O6 0.377734 0.074844 0.475519
O O7 0.434800 0.000000 0.500000
O O8 0.393650 0.013025 0.306666
O O9 0.269587 0.322763 0.857151
O O10 0.253518 0.399120 0.695777
O O11 0.267960 0.437144 0.897034
O O12 0.148459 0.320104 0.820208
O O13 0.307743 0.929073 0.146738
O O14 0.259925 0.941425 0.333104
O O15 0.202326 0.797675 0.166667
O O16 0.730152 0.460303 0.000000
O O17 0.000000 0.243077 0.833334
#
# Coordination Sequence:
#
# PCOD9584512 Si02
#       7
#    12  12  12  12  12  12  12
#     4  11  24  41  57  80 105 139 190 250 297 347
#     4   8  17  32  55  81 111 133 177 226 275 335
#     4  11  19  33  57  81 111 148 185 223 280 340
#     4   9  19  31  53  81 106 147 186 218 273 335
#     4  11  21  36  56  74 108 147 183 230 289 331
#     4  11  20  35  60  84 105 145 189 233 293 349
#     4   9  17  31  52  84 117 138 172 227 272 323
#
# _framework density 16.760273999999999
#
# number of rings (size 3 to 8) (size 9 to 14) (size 15 to 20)
#    0.000    2.286    4.286    0.857    0.000    0.000 
#    0.000    2.857    0.000    3.429    0.000    0.000 
#    0.000    0.571    0.857    0.000    0.000    0.000 
#
# Total GULP energy -468063.888196 kJ/mol
# GULP energy per Si atom -5572.189145 kJ/mol
# Density = 1.672213 g / cm^3
# Si number density = 16.760274 Si / 1000 Ang^3
#
#
#
# Elastic Constant Matrix: (Units=GPa)
#
#
# Indices 1 2 3 4 5 6 
#
# 1 73.2705 65.0507 32.6696 0.0000 0.0000 0.0000
# 2 65.0507 73.2705 32.6696 0.0000 0.0000 0.0000
# 3 32.6696 32.6696 85.2510 0.0000 0.0000 0.0000
# 4 0.0000 0.0000 0.0000 9.3139 0.0000 0.0000
# 5 0.0000 0.0000 0.0000 0.0000 9.3139 0.0000
# 6 0.0000 0.0000 0.0000 0.0000 0.0000 4.1099
#
#
#
# Elastic Compliance Matrix: (Units=1/GPa)
#
#
# Indices 1 2 3 4 5 6 
#
# 1 0.065242 -0.056414 -0.003383 0.000000 0.000000 0.000000
# 2 -0.056414 0.065242 -0.003383 0.000000 0.000000 0.000000
# 3 -0.003383 -0.003383 0.014323 0.000000 0.000000 0.000000
# 4 0.000000 0.000000 0.000000 0.107366 0.000000 0.000000
# 5 0.000000 0.000000 0.000000 0.000000 0.107366 0.000000
# 6 0.000000 0.000000 0.000000 0.000000 0.000000 0.243313
#
#
# Mechanical properties :
#
#
# Convention : Reuss Voigt Hill
#
# Bulk Modulus (GPa) = 54.21103 54.73019 54.47061
# Shear Modulus (GPa) = 6.79938 11.30769 9.05354
#
# Velocity S-wave (km/s) = 2.01635 2.60026 2.32670
# Velocity P-wave (km/s) = 6.15110 6.46071 6.30780
#
# Compressibility (1/GPa) = 0.01844643
#
# Stress axis : x y z
#
# Youngs Moduli (GPa) = 15.32756 15.32756 69.81873
#
# Poissons Ratio (x) = 0.86470 0.23619
# Poissons Ratio (y) = 0.86470 0.23619
# Poissons Ratio (z) = 0.05185 0.05185
#
# Static dielectric constant tensor:
#      x y z
#    x 1.561910 0.000000 0.000000 
#    y 0.000000 1.561910 0.000000 
#    z 0.000000 0.000000 1.574890 
# 
# From -- ./inp_files/5090.got.cif
#   From: 2010.05.17/outbox.cif.g08.bks.cpg/sg181_3_cif.got.tgz:5090.got - 2010.05.20 11:51:17.
