data_PCOD9584325
_publ_section_title
;
Structure prediction by ZEFSAII (Michael W. Deem and Ramdas Pophale) SiO2 
 PCOD9584325
Probable space group: P 64 2 2
;
_chemical_formula_sum "Si O2"
_cell_formula_units_Z 60
_cell_length_a 16.849437
_cell_length_b 16.849437
_cell_length_c 12.915690
_cell_angle_alpha 90.000000
_cell_angle_beta 90.000000
_cell_angle_gamma 120.000000
_cell_volume 3175.550565
_symmetry_space_group_name_H-M "P 64 2 2"
_symmetry_group_IT_number 181
_symmetry_cell_setting 'hexagonal'
loop_
_space_group_symop_operation_xyz
x,y,z
x-y,x,2/3+z
-y,x-y,1/3+z
-x,-y,z
-x+y,-x,2/3+z
y,-x+y,1/3+z
x-y,-y,-z
-x,-x+y,2/3-z
y,x,1/3-z
-y,-x,1/3-z
-x+y,y,-z
x,x-y,2/3-z
loop_
_atom_site_type_symbol
_atom_site_label
_atom_site_fract_x
_atom_site_fract_y
_atom_site_fract_z
Si Si1 0.420010 0.134171 0.010514
Si Si2 0.980462 0.689185 0.117572
Si Si3 0.146812 0.853189 0.166667
Si Si4 0.303751 0.558347 0.833668
Si Si5 0.590571 0.795286 0.333334
Si Si6 0.911203 0.404119 0.150444
O O1 0.362540 0.071340 0.108296
O O2 0.506618 0.223575 0.057512
O O3 0.354780 0.149588 0.932232
O O4 0.467198 0.094214 0.935626
O O5 0.901094 0.652608 0.032593
O O6 0.039988 0.798032 0.135875
O O7 0.059012 0.662439 0.093031
O O8 0.297596 0.648798 0.833334
O O9 0.407776 0.585569 0.868796
O O10 0.227715 0.480308 0.906540
O O11 0.000000 0.500000 0.132700
#
# Coordination Sequence:
#
# PCOD9584325 Si02
#       6
#    12  12   6  12   6  12
#     4  10  22  35  56  86 117 144 194 255 301 344
#     4  10  22  38  59  85 118 154 199 251 313 368
#     4  10  20  36  66  90 105 144 205 258 306 356
#     4  11  25  34  52  82 124 164 207 245 293 367
#     4  10  22  42  54  78 124 172 192 242 320 378
#     4  11  19  33  54  79 109 155 203 260 297 324
#
# _framework density 18.894361
#
# number of rings (size 3 to 8) (size 9 to 14) (size 15 to 20)
#    0.000    1.600    4.000    3.000   11.200    0.000 
#    0.000    4.000    0.000    1.200    0.000    8.400 
#    0.000    0.000    0.000    0.000    0.000    0.000 
#
# Total GULP energy -334046.578296 kJ/mol
# GULP energy per Si atom -5567.442972 kJ/mol
# Density = 1.885136 g / cm^3
# Si number density = 18.894361 Si / 1000 Ang^3
#
#
#
# Elastic Constant Matrix: (Units=GPa)
#
#
# Indices 1 2 3 4 5 6 
#
# 1 110.5850 42.7297 30.2535 0.0000 0.0000 0.0000
# 2 42.7297 110.5850 30.2535 0.0000 0.0000 0.0000
# 3 30.2535 30.2535 41.6501 0.0000 0.0000 0.0000
# 4 0.0000 0.0000 0.0000 27.4809 0.0000 0.0000
# 5 0.0000 0.0000 0.0000 0.0000 27.4809 0.0000
# 6 0.0000 0.0000 0.0000 0.0000 0.0000 33.9276
#
#
#
# Elastic Compliance Matrix: (Units=1/GPa)
#
#
# Indices 1 2 3 4 5 6 
#
# 1 0.011941 -0.002797 -0.006642 0.000000 0.000000 0.000000
# 2 -0.002797 0.011941 -0.006642 0.000000 0.000000 0.000000
# 3 -0.006642 -0.006642 0.033658 0.000000 0.000000 0.000000
# 4 0.000000 0.000000 0.000000 0.036389 0.000000 0.000000
# 5 0.000000 0.000000 0.000000 0.000000 0.036389 0.000000
# 6 0.000000 0.000000 0.000000 0.000000 0.000000 0.029474
#
#
# Mechanical properties :
#
#
# Convention : Reuss Voigt Hill
#
# Bulk Modulus (GPa) = 39.40300 52.14374 45.77337
# Shear Modulus (GPa) = 24.94861 28.41679 26.68270
#
# Velocity S-wave (km/s) = 3.63771 3.88233 3.76201
# Velocity P-wave (km/s) = 6.20834 6.91043 6.56877
#
# Compressibility (1/GPa) = 0.02537878
#
# Stress axis : x y z
#
# Youngs Moduli (GPa) = 83.74850 83.74850 29.71024
#
# Poissons Ratio (x) = 0.23422 0.19733
# Poissons Ratio (y) = 0.23422 0.19733
# Poissons Ratio (z) = 0.55624 0.55624
#
# Static dielectric constant tensor:
#      x y z
#    x 1.716760 0.000000 0.000000 
#    y 0.000000 1.716760 0.000000 
#    z 0.000000 0.000000 1.721000 
# 
# From -- ./inp_files/4901.got.cif
#   From: 2010.05.17/outbox.cif.g08.bks.cpg/sg181_3_cif.got.tgz:4901.got - 2010.05.20 11:51:17.
