data_PCOD9584704
_publ_section_title
;
Structure prediction by ZEFSAII (Michael W. Deem and Ramdas Pophale) SiO2 
 PCOD9584704
Probable space group: P 63 2 2
;
_chemical_formula_sum "Si O2"
_cell_formula_units_Z 42
_cell_length_a 14.543847
_cell_length_b 14.543847
_cell_length_c 10.008393
_cell_angle_alpha 90.000000
_cell_angle_beta 90.000000
_cell_angle_gamma 120.000000
_cell_volume 1833.384589
_symmetry_space_group_name_H-M "P 63 2 2"
_symmetry_group_IT_number 182
_symmetry_cell_setting 'hexagonal'
loop_
_space_group_symop_operation_xyz
x,y,z
x-y,x,1/2+z
-y,x-y,z
-x,-y,1/2+z
-x+y,-x,z
y,-x+y,1/2+z
x-y,-y,-z
-x,-x+y,-z
y,x,-z
-y,-x,1/2-z
-x+y,y,1/2-z
x,x-y,1/2-z
loop_
_atom_site_type_symbol
_atom_site_label
_atom_site_fract_x
_atom_site_fract_y
_atom_site_fract_z
Si Si1 0.488493 0.976986 0.750000
Si Si2 0.904419 0.602954 0.905259
Si Si3 0.736899 0.577138 0.109389
Si Si4 0.228664 0.114332 0.750000
Si Si5 0.810290 0.000000 0.500000
O O1 0.584705 0.056226 0.843614
O O2 0.517166 0.905408 0.650286
O O3 0.918392 0.684566 0.788638
O O4 0.793048 0.546808 0.987663
O O5 0.000000 0.680430 0.000000
O O6 0.785788 0.571576 0.250000
O O7 0.782871 0.699143 0.067783
O O8 0.164054 0.108422 0.619608
#
# Coordination Sequence:
#
# PCOD9584704 Si02
#       5
#     6  12  12   6   6
#     4  12  24  42  72 103 152 206 247 336 390 460
#     4  11  23  41  70  98 142 191 256 309 388 459
#     4  11  23  42  67 103 137 194 261 296 388 466
#     4  10  20  38  62 101 136 182 251 312 372 476
#     4  10  20  36  66  94 142 172 250 316 362 466
#
# _framework density 22.908449000000001
#
# number of rings (size 3 to 8) (size 9 to 14) (size 15 to 20)
#    0.000    1.143    5.714    0.000    2.000    0.000 
#    0.857    0.000    0.000    2.286    0.000    0.000 
#  620.000    0.000    0.000    0.000    0.000    0.000 
#
# Total GULP energy -234068.411661 kJ/mol
# GULP energy per Si atom -5573.057421 kJ/mol
# Density = 2.285631 g / cm^3
# Si number density = 22.908449 Si / 1000 Ang^3
#
#
#
# Elastic Constant Matrix: (Units=GPa)
#
#
# Indices 1 2 3 4 5 6 
#
# 1 85.8127 25.0991 52.9380 0.0000 0.0000 0.0000
# 2 25.0991 85.8127 52.9380 0.0000 0.0000 0.0000
# 3 52.9380 52.9380 144.0828 0.0000 0.0000 0.0000
# 4 0.0000 0.0000 0.0000 41.1200 0.0000 0.0000
# 5 0.0000 0.0000 0.0000 0.0000 41.1200 0.0000
# 6 0.0000 0.0000 0.0000 0.0000 0.0000 30.3568
#
#
#
# Elastic Compliance Matrix: (Units=1/GPa)
#
#
# Indices 1 2 3 4 5 6 
#
# 1 0.015179 -0.001292 -0.005102 0.000000 0.000000 0.000000
# 2 -0.001292 0.015179 -0.005102 0.000000 0.000000 0.000000
# 3 -0.005102 -0.005102 0.010690 0.000000 0.000000 0.000000
# 4 0.000000 0.000000 0.000000 0.024319 0.000000 0.000000
# 5 0.000000 0.000000 0.000000 0.000000 0.024319 0.000000
# 6 0.000000 0.000000 0.000000 0.000000 0.000000 0.032942
#
#
# Mechanical properties :
#
#
# Convention : Reuss Voigt Hill
#
# Bulk Modulus (GPa) = 55.38825 64.18429 59.78627
# Shear Modulus (GPa) = 32.97336 34.83491 33.90414
#
# Velocity S-wave (km/s) = 3.79800 3.90374 3.85123
# Velocity P-wave (km/s) = 6.59269 6.95683 6.77721
#
# Compressibility (1/GPa) = 0.01805437
#
# Stress axis : x y z
#
# Youngs Moduli (GPa) = 65.88172 65.88172 93.54834
#
# Poissons Ratio (x) = 0.08512 0.47730
# Poissons Ratio (y) = 0.08512 0.47730
# Poissons Ratio (z) = 0.33614 0.33614
#
# Static dielectric constant tensor:
#      x y z
#    x 1.827670 0.000000 0.000000 
#    y 0.000000 1.827670 0.000000 
#    z 0.000000 0.000000 1.753120 
# 
# From -- ./inp_files/2332.got.cif
#   From: 2010.05.17/outbox.cif.g08.bks.cpg/sg182_2_cif.got.tgz:2332.got - 2010.05.20 11:58:53.
