data_PCOD9584228
_publ_section_title
;
Structure prediction by ZEFSAII (Michael W. Deem and Ramdas Pophale) SiO2 
 PCOD9584228
Probable space group: P 64 2 2
;
_chemical_formula_sum "Si O2"
_cell_formula_units_Z 48
_cell_length_a 25.703859
_cell_length_b 25.703859
_cell_length_c 5.065866
_cell_angle_alpha 90.000000
_cell_angle_beta 90.000000
_cell_angle_gamma 120.000000
_cell_volume 2898.551292
_symmetry_space_group_name_H-M "P 64 2 2"
_symmetry_group_IT_number 181
_symmetry_cell_setting 'hexagonal'
loop_
_space_group_symop_operation_xyz
x,y,z
x-y,x,2/3+z
-y,x-y,1/3+z
-x,-y,z
-x+y,-x,2/3+z
y,-x+y,1/3+z
x-y,-y,-z
-x,-x+y,2/3-z
y,x,1/3-z
-y,-x,1/3-z
-x+y,y,-z
x,x-y,2/3-z
loop_
_atom_site_type_symbol
_atom_site_label
_atom_site_fract_x
_atom_site_fract_y
_atom_site_fract_z
Si Si1 0.625037 0.134241 0.061589
Si Si2 0.508725 0.202989 0.457274
Si Si3 0.630385 0.848250 0.581752
Si Si4 0.623826 0.959954 0.746397
O O1 0.650303 0.185485 0.291585
O O2 0.637902 0.082677 0.161457
O O3 0.556340 0.112680 0.000000
O O4 0.660443 0.160554 0.789708
O O5 0.539298 0.269649 0.333334
O O6 0.442466 0.186883 0.556404
O O7 0.652832 0.826416 0.333334
O O8 0.647490 0.916603 0.632757
O O9 0.647094 0.823547 0.833334
O O10 0.626531 0.000000 0.500000
O O11 0.659129 0.000000 0.000000
#
# Coordination Sequence:
#
# PCOD9584228 Si02
#       4
#    12  12  12  12
#     4  11  22  35  50  71  96 127 159 186 238 318
#     4  10  18  33  54  71  85 109 152 202 238 274
#     4  10  18  32  52  72  90 116 156 194 230 275
#     4  11  21  34  50  72 101 128 157 198 245 287
#
# _framework density 16.559996999999999
#
# number of rings (size 3 to 8) (size 9 to 14) (size 15 to 20)
#    0.000    1.500    0.000   12.000    0.000    0.500 
#    0.000    3.750    0.000    7.500    0.000    0.000 
#    0.000    0.000    0.000    0.000    0.000    0.000 
#
# Total GULP energy -267709.157105 kJ/mol
# GULP energy per Si atom -5577.274106 kJ/mol
# Density = 1.652231 g / cm^3
# Si number density = 16.559997 Si / 1000 Ang^3
#
#
#
# Elastic Constant Matrix: (Units=GPa)
#
#
# Indices 1 2 3 4 5 6 
#
# 1 41.4892 30.8054 26.3637 0.0000 0.0000 0.0000
# 2 30.8054 41.4892 26.3637 0.0000 0.0000 0.0000
# 3 26.3637 26.3637 136.0651 0.0000 0.0000 0.0000
# 4 0.0000 0.0000 0.0000 37.0016 0.0000 0.0000
# 5 0.0000 0.0000 0.0000 0.0000 37.0016 0.0000
# 6 0.0000 0.0000 0.0000 0.0000 0.0000 5.3419
#
#
#
# Elastic Compliance Matrix: (Units=1/GPa)
#
#
# Indices 1 2 3 4 5 6 
#
# 1 0.054854 -0.038746 -0.003121 0.000000 0.000000 0.000000
# 2 -0.038746 0.054854 -0.003121 0.000000 0.000000 0.000000
# 3 -0.003121 -0.003121 0.008559 0.000000 0.000000 0.000000
# 4 0.000000 0.000000 0.000000 0.027026 0.000000 0.000000
# 5 0.000000 0.000000 0.000000 0.000000 0.027026 0.000000
# 6 0.000000 0.000000 0.000000 0.000000 0.000000 0.187200
#
#
# Mechanical properties :
#
#
# Convention : Reuss Voigt Hill
#
# Bulk Modulus (GPa) = 35.34622 42.90104 39.12363
# Shear Modulus (GPa) = 10.89501 24.90307 17.89904
#
# Velocity S-wave (km/s) = 2.56776 3.88210 3.29121
# Velocity P-wave (km/s) = 5.49380 6.78653 6.17409
#
# Compressibility (1/GPa) = 0.02829157
#
# Stress axis : x y z
#
# Youngs Moduli (GPa) = 18.23011 18.23011 116.83693
#
# Poissons Ratio (x) = 0.70634 0.36467
# Poissons Ratio (y) = 0.70634 0.36467
# Poissons Ratio (z) = 0.05690 0.05690
#
# Static dielectric constant tensor:
#      x y z
#    x 1.573990 0.000000 0.000000 
#    y 0.000000 1.573990 0.000000 
#    z 0.000000 0.000000 1.575980 
# 
# From -- ./inp_files/1113.got.cif
#   From: 2010.05.17/outbox.cif.g08.bks.cpg/sg181_1_cif.got.tgz:1113.got - 2010.05.20 11:51:17.
