data_PCOD9584056
_publ_section_title
;
Structure prediction by ZEFSAII (Michael W. Deem and Ramdas Pophale) SiO2 
 PCOD9584056
Probable space group: P 62 2 2
;
_chemical_formula_sum "Si O2"
_cell_formula_units_Z 72
_cell_length_a 15.189181
_cell_length_b 15.189181
_cell_length_c 17.319682
_cell_angle_alpha 90.000000
_cell_angle_beta 90.000000
_cell_angle_gamma 120.000000
_cell_volume 3460.503240
_symmetry_space_group_name_H-M "P 62 2 2"
_symmetry_group_IT_number 180
_symmetry_cell_setting 'hexagonal'
loop_
_space_group_symop_operation_xyz
x,y,z
x-y,x,1/3+z
-y,x-y,2/3+z
-x,-y,z
-x+y,-x,1/3+z
y,-x+y,2/3+z
x-y,-y,-z
-x,-x+y,1/3-z
y,x,2/3-z
-y,-x,2/3-z
-x+y,y,-z
x,x-y,1/3-z
loop_
_atom_site_type_symbol
_atom_site_label
_atom_site_fract_x
_atom_site_fract_y
_atom_site_fract_z
Si Si1 0.591007 0.375695 0.613312
Si Si2 0.747691 0.153779 0.669778
Si Si3 0.927312 0.813305 0.366374
Si Si4 0.214291 0.785317 0.170186
Si Si5 0.877998 0.791514 0.895829
Si Si6 0.614876 0.565702 0.936807
O O1 0.629348 0.314674 0.666667
O O2 0.682133 0.492356 0.612373
O O3 0.531020 0.311147 0.537503
O O4 0.498107 0.368963 0.662987
O O5 0.838224 0.145060 0.710033
O O6 0.789114 0.215866 0.589121
O O7 0.666677 0.040828 0.640148
O O8 0.867979 0.867979 0.333334
O O9 0.015888 0.829883 0.304931
O O10 0.001891 0.871928 0.436803
O O11 0.183931 0.864109 0.210189
O O12 0.114033 0.684370 0.199869
O O13 0.818416 0.818416 0.833334
O O14 0.500000 0.500000 0.914237
#
# Coordination Sequence:
#
# PCOD9584056 Si02
#       6
#    12  12  12  12  12  12
#     4   9  21  33  55  88 125 168 205 263 329 402
#     4  11  20  37  56  86 124 167 216 269 322 394
#     4  11  24  37  58  91 125 175 222 272 326 397
#     4  11  19  33  56  89 125 167 204 255 340 407
#     4  11  20  37  59  90 133 168 207 260 340 414
#     4   9  17  29  49  83 122 154 191 248 323 394
#
# _framework density 20.806224
#
# number of rings (size 3 to 8) (size 9 to 14) (size 15 to 20)
#    0.000    1.667    3.333    2.500    4.667    9.333 
#    0.000    0.000    0.000    4.500   13.000    0.000 
#    0.000    0.000    0.000    0.000    0.000    0.000 
#
# Total GULP energy -401035.886881 kJ/mol
# GULP energy per Si atom -5569.942873 kJ/mol
# Density = 2.075887 g / cm^3
# Si number density = 20.806224 Si / 1000 Ang^3
#
#
#
# Elastic Constant Matrix: (Units=GPa)
#
#
# Indices 1 2 3 4 5 6 
#
# 1 47.2367 119.5587 4.3722 0.0000 0.0000 0.0000
# 2 119.5587 47.2367 4.3722 0.0000 0.0000 0.0000
# 3 4.3722 4.3722 11.9894 0.0000 0.0000 0.0000
# 4 0.0000 0.0000 0.0000 14.1313 0.0000 0.0000
# 5 0.0000 0.0000 0.0000 0.0000 14.1313 0.0000
# 6 0.0000 0.0000 0.0000 0.0000 0.0000 -36.1610
#
#
#
# Elastic Compliance Matrix: (Units=1/GPa)
#
#
# Indices 1 2 3 4 5 6 
#
# 1 -0.003857 0.009970 -0.002229 0.000000 0.000000 0.000000
# 2 0.009970 -0.003857 -0.002229 0.000000 0.000000 0.000000
# 3 -0.002229 -0.002229 0.085033 0.000000 0.000000 0.000000
# 4 0.000000 0.000000 0.000000 0.070765 0.000000 0.000000
# 5 0.000000 0.000000 0.000000 0.000000 0.070765 0.000000
# 6 0.000000 0.000000 0.000000 0.000000 0.000000 -0.027654
#
#
# Mechanical properties :
#
#
# Convention : Reuss Voigt Hill
#
# Bulk Modulus (GPa) = 11.31973 40.34097 25.83035
# Shear Modulus (GPa) = 23.85304 -3.03569 10.40868
#
# Velocity S-wave (km/s) = 3.38958 -1.20921 2.23909
# Velocity P-wave (km/s) = 4.55756 4.18108 4.37337
#
# Compressibility (1/GPa) = 0.08834134
#
# Stress axis : x y z
#
# Youngs Moduli (GPa) = -259.24112 -259.24112 11.76019
#
# Poissons Ratio (x) = 2.58454 0.02621
# Poissons Ratio (y) = 2.58454 0.02621
# Poissons Ratio (z) = -0.57783 -0.57783
#
# Static dielectric constant tensor:
#      x y z
#    x 1.817030 0.000000 0.000000 
#    y 0.000000 1.817030 0.000000 
#    z 0.000000 0.000000 1.705320 
# 
# From -- ./inp_files/7792.got.cif
#   From: 2010.05.17/outbox.cif.g08.bks.cpg/sg180_4_cif.got.tgz:7792.got - 2010.05.20 11:43:55.
