data_PCOD9584887
_publ_section_title
;
Structure prediction by ZEFSAII (Michael W. Deem and Ramdas Pophale) SiO2 
 PCOD9584887
Probable space group: P 63 2 2
;
_chemical_formula_sum "Si O2"
_cell_formula_units_Z 72
_cell_length_a 14.781618
_cell_length_b 14.781618
_cell_length_c 17.056159
_cell_angle_alpha 90.000000
_cell_angle_beta 90.000000
_cell_angle_gamma 120.000000
_cell_volume 3227.422460
_symmetry_space_group_name_H-M "P 63 2 2"
_symmetry_group_IT_number 182
_symmetry_cell_setting 'hexagonal'
loop_
_space_group_symop_operation_xyz
x,y,z
x-y,x,1/2+z
-y,x-y,z
-x,-y,1/2+z
-x+y,-x,z
y,-x+y,1/2+z
x-y,-y,-z
-x,-x+y,-z
y,x,-z
-y,-x,1/2-z
-x+y,y,1/2-z
x,x-y,1/2-z
loop_
_atom_site_type_symbol
_atom_site_label
_atom_site_fract_x
_atom_site_fract_y
_atom_site_fract_z
Si Si1 0.116858 0.221688 0.947090
Si Si2 0.517465 0.666553 0.702178
Si Si3 0.993996 0.730631 0.807141
Si Si4 0.272682 0.836950 0.030221
Si Si5 0.122336 0.504974 0.519423
Si Si6 0.730540 0.798281 0.137342
O O1 0.181063 0.252356 0.866021
O O2 0.995860 0.165771 0.919532
O O3 0.163587 0.163587 0.000000
O O4 0.139560 0.332401 0.981431
O O5 0.420012 0.579988 0.750000
O O6 0.546462 0.773231 0.750000
O O7 0.616060 0.648836 0.704141
O O8 0.497164 0.659704 0.608340
O O9 0.987636 0.765725 0.720206
O O10 0.884435 0.697088 0.847175
O O11 0.294145 0.917100 0.102279
O O12 0.381936 0.865514 0.992487
O O13 0.202428 0.711273 0.037365
O O14 0.000000 0.418049 0.500000
#
# Coordination Sequence:
#
# PCOD9584887 Si02
#       6
#    12  12  12  12  12  12
#     4  12  23  45  75 108 148 197 244 306 372 449
#     4  12  26  45  73 106 148 187 248 317 389 447
#     4  11  25  46  71 105 151 193 240 299 374 445
#     4  12  25  46  73 104 149 186 251 309 375 440
#     4  12  26  45  75 109 143 195 251 311 381 450
#     4  11  25  46  73 103 151 199 240 299 367 460
#
# _framework density 22.308824000000001
#
# number of rings (size 3 to 8) (size 9 to 14) (size 15 to 20)
#    0.000    0.333    3.333    6.000    4.667    0.000 
#    1.000    1.667    3.667    0.000    0.000    0.000 
#    0.000    0.000    0.000    0.000    0.000    0.000 
#
# Total GULP energy -401498.093114 kJ/mol
# GULP energy per Si atom -5576.362404 kJ/mol
# Density = 2.225805 g / cm^3
# Si number density = 22.308824 Si / 1000 Ang^3
#
#
#
# Elastic Constant Matrix: (Units=GPa)
#
#
# Indices 1 2 3 4 5 6 
#
# 1 88.5044 15.8078 33.0507 0.0000 0.0000 0.0000
# 2 15.8078 88.5044 33.0507 0.0000 0.0000 0.0000
# 3 33.0507 33.0507 132.6663 0.0000 0.0000 0.0000
# 4 0.0000 0.0000 0.0000 25.9066 0.0000 0.0000
# 5 0.0000 0.0000 0.0000 0.0000 25.9066 0.0000
# 6 0.0000 0.0000 0.0000 0.0000 0.0000 36.3483
#
#
#
# Elastic Compliance Matrix: (Units=1/GPa)
#
#
# Indices 1 2 3 4 5 6 
#
# 1 0.012570 -0.001186 -0.002836 0.000000 0.000000 0.000000
# 2 -0.001186 0.012570 -0.002836 0.000000 0.000000 0.000000
# 3 -0.002836 -0.002836 0.008951 0.000000 0.000000 0.000000
# 4 0.000000 0.000000 0.000000 0.038600 0.000000 0.000000
# 5 0.000000 0.000000 0.000000 0.000000 0.038600 0.000000
# 6 0.000000 0.000000 0.000000 0.000000 0.000000 0.027512
#
#
# Mechanical properties :
#
#
# Convention : Reuss Voigt Hill
#
# Bulk Modulus (GPa) = 49.08154 52.61041 50.84597
# Shear Modulus (GPa) = 31.38540 32.81669 32.10104
#
# Velocity S-wave (km/s) = 3.75488 3.83955 3.79745
# Velocity P-wave (km/s) = 6.39121 6.57952 6.48605
#
# Compressibility (1/GPa) = 0.02037426
#
# Stress axis : x y z
#
# Youngs Moduli (GPa) = 79.55592 79.55592 111.72242
#
# Poissons Ratio (x) = 0.09436 0.31684
# Poissons Ratio (y) = 0.09436 0.31684
# Poissons Ratio (z) = 0.22562 0.22562
#
# Static dielectric constant tensor:
#      x y z
#    x 1.840970 0.000000 0.000000 
#    y 0.000000 1.840970 0.000000 
#    z 0.000000 0.000000 1.963740 
# 
# From -- ./inp_files/4348.got.cif
#   From: 2010.05.17/outbox.cif.g08.bks.cpg/sg182_3_cif.got.tgz:4348.got - 2010.05.20 11:58:53.
