data_PCOD9584750
_publ_section_title
;
Structure prediction by ZEFSAII (Michael W. Deem and Ramdas Pophale) SiO2 
 PCOD9584750
Probable space group: P 63 2 2
;
_chemical_formula_sum "Si O2"
_cell_formula_units_Z 36
_cell_length_a 8.395324
_cell_length_b 8.395324
_cell_length_c 29.957944
_cell_angle_alpha 90.000000
_cell_angle_beta 90.000000
_cell_angle_gamma 120.000000
_cell_volume 1828.595132
_symmetry_space_group_name_H-M "P 63 2 2"
_symmetry_group_IT_number 182
_symmetry_cell_setting 'hexagonal'
loop_
_space_group_symop_operation_xyz
x,y,z
x-y,x,1/2+z
-y,x-y,z
-x,-y,1/2+z
-x+y,-x,z
y,-x+y,1/2+z
x-y,-y,-z
-x,-x+y,-z
y,x,-z
-y,-x,1/2-z
-x+y,y,1/2-z
x,x-y,1/2-z
loop_
_atom_site_type_symbol
_atom_site_label
_atom_site_fract_x
_atom_site_fract_y
_atom_site_fract_z
Si Si1 0.666528 0.667111 0.230522
Si Si2 0.662140 0.540953 0.133680
Si Si3 0.791914 0.003660 0.449441
O O1 0.534811 0.465190 0.250000
O O2 0.867311 0.734621 0.250000
O O3 0.664511 0.651119 0.177326
O O4 0.599186 0.799593 0.250000
O O5 0.494047 0.330718 0.135255
O O6 0.673217 0.648818 0.088857
O O7 0.827228 0.831118 0.445029
O O8 0.726498 0.000000 0.500000
#
# Coordination Sequence:
#
# PCOD9584750 Si02
#       3
#    12  12  12
#     4  12  24  42  62  92 127 166 210 268 324 386
#     4  10  21  38  60  88 122 160 201 259 317 370
#     4   8  18  37  60  86 116 157 208 254 305 380
#
# _framework density 19.687245999999998
#
# number of rings (size 3 to 8) (size 9 to 14) (size 15 to 20)
#    1.333    0.667    3.333    1.000    4.667    0.000 
#    6.000    0.000    0.000    1.333    0.000    0.000 
#    0.000    0.000    0.000    0.000    0.000    0.000 
#
# Total GULP energy -200501.283215 kJ/mol
# GULP energy per Si atom -5569.480089 kJ/mol
# Density = 1.964244 g / cm^3
# Si number density = 19.687246 Si / 1000 Ang^3
#
#
#
# Elastic Constant Matrix: (Units=GPa)
#
#
# Indices 1 2 3 4 5 6 
#
# 1 44.8331 18.7706 44.7931 0.0000 0.0000 0.0000
# 2 18.7706 44.8331 44.7931 0.0000 0.0000 0.0000
# 3 44.7931 44.7931 208.7215 0.0000 0.0000 0.0000
# 4 0.0000 0.0000 0.0000 99.9324 0.0000 0.0000
# 5 0.0000 0.0000 0.0000 0.0000 99.9324 0.0000
# 6 0.0000 0.0000 0.0000 0.0000 0.0000 13.0313
#
#
#
# Elastic Compliance Matrix: (Units=1/GPa)
#
#
# Indices 1 2 3 4 5 6 
#
# 1 0.030452 -0.007918 -0.004836 0.000000 0.000000 0.000000
# 2 -0.007918 0.030452 -0.004836 0.000000 0.000000 0.000000
# 3 -0.004836 -0.004836 0.006867 0.000000 0.000000 0.000000
# 4 0.000000 0.000000 0.000000 0.010007 0.000000 0.000000
# 5 0.000000 0.000000 0.000000 0.000000 0.010007 0.000000
# 6 0.000000 0.000000 0.000000 0.000000 0.000000 0.076739
#
#
# Mechanical properties :
#
#
# Convention : Reuss Voigt Hill
#
# Bulk Modulus (GPa) = 30.68367 57.23349 43.95858
# Shear Modulus (GPa) = 23.74569 55.24794 39.49681
#
# Velocity S-wave (km/s) = 3.47673 5.30318 4.48394
# Velocity P-wave (km/s) = 5.63349 8.16289 7.01317
#
# Compressibility (1/GPa) = 0.03259063
#
# Stress axis : x y z
#
# Youngs Moduli (GPa) = 32.83908 32.83908 145.62996
#
# Poissons Ratio (x) = 0.26001 0.70425
# Poissons Ratio (y) = 0.26001 0.70425
# Poissons Ratio (z) = 0.15881 0.15881
#
# Static dielectric constant tensor:
#      x y z
#    x 1.553430 0.000000 0.000000 
#    y 0.000000 1.553430 0.000000 
#    z 0.000000 0.000000 1.660470 
# 
# From -- ./inp_files/5382.got.cif
#   From: 2010.05.17/outbox.cif.g08.bks.cpg/sg182_3_cif.got.tgz:5382.got - 2010.05.20 11:58:53.
