data_PCOD9584561
_publ_section_title
;
Structure prediction by ZEFSAII (Michael W. Deem and Ramdas Pophale) SiO2 
 PCOD9584561
Probable space group: P 64 2 2
;
_chemical_formula_sum "Si O2"
_cell_formula_units_Z 48
_cell_length_a 15.559039
_cell_length_b 15.559039
_cell_length_c 10.790046
_cell_angle_alpha 90.000000
_cell_angle_beta 90.000000
_cell_angle_gamma 120.000000
_cell_volume 2262.139935
_symmetry_space_group_name_H-M "P 64 2 2"
_symmetry_group_IT_number 181
_symmetry_cell_setting 'hexagonal'
loop_
_space_group_symop_operation_xyz
x,y,z
x-y,x,2/3+z
-y,x-y,1/3+z
-x,-y,z
-x+y,-x,2/3+z
y,-x+y,1/3+z
x-y,-y,-z
-x,-x+y,2/3-z
y,x,1/3-z
-y,-x,1/3-z
-x+y,y,-z
x,x-y,2/3-z
loop_
_atom_site_type_symbol
_atom_site_label
_atom_site_fract_x
_atom_site_fract_y
_atom_site_fract_z
Si Si1 0.974258 0.837916 0.126679
Si Si2 0.170409 0.585205 0.833334
Si Si3 0.688521 0.812576 0.012314
Si Si4 0.709944 0.475293 0.641588
Si Si5 0.384024 0.000000 0.500000
O O1 0.897427 0.771537 0.232529
O O2 0.915726 0.831452 0.000000
O O3 0.049416 0.950585 0.166667
O O4 0.051085 0.799763 0.099758
O O5 0.236880 0.565631 0.736517
O O6 0.088302 0.482407 0.898921
O O7 0.644595 0.706669 0.077320
O O8 0.594363 0.827107 0.991835
O O9 0.592717 0.407284 0.666667
O O10 0.729471 0.458941 0.500000
#
# Coordination Sequence:
#
# PCOD9584561 Si02
#       5
#    12   6  12  12   6
#     4  12  25  43  66 100 136 187 235 294 358 431
#     4   9  20  38  70  96 136 180 230 301 340 424
#     4  11  24  42  66  99 140 181 233 288 354 427
#     4  11  23  43  67 104 137 182 235 291 365 425
#     4   9  18  40  63  98 130 176 239 280 342 421
#
# _framework density 21.218845999999999
#
# number of rings (size 3 to 8) (size 9 to 14) (size 15 to 20)
#    0.000    1.250    3.750    1.500    0.000    7.000 
#    0.000    0.000    0.000   10.500    0.000    0.000 
#    0.000    0.000    0.000    0.000    0.000    0.000 
#
# Total GULP energy -267558.155228 kJ/mol
# GULP energy per Si atom -5574.128234 kJ/mol
# Density = 2.117055 g / cm^3
# Si number density = 21.218846 Si / 1000 Ang^3
#
#
#
# Elastic Constant Matrix: (Units=GPa)
#
#
# Indices 1 2 3 4 5 6 
#
# 1 132.6198 25.9285 17.6892 0.0000 0.0000 0.0000
# 2 25.9285 132.6198 17.6892 0.0000 0.0000 0.0000
# 3 17.6892 17.6892 60.1320 0.0000 0.0000 0.0000
# 4 0.0000 0.0000 0.0000 20.2008 0.0000 0.0000
# 5 0.0000 0.0000 0.0000 0.0000 20.2008 0.0000
# 6 0.0000 0.0000 0.0000 0.0000 0.0000 53.3457
#
#
#
# Elastic Compliance Matrix: (Units=1/GPa)
#
#
# Indices 1 2 3 4 5 6 
#
# 1 0.008062 -0.001311 -0.001986 0.000000 0.000000 0.000000
# 2 -0.001311 0.008062 -0.001986 0.000000 0.000000 0.000000
# 3 -0.001986 -0.001986 0.017798 0.000000 0.000000 0.000000
# 4 0.000000 0.000000 0.000000 0.049503 0.000000 0.000000
# 5 0.000000 0.000000 0.000000 0.000000 0.049503 0.000000
# 6 0.000000 0.000000 0.000000 0.000000 0.000000 0.018746
#
#
# Mechanical properties :
#
#
# Convention : Reuss Voigt Hill
#
# Bulk Modulus (GPa) = 42.81558 49.77616 46.29587
# Shear Modulus (GPa) = 29.40763 36.35378 32.88070
#
# Velocity S-wave (km/s) = 3.72683 4.14367 3.94077
# Velocity P-wave (km/s) = 6.22422 6.81195 6.52471
#
# Compressibility (1/GPa) = 0.02335599
#
# Stress axis : x y z
#
# Youngs Moduli (GPa) = 124.04510 124.04510 56.18487
#
# Poissons Ratio (x) = 0.16265 0.11157
# Poissons Ratio (y) = 0.16265 0.11157
# Poissons Ratio (z) = 0.24632 0.24632
#
# Static dielectric constant tensor:
#      x y z
#    x 1.847280 0.000000 0.000000 
#    y 0.000000 1.847280 0.000000 
#    z 0.000000 0.000000 1.780340 
# 
# From -- ./inp_files/4425.got.cif
#   From: 2010.05.17/outbox.cif.g08.bks.cpg/sg181_3_cif.got.tgz:4425.got - 2010.05.20 11:51:17.
