data_PCOD9584277
_publ_section_title
;
Structure prediction by ZEFSAII (Michael W. Deem and Ramdas Pophale) SiO2 
 PCOD9584277
Probable space group: P 64 2 2
;
_chemical_formula_sum "Si O2"
_cell_formula_units_Z 51
_cell_length_a 16.948856
_cell_length_b 16.948856
_cell_length_c 9.982625
_cell_angle_alpha 90.000000
_cell_angle_beta 90.000000
_cell_angle_gamma 120.000000
_cell_volume 2483.454276
_symmetry_space_group_name_H-M "P 64 2 2"
_symmetry_group_IT_number 181
_symmetry_cell_setting 'hexagonal'
loop_
_space_group_symop_operation_xyz
x,y,z
x-y,x,2/3+z
-y,x-y,1/3+z
-x,-y,z
-x+y,-x,2/3+z
y,-x+y,1/3+z
x-y,-y,-z
-x,-x+y,2/3-z
y,x,1/3-z
-y,-x,1/3-z
-x+y,y,-z
x,x-y,2/3-z
loop_
_atom_site_type_symbol
_atom_site_label
_atom_site_fract_x
_atom_site_fract_y
_atom_site_fract_z
Si Si1 0.493545 0.840141 0.182623
Si Si2 0.500000 0.500000 0.666667
Si Si3 0.672439 0.888575 0.704696
Si Si4 0.700112 0.904001 0.215831
Si Si5 0.530111 0.310257 0.976847
O O1 0.592214 0.864399 0.233346
O O2 0.416890 0.815717 0.294661
O O3 0.457482 0.751548 0.086937
O O4 0.512099 0.928897 0.094331
O O5 0.655380 0.827690 0.833334
O O6 0.710638 0.850259 0.588641
O O7 0.571087 0.865904 0.663904
O O8 0.736153 0.989162 0.759006
O O9 0.736474 0.868237 0.333334
O O10 0.532898 0.266449 0.833334
#
# Coordination Sequence:
#
# PCOD9584277 Si02
#       5
#    12   3  12  12  12
#     4  11  23  35  62  86 130 165 221 266 323 375
#     4  12  20  36  60  88 118 164 226 288 290 360
#     4  10  22  40  68  93 124 161 217 264 318 384
#     4  11  24  41  63  94 130 167 204 264 329 396
#     4  10  19  37  54  89 119 165 209 268 310 370
#
# _framework density 20.535912
#
# number of rings (size 3 to 8) (size 9 to 14) (size 15 to 20)
#    0.000    1.412    2.353    2.824    6.588    1.882 
#    0.000    3.529    0.000   12.706    0.000    0.000 
#    0.000    0.000    0.000    0.000    0.000    0.000 
#
# Total GULP energy -284682.232894 kJ/mol
# GULP energy per Si atom -5582.004567 kJ/mol
# Density = 2.048917 g / cm^3
# Si number density = 20.535912 Si / 1000 Ang^3
#
#
#
# Elastic Constant Matrix: (Units=GPa)
#
#
# Indices 1 2 3 4 5 6 
#
# 1 87.9456 36.2110 34.5396 0.0000 0.0000 0.0000
# 2 36.2110 87.9456 34.5396 0.0000 0.0000 0.0000
# 3 34.5396 34.5396 68.2811 0.0000 0.0000 0.0000
# 4 0.0000 0.0000 0.0000 61.9809 0.0000 0.0000
# 5 0.0000 0.0000 0.0000 0.0000 61.9809 0.0000
# 6 0.0000 0.0000 0.0000 0.0000 0.0000 25.8673
#
#
#
# Elastic Compliance Matrix: (Units=1/GPa)
#
#
# Indices 1 2 3 4 5 6 
#
# 1 0.015269 -0.004060 -0.005670 0.000000 0.000000 0.000000
# 2 -0.004060 0.015269 -0.005670 0.000000 0.000000 0.000000
# 3 -0.005670 -0.005670 0.020382 0.000000 0.000000 0.000000
# 4 0.000000 0.000000 0.000000 0.016134 0.000000 0.000000
# 5 0.000000 0.000000 0.000000 0.000000 0.016134 0.000000
# 6 0.000000 0.000000 0.000000 0.000000 0.000000 0.038659
#
#
# Mechanical properties :
#
#
# Convention : Reuss Voigt Hill
#
# Bulk Modulus (GPa) = 49.70266 50.52806 50.11536
# Shear Modulus (GPa) = 31.37667 39.22463 35.30065
#
# Velocity S-wave (km/s) = 3.91307 4.37515 4.15055
# Velocity P-wave (km/s) = 6.68367 7.08384 6.88666
#
# Compressibility (1/GPa) = 0.02011965
#
# Stress axis : x y z
#
# Youngs Moduli (GPa) = 65.49113 65.49113 49.06369
#
# Poissons Ratio (x) = 0.26590 0.27819
# Poissons Ratio (y) = 0.26590 0.27819
# Poissons Ratio (z) = 0.37134 0.37134
#
# Static dielectric constant tensor:
#      x y z
#    x 1.738590 0.000000 0.000000 
#    y 0.000000 1.738590 0.000000 
#    z 0.000000 0.000000 1.742850 
# 
# From -- ./inp_files/2775.got.cif
#   From: 2010.05.17/outbox.cif.g08.bks.cpg/sg181_2_cif.got.tgz:2775.got - 2010.05.20 11:51:17.
