data_PCOD9584622
_publ_section_title
;
Structure prediction by ZEFSAII (Michael W. Deem and Ramdas Pophale) SiO2 
 PCOD9584622
Probable space group: P 63 2 2
;
_chemical_formula_sum "Si O2"
_cell_formula_units_Z 52
_cell_length_a 13.303920
_cell_length_b 13.303920
_cell_length_c 14.008812
_cell_angle_alpha 90.000000
_cell_angle_beta 90.000000
_cell_angle_gamma 120.000000
_cell_volume 2147.292406
_symmetry_space_group_name_H-M "P 63 2 2"
_symmetry_group_IT_number 182
_symmetry_cell_setting 'hexagonal'
loop_
_space_group_symop_operation_xyz
x,y,z
x-y,x,1/2+z
-y,x-y,z
-x,-y,1/2+z
-x+y,-x,z
y,-x+y,1/2+z
x-y,-y,-z
-x,-x+y,-z
y,x,-z
-y,-x,1/2-z
-x+y,y,1/2-z
x,x-y,1/2-z
loop_
_atom_site_type_symbol
_atom_site_label
_atom_site_fract_x
_atom_site_fract_y
_atom_site_fract_z
Si Si1 0.027685 0.822938 0.837124
Si Si2 0.333333 0.666666 0.362893
Si Si3 0.114807 0.829091 0.469403
Si Si4 0.495522 0.633024 0.487974
Si Si5 0.526302 0.658623 0.695069
O O1 0.087549 0.912452 0.750000
O O2 0.096005 0.877824 0.936439
O O3 0.049297 0.714324 0.818317
O O4 0.895364 0.775512 0.870884
O O5 0.333334 0.666667 0.250000
O O6 0.399896 0.604435 0.408529
O O7 0.235640 0.832339 0.468322
O O8 0.000000 0.710140 0.500000
O O9 0.448421 0.000000 0.500000
O O10 0.459378 0.637032 0.595693
O O11 0.462547 0.537454 0.750000
O O12 0.514815 0.757408 0.750000
#
# Coordination Sequence:
#
# PCOD9584622 Si02
#       5
#    12   4  12  12  12
#     4   9  19  38  60  98 142 174 240 314 361 440
#     4  12  30  51  73 119 160 207 255 303 403 479
#     4  10  20  41  67  95 144 192 243 308 372 439
#     4  11  23  49  72 102 153 198 252 313 374 458
#     4  10  18  33  66 107 134 178 246 314 370 438
#
# _framework density 24.216543000000001
#
# number of rings (size 3 to 8) (size 9 to 14) (size 15 to 20)
#    0.000    1.846    4.615    1.615    0.000    2.769 
#    9.692    0.000    0.000    1.385    0.000    0.000 
#    0.000    0.000    0.000    0.000    0.000    0.000 
#
# Total GULP energy -290198.880706 kJ/mol
# GULP energy per Si atom -5580.747706 kJ/mol
# Density = 2.416143 g / cm^3
# Si number density = 24.216543 Si / 1000 Ang^3
#
#
#
# Elastic Constant Matrix: (Units=GPa)
#
#
# Indices 1 2 3 4 5 6 
#
# 1 33.4027 123.7100 54.1240 -0.0002 -0.0001 0.0005
# 2 123.7100 33.4045 54.1248 0.0002 0.0000 -0.0009
# 3 54.1240 54.1248 179.8859 0.0000 0.0001 -0.0008
# 4 -0.0002 0.0002 0.0000 22.6552 -0.0001 0.0000
# 5 -0.0001 0.0000 0.0001 -0.0001 22.6552 0.0002
# 6 0.0005 -0.0009 -0.0008 0.0000 0.0002 -45.1557
#
#
#
# Elastic Compliance Matrix: (Units=1/GPa)
#
#
# Indices 1 2 3 4 5 6 
#
# 1 -0.001522 0.009551 -0.002416 0.000000 0.000000 0.000000
# 2 0.009551 -0.001522 -0.002416 0.000000 0.000000 0.000000
# 3 -0.002416 -0.002416 0.007013 0.000000 0.000000 0.000000
# 4 0.000000 0.000000 0.000000 0.044140 0.000000 0.000000
# 5 0.000000 0.000000 0.000000 0.000000 0.044140 0.000000
# 6 0.000000 0.000000 0.000000 0.000000 0.000000 -0.022146
#
#
# Mechanical properties :
#
#
# Convention : Reuss Voigt Hill
#
# Bulk Modulus (GPa) = 74.58234 78.95675 76.76955
# Shear Modulus (GPa) = 76.76566 1.01322 38.88944
#
# Velocity S-wave (km/s) = 5.63635 0.64754 4.01172
# Velocity P-wave (km/s) = 8.55704 5.76492 7.29580
#
# Compressibility (1/GPa) = 0.01340800
#
# Stress axis : x y z
#
# Youngs Moduli (GPa) = -656.98567 -657.03616 142.59505
#
# Poissons Ratio (x) = 6.27559 0.34449
# Poissons Ratio (y) = 6.27511 0.34449
# Poissons Ratio (z) = -1.58720 -1.58732
#
# Static dielectric constant tensor:
#      x y z
#    x 2.062950 0.000000 0.000000 
#    y 0.000000 2.062950 0.000000 
#    z 0.000000 0.000000 1.951600 
# 
# From -- ./inp_files/3309.got.cif
#   From: 2010.05.17/outbox.cif.g08.bks.cpg/sg182_2_cif.got.tgz:3309.got - 2010.05.20 11:58:53.
