data_PCOD9584672
_publ_section_title
;
Structure prediction by ZEFSAII (Michael W. Deem and Ramdas Pophale) SiO2 
 PCOD9584672
Probable space group: P 63 2 2
;
_chemical_formula_sum "Si O2"
_cell_formula_units_Z 52
_cell_length_a 12.931702
_cell_length_b 12.931702
_cell_length_c 16.050691
_cell_angle_alpha 90.000000
_cell_angle_beta 90.000000
_cell_angle_gamma 120.000000
_cell_volume 2324.533139
_symmetry_space_group_name_H-M "P 63 2 2"
_symmetry_group_IT_number 182
_symmetry_cell_setting 'hexagonal'
loop_
_space_group_symop_operation_xyz
x,y,z
x-y,x,1/2+z
-y,x-y,z
-x,-y,1/2+z
-x+y,-x,z
y,-x+y,1/2+z
x-y,-y,-z
-x,-x+y,-z
y,x,-z
-y,-x,1/2-z
-x+y,y,1/2-z
x,x-y,1/2-z
loop_
_atom_site_type_symbol
_atom_site_label
_atom_site_fract_x
_atom_site_fract_y
_atom_site_fract_z
Si Si1 0.000000 0.788487 0.000000
Si Si2 0.333334 0.666667 0.848776
Si Si3 0.936572 0.351821 0.726225
Si Si4 0.134462 0.795935 0.388254
Si Si5 0.551430 0.678167 0.604311
Si Si6 0.000000 0.435904 0.000000
O O1 0.912807 0.672202 0.054640
O O2 0.098009 0.879957 0.067354
O O3 0.333334 0.666667 0.750000
O O4 0.269334 0.534491 0.885441
O O5 0.897444 0.448722 0.750000
O O6 0.929323 0.267290 0.801876
O O7 0.861080 0.271756 0.646204
O O8 0.071093 0.420571 0.695720
O O9 0.090400 0.684352 0.450185
O O10 0.482868 0.549422 0.560375
#
# Coordination Sequence:
#
# PCOD9584672 Si02
#       6
#     6   4  12  12  12   6
#     4   9  20  40  56  85 116 156 212 277 304 377
#     4  12  24  33  54  84 126 178 188 232 294 399
#     4  10  19  39  58  84 118 166 211 270 297 380
#     4  10  21  35  61  83 118 160 212 261 329 353
#     4  10  21  37  53  81 128 160 211 243 309 382
#     4  11  20  36  60  85 118 168 202 271 320 385
#
# _framework density 22.370082
#
# number of rings (size 3 to 8) (size 9 to 14) (size 15 to 20)
#    0.000    1.846    2.308    2.077    0.000    0.000 
#    9.692    0.000    0.000    0.462    0.000    0.000 
#    0.000    0.000    0.000    0.000    0.000    0.000 
#
# Total GULP energy -289643.855582 kJ/mol
# GULP energy per Si atom -5570.074146 kJ/mol
# Density = 2.231917 g / cm^3
# Si number density = 22.370082 Si / 1000 Ang^3
#
#
#
# Elastic Constant Matrix: (Units=GPa)
#
#
# Indices 1 2 3 4 5 6 
#
# 1 37.5358 2.7746 30.5040 0.0000 -0.0002 0.0001
# 2 2.7746 37.5354 30.5042 0.0000 0.0001 0.0000
# 3 30.5040 30.5042 100.5395 0.0000 -0.0001 0.0002
# 4 0.0000 0.0000 0.0000 24.7214 0.0001 -0.0001
# 5 -0.0002 0.0001 -0.0001 0.0001 24.7216 0.0000
# 6 0.0001 0.0000 0.0002 -0.0001 0.0000 17.3801
#
#
#
# Elastic Compliance Matrix: (Units=1/GPa)
#
#
# Indices 1 2 3 4 5 6 
#
# 1 0.037319 0.008552 -0.013917 0.000000 0.000000 0.000000
# 2 0.008552 0.037320 -0.013918 0.000000 0.000000 0.000000
# 3 -0.013917 -0.013918 0.018392 0.000000 0.000000 0.000000
# 4 0.000000 0.000000 0.000000 0.040451 0.000000 0.000000
# 5 0.000000 0.000000 0.000000 0.000000 0.040450 0.000000
# 6 0.000000 0.000000 0.000000 0.000000 0.000000 0.057537
#
#
# Mechanical properties :
#
#
# Convention : Reuss Voigt Hill
#
# Bulk Modulus (GPa) = 18.36067 33.68625 26.02346
# Shear Modulus (GPa) = 17.34963 20.81983 19.08473
#
# Velocity S-wave (km/s) = 2.78793 3.05405 2.92402
# Velocity P-wave (km/s) = 4.31149 5.24667 4.80190
#
# Compressibility (1/GPa) = 0.05446423
#
# Stress axis : x y z
#
# Youngs Moduli (GPa) = 26.79578 26.79529 54.37249
#
# Poissons Ratio (x) = -0.22915 0.75673
# Poissons Ratio (y) = -0.22915 0.75674
# Poissons Ratio (z) = 0.37293 0.37293
#
# Static dielectric constant tensor:
#      x y z
#    x 1.852990 0.000000 0.000000 
#    y 0.000000 1.852990 0.000000 
#    z 0.000000 0.000000 1.906840 
# 
# From -- ./inp_files/3380.got.cif
#   From: 2010.05.17/outbox.cif.g08.bks.cpg/sg182_2_cif.got.tgz:3380.got - 2010.05.20 11:58:53.
