data_PCOD9584883
_publ_section_title
;
Structure prediction by ZEFSAII (Michael W. Deem and Ramdas Pophale) SiO2 
 PCOD9584883
Probable space group: P 63 2 2
;
_chemical_formula_sum "Si O2"
_cell_formula_units_Z 48
_cell_length_a 12.255826
_cell_length_b 12.255826
_cell_length_c 18.953764
_cell_angle_alpha 90.000000
_cell_angle_beta 90.000000
_cell_angle_gamma 120.000000
_cell_volume 2465.535576
_symmetry_space_group_name_H-M "P 63 2 2"
_symmetry_group_IT_number 182
_symmetry_cell_setting 'hexagonal'
loop_
_space_group_symop_operation_xyz
x,y,z
x-y,x,1/2+z
-y,x-y,z
-x,-y,1/2+z
-x+y,-x,z
y,-x+y,1/2+z
x-y,-y,-z
-x,-x+y,-z
y,x,-z
-y,-x,1/2-z
-x+y,y,1/2-z
x,x-y,1/2-z
loop_
_atom_site_type_symbol
_atom_site_label
_atom_site_fract_x
_atom_site_fract_y
_atom_site_fract_z
Si Si1 0.666668 0.333334 0.852901
Si Si2 0.577414 0.055365 0.674427
Si Si3 0.000000 0.000000 0.335015
Si Si4 0.576503 0.652849 0.569585
Si Si5 0.333334 0.666668 0.978875
Si Si6 0.897316 0.178888 0.167918
O O1 0.793642 0.337266 0.827694
O O2 0.666668 0.333334 0.937017
O O3 0.509038 0.018076 0.750000
O O4 0.471297 0.013468 0.614672
O O5 0.654307 0.983201 0.662786
O O6 0.975274 0.863584 0.355835
O O7 0.000000 0.000000 0.250000
O O8 0.650808 0.650808 0.500000
O O9 0.446760 0.647157 0.547667
O O10 0.650484 0.774381 0.619079
O O11 0.856420 0.143581 0.250000
#
# Coordination Sequence:
#
# PCOD9584883 Si02
#       6
#     4  12   4  12   4  12
#     4  12  28  43  66 103 142 175 224 280 361 424
#     4  12  25  42  71 102 136 178 230 290 340 412
#     4   9  24  42  67 101 139 180 220 281 346 405
#     4  12  25  43  68 102 142 180 228 286 348 407
#     4  12  24  43  65 103 138 187 230 274 348 412
#     4  11  24  44  72 101 136 181 235 284 339 414
#
# _framework density 19.468385000000001
#
# number of rings (size 3 to 8) (size 9 to 14) (size 15 to 20)
#    0.000    0.500    7.500    0.750    3.500    2.000 
#    0.000    6.250    0.000    0.000    0.000    0.000 
#    0.000    0.000    0.000    0.000    0.000    0.000 
#
# Total GULP energy -268442.533173 kJ/mol
# GULP energy per Si atom -5592.552774 kJ/mol
# Density = 1.942407 g / cm^3
# Si number density = 19.468385 Si / 1000 Ang^3
#
#
#
# Elastic Constant Matrix: (Units=GPa)
#
#
# Indices 1 2 3 4 5 6 
#
# 1 123.2794 60.7912 38.2847 0.0000 0.0001 -0.0002
# 2 60.7912 123.2791 38.2846 0.0000 0.0000 -0.0003
# 3 38.2847 38.2846 112.1248 0.0000 0.0001 -0.0001
# 4 0.0000 0.0000 0.0000 24.1585 0.0000 0.0001
# 5 0.0001 0.0000 0.0001 0.0000 24.1587 0.0000
# 6 -0.0002 -0.0003 -0.0001 0.0001 0.0000 31.2441
#
#
#
# Elastic Compliance Matrix: (Units=1/GPa)
#
#
# Indices 1 2 3 4 5 6 
#
# 1 0.011168 -0.004835 -0.002162 0.000000 0.000000 0.000000
# 2 -0.004835 0.011168 -0.002162 0.000000 0.000000 0.000000
# 3 -0.002162 -0.002162 0.010395 0.000000 0.000000 0.000000
# 4 0.000000 0.000000 0.000000 0.041393 0.000000 0.000000
# 5 0.000000 0.000000 0.000000 0.000000 0.041393 0.000000
# 6 0.000000 0.000000 0.000000 0.000000 0.000000 0.032006
#
#
# Mechanical properties :
#
#
# Convention : Reuss Voigt Hill
#
# Bulk Modulus (GPa) = 69.39152 70.37824 69.88488
# Shear Modulus (GPa) = 29.30049 30.66709 29.98379
#
# Velocity S-wave (km/s) = 3.88368 3.97322 3.92870
# Velocity P-wave (km/s) = 7.47203 7.56816 7.52025
#
# Compressibility (1/GPa) = 0.01441098
#
# Stress axis : x y z
#
# Youngs Moduli (GPa) = 89.54512 89.54496 96.19918
#
# Poissons Ratio (x) = 0.43299 0.20799
# Poissons Ratio (y) = 0.43299 0.20799
# Poissons Ratio (z) = 0.19360 0.19360
#
# Static dielectric constant tensor:
#      x y z
#    x 1.654740 0.000000 0.000000 
#    y 0.000000 1.654740 0.000000 
#    z 0.000000 0.000000 1.675620 
# 
# From -- ./inp_files/4778.got.cif
#   From: 2010.05.17/outbox.cif.g08.bks.cpg/sg182_3_cif.got.tgz:4778.got - 2010.05.20 11:58:53.
