data_PCOD9584975
_publ_section_title
;
Structure prediction by ZEFSAII (Michael W. Deem and Ramdas Pophale) SiO2 
 PCOD9584975
Probable space group: P 6 M M
;
_chemical_formula_sum "Si O2"
_cell_formula_units_Z 96
_cell_length_a 18.019124
_cell_length_b 18.019124
_cell_length_c 21.167959
_cell_angle_alpha 90.000000
_cell_angle_beta 90.000000
_cell_angle_gamma 120.000000
_cell_volume 5952.192458
_symmetry_space_group_name_H-M "P 6 M M"
_symmetry_group_IT_number 183
_symmetry_cell_setting 'hexagonal'
loop_
_space_group_symop_operation_xyz
x,y,z
x-y,x,z
-y,x-y,z
-x,-y,z
-x+y,-x,z
y,-x+y,z
-x+y,y,z
x,x-y,z
-y,-x,z
y,x,z
x-y,-y,z
-x,-x+y,z
loop_
_atom_site_type_symbol
_atom_site_label
_atom_site_fract_x
_atom_site_fract_y
_atom_site_fract_z
Si Si1 0.495385 0.331098 0.058090
Si Si2 0.636869 0.103990 0.332874
Si Si3 0.635830 0.532467 0.577440
Si Si4 0.266072 0.368270 0.455477
Si Si5 0.896597 0.532370 0.825199
Si Si6 0.361007 0.459100 0.195247
Si Si7 0.370559 0.102580 0.701272
Si Si8 0.366106 0.099005 0.945647
O O1 0.526815 0.263408 0.044768
O O2 0.572264 0.427737 0.050039
O O3 0.464439 0.319008 0.130617
O O4 0.418829 0.308449 0.009763
O O5 0.566928 0.133856 0.343984
O O6 0.698873 0.122194 0.391383
O O7 0.679262 0.133662 0.263833
O O8 0.581318 0.000000 0.328376
O O9 0.568908 0.431093 0.578420
O O10 0.578263 0.578263 0.577152
O O11 0.691726 0.566993 0.514328
O O12 0.693095 0.569385 0.639748
O O13 0.164255 0.328510 0.458693
O O14 0.301500 0.301500 0.457580
O O15 0.862090 0.431045 0.823968
O O16 0.876665 0.569518 0.762821
O O17 0.874130 0.566239 0.888137
O O18 0.000000 0.578382 0.826011
O O19 0.451800 0.548201 0.198593
O O20 0.383973 0.383973 0.189400
O O21 0.331759 0.165880 0.701385
O O22 0.302923 0.000000 0.701137
O O23 0.332453 0.166227 0.947206
O O24 0.295075 0.000000 0.936996
#
# Coordination Sequence:
#
# PCOD9584975 Si02
#       8
#    12  12  12  12  12  12  12  12
#     4  10  19  29  42  62  90 123 156 189 224 263
#     4   8  14  26  44  64  85 111 145 184 225 270
#     4   9  17  30  49  70  89 112 144 181 223 273
#     4  10  19  30  46  67  90 118 153 192 230 269
#     4   9  17  30  49  71  93 119 152 187 223 267
#     4   8  14  25  41  60  82 111 148 186 223 266
#     4  10  19  31  49  72  97 127 164 203 239 276
#     4  10  20  33  50  71  93 119 152 190 230 272
#
# _framework density 16.128511
#
# number of rings (size 3 to 8) (size 9 to 14) (size 15 to 20)
#    0.000    2.750    0.000    3.125    0.000    4.750 
#    0.000    0.000    0.000   10.625    0.000    0.000 
#    0.000    6.000    0.000    0.000    0.000   16.750 
#
# Total GULP energy -534525.692514 kJ/mol
# GULP energy per Si atom -5567.975964 kJ/mol
# Density = 1.609180 g / cm^3
# Si number density = 16.128511 Si / 1000 Ang^3
#
#
#
# Elastic Constant Matrix: (Units=GPa)
#
#
# Indices 1 2 3 4 5 6 
#
# 1 73.7259 44.3684 31.4433 0.0000 0.0000 0.0000
# 2 44.3684 73.7259 31.4433 0.0000 0.0000 0.0000
# 3 31.4433 31.4433 122.2322 0.0000 0.0000 0.0000
# 4 0.0000 0.0000 0.0000 -4.2305 0.0000 0.0000
# 5 0.0000 0.0000 0.0000 0.0000 -4.2305 0.0000
# 6 0.0000 0.0000 0.0000 0.0000 0.0000 14.6787
#
#
#
# Elastic Compliance Matrix: (Units=1/GPa)
#
#
# Indices 1 2 3 4 5 6 
#
# 1 0.021937 -0.012125 -0.002524 0.000000 0.000000 0.000000
# 2 -0.012125 0.021937 -0.002524 0.000000 0.000000 0.000000
# 3 -0.002524 -0.002524 0.009480 0.000000 0.000000 0.000000
# 4 0.000000 0.000000 0.000000 -0.236381 0.000000 0.000000
# 5 0.000000 0.000000 0.000000 0.000000 -0.236381 0.000000
# 6 0.000000 0.000000 0.000000 0.000000 0.000000 0.068126
#
#
# Mechanical properties :
#
#
# Convention : Reuss Voigt Hill
#
# Bulk Modulus (GPa) = 52.61119 53.79934 53.20527
# Shear Modulus (GPa) = -16.09792 12.07216 -2.01288
#
# Velocity S-wave (km/s) = -3.16270 2.73884 -1.11836
# Velocity P-wave (km/s) = 4.39930 6.59020 5.60288
#
# Compressibility (1/GPa) = 0.01900736
#
# Stress axis : x y z
#
# Youngs Moduli (GPa) = 45.58430 45.58430 105.48827
#
# Poissons Ratio (x) = 0.55273 0.26626
# Poissons Ratio (y) = 0.55273 0.26626
# Poissons Ratio (z) = 0.11506 0.11506
#
# Static dielectric constant tensor:
#      x y z
#    x 1.536610 0.000000 0.000000 
#    y 0.000000 1.536610 0.000000 
#    z 0.000000 0.000000 1.564830 
# 
# From -- ./inp_files/2991.got.cif
#   From: 2010.05.17/outbox.cif.g08.bks.cpg/sg183_2_cif.got.tgz:2991.got - 2010.05.20 12:02:58.
