data_PCOD9584921
_publ_section_title
;
Structure prediction by ZEFSAII (Michael W. Deem and Ramdas Pophale) SiO2 
 PCOD9584921
Probable space group: P 6 M M
;
_chemical_formula_sum "Si O2"
_cell_formula_units_Z 72
_cell_length_a 18.652592
_cell_length_b 18.652592
_cell_length_c 15.739203
_cell_angle_alpha 90.000000
_cell_angle_beta 90.000000
_cell_angle_gamma 120.000000
_cell_volume 4742.329765
_symmetry_space_group_name_H-M "P 6 M M"
_symmetry_group_IT_number 183
_symmetry_cell_setting 'hexagonal'
loop_
_space_group_symop_operation_xyz
x,y,z
x-y,x,z
-y,x-y,z
-x,-y,z
-x+y,-x,z
y,-x+y,z
-x+y,y,z
x,x-y,z
-y,-x,z
y,x,z
x-y,-y,z
-x,-x+y,z
loop_
_atom_site_type_symbol
_atom_site_label
_atom_site_fract_x
_atom_site_fract_y
_atom_site_fract_z
Si Si1 0.831667 0.331325 0.617800
Si Si2 0.633734 0.539948 0.437126
Si Si3 0.499659 0.331325 0.899704
Si Si4 0.502174 0.669071 0.258751
Si Si5 0.734785 0.638990 0.758752
Si Si6 0.366266 0.460052 0.080377
O O1 0.847535 0.423768 0.631889
O O2 0.736304 0.263697 0.635285
O O3 0.852198 0.323485 0.519891
O O4 0.885810 0.307673 0.678261
O O5 0.546227 0.453774 0.431852
O O6 0.611445 0.611445 0.450825
O O7 0.676549 0.549644 0.346320
O O8 0.527394 0.263697 0.882219
O O9 0.576233 0.423768 0.885615
O O10 0.421863 0.307672 0.839243
O O11 0.471288 0.323485 0.997613
O O12 0.475248 0.737624 0.258751
O O13 0.421278 0.578723 0.258751
O O14 0.549645 0.676549 0.171184
O O15 0.832052 0.664103 0.758752
O O16 0.710861 0.710861 0.758753
O O17 0.453774 0.546227 0.085652
O O18 0.388556 0.388556 0.066677
#
# Coordination Sequence:
#
# PCOD9584921 Si02
#       6
#    12  12  12  12  12  12
#     4  10  19  30  45  66  93 123 154 186 219 257
#     4   9  17  28  41  56  76 106 144 183 220 260
#     4  10  19  30  45  66  93 123 154 186 219 257
#     4  10  18  27  39  55  76 101 132 174 225 276
#     4  10  21  35  51  70  91 117 148 184 225 269
#     4   9  17  28  41  56  76 106 144 183 220 260
#
# _framework density 15.182411
#
# number of rings (size 3 to 8) (size 9 to 14) (size 15 to 20)
#    0.000    2.333    0.000    3.500    0.000    4.667 
#    0.000    5.000    0.000    0.167    0.000    0.000 
#    0.000    0.000    0.000    0.000    0.000    0.000 
#
# Total GULP energy -401083.812214 kJ/mol
# GULP energy per Si atom -5570.608503 kJ/mol
# Density = 1.514786 g / cm^3
# Si number density = 15.182411 Si / 1000 Ang^3
#
#
#
# Elastic Constant Matrix: (Units=GPa)
#
#
# Indices 1 2 3 4 5 6 
#
# 1 54.5804 37.3797 25.3350 0.0000 0.0000 0.0000
# 2 37.3797 54.5804 25.3350 0.0000 0.0000 0.0000
# 3 25.3350 25.3350 87.8476 0.0000 0.0000 0.0000
# 4 0.0000 0.0000 0.0000 16.8406 0.0000 0.0000
# 5 0.0000 0.0000 0.0000 0.0000 16.8406 0.0000
# 6 0.0000 0.0000 0.0000 0.0000 0.0000 8.6003
#
#
#
# Elastic Compliance Matrix: (Units=1/GPa)
#
#
# Indices 1 2 3 4 5 6 
#
# 1 0.035533 -0.022604 -0.003729 0.000000 0.000000 0.000000
# 2 -0.022604 0.035533 -0.003729 0.000000 0.000000 0.000000
# 3 -0.003729 -0.003729 0.013534 0.000000 0.000000 0.000000
# 4 0.000000 0.000000 0.000000 0.059380 0.000000 0.000000
# 5 0.000000 0.000000 0.000000 0.000000 0.059380 0.000000
# 6 0.000000 0.000000 0.000000 0.000000 0.000000 0.116274
#
#
# Mechanical properties :
#
#
# Convention : Reuss Voigt Hill
#
# Bulk Modulus (GPa) = 40.85460 41.45639 41.15550
# Shear Modulus (GPa) = 12.88937 15.72024 14.30480
#
# Velocity S-wave (km/s) = 2.91686 3.22129 3.07285
# Velocity P-wave (km/s) = 6.18965 6.41876 6.30524
#
# Compressibility (1/GPa) = 0.02447705
#
# Stress axis : x y z
#
# Youngs Moduli (GPa) = 28.14287 28.14287 73.88804
#
# Poissons Ratio (x) = 0.63615 0.27550
# Poissons Ratio (y) = 0.63615 0.27550
# Poissons Ratio (z) = 0.10493 0.10493
#
# Static dielectric constant tensor:
#      x y z
#    x 1.494000 0.000000 0.000000 
#    y 0.000000 1.494000 0.000000 
#    z 0.000000 0.000000 1.541450 
# 
# From -- ./inp_files/2479.got.cif
#   From: 2010.05.17/outbox.cif.g08.bks.cpg/sg183_2_cif.got.tgz:2479.got - 2010.05.20 12:02:58.
