data_PCOD9584218
_publ_section_title
;
Structure prediction by ZEFSAII (Michael W. Deem and Ramdas Pophale) SiO2 
 PCOD9584218
Probable space group: P 64 2 2
;
_chemical_formula_sum "Si O2"
_cell_formula_units_Z 84
_cell_length_a 35.856987
_cell_length_b 35.856987
_cell_length_c 5.262744
_cell_angle_alpha 90.000000
_cell_angle_beta 90.000000
_cell_angle_gamma 120.000000
_cell_volume 5859.903497
_symmetry_space_group_name_H-M "P 64 2 2"
_symmetry_group_IT_number 181
_symmetry_cell_setting 'hexagonal'
loop_
_space_group_symop_operation_xyz
x,y,z
x-y,x,2/3+z
-y,x-y,1/3+z
-x,-y,z
-x+y,-x,2/3+z
y,-x+y,1/3+z
x-y,-y,-z
-x,-x+y,2/3-z
y,x,1/3-z
-y,-x,1/3-z
-x+y,y,-z
x,x-y,2/3-z
loop_
_atom_site_type_symbol
_atom_site_label
_atom_site_fract_x
_atom_site_fract_y
_atom_site_fract_z
Si Si1 0.265535 0.608791 0.585432
Si Si2 0.026397 0.656269 0.583929
Si Si3 0.539260 0.974064 0.248141
Si Si4 0.874765 0.580297 0.023281
Si Si5 0.509288 0.386413 0.349977
Si Si6 0.827947 0.361172 0.147241
Si Si7 0.553581 0.821315 0.813918
O O1 0.293591 0.587182 0.500000
O O2 0.270634 0.635317 0.333334
O O3 0.216227 0.573259 0.609701
O O4 0.279034 0.639517 0.833334
O O5 0.027807 0.611587 0.576411
O O6 0.075847 0.693735 0.612868
O O7 0.000000 0.654893 0.333334
O O8 0.000000 0.653864 0.833334
O O9 0.501336 0.925010 0.254392
O O10 0.542002 0.000000 0.500000
O O11 0.540873 0.000000 0.000000
O O12 0.847716 0.577981 0.269384
O O13 0.877143 0.536130 0.020883
O O14 0.848740 0.578278 0.769627
O O15 0.536670 0.380370 0.571938
O O16 0.525919 0.389010 0.065096
O O17 0.820298 0.312544 0.146236
O O18 0.547884 0.773942 0.833334
#
# Coordination Sequence:
#
# PCOD9584218 Si02
#       7
#    12  12  12  12  12  12  12
#     4  12  25  42  61  79  97 114 135 162 199 242
#     4   9  15  23  35  51  74 105 135 162 195 229
#     4   9  15  23  38  62  93 123 145 166 195 225
#     4   9  17  26  38  57  80 107 137 165 192 225
#     4   9  17  29  45  67  95 120 142 171 195 220
#     4  10  20  34  51  70  92 115 140 166 195 230
#     4  10  18  29  43  60  83 110 136 160 189 224
#
# _framework density 14.334707999999999
#
# number of rings (size 3 to 8) (size 9 to 14) (size 15 to 20)
#    0.000    2.286    0.000    4.286    0.000    6.857 
#    0.000    4.286    0.000    0.000    0.000    0.000 
#    0.000   40.000    0.000    0.000    0.000    0.000 
#
# Total GULP energy -468858.597562 kJ/mol
# GULP energy per Si atom -5581.649971 kJ/mol
# Density = 1.430208 g / cm^3
# Si number density = 14.334708 Si / 1000 Ang^3
#
#
#
# Elastic Constant Matrix: (Units=GPa)
#
#
# Indices 1 2 3 4 5 6 
#
# 1 34.7917 21.4009 25.9262 0.0000 0.0000 0.0000
# 2 21.4009 34.7917 25.9262 0.0000 0.0000 0.0000
# 3 25.9262 25.9262 125.4225 0.0000 0.0000 0.0000
# 4 0.0000 0.0000 0.0000 15.0577 0.0000 0.0000
# 5 0.0000 0.0000 0.0000 0.0000 15.0577 0.0000
# 6 0.0000 0.0000 0.0000 0.0000 0.0000 6.6954
#
#
#
# Elastic Compliance Matrix: (Units=1/GPa)
#
#
# Indices 1 2 3 4 5 6 
#
# 1 0.048334 -0.026344 -0.004546 0.000000 0.000000 0.000000
# 2 -0.026344 0.048334 -0.004546 0.000000 0.000000 0.000000
# 3 -0.004546 -0.004546 0.009852 0.000000 0.000000 0.000000
# 4 0.000000 0.000000 0.000000 0.066411 0.000000 0.000000
# 5 0.000000 0.000000 0.000000 0.000000 0.066411 0.000000
# 6 0.000000 0.000000 0.000000 0.000000 0.000000 0.149355
#
#
# Mechanical properties :
#
#
# Convention : Reuss Voigt Hill
#
# Bulk Modulus (GPa) = 28.04998 37.94584 32.99791
# Shear Modulus (GPa) = 10.60553 15.47899 13.04226
#
# Velocity S-wave (km/s) = 2.72297 3.28964 3.01962
# Velocity P-wave (km/s) = 5.43106 6.39982 5.93524
#
# Compressibility (1/GPa) = 0.03565065
#
# Stress axis : x y z
#
# Youngs Moduli (GPa) = 20.68934 20.68934 101.49868
#
# Poissons Ratio (x) = 0.54503 0.46138
# Poissons Ratio (y) = 0.54503 0.46138
# Poissons Ratio (z) = 0.09405 0.09405
#
# Static dielectric constant tensor:
#      x y z
#    x 1.490350 0.000000 0.000000 
#    y 0.000000 1.490350 0.000000 
#    z 0.000000 0.000000 1.479120 
# 
# From -- ./inp_files/1696.got.cif
#   From: 2010.05.17/outbox.cif.g08.bks.cpg/sg181_1_cif.got.tgz:1696.got - 2010.05.20 11:51:17.
