data_PCOD9584848
_publ_section_title
;
Structure prediction by ZEFSAII (Michael W. Deem and Ramdas Pophale) SiO2 
 PCOD9584848
Probable space group: P 63 2 2
;
_chemical_formula_sum "Si O2"
_cell_formula_units_Z 58
_cell_length_a 13.440865
_cell_length_b 13.440865
_cell_length_c 14.648339
_cell_angle_alpha 90.000000
_cell_angle_beta 90.000000
_cell_angle_gamma 120.000000
_cell_volume 2291.782780
_symmetry_space_group_name_H-M "P 63 2 2"
_symmetry_group_IT_number 182
_symmetry_cell_setting 'hexagonal'
loop_
_space_group_symop_operation_xyz
x,y,z
x-y,x,1/2+z
-y,x-y,z
-x,-y,1/2+z
-x+y,-x,z
y,-x+y,1/2+z
x-y,-y,-z
-x,-x+y,-z
y,x,-z
-y,-x,1/2-z
-x+y,y,1/2-z
x,x-y,1/2-z
loop_
_atom_site_type_symbol
_atom_site_label
_atom_site_fract_x
_atom_site_fract_y
_atom_site_fract_z
Si Si1 0.814971 0.185029 0.750000
Si Si2 0.000000 0.000000 0.609790
Si Si3 0.557118 0.585815 0.171808
Si Si4 0.425837 0.809487 0.477671
Si Si5 0.980931 0.765217 0.109266
Si Si6 0.744181 0.196561 0.347657
O O1 0.690030 0.142134 0.711597
O O2 0.907104 0.203604 0.670592
O O3 0.044483 0.132087 0.636212
O O4 0.000000 0.000000 0.500000
O O5 0.509441 0.490560 0.250000
O O6 0.490262 0.564325 0.077368
O O7 0.691335 0.632031 0.160820
O O8 0.291115 0.747332 0.455347
O O9 0.455200 0.811997 0.585427
O O10 0.875453 0.635022 0.124033
O O11 0.000000 0.773054 0.000000
O O12 0.749508 0.250493 0.250000
#
# Coordination Sequence:
#
# PCOD9584848 Si02
#       6
#     6   4  12  12  12  12
#     4  12  24  44  72 108 142 200 254 322 382 486
#     4   9  21  37  62  97 136 191 229 298 359 454
#     4  12  26  45  76 111 152 196 259 329 392 475
#     4  10  26  48  75 103 143 198 255 324 390 468
#     4  11  24  43  69 103 151 197 253 309 393 470
#     4  12  26  47  71 114 151 198 255 318 402 481
#
# _framework density 25.30781
#
# number of rings (size 3 to 8) (size 9 to 14) (size 15 to 20)
#    0.414    0.414    2.069    4.345    2.897    3.310 
#    0.621    0.000    0.000    0.000    0.000    0.000 
#    0.000    0.000    0.000    0.000    0.000    0.000 
#
# Total GULP energy -323457.519050 kJ/mol
# GULP energy per Si atom -5576.853777 kJ/mol
# Density = 2.525021 g / cm^3
# Si number density = 25.307810 Si / 1000 Ang^3
#
#
#
# Elastic Constant Matrix: (Units=GPa)
#
#
# Indices 1 2 3 4 5 6 
#
# 1 78.0688 -3.0077 38.7345 0.0000 0.0000 0.0000
# 2 -3.0077 78.0688 38.7345 0.0000 0.0000 0.0000
# 3 38.7345 38.7345 164.5236 0.0000 0.0000 0.0000
# 4 0.0000 0.0000 0.0000 37.2258 0.0000 0.0000
# 5 0.0000 0.0000 0.0000 0.0000 37.2258 0.0000
# 6 0.0000 0.0000 0.0000 0.0000 0.0000 40.5383
#
#
#
# Elastic Compliance Matrix: (Units=1/GPa)
#
#
# Indices 1 2 3 4 5 6 
#
# 1 0.014966 0.002632 -0.004143 0.000000 0.000000 0.000000
# 2 0.002632 0.014966 -0.004143 0.000000 0.000000 0.000000
# 3 -0.004143 -0.004143 0.008029 0.000000 0.000000 0.000000
# 4 0.000000 0.000000 0.000000 0.026863 0.000000 0.000000
# 5 0.000000 0.000000 0.000000 0.000000 0.026863 0.000000
# 6 0.000000 0.000000 0.000000 0.000000 0.000000 0.024668
#
#
# Mechanical properties :
#
#
# Convention : Reuss Voigt Hill
#
# Bulk Modulus (GPa) = 37.51889 52.17597 44.84743
# Shear Modulus (GPa) = 36.61682 39.41130 38.01406
#
# Velocity S-wave (km/s) = 3.80789 3.95052 3.87986
# Velocity P-wave (km/s) = 5.84727 6.43973 6.15064
#
# Compressibility (1/GPa) = 0.02665324
#
# Stress axis : x y z
#
# Youngs Moduli (GPa) = 66.81637 66.81637 124.54646
#
# Poissons Ratio (x) = -0.17589 0.51604
# Poissons Ratio (y) = -0.17589 0.51604
# Poissons Ratio (z) = 0.27684 0.27684
#
# Static dielectric constant tensor:
#      x y z
#    x 1.998910 0.000000 0.000000 
#    y 0.000000 1.998910 0.000000 
#    z 0.000000 0.000000 2.191410 
# 
# From -- ./inp_files/3511.got.cif
#   From: 2010.05.17/outbox.cif.g08.bks.cpg/sg182_2_cif.got.tgz:3511.got - 2010.05.20 11:58:53.
