data_PCOD9584733
_publ_section_title
;
Structure prediction by ZEFSAII (Michael W. Deem and Ramdas Pophale) SiO2 
 PCOD9584733
Probable space group: P 63 2 2
;
_chemical_formula_sum "Si O2"
_cell_formula_units_Z 42
_cell_length_a 8.363784
_cell_length_b 8.363784
_cell_length_c 32.147224
_cell_angle_alpha 90.000000
_cell_angle_beta 90.000000
_cell_angle_gamma 120.000000
_cell_volume 1947.510128
_symmetry_space_group_name_H-M "P 63 2 2"
_symmetry_group_IT_number 182
_symmetry_cell_setting 'hexagonal'
loop_
_space_group_symop_operation_xyz
x,y,z
x-y,x,1/2+z
-y,x-y,z
-x,-y,1/2+z
-x+y,-x,z
y,-x+y,1/2+z
x-y,-y,-z
-x,-x+y,-z
y,x,-z
-y,-x,1/2-z
-x+y,y,1/2-z
x,x-y,1/2-z
loop_
_atom_site_type_symbol
_atom_site_label
_atom_site_fract_x
_atom_site_fract_y
_atom_site_fract_z
Si Si1 0.979166 0.297747 0.834619
Si Si2 0.493468 0.100237 0.543581
Si Si3 0.011000 0.646062 0.868808
Si Si4 0.419791 0.209896 0.750000
O O1 0.899391 0.201800 0.790060
O O2 0.045652 0.514179 0.838300
O O3 0.144486 0.280523 0.854175
O O4 0.796662 0.198337 0.862691
O O5 0.715872 0.190504 0.545240
O O6 0.420486 0.000000 0.500000
O O7 0.396047 0.971202 0.583315
O O8 0.569112 0.138225 0.750000
#
# Coordination Sequence:
#
# PCOD9584733 Si02
#       4
#    12  12  12   6
#     4  12  24  44  73 103 146 195 244 301 370 450
#     4  10  23  41  68 103 142 186 240 299 363 429
#     4  12  24  45  69 105 145 196 240 299 370 448
#     4  10  20  44  72  96 136 182 240 306 376 414
#
# _framework density 21.565996999999999
#
# number of rings (size 3 to 8) (size 9 to 14) (size 15 to 20)
#    0.857    0.000    5.714    1.714    4.000    1.143 
#    0.000    0.000    0.000    0.571    0.000    0.000 
#    0.000    0.000    0.000    0.000    0.000    0.000 
#
# Total GULP energy -234035.172328 kJ/mol
# GULP energy per Si atom -5572.266008 kJ/mol
# Density = 2.151691 g / cm^3
# Si number density = 21.565997 Si / 1000 Ang^3
#
#
#
# Elastic Constant Matrix: (Units=GPa)
#
#
# Indices 1 2 3 4 5 6 
#
# 1 70.1034 17.4271 44.1848 0.0000 0.0000 0.0000
# 2 17.4271 70.1034 44.1848 0.0000 0.0000 0.0000
# 3 44.1848 44.1848 224.7105 0.0000 0.0000 0.0000
# 4 0.0000 0.0000 0.0000 32.8773 0.0000 0.0000
# 5 0.0000 0.0000 0.0000 0.0000 32.8773 0.0000
# 6 0.0000 0.0000 0.0000 0.0000 0.0000 26.3382
#
#
#
# Elastic Compliance Matrix: (Units=1/GPa)
#
#
# Indices 1 2 3 4 5 6 
#
# 1 0.016619 -0.002365 -0.002803 0.000000 0.000000 0.000000
# 2 -0.002365 0.016619 -0.002803 0.000000 0.000000 0.000000
# 3 -0.002803 -0.002803 0.005552 0.000000 0.000000 0.000000
# 4 0.000000 0.000000 0.000000 0.030416 0.000000 0.000000
# 5 0.000000 0.000000 0.000000 0.000000 0.030416 0.000000
# 6 0.000000 0.000000 0.000000 0.000000 0.000000 0.037968
#
#
# Mechanical properties :
#
#
# Convention : Reuss Voigt Hill
#
# Bulk Modulus (GPa) = 43.76430 64.05674 53.91052
# Shear Modulus (GPa) = 31.02739 35.69326 33.36033
#
# Velocity S-wave (km/s) = 3.79716 4.07267 3.93733
# Velocity P-wave (km/s) = 6.28982 7.20296 6.76182
#
# Compressibility (1/GPa) = 0.02284968
#
# Stress axis : x y z
#
# Youngs Moduli (GPa) = 60.17188 60.17188 180.10227
#
# Poissons Ratio (x) = 0.14229 0.50479
# Poissons Ratio (y) = 0.14229 0.50479
# Poissons Ratio (z) = 0.16865 0.16865
#
# Static dielectric constant tensor:
#      x y z
#    x 1.806470 0.000000 0.000000 
#    y 0.000000 1.806470 0.000000 
#    z 0.000000 0.000000 1.833340 
# 
# From -- ./inp_files/5668.got.cif
#   From: 2010.05.17/outbox.cif.g08.bks.cpg/sg182_3_cif.got.tgz:5668.got - 2010.05.20 11:58:53.
