data_PCOD9584673
_publ_section_title
;
Structure prediction by ZEFSAII (Michael W. Deem and Ramdas Pophale) SiO2 
 PCOD9584673
Probable space group: P 63 2 2
;
_chemical_formula_sum "Si O2"
_cell_formula_units_Z 76
_cell_length_a 17.789931
_cell_length_b 17.789931
_cell_length_c 15.001750
_cell_angle_alpha 90.000000
_cell_angle_beta 90.000000
_cell_angle_gamma 120.000000
_cell_volume 4111.696808
_symmetry_space_group_name_H-M "P 63 2 2"
_symmetry_group_IT_number 182
_symmetry_cell_setting 'hexagonal'
loop_
_space_group_symop_operation_xyz
x,y,z
x-y,x,1/2+z
-y,x-y,z
-x,-y,1/2+z
-x+y,-x,z
y,-x+y,1/2+z
x-y,-y,-z
-x,-x+y,-z
y,x,-z
-y,-x,1/2-z
-x+y,y,1/2-z
x,x-y,1/2-z
loop_
_atom_site_type_symbol
_atom_site_label
_atom_site_fract_x
_atom_site_fract_y
_atom_site_fract_z
Si Si1 0.000000 0.000000 0.142438
Si Si2 0.821455 0.641024 0.978154
Si Si3 0.430363 0.029683 0.254809
Si Si4 0.686494 0.787357 0.673031
Si Si5 0.799713 0.930551 0.148036
Si Si6 0.547757 0.924700 0.427994
Si Si7 0.919628 0.538477 0.931038
O O1 0.899375 0.965062 0.117714
O O2 0.000000 0.000000 0.250000
O O3 0.862366 0.730079 0.921140
O O4 0.721433 0.586299 0.953938
O O5 0.862972 0.582562 0.949563
O O6 0.842723 0.659905 0.082998
O O7 0.534992 0.069983 0.250000
O O8 0.391755 0.090801 0.284037
O O9 0.390169 0.975363 0.164901
O O10 0.397708 0.960075 0.333578
O O11 0.716852 0.858426 0.750000
O O12 0.769657 0.778228 0.649638
O O13 0.789860 0.894930 0.250000
O O14 0.443274 0.878094 0.434483
O O15 0.581746 0.000000 0.500000
O O16 0.000000 0.582074 0.000000
#
# Coordination Sequence:
#
# PCOD9584673 Si02
#       7
#     4  12  12  12  12  12  12
#     4   9  21  39  55  89 134 179 211 270 322 365
#     4  12  23  39  64  93 122 166 214 259 321 385
#     4  10  20  38  64  87 115 163 207 257 317 374
#     4  12  23  39  61  91 124 164 215 265 312 380
#     4  11  22  40  64  89 130 176 219 264 324 376
#     4  10  23  38  60  92 125 157 206 263 314 379
#     4  10  19  40  62  86 121 159 204 254 321 378
#
# _framework density 18.483851999999999
#
# number of rings (size 3 to 8) (size 9 to 14) (size 15 to 20)
#    0.000    1.263    3.158    3.789    0.000    1.263 
#    0.947    3.947    0.000    0.316    0.000    0.000 
#    0.000    0.000    0.000    0.000    0.000    0.000 
#
# Total GULP energy -424113.952178 kJ/mol
# GULP energy per Si atom -5580.446739 kJ/mol
# Density = 1.844178 g / cm^3
# Si number density = 18.483852 Si / 1000 Ang^3
#
#
#
# Elastic Constant Matrix: (Units=GPa)
#
#
# Indices 1 2 3 4 5 6 
#
# 1 81.3060 20.4637 16.2817 0.0000 0.0000 0.0000
# 2 20.4637 81.3060 16.2817 0.0000 0.0000 0.0000
# 3 16.2817 16.2817 122.4244 0.0000 0.0000 0.0000
# 4 0.0000 0.0000 0.0000 29.7710 0.0000 0.0000
# 5 0.0000 0.0000 0.0000 0.0000 29.7710 0.0000
# 6 0.0000 0.0000 0.0000 0.0000 0.0000 30.4211
#
#
#
# Elastic Compliance Matrix: (Units=1/GPa)
#
#
# Indices 1 2 3 4 5 6 
#
# 1 0.013349 -0.003087 -0.001365 0.000000 0.000000 0.000000
# 2 -0.003087 0.013349 -0.001365 0.000000 0.000000 0.000000
# 3 -0.001365 -0.001365 0.008531 0.000000 0.000000 0.000000
# 4 0.000000 0.000000 0.000000 0.033590 0.000000 0.000000
# 5 0.000000 0.000000 0.000000 0.000000 0.033590 0.000000
# 6 0.000000 0.000000 0.000000 0.000000 0.000000 0.032872
#
#
# Mechanical properties :
#
#
# Convention : Reuss Voigt Hill
#
# Bulk Modulus (GPa) = 42.37745 43.45448 42.91597
# Shear Modulus (GPa) = 32.30391 33.45990 32.88191
#
# Velocity S-wave (km/s) = 4.18506 4.25929 4.22234
# Velocity P-wave (km/s) = 6.80658 6.91008 6.85852
#
# Compressibility (1/GPa) = 0.02359746
#
# Stress axis : x y z
#
# Youngs Moduli (GPa) = 74.90978 74.90978 117.21470
#
# Poissons Ratio (x) = 0.23121 0.15999
# Poissons Ratio (y) = 0.23121 0.15999
# Poissons Ratio (z) = 0.10224 0.10224
#
# Static dielectric constant tensor:
#      x y z
#    x 1.655970 0.000000 0.000000 
#    y 0.000000 1.655970 0.000000 
#    z 0.000000 0.000000 1.636880 
# 
# From -- ./inp_files/3664.got.cif
#   From: 2010.05.17/outbox.cif.g08.bks.cpg/sg182_2_cif.got.tgz:3664.got - 2010.05.20 11:58:53.
