data_PCOD9584316
_publ_section_title
;
Structure prediction by ZEFSAII (Michael W. Deem and Ramdas Pophale) SiO2 
 PCOD9584316
Probable space group: P 64 2 2
;
_chemical_formula_sum "Si O2"
_cell_formula_units_Z 48
_cell_length_a 16.261874
_cell_length_b 16.261874
_cell_length_c 10.875713
_cell_angle_alpha 90.000000
_cell_angle_beta 90.000000
_cell_angle_gamma 120.000000
_cell_volume 2490.746643
_symmetry_space_group_name_H-M "P 64 2 2"
_symmetry_group_IT_number 181
_symmetry_cell_setting 'hexagonal'
loop_
_space_group_symop_operation_xyz
x,y,z
x-y,x,2/3+z
-y,x-y,1/3+z
-x,-y,z
-x+y,-x,2/3+z
y,-x+y,1/3+z
x-y,-y,-z
-x,-x+y,2/3-z
y,x,1/3-z
-y,-x,1/3-z
-x+y,y,-z
x,x-y,2/3-z
loop_
_atom_site_type_symbol
_atom_site_label
_atom_site_fract_x
_atom_site_fract_y
_atom_site_fract_z
Si Si1 0.571255 0.159283 0.775847
Si Si2 0.652671 0.305341 0.000000
Si Si3 0.015637 0.205559 0.557355
Si Si4 0.381708 0.004423 0.146525
Si Si5 0.154529 0.154529 0.166667
O O1 0.604253 0.233065 0.663934
O O2 0.458395 0.094282 0.794595
O O3 0.610872 0.087030 0.789241
O O4 0.615499 0.232927 0.887275
O O5 0.117329 0.234658 0.500000
O O6 0.981014 0.274020 0.501921
O O7 0.015560 0.210604 0.705618
O O8 0.945424 0.095982 0.520304
O O9 0.397426 0.000000 0.000000
#
# Coordination Sequence:
#
# PCOD9584316 Si02
#       5
#    12   6  12  12   6
#     4  10  21  38  57  89 119 157 201 268 311 379
#     4  10  20  35  62  82 120 158 199 244 320 378
#     4  11  23  38  64  88 120 169 207 256 318 379
#     4  11  21  38  61  91 122 155 212 265 316 373
#     4  10  23  42  54  89 130 156 210 261 304 384
#
# _framework density 19.271332000000001
#
# number of rings (size 3 to 8) (size 9 to 14) (size 15 to 20)
#    0.000    1.500    2.500    3.375    3.500    6.000 
#    0.000    2.500    0.000    7.500    0.000    0.000 
#    0.000    0.000    0.000    0.000    0.000    0.000 
#
# Total GULP energy -267691.190640 kJ/mol
# GULP energy per Si atom -5576.899805 kJ/mol
# Density = 1.922747 g / cm^3
# Si number density = 19.271332 Si / 1000 Ang^3
#
#
#
# Elastic Constant Matrix: (Units=GPa)
#
#
# Indices 1 2 3 4 5 6 
#
# 1 95.8340 58.5140 15.3642 0.0000 0.0000 0.0000
# 2 58.5140 95.8340 15.3642 0.0000 0.0000 0.0000
# 3 15.3642 15.3642 53.1920 0.0000 0.0000 0.0000
# 4 0.0000 0.0000 0.0000 22.4942 0.0000 0.0000
# 5 0.0000 0.0000 0.0000 0.0000 22.4942 0.0000
# 6 0.0000 0.0000 0.0000 0.0000 0.0000 18.6600
#
#
#
# Elastic Compliance Matrix: (Units=1/GPa)
#
#
# Indices 1 2 3 4 5 6 
#
# 1 0.016835 -0.009961 -0.001986 0.000000 0.000000 0.000000
# 2 -0.009961 0.016835 -0.001986 0.000000 0.000000 0.000000
# 3 -0.001986 -0.001986 0.019947 0.000000 0.000000 0.000000
# 4 0.000000 0.000000 0.000000 0.044456 0.000000 0.000000
# 5 0.000000 0.000000 0.000000 0.000000 0.044456 0.000000
# 6 0.000000 0.000000 0.000000 0.000000 0.000000 0.053591
#
#
# Mechanical properties :
#
#
# Convention : Reuss Voigt Hill
#
# Bulk Modulus (GPa) = 38.83053 47.03830 42.93441
# Shear Modulus (GPa) = 21.49924 23.10419 22.30172
#
# Velocity S-wave (km/s) = 3.34369 3.46625 3.40553
# Velocity P-wave (km/s) = 5.92454 6.36249 6.14742
#
# Compressibility (1/GPa) = 0.02575293
#
# Stress axis : x y z
#
# Youngs Moduli (GPa) = 59.40105 59.40105 50.13328
#
# Poissons Ratio (x) = 0.59167 0.09954
# Poissons Ratio (y) = 0.59167 0.09954
# Poissons Ratio (z) = 0.11794 0.11794
#
# Static dielectric constant tensor:
#      x y z
#    x 1.675490 0.000000 0.000000 
#    y 0.000000 1.675490 0.000000 
#    z 0.000000 0.000000 1.739970 
# 
# From -- ./inp_files/4457.got.cif
#   From: 2010.05.17/outbox.cif.g08.bks.cpg/sg181_3_cif.got.tgz:4457.got - 2010.05.20 11:51:17.
