data_PCOD9584959
_publ_section_title
;
Structure prediction by ZEFSAII (Michael W. Deem and Ramdas Pophale) SiO2 
 PCOD9584959
Probable space group: P 6 M M
;
_chemical_formula_sum "Si O2"
_cell_formula_units_Z 96
_cell_length_a 23.385376
_cell_length_b 23.385376
_cell_length_c 11.836336
_cell_angle_alpha 90.000000
_cell_angle_beta 90.000000
_cell_angle_gamma 120.000000
_cell_volume 5605.787501
_symmetry_space_group_name_H-M "P 6 M M"
_symmetry_group_IT_number 183
_symmetry_cell_setting 'hexagonal'
loop_
_space_group_symop_operation_xyz
x,y,z
x-y,x,z
-y,x-y,z
-x,-y,z
-x+y,-x,z
y,-x+y,z
-x+y,y,z
x,x-y,z
-y,-x,z
y,x,z
x-y,-y,z
-x,-x+y,z
loop_
_atom_site_type_symbol
_atom_site_label
_atom_site_fract_x
_atom_site_fract_y
_atom_site_fract_z
Si Si1 0.303704 0.478298 0.534700
Si Si2 0.334166 0.801484 0.288334
Si Si3 0.275307 0.201743 0.282483
Si Si4 0.528016 0.923023 0.726253
Si Si5 0.798980 0.722584 0.769028
Si Si6 0.074114 0.746059 0.517594
Si Si7 0.614896 0.920412 0.919176
Si Si8 0.325878 0.921477 0.177923
O O1 0.244008 0.488015 0.580378
O O2 0.332866 0.522700 0.423955
O O3 0.357312 0.485261 0.625758
O O4 0.271462 0.402153 0.496110
O O5 0.396305 0.792610 0.257830
O O6 0.263553 0.736448 0.258834
O O7 0.341767 0.868554 0.234401
O O8 0.264576 0.132288 0.242080
O O9 0.219586 0.219586 0.249641
O O10 0.282846 0.206193 0.418567
O O11 0.344325 0.261762 0.236880
O O12 0.461139 0.922278 0.754643
O O13 0.555590 0.902462 0.833122
O O14 0.581579 0.000000 0.697078
O O15 0.876399 0.752797 0.775045
O O16 0.773564 0.773564 0.787999
O O17 0.774392 0.692053 0.643716
O O18 0.763520 0.663853 0.859909
O O19 0.000000 0.683452 0.510183
O O20 0.656479 0.000000 0.921414
O O21 0.594054 0.900852 0.047360
O O22 0.382597 0.000000 0.184185
#
# Coordination Sequence:
#
# PCOD9584959 Si02
#       8
#    12  12  12  12  12  12  12  12
#     4  11  20  32  52  77 104 133 169 209 254 303
#     4  11  24  40  57  76 104 142 180 217 258 310
#     4  10  19  32  51  76 107 139 171 210 259 311
#     4  10  20  34  53  77 105 134 163 200 248 303
#     4  10  19  31  50  76 106 139 174 213 258 310
#     4  10  18  29  49  77 107 134 165 210 263 313
#     4   9  19  34  51  75 105 135 166 204 258 314
#     4  10  21  36  56  81 106 133 169 219 272 316
#
# _framework density 17.125159
#
# number of rings (size 3 to 8) (size 9 to 14) (size 15 to 20)
#    0.000    1.875    2.500    2.375    0.000    2.250 
#    0.000    1.250    0.000    0.500    0.000    0.000 
#    0.000    3.000    0.000    6.250    0.000    0.000 
#
# Total GULP energy -535213.160822 kJ/mol
# GULP energy per Si atom -5575.137092 kJ/mol
# Density = 1.708618 g / cm^3
# Si number density = 17.125159 Si / 1000 Ang^3
#
#
#
# Elastic Constant Matrix: (Units=GPa)
#
#
# Indices 1 2 3 4 5 6 
#
# 1 87.9350 53.3037 25.3737 0.0000 0.0000 0.0000
# 2 53.3037 87.9350 25.3737 0.0000 0.0000 0.0000
# 3 25.3737 25.3737 79.1507 0.0000 0.0000 0.0000
# 4 0.0000 0.0000 0.0000 6.7263 0.0000 0.0000
# 5 0.0000 0.0000 0.0000 0.0000 6.7263 0.0000
# 6 0.0000 0.0000 0.0000 0.0000 0.0000 17.3156
#
#
#
# Elastic Compliance Matrix: (Units=1/GPa)
#
#
# Indices 1 2 3 4 5 6 
#
# 1 0.018439 -0.010437 -0.002565 0.000000 0.000000 0.000000
# 2 -0.010437 0.018439 -0.002565 0.000000 0.000000 0.000000
# 3 -0.002565 -0.002565 0.014279 0.000000 0.000000 0.000000
# 4 0.000000 0.000000 0.000000 0.148671 0.000000 0.000000
# 5 0.000000 0.000000 0.000000 0.000000 0.148671 0.000000
# 6 0.000000 0.000000 0.000000 0.000000 0.000000 0.057751
#
#
# Mechanical properties :
#
#
# Convention : Reuss Voigt Hill
#
# Bulk Modulus (GPa) = 49.94563 51.45812 50.70187
# Shear Modulus (GPa) = 11.25980 16.21827 13.73904
#
# Velocity S-wave (km/s) = 2.56696 3.08075 2.83551
# Velocity P-wave (km/s) = 6.16556 6.53974 6.35540
#
# Compressibility (1/GPa) = 0.02002177
#
# Stress axis : x y z
#
# Youngs Moduli (GPa) = 54.23358 54.23358 70.03388
#
# Poissons Ratio (x) = 0.56603 0.17965
# Poissons Ratio (y) = 0.56603 0.17965
# Poissons Ratio (z) = 0.13912 0.13912
#
# Static dielectric constant tensor:
#      x y z
#    x 1.581390 0.000000 0.000000 
#    y 0.000000 1.581390 0.000000 
#    z 0.000000 0.000000 1.599450 
# 
# From -- ./inp_files/2016.got.cif
#   From: 2010.05.17/outbox.cif.g08.bks.cpg/sg183_2_cif.got.tgz:2016.got - 2010.05.20 12:02:58.
