data_PCOD9584547
_publ_section_title
;
Structure prediction by ZEFSAII (Michael W. Deem and Ramdas Pophale) SiO2 
 PCOD9584547
Probable space group: P 64 2 2
;
_chemical_formula_sum "Si O2"
_cell_formula_units_Z 51
_cell_length_a 16.381713
_cell_length_b 16.381713
_cell_length_c 9.146058
_cell_angle_alpha 90.000000
_cell_angle_beta 90.000000
_cell_angle_gamma 120.000000
_cell_volume 2125.608161
_symmetry_space_group_name_H-M "P 64 2 2"
_symmetry_group_IT_number 181
_symmetry_cell_setting 'hexagonal'
loop_
_space_group_symop_operation_xyz
x,y,z
x-y,x,2/3+z
-y,x-y,1/3+z
-x,-y,z
-x+y,-x,2/3+z
y,-x+y,1/3+z
x-y,-y,-z
-x,-x+y,2/3-z
y,x,1/3-z
-y,-x,1/3-z
-x+y,y,-z
x,x-y,2/3-z
loop_
_atom_site_type_symbol
_atom_site_label
_atom_site_fract_x
_atom_site_fract_y
_atom_site_fract_z
Si Si1 0.673903 0.807442 0.056398
Si Si2 0.153018 0.488827 0.292406
Si Si3 0.500000 0.500000 0.166667
Si Si4 0.811595 0.905797 0.833334
Si Si5 0.101685 0.898316 0.666667
Si Si6 0.599589 0.977009 0.757966
O O1 0.567869 0.790562 0.055488
O O2 0.724838 0.829253 0.210445
O O3 0.739547 0.899112 0.959487
O O4 0.676208 0.723227 0.969895
O O5 0.200712 0.600356 0.333334
O O6 0.087213 0.447232 0.435168
O O7 0.081999 0.450269 0.151373
O O8 0.583329 0.532519 0.282777
O O9 0.871506 0.866048 0.913442
#
# Coordination Sequence:
#
# PCOD9584547 Si02
#       6
#    12  12   3   6   6  12
#     4  12  26  44  76 108 147 193 259 318 383 467
#     4  11  22  45  71 107 138 191 242 302 377 460
#     4  12  24  38  72 106 148 172 242 300 364 442
#     4  12  26  52  71 103 152 204 267 322 393 468
#     4  12  30  48  77 108 150 208 258 334 396 469
#     4  11  23  41  69 105 141 183 238 301 368 444
#
# _framework density 23.993133
#
# number of rings (size 3 to 8) (size 9 to 14) (size 15 to 20)
#    0.000    0.471    4.706    3.529    9.882    0.000 
#    0.000   10.588    5.176    0.000    3.059    0.000 
#    0.000    0.000    0.000    0.000    0.000    0.000 
#
# Total GULP energy -284419.733962 kJ/mol
# GULP energy per Si atom -5576.857529 kJ/mol
# Density = 2.393852 g / cm^3
# Si number density = 23.993133 Si / 1000 Ang^3
#
#
#
# Elastic Constant Matrix: (Units=GPa)
#
#
# Indices 1 2 3 4 5 6 
#
# 1 114.6808 51.8856 46.9827 0.0000 0.0000 0.0000
# 2 51.8856 114.6808 46.9827 0.0000 0.0000 0.0000
# 3 46.9827 46.9827 176.5193 0.0000 0.0000 0.0000
# 4 0.0000 0.0000 0.0000 42.0151 0.0000 0.0000
# 5 0.0000 0.0000 0.0000 0.0000 42.0151 0.0000
# 6 0.0000 0.0000 0.0000 0.0000 0.0000 31.3976
#
#
#
# Elastic Compliance Matrix: (Units=1/GPa)
#
#
# Indices 1 2 3 4 5 6 
#
# 1 0.011495 -0.004430 -0.001880 0.000000 0.000000 0.000000
# 2 -0.004430 0.011495 -0.001880 0.000000 0.000000 0.000000
# 3 -0.001880 -0.001880 0.006666 0.000000 0.000000 0.000000
# 4 0.000000 0.000000 0.000000 0.023801 0.000000 0.000000
# 5 0.000000 0.000000 0.000000 0.000000 0.023801 0.000000
# 6 0.000000 0.000000 0.000000 0.000000 0.000000 0.031850
#
#
# Mechanical properties :
#
#
# Convention : Reuss Voigt Hill
#
# Bulk Modulus (GPa) = 75.33726 77.50918 76.42322
# Shear Modulus (GPa) = 38.48742 40.42090 39.45416
#
# Velocity S-wave (km/s) = 4.00947 4.10895 4.05951
# Velocity P-wave (km/s) = 7.27338 7.40852 7.34126
#
# Compressibility (1/GPa) = 0.01327364
#
# Stress axis : x y z
#
# Youngs Moduli (GPa) = 86.99773 86.99773 150.01486
#
# Poissons Ratio (x) = 0.38542 0.28207
# Poissons Ratio (y) = 0.38542 0.28207
# Poissons Ratio (z) = 0.16358 0.16358
#
# Static dielectric constant tensor:
#      x y z
#    x 2.078210 0.000000 0.000000 
#    y 0.000000 2.078210 0.000000 
#    z 0.000000 0.000000 1.919870 
# 
# From -- ./inp_files/2808.got.cif
#   From: 2010.05.17/outbox.cif.g08.bks.cpg/sg181_2_cif.got.tgz:2808.got - 2010.05.20 11:51:17.
