data_PCOD9584103
_publ_section_title
;
Structure prediction by ZEFSAII (Michael W. Deem and Ramdas Pophale) SiO2 
 PCOD9584103
Probable space group: P 62 2 2
;
_chemical_formula_sum "Si O2"
_cell_formula_units_Z 48
_cell_length_a 14.861302
_cell_length_b 14.861302
_cell_length_c 11.848555
_cell_angle_alpha 90.000000
_cell_angle_beta 90.000000
_cell_angle_gamma 120.000000
_cell_volume 2266.260034
_symmetry_space_group_name_H-M "P 62 2 2"
_symmetry_group_IT_number 180
_symmetry_cell_setting 'hexagonal'
loop_
_space_group_symop_operation_xyz
x,y,z
x-y,x,1/3+z
-y,x-y,2/3+z
-x,-y,z
-x+y,-x,1/3+z
y,-x+y,2/3+z
x-y,-y,-z
-x,-x+y,1/3-z
y,x,2/3-z
-y,-x,2/3-z
-x+y,y,-z
x,x-y,1/3-z
loop_
_atom_site_type_symbol
_atom_site_label
_atom_site_fract_x
_atom_site_fract_y
_atom_site_fract_z
Si Si1 0.105855 0.789662 0.720578
Si Si2 0.164379 0.534089 0.548357
Si Si3 0.293300 0.409879 0.794471
Si Si4 0.626302 0.182173 0.337187
O O1 0.140736 0.859265 0.833334
O O2 0.091307 0.679768 0.765668
O O3 0.194759 0.833870 0.622507
O O4 0.000000 0.770416 0.666667
O O5 0.269396 0.538792 0.500000
O O6 0.171960 0.585980 0.666667
O O7 0.138246 0.596270 0.455183
O O8 0.329748 0.329748 0.833334
O O9 0.379349 0.512692 0.727362
O O10 0.298096 0.461761 0.915264
O O11 0.692513 0.307488 0.333334
#
# Coordination Sequence:
#
# PCOD9584103 Si02
#       4
#    12  12  12  12
#     4  11  25  47  71  99 139 186 240 309 377 441
#     4  11  22  37  60  95 141 192 238 278 339 420
#     4  11  25  45  67  99 141 191 240 301 360 443
#     4  11  22  37  66  98 148 193 236 281 347 430
#
# _framework density 21.180271000000001
#
# number of rings (size 3 to 8) (size 9 to 14) (size 15 to 20)
#    0.000    1.000    5.000    3.750    7.000    4.500 
#    9.000    0.000    0.000    2.250    0.000    0.000 
#    0.000    0.000    0.000    0.000    0.000    0.000 
#
# Total GULP energy -267533.165500 kJ/mol
# GULP energy per Si atom -5573.607615 kJ/mol
# Density = 2.113206 g / cm^3
# Si number density = 21.180271 Si / 1000 Ang^3
#
#
#
# Elastic Constant Matrix: (Units=GPa)
#
#
# Indices 1 2 3 4 5 6 
#
# 1 65.9123 42.6938 59.0671 0.0000 0.0000 0.0000
# 2 42.6938 65.9123 59.0671 0.0000 0.0000 0.0000
# 3 59.0671 59.0671 226.3163 0.0000 0.0000 0.0000
# 4 0.0000 0.0000 0.0000 -39.9388 0.0000 0.0000
# 5 0.0000 0.0000 0.0000 0.0000 -39.9388 0.0000
# 6 0.0000 0.0000 0.0000 0.0000 0.0000 11.6093
#
#
#
# Elastic Compliance Matrix: (Units=1/GPa)
#
#
# Indices 1 2 3 4 5 6 
#
# 1 0.027963 -0.015106 -0.003356 0.000000 0.000000 0.000000
# 2 -0.015106 0.027963 -0.003356 0.000000 0.000000 0.000000
# 3 -0.003356 -0.003356 0.006170 0.000000 0.000000 0.000000
# 4 0.000000 0.000000 0.000000 -0.025038 0.000000 0.000000
# 5 0.000000 0.000000 0.000000 0.000000 -0.025038 0.000000
# 6 0.000000 0.000000 0.000000 0.000000 0.000000 0.086138
#
#
# Mechanical properties :
#
#
# Convention : Reuss Voigt Hill
#
# Bulk Modulus (GPa) = 54.16335 75.53296 64.84815
# Shear Modulus (GPa) = 33.79580 -0.49949 16.64815
#
# Velocity S-wave (km/s) = 3.99886 -0.48615 2.80665
# Velocity P-wave (km/s) = 6.85195 5.95183 6.41769
#
# Compressibility (1/GPa) = 0.01846267
#
# Stress axis : x y z
#
# Youngs Moduli (GPa) = 35.76099 35.76099 162.06726
#
# Poissons Ratio (x) = 0.54019 0.54387
# Poissons Ratio (y) = 0.54019 0.54387
# Poissons Ratio (z) = 0.12001 0.12001
#
# Static dielectric constant tensor:
#      x y z
#    x 1.853890 0.000000 0.000000 
#    y 0.000000 1.853890 0.000000 
#    z 0.000000 0.000000 1.834060 
# 
# From -- ./inp_files/4415.got.cif
#   From: 2010.05.17/outbox.cif.g08.bks.cpg/sg180_3_cif.got.tgz:4415.got - 2010.05.20 11:43:55.
