data_PCOD9584697
_publ_section_title
;
Structure prediction by ZEFSAII (Michael W. Deem and Ramdas Pophale) SiO2 
 PCOD9584697
Probable space group: P 63 2 2
;
_chemical_formula_sum "Si O2"
_cell_formula_units_Z 44
_cell_length_a 12.992699
_cell_length_b 12.992699
_cell_length_c 15.927754
_cell_angle_alpha 90.000000
_cell_angle_beta 90.000000
_cell_angle_gamma 120.000000
_cell_volume 2328.541196
_symmetry_space_group_name_H-M "P 63 2 2"
_symmetry_group_IT_number 182
_symmetry_cell_setting 'hexagonal'
loop_
_space_group_symop_operation_xyz
x,y,z
x-y,x,1/2+z
-y,x-y,z
-x,-y,1/2+z
-x+y,-x,z
y,-x+y,1/2+z
x-y,-y,-z
-x,-x+y,-z
y,x,-z
-y,-x,1/2-z
-x+y,y,1/2-z
x,x-y,1/2-z
loop_
_atom_site_type_symbol
_atom_site_label
_atom_site_fract_x
_atom_site_fract_y
_atom_site_fract_z
Si Si1 0.728355 0.585710 0.162579
Si Si2 0.667187 0.089993 0.759578
Si Si3 0.022508 0.775281 0.901868
Si Si4 0.666667 0.333333 0.148932
Si Si5 0.000000 0.000000 0.102007
O O1 0.789343 0.578686 0.250000
O O2 0.647472 0.640642 0.187159
O O3 0.836049 0.675786 0.106717
O O4 0.664114 0.452383 0.125477
O O5 0.785521 0.214480 0.750000
O O6 0.553001 0.106001 0.750000
O O7 0.690675 0.033754 0.844158
O O8 0.985909 0.872928 0.872184
O O9 0.000000 0.751433 0.000000
O O10 0.666668 0.333334 0.250000
O O11 0.000000 0.000000 0.000000
#
# Coordination Sequence:
#
# PCOD9584697 Si02
#       5
#    12  12  12   4   4
#     4   9  17  31  54  80 109 144 186 236 287 348
#     4  11  22  38  57  80 114 158 201 245 303 368
#     4  10  20  36  58  88 119 150 193 247 302 359
#     4   9  15  30  54  81 105 138 190 236 277 333
#     4   9  18  33  55  83 118 150 187 248 310 360
#
# _framework density 18.895949999999999
#
# number of rings (size 3 to 8) (size 9 to 14) (size 15 to 20)
#    0.000    2.182    0.000    6.000    0.000    0.000 
#    0.000    9.545    0.000    1.636    0.000    0.000 
#    0.000    0.000    0.000    0.000    0.000    0.000 
#
# Total GULP energy -245090.683697 kJ/mol
# GULP energy per Si atom -5570.242811 kJ/mol
# Density = 1.885294 g / cm^3
# Si number density = 18.895950 Si / 1000 Ang^3
#
#
#
# Elastic Constant Matrix: (Units=GPa)
#
#
# Indices 1 2 3 4 5 6 
#
# 1 162.2771 81.2963 46.7546 0.0000 0.0000 -0.0002
# 2 81.2963 162.2768 46.7545 0.0000 0.0000 0.0001
# 3 46.7546 46.7545 56.2706 0.0000 0.0000 0.0000
# 4 0.0000 0.0000 0.0000 19.7572 0.0000 0.0000
# 5 0.0000 0.0000 0.0000 0.0000 19.7571 0.0000
# 6 -0.0002 0.0001 0.0000 0.0000 0.0000 40.4901
#
#
#
# Elastic Compliance Matrix: (Units=1/GPa)
#
#
# Indices 1 2 3 4 5 6 
#
# 1 0.009189 -0.003160 -0.005009 0.000000 0.000000 0.000000
# 2 -0.003160 0.009189 -0.005009 0.000000 0.000000 0.000000
# 3 -0.005009 -0.005009 0.026095 0.000000 0.000000 0.000000
# 4 0.000000 0.000000 0.000000 0.050615 0.000000 0.000000
# 5 0.000000 0.000000 0.000000 0.000000 0.050615 0.000000
# 6 0.000000 0.000000 0.000000 0.000000 0.000000 0.024697
#
#
# Mechanical properties :
#
#
# Convention : Reuss Voigt Hill
#
# Bulk Modulus (GPa) = 55.19955 81.15948 68.17952
# Shear Modulus (GPa) = 24.65558 29.73548 27.19553
#
# Velocity S-wave (km/s) = 3.61613 3.97122 3.79783
# Velocity P-wave (km/s) = 6.83454 8.00446 7.44253
#
# Compressibility (1/GPa) = 0.01811609
#
# Stress axis : x y z
#
# Youngs Moduli (GPa) = 108.83075 108.83059 38.32129
#
# Poissons Ratio (x) = 0.34391 0.19195
# Poissons Ratio (y) = 0.34391 0.19195
# Poissons Ratio (z) = 0.54514 0.54514
#
# Static dielectric constant tensor:
#      x y z
#    x 1.698770 0.000000 0.000000 
#    y 0.000000 1.698770 0.000000 
#    z 0.000000 0.000000 1.647120 
# 
# From -- ./inp_files/4109.got.cif
#   From: 2010.05.17/outbox.cif.g08.bks.cpg/sg182_3_cif.got.tgz:4109.got - 2010.05.20 11:58:53.
