data_PCOD9584962
_publ_section_title
;
Structure prediction by ZEFSAII (Michael W. Deem and Ramdas Pophale) SiO2 
 PCOD9584962
Probable space group: P 6 M M
;
_chemical_formula_sum "Si O2"
_cell_formula_units_Z 84
_cell_length_a 22.763936
_cell_length_b 22.763936
_cell_length_c 12.349733
_cell_angle_alpha 90.000000
_cell_angle_beta 90.000000
_cell_angle_gamma 120.000000
_cell_volume 5542.209161
_symmetry_space_group_name_H-M "P 6 M M"
_symmetry_group_IT_number 183
_symmetry_cell_setting 'hexagonal'
loop_
_space_group_symop_operation_xyz
x,y,z
x-y,x,z
-y,x-y,z
-x,-y,z
-x+y,-x,z
y,-x+y,z
-x+y,y,z
x,x-y,z
-y,-x,z
y,x,z
x-y,-y,z
-x,-x+y,z
loop_
_atom_site_type_symbol
_atom_site_label
_atom_site_fract_x
_atom_site_fract_y
_atom_site_fract_z
Si Si1 0.076417 0.789331 0.233230
Si Si2 0.333871 0.919622 0.332367
Si Si3 0.195312 0.666707 0.736751
Si Si4 0.666707 0.195312 0.476081
Si Si5 0.712912 0.923583 0.979602
Si Si6 0.474465 0.392277 0.106419
Si Si7 0.414252 0.333875 0.880467
O O1 0.134189 0.865812 0.250902
O O2 0.086585 0.738739 0.310964
O O3 0.000000 0.773369 0.248002
O O4 0.081234 0.771943 0.106416
O O5 0.334499 0.869398 0.421650
O O6 0.351710 0.898325 0.217671
O O7 0.386960 0.000000 0.352076
O O8 0.198015 0.599008 0.766950
O O9 0.265001 0.735000 0.767746
O O10 0.189829 0.666876 0.606416
O O11 0.130602 0.665499 0.791183
O O12 0.599007 0.198013 0.445882
O O13 0.735000 0.265001 0.445086
O O14 0.731618 0.865809 0.961928
O O15 0.652152 0.913417 0.901871
O O16 0.773368 0.000000 0.964829
O O17 0.553114 0.446887 0.106422
O O18 0.432920 0.432920 0.106418
O O19 0.453389 0.351713 0.995163
O O20 0.386964 0.386964 0.860758
#
# Coordination Sequence:
#
# PCOD9584962 Si02
#       7
#    12  12  12  12  12  12  12
#     4   9  16  27  44  67  94 122 152 184 221 267
#     4  10  18  30  48  71  95 117 145 185 233 281
#     4  10  21  36  51  65  85 118 159 198 234 275
#     4  10  21  36  51  65  85 118 159 198 234 275
#     4   9  16  27  44  67  94 122 152 184 221 267
#     4   9  16  26  41  64  93 118 138 168 218 275
#     4  10  18  30  48  71  95 117 145 185 233 281
#
# _framework density 15.156411
#
# number of rings (size 3 to 8) (size 9 to 14) (size 15 to 20)
#    0.000    2.429    1.429    2.000    0.000    3.429 
#    0.000    1.429    0.000    0.286    0.000    4.000 
#    0.000    0.000    0.000    0.000    0.000    0.000 
#
# Total GULP energy -467910.844428 kJ/mol
# GULP energy per Si atom -5570.367196 kJ/mol
# Density = 1.512191 g / cm^3
# Si number density = 15.156411 Si / 1000 Ang^3
#
#
#
# Elastic Constant Matrix: (Units=GPa)
#
#
# Indices 1 2 3 4 5 6 
#
# 1 104.5801 70.5379 35.5889 0.0000 0.0000 0.0000
# 2 70.5379 104.5801 35.5889 0.0000 0.0000 0.0000
# 3 35.5889 35.5889 35.1465 0.0000 0.0000 0.0000
# 4 0.0000 0.0000 0.0000 22.0990 0.0000 0.0000
# 5 0.0000 0.0000 0.0000 0.0000 22.0990 0.0000
# 6 0.0000 0.0000 0.0000 0.0000 0.0000 17.0211
#
#
#
# Elastic Compliance Matrix: (Units=1/GPa)
#
#
# Indices 1 2 3 4 5 6 
#
# 1 0.019540 -0.009835 -0.009827 0.000000 0.000000 0.000000
# 2 -0.009835 0.019540 -0.009827 0.000000 0.000000 0.000000
# 3 -0.009827 -0.009827 0.048353 0.000000 0.000000 0.000000
# 4 0.000000 0.000000 0.000000 0.045251 0.000000 0.000000
# 5 0.000000 0.000000 0.000000 0.000000 0.045251 0.000000
# 6 0.000000 0.000000 0.000000 0.000000 0.000000 0.058751
#
#
# Mechanical properties :
#
#
# Convention : Reuss Voigt Hill
#
# Bulk Modulus (GPa) = 35.14266 58.63758 46.89012
# Shear Modulus (GPa) = 16.38548 19.08324 17.73436
#
# Velocity S-wave (km/s) = 3.29156 3.55221 3.42437
# Velocity P-wave (km/s) = 6.13864 7.45631 6.82933
#
# Compressibility (1/GPa) = 0.02845544
#
# Stress axis : x y z
#
# Youngs Moduli (GPa) = 51.17726 51.17726 20.68113
#
# Poissons Ratio (x) = 0.50335 0.20323
# Poissons Ratio (y) = 0.50335 0.20323
# Poissons Ratio (z) = 0.50291 0.50291
#
# Static dielectric constant tensor:
#      x y z
#    x 1.499870 0.000000 0.000000 
#    y 0.000000 1.499870 0.000000 
#    z 0.000000 0.000000 1.497420 
# 
# From -- ./inp_files/1765.got.cif
#   From: 2010.05.17/outbox.cif.g08.bks.cpg/sg183_1_cif.got.tgz:1765.got - 2010.05.20 12:02:58.
