data_PCOD9584996
_publ_section_title
;
Structure prediction by ZEFSAII (Michael W. Deem and Ramdas Pophale) SiO2 
 PCOD9584996
Probable space group: P 6 M M
;
_chemical_formula_sum "Si O2"
_cell_formula_units_Z 96
_cell_length_a 18.482521
_cell_length_b 18.482521
_cell_length_c 20.752250
_cell_angle_alpha 90.000000
_cell_angle_beta 90.000000
_cell_angle_gamma 120.000000
_cell_volume 6139.291279
_symmetry_space_group_name_H-M "P 6 M M"
_symmetry_group_IT_number 183
_symmetry_cell_setting 'hexagonal'
loop_
_space_group_symop_operation_xyz
x,y,z
x-y,x,z
-y,x-y,z
-x,-y,z
-x+y,-x,z
y,-x+y,z
-x+y,y,z
x,x-y,z
-y,-x,z
y,x,z
x-y,-y,z
-x,-x+y,z
loop_
_atom_site_type_symbol
_atom_site_label
_atom_site_fract_x
_atom_site_fract_y
_atom_site_fract_z
Si Si1 0.499354 0.166629 0.352470
Si Si2 0.262595 0.359563 0.092153
Si Si3 0.667341 0.161590 0.571640
Si Si4 0.163417 0.495319 0.715497
Si Si5 0.265351 0.360764 0.458977
Si Si6 0.500715 0.668849 0.986241
Si Si7 0.459059 0.365696 0.850690
Si Si8 0.368413 0.467993 0.209775
O O1 0.575686 0.151371 0.368784
O O2 0.525385 0.262693 0.364387
O O3 0.418249 0.112332 0.395839
O O4 0.478618 0.145514 0.277272
O O5 0.164811 0.329621 0.087781
O O6 0.288905 0.288905 0.094375
O O7 0.300721 0.417535 0.155492
O O8 0.308685 0.421372 0.032193
O O9 0.577324 0.154647 0.562464
O O10 0.741223 0.258778 0.567253
O O11 0.672103 0.131552 0.644190
O O12 0.689198 0.112940 0.518668
O O13 0.258401 0.516802 0.718998
O O14 0.160150 0.580075 0.717302
O O15 0.119229 0.445007 0.779988
O O16 0.167937 0.335874 0.460797
O O17 0.286989 0.286989 0.460129
O O18 0.471915 0.735958 0.001245
O O19 0.424992 0.575009 0.995465
O O20 0.528718 0.679472 0.911630
O O21 0.546485 0.453516 0.846399
O O22 0.388067 0.388067 0.865919
O O23 0.439778 0.560223 0.187045
O O24 0.416673 0.416673 0.222264
#
# Coordination Sequence:
#
# PCOD9584996 Si02
#       8
#    12  12  12  12  12  12  12  12
#     4  10  19  30  45  67  97 131 163 191 217 248
#     4  10  20  33  49  68  90 117 149 185 226 271
#     4   9  17  28  43  64  91 123 156 187 218 254
#     4   9  16  26  40  58  81 110 145 184 222 257
#     4  10  21  35  50  68  89 114 145 183 228 274
#     4  10  19  30  45  65  89 117 149 184 221 263
#     4   9  17  27  38  54  78 110 148 188 227 262
#     4   9  17  29  46  68  93 122 156 191 224 258
#
# _framework density 15.636984
#
# number of rings (size 3 to 8) (size 9 to 14) (size 15 to 20)
#    0.000    2.500    0.000    2.750    0.000    4.250 
#    0.000    3.750    0.000    4.250    0.000    0.000 
#    0.000    0.000    0.000    4.000    0.000    0.000 
#
# Total GULP energy -534856.819494 kJ/mol
# GULP energy per Si atom -5571.425203 kJ/mol
# Density = 1.560139 g / cm^3
# Si number density = 15.636984 Si / 1000 Ang^3
#
#
#
# Elastic Constant Matrix: (Units=GPa)
#
#
# Indices 1 2 3 4 5 6 
#
# 1 61.9124 46.4167 30.5928 0.0000 0.0000 0.0000
# 2 46.4167 61.9124 30.5928 0.0000 0.0000 0.0000
# 3 30.5928 30.5928 68.6264 0.0000 0.0000 0.0000
# 4 0.0000 0.0000 0.0000 20.4706 0.0000 0.0000
# 5 0.0000 0.0000 0.0000 0.0000 20.4706 0.0000
# 6 0.0000 0.0000 0.0000 0.0000 0.0000 7.7479
#
#
#
# Elastic Compliance Matrix: (Units=1/GPa)
#
#
# Indices 1 2 3 4 5 6 
#
# 1 0.038436 -0.026098 -0.005500 0.000000 0.000000 0.000000
# 2 -0.026098 0.038436 -0.005500 0.000000 0.000000 0.000000
# 3 -0.005500 -0.005500 0.019475 0.000000 0.000000 0.000000
# 4 0.000000 0.000000 0.000000 0.048851 0.000000 0.000000
# 5 0.000000 0.000000 0.000000 0.000000 0.048851 0.000000
# 6 0.000000 0.000000 0.000000 0.000000 0.000000 0.129068
#
#
# Mechanical properties :
#
#
# Convention : Reuss Voigt Hill
#
# Bulk Modulus (GPa) = 45.14538 45.29506 45.22022
# Shear Modulus (GPa) = 12.35496 15.39440 13.87468
#
# Velocity S-wave (km/s) = 2.81394 3.14106 2.98199
# Velocity P-wave (km/s) = 6.28421 6.49496 6.39045
#
# Compressibility (1/GPa) = 0.02215066
#
# Stress axis : x y z
#
# Youngs Moduli (GPa) = 26.01742 26.01742 51.34727
#
# Poissons Ratio (x) = 0.67901 0.28241
# Poissons Ratio (y) = 0.67901 0.28241
# Poissons Ratio (z) = 0.14309 0.14309
#
# Static dielectric constant tensor:
#      x y z
#    x 1.501760 0.000000 0.000000 
#    y 0.000000 1.501760 0.000000 
#    z 0.000000 0.000000 1.556250 
# 
# From -- ./inp_files/3090.got.cif
#   From: 2010.05.17/outbox.cif.g08.bks.cpg/sg183_2_cif.got.tgz:3090.got - 2010.05.20 12:02:58.
