data_PCOD9584785
_publ_section_title
;
Structure prediction by ZEFSAII (Michael W. Deem and Ramdas Pophale) SiO2 
 PCOD9584785
Probable space group: P 63 2 2
;
_chemical_formula_sum "Si O2"
_cell_formula_units_Z 84
_cell_length_a 17.913804
_cell_length_b 17.913804
_cell_length_c 14.057609
_cell_angle_alpha 90.000000
_cell_angle_beta 90.000000
_cell_angle_gamma 120.000000
_cell_volume 3906.768952
_symmetry_space_group_name_H-M "P 63 2 2"
_symmetry_group_IT_number 182
_symmetry_cell_setting 'hexagonal'
loop_
_space_group_symop_operation_xyz
x,y,z
x-y,x,1/2+z
-y,x-y,z
-x,-y,1/2+z
-x+y,-x,z
y,-x+y,1/2+z
x-y,-y,-z
-x,-x+y,-z
y,x,-z
-y,-x,1/2-z
-x+y,y,1/2-z
x,x-y,1/2-z
loop_
_atom_site_type_symbol
_atom_site_label
_atom_site_fract_x
_atom_site_fract_y
_atom_site_fract_z
Si Si1 0.162129 0.435048 0.496606
Si Si2 0.530708 0.602770 0.314258
Si Si3 0.679189 0.759104 0.249514
Si Si4 0.754726 0.796983 0.587838
Si Si5 0.801309 0.764906 0.105628
Si Si6 0.417684 0.541746 0.857626
Si Si7 0.098148 0.681428 0.538101
O O1 0.125542 0.461224 0.403632
O O2 0.094564 0.340442 0.539582
O O3 0.171496 0.500346 0.582355
O O4 0.248628 0.429302 0.476171
O O5 0.444934 0.555066 0.250000
O O6 0.604427 0.661990 0.238906
O O7 0.554239 0.531733 0.351043
O O8 0.637406 0.818703 0.250000
O O9 0.729521 0.758710 0.343016
O O10 0.752366 0.798002 0.170754
O O11 0.817788 0.817788 0.500000
O O12 0.781029 0.887566 0.635071
O O13 0.743612 0.660468 0.108653
O O14 0.795314 0.795314 0.000000
O O15 0.423588 0.576413 0.750000
O O16 0.492233 0.619638 0.916002
O O17 0.000000 0.621793 0.500000
#
# Coordination Sequence:
#
# PCOD9584785 Si02
#       7
#    12  12  12  12  12  12  12
#     4  11  22  42  67  98 134 179 228 289 344 406
#     4  11  23  42  70  97 134 177 230 280 344 416
#     4  12  24  39  66 100 134 172 230 289 340 409
#     4  11  20  39  66  93 132 177 227 283 341 405
#     4  10  22  38  61  97 133 173 228 287 345 400
#     4  11  22  41  68  99 136 179 229 280 346 417
#     4  10  23  39  68  98 133 175 227 286 341 410
#
# _framework density 21.501144
#
# number of rings (size 3 to 8) (size 9 to 14) (size 15 to 20)
#    0.000    1.143    2.857    4.286    4.000    1.714 
#    0.857    0.000    0.000    8.857    0.000    0.000 
#    0.000    0.000    0.000    0.000    0.000    0.000 
#
# Total GULP energy -468463.428821 kJ/mol
# GULP energy per Si atom -5576.945581 kJ/mol
# Density = 2.145221 g / cm^3
# Si number density = 21.501144 Si / 1000 Ang^3
#
#
#
# Elastic Constant Matrix: (Units=GPa)
#
#
# Indices 1 2 3 4 5 6 
#
# 1 78.0332 22.1896 27.9974 0.0000 0.0000 0.0000
# 2 22.1896 78.0332 27.9974 0.0000 0.0000 0.0000
# 3 27.9974 27.9974 104.6959 0.0000 0.0000 0.0000
# 4 0.0000 0.0000 0.0000 14.9644 0.0000 0.0000
# 5 0.0000 0.0000 0.0000 0.0000 14.9644 0.0000
# 6 0.0000 0.0000 0.0000 0.0000 0.0000 27.9218
#
#
#
# Elastic Compliance Matrix: (Units=1/GPa)
#
#
# Indices 1 2 3 4 5 6 
#
# 1 0.014819 -0.003088 -0.003137 0.000000 0.000000 0.000000
# 2 -0.003088 0.014819 -0.003137 0.000000 0.000000 0.000000
# 3 -0.003137 -0.003137 0.011229 0.000000 0.000000 0.000000
# 4 0.000000 0.000000 0.000000 0.066825 0.000000 0.000000
# 5 0.000000 0.000000 0.000000 0.000000 0.066825 0.000000
# 6 0.000000 0.000000 0.000000 0.000000 0.000000 0.035814
#
#
# Mechanical properties :
#
#
# Convention : Reuss Voigt Hill
#
# Bulk Modulus (GPa) = 45.16236 46.34791 45.75514
# Shear Modulus (GPa) = 21.14729 23.74196 22.44462
#
# Velocity S-wave (km/s) = 3.13955 3.32658 3.23442
# Velocity P-wave (km/s) = 5.84744 6.02973 5.93929
#
# Compressibility (1/GPa) = 0.02214233
#
# Stress axis : x y z
#
# Youngs Moduli (GPa) = 67.48200 67.48200 89.05361
#
# Poissons Ratio (x) = 0.20841 0.27935
# Poissons Ratio (y) = 0.20841 0.27935
# Poissons Ratio (z) = 0.21168 0.21168
#
# Static dielectric constant tensor:
#      x y z
#    x 1.792310 0.000000 0.000000 
#    y 0.000000 1.792310 0.000000 
#    z 0.000000 0.000000 1.879650 
# 
# From -- ./inp_files/3742.got.cif
#   From: 2010.05.17/outbox.cif.g08.bks.cpg/sg182_2_cif.got.tgz:3742.got - 2010.05.20 11:58:53.
