data_PCOD9584322
_publ_section_title
;
Structure prediction by ZEFSAII (Michael W. Deem and Ramdas Pophale) SiO2 
 PCOD9584322
Probable space group: P 64 2 2
;
_chemical_formula_sum "Si O2"
_cell_formula_units_Z 84
_cell_length_a 17.876982
_cell_length_b 17.876982
_cell_length_c 14.622958
_cell_angle_alpha 90.000000
_cell_angle_beta 90.000000
_cell_angle_gamma 120.000000
_cell_volume 4047.196306
_symmetry_space_group_name_H-M "P 64 2 2"
_symmetry_group_IT_number 181
_symmetry_cell_setting 'hexagonal'
loop_
_space_group_symop_operation_xyz
x,y,z
x-y,x,2/3+z
-y,x-y,1/3+z
-x,-y,z
-x+y,-x,2/3+z
y,-x+y,1/3+z
x-y,-y,-z
-x,-x+y,2/3-z
y,x,1/3-z
-y,-x,1/3-z
-x+y,y,-z
x,x-y,2/3-z
loop_
_atom_site_type_symbol
_atom_site_label
_atom_site_fract_x
_atom_site_fract_y
_atom_site_fract_z
Si Si1 0.901640 0.152577 0.498063
Si Si2 0.395075 0.294488 0.129453
Si Si3 0.675644 0.072897 0.774652
Si Si4 0.105677 0.622696 0.050567
Si Si5 0.068953 0.137906 0.000000
Si Si6 0.124417 0.000000 0.000000
Si Si7 0.104773 0.561242 0.435798
Si Si8 0.817585 0.486480 0.961641
O O1 0.804723 0.127281 0.472881
O O2 0.949001 0.251530 0.532621
O O3 0.890346 0.086407 0.578150
O O4 0.959196 0.150450 0.415673
O O5 0.355310 0.355310 0.166667
O O6 0.425067 0.305252 0.023740
O O7 0.478569 0.317718 0.192557
O O8 0.650403 0.116859 0.856355
O O9 0.709455 0.136784 0.690034
O O10 0.585200 0.993297 0.742150
O O11 0.133871 0.564597 0.991730
O O12 0.139734 0.618928 0.153316
O O13 0.107730 0.077391 0.972380
O O14 0.139693 0.569847 0.333334
O O15 0.000000 0.500000 0.429053
O O16 0.719780 0.439559 0.000000
#
# Coordination Sequence:
#
# PCOD9584322 Si02
#       8
#    12  12  12  12   6   6  12  12
#     4  12  25  41  67  99 135 183 230 301 362 422
#     4  12  23  35  61  99 141 171 218 290 361 411
#     4  10  20  36  61  98 135 168 232 279 345 417
#     4  10  22  35  61  99 131 172 223 289 341 423
#     4  11  24  48  68  92 132 188 234 282 360 464
#     4  11  26  44  68  96 129 182 242 290 357 446
#     4   8  16  33  58  86 124 172 215 263 332 405
#     4  11  20  38  60  98 135 186 225 273 354 432
#
# _framework density 20.755108
#
# number of rings (size 3 to 8) (size 9 to 14) (size 15 to 20)
#    0.000    1.429    2.857    4.286    2.000    4.000 
#    0.000    0.000    0.000    0.857    7.429    0.000 
#    0.000    0.000    0.000    0.000    0.000    0.000 
#
# Total GULP energy -467736.634403 kJ/mol
# GULP energy per Si atom -5568.293267 kJ/mol
# Density = 2.070787 g / cm^3
# Si number density = 20.755108 Si / 1000 Ang^3
#
#
#
# Elastic Constant Matrix: (Units=GPa)
#
#
# Indices 1 2 3 4 5 6 
#
# 1 62.0261 49.8327 26.2083 0.0000 0.0000 0.0000
# 2 49.8327 62.0261 26.2083 0.0000 0.0000 0.0000
# 3 26.2083 26.2083 152.4348 0.0000 0.0000 0.0000
# 4 0.0000 0.0000 0.0000 11.4950 0.0000 0.0000
# 5 0.0000 0.0000 0.0000 0.0000 11.4950 0.0000
# 6 0.0000 0.0000 0.0000 0.0000 0.0000 6.0967
#
#
#
# Elastic Compliance Matrix: (Units=1/GPa)
#
#
# Indices 1 2 3 4 5 6 
#
# 1 0.045867 -0.036144 -0.001672 0.000000 0.000000 0.000000
# 2 -0.036144 0.045867 -0.001672 0.000000 0.000000 0.000000
# 3 -0.001672 -0.001672 0.007135 0.000000 0.000000 0.000000
# 4 0.000000 0.000000 0.000000 0.086995 0.000000 0.000000
# 5 0.000000 0.000000 0.000000 0.000000 0.086995 0.000000
# 6 0.000000 0.000000 0.000000 0.000000 0.000000 0.164023
#
#
# Mechanical properties :
#
#
# Convention : Reuss Voigt Hill
#
# Bulk Modulus (GPa) = 50.26502 53.44283 51.85393
# Shear Modulus (GPa) = 9.56957 17.43317 13.50137
#
# Velocity S-wave (km/s) = 2.14959 2.90133 2.55327
# Velocity P-wave (km/s) = 5.51649 6.08512 5.80777
#
# Compressibility (1/GPa) = 0.01989455
#
# Stress axis : x y z
#
# Youngs Moduli (GPa) = 21.80194 21.80194 140.15365
#
# Poissons Ratio (x) = 0.78802 0.23430
# Poissons Ratio (y) = 0.78802 0.23430
# Poissons Ratio (z) = 0.03645 0.03645
#
# Static dielectric constant tensor:
#      x y z
#    x 1.798760 0.000000 0.000000 
#    y 0.000000 1.798760 0.000000 
#    z 0.000000 0.000000 1.786930 
# 
# From -- ./inp_files/6522.got.cif
#   From: 2010.05.17/outbox.cif.g08.bks.cpg/sg181_4_cif.got.tgz:6522.got - 2010.05.20 11:51:17.
