data_PCOD9584201
_publ_section_title
;
Structure prediction by ZEFSAII (Michael W. Deem and Ramdas Pophale) SiO2 
 PCOD9584201
Probable space group: P 64 2 2
;
_chemical_formula_sum "Si O2"
_cell_formula_units_Z 72
_cell_length_a 33.583912
_cell_length_b 33.583912
_cell_length_c 5.324448
_cell_angle_alpha 90.000000
_cell_angle_beta 90.000000
_cell_angle_gamma 120.000000
_cell_volume 5200.771680
_symmetry_space_group_name_H-M "P 64 2 2"
_symmetry_group_IT_number 181
_symmetry_cell_setting 'hexagonal'
loop_
_space_group_symop_operation_xyz
x,y,z
x-y,x,2/3+z
-y,x-y,1/3+z
-x,-y,z
-x+y,-x,2/3+z
y,-x+y,1/3+z
x-y,-y,-z
-x,-x+y,2/3-z
y,x,1/3-z
-y,-x,1/3-z
-x+y,y,-z
x,x-y,2/3-z
loop_
_atom_site_type_symbol
_atom_site_label
_atom_site_fract_x
_atom_site_fract_y
_atom_site_fract_z
Si Si1 0.357522 0.480243 0.906130
Si Si2 0.984385 0.554873 0.081957
Si Si3 0.024393 0.359742 0.584075
Si Si4 0.260809 0.739192 0.666667
Si Si5 0.568958 0.698055 0.926175
Si Si6 0.542641 0.771321 0.833334
Si Si7 0.792300 0.422123 0.081850
O O1 0.394587 0.463962 0.926689
O O2 0.333079 0.462046 0.638227
O O3 0.378834 0.534713 0.910949
O O4 0.322627 0.456669 0.141124
O O5 0.000000 0.542389 0.333334
O O6 0.012331 0.611190 0.082775
O O7 0.000000 0.541764 0.833334
O O8 0.079478 0.384682 0.589857
O O9 0.000000 0.331591 0.333334
O O10 0.000000 0.331251 0.833334
O O11 0.245349 0.755615 0.416068
O O12 0.315280 0.761425 0.710984
O O13 0.572795 0.746664 0.867088
O O14 0.782977 0.391489 0.333334
O O15 0.786242 0.393121 0.833334
#
# Coordination Sequence:
#
# PCOD9584201 Si02
#       7
#    12  12  12   6  12   6  12
#     4  12  20  34  56  76  96 124 146 178 217 254
#     4  10  16  27  48  77  95 122 156 180 202 240
#     4  10  16  27  44  75  99 124 157 182 206 243
#     4  12  24  44  64  74  94 114 142 180 212 272
#     4  12  19  31  52  78 103 123 147 185 216 256
#     4  12  22  36  56  86 100 120 148 176 228 268
#     4  12  26  44  60  77  96 116 143 176 223 269
#
# _framework density 13.844099
#
# number of rings (size 3 to 8) (size 9 to 14) (size 15 to 20)
#    0.000    0.667   10.000    2.000    0.000    0.000 
#    1.500    0.000    0.000    3.000    0.000    0.000 
#    0.000    0.000    0.000    0.000    0.000    0.000 
#
# Total GULP energy -401579.441405 kJ/mol
# GULP energy per Si atom -5577.492242 kJ/mol
# Density = 1.381259 g / cm^3
# Si number density = 13.844099 Si / 1000 Ang^3
#
#
#
# Elastic Constant Matrix: (Units=GPa)
#
#
# Indices 1 2 3 4 5 6 
#
# 1 120.1812 -0.3377 21.9395 0.0000 0.0000 0.0000
# 2 -0.3377 120.1812 21.9395 0.0000 0.0000 0.0000
# 3 21.9395 21.9395 127.3991 0.0000 0.0000 0.0000
# 4 0.0000 0.0000 0.0000 14.9718 0.0000 0.0000
# 5 0.0000 0.0000 0.0000 0.0000 14.9718 0.0000
# 6 0.0000 0.0000 0.0000 0.0000 0.0000 60.2595
#
#
#
# Elastic Compliance Matrix: (Units=1/GPa)
#
#
# Indices 1 2 3 4 5 6 
#
# 1 0.008602 0.000304 -0.001534 0.000000 0.000000 0.000000
# 2 0.000304 0.008602 -0.001534 0.000000 0.000000 0.000000
# 3 -0.001534 -0.001534 0.008378 0.000000 0.000000 0.000000
# 4 0.000000 0.000000 0.000000 0.066792 0.000000 0.000000
# 5 0.000000 0.000000 0.000000 0.000000 0.066792 0.000000
# 6 0.000000 0.000000 0.000000 0.000000 0.000000 0.016595
#
#
# Mechanical properties :
#
#
# Convention : Reuss Voigt Hill
#
# Bulk Modulus (GPa) = 49.86438 50.53826 50.20132
# Shear Modulus (GPa) = 26.59975 39.65527 33.12751
#
# Velocity S-wave (km/s) = 4.38811 5.35783 4.89703
# Velocity P-wave (km/s) = 7.85943 8.65215 8.26530
#
# Compressibility (1/GPa) = 0.02005439
#
# Stress axis : x y z
#
# Youngs Moduli (GPa) = 116.25747 116.25747 119.36623
#
# Poissons Ratio (x) = -0.03536 0.18307
# Poissons Ratio (y) = -0.03536 0.18307
# Poissons Ratio (z) = 0.17830 0.17830
#
# Static dielectric constant tensor:
#      x y z
#    x 1.403600 0.000000 0.000000 
#    y 0.000000 1.403600 0.000000 
#    z 0.000000 0.000000 1.510680 
# 
# From -- ./inp_files/1672.got.cif
#   From: 2010.05.17/outbox.cif.g08.bks.cpg/sg181_1_cif.got.tgz:1672.got - 2010.05.20 11:51:17.
