data_PCOD9584489
_publ_section_title
;
Structure prediction by ZEFSAII (Michael W. Deem and Ramdas Pophale) SiO2 
 PCOD9584489
Probable space group: P 64 2 2
;
_chemical_formula_sum "Si O2"
_cell_formula_units_Z 57
_cell_length_a 14.253751
_cell_length_b 14.253751
_cell_length_c 14.029191
_cell_angle_alpha 90.000000
_cell_angle_beta 90.000000
_cell_angle_gamma 120.000000
_cell_volume 2468.434429
_symmetry_space_group_name_H-M "P 64 2 2"
_symmetry_group_IT_number 181
_symmetry_cell_setting 'hexagonal'
loop_
_space_group_symop_operation_xyz
x,y,z
x-y,x,2/3+z
-y,x-y,1/3+z
-x,-y,z
-x+y,-x,2/3+z
y,-x+y,1/3+z
x-y,-y,-z
-x,-x+y,2/3-z
y,x,1/3-z
-y,-x,1/3-z
-x+y,y,-z
x,x-y,2/3-z
loop_
_atom_site_type_symbol
_atom_site_label
_atom_site_fract_x
_atom_site_fract_y
_atom_site_fract_z
Si Si1 0.253848 0.746153 0.666667
Si Si2 0.405985 0.515312 0.273952
Si Si3 0.719095 0.108802 0.106694
Si Si4 0.500000 0.500000 0.666667
Si Si5 0.211019 0.297807 0.893791
Si Si6 0.906723 0.191148 0.956155
O O1 0.381080 0.794874 0.656209
O O2 0.185772 0.767746 0.584797
O O3 0.500000 0.500000 0.320582
O O4 0.444085 0.555916 0.166667
O O5 0.298393 0.401017 0.273353
O O6 0.780521 0.219480 0.166667
O O7 0.693997 0.009356 0.175164
O O8 0.606820 0.078521 0.059365
O O9 0.808241 0.120788 0.028721
O O10 0.118664 0.248802 0.811973
O O11 0.210864 0.231861 0.989423
#
# Coordination Sequence:
#
# PCOD9584489 Si02
#       6
#     6  12  12   3  12  12
#     4  12  24  41  70 104 142 212 243 318 386 462
#     4  11  23  41  66 101 155 189 254 310 376 459
#     4  10  24  43  67  99 142 191 244 304 366 453
#     4  12  20  42  76 100 148 196 250 292 380 454
#     4  11  23  42  70 102 141 191 263 305 393 462
#     4  11  22  45  69 104 144 203 249 322 381 471
#
# _framework density 23.091560999999999
#
# number of rings (size 3 to 8) (size 9 to 14) (size 15 to 20)
#    0.000    1.053    6.316    0.000    0.000    5.053 
#    0.000    4.211    0.000    0.000    0.000   66.316 
#    0.000    0.000    0.000    0.000    0.000    0.000 
#
# Total GULP energy -318414.011887 kJ/mol
# GULP energy per Si atom -5586.210735 kJ/mol
# Density = 2.303900 g / cm^3
# Si number density = 23.091561 Si / 1000 Ang^3
#
#
#
# Elastic Constant Matrix: (Units=GPa)
#
#
# Indices 1 2 3 4 5 6 
#
# 1 124.1408 65.8931 46.8352 0.0000 0.0000 0.0000
# 2 65.8931 124.1408 46.8352 0.0000 0.0000 0.0000
# 3 46.8352 46.8352 134.5510 0.0000 0.0000 0.0000
# 4 0.0000 0.0000 0.0000 42.9071 0.0000 0.0000
# 5 0.0000 0.0000 0.0000 0.0000 42.9071 0.0000
# 6 0.0000 0.0000 0.0000 0.0000 0.0000 29.1238
#
#
#
# Elastic Compliance Matrix: (Units=1/GPa)
#
#
# Indices 1 2 3 4 5 6 
#
# 1 0.011760 -0.005408 -0.002211 0.000000 0.000000 0.000000
# 2 -0.005408 0.011760 -0.002211 0.000000 0.000000 0.000000
# 3 -0.002211 -0.002211 0.008971 0.000000 0.000000 0.000000
# 4 0.000000 0.000000 0.000000 0.023306 0.000000 0.000000
# 5 0.000000 0.000000 0.000000 0.000000 0.023306 0.000000
# 6 0.000000 0.000000 0.000000 0.000000 0.000000 0.034336
#
#
# Mechanical properties :
#
#
# Convention : Reuss Voigt Hill
#
# Bulk Modulus (GPa) = 77.93438 77.99552 77.96495
# Shear Modulus (GPa) = 36.39609 37.87222 37.13415
#
# Velocity S-wave (km/s) = 3.97440 4.05419 4.01450
# Velocity P-wave (km/s) = 7.40841 7.46762 7.43807
#
# Compressibility (1/GPa) = 0.01283131
#
# Stress axis : x y z
#
# Youngs Moduli (GPa) = 85.03344 85.03344 111.46531
#
# Poissons Ratio (x) = 0.45986 0.24646
# Poissons Ratio (y) = 0.45986 0.24646
# Poissons Ratio (z) = 0.18801 0.18801
#
# Static dielectric constant tensor:
#      x y z
#    x 1.858390 0.000000 0.000000 
#    y 0.000000 1.858390 0.000000 
#    z 0.000000 0.000000 2.098130 
# 
# From -- ./inp_files/6196.got.cif
#   From: 2010.05.17/outbox.cif.g08.bks.cpg/sg181_4_cif.got.tgz:6196.got - 2010.05.20 11:51:17.
