data_PCOD9584027
_publ_section_title
;
Structure prediction by ZEFSAII (Michael W. Deem and Ramdas Pophale) SiO2 
 PCOD9584027
Probable space group: P 62 2 2
;
_chemical_formula_sum "Si O2"
_cell_formula_units_Z 48
_cell_length_a 11.916331
_cell_length_b 11.916331
_cell_length_c 17.942833
_cell_angle_alpha 90.000000
_cell_angle_beta 90.000000
_cell_angle_gamma 120.000000
_cell_volume 2206.514384
_symmetry_space_group_name_H-M "P 62 2 2"
_symmetry_group_IT_number 180
_symmetry_cell_setting 'hexagonal'
loop_
_space_group_symop_operation_xyz
x,y,z
x-y,x,1/3+z
-y,x-y,2/3+z
-x,-y,z
-x+y,-x,1/3+z
y,-x+y,2/3+z
x-y,-y,-z
-x,-x+y,1/3-z
y,x,2/3-z
-y,-x,2/3-z
-x+y,y,-z
x,x-y,1/3-z
loop_
_atom_site_type_symbol
_atom_site_label
_atom_site_fract_x
_atom_site_fract_y
_atom_site_fract_z
Si Si1 0.292303 0.847708 0.265200
Si Si2 0.138561 0.346320 0.204949
Si Si3 0.642058 0.033135 0.912787
Si Si4 0.554786 0.858237 0.294672
O O1 0.193444 0.806557 0.333334
O O2 0.217678 0.766035 0.192739
O O3 0.408123 0.825816 0.290104
O O4 0.356444 0.002210 0.257278
O O5 0.242637 0.299159 0.219608
O O6 0.128770 0.402158 0.284979
O O7 0.000000 0.249842 0.166667
O O8 0.748800 0.182711 0.916199
O O9 0.500000 0.000000 0.881045
O O10 0.615522 0.000000 0.000000
#
# Coordination Sequence:
#
# PCOD9584027 Si02
#       4
#    12  12  12  12
#     4  11  24  43  67 101 138 185 232 287 363 431
#     4  11  23  45  72 101 142 187 229 291 372 419
#     4   9  21  42  69  97 130 179 234 287 345 417
#     4  10  24  46  66 102 142 175 241 302 340 435
#
# _framework density 21.753765999999999
#
# number of rings (size 3 to 8) (size 9 to 14) (size 15 to 20)
#    0.000    1.750    2.500    0.000   10.500    2.000 
#    0.000    2.500    0.000    0.000    0.000    0.000 
#    0.000    0.000    0.000    0.000    0.000    0.000 
#
# Total GULP energy -267707.387412 kJ/mol
# GULP energy per Si atom -5577.237238 kJ/mol
# Density = 2.170425 g / cm^3
# Si number density = 21.753766 Si / 1000 Ang^3
#
#
#
# Elastic Constant Matrix: (Units=GPa)
#
#
# Indices 1 2 3 4 5 6 
#
# 1 123.2943 87.9241 33.3856 0.0000 0.0000 0.0000
# 2 87.9241 123.2943 33.3856 0.0000 0.0000 0.0000
# 3 33.3856 33.3856 142.0346 0.0000 0.0000 0.0000
# 4 0.0000 0.0000 0.0000 20.4523 0.0000 0.0000
# 5 0.0000 0.0000 0.0000 0.0000 20.4523 0.0000
# 6 0.0000 0.0000 0.0000 0.0000 0.0000 17.6851
#
#
#
# Elastic Compliance Matrix: (Units=1/GPa)
#
#
# Indices 1 2 3 4 5 6 
#
# 1 0.016693 -0.011579 -0.001202 0.000000 0.000000 0.000000
# 2 -0.011579 0.016693 -0.001202 0.000000 0.000000 0.000000
# 3 -0.001202 -0.001202 0.007606 0.000000 0.000000 0.000000
# 4 0.000000 0.000000 0.000000 0.048894 0.000000 0.000000
# 5 0.000000 0.000000 0.000000 0.000000 0.048894 0.000000
# 6 0.000000 0.000000 0.000000 0.000000 0.000000 0.056545
#
#
# Mechanical properties :
#
#
# Convention : Reuss Voigt Hill
#
# Bulk Modulus (GPa) = 76.76986 77.55710 77.16348
# Shear Modulus (GPa) = 21.96505 27.31313 24.63909
#
# Velocity S-wave (km/s) = 3.18104 3.54723 3.36912
# Velocity P-wave (km/s) = 6.98992 7.24616 7.11919
#
# Compressibility (1/GPa) = 0.01302595
#
# Stress axis : x y z
#
# Youngs Moduli (GPa) = 59.90378 59.90378 131.48060
#
# Poissons Ratio (x) = 0.69362 0.15806
# Poissons Ratio (y) = 0.69362 0.15806
# Poissons Ratio (z) = 0.07201 0.07201
#
# Static dielectric constant tensor:
#      x y z
#    x 1.807250 0.000000 0.000000 
#    y 0.000000 1.807250 0.000000 
#    z 0.000000 0.000000 1.890780 
# 
# From -- ./inp_files/8697.got.cif
#   From: 2010.05.17/outbox.cif.g08.bks.cpg/sg180_5_cif.got.tgz:8697.got - 2010.05.20 11:43:55.
