data_PCOD9584820
_publ_section_title
;
Structure prediction by ZEFSAII (Michael W. Deem and Ramdas Pophale) SiO2 
 PCOD9584820
Probable space group: P 63 2 2
;
_chemical_formula_sum "Si O2"
_cell_formula_units_Z 28
_cell_length_a 7.077334
_cell_length_b 7.077334
_cell_length_c 30.200043
_cell_angle_alpha 90.000000
_cell_angle_beta 90.000000
_cell_angle_gamma 120.000000
_cell_volume 1310.018945
_symmetry_space_group_name_H-M "P 63 2 2"
_symmetry_group_IT_number 182
_symmetry_cell_setting 'hexagonal'
loop_
_space_group_symop_operation_xyz
x,y,z
x-y,x,1/2+z
-y,x-y,z
-x,-y,1/2+z
-x+y,-x,z
y,-x+y,1/2+z
x-y,-y,-z
-x,-x+y,-z
y,x,-z
-y,-x,1/2-z
-x+y,y,1/2-z
x,x-y,1/2-z
loop_
_atom_site_type_symbol
_atom_site_label
_atom_site_fract_x
_atom_site_fract_y
_atom_site_fract_z
Si Si1 0.014619 0.757588 0.951345
Si Si2 0.601222 0.062096 0.860322
Si Si3 0.333334 0.666668 0.697586
O O1 0.023746 0.627457 0.909394
O O2 0.803941 0.793260 0.949202
O O3 0.000000 0.659356 0.000000
O O4 0.837477 0.278798 0.855643
O O5 0.536683 0.880039 0.823688
O O6 0.333334 0.666667 0.750000
#
# Coordination Sequence:
#
# PCOD9584820 Si02
#       3
#    12  12   4
#     4   8  16  35  65  94 140 185 217 262 323 391
#     4  10  23  43  67  97 133 171 222 278 332 406
#     4  12  27  48  69  93 132 171 219 294 352 395
#
# _framework density 21.373737999999999
#
# number of rings (size 3 to 8) (size 9 to 14) (size 15 to 20)
#    1.714    0.857    0.000    2.571    0.000    1.714 
#   18.000    0.000    0.000    0.000    0.000    0.000 
#    0.000    0.000    0.000    0.000    0.000    0.000 
#
# Total GULP energy -155958.873868 kJ/mol
# GULP energy per Si atom -5569.959781 kJ/mol
# Density = 2.132509 g / cm^3
# Si number density = 21.373738 Si / 1000 Ang^3
#
#
#
# Elastic Constant Matrix: (Units=GPa)
#
#
# Indices 1 2 3 4 5 6 
#
# 1 66.4952 26.7344 64.6726 0.0000 -0.0001 -0.0001
# 2 26.7344 66.4951 64.6725 0.0000 -0.0001 0.0000
# 3 64.6726 64.6725 235.9891 -0.0001 -0.0001 -0.0002
# 4 0.0000 0.0000 -0.0001 30.7842 0.0000 0.0000
# 5 -0.0001 -0.0001 -0.0001 0.0000 30.7842 0.0000
# 6 -0.0001 0.0000 -0.0002 0.0000 0.0000 19.8803
#
#
#
# Elastic Compliance Matrix: (Units=1/GPa)
#
#
# Indices 1 2 3 4 5 6 
#
# 1 0.021228 -0.003922 -0.004743 0.000000 0.000000 0.000000
# 2 -0.003922 0.021228 -0.004743 0.000000 0.000000 0.000000
# 3 -0.004743 -0.004743 0.006837 0.000000 0.000000 0.000000
# 4 0.000000 0.000000 0.000000 0.032484 0.000000 0.000000
# 5 0.000000 0.000000 0.000000 0.000000 0.032484 0.000000
# 6 0.000000 0.000000 0.000000 0.000000 0.000000 0.050301
#
#
# Mechanical properties :
#
#
# Convention : Reuss Voigt Hill
#
# Bulk Modulus (GPa) = 44.48714 75.68203 60.08458
# Shear Modulus (GPa) = 25.14191 30.48308 27.81249
#
# Velocity S-wave (km/s) = 3.43344 3.78059 3.61119
# Velocity P-wave (km/s) = 6.04790 7.38532 6.74982
#
# Compressibility (1/GPa) = 0.02247841
#
# Stress axis : x y z
#
# Youngs Moduli (GPa) = 47.10687 47.10686 146.26360
#
# Poissons Ratio (x) = 0.18476 0.69369
# Poissons Ratio (y) = 0.18476 0.69369
# Poissons Ratio (z) = 0.22342 0.22342
#
# Static dielectric constant tensor:
#      x y z
#    x 1.837140 0.000000 0.000000 
#    y 0.000000 1.837140 0.000000 
#    z 0.000000 0.000000 1.707000 
# 
# From -- ./inp_files/5054.got.cif
#   From: 2010.05.17/outbox.cif.g08.bks.cpg/sg182_3_cif.got.tgz:5054.got - 2010.05.20 11:58:53.
