data_PCOD9584966
_publ_section_title
;
Structure prediction by ZEFSAII (Michael W. Deem and Ramdas Pophale) SiO2 
 PCOD9584966
Probable space group: P 6 M M
;
_chemical_formula_sum "Si O2"
_cell_formula_units_Z 96
_cell_length_a 22.229431
_cell_length_b 22.229431
_cell_length_c 16.810301
_cell_angle_alpha 90.000000
_cell_angle_beta 90.000000
_cell_angle_gamma 120.000000
_cell_volume 7193.873790
_symmetry_space_group_name_H-M "P 6 M M"
_symmetry_group_IT_number 183
_symmetry_cell_setting 'hexagonal'
loop_
_space_group_symop_operation_xyz
x,y,z
x-y,x,z
-y,x-y,z
-x,-y,z
-x+y,-x,z
y,-x+y,z
-x+y,y,z
x,x-y,z
-y,-x,z
y,x,z
x-y,-y,z
-x,-x+y,z
loop_
_atom_site_type_symbol
_atom_site_label
_atom_site_fract_x
_atom_site_fract_y
_atom_site_fract_z
Si Si1 0.699980 0.920727 0.727170
Si Si2 0.081013 0.610259 0.455981
Si Si3 0.081012 0.610258 0.998363
Si Si4 0.138275 0.723437 0.862350
Si Si5 0.198107 0.530244 0.727184
Si Si6 0.474012 0.666805 0.134954
Si Si7 0.414853 0.276573 0.592006
Si Si8 0.666805 0.474014 0.319391
O O1 0.719712 0.859856 0.727167
O O2 0.651202 0.906572 0.805016
O O3 0.651190 0.906567 0.649335
O O4 0.761114 0.000000 0.727165
O O5 0.093537 0.546769 0.483098
O O6 0.099201 0.668399 0.522910
O O7 0.130189 0.645419 0.380195
O O8 0.000000 0.574016 0.435149
O O9 0.093538 0.546769 0.971240
O O10 0.130190 0.645415 0.074149
O O11 0.000000 0.574012 0.019199
O O12 0.099196 0.668402 0.931440
O O13 0.204552 0.795449 0.891772
O O14 0.168572 0.687944 0.803223
O O15 0.280702 0.561404 0.727182
O O16 0.178359 0.589180 0.727196
O O17 0.168571 0.480642 0.651134
O O18 0.481685 0.740843 0.115563
O O19 0.393419 0.606582 0.128850
O O20 0.494590 0.667771 0.227172
O O21 0.409123 0.204562 0.562591
O O22 0.740842 0.481684 0.338780
O O23 0.606580 0.393421 0.325497
#
# Coordination Sequence:
#
# PCOD9584966 Si02
#       8
#    12  12  12  12  12  12  12  12
#     4   9  17  29  45  62  79 100 125 153 183 217
#     4  10  19  28  39  56  78 102 126 155 191 228
#     4  10  19  28  39  56  78 102 126 155 191 228
#     4   9  17  28  41  56  75 101 131 160 187 217
#     4   9  16  25  37  53  74 100 130 164 199 229
#     4   9  17  29  44  59  74  94 122 156 192 229
#     4   9  17  28  41  56  75 101 131 160 187 217
#     4   9  17  29  44  59  74  94 122 156 192 229
#
# _framework density 13.344688
#
# number of rings (size 3 to 8) (size 9 to 14) (size 15 to 20)
#    0.000    2.750    0.000    4.125    0.000    1.500 
#    0.000    2.500    0.000   14.125    0.000    0.000 
#    0.000    0.000    0.000    0.000    0.000    0.000 
#
# Total GULP energy -534582.232973 kJ/mol
# GULP energy per Si atom -5568.564927 kJ/mol
# Density = 1.331431 g / cm^3
# Si number density = 13.344688 Si / 1000 Ang^3
#
#
#
# Elastic Constant Matrix: (Units=GPa)
#
#
# Indices 1 2 3 4 5 6 
#
# 1 83.2702 47.4739 44.6085 0.0000 0.0000 0.0000
# 2 47.4739 83.2702 44.6085 0.0000 0.0000 0.0000
# 3 44.6085 44.6085 67.3048 0.0000 0.0000 0.0000
# 4 0.0000 0.0000 0.0000 2.7216 0.0000 0.0000
# 5 0.0000 0.0000 0.0000 0.0000 2.7216 0.0000
# 6 0.0000 0.0000 0.0000 0.0000 0.0000 17.8981
#
#
#
# Elastic Compliance Matrix: (Units=1/GPa)
#
#
# Indices 1 2 3 4 5 6 
#
# 1 0.020950 -0.006986 -0.009255 0.000000 0.000000 0.000000
# 2 -0.006986 0.020950 -0.009255 0.000000 0.000000 0.000000
# 3 -0.009255 -0.009255 0.027126 0.000000 0.000000 0.000000
# 4 0.000000 0.000000 0.000000 0.367434 0.000000 0.000000
# 5 0.000000 0.000000 0.000000 0.000000 0.367434 0.000000
# 6 0.000000 0.000000 0.000000 0.000000 0.000000 0.055872
#
#
# Mechanical properties :
#
#
# Convention : Reuss Voigt Hill
#
# Bulk Modulus (GPa) = 55.45197 56.35856 55.90526
# Shear Modulus (GPa) = 5.45394 11.14522 8.29958
#
# Velocity S-wave (km/s) = 2.02382 2.89308 2.49658
# Velocity P-wave (km/s) = 6.86330 7.31331 7.09188
#
# Compressibility (1/GPa) = 0.01803363
#
# Stress axis : x y z
#
# Youngs Moduli (GPa) = 47.73285 47.73285 36.86490
#
# Poissons Ratio (x) = 0.33346 0.34119
# Poissons Ratio (y) = 0.33346 0.34119
# Poissons Ratio (z) = 0.44177 0.44177
#
# Static dielectric constant tensor:
#      x y z
#    x 1.426250 0.000000 0.000000 
#    y 0.000000 1.426250 0.000000 
#    z 0.000000 0.000000 1.431730 
# 
# From -- ./inp_files/2794.got.cif
#   From: 2010.05.17/outbox.cif.g08.bks.cpg/sg183_2_cif.got.tgz:2794.got - 2010.05.20 12:02:58.
