data_PCOD9584951
_publ_section_title
;
Structure prediction by ZEFSAII (Michael W. Deem and Ramdas Pophale) SiO2 
 PCOD9584951
Probable space group: P 6 M M
;
_chemical_formula_sum "Si O2"
_cell_formula_units_Z 96
_cell_length_a 23.037453
_cell_length_b 23.037453
_cell_length_c 12.338660
_cell_angle_alpha 90.000000
_cell_angle_beta 90.000000
_cell_angle_gamma 120.000000
_cell_volume 5671.103236
_symmetry_space_group_name_H-M "P 6 M M"
_symmetry_group_IT_number 183
_symmetry_cell_setting 'hexagonal'
loop_
_space_group_symop_operation_xyz
x,y,z
x-y,x,z
-y,x-y,z
-x,-y,z
-x+y,-x,z
y,-x+y,z
-x+y,y,z
x,x-y,z
-y,-x,z
y,x,z
x-y,-y,z
-x,-x+y,z
loop_
_atom_site_type_symbol
_atom_site_label
_atom_site_fract_x
_atom_site_fract_y
_atom_site_fract_z
Si Si1 0.316012 0.925878 0.505290
Si Si2 0.201322 0.927033 0.938263
Si Si3 0.606009 0.527614 0.011061
Si Si4 0.258767 0.872696 0.114551
Si Si5 0.078623 0.784955 0.324750
Si Si6 0.803475 0.335032 0.575964
Si Si7 0.234894 0.341999 0.716657
Si Si8 0.821135 0.511719 0.820799
O O1 0.260184 0.910889 0.414528
O O2 0.332547 0.866310 0.522373
O O3 0.282917 0.929828 0.618266
O O4 0.378651 0.000000 0.483158
O O5 0.123970 0.876031 0.955942
O O6 0.217266 0.928553 0.811172
O O7 0.225277 0.000000 0.980324
O O8 0.240630 0.897108 0.003569
O O9 0.540046 0.459955 0.046240
O O10 0.580557 0.580557 0.982207
O O11 0.638704 0.508841 0.909971
O O12 0.663646 0.559732 0.102060
O O13 0.206889 0.793112 0.123869
O O14 0.240643 0.907566 0.210805
O O15 0.136780 0.863221 0.336269
O O16 0.000000 0.764323 0.331025
O O17 0.798784 0.399392 0.540053
O O18 0.735175 0.264826 0.554929
O O19 0.812995 0.339259 0.707251
O O20 0.165419 0.330838 0.668618
O O21 0.268839 0.411750 0.781176
O O22 0.746874 0.493748 0.861402
#
# Coordination Sequence:
#
# PCOD9584951 Si02
#       8
#    12  12  12  12  12  12  12  12
#     4  10  20  33  51  75 103 132 162 203 254 302
#     4  10  18  28  46  71  96 123 157 196 238 283
#     4  11  21  30  44  69  99 128 159 199 251 306
#     4  10  20  35  54  72  94 128 167 207 246 288
#     4  10  20  35  56  80 105 135 170 206 245 292
#     4  10  20  34  51  70  96 131 172 212 252 301
#     4   9  16  27  46  71  98 128 157 193 242 293
#     4   9  17  30  46  66  94 130 167 202 244 296
#
# _framework density 16.927924000000001
#
# number of rings (size 3 to 8) (size 9 to 14) (size 15 to 20)
#    0.000    2.125    1.250    4.250    0.000    2.250 
#    0.000    0.625    0.000    3.750    0.000    0.000 
#    0.000    3.000    0.000    4.000    0.000    0.000 
#
# Total GULP energy -534540.837646 kJ/mol
# GULP energy per Si atom -5568.133725 kJ/mol
# Density = 1.688940 g / cm^3
# Si number density = 16.927924 Si / 1000 Ang^3
#
#
#
# Elastic Constant Matrix: (Units=GPa)
#
#
# Indices 1 2 3 4 5 6 
#
# 1 107.0071 76.0698 20.3199 0.0000 0.0000 0.0000
# 2 76.0698 107.0071 20.3199 0.0000 0.0000 0.0000
# 3 20.3199 20.3199 48.7707 0.0000 0.0000 0.0000
# 4 0.0000 0.0000 0.0000 17.8211 0.0000 0.0000
# 5 0.0000 0.0000 0.0000 0.0000 17.8211 0.0000
# 6 0.0000 0.0000 0.0000 0.0000 0.0000 15.4686
#
#
#
# Elastic Compliance Matrix: (Units=1/GPa)
#
#
# Indices 1 2 3 4 5 6 
#
# 1 0.019171 -0.013152 -0.002508 0.000000 0.000000 0.000000
# 2 -0.013152 0.019171 -0.002508 0.000000 0.000000 0.000000
# 3 -0.002508 -0.002508 0.022594 0.000000 0.000000 0.000000
# 4 0.000000 0.000000 0.000000 0.056113 0.000000 0.000000
# 5 0.000000 0.000000 0.000000 0.000000 0.056113 0.000000
# 6 0.000000 0.000000 0.000000 0.000000 0.000000 0.064647
#
#
# Mechanical properties :
#
#
# Convention : Reuss Voigt Hill
#
# Bulk Modulus (GPa) = 40.64934 55.13377 47.89156
# Shear Modulus (GPa) = 17.70881 19.96051 18.83466
#
# Velocity S-wave (km/s) = 3.23790 3.43760 3.33924
# Velocity P-wave (km/s) = 6.16798 6.95676 6.57421
#
# Compressibility (1/GPa) = 0.02460064
#
# Stress axis : x y z
#
# Youngs Moduli (GPa) = 52.16171 52.16171 44.26000
#
# Poissons Ratio (x) = 0.68605 0.11099
# Poissons Ratio (y) = 0.68605 0.11099
# Poissons Ratio (z) = 0.13081 0.13081
#
# Static dielectric constant tensor:
#      x y z
#    x 1.585850 0.000000 0.000000 
#    y 0.000000 1.585850 0.000000 
#    z 0.000000 0.000000 1.587350 
# 
# From -- ./inp_files/1983.got.cif
#   From: 2010.05.17/outbox.cif.g08.bks.cpg/sg183_1_cif.got.tgz:1983.got - 2010.05.20 12:02:58.
