data_PCOD9584177
_publ_section_title
;
Structure prediction by ZEFSAII (Michael W. Deem and Ramdas Pophale) SiO2 
 PCOD9584177
Probable space group: P 62 2 2
;
_chemical_formula_sum "Si O2"
_cell_formula_units_Z 42
_cell_length_a 9.173836
_cell_length_b 9.173836
_cell_length_c 24.143284
_cell_angle_alpha 90.000000
_cell_angle_beta 90.000000
_cell_angle_gamma 120.000000
_cell_volume 1759.660636
_symmetry_space_group_name_H-M "P 62 2 2"
_symmetry_group_IT_number 180
_symmetry_cell_setting 'hexagonal'
loop_
_space_group_symop_operation_xyz
x,y,z
x-y,x,1/3+z
-y,x-y,2/3+z
-x,-y,z
-x+y,-x,1/3+z
y,-x+y,2/3+z
x-y,-y,-z
-x,-x+y,1/3-z
y,x,2/3-z
-y,-x,2/3-z
-x+y,y,-z
x,x-y,1/3-z
loop_
_atom_site_type_symbol
_atom_site_label
_atom_site_fract_x
_atom_site_fract_y
_atom_site_fract_z
Si Si1 0.178190 0.777767 0.245334
Si Si2 0.297721 0.147003 0.868792
Si Si3 0.313851 0.656926 0.666667
Si Si4 0.851916 0.718849 0.377739
O O1 0.236195 0.805713 0.180720
O O2 0.251762 0.687218 0.281661
O O3 0.974016 0.673896 0.242197
O O4 0.238242 0.961213 0.272265
O O5 0.146864 0.146864 0.833334
O O6 0.241408 0.978738 0.901575
O O7 0.206138 0.741986 0.684543
O O8 0.845710 0.845710 0.333334
#
# Coordination Sequence:
#
# PCOD9584177 Si02
#       4
#    12  12   6  12
#     4   9  21  42  73  98 136 184 251 295 365 439
#     4   8  21  43  79 106 123 180 271 309 340 421
#     4  12  25  42  61 108 156 194 210 308 411 448
#     4  12  23  40  68 102 142 181 246 300 357 441
#
# _framework density 23.86824
#
# number of rings (size 3 to 8) (size 9 to 14) (size 15 to 20)
#    1.714    0.000    0.000    4.714    4.000    1.143 
#    0.000   12.857    6.286    0.000    0.000    0.000 
#    0.000    0.000    0.000    0.000    0.000    0.000 
#
# Total GULP energy -234575.841089 kJ/mol
# GULP energy per Si atom -5585.139074 kJ/mol
# Density = 2.381391 g / cm^3
# Si number density = 23.868240 Si / 1000 Ang^3
#
#
#
# Elastic Constant Matrix: (Units=GPa)
#
#
# Indices 1 2 3 4 5 6 
#
# 1 120.5327 83.6770 77.7384 0.0000 0.0000 0.0000
# 2 83.6770 120.5327 77.7384 0.0000 0.0000 0.0000
# 3 77.7384 77.7384 141.6935 0.0000 0.0000 0.0000
# 4 0.0000 0.0000 0.0000 25.7473 0.0000 0.0000
# 5 0.0000 0.0000 0.0000 0.0000 25.7473 0.0000
# 6 0.0000 0.0000 0.0000 0.0000 0.0000 18.4278
#
#
#
# Elastic Compliance Matrix: (Units=1/GPa)
#
#
# Indices 1 2 3 4 5 6 
#
# 1 0.017771 -0.009362 -0.004614 0.000000 0.000000 0.000000
# 2 -0.009362 0.017771 -0.004614 0.000000 0.000000 0.000000
# 3 -0.004614 -0.004614 0.012120 0.000000 0.000000 0.000000
# 4 0.000000 0.000000 0.000000 0.038839 0.000000 0.000000
# 5 0.000000 0.000000 0.000000 0.000000 0.038839 0.000000
# 6 0.000000 0.000000 0.000000 0.000000 0.000000 0.054266
#
#
# Mechanical properties :
#
#
# Convention : Reuss Voigt Hill
#
# Bulk Modulus (GPa) = 95.38258 95.67408 95.52833
# Shear Modulus (GPa) = 22.69837 23.55816 23.12827
#
# Velocity S-wave (km/s) = 3.08715 3.14508 3.11625
# Velocity P-wave (km/s) = 7.26335 7.30479 7.28410
#
# Compressibility (1/GPa) = 0.01048410
#
# Stress axis : x y z
#
# Youngs Moduli (GPa) = 56.27047 56.27047 82.50672
#
# Poissons Ratio (x) = 0.52678 0.38068
# Poissons Ratio (y) = 0.52678 0.38068
# Poissons Ratio (z) = 0.25963 0.25963
#
# Static dielectric constant tensor:
#      x y z
#    x 1.922710 0.000000 0.000000 
#    y 0.000000 1.922710 0.000000 
#    z 0.000000 0.000000 2.059180 
# 
# From -- ./inp_files/11832.got.cif
#   From: 2010.05.17/outbox.cif.g08.bks.cpg/sg180_6_cif.got.tgz:11832.got - 2010.05.20 11:43:55.
