data_PCOD9584518
_publ_section_title
;
Structure prediction by ZEFSAII (Michael W. Deem and Ramdas Pophale) SiO2 
 PCOD9584518
Probable space group: P 64 2 2
;
_chemical_formula_sum "Si O2"
_cell_formula_units_Z 78
_cell_length_a 24.938636
_cell_length_b 24.938636
_cell_length_c 8.000171
_cell_angle_alpha 90.000000
_cell_angle_beta 90.000000
_cell_angle_gamma 120.000000
_cell_volume 4308.988097
_symmetry_space_group_name_H-M "P 64 2 2"
_symmetry_group_IT_number 181
_symmetry_cell_setting 'hexagonal'
loop_
_space_group_symop_operation_xyz
x,y,z
x-y,x,2/3+z
-y,x-y,1/3+z
-x,-y,z
-x+y,-x,2/3+z
y,-x+y,1/3+z
x-y,-y,-z
-x,-x+y,2/3-z
y,x,1/3-z
-y,-x,1/3-z
-x+y,y,-z
x,x-y,2/3-z
loop_
_atom_site_type_symbol
_atom_site_label
_atom_site_fract_x
_atom_site_fract_y
_atom_site_fract_z
Si Si1 0.873982 0.155542 0.479346
Si Si2 0.830980 0.583017 0.254320
Si Si3 0.358925 0.788077 0.332126
Si Si4 0.310609 0.549919 0.832412
Si Si5 0.294781 0.431813 0.368650
Si Si6 0.953059 0.255071 0.984010
Si Si7 0.764491 0.000000 0.000000
O O1 0.868984 0.131017 0.666667
O O2 0.869952 0.219043 0.491224
O O3 0.814084 0.105796 0.376103
O O4 0.937950 0.173404 0.388648
O O5 0.820221 0.518796 0.178900
O O6 0.761022 0.570920 0.260008
O O7 0.853929 0.585187 0.442763
O O8 0.398268 0.796536 0.500000
O O9 0.397388 0.778357 0.188046
O O10 0.290776 0.727662 0.358059
O O11 0.348170 0.845634 0.303722
O O12 0.275746 0.551492 0.000000
O O13 0.302720 0.375520 0.307217
O O14 0.000000 0.267879 0.833334
O O15 0.981472 0.258924 0.166475
#
# Coordination Sequence:
#
# PCOD9584518 Si02
#       7
#    12  12  12  12  12  12   6
#     4  11  21  36  61  90 127 156 194 238 288 352
#     4   9  17  31  50  74 105 141 183 238 292 356
#     4   9  18  33  44  68  99 140 187 246 308 381
#     4   9  17  31  43  66  99 137 181 236 305 372
#     4   9  18  33  51  74 105 142 189 238 298 358
#     4  11  22  39  61  91 120 160 196 240 294 348
#     4  12  22  38  60  92 127 159 188 240 288 346
#
# _framework density 18.101697000000001
#
# number of rings (size 3 to 8) (size 9 to 14) (size 15 to 20)
#    0.000    2.154    3.077    0.923    0.000    1.846 
#   30.462    0.000    0.000    0.462    0.000    1.077 
#    0.000    7.385    0.000    0.000    0.000    0.000 
#
# Total GULP energy -434807.617061 kJ/mol
# GULP energy per Si atom -5574.456629 kJ/mol
# Density = 1.806050 g / cm^3
# Si number density = 18.101697 Si / 1000 Ang^3
#
#
#
# Elastic Constant Matrix: (Units=GPa)
#
#
# Indices 1 2 3 4 5 6 
#
# 1 83.4433 45.0485 27.9545 0.0000 0.0000 0.0000
# 2 45.0485 83.4433 27.9545 0.0000 0.0000 0.0000
# 3 27.9545 27.9545 87.8469 0.0000 0.0000 0.0000
# 4 0.0000 0.0000 0.0000 23.4608 0.0000 0.0000
# 5 0.0000 0.0000 0.0000 0.0000 23.4608 0.0000
# 6 0.0000 0.0000 0.0000 0.0000 0.0000 19.1974
#
#
#
# Elastic Compliance Matrix: (Units=1/GPa)
#
#
# Indices 1 2 3 4 5 6 
#
# 1 0.017539 -0.008506 -0.002875 0.000000 0.000000 0.000000
# 2 -0.008506 0.017539 -0.002875 0.000000 0.000000 0.000000
# 3 -0.002875 -0.002875 0.013213 0.000000 0.000000 0.000000
# 4 0.000000 0.000000 0.000000 0.042624 0.000000 0.000000
# 5 0.000000 0.000000 0.000000 0.000000 0.042624 0.000000
# 6 0.000000 0.000000 0.000000 0.000000 0.000000 0.052090
#
#
# Mechanical properties :
#
#
# Convention : Reuss Voigt Hill
#
# Bulk Modulus (GPa) = 50.55269 50.73873 50.64571
# Shear Modulus (GPa) = 22.65167 23.47555 23.06361
#
# Velocity S-wave (km/s) = 3.54129 3.60511 3.57334
# Velocity P-wave (km/s) = 6.68645 6.73942 6.71299
#
# Compressibility (1/GPa) = 0.01978134
#
# Stress axis : x y z
#
# Youngs Moduli (GPa) = 57.01489 57.01489 75.68343
#
# Poissons Ratio (x) = 0.48496 0.21756
# Poissons Ratio (y) = 0.48496 0.21756
# Poissons Ratio (z) = 0.16389 0.16389
#
# Static dielectric constant tensor:
#      x y z
#    x 1.640690 0.000000 0.000000 
#    y 0.000000 1.640690 0.000000 
#    z 0.000000 0.000000 1.687800 
# 
# From -- ./inp_files/3422.got.cif
#   From: 2010.05.17/outbox.cif.g08.bks.cpg/sg181_2_cif.got.tgz:3422.got - 2010.05.20 11:51:17.
