data_PCOD9584525
_publ_section_title
;
Structure prediction by ZEFSAII (Michael W. Deem and Ramdas Pophale) SiO2 
 PCOD9584525
Probable space group: P 64 2 2
;
_chemical_formula_sum "Si O2"
_cell_formula_units_Z 60
_cell_length_a 11.897521
_cell_length_b 11.897521
_cell_length_c 25.829531
_cell_angle_alpha 90.000000
_cell_angle_beta 90.000000
_cell_angle_gamma 120.000000
_cell_volume 3166.358700
_symmetry_space_group_name_H-M "P 64 2 2"
_symmetry_group_IT_number 181
_symmetry_cell_setting 'hexagonal'
loop_
_space_group_symop_operation_xyz
x,y,z
x-y,x,2/3+z
-y,x-y,1/3+z
-x,-y,z
-x+y,-x,2/3+z
y,-x+y,1/3+z
x-y,-y,-z
-x,-x+y,2/3-z
y,x,1/3-z
-y,-x,1/3-z
-x+y,y,-z
x,x-y,2/3-z
loop_
_atom_site_type_symbol
_atom_site_label
_atom_site_fract_x
_atom_site_fract_y
_atom_site_fract_z
Si Si1 0.422011 0.094506 0.596305
Si Si2 0.168734 0.689389 0.215336
Si Si3 0.194503 0.704230 0.765670
Si Si4 0.120294 0.410197 0.202291
Si Si5 0.390523 0.532725 0.378795
O O1 0.551547 0.150052 0.559649
O O2 0.356485 0.175059 0.577069
O O3 0.484901 0.123331 0.653064
O O4 0.320782 0.942686 0.589836
O O5 0.263787 0.736214 0.166667
O O6 0.141619 0.545461 0.226169
O O7 0.251892 0.790927 0.259360
O O8 0.034256 0.678542 0.198301
O O9 0.241293 0.801842 0.814649
O O10 0.315430 0.765311 0.725902
O O11 0.500000 0.500000 0.398615
#
# Coordination Sequence:
#
# PCOD9584525 Si02
#       5
#    12  12  12  12  12
#     4  11  23  36  62  94 123 168 206 263 315 361
#     4  11  22  38  60  90 122 169 198 251 324 378
#     4  11  21  39  60  90 129 162 211 259 310 371
#     4  11  22  38  61  89 126 163 205 258 313 379
#     4  12  23  39  61  91 130 159 210 259 319 379
#
# _framework density 18.949210000000001
#
# number of rings (size 3 to 8) (size 9 to 14) (size 15 to 20)
#    0.000    0.800    6.000    3.000    0.000    2.400 
#    0.000    2.000    0.000    8.400    0.000    5.600 
#    0.000    0.000    0.000    0.000    0.000    0.000 
#
# Total GULP energy -334358.423593 kJ/mol
# GULP energy per Si atom -5572.640393 kJ/mol
# Density = 1.890608 g / cm^3
# Si number density = 18.949210 Si / 1000 Ang^3
#
#
#
# Elastic Constant Matrix: (Units=GPa)
#
#
# Indices 1 2 3 4 5 6 
#
# 1 98.0463 29.6764 38.7874 0.0000 0.0000 0.0000
# 2 29.6764 98.0463 38.7874 0.0000 0.0000 0.0000
# 3 38.7874 38.7874 102.6981 0.0000 0.0000 0.0000
# 4 0.0000 0.0000 0.0000 16.6574 0.0000 0.0000
# 5 0.0000 0.0000 0.0000 0.0000 16.6574 0.0000
# 6 0.0000 0.0000 0.0000 0.0000 0.0000 34.1850
#
#
#
# Elastic Compliance Matrix: (Units=1/GPa)
#
#
# Indices 1 2 3 4 5 6 
#
# 1 0.012393 -0.002233 -0.003837 0.000000 0.000000 0.000000
# 2 -0.002233 0.012393 -0.003837 0.000000 0.000000 0.000000
# 3 -0.003837 -0.003837 0.012636 0.000000 0.000000 0.000000
# 4 0.000000 0.000000 0.000000 0.060033 0.000000 0.000000
# 5 0.000000 0.000000 0.000000 0.000000 0.060033 0.000000
# 6 0.000000 0.000000 0.000000 0.000000 0.000000 0.029253
#
#
# Mechanical properties :
#
#
# Convention : Reuss Voigt Hill
#
# Bulk Modulus (GPa) = 56.79604 57.03256 56.91430
# Shear Modulus (GPa) = 23.53761 26.26926 24.90344
#
# Velocity S-wave (km/s) = 3.52823 3.72734 3.62915
# Velocity P-wave (km/s) = 6.82903 6.97761 6.90372
#
# Compressibility (1/GPa) = 0.01760686
#
# Stress axis : x y z
#
# Youngs Moduli (GPa) = 80.68924 80.68924 79.13982
#
# Poissons Ratio (x) = 0.18019 0.30368
# Poissons Ratio (y) = 0.18019 0.30368
# Poissons Ratio (z) = 0.30963 0.30963
#
# Static dielectric constant tensor:
#      x y z
#    x 1.702140 0.000000 0.000000 
#    y 0.000000 1.702140 0.000000 
#    z 0.000000 0.000000 1.735030 
# 
# From -- ./inp_files/11189.got.cif
#   From: 2010.05.17/outbox.cif.g08.bks.cpg/sg181_6_cif.got.tgz:11189.got - 2010.05.20 11:51:17.
