data_PCOD9584374
_publ_section_title
;
Structure prediction by ZEFSAII (Michael W. Deem and Ramdas Pophale) SiO2 
 PCOD9584374
Probable space group: P 64 2 2
;
_chemical_formula_sum "Si O2"
_cell_formula_units_Z 60
_cell_length_a 14.067441
_cell_length_b 14.067441
_cell_length_c 14.933301
_cell_angle_alpha 90.000000
_cell_angle_beta 90.000000
_cell_angle_gamma 120.000000
_cell_volume 2559.273238
_symmetry_space_group_name_H-M "P 64 2 2"
_symmetry_group_IT_number 181
_symmetry_cell_setting 'hexagonal'
loop_
_space_group_symop_operation_xyz
x,y,z
x-y,x,2/3+z
-y,x-y,1/3+z
-x,-y,z
-x+y,-x,2/3+z
y,-x+y,1/3+z
x-y,-y,-z
-x,-x+y,2/3-z
y,x,1/3-z
-y,-x,1/3-z
-x+y,y,-z
x,x-y,2/3-z
loop_
_atom_site_type_symbol
_atom_site_label
_atom_site_fract_x
_atom_site_fract_y
_atom_site_fract_z
Si Si1 0.725555 0.229272 0.482266
Si Si2 0.610620 0.575193 0.820574
Si Si3 0.593404 0.716912 0.971578
Si Si4 0.766319 0.950332 0.908784
Si Si5 0.276794 0.065002 0.416159
O O1 0.613596 0.227192 0.500000
O O2 0.836565 0.339523 0.506660
O O3 0.716281 0.206938 0.375640
O O4 0.745353 0.141560 0.538594
O O5 0.500000 0.500000 0.765148
O O6 0.568020 0.622353 0.900412
O O7 0.717663 0.688868 0.786458
O O8 0.655332 0.836565 0.928380
O O9 0.685804 0.714671 0.031853
O O10 0.821248 0.910624 0.833334
O O11 0.833138 0.000000 0.000000
O O12 0.252328 0.126164 0.333334
O O13 0.193081 0.000000 0.500000
#
# Coordination Sequence:
#
# PCOD9584374 Si02
#       5
#    12  12  12  12  12
#     4  11  24  40  66 104 138 187 242 298 380 456
#     4  11  24  42  65  96 139 189 240 300 374 448
#     4  10  22  41  67  95 135 179 236 298 366 447
#     4  10  21  41  68  99 132 185 241 294 370 449
#     4  10  21  38  66 101 138 185 238 305 380 465
#
# _framework density 23.444156
#
# number of rings (size 3 to 8) (size 9 to 14) (size 15 to 20)
#    0.000    1.600    4.000    0.000    2.800    5.600 
#    0.000    2.000    0.000    0.600   10.400    0.000 
#    0.000    0.000    0.000    0.000    0.000    0.000 
#
# Total GULP energy -334197.653130 kJ/mol
# GULP energy per Si atom -5569.960886 kJ/mol
# Density = 2.339080 g / cm^3
# Si number density = 23.444156 Si / 1000 Ang^3
#
#
#
# Elastic Constant Matrix: (Units=GPa)
#
#
# Indices 1 2 3 4 5 6 
#
# 1 67.4187 27.6032 44.0471 0.0000 0.0000 0.0000
# 2 27.6032 67.4187 44.0471 0.0000 0.0000 0.0000
# 3 44.0471 44.0471 161.7313 0.0000 0.0000 0.0000
# 4 0.0000 0.0000 0.0000 33.6386 0.0000 0.0000
# 5 0.0000 0.0000 0.0000 0.0000 33.6386 0.0000
# 6 0.0000 0.0000 0.0000 0.0000 0.0000 19.9078
#
#
#
# Elastic Compliance Matrix: (Units=1/GPa)
#
#
# Indices 1 2 3 4 5 6 
#
# 1 0.019597 -0.005519 -0.003834 0.000000 0.000000 0.000000
# 2 -0.005519 0.019597 -0.003834 0.000000 0.000000 0.000000
# 3 -0.003834 -0.003834 0.008272 0.000000 0.000000 0.000000
# 4 0.000000 0.000000 0.000000 0.029728 0.000000 0.000000
# 5 0.000000 0.000000 0.000000 0.000000 0.029728 0.000000
# 6 0.000000 0.000000 0.000000 0.000000 0.000000 0.050232
#
#
# Mechanical properties :
#
#
# Convention : Reuss Voigt Hill
#
# Bulk Modulus (GPa) = 47.41194 58.66264 53.03729
# Shear Modulus (GPa) = 26.23872 29.49508 27.86690
#
# Velocity S-wave (km/s) = 3.34908 3.55082 3.45142
# Velocity P-wave (km/s) = 5.93484 6.47207 6.20927
#
# Compressibility (1/GPa) = 0.02109173
#
# Stress axis : x y z
#
# Youngs Moduli (GPa) = 51.02764 51.02764 120.89545
#
# Poissons Ratio (x) = 0.28160 0.46355
# Poissons Ratio (y) = 0.28160 0.46355
# Poissons Ratio (z) = 0.19565 0.19565
#
# Static dielectric constant tensor:
#      x y z
#    x 1.795920 0.000000 0.000000 
#    y 0.000000 1.795920 0.000000 
#    z 0.000000 0.000000 2.265460 
# 
# From -- ./inp_files/6136.got.cif
#   From: 2010.05.17/outbox.cif.g08.bks.cpg/sg181_4_cif.got.tgz:6136.got - 2010.05.20 11:51:17.
