data_PCOD9584970
_publ_section_title
;
Structure prediction by ZEFSAII (Michael W. Deem and Ramdas Pophale) SiO2 
 PCOD9584970
Probable space group: P 6 M M
;
_chemical_formula_sum "Si O2"
_cell_formula_units_Z 96
_cell_length_a 18.795892
_cell_length_b 18.795892
_cell_length_c 20.494835
_cell_angle_alpha 90.000000
_cell_angle_beta 90.000000
_cell_angle_gamma 120.000000
_cell_volume 6270.482206
_symmetry_space_group_name_H-M "P 6 M M"
_symmetry_group_IT_number 183
_symmetry_cell_setting 'hexagonal'
loop_
_space_group_symop_operation_xyz
x,y,z
x-y,x,z
-y,x-y,z
-x,-y,z
-x+y,-x,z
y,-x+y,z
-x+y,y,z
x,x-y,z
-y,-x,z
y,x,z
x-y,-y,z
-x,-x+y,z
loop_
_atom_site_type_symbol
_atom_site_label
_atom_site_fract_x
_atom_site_fract_y
_atom_site_fract_z
Si Si1 0.631506 0.531803 0.842720
Si Si2 0.532264 0.629958 0.078767
Si Si3 0.666921 0.498699 0.221813
Si Si4 0.499455 0.831145 0.561117
Si Si5 0.092905 0.348900 0.467147
Si Si6 0.359925 0.098544 0.960394
Si Si7 0.905806 0.366677 0.699092
Si Si8 0.907701 0.652964 0.313298
O O1 0.563829 0.436172 0.855921
O O2 0.578005 0.578005 0.839015
O O3 0.696898 0.578830 0.898965
O O4 0.669778 0.542241 0.770576
O O5 0.441113 0.558888 0.056527
O O6 0.582159 0.582159 0.091971
O O7 0.523160 0.666781 0.146477
O O8 0.583167 0.696541 0.023901
O O9 0.738031 0.476062 0.231336
O O10 0.578264 0.421737 0.235953
O O11 0.688859 0.574933 0.268691
O O12 0.422390 0.844781 0.553852
O O13 0.473304 0.736652 0.550273
O O14 0.571598 0.884306 0.510462
O O15 0.533656 0.855965 0.634773
O O16 0.162293 0.324586 0.481092
O O17 0.098692 0.369066 0.390040
O O18 0.000000 0.279116 0.480611
O O19 0.328157 0.164079 0.960722
O O20 0.292820 0.000000 0.958457
O O21 0.908257 0.454129 0.700822
O O22 0.000000 0.388597 0.692156
O O23 0.838802 0.677604 0.299666
O O24 0.000000 0.723748 0.300532
#
# Coordination Sequence:
#
# PCOD9584970 Si02
#       8
#    12  12  12  12  12  12  12  12
#     4   8  14  26  44  64  85 109 137 171 214 262
#     4   9  17  29  46  67  88 111 141 177 217 261
#     4  10  19  30  44  64  92 124 155 184 213 245
#     4  10  19  29  41  59  86 120 155 188 218 247
#     4   9  18  32  49  68  88 111 140 176 219 264
#     4  10  19  30  45  64  86 113 146 183 220 259
#     4   8  14  25  41  60  81 107 141 179 217 257
#     4   9  18  32  49  68  89 113 142 177 218 262
#
# _framework density 15.309828
#
# number of rings (size 3 to 8) (size 9 to 14) (size 15 to 20)
#    0.000    2.875    0.000    2.500    0.000    4.000 
#    0.000    1.250    0.000    4.625    0.000    1.750 
#    0.000    0.000    0.000    4.000    0.000   19.000 
#
# Total GULP energy -534491.103034 kJ/mol
# GULP energy per Si atom -5567.615657 kJ/mol
# Density = 1.527498 g / cm^3
# Si number density = 15.309828 Si / 1000 Ang^3
#
#
#
# Elastic Constant Matrix: (Units=GPa)
#
#
# Indices 1 2 3 4 5 6 
#
# 1 75.8572 52.3550 44.8105 0.0000 0.0000 0.0000
# 2 52.3550 75.8572 44.8105 0.0000 0.0000 0.0000
# 3 44.8105 44.8105 59.0076 0.0000 0.0000 0.0000
# 4 0.0000 0.0000 0.0000 16.8564 0.0000 0.0000
# 5 0.0000 0.0000 0.0000 0.0000 16.8564 0.0000
# 6 0.0000 0.0000 0.0000 0.0000 0.0000 11.7511
#
#
#
# Elastic Compliance Matrix: (Units=1/GPa)
#
#
# Indices 1 2 3 4 5 6 
#
# 1 0.029587 -0.012963 -0.012624 0.000000 0.000000 0.000000
# 2 -0.012963 0.029587 -0.012624 0.000000 0.000000 0.000000
# 3 -0.012624 -0.012624 0.036121 0.000000 0.000000 0.000000
# 4 0.000000 0.000000 0.000000 0.059325 0.000000 0.000000
# 5 0.000000 0.000000 0.000000 0.000000 0.059325 0.000000
# 6 0.000000 0.000000 0.000000 0.000000 0.000000 0.085098
#
#
# Mechanical properties :
#
#
# Convention : Reuss Voigt Hill
#
# Bulk Modulus (GPa) = 52.98965 54.96379 53.97672
# Shear Modulus (GPa) = 13.09740 13.67584 13.38662
#
# Velocity S-wave (km/s) = 2.92805 2.99201 2.96020
# Velocity P-wave (km/s) = 6.79102 6.92207 6.85686
#
# Compressibility (1/GPa) = 0.01887161
#
# Stress axis : x y z
#
# Youngs Moduli (GPa) = 33.79906 33.79906 27.68481
#
# Poissons Ratio (x) = 0.43812 0.34950
# Poissons Ratio (y) = 0.43812 0.34950
# Poissons Ratio (z) = 0.42669 0.42669
#
# Static dielectric constant tensor:
#      x y z
#    x 1.500130 0.000000 0.000000 
#    y 0.000000 1.500130 0.000000 
#    z 0.000000 0.000000 1.523720 
# 
# From -- ./inp_files/3024.got.cif
#   From: 2010.05.17/outbox.cif.g08.bks.cpg/sg183_2_cif.got.tgz:3024.got - 2010.05.20 12:02:58.
