data_PCOD9584611
_publ_section_title
;
Structure prediction by ZEFSAII (Michael W. Deem and Ramdas Pophale) SiO2 
 PCOD9584611
Probable space group: P 63 2 2
;
_chemical_formula_sum "Si O2"
_cell_formula_units_Z 82
_cell_length_a 17.441668
_cell_length_b 17.441668
_cell_length_c 21.942736
_cell_angle_alpha 90.000000
_cell_angle_beta 90.000000
_cell_angle_gamma 120.000000
_cell_volume 5780.926407
_symmetry_space_group_name_H-M "P 63 2 2"
_symmetry_group_IT_number 182
_symmetry_cell_setting 'hexagonal'
loop_
_space_group_symop_operation_xyz
x,y,z
x-y,x,1/2+z
-y,x-y,z
-x,-y,1/2+z
-x+y,-x,z
y,-x+y,1/2+z
x-y,-y,-z
-x,-x+y,-z
y,x,-z
-y,-x,1/2-z
-x+y,y,1/2-z
x,x-y,1/2-z
loop_
_atom_site_type_symbol
_atom_site_label
_atom_site_fract_x
_atom_site_fract_y
_atom_site_fract_z
Si Si1 0.766336 0.766336 0.000000
Si Si2 0.488349 0.159077 0.821660
Si Si3 0.926617 0.226616 0.875020
Si Si4 0.747333 0.042574 0.851549
Si Si5 0.192993 0.141375 0.062412
Si Si6 0.000000 0.000000 0.925290
Si Si7 0.999961 0.178594 0.764097
Si Si8 0.660083 0.508158 0.674576
O O1 0.747848 0.700340 0.944838
O O2 0.782396 0.852745 0.962685
O O3 0.391065 0.091310 0.845369
O O4 0.486184 0.150841 0.748307
O O5 0.504173 0.255843 0.840276
O O6 0.568464 0.145827 0.843590
O O7 0.836786 0.131553 0.872059
O O8 0.992072 0.209578 0.831946
O O9 0.763114 0.020554 0.783149
O O10 0.674892 0.073763 0.851345
O O11 0.743490 0.964996 0.893618
O O12 0.094775 0.082443 0.092623
O O13 0.183110 0.183110 0.000000
O O14 0.000000 0.000000 0.000000
O O15 0.921446 0.078555 0.750000
O O16 0.093350 0.186700 0.750000
#
# Coordination Sequence:
#
# PCOD9584611 Si02
#       8
#     6  12  12  12  12   4  12  12
#     4  12  20  30  44  60  86 130 168 196 212 246
#     4   9  16  29  48  70  89 107 136 174 227 288
#     4  10  19  30  43  61  88 117 151 188 225 264
#     4  10  18  29  44  63  89 114 147 190 233 258
#     4  11  17  27  41  61  85 121 166 196 210 238
#     4   9  15  27  39  57  81 112 171 208 200 217
#     4  10  19  30  40  59  89 123 154 186 223 260
#     4   9  16  28  49  71  88 108 134 177 229 286
#
# _framework density 14.184578
#
# number of rings (size 3 to 8) (size 9 to 14) (size 15 to 20)
#    0.000    2.049    5.122    1.317    0.000    2.341 
#    0.000    0.000    1.610    0.000    0.000    0.000 
#    0.000    0.000    0.000   12.293    0.000    0.000 
#
# Total GULP energy -456663.347845 kJ/mol
# GULP energy per Si atom -5569.065218 kJ/mol
# Density = 1.415229 g / cm^3
# Si number density = 14.184578 Si / 1000 Ang^3
#
#
#
# Elastic Constant Matrix: (Units=GPa)
#
#
# Indices 1 2 3 4 5 6 
#
# 1 68.1049 44.1745 22.4056 0.0000 0.0000 0.0000
# 2 44.1745 68.1049 22.4056 0.0000 0.0000 0.0000
# 3 22.4056 22.4056 62.5137 0.0000 0.0000 0.0000
# 4 0.0000 0.0000 0.0000 15.3303 0.0000 0.0000
# 5 0.0000 0.0000 0.0000 0.0000 15.3303 0.0000
# 6 0.0000 0.0000 0.0000 0.0000 0.0000 11.9652
#
#
#
# Elastic Compliance Matrix: (Units=1/GPa)
#
#
# Indices 1 2 3 4 5 6 
#
# 1 0.026090 -0.015697 -0.003725 0.000000 0.000000 0.000000
# 2 -0.015697 0.026090 -0.003725 0.000000 0.000000 0.000000
# 3 -0.003725 -0.003725 0.018667 0.000000 0.000000 0.000000
# 4 0.000000 0.000000 0.000000 0.065230 0.000000 0.000000
# 5 0.000000 0.000000 0.000000 0.000000 0.065230 0.000000
# 6 0.000000 0.000000 0.000000 0.000000 0.000000 0.083576
#
#
# Mechanical properties :
#
#
# Convention : Reuss Voigt Hill
#
# Bulk Modulus (GPa) = 40.72863 41.85501 41.29182
# Shear Modulus (GPa) = 14.73349 15.84100 15.28724
#
# Velocity S-wave (km/s) = 3.22638 3.34545 3.28645
# Velocity P-wave (km/s) = 6.53108 6.67039 6.60110
#
# Compressibility (1/GPa) = 0.02455276
#
# Stress axis : x y z
#
# Youngs Moduli (GPa) = 38.32817 38.32817 53.57149
#
# Poissons Ratio (x) = 0.60165 0.19955
# Poissons Ratio (y) = 0.60165 0.19955
# Poissons Ratio (z) = 0.14277 0.14277
#
# Static dielectric constant tensor:
#      x y z
#    x 1.477480 0.000000 0.000000 
#    y 0.000000 1.477480 0.000000 
#    z 0.000000 0.000000 1.497900 
# 
# From -- ./inp_files/5017.got.cif
#   From: 2010.05.17/outbox.cif.g08.bks.cpg/sg182_3_cif.got.tgz:5017.got - 2010.05.20 11:58:53.
