data_PCOD9584676
_publ_section_title
;
Structure prediction by ZEFSAII (Michael W. Deem and Ramdas Pophale) SiO2 
 PCOD9584676
Probable space group: P 63 2 2
;
_chemical_formula_sum "Si O2"
_cell_formula_units_Z 54
_cell_length_a 11.644844
_cell_length_b 11.644844
_cell_length_c 23.117858
_cell_angle_alpha 90.000000
_cell_angle_beta 90.000000
_cell_angle_gamma 120.000000
_cell_volume 2714.848338
_symmetry_space_group_name_H-M "P 63 2 2"
_symmetry_group_IT_number 182
_symmetry_cell_setting 'hexagonal'
loop_
_space_group_symop_operation_xyz
x,y,z
x-y,x,1/2+z
-y,x-y,z
-x,-y,1/2+z
-x+y,-x,z
y,-x+y,1/2+z
x-y,-y,-z
-x,-x+y,-z
y,x,-z
-y,-x,1/2-z
-x+y,y,1/2-z
x,x-y,1/2-z
loop_
_atom_site_type_symbol
_atom_site_label
_atom_site_fract_x
_atom_site_fract_y
_atom_site_fract_z
Si Si1 0.666667 0.333333 0.669183
Si Si2 0.544630 0.896126 0.957483
Si Si3 0.573155 0.681457 0.883104
Si Si4 0.666668 0.333335 0.966850
Si Si5 0.333334 0.666668 0.816137
Si Si6 0.543337 0.456664 0.750000
Si Si7 0.260221 0.998398 0.772784
O O1 0.666668 0.333334 0.601257
O O2 0.577587 0.390316 0.696241
O O3 0.590508 0.805981 0.922029
O O4 0.457894 0.945271 0.919035
O O5 0.437583 0.803134 0.004483
O O6 0.656632 0.000000 0.000000
O O7 0.461629 0.666903 0.838858
O O8 0.699890 0.716140 0.841995
O O9 0.333334 0.666667 0.750000
O O10 0.616488 0.612389 0.742737
O O11 0.126876 0.873125 0.750000
O O12 0.261391 0.130696 0.750000
#
# Coordination Sequence:
#
# PCOD9584676 Si02
#       7
#     4  12  12   4   4   6  12
#     4  10  19  43  67  94 133 160 214 274 338 397
#     4   9  19  37  57  90 128 161 213 269 340 385
#     4   9  21  35  57  92 126 163 212 273 326 391
#     4   9  20  32  57  90 122 158 198 268 332 388
#     4   9  16  32  55  91 128 154 195 265 332 385
#     4  10  24  42  62 102 130 166 224 268 336 406
#     4  12  26  43  64  93 136 181 222 264 336 414
#
# _framework density 19.890615
#
# number of rings (size 3 to 8) (size 9 to 14) (size 15 to 20)
#    0.000    2.222    2.222    2.667   10.889    0.000 
#    0.667    0.000    0.000    0.000    0.000    1.556 
#    0.000    0.000    0.000    0.000    0.000    0.000 
#
# Total GULP energy -300654.924720 kJ/mol
# GULP energy per Si atom -5567.683791 kJ/mol
# Density = 1.984534 g / cm^3
# Si number density = 19.890615 Si / 1000 Ang^3
#
#
#
# Elastic Constant Matrix: (Units=GPa)
#
#
# Indices 1 2 3 4 5 6 
#
# 1 77.7157 53.5596 31.3465 0.0000 0.0000 -0.0003
# 2 53.5596 77.7161 31.3453 0.0002 0.0001 0.0003
# 3 31.3465 31.3453 142.4267 0.0002 -0.0001 -0.0003
# 4 0.0000 0.0002 0.0002 29.8166 -0.0001 -0.0001
# 5 0.0000 0.0001 -0.0001 -0.0001 29.8169 0.0001
# 6 -0.0003 0.0003 -0.0003 -0.0001 0.0001 12.0779
#
#
#
# Elastic Compliance Matrix: (Units=1/GPa)
#
#
# Indices 1 2 3 4 5 6 
#
# 1 0.024955 -0.016442 -0.001874 0.000000 0.000000 0.000001
# 2 -0.016442 0.024954 -0.001873 0.000000 0.000000 -0.000001
# 3 -0.001874 -0.001873 0.007846 0.000000 0.000000 0.000000
# 4 0.000000 0.000000 0.000000 0.033538 0.000000 0.000000
# 5 0.000000 0.000000 0.000000 0.000000 0.033538 0.000000
# 6 0.000001 -0.000001 0.000000 0.000000 0.000000 0.082796
#
#
# Mechanical properties :
#
#
# Convention : Reuss Voigt Hill
#
# Bulk Modulus (GPa) = 57.54866 58.92903 58.23885
# Shear Modulus (GPa) = 19.70070 26.44940 23.07505
#
# Velocity S-wave (km/s) = 3.15056 3.65052 3.40972
# Velocity P-wave (km/s) = 6.49847 6.88907 6.69662
#
# Compressibility (1/GPa) = 0.01737660
#
# Stress axis : x y z
#
# Youngs Moduli (GPa) = 40.07250 40.07302 127.45722
#
# Poissons Ratio (x) = 0.65890 0.23881
# Poissons Ratio (y) = 0.65889 0.23875
# Poissons Ratio (z) = 0.07508 0.07506
#
# Static dielectric constant tensor:
#      x y z
#    x 1.768420 0.000000 0.000000 
#    y 0.000000 1.768420 0.000000 
#    z 0.000000 0.000000 1.748540 
# 
# From -- ./inp_files/5227.got.cif
#   From: 2010.05.17/outbox.cif.g08.bks.cpg/sg182_3_cif.got.tgz:5227.got - 2010.05.20 11:58:53.
