data_PCOD9584036
_publ_section_title
;
Structure prediction by ZEFSAII (Michael W. Deem and Ramdas Pophale) SiO2 
 PCOD9584036
Probable space group: P 62 2 2
;
_chemical_formula_sum "Si O2"
_cell_formula_units_Z 42
_cell_length_a 13.896894
_cell_length_b 13.896894
_cell_length_c 11.982563
_cell_angle_alpha 90.000000
_cell_angle_beta 90.000000
_cell_angle_gamma 120.000000
_cell_volume 2004.083639
_symmetry_space_group_name_H-M "P 62 2 2"
_symmetry_group_IT_number 180
_symmetry_cell_setting 'hexagonal'
loop_
_space_group_symop_operation_xyz
x,y,z
x-y,x,1/3+z
-y,x-y,2/3+z
-x,-y,z
-x+y,-x,1/3+z
y,-x+y,2/3+z
x-y,-y,-z
-x,-x+y,1/3-z
y,x,2/3-z
-y,-x,2/3-z
-x+y,y,-z
x,x-y,1/3-z
loop_
_atom_site_type_symbol
_atom_site_label
_atom_site_fract_x
_atom_site_fract_y
_atom_site_fract_z
Si Si1 0.615907 0.596717 0.121597
Si Si2 0.305576 0.077149 0.406376
Si Si3 0.515179 0.268031 0.800176
Si Si4 0.000000 0.710440 0.666667
O O1 0.500000 0.500000 0.074826
O O2 0.667382 0.523825 0.169362
O O3 0.622166 0.665284 0.231570
O O4 0.683119 0.690125 0.028335
O O5 0.424016 0.135459 0.472244
O O6 0.278588 0.172363 0.369052
O O7 0.219412 0.000000 0.500000
O O8 0.636596 0.363405 0.833334
O O9 0.505992 0.252996 0.666667
#
# Coordination Sequence:
#
# PCOD9584036 Si02
#       4
#    12  12  12   6
#     4  11  23  41  66  96 140 181 229 286 357 420
#     4  11  23  42  72  98 137 185 237 294 345 425
#     4  11  23  39  63  98 131 174 230 283 351 423
#     4  10  25  42  66 101 138 186 232 295 365 414
#
# _framework density 20.95721
#
# number of rings (size 3 to 8) (size 9 to 14) (size 15 to 20)
#    0.000    1.143    2.857    3.000    0.000    6.857 
#    0.000    0.000    0.000   36.000    0.000    0.000 
#    0.000    0.000    0.000    0.000    0.000    0.000 
#
# Total GULP energy -234000.731123 kJ/mol
# GULP energy per Si atom -5571.445979 kJ/mol
# Density = 2.090951 g / cm^3
# Si number density = 20.957210 Si / 1000 Ang^3
#
#
#
# Elastic Constant Matrix: (Units=GPa)
#
#
# Indices 1 2 3 4 5 6 
#
# 1 89.7796 44.6639 25.8952 0.0000 0.0000 0.0000
# 2 44.6639 89.7796 25.8952 0.0000 0.0000 0.0000
# 3 25.8952 25.8952 118.6793 0.0000 0.0000 0.0000
# 4 0.0000 0.0000 0.0000 25.3526 0.0000 0.0000
# 5 0.0000 0.0000 0.0000 0.0000 25.3526 0.0000
# 6 0.0000 0.0000 0.0000 0.0000 0.0000 22.5578
#
#
#
# Elastic Compliance Matrix: (Units=1/GPa)
#
#
# Indices 1 2 3 4 5 6 
#
# 1 0.015143 -0.007022 -0.001772 0.000000 0.000000 0.000000
# 2 -0.007022 0.015143 -0.001772 0.000000 0.000000 0.000000
# 3 -0.001772 -0.001772 0.009199 0.000000 0.000000 0.000000
# 4 0.000000 0.000000 0.000000 0.039444 0.000000 0.000000
# 5 0.000000 0.000000 0.000000 0.000000 0.039444 0.000000
# 6 0.000000 0.000000 0.000000 0.000000 0.000000 0.044330
#
#
# Mechanical properties :
#
#
# Convention : Reuss Voigt Hill
#
# Bulk Modulus (GPa) = 54.48685 54.57189 54.52937
# Shear Modulus (GPa) = 26.32233 28.10489 27.21361
#
# Velocity S-wave (km/s) = 3.54786 3.66602 3.60742
# Velocity P-wave (km/s) = 6.54512 6.63444 6.58993
#
# Compressibility (1/GPa) = 0.01835305
#
# Stress axis : x y z
#
# Youngs Moduli (GPa) = 66.03740 66.03740 108.70394
#
# Poissons Ratio (x) = 0.46373 0.19261
# Poissons Ratio (y) = 0.46373 0.19261
# Poissons Ratio (z) = 0.11701 0.11701
#
# Static dielectric constant tensor:
#      x y z
#    x 1.821060 0.000000 0.000000 
#    y 0.000000 1.821060 0.000000 
#    z 0.000000 0.000000 1.802070 
# 
# From -- ./inp_files/4199.got.cif
#   From: 2010.05.17/outbox.cif.g08.bks.cpg/sg180_3_cif.got.tgz:4199.got - 2010.05.20 11:43:55.
