data_PCOD9584219
_publ_section_title
;
Structure prediction by ZEFSAII (Michael W. Deem and Ramdas Pophale) SiO2 
 PCOD9584219
Probable space group: P 64 2 2
;
_chemical_formula_sum "Si O2"
_cell_formula_units_Z 69
_cell_length_a 14.501893
_cell_length_b 14.501893
_cell_length_c 17.856151
_cell_angle_alpha 90.000000
_cell_angle_beta 90.000000
_cell_angle_gamma 120.000000
_cell_volume 3252.129826
_symmetry_space_group_name_H-M "P 64 2 2"
_symmetry_group_IT_number 181
_symmetry_cell_setting 'hexagonal'
loop_
_space_group_symop_operation_xyz
x,y,z
x-y,x,2/3+z
-y,x-y,1/3+z
-x,-y,z
-x+y,-x,2/3+z
y,-x+y,1/3+z
x-y,-y,-z
-x,-x+y,2/3-z
y,x,1/3-z
-y,-x,1/3-z
-x+y,y,-z
x,x-y,2/3-z
loop_
_atom_site_type_symbol
_atom_site_label
_atom_site_fract_x
_atom_site_fract_y
_atom_site_fract_z
Si Si1 0.658327 0.829164 0.333334
Si Si2 0.824417 0.120647 0.501158
Si Si3 0.196407 0.049699 0.907520
Si Si4 0.000000 0.334155 0.333334
Si Si5 0.346612 0.653389 0.666667
Si Si6 0.484272 0.886218 0.290639
Si Si7 0.000000 0.000000 0.000000
Si Si8 0.665710 0.508844 0.786396
O O1 0.717492 0.857891 0.254745
O O2 0.581626 0.879044 0.327284
O O3 0.795855 0.209195 0.473646
O O4 0.925649 0.140306 0.451353
O O5 0.731171 0.000000 0.500000
O O6 0.234275 0.117138 0.833334
O O7 0.297836 0.075917 0.958253
O O8 0.104606 0.062081 0.948413
O O9 0.940685 0.362475 0.396395
O O10 0.220678 0.600668 0.651312
O O11 0.358650 0.594749 0.739435
O O12 0.487281 0.877604 0.200106
O O13 0.500000 0.000000 0.310501
#
# Coordination Sequence:
#
# PCOD9584219 Si02
#       8
#     6  12  12   6   6  12   3  12
#     4   9  22  41  60  90 128 160 208 268 320 392
#     4  10  21  36  60  88 127 170 217 268 329 389
#     4  10  20  35  53  86 124 173 232 271 324 392
#     4   9  22  40  56  89 132 172 208 272 332 396
#     4  11  24  43  72 100 130 169 219 269 329 406
#     4  10  23  44  70  96 129 165 214 267 329 393
#     4  10  18  30  52  74 120 174 224 282 330 376
#     4  10  23  42  62  98 132 166 219 266 333 404
#
# _framework density 21.216864000000001
#
# number of rings (size 3 to 8) (size 9 to 14) (size 15 to 20)
#    0.000    2.087    0.000    1.826    4.870    5.565 
#    6.261    0.000    0.000    0.000    0.000    0.000 
#    0.000    0.000    0.000    0.000    0.000    0.000 
#
# Total GULP energy -385230.736364 kJ/mol
# GULP energy per Si atom -5583.054150 kJ/mol
# Density = 2.116857 g / cm^3
# Si number density = 21.216864 Si / 1000 Ang^3
#
#
#
# Elastic Constant Matrix: (Units=GPa)
#
#
# Indices 1 2 3 4 5 6 
#
# 1 66.4344 44.8734 14.5937 0.0000 0.0000 0.0000
# 2 44.8734 66.4344 14.5937 0.0000 0.0000 0.0000
# 3 14.5937 14.5937 103.9306 0.0000 0.0000 0.0000
# 4 0.0000 0.0000 0.0000 18.2891 0.0000 0.0000
# 5 0.0000 0.0000 0.0000 0.0000 18.2891 0.0000
# 6 0.0000 0.0000 0.0000 0.0000 0.0000 10.7805
#
#
#
# Elastic Compliance Matrix: (Units=1/GPa)
#
#
# Indices 1 2 3 4 5 6 
#
# 1 0.027854 -0.018526 -0.001310 0.000000 0.000000 0.000000
# 2 -0.018526 0.027854 -0.001310 0.000000 0.000000 0.000000
# 3 -0.001310 -0.001310 0.009990 0.000000 0.000000 0.000000
# 4 0.000000 0.000000 0.000000 0.054677 0.000000 0.000000
# 5 0.000000 0.000000 0.000000 0.000000 0.054677 0.000000
# 6 0.000000 0.000000 0.000000 0.000000 0.000000 0.092760
#
#
# Mechanical properties :
#
#
# Convention : Reuss Voigt Hill
#
# Bulk Modulus (GPa) = 42.72464 42.76902 42.74683
# Shear Modulus (GPa) = 15.72792 20.32095 18.02444
#
# Velocity S-wave (km/s) = 2.72562 3.09815 2.91784
# Velocity P-wave (km/s) = 5.48509 5.74455 5.61632
#
# Compressibility (1/GPa) = 0.02340570
#
# Stress axis : x y z
#
# Youngs Moduli (GPa) = 35.90170 35.90170 100.10377
#
# Poissons Ratio (x) = 0.66513 0.13111
# Poissons Ratio (y) = 0.66513 0.13111
# Poissons Ratio (z) = 0.04702 0.04702
#
# Static dielectric constant tensor:
#      x y z
#    x 1.798430 0.000000 0.000000 
#    y 0.000000 1.798430 0.000000 
#    z 0.000000 0.000000 1.781170 
# 
# From -- ./inp_files/7861.got.cif
#   From: 2010.05.17/outbox.cif.g08.bks.cpg/sg181_4_cif.got.tgz:7861.got - 2010.05.20 11:51:17.
