data_PCOD9584187
_publ_section_title
;
Structure prediction by ZEFSAII (Michael W. Deem and Ramdas Pophale) SiO2 
 PCOD9584187
Probable space group: P 62 2 2
;
_chemical_formula_sum "Si O2"
_cell_formula_units_Z 36
_cell_length_a 10.557855
_cell_length_b 10.557855
_cell_length_c 15.735972
_cell_angle_alpha 90.000000
_cell_angle_beta 90.000000
_cell_angle_gamma 120.000000
_cell_volume 1519.062323
_symmetry_space_group_name_H-M "P 62 2 2"
_symmetry_group_IT_number 180
_symmetry_cell_setting 'hexagonal'
loop_
_space_group_symop_operation_xyz
x,y,z
x-y,x,1/3+z
-y,x-y,2/3+z
-x,-y,z
-x+y,-x,1/3+z
y,-x+y,2/3+z
x-y,-y,-z
-x,-x+y,1/3-z
y,x,2/3-z
-y,-x,2/3-z
-x+y,y,-z
x,x-y,1/3-z
loop_
_atom_site_type_symbol
_atom_site_label
_atom_site_fract_x
_atom_site_fract_y
_atom_site_fract_z
Si Si1 0.500000 0.500000 0.640895
Si Si2 0.729240 0.247981 0.565256
Si Si3 0.106740 0.306861 0.905834
Si Si4 0.000000 0.000000 0.166667
Si Si5 0.000000 0.500000 0.666667
O O1 0.394805 0.534050 0.701524
O O2 0.614035 0.625785 0.578428
O O3 0.657117 0.314234 0.500000
O O4 0.776487 0.160356 0.501780
O O5 0.880559 0.362361 0.611103
O O6 0.028754 0.136643 0.890111
O O7 0.168871 0.337742 0.000000
#
# Coordination Sequence:
#
# PCOD9584187 Si02
#       5
#     6  12  12   3   3
#     4  12  26  50  81 111 158 214 270 335 407 506
#     4  12  26  50  80 118 159 217 272 341 417 495
#     4  12  26  48  79 112 161 213 272 336 419 495
#     4  12  30  48  74 122 168 208 272 350 414 496
#     4  12  30  48  82 122 164 212 280 338 410 492
#
# _framework density 23.698831999999999
#
# number of rings (size 3 to 8) (size 9 to 14) (size 15 to 20)
#    0.000    0.000    3.333    6.000    4.667    0.000 
#    3.000    0.000    0.000    0.000    0.000    0.000 
#    0.000    0.000    0.000    0.000    0.000    0.000 
#
# Total GULP energy -201153.826354 kJ/mol
# GULP energy per Si atom -5587.606288 kJ/mol
# Density = 2.364489 g / cm^3
# Si number density = 23.698832 Si / 1000 Ang^3
#
#
#
# Elastic Constant Matrix: (Units=GPa)
#
#
# Indices 1 2 3 4 5 6 
#
# 1 172.3859 76.4031 65.1261 0.0000 0.0000 0.0000
# 2 76.4031 172.3859 65.1261 0.0000 0.0000 0.0000
# 3 65.1261 65.1261 122.5810 0.0000 0.0000 0.0000
# 4 0.0000 0.0000 0.0000 306.3784 0.0000 0.0000
# 5 0.0000 0.0000 0.0000 0.0000 306.3784 0.0000
# 6 0.0000 0.0000 0.0000 0.0000 0.0000 47.9914
#
#
#
# Elastic Compliance Matrix: (Units=1/GPa)
#
#
# Indices 1 2 3 4 5 6 
#
# 1 0.007993 -0.002425 -0.002958 0.000000 0.000000 0.000000
# 2 -0.002425 0.007993 -0.002958 0.000000 0.000000 0.000000
# 3 -0.002958 -0.002958 0.011301 0.000000 0.000000 0.000000
# 4 0.000000 0.000000 0.000000 0.003264 0.000000 0.000000
# 5 0.000000 0.000000 0.000000 0.000000 0.003264 0.000000
# 6 0.000000 0.000000 0.000000 0.000000 0.000000 0.020837
#
#
# Mechanical properties :
#
#
# Convention : Reuss Voigt Hill
#
# Bulk Modulus (GPa) = 94.29987 97.85149 96.07568
# Shear Modulus (GPa) = 66.78080 149.52947 108.15513
#
# Velocity S-wave (km/s) = 5.31414 7.95190 6.76287
# Velocity P-wave (km/s) = 8.80516 11.21113 10.08019
#
# Compressibility (1/GPa) = 0.01060447
#
# Stress axis : x y z
#
# Youngs Moduli (GPa) = 125.10278 125.10278 88.48458
#
# Poissons Ratio (x) = 0.30339 0.26177
# Poissons Ratio (y) = 0.30339 0.26177
# Poissons Ratio (z) = 0.37010 0.37010
#
# Static dielectric constant tensor:
#      x y z
#    x 1.847680 0.000000 0.000000 
#    y 0.000000 1.847680 0.000000 
#    z 0.000000 0.000000 1.901450 
# 
# From -- ./inp_files/5582.got.cif
#   From: 2010.05.17/outbox.cif.g08.bks.cpg/sg180_3_cif.got.tgz:5582.got - 2010.05.20 11:43:55.
