data_PCOD9584520
_publ_section_title
;
Structure prediction by ZEFSAII (Michael W. Deem and Ramdas Pophale) SiO2 
 PCOD9584520
Probable space group: P 64 2 2
;
_chemical_formula_sum "Si O2"
_cell_formula_units_Z 60
_cell_length_a 29.181773
_cell_length_b 29.181773
_cell_length_c 5.111841
_cell_angle_alpha 90.000000
_cell_angle_beta 90.000000
_cell_angle_gamma 120.000000
_cell_volume 3769.912917
_symmetry_space_group_name_H-M "P 64 2 2"
_symmetry_group_IT_number 181
_symmetry_cell_setting 'hexagonal'
loop_
_space_group_symop_operation_xyz
x,y,z
x-y,x,2/3+z
-y,x-y,1/3+z
-x,-y,z
-x+y,-x,2/3+z
y,-x+y,1/3+z
x-y,-y,-z
-x,-x+y,2/3-z
y,x,1/3-z
-y,-x,1/3-z
-x+y,y,-z
x,x-y,2/3-z
loop_
_atom_site_type_symbol
_atom_site_label
_atom_site_fract_x
_atom_site_fract_y
_atom_site_fract_z
Si Si1 0.811379 0.080171 0.164836
Si Si2 0.064582 0.585240 0.337009
Si Si3 0.157258 0.000000 0.000000
Si Si4 0.358844 0.935854 0.505442
Si Si5 0.683243 0.742200 0.300179
Si Si6 0.053143 0.106286 0.000000
O O1 0.867752 0.132249 0.166667
O O2 0.786580 0.089405 0.421778
O O3 0.824490 0.032599 0.183230
O O4 0.770571 0.066258 0.916514
O O5 0.081339 0.540670 0.333334
O O6 0.082367 0.615277 0.608576
O O7 0.000000 0.552542 0.333334
O O8 0.081004 0.628254 0.105405
O O9 0.103671 0.960920 0.846550
O O10 0.301247 0.922776 0.605611
O O11 0.391362 0.000000 0.500000
O O12 0.713765 0.713765 0.166667
O O13 0.070293 0.070293 0.166667
#
# Coordination Sequence:
#
# PCOD9584520 Si02
#       6
#    12  12   6  12  12   6
#     4  12  25  39  58  79  97 122 153 200 258 318
#     4   9  15  24  39  64  97 128 161 195 227 258
#     4  12  28  43  64  78 102 116 145 182 248 320
#     4   9  17  27  44  65  91 127 162 192 231 275
#     4  11  21  38  55  73  98 124 159 198 246 304
#     4  12  28  47  64  84 100 120 138 168 228 328
#
# _framework density 15.915489000000001
#
# number of rings (size 3 to 8) (size 9 to 14) (size 15 to 20)
#    0.000    1.400    2.000    4.200    5.600    7.600 
#    0.000    0.000    0.000    0.000    0.000    0.000 
#    0.000    0.000    0.000    0.000    0.000    0.000 
#
# Total GULP energy -334152.720180 kJ/mol
# GULP energy per Si atom -5569.212003 kJ/mol
# Density = 1.587926 g / cm^3
# Si number density = 15.915489 Si / 1000 Ang^3
#
#
#
# Elastic Constant Matrix: (Units=GPa)
#
#
# Indices 1 2 3 4 5 6 
#
# 1 48.9803 29.2399 6.9447 0.0000 0.0000 0.0000
# 2 29.2399 48.9803 6.9447 0.0000 0.0000 0.0000
# 3 6.9447 6.9447 69.4064 0.0000 0.0000 0.0000
# 4 0.0000 0.0000 0.0000 20.7999 0.0000 0.0000
# 5 0.0000 0.0000 0.0000 0.0000 20.7999 0.0000
# 6 0.0000 0.0000 0.0000 0.0000 0.0000 9.8702
#
#
#
# Elastic Compliance Matrix: (Units=1/GPa)
#
#
# Indices 1 2 3 4 5 6 
#
# 1 0.031837 -0.018821 -0.001302 0.000000 0.000000 0.000000
# 2 -0.018821 0.031837 -0.001302 0.000000 0.000000 0.000000
# 3 -0.001302 -0.001302 0.014669 0.000000 0.000000 0.000000
# 4 0.000000 0.000000 0.000000 0.048077 0.000000 0.000000
# 5 0.000000 0.000000 0.000000 0.000000 0.048077 0.000000
# 6 0.000000 0.000000 0.000000 0.000000 0.000000 0.101315
#
#
# Mechanical properties :
#
#
# Convention : Reuss Voigt Hill
#
# Bulk Modulus (GPa) = 28.17652 28.18062 28.17857
# Shear Modulus (GPa) = 15.12894 18.57650 16.85272
#
# Velocity S-wave (km/s) = 3.08649 3.42013 3.25759
# Velocity P-wave (km/s) = 5.51762 5.77419 5.64736
#
# Compressibility (1/GPa) = 0.03549055
#
# Stress axis : x y z
#
# Youngs Moduli (GPa) = 31.41038 31.41038 68.17322
#
# Poissons Ratio (x) = 0.59117 0.08878
# Poissons Ratio (y) = 0.59117 0.08878
# Poissons Ratio (z) = 0.04091 0.04091
#
# Static dielectric constant tensor:
#      x y z
#    x 1.587810 0.000000 0.000000 
#    y 0.000000 1.587810 0.000000 
#    z 0.000000 0.000000 1.592680 
# 
# From -- ./inp_files/1471.got.cif
#   From: 2010.05.17/outbox.cif.g08.bks.cpg/sg181_1_cif.got.tgz:1471.got - 2010.05.20 11:51:17.
