data_PCOD9584990
_publ_section_title
;
Structure prediction by ZEFSAII (Michael W. Deem and Ramdas Pophale) SiO2 
 PCOD9584990
Probable space group: P 6 M M
;
_chemical_formula_sum "Si O2"
_cell_formula_units_Z 72
_cell_length_a 18.543935
_cell_length_b 18.543935
_cell_length_c 15.349238
_cell_angle_alpha 90.000000
_cell_angle_beta 90.000000
_cell_angle_gamma 120.000000
_cell_volume 4571.105497
_symmetry_space_group_name_H-M "P 6 M M"
_symmetry_group_IT_number 183
_symmetry_cell_setting 'hexagonal'
loop_
_space_group_symop_operation_xyz
x,y,z
x-y,x,z
-y,x-y,z
-x,-y,z
-x+y,-x,z
y,-x+y,z
-x+y,y,z
x,x-y,z
-y,-x,z
y,x,z
x-y,-y,z
-x,-x+y,z
loop_
_atom_site_type_symbol
_atom_site_label
_atom_site_fract_x
_atom_site_fract_y
_atom_site_fract_z
Si Si1 0.166158 0.667419 0.566830
Si Si2 0.742434 0.649517 0.698421
Si Si3 0.363063 0.099747 0.212536
Si Si4 0.642927 0.903275 0.902180
Si Si5 0.368073 0.899549 0.051307
Si Si6 0.532779 0.900630 0.375236
O O1 0.153836 0.576918 0.581066
O O2 0.261193 0.738808 0.580912
O O3 0.111523 0.686597 0.633233
O O4 0.142099 0.671219 0.466780
O O5 0.837101 0.674201 0.682040
O O6 0.723557 0.723557 0.685477
O O7 0.723412 0.622450 0.799622
O O8 0.329045 0.164522 0.210298
O O9 0.426887 0.120920 0.132087
O O10 0.418014 0.115546 0.299527
O O11 0.295893 0.000000 0.208476
O O12 0.672995 0.836498 0.918233
O O13 0.710275 0.000000 0.921907
O O14 0.563270 0.878564 0.962710
O O15 0.433134 0.866267 0.057187
O O16 0.423995 0.000000 0.052800
O O17 0.438519 0.877037 0.349625
O O18 0.582146 0.000000 0.389694
#
# Coordination Sequence:
#
# PCOD9584990 Si02
#       6
#    12  12  12  12  12  12
#     4  10  19  30  44  64  92 123 153 184 221 266
#     4   9  18  31  47  67  90 117 150 189 230 270
#     4  10  19  31  48  69  93 121 154 190 227 268
#     4   9  17  30  48  69  92 119 152 188 226 268
#     4   9  17  29  46  67  89 114 145 181 219 259
#     4   9  17  29  46  67  89 115 149 188 226 265
#
# _framework density 15.751113
#
# number of rings (size 3 to 8) (size 9 to 14) (size 15 to 20)
#    0.000    2.667    0.000    2.167    0.000    3.667 
#    0.000    1.667    0.000    7.500    0.000    2.333 
#    0.000    4.000    0.000    5.500    0.000    3.667 
#
# Total GULP energy -400932.500846 kJ/mol
# GULP energy per Si atom -5568.506956 kJ/mol
# Density = 1.571526 g / cm^3
# Si number density = 15.751113 Si / 1000 Ang^3
#
#
#
# Elastic Constant Matrix: (Units=GPa)
#
#
# Indices 1 2 3 4 5 6 
#
# 1 79.8899 52.6816 45.8554 0.0000 0.0000 0.0000
# 2 52.6816 79.8899 45.8554 0.0000 0.0000 0.0000
# 3 45.8554 45.8554 62.6220 0.0000 0.0000 0.0000
# 4 0.0000 0.0000 0.0000 19.7269 0.0000 0.0000
# 5 0.0000 0.0000 0.0000 0.0000 19.7269 0.0000
# 6 0.0000 0.0000 0.0000 0.0000 0.0000 13.6041
#
#
#
# Elastic Compliance Matrix: (Units=1/GPa)
#
#
# Indices 1 2 3 4 5 6 
#
# 1 0.026020 -0.010733 -0.011194 0.000000 0.000000 0.000000
# 2 -0.010733 0.026020 -0.011194 0.000000 0.000000 0.000000
# 3 -0.011194 -0.011194 0.032363 0.000000 0.000000 0.000000
# 4 0.000000 0.000000 0.000000 0.050692 0.000000 0.000000
# 5 0.000000 0.000000 0.000000 0.000000 0.050692 0.000000
# 6 0.000000 0.000000 0.000000 0.000000 0.000000 0.073507
#
#
# Mechanical properties :
#
#
# Convention : Reuss Voigt Hill
#
# Bulk Modulus (GPa) = 55.06442 56.79852 55.93147
# Shear Modulus (GPa) = 15.07885 15.81220 15.44553
#
# Velocity S-wave (km/s) = 3.09741 3.17184 3.13485
# Velocity P-wave (km/s) = 6.91570 7.03935 6.97780
#
# Compressibility (1/GPa) = 0.01816055
#
# Stress axis : x y z
#
# Youngs Moduli (GPa) = 38.43167 38.43167 30.89991
#
# Poissons Ratio (x) = 0.41250 0.34589
# Poissons Ratio (y) = 0.41250 0.34589
# Poissons Ratio (z) = 0.43020 0.43020
#
# Static dielectric constant tensor:
#      x y z
#    x 1.522210 0.000000 0.000000 
#    y 0.000000 1.522210 0.000000 
#    z 0.000000 0.000000 1.533280 
# 
# From -- ./inp_files/2509.got.cif
#   From: 2010.05.17/outbox.cif.g08.bks.cpg/sg183_2_cif.got.tgz:2509.got - 2010.05.20 12:02:58.
