data_PCOD9584693
_publ_section_title
;
Structure prediction by ZEFSAII (Michael W. Deem and Ramdas Pophale) SiO2 
 PCOD9584693
Probable space group: P 63 2 2
;
_chemical_formula_sum "Si O2"
_cell_formula_units_Z 28
_cell_length_a 6.934334
_cell_length_b 6.934334
_cell_length_c 30.195461
_cell_angle_alpha 90.000000
_cell_angle_beta 90.000000
_cell_angle_gamma 120.000000
_cell_volume 1257.424183
_symmetry_space_group_name_H-M "P 63 2 2"
_symmetry_group_IT_number 182
_symmetry_cell_setting 'hexagonal'
loop_
_space_group_symop_operation_xyz
x,y,z
x-y,x,1/2+z
-y,x-y,z
-x,-y,1/2+z
-x+y,-x,z
y,-x+y,1/2+z
x-y,-y,-z
-x,-x+y,-z
y,x,-z
-y,-x,1/2-z
-x+y,y,1/2-z
x,x-y,1/2-z
loop_
_atom_site_type_symbol
_atom_site_label
_atom_site_fract_x
_atom_site_fract_y
_atom_site_fract_z
Si Si1 0.275214 0.886350 0.545411
Si Si2 0.266231 0.878363 0.364206
Si Si3 0.000000 0.000000 0.697613
O O1 0.107479 0.621819 0.545900
O O2 0.267686 0.000000 0.500000
O O3 0.271731 0.012257 0.589382
O O4 0.103859 0.611170 0.362096
O O5 0.204691 0.985077 0.323990
O O6 0.000000 0.000000 0.750000
#
# Coordination Sequence:
#
# PCOD9584693 Si02
#       3
#    12  12   4
#     4  10  20  34  64 102 150 190 229 279 331 407
#     4  10  23  44  71  99 143 180 228 288 350 416
#     4  12  27  48  73 104 133 177 237 297 373 431
#
# _framework density 22.267747
#
# number of rings (size 3 to 8) (size 9 to 14) (size 15 to 20)
#    1.714    0.000    0.000    5.143    0.000    1.714 
#    2.571    0.000    0.000    3.429    0.000    0.000 
#    0.000    0.000    0.000    0.000    0.000    0.000 
#
# Total GULP energy -156319.443564 kJ/mol
# GULP energy per Si atom -5582.837270 kJ/mol
# Density = 2.221706 g / cm^3
# Si number density = 22.267747 Si / 1000 Ang^3
#
#
#
# Elastic Constant Matrix: (Units=GPa)
#
#
# Indices 1 2 3 4 5 6 
#
# 1 96.3047 24.5032 62.7435 0.0000 0.0000 0.0000
# 2 24.5032 96.3047 62.7435 0.0000 0.0000 0.0000
# 3 62.7435 62.7435 253.0452 0.0000 0.0000 0.0000
# 4 0.0000 0.0000 0.0000 26.9125 0.0000 0.0000
# 5 0.0000 0.0000 0.0000 0.0000 26.9125 0.0000
# 6 0.0000 0.0000 0.0000 0.0000 0.0000 35.9007
#
#
#
# Elastic Compliance Matrix: (Units=1/GPa)
#
#
# Indices 1 2 3 4 5 6 
#
# 1 0.012538 -0.001389 -0.002764 0.000000 0.000000 0.000000
# 2 -0.001389 0.012538 -0.002764 0.000000 0.000000 0.000000
# 3 -0.002764 -0.002764 0.005323 0.000000 0.000000 0.000000
# 4 0.000000 0.000000 0.000000 0.037157 0.000000 0.000000
# 5 0.000000 0.000000 0.000000 0.000000 0.037157 0.000000
# 6 0.000000 0.000000 0.000000 0.000000 0.000000 0.027855
#
#
# Mechanical properties :
#
#
# Convention : Reuss Voigt Hill
#
# Bulk Modulus (GPa) = 60.37480 82.84834 71.61157
# Shear Modulus (GPa) = 32.91079 37.65609 35.28344
#
# Velocity S-wave (km/s) = 3.84859 4.11671 3.98491
# Velocity P-wave (km/s) = 6.84988 7.73839 7.30765
#
# Compressibility (1/GPa) = 0.01656320
#
# Stress axis : x y z
#
# Youngs Moduli (GPa) = 79.75610 79.75610 187.87146
#
# Poissons Ratio (x) = 0.11079 0.51937
# Poissons Ratio (y) = 0.11079 0.51937
# Poissons Ratio (z) = 0.22048 0.22048
#
# Static dielectric constant tensor:
#      x y z
#    x 1.870460 0.000000 0.000000 
#    y 0.000000 1.870460 0.000000 
#    z 0.000000 0.000000 1.719660 
# 
# From -- ./inp_files/5588.got.cif
#   From: 2010.05.17/outbox.cif.g08.bks.cpg/sg182_3_cif.got.tgz:5588.got - 2010.05.20 11:58:53.
