data_PCOD9584389
_publ_section_title
;
Structure prediction by ZEFSAII (Michael W. Deem and Ramdas Pophale) SiO2 
 PCOD9584389
Probable space group: P 64 2 2
;
_chemical_formula_sum "Si O2"
_cell_formula_units_Z 42
_cell_length_a 14.324103
_cell_length_b 14.324103
_cell_length_c 10.781425
_cell_angle_alpha 90.000000
_cell_angle_beta 90.000000
_cell_angle_gamma 120.000000
_cell_volume 1915.762501
_symmetry_space_group_name_H-M "P 64 2 2"
_symmetry_group_IT_number 181
_symmetry_cell_setting 'hexagonal'
loop_
_space_group_symop_operation_xyz
x,y,z
x-y,x,2/3+z
-y,x-y,1/3+z
-x,-y,z
-x+y,-x,2/3+z
y,-x+y,1/3+z
x-y,-y,-z
-x,-x+y,2/3-z
y,x,1/3-z
-y,-x,1/3-z
-x+y,y,-z
x,x-y,2/3-z
loop_
_atom_site_type_symbol
_atom_site_label
_atom_site_fract_x
_atom_site_fract_y
_atom_site_fract_z
Si Si1 0.748850 0.233178 0.985246
Si Si2 0.569828 0.439500 0.468594
Si Si3 0.891490 0.746482 0.271980
Si Si4 0.095320 0.904680 0.666667
O O1 0.680740 0.185960 0.859209
O O2 0.844789 0.207203 0.988055
O O3 0.803292 0.359560 0.016136
O O4 0.662393 0.163474 0.092208
O O5 0.500000 0.500000 0.455184
O O6 0.879019 0.847580 0.309576
O O7 0.000000 0.762775 0.333334
O O8 0.891648 0.743425 0.124027
#
# Coordination Sequence:
#
# PCOD9584389 Si02
#       4
#    12  12  12   6
#     4  10  22  38  70  93 129 176 228 292 340 395
#     4  10  21  40  66 105 126 168 243 281 340 421
#     4  11  22  40  66  95 136 185 219 280 351 414
#     4  10  25  38  58 102 142 168 230 268 341 434
#
# _framework density 21.923385
#
# number of rings (size 3 to 8) (size 9 to 14) (size 15 to 20)
#    0.000    1.714    0.000    4.714   12.000    2.286 
#    0.000    8.571    0.000    0.000    0.000    0.000 
#    0.000    0.000    0.000    0.000    0.000    0.000 
#
# Total GULP energy -234364.725380 kJ/mol
# GULP energy per Si atom -5580.112509 kJ/mol
# Density = 2.187349 g / cm^3
# Si number density = 21.923385 Si / 1000 Ang^3
#
#
#
# Elastic Constant Matrix: (Units=GPa)
#
#
# Indices 1 2 3 4 5 6 
#
# 1 105.2700 47.8818 23.6107 0.0000 0.0000 0.0000
# 2 47.8818 105.2700 23.6107 0.0000 0.0000 0.0000
# 3 23.6107 23.6107 29.6954 0.0000 0.0000 0.0000
# 4 0.0000 0.0000 0.0000 5.3092 0.0000 0.0000
# 5 0.0000 0.0000 0.0000 0.0000 5.3092 0.0000
# 6 0.0000 0.0000 0.0000 0.0000 0.0000 28.6941
#
#
#
# Elastic Compliance Matrix: (Units=1/GPa)
#
#
# Indices 1 2 3 4 5 6 
#
# 1 0.013038 -0.004388 -0.006878 0.000000 0.000000 0.000000
# 2 -0.004388 0.013038 -0.006878 0.000000 0.000000 0.000000
# 3 -0.006878 -0.006878 0.044612 0.000000 0.000000 0.000000
# 4 0.000000 0.000000 0.000000 0.188354 0.000000 0.000000
# 5 0.000000 0.000000 0.000000 0.000000 0.188354 0.000000
# 6 0.000000 0.000000 0.000000 0.000000 0.000000 0.034850
#
#
# Mechanical properties :
#
#
# Convention : Reuss Voigt Hill
#
# Bulk Modulus (GPa) = 29.06842 47.82689 38.44765
# Shear Modulus (GPa) = 9.43400 17.53796 13.48598
#
# Velocity S-wave (km/s) = 2.07666 2.83144 2.48289
# Velocity P-wave (km/s) = 4.36324 5.70545 5.07888
#
# Compressibility (1/GPa) = 0.03440160
#
# Stress axis : x y z
#
# Youngs Moduli (GPa) = 76.70112 76.70112 22.41548
#
# Poissons Ratio (x) = 0.33653 0.15417
# Poissons Ratio (y) = 0.33653 0.15417
# Poissons Ratio (z) = 0.52752 0.52752
#
# Static dielectric constant tensor:
#      x y z
#    x 1.813460 0.000000 0.000000 
#    y 0.000000 1.813460 0.000000 
#    z 0.000000 0.000000 1.805810 
# 
# From -- ./inp_files/4161.got.cif
#   From: 2010.05.17/outbox.cif.g08.bks.cpg/sg181_3_cif.got.tgz:4161.got - 2010.05.20 11:51:17.
