data_PCOD9584040
_publ_section_title
;
Structure prediction by ZEFSAII (Michael W. Deem and Ramdas Pophale) SiO2 
 PCOD9584040
Probable space group: P 62 2 2
;
_chemical_formula_sum "Si O2"
_cell_formula_units_Z 30
_cell_length_a 11.530302
_cell_length_b 11.530302
_cell_length_c 13.243103
_cell_angle_alpha 90.000000
_cell_angle_beta 90.000000
_cell_angle_gamma 120.000000
_cell_volume 1524.760924
_symmetry_space_group_name_H-M "P 62 2 2"
_symmetry_group_IT_number 180
_symmetry_cell_setting 'hexagonal'
loop_
_space_group_symop_operation_xyz
x,y,z
x-y,x,1/3+z
-y,x-y,2/3+z
-x,-y,z
-x+y,-x,1/3+z
y,-x+y,2/3+z
x-y,-y,-z
-x,-x+y,1/3-z
y,x,2/3-z
-y,-x,2/3-z
-x+y,y,-z
x,x-y,1/3-z
loop_
_atom_site_type_symbol
_atom_site_label
_atom_site_fract_x
_atom_site_fract_y
_atom_site_fract_z
Si Si1 0.132580 0.490157 0.325769
Si Si2 0.148393 0.185515 0.716163
Si Si3 0.322340 0.677661 0.833334
O O1 0.100223 0.339350 0.310783
O O2 0.187780 0.550500 0.436944
O O3 0.253515 0.574061 0.248350
O O4 0.000000 0.500000 0.303252
O O5 0.149809 0.149809 0.833334
O O6 0.000000 0.124292 0.666667
O O7 0.216693 0.108347 0.666667
#
# Coordination Sequence:
#
# PCOD9584040 Si02
#       3
#    12  12   6
#     4  11  25  43  72  95 144 177 233 294 354 426
#     4  11  25  42  69 100 136 180 231 284 355 414
#     4  10  25  44  64 109 124 186 236 274 360 429
#
# _framework density 19.675215000000001
#
# number of rings (size 3 to 8) (size 9 to 14) (size 15 to 20)
#    0.000    1.200    0.000    5.400   16.800    0.000 
#    0.000    4.000    0.000    0.000    0.000    0.000 
#    0.000    0.000    0.000    0.000    0.000    0.000 
#
# Total GULP energy -167358.516521 kJ/mol
# GULP energy per Si atom -5578.617217 kJ/mol
# Density = 1.963043 g / cm^3
# Si number density = 19.675215 Si / 1000 Ang^3
#
#
#
# Elastic Constant Matrix: (Units=GPa)
#
#
# Indices 1 2 3 4 5 6 
#
# 1 136.4435 70.9319 55.6114 0.0000 0.0000 0.0000
# 2 70.9319 136.4435 55.6114 0.0000 0.0000 0.0000
# 3 55.6114 55.6114 148.9802 0.0000 0.0000 0.0000
# 4 0.0000 0.0000 0.0000 30.9310 0.0000 0.0000
# 5 0.0000 0.0000 0.0000 0.0000 30.9310 0.0000
# 6 0.0000 0.0000 0.0000 0.0000 0.0000 32.7558
#
#
#
# Elastic Compliance Matrix: (Units=1/GPa)
#
#
# Indices 1 2 3 4 5 6 
#
# 1 0.010647 -0.004618 -0.002251 0.000000 0.000000 0.000000
# 2 -0.004618 0.010647 -0.002251 0.000000 0.000000 0.000000
# 3 -0.002251 -0.002251 0.008393 0.000000 0.000000 0.000000
# 4 0.000000 0.000000 0.000000 0.032330 0.000000 0.000000
# 5 0.000000 0.000000 0.000000 0.000000 0.032330 0.000000
# 6 0.000000 0.000000 0.000000 0.000000 0.000000 0.030529
#
#
# Mechanical properties :
#
#
# Convention : Reuss Voigt Hill
#
# Bulk Modulus (GPa) = 87.34686 87.35294 87.34990
# Shear Modulus (GPa) = 34.03002 34.90439 34.46720
#
# Velocity S-wave (km/s) = 4.16334 4.21649 4.19000
# Velocity P-wave (km/s) = 8.22204 8.25826 8.24017
#
# Compressibility (1/GPa) = 0.01144861
#
# Stress axis : x y z
#
# Youngs Moduli (GPa) = 93.92442 93.92442 119.15383
#
# Poissons Ratio (x) = 0.43371 0.26817
# Poissons Ratio (y) = 0.43371 0.26817
# Poissons Ratio (z) = 0.21139 0.21139
#
# Static dielectric constant tensor:
#      x y z
#    x 1.683490 0.000000 0.000000 
#    y 0.000000 1.683490 0.000000 
#    z 0.000000 0.000000 1.653510 
# 
# From -- ./inp_files/5291.got.cif
#   From: 2010.05.17/outbox.cif.g08.bks.cpg/sg180_3_cif.got.tgz:5291.got - 2010.05.20 11:43:55.
