data_PCOD9584376
_publ_section_title
;
Structure prediction by ZEFSAII (Michael W. Deem and Ramdas Pophale) SiO2 
 PCOD9584376
Probable space group: P 64 2 2
;
_chemical_formula_sum "Si O2"
_cell_formula_units_Z 60
_cell_length_a 10.595154
_cell_length_b 10.595154
_cell_length_c 27.686563
_cell_angle_alpha 90.000000
_cell_angle_beta 90.000000
_cell_angle_gamma 120.000000
_cell_volume 2691.622963
_symmetry_space_group_name_H-M "P 64 2 2"
_symmetry_group_IT_number 181
_symmetry_cell_setting 'hexagonal'
loop_
_space_group_symop_operation_xyz
x,y,z
x-y,x,2/3+z
-y,x-y,1/3+z
-x,-y,z
-x+y,-x,2/3+z
y,-x+y,1/3+z
x-y,-y,-z
-x,-x+y,2/3-z
y,x,1/3-z
-y,-x,1/3-z
-x+y,y,-z
x,x-y,2/3-z
loop_
_atom_site_type_symbol
_atom_site_label
_atom_site_fract_x
_atom_site_fract_y
_atom_site_fract_z
Si Si1 0.317752 0.317752 0.166667
Si Si2 0.169056 0.888202 0.323409
Si Si3 0.129123 0.171731 0.900278
Si Si4 0.658666 0.526142 0.257886
Si Si5 0.191622 0.808379 0.166667
Si Si6 0.837823 0.471380 0.407276
O O1 0.331478 0.446216 0.200371
O O2 0.192522 0.268170 0.126958
O O3 0.214072 0.023651 0.287737
O O4 0.238137 0.901425 0.375391
O O5 0.189775 0.767884 0.293561
O O6 0.000000 0.822252 0.333334
O O7 0.269915 0.203428 0.868879
O O8 0.000000 0.000000 0.898031
O O9 0.500000 0.500000 0.271349
O O10 0.715184 0.412332 0.266731
O O11 0.320836 0.839817 0.129684
O O12 0.000000 0.500000 0.396041
#
# Coordination Sequence:
#
# PCOD9584376 Si02
#       6
#     6  12  12  12   6  12
#     4  12  24  44  70  96 146 194 234 296 386 470
#     4  11  24  45  74 109 140 196 255 316 382 468
#     4  11  21  40  69 107 143 173 235 312 376 438
#     4  12  28  47  68 102 150 197 255 314 396 456
#     4  10  21  38  67 104 136 178 240 304 361 434
#     4  11  23  44  75 102 142 198 261 307 374 477
#
# _framework density 22.291384000000001
#
# number of rings (size 3 to 8) (size 9 to 14) (size 15 to 20)
#    0.000    0.800    4.000    3.300    2.800    2.800 
#    7.200    2.000    0.000    0.000    0.000    0.000 
#    0.000    0.000    0.000    0.000    0.000    0.000 
#
# Total GULP energy -335110.679736 kJ/mol
# GULP energy per Si atom -5585.177996 kJ/mol
# Density = 2.224065 g / cm^3
# Si number density = 22.291384 Si / 1000 Ang^3
#
#
#
# Elastic Constant Matrix: (Units=GPa)
#
#
# Indices 1 2 3 4 5 6 
#
# 1 76.9593 15.0799 20.3131 0.0000 0.0000 0.0000
# 2 15.0799 76.9593 20.3131 0.0000 0.0000 0.0000
# 3 20.3131 20.3131 154.5673 0.0000 0.0000 0.0000
# 4 0.0000 0.0000 0.0000 29.5690 0.0000 0.0000
# 5 0.0000 0.0000 0.0000 0.0000 29.5690 0.0000
# 6 0.0000 0.0000 0.0000 0.0000 0.0000 30.9397
#
#
#
# Elastic Compliance Matrix: (Units=1/GPa)
#
#
# Indices 1 2 3 4 5 6 
#
# 1 0.013847 -0.002313 -0.001516 0.000000 0.000000 0.000000
# 2 -0.002313 0.013847 -0.001516 0.000000 0.000000 0.000000
# 3 -0.001516 -0.001516 0.006868 0.000000 0.000000 0.000000
# 4 0.000000 0.000000 0.000000 0.033819 0.000000 0.000000
# 5 0.000000 0.000000 0.000000 0.000000 0.033819 0.000000
# 6 0.000000 0.000000 0.000000 0.000000 0.000000 0.032321
#
#
# Mechanical properties :
#
#
# Convention : Reuss Voigt Hill
#
# Bulk Modulus (GPa) = 41.88844 46.65535 44.27190
# Shear Modulus (GPa) = 32.64366 34.86754 33.75560
#
# Velocity S-wave (km/s) = 3.83091 3.95925 3.89561
# Velocity P-wave (km/s) = 6.19677 6.47117 6.33546
#
# Compressibility (1/GPa) = 0.02387293
#
# Stress axis : x y z
#
# Youngs Moduli (GPa) = 72.21662 72.21662 145.60111
#
# Poissons Ratio (x) = 0.16705 0.22070
# Poissons Ratio (y) = 0.16705 0.22070
# Poissons Ratio (z) = 0.10946 0.10946
#
# Static dielectric constant tensor:
#      x y z
#    x 1.838880 0.000000 0.000000 
#    y 0.000000 1.838880 0.000000 
#    z 0.000000 0.000000 1.830290 
# 
# From -- ./inp_files/11239.got.cif
#   From: 2010.05.17/outbox.cif.g08.bks.cpg/sg181_6_cif.got.tgz:11239.got - 2010.05.20 11:51:17.
