data_PCOD9584097
_publ_section_title
;
Structure prediction by ZEFSAII (Michael W. Deem and Ramdas Pophale) SiO2 
 PCOD9584097
Probable space group: P 62 2 2
;
_chemical_formula_sum "Si O2"
_cell_formula_units_Z 36
_cell_length_a 9.415947
_cell_length_b 9.415947
_cell_length_c 21.171619
_cell_angle_alpha 90.000000
_cell_angle_beta 90.000000
_cell_angle_gamma 120.000000
_cell_volume 1625.596338
_symmetry_space_group_name_H-M "P 62 2 2"
_symmetry_group_IT_number 180
_symmetry_cell_setting 'hexagonal'
loop_
_space_group_symop_operation_xyz
x,y,z
x-y,x,1/3+z
-y,x-y,2/3+z
-x,-y,z
-x+y,-x,1/3+z
y,-x+y,2/3+z
x-y,-y,-z
-x,-x+y,1/3-z
y,x,2/3-z
-y,-x,2/3-z
-x+y,y,-z
x,x-y,1/3-z
loop_
_atom_site_type_symbol
_atom_site_label
_atom_site_fract_x
_atom_site_fract_y
_atom_site_fract_z
Si Si1 0.827593 0.406548 0.952611
Si Si2 0.766206 0.571473 0.839967
Si Si3 0.645370 0.958777 0.068903
O O1 0.838825 0.544344 0.904619
O O2 0.794262 0.236725 0.920960
O O3 0.000000 0.500000 0.989166
O O4 0.679072 0.358143 0.000000
O O5 0.672907 0.672907 0.833334
O O6 0.618920 0.381081 0.833334
O O7 0.915218 0.664481 0.790512
O O8 0.500000 0.000000 0.064472
O O9 0.731592 0.000000 0.000000
#
# Coordination Sequence:
#
# PCOD9584097 Si02
#       3
#    12  12  12
#     4  12  27  44  72 104 141 187 243 294 360 430
#     4  11  24  41  72 107 141 179 237 300 356 427
#     4  11  21  43  70  99 139 190 231 286 358 429
#
# _framework density 22.145719
#
# number of rings (size 3 to 8) (size 9 to 14) (size 15 to 20)
#    0.000    0.667    6.667    1.000    9.333    0.000 
#    0.000    3.333    0.000    0.000    0.000    0.000 
#    0.000    0.000    0.000    0.000    0.000    0.000 
#
# Total GULP energy -200567.269909 kJ/mol
# GULP energy per Si atom -5571.313053 kJ/mol
# Density = 2.209531 g / cm^3
# Si number density = 22.145719 Si / 1000 Ang^3
#
#
#
# Elastic Constant Matrix: (Units=GPa)
#
#
# Indices 1 2 3 4 5 6 
#
# 1 99.7643 65.3007 29.8226 0.0000 0.0000 0.0000
# 2 65.3007 99.7643 29.8226 0.0000 0.0000 0.0000
# 3 29.8226 29.8226 92.7342 0.0000 0.0000 0.0000
# 4 0.0000 0.0000 0.0000 47.7942 0.0000 0.0000
# 5 0.0000 0.0000 0.0000 0.0000 47.7942 0.0000
# 6 0.0000 0.0000 0.0000 0.0000 0.0000 17.2318
#
#
#
# Elastic Compliance Matrix: (Units=1/GPa)
#
#
# Indices 1 2 3 4 5 6 
#
# 1 0.017935 -0.011081 -0.002204 0.000000 0.000000 0.000000
# 2 -0.011081 0.017935 -0.002204 0.000000 0.000000 0.000000
# 3 -0.002204 -0.002204 0.012201 0.000000 0.000000 0.000000
# 4 0.000000 0.000000 0.000000 0.020923 0.000000 0.000000
# 5 0.000000 0.000000 0.000000 0.000000 0.020923 0.000000
# 6 0.000000 0.000000 0.000000 0.000000 0.000000 0.058032
#
#
# Mechanical properties :
#
#
# Convention : Reuss Voigt Hill
#
# Bulk Modulus (GPa) = 58.50297 60.23942 59.37119
# Shear Modulus (GPa) = 27.08155 33.71849 30.40002
#
# Velocity S-wave (km/s) = 3.50076 3.90625 3.70905
# Velocity P-wave (km/s) = 6.54332 6.89967 6.72386
#
# Compressibility (1/GPa) = 0.01709315
#
# Stress axis : x y z
#
# Youngs Moduli (GPa) = 55.75545 55.75545 81.95801
#
# Poissons Ratio (x) = 0.61781 0.18067
# Poissons Ratio (y) = 0.61781 0.18067
# Poissons Ratio (z) = 0.12291 0.12291
#
# Static dielectric constant tensor:
#      x y z
#    x 1.711250 0.000000 0.000000 
#    y 0.000000 1.711250 0.000000 
#    z 0.000000 0.000000 1.936360 
# 
# From -- ./inp_files/10754.got.cif
#   From: 2010.05.17/outbox.cif.g08.bks.cpg/sg180_6_cif.got.tgz:10754.got - 2010.05.20 11:43:55.
