data_PCOD9584726
_publ_section_title
;
Structure prediction by ZEFSAII (Michael W. Deem and Ramdas Pophale) SiO2 
 PCOD9584726
Probable space group: P 63 2 2
;
_chemical_formula_sum "Si O2"
_cell_formula_units_Z 30
_cell_length_a 12.112473
_cell_length_b 12.112473
_cell_length_c 10.160925
_cell_angle_alpha 90.000000
_cell_angle_beta 90.000000
_cell_angle_gamma 120.000000
_cell_volume 1291.009748
_symmetry_space_group_name_H-M "P 63 2 2"
_symmetry_group_IT_number 182
_symmetry_cell_setting 'hexagonal'
loop_
_space_group_symop_operation_xyz
x,y,z
x-y,x,1/2+z
-y,x-y,z
-x,-y,1/2+z
-x+y,-x,z
y,-x+y,1/2+z
x-y,-y,-z
-x,-x+y,-z
y,x,-z
-y,-x,1/2-z
-x+y,y,1/2-z
x,x-y,1/2-z
loop_
_atom_site_type_symbol
_atom_site_label
_atom_site_fract_x
_atom_site_fract_y
_atom_site_fract_z
Si Si1 0.794642 0.205359 0.750000
Si Si2 0.811233 0.050146 0.139009
Si Si3 0.263485 0.756844 0.961228
O O1 0.731442 0.219563 0.617972
O O2 0.940396 0.259920 0.702770
O O3 0.914755 0.085246 0.250000
O O4 0.810496 0.180383 0.103641
O O5 0.829123 0.000000 0.000000
O O6 0.195856 0.605819 0.925480
#
# Coordination Sequence:
#
# PCOD9584726 Si02
#       3
#     6  12  12
#     4  10  20  42  68  94 136 182 238 276 364 428
#     4  10  23  43  64  98 134 181 238 294 357 431
#     4   9  20  40  59  98 142 172 226 289 353 427
#
# _framework density 23.237625000000001
#
# number of rings (size 3 to 8) (size 9 to 14) (size 15 to 20)
#    0.800    1.600    0.000    1.200    0.000    8.000 
#   37.200    0.000    0.000    0.000    0.000    0.000 
#    0.000    0.000    0.000    0.000    0.000    0.000 
#
# Total GULP energy -167300.503208 kJ/mol
# GULP energy per Si atom -5576.683440 kJ/mol
# Density = 2.318474 g / cm^3
# Si number density = 23.237625 Si / 1000 Ang^3
#
#
#
# Elastic Constant Matrix: (Units=GPa)
#
#
# Indices 1 2 3 4 5 6 
#
# 1 56.3927 8.6923 47.6235 0.0000 0.0000 0.0000
# 2 8.6923 56.3927 47.6235 0.0000 0.0000 0.0000
# 3 47.6235 47.6235 172.4041 0.0000 0.0000 0.0000
# 4 0.0000 0.0000 0.0000 12.8385 0.0000 0.0000
# 5 0.0000 0.0000 0.0000 0.0000 12.8385 0.0000
# 6 0.0000 0.0000 0.0000 0.0000 0.0000 23.8502
#
#
#
# Elastic Compliance Matrix: (Units=1/GPa)
#
#
# Indices 1 2 3 4 5 6 
#
# 1 0.023377 0.002413 -0.007124 0.000000 0.000000 0.000000
# 2 0.002413 0.023377 -0.007124 0.000000 0.000000 0.000000
# 3 -0.007124 -0.007124 0.009736 0.000000 0.000000 0.000000
# 4 0.000000 0.000000 0.000000 0.077891 0.000000 0.000000
# 5 0.000000 0.000000 0.000000 0.000000 0.077891 0.000000
# 6 0.000000 0.000000 0.000000 0.000000 0.000000 0.041928
#
#
# Mechanical properties :
#
#
# Convention : Reuss Voigt Hill
#
# Bulk Modulus (GPa) = 30.46923 54.78536 42.62730
# Shear Modulus (GPa) = 17.31242 21.98879 19.65060
#
# Velocity S-wave (km/s) = 2.73246 3.07947 2.91114
# Velocity P-wave (km/s) = 4.80579 6.02258 5.44826
#
# Compressibility (1/GPa) = 0.03282000
#
# Stress axis : x y z
#
# Youngs Moduli (GPa) = 42.77690 42.77690 102.71067
#
# Poissons Ratio (x) = -0.10322 0.73171
# Poissons Ratio (y) = -0.10322 0.73171
# Poissons Ratio (z) = 0.30474 0.30474
#
# Static dielectric constant tensor:
#      x y z
#    x 1.920560 0.000000 0.000000 
#    y 0.000000 1.920560 0.000000 
#    z 0.000000 0.000000 1.860620 
# 
# From -- ./inp_files/1063.got.cif
#   From: 2010.05.17/outbox.cif.g08.bks.cpg/sg182_1_cif.got.tgz:1063.got - 2010.05.20 11:58:53.
