data_PCOD9584768
_publ_section_title
;
Structure prediction by ZEFSAII (Michael W. Deem and Ramdas Pophale) SiO2 
 PCOD9584768
Probable space group: P 63 2 2
;
_chemical_formula_sum "Si O2"
_cell_formula_units_Z 52
_cell_length_a 12.696614
_cell_length_b 12.696614
_cell_length_c 17.873315
_cell_angle_alpha 90.000000
_cell_angle_beta 90.000000
_cell_angle_gamma 120.000000
_cell_volume 2495.235693
_symmetry_space_group_name_H-M "P 63 2 2"
_symmetry_group_IT_number 182
_symmetry_cell_setting 'hexagonal'
loop_
_space_group_symop_operation_xyz
x,y,z
x-y,x,1/2+z
-y,x-y,z
-x,-y,1/2+z
-x+y,-x,z
y,-x+y,1/2+z
x-y,-y,-z
-x,-x+y,-z
y,x,-z
-y,-x,1/2-z
-x+y,y,1/2-z
x,x-y,1/2-z
loop_
_atom_site_type_symbol
_atom_site_label
_atom_site_fract_x
_atom_site_fract_y
_atom_site_fract_z
Si Si1 0.333334 0.666667 0.162178
Si Si2 0.522008 0.592327 0.098175
Si Si3 0.333610 0.416530 0.735123
Si Si4 0.812142 0.677517 0.997830
Si Si5 0.010980 0.678194 0.892379
O O1 0.333334 0.666667 0.250000
O O2 0.422709 0.619111 0.135599
O O3 0.632310 0.621796 0.156251
O O4 0.568039 0.681870 0.027425
O O5 0.450315 0.448521 0.084012
O O6 0.450190 0.549811 0.750000
O O7 0.211814 0.423628 0.750000
O O8 0.326998 0.329627 0.803089
O O9 0.904220 0.688061 0.932948
O O10 0.793474 0.793474 0.000000
O O11 0.866376 0.655796 0.073452
#
# Coordination Sequence:
#
# PCOD9584768 Si02
#       5
#     4  12  12  12  12
#     4  12  21  36  63 105 129 174 217 281 349 396
#     4  11  23  39  69  99 135 173 227 282 342 413
#     4  10  21  41  67  98 134 175 219 281 344 410
#     4  11  24  40  63  91 130 178 215 274 343 399
#     4  10  23  44  61  97 133 170 228 276 331 422
#
# _framework density 20.839714000000001
#
# number of rings (size 3 to 8) (size 9 to 14) (size 15 to 20)
#    0.000    1.385    2.308    3.692    3.231    0.000 
#    5.538    0.000    5.077    0.000    0.000    0.000 
#    0.000    0.000    0.000    0.000    0.000    0.000 
#
# Total GULP energy -290224.220426 kJ/mol
# GULP energy per Si atom -5581.235008 kJ/mol
# Density = 2.079228 g / cm^3
# Si number density = 20.839714 Si / 1000 Ang^3
#
#
#
# Elastic Constant Matrix: (Units=GPa)
#
#
# Indices 1 2 3 4 5 6 
#
# 1 114.0868 34.5794 34.5619 -0.0006 0.0005 0.0001
# 2 34.5794 114.0866 34.5619 0.0005 -0.0014 -0.0001
# 3 34.5619 34.5619 50.3843 -0.0001 0.0006 -0.0001
# 4 -0.0006 0.0005 -0.0001 26.2951 -0.0105 0.0009
# 5 0.0005 -0.0014 0.0006 -0.0105 26.2937 0.0005
# 6 0.0001 -0.0001 -0.0001 0.0009 0.0005 39.7540
#
#
#
# Elastic Compliance Matrix: (Units=1/GPa)
#
#
# Indices 1 2 3 4 5 6 
#
# 1 0.011227 -0.001350 -0.006775 0.000000 0.000000 0.000000
# 2 -0.001350 0.011227 -0.006775 0.000000 0.000001 0.000000
# 3 -0.006775 -0.006775 0.029142 0.000000 -0.000001 0.000000
# 4 0.000000 0.000000 0.000000 0.038030 0.000015 -0.000001
# 5 0.000000 0.000001 -0.000001 0.000015 0.038032 -0.000001
# 6 0.000000 0.000000 0.000000 -0.000001 -0.000001 0.025155
#
#
# Mechanical properties :
#
#
# Convention : Reuss Voigt Hill
#
# Bulk Modulus (GPa) = 45.88110 53.99600 49.93855
# Shear Modulus (GPa) = 26.33256 30.12552 28.22904
#
# Velocity S-wave (km/s) = 3.55854 3.80621 3.68445
# Velocity P-wave (km/s) = 6.24085 6.72924 6.48964
#
# Compressibility (1/GPa) = 0.02179547
#
# Stress axis : x y z
#
# Youngs Moduli (GPa) = 89.07083 89.07076 34.31437
#
# Poissons Ratio (x) = 0.12028 0.23248
# Poissons Ratio (y) = 0.12028 0.23248
# Poissons Ratio (z) = 0.60346 0.60345
#
# Static dielectric constant tensor:
#      x y z
#    x 2.126110 -0.000280 0.000000 
#    y -0.000280 2.126090 0.000000 
#    z 0.000000 0.000000 1.809060 
# 
# From -- ./inp_files/4799.got.cif
#   From: 2010.05.17/outbox.cif.g08.bks.cpg/sg182_3_cif.got.tgz:4799.got - 2010.05.20 11:58:53.
