data_PCOD9584841
_publ_section_title
;
Structure prediction by ZEFSAII (Michael W. Deem and Ramdas Pophale) SiO2 
 PCOD9584841
Probable space group: P 63 2 2
;
_chemical_formula_sum "Si O2"
_cell_formula_units_Z 54
_cell_length_a 11.629303
_cell_length_b 11.629303
_cell_length_c 20.932272
_cell_angle_alpha 90.000000
_cell_angle_beta 90.000000
_cell_angle_gamma 120.000000
_cell_volume 2451.626875
_symmetry_space_group_name_H-M "P 63 2 2"
_symmetry_group_IT_number 182
_symmetry_cell_setting 'hexagonal'
loop_
_space_group_symop_operation_xyz
x,y,z
x-y,x,1/2+z
-y,x-y,z
-x,-y,1/2+z
-x+y,-x,z
y,-x+y,1/2+z
x-y,-y,-z
-x,-x+y,-z
y,x,-z
-y,-x,1/2-z
-x+y,y,1/2-z
x,x-y,1/2-z
loop_
_atom_site_type_symbol
_atom_site_label
_atom_site_fract_x
_atom_site_fract_y
_atom_site_fract_z
Si Si1 0.331753 0.416722 0.281661
Si Si2 0.264510 0.496225 0.542360
Si Si3 0.100755 0.250002 0.613227
Si Si4 0.143486 0.286971 0.750000
Si Si5 0.192937 0.317925 0.417520
O O1 0.446040 0.553961 0.250000
O O2 0.193814 0.387628 0.250000
O O3 0.362568 0.301276 0.260880
O O4 0.291466 0.397314 0.357655
O O5 0.417936 0.608659 0.541027
O O6 0.210527 0.404400 0.604062
O O7 0.238135 0.405445 0.480737
O O8 0.086615 0.204363 0.685818
O O9 0.174717 0.184244 0.576980
O O10 0.961169 0.232073 0.592784
#
# Coordination Sequence:
#
# PCOD9584841 Si02
#       5
#    12  12  12   6  12
#     4  11  24  43  70 106 143 188 241 297 359 435
#     4  10  26  45  65  97 133 186 232 290 357 430
#     4  11  23  43  68 102 135 182 231 292 363 431
#     4  10  24  44  66 106 142 186 230 298 366 428
#     4  11  24  42  73 100 140 178 235 299 357 426
#
# _framework density 22.02619
#
# number of rings (size 3 to 8) (size 9 to 14) (size 15 to 20)
#    0.444    0.889    2.222    2.000    3.111    7.111 
#    1.333    2.222    0.000    0.000    0.000    0.000 
#    0.000    0.000    0.000    0.000    0.000    0.000 
#
# Total GULP energy -300838.484030 kJ/mol
# GULP energy per Si atom -5571.083038 kJ/mol
# Density = 2.197606 g / cm^3
# Si number density = 22.026190 Si / 1000 Ang^3
#
#
#
# Elastic Constant Matrix: (Units=GPa)
#
#
# Indices 1 2 3 4 5 6 
#
# 1 98.8627 17.9768 45.0046 0.0000 0.0000 0.0000
# 2 17.9768 98.8627 45.0046 0.0000 0.0000 0.0000
# 3 45.0046 45.0046 98.9831 0.0000 0.0000 0.0000
# 4 0.0000 0.0000 0.0000 18.9718 0.0000 0.0000
# 5 0.0000 0.0000 0.0000 0.0000 18.9718 0.0000
# 6 0.0000 0.0000 0.0000 0.0000 0.0000 40.4429
#
#
#
# Elastic Compliance Matrix: (Units=1/GPa)
#
#
# Indices 1 2 3 4 5 6 
#
# 1 0.012768 0.000405 -0.005989 0.000000 0.000000 0.000000
# 2 0.000405 0.012768 -0.005989 0.000000 0.000000 0.000000
# 3 -0.005989 -0.005989 0.015549 0.000000 0.000000 0.000000
# 4 0.000000 0.000000 0.000000 0.052710 0.000000 0.000000
# 5 0.000000 0.000000 0.000000 0.000000 0.052710 0.000000
# 6 0.000000 0.000000 0.000000 0.000000 0.000000 0.024726
#
#
# Mechanical properties :
#
#
# Convention : Reuss Voigt Hill
#
# Bulk Modulus (GPa) = 55.74938 56.96449 56.35694
# Shear Modulus (GPa) = 24.95550 28.25882 26.60716
#
# Velocity S-wave (km/s) = 3.36965 3.58574 3.47937
# Velocity P-wave (km/s) = 6.36434 6.56214 6.46399
#
# Compressibility (1/GPa) = 0.01793742
#
# Stress axis : x y z
#
# Youngs Moduli (GPa) = 78.32174 78.32174 64.31313
#
# Poissons Ratio (x) = -0.03170 0.38518
# Poissons Ratio (y) = -0.03170 0.38518
# Poissons Ratio (z) = 0.46908 0.46908
#
# Static dielectric constant tensor:
#      x y z
#    x 1.869720 0.000000 0.000000 
#    y 0.000000 1.869720 0.000000 
#    z 0.000000 0.000000 1.833010 
# 
# From -- ./inp_files/5214.got.cif
#   From: 2010.05.17/outbox.cif.g08.bks.cpg/sg182_3_cif.got.tgz:5214.got - 2010.05.20 11:58:53.
