data_PCOD9584997
_publ_section_title
;
Structure prediction by ZEFSAII (Michael W. Deem and Ramdas Pophale) SiO2 
 PCOD9584997
Probable space group: P 6 M M
;
_chemical_formula_sum "Si O2"
_cell_formula_units_Z 96
_cell_length_a 18.195873
_cell_length_b 18.195873
_cell_length_c 20.827885
_cell_angle_alpha 90.000000
_cell_angle_beta 90.000000
_cell_angle_gamma 120.000000
_cell_volume 5972.024720
_symmetry_space_group_name_H-M "P 6 M M"
_symmetry_group_IT_number 183
_symmetry_cell_setting 'hexagonal'
loop_
_space_group_symop_operation_xyz
x,y,z
x-y,x,z
-y,x-y,z
-x,-y,z
-x+y,-x,z
y,-x+y,z
-x+y,y,z
x,x-y,z
-y,-x,z
y,x,z
x-y,-y,z
-x,-x+y,z
loop_
_atom_site_type_symbol
_atom_site_label
_atom_site_fract_x
_atom_site_fract_y
_atom_site_fract_z
Si Si1 0.100618 0.361328 0.094950
Si Si2 0.365749 0.467259 0.975428
Si Si3 0.364488 0.098515 0.721377
Si Si4 0.164486 0.667827 0.832626
Si Si5 0.896998 0.364934 0.212646
Si Si6 0.532173 0.635009 0.357242
Si Si7 0.898456 0.633955 0.478055
Si Si8 0.532219 0.634618 0.600390
O O1 0.160084 0.320168 0.093967
O O2 0.124554 0.422276 0.156904
O O3 0.000000 0.296192 0.096680
O O4 0.119709 0.419808 0.032085
O O5 0.437370 0.562631 0.994526
O O6 0.415701 0.415701 0.965596
O O7 0.328253 0.471967 0.907195
O O8 0.331869 0.165935 0.722199
O O9 0.417246 0.110518 0.786416
O O10 0.432148 0.124438 0.663386
O O11 0.294033 0.000000 0.713163
O O12 0.146979 0.573490 0.819611
O O13 0.262387 0.737614 0.820846
O O14 0.868517 0.434259 0.198759
O O15 0.869018 0.331308 0.284971
O O16 0.000000 0.418445 0.213542
O O17 0.434128 0.565873 0.371638
O O18 0.580803 0.580803 0.355865
O O19 0.579398 0.702313 0.412754
O O20 0.836296 0.672592 0.482964
O O21 0.877470 0.568616 0.536887
O O22 0.000000 0.700354 0.479611
O O23 0.431820 0.568181 0.600194
O O24 0.577777 0.577777 0.601114
#
# Coordination Sequence:
#
# PCOD9584997 Si02
#       8
#    12  12  12  12  12  12  12  12
#     4  10  19  30  45  65  89 117 152 193 232 269
#     4   9  17  29  46  67  89 115 148 184 223 270
#     4  10  20  33  50  71  94 122 157 196 234 271
#     4  10  19  30  45  67  96 127 156 185 219 262
#     4   8  14  26  45  67  88 110 138 174 218 269
#     4   8  14  26  45  67  88 111 141 177 219 269
#     4  10  19  30  46  68  93 122 158 199 238 275
#     4   9  17  30  49  71  92 115 145 180 220 269
#
# _framework density 16.074949
#
# number of rings (size 3 to 8) (size 9 to 14) (size 15 to 20)
#    0.000    2.750    0.000    3.125    0.000    4.750 
#    0.000    0.000    0.000    8.375    0.000    0.000 
#    0.000    3.000    0.000   10.250    0.000    0.000 
#
# Total GULP energy -534687.643565 kJ/mol
# GULP energy per Si atom -5569.662954 kJ/mol
# Density = 1.603836 g / cm^3
# Si number density = 16.074949 Si / 1000 Ang^3
#
#
#
# Elastic Constant Matrix: (Units=GPa)
#
#
# Indices 1 2 3 4 5 6 
#
# 1 74.9898 44.2960 35.9851 0.0000 0.0000 0.0000
# 2 44.2960 74.9898 35.9851 0.0000 0.0000 0.0000
# 3 35.9851 35.9851 74.1722 0.0000 0.0000 0.0000
# 4 0.0000 0.0000 0.0000 6.1335 0.0000 0.0000
# 5 0.0000 0.0000 0.0000 0.0000 6.1335 0.0000
# 6 0.0000 0.0000 0.0000 0.0000 0.0000 15.3469
#
#
#
# Elastic Compliance Matrix: (Units=1/GPa)
#
#
# Indices 1 2 3 4 5 6 
#
# 1 0.022216 -0.010364 -0.005750 0.000000 0.000000 0.000000
# 2 -0.010364 0.022216 -0.005750 0.000000 0.000000 0.000000
# 3 -0.005750 -0.005750 0.019062 0.000000 0.000000 0.000000
# 4 0.000000 0.000000 0.000000 0.163040 0.000000 0.000000
# 5 0.000000 0.000000 0.000000 0.000000 0.163040 0.000000
# 6 0.000000 0.000000 0.000000 0.000000 0.000000 0.065160
#
#
# Mechanical properties :
#
#
# Convention : Reuss Voigt Hill
#
# Bulk Modulus (GPa) = 50.59297 50.74268 50.66782
# Shear Modulus (GPa) = 9.89997 12.71514 11.30756
#
# Velocity S-wave (km/s) = 2.48435 2.81551 2.65510
# Velocity P-wave (km/s) = 6.30641 6.49648 6.40215
#
# Compressibility (1/GPa) = 0.01976559
#
# Stress axis : x y z
#
# Youngs Moduli (GPa) = 45.01209 45.01209 52.46083
#
# Poissons Ratio (x) = 0.46649 0.30167
# Poissons Ratio (y) = 0.46649 0.30167
# Poissons Ratio (z) = 0.25884 0.25884
#
# Static dielectric constant tensor:
#      x y z
#    x 1.534210 0.000000 0.000000 
#    y 0.000000 1.534210 0.000000 
#    z 0.000000 0.000000 1.551660 
# 
# From -- ./inp_files/3137.got.cif
#   From: 2010.05.17/outbox.cif.g08.bks.cpg/sg183_2_cif.got.tgz:3137.got - 2010.05.20 12:02:58.
