data_PCOD9584206
_publ_section_title
;
Structure prediction by ZEFSAII (Michael W. Deem and Ramdas Pophale) SiO2 
 PCOD9584206
Probable space group: P 64 2 2
;
_chemical_formula_sum "Si O2"
_cell_formula_units_Z 36
_cell_length_a 13.434200
_cell_length_b 13.434200
_cell_length_c 12.317144
_cell_angle_alpha 90.000000
_cell_angle_beta 90.000000
_cell_angle_gamma 120.000000
_cell_volume 1925.148652
_symmetry_space_group_name_H-M "P 64 2 2"
_symmetry_group_IT_number 181
_symmetry_cell_setting 'hexagonal'
loop_
_space_group_symop_operation_xyz
x,y,z
x-y,x,2/3+z
-y,x-y,1/3+z
-x,-y,z
-x+y,-x,2/3+z
y,-x+y,1/3+z
x-y,-y,-z
-x,-x+y,2/3-z
y,x,1/3-z
-y,-x,1/3-z
-x+y,y,-z
x,x-y,2/3-z
loop_
_atom_site_type_symbol
_atom_site_label
_atom_site_fract_x
_atom_site_fract_y
_atom_site_fract_z
Si Si1 0.127248 0.520764 0.125640
Si Si2 0.168384 0.831617 0.666667
Si Si3 0.713026 0.713026 0.166667
Si Si4 0.206288 0.686407 0.927821
O O1 0.126943 0.419935 0.052821
O O2 0.196247 0.519337 0.232283
O O3 0.000000 0.500000 0.144776
O O4 0.194481 0.632482 0.046804
O O5 0.184473 0.922451 0.578201
O O6 0.692847 0.600901 0.233869
O O7 0.203740 0.601870 0.833334
#
# Coordination Sequence:
#
# PCOD9584206 Si02
#       4
#    12   6   6  12
#     4  11  19  29  46  76 103 146 203 232 268 343
#     4  10  18  26  48  70 111 146 193 244 272 326
#     4  10  17  26  44  72 106 148 191 244 269 324
#     4  11  17  28  46  70 104 148 199 228 281 333
#
# _framework density 18.699853999999998
#
# number of rings (size 3 to 8) (size 9 to 14) (size 15 to 20)
#    0.000    1.333   10.000    0.500    0.000    0.000 
#    0.000    0.000    0.000    4.000    0.000    0.000 
#    0.000    0.000    0.000  108.000    1.333    0.000 
#
# Total GULP energy -200731.418510 kJ/mol
# GULP energy per Si atom -5575.872736 kJ/mol
# Density = 1.865729 g / cm^3
# Si number density = 18.699854 Si / 1000 Ang^3
#
#
#
# Elastic Constant Matrix: (Units=GPa)
#
#
# Indices 1 2 3 4 5 6 
#
# 1 108.1504 58.4163 48.5078 0.0000 0.0000 0.0000
# 2 58.4163 108.1504 48.5078 0.0000 0.0000 0.0000
# 3 48.5078 48.5078 63.6109 0.0000 0.0000 0.0000
# 4 0.0000 0.0000 0.0000 26.9352 0.0000 0.0000
# 5 0.0000 0.0000 0.0000 0.0000 26.9352 0.0000
# 6 0.0000 0.0000 0.0000 0.0000 0.0000 24.8671
#
#
#
# Elastic Compliance Matrix: (Units=1/GPa)
#
#
# Indices 1 2 3 4 5 6 
#
# 1 0.015454 -0.004653 -0.008236 0.000000 0.000000 0.000000
# 2 -0.004653 0.015454 -0.008236 0.000000 0.000000 0.000000
# 3 -0.008236 -0.008236 0.028282 0.000000 0.000000 0.000000
# 4 0.000000 0.000000 0.000000 0.037126 0.000000 0.000000
# 5 0.000000 0.000000 0.000000 0.000000 0.037126 0.000000
# 6 0.000000 0.000000 0.000000 0.000000 0.000000 0.040214
#
#
# Mechanical properties :
#
#
# Convention : Reuss Voigt Hill
#
# Bulk Modulus (GPa) = 59.03774 65.64173 62.33974
# Shear Modulus (GPa) = 22.56789 24.04617 23.30703
#
# Velocity S-wave (km/s) = 3.47774 3.58984 3.53423
# Velocity P-wave (km/s) = 6.91130 7.23613 7.07558
#
# Compressibility (1/GPa) = 0.01693832
#
# Stress axis : x y z
#
# Youngs Moduli (GPa) = 64.70869 64.70869 35.35788
#
# Poissons Ratio (x) = 0.30109 0.29122
# Poissons Ratio (y) = 0.30109 0.29122
# Poissons Ratio (z) = 0.53297 0.53297
#
# Static dielectric constant tensor:
#      x y z
#    x 1.670810 0.000000 0.000000 
#    y 0.000000 1.670810 0.000000 
#    z 0.000000 0.000000 1.695120 
# 
# From -- ./inp_files/4056.got.cif
#   From: 2010.05.17/outbox.cif.g08.bks.cpg/sg181_3_cif.got.tgz:4056.got - 2010.05.20 11:51:17.
