data_PCOD9584173
_publ_section_title
;
Structure prediction by ZEFSAII (Michael W. Deem and Ramdas Pophale) SiO2 
 PCOD9584173
Probable space group: P 62 2 2
;
_chemical_formula_sum "Si O2"
_cell_formula_units_Z 72
_cell_length_a 15.288114
_cell_length_b 15.288114
_cell_length_c 17.944354
_cell_angle_alpha 90.000000
_cell_angle_beta 90.000000
_cell_angle_gamma 120.000000
_cell_volume 3632.170986
_symmetry_space_group_name_H-M "P 62 2 2"
_symmetry_group_IT_number 180
_symmetry_cell_setting 'hexagonal'
loop_
_space_group_symop_operation_xyz
x,y,z
x-y,x,1/3+z
-y,x-y,2/3+z
-x,-y,z
-x+y,-x,1/3+z
y,-x+y,2/3+z
x-y,-y,-z
-x,-x+y,1/3-z
y,x,2/3-z
-y,-x,2/3-z
-x+y,y,-z
x,x-y,1/3-z
loop_
_atom_site_type_symbol
_atom_site_label
_atom_site_fract_x
_atom_site_fract_y
_atom_site_fract_z
Si Si1 0.000000 0.500000 0.307309
Si Si2 0.373310 0.522617 0.441875
Si Si3 0.525225 0.181502 0.566984
Si Si4 0.763850 0.112100 0.998896
Si Si5 0.675896 0.337948 0.666667
Si Si6 0.077871 0.389729 0.417032
Si Si7 0.579708 0.705252 0.496034
O O1 0.065001 0.596244 0.254020
O O2 0.053592 0.456257 0.360726
O O3 0.335572 0.435467 0.378486
O O4 0.343559 0.598396 0.401752
O O5 0.320216 0.463574 0.516460
O O6 0.488671 0.596100 0.468189
O O7 0.599841 0.199681 0.500000
O O8 0.599102 0.228415 0.637216
O O9 0.463959 0.237921 0.546678
O O10 0.858534 0.203031 0.955982
O O11 0.763570 0.142301 0.084735
O O12 0.748757 0.000000 0.000000
O O13 0.971692 0.312140 0.457187
#
# Coordination Sequence:
#
# PCOD9584173 Si02
#       7
#     6  12  12  12   6  12  12
#     4  12  25  44  64  95 132 176 222 278 342 411
#     4  12  22  38  60  91 127 173 224 278 331 404
#     4  12  25  41  63  93 133 181 226 274 332 409
#     4  12  26  41  63  94 129 181 231 289 347 405
#     4  12  24  36  63  92 134 182 223 266 330 400
#     4  12  26  42  62  94 135 175 233 286 341 410
#     4  12  24  42  63  93 132 182 231 279 346 407
#
# _framework density 19.822854
#
# number of rings (size 3 to 8) (size 9 to 14) (size 15 to 20)
#    0.000    0.000    6.667    3.750    4.667    0.667 
#    0.000    0.000    0.000    0.000    0.000    2.333 
#    0.000    5.333    0.000    0.000    0.000    0.000 
#
# Total GULP energy -401912.160339 kJ/mol
# GULP energy per Si atom -5582.113338 kJ/mol
# Density = 1.977774 g / cm^3
# Si number density = 19.822854 Si / 1000 Ang^3
#
#
#
# Elastic Constant Matrix: (Units=GPa)
#
#
# Indices 1 2 3 4 5 6 
#
# 1 97.1675 59.9600 65.8594 0.0000 0.0000 0.0000
# 2 59.9600 97.1675 65.8594 0.0000 0.0000 0.0000
# 3 65.8594 65.8594 93.6959 0.0000 0.0000 0.0000
# 4 0.0000 0.0000 0.0000 26.8431 0.0000 0.0000
# 5 0.0000 0.0000 0.0000 0.0000 26.8431 0.0000
# 6 0.0000 0.0000 0.0000 0.0000 0.0000 18.6038
#
#
#
# Elastic Compliance Matrix: (Units=1/GPa)
#
#
# Indices 1 2 3 4 5 6 
#
# 1 0.021185 -0.005691 -0.010891 0.000000 0.000000 0.000000
# 2 -0.005691 0.021185 -0.010891 0.000000 0.000000 0.000000
# 3 -0.010891 -0.010891 0.025983 0.000000 0.000000 0.000000
# 4 0.000000 0.000000 0.000000 0.037254 0.000000 0.000000
# 5 0.000000 0.000000 0.000000 0.000000 0.037254 0.000000
# 6 0.000000 0.000000 0.000000 0.000000 0.000000 0.053753
#
#
# Mechanical properties :
#
#
# Convention : Reuss Voigt Hill
#
# Bulk Modulus (GPa) = 74.58258 74.59874 74.59066
# Shear Modulus (GPa) = 19.52912 20.88146 20.20529
#
# Velocity S-wave (km/s) = 3.14217 3.24914 3.19610
# Velocity P-wave (km/s) = 7.13236 7.19654 7.16452
#
# Compressibility (1/GPa) = 0.01340796
#
# Stress axis : x y z
#
# Youngs Moduli (GPa) = 47.20299 47.20299 38.48636
#
# Poissons Ratio (x) = 0.26864 0.41915
# Poissons Ratio (y) = 0.26864 0.41915
# Poissons Ratio (z) = 0.51408 0.51408
#
# Static dielectric constant tensor:
#      x y z
#    x 1.842530 0.000000 0.000000 
#    y 0.000000 1.842530 0.000000 
#    z 0.000000 0.000000 1.538560 
# 
# From -- ./inp_files/7856.got.cif
#   From: 2010.05.17/outbox.cif.g08.bks.cpg/sg180_4_cif.got.tgz:7856.got - 2010.05.20 11:43:55.
