data_PCOD9584605
_publ_section_title
;
Structure prediction by ZEFSAII (Michael W. Deem and Ramdas Pophale) SiO2 
 PCOD9584605
Probable space group: P 63 2 2
;
_chemical_formula_sum "Si O2"
_cell_formula_units_Z 54
_cell_length_a 16.450605
_cell_length_b 16.450605
_cell_length_c 11.315667
_cell_angle_alpha 90.000000
_cell_angle_beta 90.000000
_cell_angle_gamma 120.000000
_cell_volume 2652.006225
_symmetry_space_group_name_H-M "P 63 2 2"
_symmetry_group_IT_number 182
_symmetry_cell_setting 'hexagonal'
loop_
_space_group_symop_operation_xyz
x,y,z
x-y,x,1/2+z
-y,x-y,z
-x,-y,1/2+z
-x+y,-x,z
y,-x+y,1/2+z
x-y,-y,-z
-x,-x+y,-z
y,x,-z
-y,-x,1/2-z
-x+y,y,1/2-z
x,x-y,1/2-z
loop_
_atom_site_type_symbol
_atom_site_label
_atom_site_fract_x
_atom_site_fract_y
_atom_site_fract_z
Si Si1 0.903936 0.499445 0.457593
Si Si2 0.584928 0.761610 0.124517
Si Si3 0.212659 0.606330 0.750000
Si Si4 0.706816 0.904977 0.936571
Si Si5 0.034661 0.729059 0.677346
O O1 0.844572 0.509402 0.562898
O O2 0.845992 0.417433 0.368073
O O3 0.934327 0.594254 0.381936
O O4 0.000000 0.507465 0.500000
O O5 0.549541 0.774771 0.250000
O O6 0.677338 0.753583 0.155979
O O7 0.622374 0.846512 0.030001
O O8 0.282166 0.564332 0.750000
O O9 0.681147 0.937949 0.814756
O O10 0.734315 0.828346 0.890198
O O11 0.784438 0.000000 0.000000
#
# Coordination Sequence:
#
# PCOD9584605 Si02
#       5
#    12  12   6  12  12
#     4   9  20  40  61  88 124 158 202 256 304 369
#     4  10  18  32  54  84 115 149 205 265 315 361
#     4  10  24  40  68  96 130 170 206 250 324 388
#     4  10  17  26  47  75 111 147 191 249 323 367
#     4   9  19  32  51  80 112 150 203 265 306 373
#
# _framework density 20.361941999999999
#
# number of rings (size 3 to 8) (size 9 to 14) (size 15 to 20)
#    0.222    2.222    2.222    2.000    6.222    0.000 
#    0.000    5.556    0.000    3.556   11.556    0.000 
#    0.000    0.000    0.000    0.000    0.000    0.000 
#
# Total GULP energy -301215.930249 kJ/mol
# GULP energy per Si atom -5578.072782 kJ/mol
# Density = 2.031560 g / cm^3
# Si number density = 20.361942 Si / 1000 Ang^3
#
#
#
# Elastic Constant Matrix: (Units=GPa)
#
#
# Indices 1 2 3 4 5 6 
#
# 1 34.9386 30.3499 34.1298 0.0000 0.0000 0.0000
# 2 30.3499 34.9386 34.1298 0.0000 0.0000 0.0000
# 3 34.1298 34.1298 172.8526 0.0000 0.0000 0.0000
# 4 0.0000 0.0000 0.0000 30.2430 0.0000 0.0000
# 5 0.0000 0.0000 0.0000 0.0000 30.2430 0.0000
# 6 0.0000 0.0000 0.0000 0.0000 0.0000 2.2943
#
#
#
# Elastic Compliance Matrix: (Units=1/GPa)
#
#
# Indices 1 2 3 4 5 6 
#
# 1 0.118615 -0.099314 -0.003811 0.000000 0.000000 0.000000
# 2 -0.099314 0.118615 -0.003811 0.000000 0.000000 0.000000
# 3 -0.003811 -0.003811 0.007290 0.000000 0.000000 0.000000
# 4 0.000000 0.000000 0.000000 0.033065 0.000000 0.000000
# 5 0.000000 0.000000 0.000000 0.000000 0.033065 0.000000
# 6 0.000000 0.000000 0.000000 0.000000 0.000000 0.435858
#
#
# Mechanical properties :
#
#
# Convention : Reuss Voigt Hill
#
# Bulk Modulus (GPa) = 32.62819 48.88319 40.75569
# Shear Modulus (GPa) = 5.15147 22.16410 13.65778
#
# Velocity S-wave (km/s) = 1.59231 3.30283 2.59269
# Velocity P-wave (km/s) = 4.40902 6.21323 5.38719
#
# Compressibility (1/GPa) = 0.03064834
#
# Stress axis : x y z
#
# Youngs Moduli (GPa) = 8.43064 8.43064 137.16976
#
# Poissons Ratio (x) = 0.83728 0.52275
# Poissons Ratio (y) = 0.83728 0.52275
# Poissons Ratio (z) = 0.03213 0.03213
#
# Static dielectric constant tensor:
#      x y z
#    x 1.741980 0.000000 0.000000 
#    y 0.000000 1.741980 0.000000 
#    z 0.000000 0.000000 1.756810 
# 
# From -- ./inp_files/2527.got.cif
#   From: 2010.05.17/outbox.cif.g08.bks.cpg/sg182_2_cif.got.tgz:2527.got - 2010.05.20 11:58:53.
