data_PCOD9584535
_publ_section_title
;
Structure prediction by ZEFSAII (Michael W. Deem and Ramdas Pophale) SiO2 
 PCOD9584535
Probable space group: P 64 2 2
;
_chemical_formula_sum "Si O2"
_cell_formula_units_Z 42
_cell_length_a 16.289225
_cell_length_b 16.289225
_cell_length_c 8.657850
_cell_angle_alpha 90.000000
_cell_angle_beta 90.000000
_cell_angle_gamma 120.000000
_cell_volume 1989.488959
_symmetry_space_group_name_H-M "P 64 2 2"
_symmetry_group_IT_number 181
_symmetry_cell_setting 'hexagonal'
loop_
_space_group_symop_operation_xyz
x,y,z
x-y,x,2/3+z
-y,x-y,1/3+z
-x,-y,z
-x+y,-x,2/3+z
y,-x+y,1/3+z
x-y,-y,-z
-x,-x+y,2/3-z
y,x,1/3-z
-y,-x,1/3-z
-x+y,y,-z
x,x-y,2/3-z
loop_
_atom_site_type_symbol
_atom_site_label
_atom_site_fract_x
_atom_site_fract_y
_atom_site_fract_z
Si Si1 0.344969 0.828813 0.598211
Si Si2 0.361698 0.525061 0.519637
Si Si3 0.751078 0.053646 0.160412
Si Si4 0.000000 0.320989 0.833334
O O1 0.245134 0.754867 0.666667
O O2 0.387113 0.774225 0.500000
O O3 0.425637 0.870442 0.726565
O O4 0.332905 0.907611 0.509611
O O5 0.414967 0.585034 0.666667
O O6 0.266529 0.533057 0.500000
O O7 0.323893 0.413997 0.528195
O O8 0.854717 0.145284 0.166667
O O9 0.727844 0.004769 0.332539
O O10 0.744986 0.000000 0.000000
#
# Coordination Sequence:
#
# PCOD9584535 Si02
#       4
#    12  12  12   6
#     4  12  24  39  63  96 139 193 246 289 352 406
#     4  11  22  37  59  91 136 188 242 295 340 405
#     4  11  27  46  69 104 139 182 235 286 360 426
#     4  12  27  44  70  96 143 186 238 296 355 414
#
# _framework density 21.110949000000002
#
# number of rings (size 3 to 8) (size 9 to 14) (size 15 to 20)
#    0.000    0.571    2.857    5.571    8.000    2.857 
#    0.000    0.000    0.000    0.000    0.000    5.000 
#    0.000    0.000    0.000    0.000    0.000    0.000 
#
# Total GULP energy -234340.100338 kJ/mol
# GULP energy per Si atom -5579.526199 kJ/mol
# Density = 2.106290 g / cm^3
# Si number density = 21.110949 Si / 1000 Ang^3
#
#
#
# Elastic Constant Matrix: (Units=GPa)
#
#
# Indices 1 2 3 4 5 6 
#
# 1 -720.9505 820.0205 36.4010 0.0000 0.0000 -0.0001
# 2 820.0205 -720.9505 36.4010 0.0000 0.0000 0.0001
# 3 36.4010 36.4010 151.8160 0.0000 0.0000 0.0000
# 4 0.0000 0.0000 0.0000 35.1861 0.0000 0.0000
# 5 0.0000 0.0000 0.0000 0.0000 35.1861 0.0000
# 6 -0.0001 0.0001 0.0000 0.0000 0.0000 -770.4855
#
#
#
# Elastic Compliance Matrix: (Units=1/GPa)
#
#
# Indices 1 2 3 4 5 6 
#
# 1 0.005802 0.006451 -0.002938 0.000000 0.000000 0.000000
# 2 0.006451 0.005802 -0.002938 0.000000 0.000000 0.000000
# 3 -0.002938 -0.002938 0.007996 0.000000 0.000000 0.000000
# 4 0.000000 0.000000 0.000000 0.028420 0.000000 0.000000
# 5 0.000000 0.000000 0.000000 0.000000 0.028420 0.000000
# 6 0.000000 0.000000 0.000000 0.000000 0.000000 -0.001298
#
#
# Mechanical properties :
#
#
# Convention : Reuss Voigt Hill
#
# Bulk Modulus (GPa) = 48.19307 55.06221 51.62764
# Shear Modulus (GPa) = 61.79807 -285.54983 -111.87588
#
# Velocity S-wave (km/s) = 5.41632 -11.64281 -7.28761
# Velocity P-wave (km/s) = 7.87359 12.43387 6.80470
#
# Compressibility (1/GPa) = 0.02074987
#
# Stress axis : x y z
#
# Youngs Moduli (GPa) = 172.35691 172.35691 125.06657
#
# Poissons Ratio (x) = -1.11185 0.36743
# Poissons Ratio (y) = -1.11185 0.36743
# Poissons Ratio (z) = 0.50636 0.50636
#
# Static dielectric constant tensor:
#      x y z
#    x 1.821670 0.000000 0.000000 
#    y 0.000000 1.821670 0.000000 
#    z 0.000000 0.000000 1.873070 
# 
# From -- ./inp_files/2524.got.cif
#   From: 2010.05.17/outbox.cif.g08.bks.cpg/sg181_2_cif.got.tgz:2524.got - 2010.05.20 11:51:17.
