data_PCOD9584767
_publ_section_title
;
Structure prediction by ZEFSAII (Michael W. Deem and Ramdas Pophale) SiO2 
 PCOD9584767
Probable space group: P 63 2 2
;
_chemical_formula_sum "Si O2"
_cell_formula_units_Z 46
_cell_length_a 14.887200
_cell_length_b 14.887200
_cell_length_c 13.064049
_cell_angle_alpha 90.000000
_cell_angle_beta 90.000000
_cell_angle_gamma 120.000000
_cell_volume 2507.462681
_symmetry_space_group_name_H-M "P 63 2 2"
_symmetry_group_IT_number 182
_symmetry_cell_setting 'hexagonal'
loop_
_space_group_symop_operation_xyz
x,y,z
x-y,x,1/2+z
-y,x-y,z
-x,-y,1/2+z
-x+y,-x,z
y,-x+y,1/2+z
x-y,-y,-z
-x,-x+y,-z
y,x,-z
-y,-x,1/2-z
-x+y,y,1/2-z
x,x-y,1/2-z
loop_
_atom_site_type_symbol
_atom_site_label
_atom_site_fract_x
_atom_site_fract_y
_atom_site_fract_z
Si Si1 0.881475 0.761511 0.971285
Si Si2 0.847866 0.543667 0.456816
Si Si3 0.333334 0.666668 0.872671
Si Si4 0.945963 0.391076 0.828919
Si Si5 0.160599 0.839402 0.250000
O O1 0.877307 0.746761 0.850462
O O2 0.834432 0.834432 0.000000
O O3 0.804143 0.648279 0.019741
O O4 0.000000 0.810114 0.000000
O O5 0.743009 0.448794 0.414410
O O6 0.879021 0.512836 0.565693
O O7 0.940221 0.574050 0.374772
O O8 0.333334 0.666667 0.750000
O O9 0.949488 0.474744 0.750000
O O10 0.894216 0.283774 0.766329
#
# Coordination Sequence:
#
# PCOD9584767 Si02
#       5
#    12  12   4  12   6
#     4  11  23  44  66  95 131 169 218 275 324 387
#     4  10  23  45  62  97 139 160 227 273 311 406
#     4  12  27  42  64  98 130 174 213 264 334 392
#     4  10  21  41  67  91 131 176 213 271 327 384
#     4  10  22  42  62  98 128 170 220 266 330 382
#
# _framework density 18.345237999999998
#
# number of rings (size 3 to 8) (size 9 to 14) (size 15 to 20)
#    0.000    1.565    5.217    1.043    7.304    5.217 
#    0.783    0.000    0.000    0.000    0.000    0.000 
#    0.000    0.000    0.000    0.000    0.000    0.000 
#
# Total GULP energy -256714.657435 kJ/mol
# GULP energy per Si atom -5580.753423 kJ/mol
# Density = 1.830348 g / cm^3
# Si number density = 18.345238 Si / 1000 Ang^3
#
#
#
# Elastic Constant Matrix: (Units=GPa)
#
#
# Indices 1 2 3 4 5 6 
#
# 1 107.5842 93.7493 94.9027 0.0001 0.0001 0.0003
# 2 93.7493 107.5834 94.9029 0.0000 0.0002 -0.0003
# 3 94.9027 94.9029 154.3685 0.0000 0.0001 0.0000
# 4 0.0001 0.0000 0.0000 33.3213 -0.0001 0.0000
# 5 0.0001 0.0002 0.0001 -0.0001 33.3216 0.0000
# 6 0.0003 -0.0003 0.0000 0.0000 0.0000 6.9169
#
#
#
# Elastic Compliance Matrix: (Units=1/GPa)
#
#
# Indices 1 2 3 4 5 6 
#
# 1 0.042048 -0.030234 -0.007263 0.000000 0.000000 -0.000003
# 2 -0.030234 0.042049 -0.007263 0.000000 0.000000 0.000003
# 3 -0.007263 -0.007263 0.015408 0.000000 0.000000 0.000000
# 4 0.000000 0.000000 0.000000 0.030011 0.000000 0.000000
# 5 0.000000 0.000000 0.000000 0.000000 0.030011 0.000000
# 6 -0.000003 0.000003 0.000000 0.000000 0.000000 0.144574
#
#
# Mechanical properties :
#
#
# Convention : Reuss Voigt Hill
#
# Bulk Modulus (GPa) = 100.15724 104.07175 102.11450
# Shear Modulus (GPa) = 12.59603 20.44404 16.52003
#
# Velocity S-wave (km/s) = 2.62317 3.34189 3.00410
# Velocity P-wave (km/s) = 7.99306 8.47017 8.23507
#
# Compressibility (1/GPa) = 0.00998430
#
# Stress axis : x y z
#
# Youngs Moduli (GPa) = 23.78232 23.78176 64.89947
#
# Poissons Ratio (x) = 0.71903 0.47135
# Poissons Ratio (y) = 0.71904 0.47140
# Poissons Ratio (z) = 0.17272 0.17274
#
# Static dielectric constant tensor:
#      x y z
#    x 1.577780 0.000000 0.000000 
#    y 0.000000 1.577790 0.000000 
#    z 0.000000 0.000000 1.684080 
# 
# From -- ./inp_files/2396.got.cif
#   From: 2010.05.17/outbox.cif.g08.bks.cpg/sg182_2_cif.got.tgz:2396.got - 2010.05.20 11:58:53.
