data_PCOD9584250
_publ_section_title
;
Structure prediction by ZEFSAII (Michael W. Deem and Ramdas Pophale) SiO2 
 PCOD9584250
Probable space group: P 64 2 2
;
_chemical_formula_sum "Si O2"
_cell_formula_units_Z 36
_cell_length_a 8.002834
_cell_length_b 8.002834
_cell_length_c 28.773852
_cell_angle_alpha 90.000000
_cell_angle_beta 90.000000
_cell_angle_gamma 120.000000
_cell_volume 1595.938877
_symmetry_space_group_name_H-M "P 64 2 2"
_symmetry_group_IT_number 181
_symmetry_cell_setting 'hexagonal'
loop_
_space_group_symop_operation_xyz
x,y,z
x-y,x,2/3+z
-y,x-y,1/3+z
-x,-y,z
-x+y,-x,2/3+z
y,-x+y,1/3+z
x-y,-y,-z
-x,-x+y,2/3-z
y,x,1/3-z
-y,-x,1/3-z
-x+y,y,-z
x,x-y,2/3-z
loop_
_atom_site_type_symbol
_atom_site_label
_atom_site_fract_x
_atom_site_fract_y
_atom_site_fract_z
Si Si1 0.696941 0.931073 0.612747
Si Si2 0.071301 0.305059 0.613240
Si Si3 0.235258 0.616143 0.217042
O O1 0.813701 0.813824 0.612339
O O2 0.637898 0.926051 0.666397
O O3 0.519957 0.812668 0.578852
O O4 0.853318 0.149352 0.599547
O O5 0.191450 0.483642 0.579870
O O6 0.328361 0.671640 0.166667
O O7 0.000000 0.500000 0.212776
#
# Coordination Sequence:
#
# PCOD9584250 Si02
#       3
#    12  12  12
#     4   8  14  27  50  82 116 152 204 263 308 368
#     4   8  14  27  50  81 115 152 206 261 309 368
#     4  10  19  31  50  82 124 166 198 250 321 387
#
# _framework density 22.557255000000001
#
# number of rings (size 3 to 8) (size 9 to 14) (size 15 to 20)
#    0.000    3.333    0.000    3.000    0.000    4.000 
#    0.000   13.333    0.000    4.000   17.333    0.000 
#    0.000    0.000    0.000    0.000    0.000   14.667 
#
# Total GULP energy -201397.588495 kJ/mol
# GULP energy per Si atom -5594.377458 kJ/mol
# Density = 2.250591 g / cm^3
# Si number density = 22.557255 Si / 1000 Ang^3
#
#
#
# Elastic Constant Matrix: (Units=GPa)
#
#
# Indices 1 2 3 4 5 6 
#
# 1 133.2814 97.0484 113.0345 0.0000 0.0000 0.0000
# 2 97.0484 133.2814 113.0345 0.0000 0.0000 0.0000
# 3 113.0345 113.0345 177.7007 0.0000 0.0000 0.0000
# 4 0.0000 0.0000 0.0000 16.4071 0.0000 0.0000
# 5 0.0000 0.0000 0.0000 0.0000 16.4071 0.0000
# 6 0.0000 0.0000 0.0000 0.0000 0.0000 18.1165
#
#
#
# Elastic Compliance Matrix: (Units=1/GPa)
#
#
# Indices 1 2 3 4 5 6 
#
# 1 0.019578 -0.008021 -0.007351 0.000000 0.000000 0.000000
# 2 -0.008021 0.019578 -0.007351 0.000000 0.000000 0.000000
# 3 -0.007351 -0.007351 0.014980 0.000000 0.000000 0.000000
# 4 0.000000 0.000000 0.000000 0.060949 0.000000 0.000000
# 5 0.000000 0.000000 0.000000 0.000000 0.060949 0.000000
# 6 0.000000 0.000000 0.000000 0.000000 0.000000 0.055198
#
#
# Mechanical properties :
#
#
# Convention : Reuss Voigt Hill
#
# Bulk Modulus (GPa) = 115.09695 121.16649 118.13172
# Shear Modulus (GPa) = 17.88421 18.26253 18.07337
#
# Velocity S-wave (km/s) = 2.81879 2.84845 2.83366
# Velocity P-wave (km/s) = 7.85680 8.04052 7.94919
#
# Compressibility (1/GPa) = 0.00868833
#
# Stress axis : x y z
#
# Youngs Moduli (GPa) = 51.07772 51.07772 66.75712
#
# Poissons Ratio (x) = 0.40970 0.49075
# Poissons Ratio (y) = 0.40970 0.49075
# Poissons Ratio (z) = 0.37549 0.37549
#
# Static dielectric constant tensor:
#      x y z
#    x 1.859610 0.000000 0.000000 
#    y 0.000000 1.859610 0.000000 
#    z 0.000000 0.000000 1.741540 
# 
# From -- ./inp_files/10783.got.cif
#   From: 2010.05.17/outbox.cif.g08.bks.cpg/sg181_6_cif.got.tgz:10783.got - 2010.05.20 11:51:17.
