data_PCOD9584039
_publ_section_title
;
Structure prediction by ZEFSAII (Michael W. Deem and Ramdas Pophale) SiO2 
 PCOD9584039
Probable space group: P 62 2 2
;
_chemical_formula_sum "Si O2"
_cell_formula_units_Z 30
_cell_length_a 11.505801
_cell_length_b 11.505801
_cell_length_c 13.332035
_cell_angle_alpha 90.000000
_cell_angle_beta 90.000000
_cell_angle_gamma 120.000000
_cell_volume 1528.483636
_symmetry_space_group_name_H-M "P 62 2 2"
_symmetry_group_IT_number 180
_symmetry_cell_setting 'hexagonal'
loop_
_space_group_symop_operation_xyz
x,y,z
x-y,x,1/3+z
-y,x-y,2/3+z
-x,-y,z
-x+y,-x,1/3+z
y,-x+y,2/3+z
x-y,-y,-z
-x,-x+y,1/3-z
y,x,2/3-z
-y,-x,2/3-z
-x+y,y,-z
x,x-y,1/3-z
loop_
_atom_site_type_symbol
_atom_site_label
_atom_site_fract_x
_atom_site_fract_y
_atom_site_fract_z
Si Si1 0.357899 0.487411 0.661987
Si Si2 0.340186 0.659815 0.833334
Si Si3 0.128258 0.190610 0.614511
O O1 0.500000 0.500000 0.683928
O O2 0.311950 0.537505 0.759416
O O3 0.371013 0.586264 0.571244
O O4 0.255215 0.335619 0.630611
O O5 0.080771 0.161541 0.500000
O O6 0.000000 0.184069 0.666667
O O7 0.148942 0.074471 0.666667
#
# Coordination Sequence:
#
# PCOD9584039 Si02
#       3
#    12   6  12
#     4  11  25  43  71  98 141 179 229 289 349 412
#     4  10  25  44  64 107 130 182 234 270 352 423
#     4  11  25  44  69 102 137 181 230 285 345 412
#
# _framework density 19.627296000000001
#
# number of rings (size 3 to 8) (size 9 to 14) (size 15 to 20)
#    0.000    1.200    2.000    3.000   11.200    3.200 
#    0.000    4.000    0.000    0.000    0.000    0.000 
#    0.000    0.000    0.000    0.000    0.000    0.000 
#
# Total GULP energy -167576.504679 kJ/mol
# GULP energy per Si atom -5585.883489 kJ/mol
# Density = 1.958262 g / cm^3
# Si number density = 19.627296 Si / 1000 Ang^3
#
#
#
# Elastic Constant Matrix: (Units=GPa)
#
#
# Indices 1 2 3 4 5 6 
#
# 1 125.0088 73.6701 54.6765 0.0000 0.0000 0.0000
# 2 73.6701 125.0088 54.6765 0.0000 0.0000 0.0000
# 3 54.6765 54.6765 162.8789 0.0000 0.0000 0.0000
# 4 0.0000 0.0000 0.0000 14.3021 0.0000 0.0000
# 5 0.0000 0.0000 0.0000 0.0000 14.3021 0.0000
# 6 0.0000 0.0000 0.0000 0.0000 0.0000 25.6694
#
#
#
# Elastic Compliance Matrix: (Units=1/GPa)
#
#
# Indices 1 2 3 4 5 6 
#
# 1 0.012826 -0.006652 -0.002073 0.000000 0.000000 0.000000
# 2 -0.006652 0.012826 -0.002073 0.000000 0.000000 0.000000
# 3 -0.002073 -0.002073 0.007531 0.000000 0.000000 0.000000
# 4 0.000000 0.000000 0.000000 0.069920 0.000000 0.000000
# 5 0.000000 0.000000 0.000000 0.000000 0.069920 0.000000
# 6 0.000000 0.000000 0.000000 0.000000 0.000000 0.038957
#
#
# Mechanical properties :
#
#
# Convention : Reuss Voigt Hill
#
# Bulk Modulus (GPa) = 86.29022 86.54922 86.41972
# Shear Modulus (GPa) = 21.05817 26.17961 23.61889
#
# Velocity S-wave (km/s) = 3.27907 3.65614 3.47272
# Velocity P-wave (km/s) = 7.64174 7.87497 7.75923
#
# Compressibility (1/GPa) = 0.01158880
#
# Stress axis : x y z
#
# Youngs Moduli (GPa) = 77.96531 77.96531 132.78494
#
# Poissons Ratio (x) = 0.51864 0.27520
# Poissons Ratio (y) = 0.51864 0.27520
# Poissons Ratio (z) = 0.16159 0.16159
#
# Static dielectric constant tensor:
#      x y z
#    x 1.666320 0.000000 0.000000 
#    y 0.000000 1.666320 0.000000 
#    z 0.000000 0.000000 1.688560 
# 
# From -- ./inp_files/5328.got.cif
#   From: 2010.05.17/outbox.cif.g08.bks.cpg/sg180_3_cif.got.tgz:5328.got - 2010.05.20 11:43:55.
