data_PCOD9584907
_publ_section_title
;
Structure prediction by ZEFSAII (Michael W. Deem and Ramdas Pophale) SiO2 
 PCOD9584907
Probable space group: P 63 2 2
;
_chemical_formula_sum "Si O2"
_cell_formula_units_Z 84
_cell_length_a 18.000000
_cell_length_b 18.000000
_cell_length_c 15.000000
_cell_angle_alpha 90.000000
_cell_angle_beta 90.000000
_cell_angle_gamma 120.000000
_cell_volume 4208.883462
_symmetry_space_group_name_H-M "P 63 2 2"
_symmetry_group_IT_number 182
_symmetry_cell_setting 'hexagonal'
loop_
_space_group_symop_operation_xyz
x,y,z
x-y,x,1/2+z
-y,x-y,z
-x,-y,1/2+z
-x+y,-x,z
y,-x+y,1/2+z
x-y,-y,-z
-x,-x+y,-z
y,x,-z
-y,-x,1/2-z
-x+y,y,1/2-z
x,x-y,1/2-z
loop_
_atom_site_type_symbol
_atom_site_label
_atom_site_fract_x
_atom_site_fract_y
_atom_site_fract_z
Si Si1 0.569225 0.591234 0.714306
Si Si2 0.439757 0.715210 0.009797
Si Si3 0.142646 0.770858 0.458163
Si Si4 0.172134 0.169479 0.238532
Si Si5 0.732965 0.039260 0.903371
Si Si6 0.960159 0.285649 0.132946
Si Si7 0.677950 0.466490 0.314324
O O1 0.505258 0.494743 0.750000
O O2 0.655961 0.620614 0.657304
O O3 0.599921 0.651715 0.801245
O O4 0.513558 0.624975 0.660793
O O5 0.384001 0.759606 0.034742
O O6 0.447883 0.732737 0.903450
O O7 0.530045 0.745099 0.051317
O O8 0.187779 0.866030 0.419942
O O9 0.114976 0.760997 0.561431
O O10 0.053237 0.707991 0.411373
O O11 0.093320 0.186639 0.250000
O O12 0.225056 0.215717 0.148811
O O13 0.243792 0.215574 0.313856
O O14 0.139259 0.069630 0.250000
O O15 0.697031 0.000000 0.000000
O O16 0.612759 0.387242 0.250000
O O17 0.759558 0.519116 0.250000
#
# Coordination Sequence:
#
# PCOD9584907 Si02
#       7
#    12  12  12  12  12  12  12
#     4  10  24  38  60  91 129 169 217 264 326 386
#     4  10  21  34  54  89 122 163 212 257 316 376
#     4  11  22  40  66  87 131 171 217 270 327 388
#     4  11  22  42  69  96 131 166 215 268 341 407
#     4  11  23  42  64  97 129 170 218 278 328 394
#     4  10  23  42  63  92 122 175 215 266 329 411
#     4  11  17  31  53  81 121 160 195 255 313 373
#
# _framework density 19.957787
#
# number of rings (size 3 to 8) (size 9 to 14) (size 15 to 20)
#    0.286    1.143    2.857    2.857    2.000    4.571 
#    2.571    0.000    0.000    0.000    0.000    0.000 
#    0.000    0.000    0.000    0.000    0.000    0.000 
#
# Total GULP energy -468017.438949 kJ/mol
# GULP energy per Si atom -5571.636178 kJ/mol
# Density = 1.991236 g / cm^3
# Si number density = 19.957787 Si / 1000 Ang^3
#
#
#
# Elastic Constant Matrix: (Units=GPa)
#
#
# Indices 1 2 3 4 5 6 
#
# 1 78.3069 22.8989 23.0003 0.0000 0.0000 0.0000
# 2 22.8989 78.3069 23.0003 0.0000 0.0000 0.0000
# 3 23.0003 23.0003 61.5996 0.0000 0.0000 0.0000
# 4 0.0000 0.0000 0.0000 6.5767 0.0000 0.0000
# 5 0.0000 0.0000 0.0000 0.0000 6.5767 0.0000
# 6 0.0000 0.0000 0.0000 0.0000 0.0000 27.7040
#
#
#
# Elastic Compliance Matrix: (Units=1/GPa)
#
#
# Indices 1 2 3 4 5 6 
#
# 1 0.014974 -0.003074 -0.004443 0.000000 0.000000 0.000000
# 2 -0.003074 0.014974 -0.004443 0.000000 0.000000 0.000000
# 3 -0.004443 -0.004443 0.019552 0.000000 0.000000 0.000000
# 4 0.000000 0.000000 0.000000 0.152052 0.000000 0.000000
# 5 0.000000 0.000000 0.000000 0.000000 0.152052 0.000000
# 6 0.000000 0.000000 0.000000 0.000000 0.000000 0.036096
#
#
# Mechanical properties :
#
#
# Convention : Reuss Voigt Hill
#
# Bulk Modulus (GPa) = 39.09412 39.55694 39.32553
# Shear Modulus (GPa) = 11.84419 18.12574 14.98497
#
# Velocity S-wave (km/s) = 2.43875 3.01691 2.74311
# Velocity P-wave (km/s) = 5.24985 5.65677 5.45710
#
# Compressibility (1/GPa) = 0.02557930
#
# Stress axis : x y z
#
# Youngs Moduli (GPa) = 66.78140 66.78140 51.14543
#
# Poissons Ratio (x) = 0.20527 0.22726
# Poissons Ratio (y) = 0.20527 0.22726
# Poissons Ratio (z) = 0.29674 0.29674
#
# Static dielectric constant tensor:
#      x y z
#    x 1.725630 0.000000 0.000000 
#    y 0.000000 1.725630 0.000000 
#    z 0.000000 0.000000 1.781170 
# 
# From -- ./inp_files/3719.got.cif
#   From: 2010.05.17/outbox.ucp.g08.bks.cvg/sg182_2_cif.got.tgz:3719.got - 2010.06.11 15:20:57.
