data_PCOD9584688
_publ_section_title
;
Structure prediction by ZEFSAII (Michael W. Deem and Ramdas Pophale) SiO2 
 PCOD9584688
Probable space group: P 63 2 2
;
_chemical_formula_sum "Si O2"
_cell_formula_units_Z 42
_cell_length_a 9.885269
_cell_length_b 9.885269
_cell_length_c 23.965523
_cell_angle_alpha 90.000000
_cell_angle_beta 90.000000
_cell_angle_gamma 120.000000
_cell_volume 2028.124104
_symmetry_space_group_name_H-M "P 63 2 2"
_symmetry_group_IT_number 182
_symmetry_cell_setting 'hexagonal'
loop_
_space_group_symop_operation_xyz
x,y,z
x-y,x,1/2+z
-y,x-y,z
-x,-y,1/2+z
-x+y,-x,z
y,-x+y,1/2+z
x-y,-y,-z
-x,-x+y,-z
y,x,-z
-y,-x,1/2-z
-x+y,y,1/2-z
x,x-y,1/2-z
loop_
_atom_site_type_symbol
_atom_site_label
_atom_site_fract_x
_atom_site_fract_y
_atom_site_fract_z
Si Si1 0.513629 0.486372 0.750000
Si Si2 0.711937 0.794569 0.808311
Si Si3 0.655872 0.155384 0.968547
Si Si4 0.359567 0.090743 0.652517
O O1 0.561322 0.638005 0.787385
O O2 0.652696 0.532397 0.706519
O O3 0.780620 0.890310 0.750000
O O4 0.818122 0.735672 0.838141
O O5 0.680104 0.908223 0.845962
O O6 0.807458 0.323818 0.981723
O O7 0.672617 0.132435 0.903064
O O8 0.623641 0.000000 0.000000
#
# Coordination Sequence:
#
# PCOD9584688 Si02
#       4
#     6  12  12  12
#     4  10  20  34  56  98 140 182 222 270 344 428
#     4  10  21  37  60  96 138 179 226 277 348 418
#     4  10  25  47  74 102 136 180 245 306 380 431
#     4  11  22  42  66  97 136 186 235 294 354 443
#
# _framework density 20.708791999999999
#
# number of rings (size 3 to 8) (size 9 to 14) (size 15 to 20)
#    0.571    1.143    0.000    5.714    0.000    6.857 
#   30.000    0.000    0.000    0.571    0.000    0.000 
#    0.000    0.000    0.000    0.000    0.000    0.000 
#
# Total GULP energy -234191.650966 kJ/mol
# GULP energy per Si atom -5575.991690 kJ/mol
# Density = 2.066166 g / cm^3
# Si number density = 20.708792 Si / 1000 Ang^3
#
#
#
# Elastic Constant Matrix: (Units=GPa)
#
#
# Indices 1 2 3 4 5 6 
#
# 1 75.6174 22.6784 27.9946 0.0000 0.0000 0.0000
# 2 22.6784 75.6174 27.9946 0.0000 0.0000 0.0000
# 3 27.9946 27.9946 53.4751 0.0000 0.0000 0.0000
# 4 0.0000 0.0000 0.0000 34.6079 0.0000 0.0000
# 5 0.0000 0.0000 0.0000 0.0000 34.6079 0.0000
# 6 0.0000 0.0000 0.0000 0.0000 0.0000 26.4695
#
#
#
# Elastic Compliance Matrix: (Units=1/GPa)
#
#
# Indices 1 2 3 4 5 6 
#
# 1 0.016693 -0.002197 -0.007589 0.000000 0.000000 0.000000
# 2 -0.002197 0.016693 -0.007589 0.000000 0.000000 0.000000
# 3 -0.007589 -0.007589 0.026646 0.000000 0.000000 0.000000
# 4 0.000000 0.000000 0.000000 0.028895 0.000000 0.000000
# 5 0.000000 0.000000 0.000000 0.000000 0.028895 0.000000
# 6 0.000000 0.000000 0.000000 0.000000 0.000000 0.037779
#
#
# Mechanical properties :
#
#
# Convention : Reuss Voigt Hill
#
# Bulk Modulus (GPa) = 39.55267 40.22723 39.88995
# Shear Modulus (GPa) = 25.15380 27.53987 26.34684
#
# Velocity S-wave (km/s) = 3.48895 3.65069 3.57074
# Velocity P-wave (km/s) = 5.94738 6.10224 6.02531
#
# Compressibility (1/GPa) = 0.02528275
#
# Stress axis : x y z
#
# Youngs Moduli (GPa) = 59.90616 59.90616 37.52941
#
# Poissons Ratio (x) = 0.13161 0.28480
# Poissons Ratio (y) = 0.13161 0.28480
# Poissons Ratio (z) = 0.45461 0.45461
#
# Static dielectric constant tensor:
#      x y z
#    x 1.775820 0.000000 0.000000 
#    y 0.000000 1.775820 0.000000 
#    z 0.000000 0.000000 1.724310 
# 
# From -- ./inp_files/4684.got.cif
#   From: 2010.05.17/outbox.cif.g08.bks.cpg/sg182_3_cif.got.tgz:4684.got - 2010.05.20 11:58:53.
