data_PCOD9584739
_publ_section_title
;
Structure prediction by ZEFSAII (Michael W. Deem and Ramdas Pophale) SiO2 
 PCOD9584739
Probable space group: P 63 2 2
;
_chemical_formula_sum "Si O2"
_cell_formula_units_Z 76
_cell_length_a 17.456013
_cell_length_b 17.456013
_cell_length_c 15.985205
_cell_angle_alpha 90.000000
_cell_angle_beta 90.000000
_cell_angle_gamma 120.000000
_cell_volume 4218.314495
_symmetry_space_group_name_H-M "P 63 2 2"
_symmetry_group_IT_number 182
_symmetry_cell_setting 'hexagonal'
loop_
_space_group_symop_operation_xyz
x,y,z
x-y,x,1/2+z
-y,x-y,z
-x,-y,1/2+z
-x+y,-x,z
y,-x+y,1/2+z
x-y,-y,-z
-x,-x+y,-z
y,x,-z
-y,-x,1/2-z
-x+y,y,1/2-z
x,x-y,1/2-z
loop_
_atom_site_type_symbol
_atom_site_label
_atom_site_fract_x
_atom_site_fract_y
_atom_site_fract_z
Si Si1 0.742940 0.656747 0.109058
Si Si2 0.896208 0.280034 0.587568
Si Si3 0.616174 0.719966 0.087567
Si Si4 0.913807 0.656748 0.109058
Si Si5 0.435575 0.871149 0.149303
Si Si6 0.666667 0.333333 0.850921
Si Si7 0.842916 0.510668 0.250000
O O1 0.704683 0.722610 0.120325
O O2 0.846638 0.693276 0.125277
O O3 0.690400 0.573780 0.169994
O O4 0.724725 0.624032 0.013011
O O5 0.802441 0.197559 0.616427
O O6 0.899307 0.275274 0.486989
O O7 0.907990 0.373938 0.615175
O O8 0.982074 0.277389 0.620325
O O9 0.534050 0.626062 0.115175
O O10 0.883380 0.573780 0.169993
O O11 0.438758 0.877515 0.250000
O O12 0.383990 0.767976 0.122633
O O13 0.666668 0.333334 0.750000
O O14 0.738284 0.476567 0.250000
O O15 0.861966 0.430983 0.250000
#
# Coordination Sequence:
#
# PCOD9584739 Si02
#       7
#    12  12  12  12  12   4  12
#     4   9  21  38  54  76 105 136 176 221 260 306
#     4  10  21  36  56  79 105 140 175 213 265 316
#     4  10  21  36  56  79 105 140 175 213 265 316
#     4   9  21  38  54  76 105 136 176 221 260 306
#     4  11  22  33  51  80 112 143 175 213 258 311
#     4   9  18  36  45  69 120 142 167 214 252 303
#     4  10  21  36  53  74 102 140 180 218 255 296
#
# _framework density 18.016673000000001
#
# number of rings (size 3 to 8) (size 9 to 14) (size 15 to 20)
#    0.000    2.211    1.579    0.158    6.632    1.263 
#    0.000    0.000    0.000    0.632    0.000    4.421 
#    0.000    0.000    0.000    0.000    0.000    0.000 
#
# Total GULP energy -423819.324925 kJ/mol
# GULP energy per Si atom -5576.570065 kJ/mol
# Density = 1.797567 g / cm^3
# Si number density = 18.016673 Si / 1000 Ang^3
#
#
#
# Elastic Constant Matrix: (Units=GPa)
#
#
# Indices 1 2 3 4 5 6 
#
# 1 96.5616 54.5239 21.3241 0.0000 0.0000 0.0001
# 2 54.5239 96.5617 21.3241 0.0000 0.0000 0.0000
# 3 21.3241 21.3241 27.9299 0.0000 0.0000 0.0000
# 4 0.0000 0.0000 0.0000 13.0620 0.0000 0.0000
# 5 0.0000 0.0000 0.0000 0.0000 13.0620 0.0000
# 6 0.0001 0.0000 0.0000 0.0000 0.0000 21.0189
#
#
#
# Elastic Compliance Matrix: (Units=1/GPa)
#
#
# Indices 1 2 3 4 5 6 
#
# 1 0.016113 -0.007676 -0.006442 0.000000 0.000000 0.000000
# 2 -0.007676 0.016113 -0.006442 0.000000 0.000000 0.000000
# 3 -0.006442 -0.006442 0.045640 0.000000 0.000000 0.000000
# 4 0.000000 0.000000 0.000000 0.076558 0.000000 0.000000
# 5 0.000000 0.000000 0.000000 0.000000 0.076558 0.000000
# 6 0.000000 0.000000 0.000000 0.000000 0.000000 0.047576
#
#
# Mechanical properties :
#
#
# Convention : Reuss Voigt Hill
#
# Bulk Modulus (GPa) = 27.21250 46.15526 36.68388
# Shear Modulus (GPa) = 15.06369 17.68732 16.37551
#
# Velocity S-wave (km/s) = 2.89467 3.13664 3.01808
# Velocity P-wave (km/s) = 5.12923 6.22830 5.70529
#
# Compressibility (1/GPa) = 0.03674782
#
# Stress axis : x y z
#
# Youngs Moduli (GPa) = 62.06315 62.06317 21.91060
#
# Poissons Ratio (x) = 0.47637 0.14114
# Poissons Ratio (y) = 0.47637 0.14114
# Poissons Ratio (z) = 0.39978 0.39979
#
# Static dielectric constant tensor:
#      x y z
#    x 1.628530 0.000000 0.000000 
#    y 0.000000 1.628530 0.000000 
#    z 0.000000 0.000000 1.616550 
# 
# From -- ./inp_files/3677.got.cif
#   From: 2010.05.17/outbox.cif.g08.bks.cpg/sg182_2_cif.got.tgz:3677.got - 2010.05.20 11:58:53.
