data_PCOD9584684
_publ_section_title
;
Structure prediction by ZEFSAII (Michael W. Deem and Ramdas Pophale) SiO2 
 PCOD9584684
Probable space group: P 63 2 2
;
_chemical_formula_sum "Si O2"
_cell_formula_units_Z 72
_cell_length_a 23.661183
_cell_length_b 23.661183
_cell_length_c 8.723008
_cell_angle_alpha 90.000000
_cell_angle_beta 90.000000
_cell_angle_gamma 120.000000
_cell_volume 4229.312845
_symmetry_space_group_name_H-M "P 63 2 2"
_symmetry_group_IT_number 182
_symmetry_cell_setting 'hexagonal'
loop_
_space_group_symop_operation_xyz
x,y,z
x-y,x,1/2+z
-y,x-y,z
-x,-y,1/2+z
-x+y,-x,z
y,-x+y,1/2+z
x-y,-y,-z
-x,-x+y,-z
y,x,-z
-y,-x,1/2-z
-x+y,y,1/2-z
x,x-y,1/2-z
loop_
_atom_site_type_symbol
_atom_site_label
_atom_site_fract_x
_atom_site_fract_y
_atom_site_fract_z
Si Si1 0.130185 0.744156 0.184910
Si Si2 0.130185 0.386030 0.684908
Si Si3 0.598444 0.522215 0.684744
Si Si4 1.000000 0.748825 0.185232
Si Si5 0.477787 0.401555 0.184743
Si Si6 0.874175 0.874175 0.182909
O O1 0.194756 0.805245 0.250000
O O2 0.117910 0.673376 0.235253
O O3 0.065281 0.747081 0.226869
O O4 0.133853 0.746286 0.000001
O O5 0.194755 0.389510 0.750000
O O6 0.117913 0.444537 0.735250
O O7 0.065280 0.318202 0.726867
O O8 0.548757 0.451244 0.750000
O O9 0.569036 0.569038 0.729019
O O10 0.597148 0.519220 0.500001
O O11 0.999998 0.809345 0.264360
O O12 0.000000 0.755794 0.000000
O O13 0.548758 0.451243 0.250000
O O14 0.872758 0.936379 0.250000
O O15 0.936382 0.872763 0.250000
O O16 0.878203 0.878203 0.000000
#
# Coordination Sequence:
#
# PCOD9584684 Si02
#       6
#    12  12  12  12  12  12
#     4  10  20  34  53  78 111 146 178 217 266 314
#     4  10  20  34  53  78 111 146 178 217 266 314
#     4   9  17  32  53  77 105 137 170 212 263 310
#     4  10  20  37  56  77 109 144 176 218 269 320
#     4   9  17  32  53  77 105 137 170 212 263 310
#     4  12  25  41  58  77 100 132 176 226 275 324
#
# _framework density 17.024041
#
# number of rings (size 3 to 8) (size 9 to 14) (size 15 to 20)
#    0.000    2.000    1.667    2.667    0.000    5.333 
#    0.000    0.000    0.000    0.667    0.000    0.000 
#    0.000    0.000    0.000    0.000    0.000    0.000 
#
# Total GULP energy -401936.272132 kJ/mol
# GULP energy per Si atom -5582.448224 kJ/mol
# Density = 1.698529 g / cm^3
# Si number density = 17.024041 Si / 1000 Ang^3
#
#
#
# Elastic Constant Matrix: (Units=GPa)
#
#
# Indices 1 2 3 4 5 6 
#
# 1 159.8636 116.0528 46.4371 0.0000 0.0000 0.0000
# 2 116.0528 159.8636 46.4371 0.0000 0.0000 0.0000
# 3 46.4371 46.4371 35.4093 0.0000 0.0000 0.0000
# 4 0.0000 0.0000 0.0000 20.6526 0.0000 0.0000
# 5 0.0000 0.0000 0.0000 0.0000 20.6526 0.0000
# 6 0.0000 0.0000 0.0000 0.0000 0.0000 21.9054
#
#
#
# Elastic Compliance Matrix: (Units=1/GPa)
#
#
# Indices 1 2 3 4 5 6 
#
# 1 0.014657 -0.008168 -0.008509 0.000000 0.000000 0.000000
# 2 -0.008168 0.014657 -0.008509 0.000000 0.000000 0.000000
# 3 -0.008509 -0.008509 0.050560 0.000000 0.000000 0.000000
# 4 0.000000 0.000000 0.000000 0.048420 0.000000 0.000000
# 5 0.000000 0.000000 0.000000 0.000000 0.048420 0.000000
# 6 0.000000 0.000000 0.000000 0.000000 0.000000 0.045651
#
#
# Mechanical properties :
#
#
# Convention : Reuss Voigt Hill
#
# Bulk Modulus (GPa) = 33.89852 85.88783 59.89318
# Shear Modulus (GPa) = 17.69460 22.38944 20.04202
#
# Velocity S-wave (km/s) = 3.22745 3.63046 3.43487
# Velocity P-wave (km/s) = 5.81756 8.25434 7.14066
#
# Compressibility (1/GPa) = 0.02949981
#
# Stress axis : x y z
#
# Youngs Moduli (GPa) = 68.22694 68.22694 19.77850
#
# Poissons Ratio (x) = 0.55731 0.16830
# Poissons Ratio (y) = 0.55731 0.16830
# Poissons Ratio (z) = 0.58056 0.58056
#
# Static dielectric constant tensor:
#      x y z
#    x 1.560680 0.000000 0.000000 
#    y 0.000000 1.560680 0.000000 
#    z 0.000000 0.000000 1.577130 
# 
# From -- ./inp_files/1919.got.cif
#   From: 2010.05.17/outbox.cif.g08.bks.cpg/sg182_1_cif.got.tgz:1919.got - 2010.05.20 11:58:53.
