data_PCOD9584421
_publ_section_title
;
Structure prediction by ZEFSAII (Michael W. Deem and Ramdas Pophale) SiO2 
 PCOD9584421
Probable space group: P 64 2 2
;
_chemical_formula_sum "Si O2"
_cell_formula_units_Z 66
_cell_length_a 20.555026
_cell_length_b 20.555026
_cell_length_c 8.809066
_cell_angle_alpha 90.000000
_cell_angle_beta 90.000000
_cell_angle_gamma 120.000000
_cell_volume 3223.269038
_symmetry_space_group_name_H-M "P 64 2 2"
_symmetry_group_IT_number 181
_symmetry_cell_setting 'hexagonal'
loop_
_space_group_symop_operation_xyz
x,y,z
x-y,x,2/3+z
-y,x-y,1/3+z
-x,-y,z
-x+y,-x,2/3+z
y,-x+y,1/3+z
x-y,-y,-z
-x,-x+y,2/3-z
y,x,1/3-z
-y,-x,1/3-z
-x+y,y,-z
x,x-y,2/3-z
loop_
_atom_site_type_symbol
_atom_site_label
_atom_site_fract_x
_atom_site_fract_y
_atom_site_fract_z
Si Si1 0.726863 0.784802 0.019658
Si Si2 0.089324 0.678436 0.486842
Si Si3 0.563176 0.141739 0.332707
Si Si4 0.417676 0.327323 0.856101
Si Si5 0.363896 0.681948 0.333334
Si Si6 0.823244 0.737500 0.863365
O O1 0.747628 0.747628 0.166667
O O2 0.744222 0.868357 0.057078
O O3 0.639395 0.736551 0.971673
O O4 0.776298 0.780188 0.881417
O O5 0.115267 0.627578 0.572863
O O6 0.119710 0.697057 0.314826
O O7 0.108011 0.758583 0.554284
O O8 0.999378 0.625438 0.496699
O O9 0.553359 0.106718 0.500000
O O10 0.621971 0.123539 0.250469
O O11 0.591407 0.229223 0.352066
O O12 0.326175 0.652350 0.500000
O O13 0.881836 0.763672 0.000000
#
# Coordination Sequence:
#
# PCOD9584421 Si02
#       6
#    12  12  12  12   6  12
#     4   9  19  36  59  91 124 169 212 261 325 402
#     4  10  22  38  58  88 120 153 206 266 318 395
#     4  11  25  39  60  82 112 157 214 269 325 388
#     4  10  22  38  58  87 119 158 204 263 325 384
#     4  10  26  46  58  80 113 152 214 266 310 381
#     4   9  19  34  59  86 127 162 207 255 317 392
#
# _framework density 20.476106999999999
#
# number of rings (size 3 to 8) (size 9 to 14) (size 15 to 20)
#    0.000    2.182    0.000    1.091   11.455    4.364 
#    0.000    0.000    0.000    0.000    0.000    0.000 
#    0.000    0.000    0.000 1466.182    0.000    0.000 
#
# Total GULP energy -367457.593215 kJ/mol
# GULP energy per Si atom -5567.539291 kJ/mol
# Density = 2.042950 g / cm^3
# Si number density = 20.476107 Si / 1000 Ang^3
#
#
#
# Elastic Constant Matrix: (Units=GPa)
#
#
# Indices 1 2 3 4 5 6 
#
# 1 84.7409 48.0983 26.3049 0.0000 0.0000 0.0000
# 2 48.0983 84.7409 26.3049 0.0000 0.0000 0.0000
# 3 26.3049 26.3049 84.1137 0.0000 0.0000 0.0000
# 4 0.0000 0.0000 0.0000 24.6485 0.0000 0.0000
# 5 0.0000 0.0000 0.0000 0.0000 24.6485 0.0000
# 6 0.0000 0.0000 0.0000 0.0000 0.0000 18.3213
#
#
#
# Elastic Compliance Matrix: (Units=1/GPa)
#
#
# Indices 1 2 3 4 5 6 
#
# 1 0.017941 -0.009349 -0.002687 0.000000 0.000000 0.000000
# 2 -0.009349 0.017941 -0.002687 0.000000 0.000000 0.000000
# 3 -0.002687 -0.002687 0.013569 0.000000 0.000000 0.000000
# 4 0.000000 0.000000 0.000000 0.040570 0.000000 0.000000
# 5 0.000000 0.000000 0.000000 0.000000 0.040570 0.000000
# 6 0.000000 0.000000 0.000000 0.000000 0.000000 0.054581
#
#
# Mechanical properties :
#
#
# Convention : Reuss Voigt Hill
#
# Bulk Modulus (GPa) = 49.98649 50.55687 50.27168
# Shear Modulus (GPa) = 22.59486 23.71614 23.15550
#
# Velocity S-wave (km/s) = 3.32546 3.40698 3.36647
# Velocity P-wave (km/s) = 6.26179 6.34200 6.30202
#
# Compressibility (1/GPa) = 0.02000541
#
# Stress axis : x y z
#
# Youngs Moduli (GPa) = 55.73715 55.73715 73.69591
#
# Poissons Ratio (x) = 0.52110 0.19802
# Poissons Ratio (y) = 0.52110 0.19802
# Poissons Ratio (z) = 0.14977 0.14977
#
# Static dielectric constant tensor:
#      x y z
#    x 1.702160 0.000000 0.000000 
#    y 0.000000 1.702160 0.000000 
#    z 0.000000 0.000000 2.031980 
# 
# From -- ./inp_files/3160.got.cif
#   From: 2010.05.17/outbox.cif.g08.bks.cpg/sg181_2_cif.got.tgz:3160.got - 2010.05.20 11:51:17.
