data_PCOD9584178
_publ_section_title
;
Structure prediction by ZEFSAII (Michael W. Deem and Ramdas Pophale) SiO2 
 PCOD9584178
Probable space group: P 62 2 2
;
_chemical_formula_sum "Si O2"
_cell_formula_units_Z 42
_cell_length_a 21.202751
_cell_length_b 21.202751
_cell_length_c 5.109356
_cell_angle_alpha 90.000000
_cell_angle_beta 90.000000
_cell_angle_gamma 120.000000
_cell_volume 1989.212692
_symmetry_space_group_name_H-M "P 62 2 2"
_symmetry_group_IT_number 180
_symmetry_cell_setting 'hexagonal'
loop_
_space_group_symop_operation_xyz
x,y,z
x-y,x,1/3+z
-y,x-y,2/3+z
-x,-y,z
-x+y,-x,1/3+z
y,-x+y,2/3+z
x-y,-y,-z
-x,-x+y,1/3-z
y,x,2/3-z
-y,-x,2/3-z
-x+y,y,-z
x,x-y,1/3-z
loop_
_atom_site_type_symbol
_atom_site_label
_atom_site_fract_x
_atom_site_fract_y
_atom_site_fract_z
Si Si1 0.791887 0.208114 0.833334
Si Si2 0.843464 0.686928 0.000000
Si Si3 0.266535 0.000000 0.500000
Si Si4 0.708965 0.291036 0.333334
Si Si5 0.142701 0.497408 0.687035
Si Si6 0.648676 0.000000 0.000000
O O1 0.829941 0.195482 0.581956
O O2 0.829065 0.295163 0.882077
O O3 0.928203 0.734315 0.073473
O O4 0.319546 0.021436 0.248821
O O5 0.638839 0.277677 0.500000
O O6 0.684521 0.215321 0.192912
O O7 0.128350 0.564175 0.666667
O O8 0.067090 0.427407 0.764678
#
# Coordination Sequence:
#
# PCOD9584178 Si02
#       6
#     6   6   6   6  12   6
#     4  12  24  44  70 100 136 197 240 313 372 438
#     4  12  23  46  76 102 150 186 243 298 364 449
#     4  12  24  48  73 110 144 195 242 300 368 454
#     4  12  25  48  74 103 136 191 261 319 378 448
#     4  12  25  44  68 101 141 189 252 317 376 440
#     4  12  27  44  70 106 144 193 248 306 390 435
#
# _framework density 21.113879000000001
#
# number of rings (size 3 to 8) (size 9 to 14) (size 15 to 20)
#    0.000    0.000    7.143    3.000    0.000    2.286 
#    0.000    1.429    0.000    0.000    0.000    0.000 
#    0.000   32.000    0.000    0.000    0.000    0.000 
#
# Total GULP energy -234615.903845 kJ/mol
# GULP energy per Si atom -5586.092949 kJ/mol
# Density = 2.106582 g / cm^3
# Si number density = 21.113879 Si / 1000 Ang^3
#
#
#
# Elastic Constant Matrix: (Units=GPa)
#
#
# Indices 1 2 3 4 5 6 
#
# 1 164.7571 86.0304 43.5477 0.0000 0.0000 0.0000
# 2 86.0304 164.7571 43.5477 0.0000 0.0000 0.0000
# 3 43.5477 43.5477 108.4674 0.0000 0.0000 0.0000
# 4 0.0000 0.0000 0.0000 19.8528 0.0000 0.0000
# 5 0.0000 0.0000 0.0000 0.0000 19.8528 0.0000
# 6 0.0000 0.0000 0.0000 0.0000 0.0000 39.3633
#
#
#
# Elastic Compliance Matrix: (Units=1/GPa)
#
#
# Indices 1 2 3 4 5 6 
#
# 1 0.008668 -0.004034 -0.001860 0.000000 0.000000 0.000000
# 2 -0.004034 0.008668 -0.001860 0.000000 0.000000 0.000000
# 3 -0.001860 -0.001860 0.010713 0.000000 0.000000 0.000000
# 4 0.000000 0.000000 0.000000 0.050371 0.000000 0.000000
# 5 0.000000 0.000000 0.000000 0.000000 0.050371 0.000000
# 6 0.000000 0.000000 0.000000 0.000000 0.000000 0.025404
#
#
# Mechanical properties :
#
#
# Convention : Reuss Voigt Hill
#
# Bulk Modulus (GPa) = 79.75111 87.13702 83.44407
# Shear Modulus (GPa) = 28.75482 33.47085 31.11283
#
# Velocity S-wave (km/s) = 3.69439 3.98584 3.84288
# Velocity P-wave (km/s) = 7.48678 7.90836 7.70046
#
# Compressibility (1/GPa) = 0.01253901
#
# Stress axis : x y z
#
# Youngs Moduli (GPa) = 115.36913 115.36913 93.34383
#
# Poissons Ratio (x) = 0.46544 0.17364
# Poissons Ratio (y) = 0.46544 0.17364
# Poissons Ratio (z) = 0.21462 0.21462
#
# Static dielectric constant tensor:
#      x y z
#    x 1.822000 0.000000 0.000000 
#    y 0.000000 1.822000 0.000000 
#    z 0.000000 0.000000 1.813580 
# 
# From -- ./inp_files/903.got.cif
#   From: 2010.05.17/outbox.cif.g08.bks.cpg/sg180_1_cif.got.tgz:903.got - 2010.05.20 11:43:55.
