data_PCOD9584699
_publ_section_title
;
Structure prediction by ZEFSAII (Michael W. Deem and Ramdas Pophale) SiO2 
 PCOD9584699
Probable space group: P 63 2 2
;
_chemical_formula_sum "Si O2"
_cell_formula_units_Z 52
_cell_length_a 11.602826
_cell_length_b 11.602826
_cell_length_c 23.646319
_cell_angle_alpha 90.000000
_cell_angle_beta 90.000000
_cell_angle_gamma 120.000000
_cell_volume 2756.904579
_symmetry_space_group_name_H-M "P 63 2 2"
_symmetry_group_IT_number 182
_symmetry_cell_setting 'hexagonal'
loop_
_space_group_symop_operation_xyz
x,y,z
x-y,x,1/2+z
-y,x-y,z
-x,-y,1/2+z
-x+y,-x,z
y,-x+y,1/2+z
x-y,-y,-z
-x,-x+y,-z
y,x,-z
-y,-x,1/2-z
-x+y,y,1/2-z
x,x-y,1/2-z
loop_
_atom_site_type_symbol
_atom_site_label
_atom_site_fract_x
_atom_site_fract_y
_atom_site_fract_z
Si Si1 0.000000 0.725514 0.000000
Si Si2 0.641505 0.820754 0.317655
Si Si3 0.065192 0.665888 0.621517
Si Si4 0.600696 0.665887 0.621517
Si Si5 0.333335 0.666668 0.318349
Si Si6 0.725515 0.000000 0.500000
O O1 0.024861 0.663182 0.944000
O O2 0.869808 0.739615 0.991660
O O3 0.648893 0.824447 0.250000
O O4 0.698797 0.731680 0.342844
O O5 0.486082 0.743044 0.336336
O O6 0.698799 0.967119 0.342844
O O7 0.215995 0.784006 0.628230
O O8 0.049993 0.524997 0.638365
O O9 0.024861 0.663182 0.556000
O O10 0.333334 0.666667 0.250000
#
# Coordination Sequence:
#
# PCOD9584699 Si02
#       6
#     6  12  12  12   4   6
#     4  10  20  36  60  90 124 161 203 252 308 366
#     4  11  22  40  64  89 118 159 208 255 302 359
#     4  11  23  40  62  91 126 163 203 252 308 368
#     4  11  23  40  62  91 126 163 203 252 308 368
#     4   9  18  36  66  87 108 153 213 261 292 350
#     4  10  20  36  60  90 124 161 203 252 308 366
#
# _framework density 18.861734999999999
#
# number of rings (size 3 to 8) (size 9 to 14) (size 15 to 20)
#    0.000    1.385    4.615    1.385    0.000    0.923 
#    1.385    0.000    0.000    2.769    0.000    0.000 
#    0.000    0.000    0.000    0.000    0.000    0.000 
#
# Total GULP energy -290410.544155 kJ/mol
# GULP energy per Si atom -5584.818157 kJ/mol
# Density = 1.881880 g / cm^3
# Si number density = 18.861735 Si / 1000 Ang^3
#
#
#
# Elastic Constant Matrix: (Units=GPa)
#
#
# Indices 1 2 3 4 5 6 
#
# 1 73.6584 29.8801 20.9459 0.0000 0.0000 0.0000
# 2 29.8801 73.6581 20.9460 0.0000 0.0000 0.0000
# 3 20.9459 20.9460 73.2608 0.0000 0.0000 0.0000
# 4 0.0000 0.0000 0.0000 22.1957 0.0000 0.0000
# 5 0.0000 0.0000 0.0000 0.0000 22.1958 0.0000
# 6 0.0000 0.0000 0.0000 0.0000 0.0000 21.8892
#
#
#
# Elastic Compliance Matrix: (Units=1/GPa)
#
#
# Indices 1 2 3 4 5 6 
#
# 1 0.016882 -0.005960 -0.003123 0.000000 0.000000 0.000000
# 2 -0.005960 0.016882 -0.003123 0.000000 0.000000 0.000000
# 3 -0.003123 -0.003123 0.015435 0.000000 0.000000 0.000000
# 4 0.000000 0.000000 0.000000 0.045054 0.000000 0.000000
# 5 0.000000 0.000000 0.000000 0.000000 0.045054 0.000000
# 6 0.000000 0.000000 0.000000 0.000000 0.000000 0.045685
#
#
# Mechanical properties :
#
#
# Convention : Reuss Voigt Hill
#
# Bulk Modulus (GPa) = 40.34154 40.45792 40.39973
# Shear Modulus (GPa) = 22.97102 23.17649 23.07375
#
# Velocity S-wave (km/s) = 3.49358 3.50917 3.50138
# Velocity P-wave (km/s) = 6.14068 6.15754 6.14911
#
# Compressibility (1/GPa) = 0.02478834
#
# Stress axis : x y z
#
# Youngs Moduli (GPa) = 59.23464 59.23426 64.78601
#
# Poissons Ratio (x) = 0.35306 0.20230
# Poissons Ratio (y) = 0.35306 0.20230
# Poissons Ratio (z) = 0.18496 0.18497
#
# Static dielectric constant tensor:
#      x y z
#    x 1.630920 0.000000 0.000000 
#    y 0.000000 1.630930 0.000000 
#    z 0.000000 0.000000 1.634140 
# 
# From -- ./inp_files/4832.got.cif
#   From: 2010.05.17/outbox.cif.g08.bks.cpg/sg182_3_cif.got.tgz:4832.got - 2010.05.20 11:58:53.
