data_PCOD9584597
_publ_section_title
;
Structure prediction by ZEFSAII (Michael W. Deem and Ramdas Pophale) SiO2 
 PCOD9584597
Probable space group: P 64 2 2
;
_chemical_formula_sum "Si O2"
_cell_formula_units_Z 75
_cell_length_a 12.000000
_cell_length_b 12.000000
_cell_length_c 30.000000
_cell_angle_alpha 90.000000
_cell_angle_beta 90.000000
_cell_angle_gamma 120.000000
_cell_volume 3741.229744
_symmetry_space_group_name_H-M "P 64 2 2"
_symmetry_group_IT_number 181
_symmetry_cell_setting 'hexagonal'
loop_
_space_group_symop_operation_xyz
x,y,z
x-y,x,2/3+z
-y,x-y,1/3+z
-x,-y,z
-x+y,-x,2/3+z
y,-x+y,1/3+z
x-y,-y,-z
-x,-x+y,2/3-z
y,x,1/3-z
-y,-x,1/3-z
-x+y,y,-z
x,x-y,2/3-z
loop_
_atom_site_type_symbol
_atom_site_label
_atom_site_fract_x
_atom_site_fract_y
_atom_site_fract_z
Si Si1 0.717690 0.791640 0.879758
Si Si2 0.430961 0.750968 0.044022
Si Si3 0.606041 0.784105 0.200125
Si Si4 0.500000 0.000000 0.000000
Si Si5 0.429270 0.658644 0.881558
Si Si6 0.128455 0.140145 0.719102
Si Si7 0.366511 0.270243 0.097413
O O1 0.724191 0.862096 0.833334
O O2 0.809032 0.730817 0.875773
O O3 0.570861 0.678870 0.886693
O O4 0.762170 0.893762 0.919458
O O5 0.334545 0.743994 0.081895
O O6 0.515061 0.693898 0.064252
O O7 0.344305 0.688610 0.000000
O O8 0.521539 0.900598 0.029673
O O9 0.483123 0.790426 0.216933
O O10 0.598730 0.760171 0.146726
O O11 0.625766 0.677189 0.225488
O O12 0.425105 0.712553 0.833334
O O13 0.162103 0.162103 0.666667
O O14 0.103525 0.247177 0.742113
O O15 0.000000 0.000000 0.722861
#
# Coordination Sequence:
#
# PCOD9584597 Si02
#       7
#    12  12  12   3  12  12  12
#     4  11  23  39  66  97 136 179 224 296 356 416
#     4  10  24  43  66 103 130 180 231 290 347 419
#     4  11  23  43  66  99 136 180 234 285 350 430
#     4   8  24  40  72  96 138 168 236 294 352 422
#     4  11  24  43  64  98 139 177 236 282 348 414
#     4  11  24  40  65 103 137 172 229 295 361 427
#     4  11  23  40  70 100 132 181 230 288 353 419
#
# _framework density 20.046883999999999
#
# number of rings (size 3 to 8) (size 9 to 14) (size 15 to 20)
#    0.480    0.800    4.800    0.480    5.600    0.960 
#    0.000    1.600    3.520    0.000    0.000    0.000 
#    0.000    0.000    0.000    0.000    0.000    0.000 
#
# Total GULP energy -418764.705775 kJ/mol
# GULP energy per Si atom -5583.529410 kJ/mol
# Density = 2.000126 g / cm^3
# Si number density = 20.046884 Si / 1000 Ang^3
#
#
#
# Elastic Constant Matrix: (Units=GPa)
#
#
# Indices 1 2 3 4 5 6 
#
# 1 86.3487 23.6605 45.3264 0.0000 0.0000 0.0000
# 2 23.6605 86.3487 45.3264 0.0000 0.0000 0.0000
# 3 45.3264 45.3264 142.0689 0.0000 0.0000 0.0000
# 4 0.0000 0.0000 0.0000 26.8262 0.0000 0.0000
# 5 0.0000 0.0000 0.0000 0.0000 26.8262 0.0000
# 6 0.0000 0.0000 0.0000 0.0000 0.0000 31.3441
#
#
#
# Elastic Compliance Matrix: (Units=1/GPa)
#
#
# Indices 1 2 3 4 5 6 
#
# 1 0.014142 -0.001810 -0.003935 0.000000 0.000000 0.000000
# 2 -0.001810 0.014142 -0.003935 0.000000 0.000000 0.000000
# 3 -0.003935 -0.003935 0.009549 0.000000 0.000000 0.000000
# 4 0.000000 0.000000 0.000000 0.037277 0.000000 0.000000
# 5 0.000000 0.000000 0.000000 0.000000 0.037277 0.000000
# 6 0.000000 0.000000 0.000000 0.000000 0.000000 0.031904
#
#
# Mechanical properties :
#
#
# Convention : Reuss Voigt Hill
#
# Bulk Modulus (GPa) = 54.12442 60.37698 57.25070
# Shear Modulus (GPa) = 29.44495 30.36284 29.90389
#
# Velocity S-wave (km/s) = 3.83666 3.89600 3.86644
# Velocity P-wave (km/s) = 6.83258 7.10082 6.96799
#
# Compressibility (1/GPa) = 0.01847595
#
# Stress axis : x y z
#
# Youngs Moduli (GPa) = 70.71031 70.71031 104.71775
#
# Poissons Ratio (x) = 0.12797 0.41202
# Poissons Ratio (y) = 0.12797 0.41202
# Poissons Ratio (z) = 0.27822 0.27822
#
# Static dielectric constant tensor:
#      x y z
#    x 1.720070 0.000000 0.000000 
#    y 0.000000 1.720070 0.000000 
#    z 0.000000 0.000000 1.669780 
# 
# From -- ./inp_files/12383.got.cif
#   From: 2010.05.17/outbox.ucp.g08.bks.cvg/sg181_7_cif.got.tgz:12383.got - 2010.06.11 15:20:36.
