data_PCOD9584792
_publ_section_title
;
Structure prediction by ZEFSAII (Michael W. Deem and Ramdas Pophale) SiO2 
 PCOD9584792
Probable space group: P 63 2 2
;
_chemical_formula_sum "Si O2"
_cell_formula_units_Z 46
_cell_length_a 17.835758
_cell_length_b 17.835758
_cell_length_c 7.270022
_cell_angle_alpha 90.000000
_cell_angle_beta 90.000000
_cell_angle_gamma 120.000000
_cell_volume 2002.854954
_symmetry_space_group_name_H-M "P 63 2 2"
_symmetry_group_IT_number 182
_symmetry_cell_setting 'hexagonal'
loop_
_space_group_symop_operation_xyz
x,y,z
x-y,x,1/2+z
-y,x-y,z
-x,-y,1/2+z
-x+y,-x,z
y,-x+y,1/2+z
x-y,-y,-z
-x,-x+y,-z
y,x,-z
-y,-x,1/2-z
-x+y,y,1/2-z
x,x-y,1/2-z
loop_
_atom_site_type_symbol
_atom_site_label
_atom_site_fract_x
_atom_site_fract_y
_atom_site_fract_z
Si Si1 0.333334 0.666668 0.532374
Si Si2 0.519704 0.367004 0.971780
Si Si3 0.786281 0.719007 0.847985
Si Si4 0.100963 0.650639 0.445146
Si Si5 0.338994 0.338994 0.000000
O O1 0.333334 0.666667 0.750000
O O2 0.257140 0.571193 0.470529
O O3 0.596107 0.459005 0.047811
O O4 0.486666 0.364871 0.763256
O O5 0.429903 0.346592 0.065758
O O6 0.876535 0.753070 0.750000
O O7 0.751283 0.624309 0.947013
O O8 0.721697 0.698666 0.677127
O O9 0.779021 0.779021 0.000000
O O10 0.000000 0.602219 0.500000
#
# Coordination Sequence:
#
# PCOD9584792 Si02
#       5
#     4  12  12  12   6
#     4  12  30  40  53  94 141 193 260 319 358 443
#     4  10  22  40  60  87 129 186 246 304 372 408
#     4  10  23  41  67 103 137 183 231 290 358 437
#     4   9  19  36  62  89 123 174 244 296 357 428
#     4  10  22  44  68  96 142 188 238 308 366 430
#
# _framework density 22.967216000000001
#
# number of rings (size 3 to 8) (size 9 to 14) (size 15 to 20)
#    0.000    2.087    1.304    0.000    7.304   10.435 
#    0.000    0.000    0.000    0.000    0.000    0.000 
#   13.043    0.000    0.000    0.000    0.000    0.000 
#
# Total GULP energy -256188.200373 kJ/mol
# GULP energy per Si atom -5569.308704 kJ/mol
# Density = 2.291494 g / cm^3
# Si number density = 22.967216 Si / 1000 Ang^3
#
#
#
# Elastic Constant Matrix: (Units=GPa)
#
#
# Indices 1 2 3 4 5 6 
#
# 1 88.6141 75.5944 52.6242 -0.0001 0.0000 0.0002
# 2 75.5944 88.6137 52.6241 -0.0002 0.0000 -0.0005
# 3 52.6242 52.6241 111.2165 0.0001 0.0000 -0.0002
# 4 -0.0001 -0.0002 0.0001 32.6018 0.0001 0.0000
# 5 0.0000 0.0000 0.0000 0.0001 32.6017 0.0000
# 6 0.0002 -0.0005 -0.0002 0.0000 0.0000 6.5107
#
#
#
# Elastic Compliance Matrix: (Units=1/GPa)
#
#
# Indices 1 2 3 4 5 6 
#
# 1 0.042774 -0.034033 -0.004136 0.000000 0.000000 -0.000004
# 2 -0.034033 0.042774 -0.004136 0.000000 0.000000 0.000005
# 3 -0.004136 -0.004136 0.012905 0.000000 0.000000 0.000000
# 4 0.000000 0.000000 0.000000 0.030673 0.000000 0.000000
# 5 0.000000 0.000000 0.000000 0.000000 0.030673 0.000000
# 6 -0.000004 0.000005 0.000000 0.000000 0.000000 0.153594
#
#
# Mechanical properties :
#
#
# Convention : Reuss Voigt Hill
#
# Bulk Modulus (GPa) = 72.23646 72.23663 72.23655
# Shear Modulus (GPa) = 12.41870 21.51628 16.96749
#
# Velocity S-wave (km/s) = 2.32785 3.06408 2.72098
# Velocity P-wave (km/s) = 6.22458 6.63615 6.43366
#
# Compressibility (1/GPa) = 0.01384342
#
# Stress axis : x y z
#
# Youngs Moduli (GPa) = 23.37870 23.37860 77.48734
#
# Poissons Ratio (x) = 0.79565 0.32047
# Poissons Ratio (y) = 0.79566 0.32047
# Poissons Ratio (z) = 0.09669 0.09669
#
# Static dielectric constant tensor:
#      x y z
#    x 1.966970 0.000000 0.000000 
#    y 0.000000 1.966970 0.000000 
#    z 0.000000 0.000000 2.115380 
# 
# From -- ./inp_files/1515.got.cif
#   From: 2010.05.17/outbox.cif.g08.bks.cpg/sg182_1_cif.got.tgz:1515.got - 2010.05.20 11:58:53.
