data_PCOD9584744
_publ_section_title
;
Structure prediction by ZEFSAII (Michael W. Deem and Ramdas Pophale) SiO2 
 PCOD9584744
Probable space group: P 63 2 2
;
_chemical_formula_sum "Si O2"
_cell_formula_units_Z 60
_cell_length_a 14.353368
_cell_length_b 14.353368
_cell_length_c 12.940331
_cell_angle_alpha 90.000000
_cell_angle_beta 90.000000
_cell_angle_gamma 120.000000
_cell_volume 2308.785873
_symmetry_space_group_name_H-M "P 63 2 2"
_symmetry_group_IT_number 182
_symmetry_cell_setting 'hexagonal'
loop_
_space_group_symop_operation_xyz
x,y,z
x-y,x,1/2+z
-y,x-y,z
-x,-y,1/2+z
-x+y,-x,z
y,-x+y,1/2+z
x-y,-y,-z
-x,-x+y,-z
y,x,-z
-y,-x,1/2-z
-x+y,y,1/2-z
x,x-y,1/2-z
loop_
_atom_site_type_symbol
_atom_site_label
_atom_site_fract_x
_atom_site_fract_y
_atom_site_fract_z
Si Si1 0.892079 0.204559 0.124659
Si Si2 0.871248 0.461840 0.356044
Si Si3 0.205163 0.327280 0.374598
Si Si4 0.334240 0.339125 0.875653
Si Si5 0.210728 0.654406 0.410721
O O1 0.901711 0.317461 0.153966
O O2 0.008902 0.222114 0.151462
O O3 0.895974 0.219331 0.340152
O O4 0.878275 0.196966 0.000063
O O5 0.810802 0.405401 0.250000
O O6 0.811345 0.436602 0.466909
O O7 0.963812 0.427663 0.358737
O O8 0.103232 0.336442 0.336651
O O9 0.316017 0.442768 0.364303
O O10 0.332090 0.332090 0.000000
O O11 0.238458 0.562943 0.380847
#
# Coordination Sequence:
#
# PCOD9584744 Si02
#       5
#    12  12  12  12  12
#     4   9  20  35  56  84 112 153 190 229 292 332
#     4  11  22  34  54  83 120 152 184 236 290 341
#     4   9  18  35  57  83 114 145 190 244 269 339
#     4  10  21  37  58  85 114 153 193 233 289 340
#     4   9  19  30  51  85 109 148 191 220 291 339
#
# _framework density 25.987684999999999
#
# number of rings (size 3 to 8) (size 9 to 14) (size 15 to 20)
#    0.400    2.000    0.000    3.600    8.400    3.200 
#    2.400    1.000    0.000    0.000    0.000    0.000 
#    0.000    0.000    0.000    0.000    0.000    0.000 
#
# Total GULP energy -334478.614824 kJ/mol
# GULP energy per Si atom -5574.643580 kJ/mol
# Density = 2.592854 g / cm^3
# Si number density = 25.987685 Si / 1000 Ang^3
#
#
#
# Elastic Constant Matrix: (Units=GPa)
#
#
# Indices 1 2 3 4 5 6 
#
# 1 163.2077 118.5237 24.3679 0.0000 0.0000 0.0000
# 2 118.5237 163.2077 24.3679 0.0000 0.0000 0.0000
# 3 24.3679 24.3679 81.0032 0.0000 0.0000 0.0000
# 4 0.0000 0.0000 0.0000 34.8840 0.0000 0.0000
# 5 0.0000 0.0000 0.0000 0.0000 34.8840 0.0000
# 6 0.0000 0.0000 0.0000 0.0000 0.0000 22.3420
#
#
#
# Elastic Compliance Matrix: (Units=1/GPa)
#
#
# Indices 1 2 3 4 5 6 
#
# 1 0.013062 -0.009318 -0.001126 0.000000 0.000000 0.000000
# 2 -0.009318 0.013062 -0.001126 0.000000 0.000000 0.000000
# 3 -0.001126 -0.001126 0.013023 0.000000 0.000000 0.000000
# 4 0.000000 0.000000 0.000000 0.028666 0.000000 0.000000
# 5 0.000000 0.000000 0.000000 0.000000 0.028666 0.000000
# 6 0.000000 0.000000 0.000000 0.000000 0.000000 0.044759
#
#
# Mechanical properties :
#
#
# Convention : Reuss Voigt Hill
#
# Bulk Modulus (GPa) = 62.47667 82.43752 72.45710
# Shear Modulus (GPa) = 29.46128 34.43258 31.94693
#
# Velocity S-wave (km/s) = 3.37064 3.64395 3.50996
# Velocity P-wave (km/s) = 6.26429 7.03527 6.66095
#
# Compressibility (1/GPa) = 0.01600597
#
# Stress axis : x y z
#
# Youngs Moduli (GPa) = 76.55876 76.55876 76.78786
#
# Poissons Ratio (x) = 0.71334 0.08649
# Poissons Ratio (y) = 0.71334 0.08649
# Poissons Ratio (z) = 0.08624 0.08624
#
# Static dielectric constant tensor:
#      x y z
#    x 2.032160 0.000000 0.000000 
#    y 0.000000 2.032160 0.000000 
#    z 0.000000 0.000000 2.192830 
# 
# From -- ./inp_files/2601.got.cif
#   From: 2010.05.17/outbox.cif.g08.bks.cpg/sg182_2_cif.got.tgz:2601.got - 2010.05.20 11:58:53.
