data_PCOD9584115
_publ_section_title
;
Structure prediction by ZEFSAII (Michael W. Deem and Ramdas Pophale) SiO2 
 PCOD9584115
Probable space group: P 62 2 2
;
_chemical_formula_sum "Si O2"
_cell_formula_units_Z 36
_cell_length_a 8.148132
_cell_length_b 8.148132
_cell_length_c 27.345388
_cell_angle_alpha 90.000000
_cell_angle_beta 90.000000
_cell_angle_gamma 120.000000
_cell_volume 1572.283416
_symmetry_space_group_name_H-M "P 62 2 2"
_symmetry_group_IT_number 180
_symmetry_cell_setting 'hexagonal'
loop_
_space_group_symop_operation_xyz
x,y,z
x-y,x,1/3+z
-y,x-y,2/3+z
-x,-y,z
-x+y,-x,1/3+z
y,-x+y,2/3+z
x-y,-y,-z
-x,-x+y,1/3-z
y,x,2/3-z
-y,-x,2/3-z
-x+y,y,-z
x,x-y,1/3-z
loop_
_atom_site_type_symbol
_atom_site_label
_atom_site_fract_x
_atom_site_fract_y
_atom_site_fract_z
Si Si1 0.191939 0.512590 0.869909
Si Si2 0.448363 0.796502 0.944317
Si Si3 0.782356 0.832902 0.721509
O O1 0.371787 0.628214 0.833334
O O2 0.263076 0.647399 0.916798
O O3 0.152367 0.319024 0.895753
O O4 0.000000 0.500000 0.850694
O O5 0.626953 0.764575 0.941662
O O6 0.500000 0.000000 0.924408
O O7 0.396266 0.792532 0.000000
O O8 0.711781 0.855891 0.666667
O O9 0.000000 0.000000 0.722818
#
# Coordination Sequence:
#
# PCOD9584115 Si02
#       3
#    12  12  12
#     4  12  26  45  66  95 134 180 228 282 349 418
#     4  11  22  41  69 101 134 175 224 277 336 402
#     4  11  23  43  72 106 138 177 231 294 351 412
#
# _framework density 22.896636000000001
#
# number of rings (size 3 to 8) (size 9 to 14) (size 15 to 20)
#    0.000    0.667    0.000   11.000    0.000    2.667 
#    0.000    1.667    0.000    0.000    0.000    0.000 
#    0.000    0.000    0.000    0.000    0.000    0.000 
#
# Total GULP energy -201048.979317 kJ/mol
# GULP energy per Si atom -5584.693870 kJ/mol
# Density = 2.284452 g / cm^3
# Si number density = 22.896636 Si / 1000 Ang^3
#
#
#
# Elastic Constant Matrix: (Units=GPa)
#
#
# Indices 1 2 3 4 5 6 
#
# 1 91.4317 24.2359 43.3019 0.0000 0.0000 0.0000
# 2 24.2359 91.4317 43.3019 0.0000 0.0000 0.0000
# 3 43.3019 43.3019 143.2731 0.0000 0.0000 0.0000
# 4 0.0000 0.0000 0.0000 44.0049 0.0000 0.0000
# 5 0.0000 0.0000 0.0000 0.0000 44.0049 0.0000
# 6 0.0000 0.0000 0.0000 0.0000 0.0000 33.5979
#
#
#
# Elastic Compliance Matrix: (Units=1/GPa)
#
#
# Indices 1 2 3 4 5 6 
#
# 1 0.013028 -0.001854 -0.003377 0.000000 0.000000 0.000000
# 2 -0.001854 0.013028 -0.003377 0.000000 0.000000 0.000000
# 3 -0.003377 -0.003377 0.009021 0.000000 0.000000 0.000000
# 4 0.000000 0.000000 0.000000 0.022725 0.000000 0.000000
# 5 0.000000 0.000000 0.000000 0.000000 0.022725 0.000000
# 6 0.000000 0.000000 0.000000 0.000000 0.000000 0.029764
#
#
# Mechanical properties :
#
#
# Convention : Reuss Voigt Hill
#
# Bulk Modulus (GPa) = 55.98954 60.86846 58.42900
# Shear Modulus (GPa) = 37.46433 38.67465 38.06949
#
# Velocity S-wave (km/s) = 4.04943 4.11432 4.08201
# Velocity P-wave (km/s) = 6.80956 7.01512 6.91310
#
# Compressibility (1/GPa) = 0.01786048
#
# Stress axis : x y z
#
# Youngs Moduli (GPa) = 76.75794 76.75794 110.85163
#
# Poissons Ratio (x) = 0.14230 0.37437
# Poissons Ratio (y) = 0.14230 0.37437
# Poissons Ratio (z) = 0.25922 0.25922
#
# Static dielectric constant tensor:
#      x y z
#    x 1.812450 0.000000 0.000000 
#    y 0.000000 1.812450 0.000000 
#    z 0.000000 0.000000 1.873220 
# 
# From -- ./inp_files/10738.got.cif
#   From: 2010.05.17/outbox.cif.g08.bks.cpg/sg180_6_cif.got.tgz:10738.got - 2010.05.20 11:43:55.
