data_PCOD9584885
_publ_section_title
;
Structure prediction by ZEFSAII (Michael W. Deem and Ramdas Pophale) SiO2 
 PCOD9584885
Probable space group: P 63 2 2
;
_chemical_formula_sum "Si O2"
_cell_formula_units_Z 48
_cell_length_a 17.403752
_cell_length_b 17.403752
_cell_length_c 7.628855
_cell_angle_alpha 90.000000
_cell_angle_beta 90.000000
_cell_angle_gamma 120.000000
_cell_volume 2001.132126
_symmetry_space_group_name_H-M "P 63 2 2"
_symmetry_group_IT_number 182
_symmetry_cell_setting 'hexagonal'
loop_
_space_group_symop_operation_xyz
x,y,z
x-y,x,1/2+z
-y,x-y,z
-x,-y,1/2+z
-x+y,-x,z
y,-x+y,1/2+z
x-y,-y,-z
-x,-x+y,-z
y,x,-z
-y,-x,1/2-z
-x+y,y,1/2-z
x,x-y,1/2-z
loop_
_atom_site_type_symbol
_atom_site_label
_atom_site_fract_x
_atom_site_fract_y
_atom_site_fract_z
Si Si1 0.099018 0.375327 0.803083
Si Si2 0.406193 0.905048 0.499634
Si Si3 0.999805 0.820137 0.794224
Si Si4 0.841371 0.320809 0.845482
O O1 0.185180 0.370360 0.750000
O O2 0.101649 0.450406 0.669194
O O3 0.021485 0.273591 0.786987
O O4 0.118283 0.408724 0.001339
O O5 0.434054 0.832554 0.447704
O O6 0.358271 0.906589 0.320725
O O7 0.495903 0.000000 0.500000
O O8 0.905358 0.810716 0.750000
O O9 0.080756 0.919245 0.750000
O O10 0.000000 0.806999 0.000000
O O11 0.753305 0.246696 0.750000
#
# Coordination Sequence:
#
# PCOD9584885 Si02
#       4
#    12  12  12  12
#     4  11  24  49  74 114 159 205 268 336 404 481
#     4  11  26  49  76 113 155 214 270 324 416 488
#     4  11  25  51  75 110 155 210 269 328 403 481
#     4  11  25  49  79 114 157 206 268 336 400 490
#
# _framework density 23.986422000000001
#
# number of rings (size 3 to 8) (size 9 to 14) (size 15 to 20)
#    0.000    1.000    2.500    2.500    7.000    0.000 
#   37.500    0.000    0.000    0.000    0.000    0.000 
#    0.000    0.000    0.000    0.000    0.000    0.000 
#
# Total GULP energy -268143.031053 kJ/mol
# GULP energy per Si atom -5586.313147 kJ/mol
# Density = 2.393183 g / cm^3
# Si number density = 23.986422 Si / 1000 Ang^3
#
#
#
# Elastic Constant Matrix: (Units=GPa)
#
#
# Indices 1 2 3 4 5 6 
#
# 1 109.1873 124.2833 78.1650 0.0000 0.0000 0.0000
# 2 124.2833 109.1873 78.1650 0.0000 0.0000 0.0000
# 3 78.1650 78.1650 205.9601 0.0000 0.0000 0.0000
# 4 0.0000 0.0000 0.0000 44.2878 0.0000 0.0000
# 5 0.0000 0.0000 0.0000 0.0000 44.2878 0.0000
# 6 0.0000 0.0000 0.0000 0.0000 0.0000 -7.5480
#
#
#
# Elastic Compliance Matrix: (Units=1/GPa)
#
#
# Indices 1 2 3 4 5 6 
#
# 1 -0.030250 0.035993 -0.002179 0.000000 0.000000 0.000000
# 2 0.035993 -0.030250 -0.002179 0.000000 0.000000 0.000000
# 3 -0.002179 -0.002179 0.006510 0.000000 0.000000 0.000000
# 4 0.000000 0.000000 0.000000 0.022580 0.000000 0.000000
# 5 0.000000 0.000000 0.000000 0.000000 0.022580 0.000000
# 6 0.000000 0.000000 0.000000 0.000000 0.000000 -0.132485
#
#
# Mechanical properties :
#
#
# Convention : Reuss Voigt Hill
#
# Bulk Modulus (GPa) = 107.79312 109.50681 108.64997
# Shear Modulus (GPa) = -24.81483 25.78696 0.48607
#
# Velocity S-wave (km/s) = -3.21991 3.28238 0.45065
# Velocity P-wave (km/s) = 5.58686 7.75359 6.75763
#
# Compressibility (1/GPa) = 0.00927703
#
# Stress axis : x y z
#
# Youngs Moduli (GPa) = -33.05772 -33.05772 153.62138
#
# Poissons Ratio (x) = 1.18983 0.33480
# Poissons Ratio (y) = 1.18983 0.33480
# Poissons Ratio (z) = -0.07204 -0.07204
#
# Static dielectric constant tensor:
#      x y z
#    x 1.751010 0.000000 0.000000 
#    y 0.000000 1.751010 0.000000 
#    z 0.000000 0.000000 1.901280 
# 
# From -- ./inp_files/1470.got.cif
#   From: 2010.05.17/outbox.cif.g08.bks.cpg/sg182_1_cif.got.tgz:1470.got - 2010.05.20 11:58:53.
