data_PCOD9584567
_publ_section_title
;
Structure prediction by ZEFSAII (Michael W. Deem and Ramdas Pophale) SiO2 
 PCOD9584567
Probable space group: P 64 2 2
;
_chemical_formula_sum "Si O2"
_cell_formula_units_Z 60
_cell_length_a 15.072423
_cell_length_b 15.072423
_cell_length_c 14.054756
_cell_angle_alpha 90.000000
_cell_angle_beta 90.000000
_cell_angle_gamma 120.000000
_cell_volume 2765.158879
_symmetry_space_group_name_H-M "P 64 2 2"
_symmetry_group_IT_number 181
_symmetry_cell_setting 'hexagonal'
loop_
_space_group_symop_operation_xyz
x,y,z
x-y,x,2/3+z
-y,x-y,1/3+z
-x,-y,z
-x+y,-x,2/3+z
y,-x+y,1/3+z
x-y,-y,-z
-x,-x+y,2/3-z
y,x,1/3-z
-y,-x,1/3-z
-x+y,y,-z
x,x-y,2/3-z
loop_
_atom_site_type_symbol
_atom_site_label
_atom_site_fract_x
_atom_site_fract_y
_atom_site_fract_z
Si Si1 0.611645 0.525523 0.509632
Si Si2 0.417974 0.730424 0.233483
Si Si3 0.785688 0.664777 0.655027
Si Si4 0.281916 0.999013 0.294724
Si Si5 0.851627 0.648061 0.866971
O O1 0.500000 0.500000 0.547492
O O2 0.601322 0.421635 0.468231
O O3 0.700983 0.572914 0.589693
O O4 0.640481 0.609967 0.425331
O O5 0.365930 0.634071 0.166667
O O6 0.367612 0.683806 0.333334
O O7 0.536181 0.765955 0.236866
O O8 0.736274 0.736274 0.666667
O O9 0.897645 0.723524 0.610633
O O10 0.820975 0.636116 0.754584
O O11 0.279446 0.089460 0.238283
O O12 0.315261 0.043461 0.403737
#
# Coordination Sequence:
#
# PCOD9584567 Si02
#       5
#    12  12  12  12  12
#     4  12  24  46  73 104 148 193 248 313 386 454
#     4  12  26  44  67 104 146 192 248 311 365 455
#     4  12  25  42  73 113 137 191 250 309 383 452
#     4  11  23  47  71  95 149 199 236 307 370 462
#     4  11  24  47  68  99 149 190 247 301 382 453
#
# _framework density 21.698573
#
# number of rings (size 3 to 8) (size 9 to 14) (size 15 to 20)
#    0.000    0.400    6.000    2.400    5.600    2.000 
#    0.000    2.000    0.000    4.800    0.000    0.000 
#    0.000    0.000    0.000    0.000    0.000    0.000 
#
# Total GULP energy -334283.771865 kJ/mol
# GULP energy per Si atom -5571.396198 kJ/mol
# Density = 2.164919 g / cm^3
# Si number density = 21.698573 Si / 1000 Ang^3
#
#
#
# Elastic Constant Matrix: (Units=GPa)
#
#
# Indices 1 2 3 4 5 6 
#
# 1 130.3222 42.2563 41.6324 0.0000 0.0000 0.0000
# 2 42.2563 130.3222 41.6324 0.0000 0.0000 0.0000
# 3 41.6324 41.6324 145.2566 0.0000 0.0000 0.0000
# 4 0.0000 0.0000 0.0000 21.1499 0.0000 0.0000
# 5 0.0000 0.0000 0.0000 0.0000 21.1499 0.0000
# 6 0.0000 0.0000 0.0000 0.0000 0.0000 44.0329
#
#
#
# Elastic Compliance Matrix: (Units=1/GPa)
#
#
# Indices 1 2 3 4 5 6 
#
# 1 0.009040 -0.002315 -0.001927 0.000000 0.000000 0.000000
# 2 -0.002315 0.009040 -0.001927 0.000000 0.000000 0.000000
# 3 -0.001927 -0.001927 0.007989 0.000000 0.000000 0.000000
# 4 0.000000 0.000000 0.000000 0.047282 0.000000 0.000000
# 5 0.000000 0.000000 0.000000 0.000000 0.047282 0.000000
# 6 0.000000 0.000000 0.000000 0.000000 0.000000 0.022710
#
#
# Mechanical properties :
#
#
# Convention : Reuss Voigt Hill
#
# Bulk Modulus (GPa) = 72.84023 72.99368 72.91695
# Shear Modulus (GPa) = 31.19966 35.95854 33.57910
#
# Velocity S-wave (km/s) = 3.79604 4.07527 3.93813
# Velocity P-wave (km/s) = 7.27016 7.47373 7.37265
#
# Compressibility (1/GPa) = 0.01372868
#
# Stress axis : x y z
#
# Youngs Moduli (GPa) = 110.62278 110.62278 125.17006
#
# Poissons Ratio (x) = 0.25614 0.24124
# Poissons Ratio (y) = 0.25614 0.24124
# Poissons Ratio (z) = 0.21320 0.21320
#
# Static dielectric constant tensor:
#      x y z
#    x 1.883660 0.000000 0.000000 
#    y 0.000000 1.883660 0.000000 
#    z 0.000000 0.000000 1.965330 
# 
# From -- ./inp_files/6167.got.cif
#   From: 2010.05.17/outbox.cif.g08.bks.cpg/sg181_4_cif.got.tgz:6167.got - 2010.05.20 11:51:17.
