data_PCOD9584397
_publ_section_title
;
Structure prediction by ZEFSAII (Michael W. Deem and Ramdas Pophale) SiO2 
 PCOD9584397
Probable space group: P 64 2 2
;
_chemical_formula_sum "Si O2"
_cell_formula_units_Z 66
_cell_length_a 19.476459
_cell_length_b 19.476459
_cell_length_c 9.907669
_cell_angle_alpha 90.000000
_cell_angle_beta 90.000000
_cell_angle_gamma 120.000000
_cell_volume 3254.783627
_symmetry_space_group_name_H-M "P 64 2 2"
_symmetry_group_IT_number 181
_symmetry_cell_setting 'hexagonal'
loop_
_space_group_symop_operation_xyz
x,y,z
x-y,x,2/3+z
-y,x-y,1/3+z
-x,-y,z
-x+y,-x,2/3+z
y,-x+y,1/3+z
x-y,-y,-z
-x,-x+y,2/3-z
y,x,1/3-z
-y,-x,1/3-z
-x+y,y,-z
x,x-y,2/3-z
loop_
_atom_site_type_symbol
_atom_site_label
_atom_site_fract_x
_atom_site_fract_y
_atom_site_fract_z
Si Si1 0.213211 0.188937 0.821890
Si Si2 0.271704 0.388098 0.453199
Si Si3 0.641439 0.446236 0.532565
Si Si4 0.573063 0.088972 0.651410
Si Si5 0.127832 0.255663 0.000000
Si Si6 0.092893 0.717138 0.813928
O O1 0.198424 0.198424 0.666667
O O2 0.206359 0.103180 0.833334
O O3 0.301658 0.259610 0.860128
O O4 0.156000 0.202005 0.921727
O O5 0.188478 0.376956 0.500000
O O6 0.333679 0.460980 0.542541
O O7 0.286181 0.412087 0.295386
O O8 0.602007 0.397994 0.666667
O O9 0.721417 0.442835 0.500000
O O10 0.576704 0.417783 0.413970
O O11 0.549137 0.098273 0.500000
O O12 0.659915 0.098986 0.630067
O O13 0.500000 0.000000 0.692781
O O14 0.193378 0.316389 0.104793
O O15 0.000000 0.677974 0.833334
#
# Coordination Sequence:
#
# PCOD9584397 Si02
#       6
#    12  12  12  12   6  12
#     4  11  25  44  70 100 141 185 234 301 364 432
#     4  10  21  42  67  95 137 177 227 292 354 415
#     4  11  26  47  70 101 148 192 240 299 369 446
#     4  11  22  44  74 102 136 186 236 301 366 426
#     4  12  26  40  73 106 136 186 248 286 367 454
#     4  12  22  42  71 101 135 179 239 297 349 431
#
# _framework density 20.277844999999999
#
# number of rings (size 3 to 8) (size 9 to 14) (size 15 to 20)
#    0.000    0.909    5.455    2.182    0.000    5.455 
#    1.636    1.364    0.000    0.000    0.000    0.000 
#    0.000    0.000    0.000    0.000    0.000    0.000 
#
# Total GULP energy -368201.589997 kJ/mol
# GULP energy per Si atom -5578.811970 kJ/mol
# Density = 2.023169 g / cm^3
# Si number density = 20.277845 Si / 1000 Ang^3
#
#
#
# Elastic Constant Matrix: (Units=GPa)
#
#
# Indices 1 2 3 4 5 6 
#
# 1 114.1541 56.5991 55.0480 0.0000 0.0000 0.0000
# 2 56.5991 114.1541 55.0480 0.0000 0.0000 0.0000
# 3 55.0480 55.0480 105.5186 0.0000 0.0000 0.0000
# 4 0.0000 0.0000 0.0000 37.5819 0.0000 0.0000
# 5 0.0000 0.0000 0.0000 0.0000 37.5819 0.0000
# 6 0.0000 0.0000 0.0000 0.0000 0.0000 28.7775
#
#
#
# Elastic Compliance Matrix: (Units=1/GPa)
#
#
# Indices 1 2 3 4 5 6 
#
# 1 0.013100 -0.004275 -0.004604 0.000000 0.000000 0.000000
# 2 -0.004275 0.013100 -0.004604 0.000000 0.000000 0.000000
# 3 -0.004604 -0.004604 0.014281 0.000000 0.000000 0.000000
# 4 0.000000 0.000000 0.000000 0.026609 0.000000 0.000000
# 5 0.000000 0.000000 0.000000 0.000000 0.026609 0.000000
# 6 0.000000 0.000000 0.000000 0.000000 0.000000 0.034749
#
#
# Mechanical properties :
#
#
# Convention : Reuss Voigt Hill
#
# Bulk Modulus (GPa) = 73.99255 74.13524 74.06390
# Shear Modulus (GPa) = 31.26630 31.93036 31.59833
#
# Velocity S-wave (km/s) = 3.93096 3.97248 3.95177
# Velocity P-wave (km/s) = 7.56120 7.59473 7.57798
#
# Compressibility (1/GPa) = 0.01351487
#
# Stress axis : x y z
#
# Youngs Moduli (GPa) = 76.33742 76.33742 70.02541
#
# Poissons Ratio (x) = 0.32634 0.32238
# Poissons Ratio (y) = 0.32634 0.32238
# Poissons Ratio (z) = 0.35144 0.35144
#
# Static dielectric constant tensor:
#      x y z
#    x 1.747460 0.000000 0.000000 
#    y 0.000000 1.747460 0.000000 
#    z 0.000000 0.000000 1.787350 
# 
# From -- ./inp_files/3165.got.cif
#   From: 2010.05.17/outbox.cif.g08.bks.cpg/sg181_2_cif.got.tgz:3165.got - 2010.05.20 11:51:17.
