data_PCOD9584834
_publ_section_title
;
Structure prediction by ZEFSAII (Michael W. Deem and Ramdas Pophale) SiO2 
 PCOD9584834
Probable space group: P 63 2 2
;
_chemical_formula_sum "Si O2"
_cell_formula_units_Z 54
_cell_length_a 11.703419
_cell_length_b 11.703419
_cell_length_c 23.506987
_cell_angle_alpha 90.000000
_cell_angle_beta 90.000000
_cell_angle_gamma 120.000000
_cell_volume 2788.387366
_symmetry_space_group_name_H-M "P 63 2 2"
_symmetry_group_IT_number 182
_symmetry_cell_setting 'hexagonal'
loop_
_space_group_symop_operation_xyz
x,y,z
x-y,x,1/2+z
-y,x-y,z
-x,-y,1/2+z
-x+y,-x,z
y,-x+y,1/2+z
x-y,-y,-z
-x,-x+y,-z
y,x,-z
-y,-x,1/2-z
-x+y,y,1/2-z
x,x-y,1/2-z
loop_
_atom_site_type_symbol
_atom_site_label
_atom_site_fract_x
_atom_site_fract_y
_atom_site_fract_z
Si Si1 0.425729 0.367337 0.061188
Si Si2 0.849191 0.000000 0.500000
Si Si3 0.092491 0.706209 0.583534
Si Si4 0.327053 0.925159 0.320617
Si Si5 0.610284 0.950062 0.304650
O O1 0.449882 0.244554 0.066167
O O2 0.557718 0.509275 0.065620
O O3 0.340346 0.351061 0.117781
O O4 0.365474 0.365474 0.000000
O O5 0.755525 0.985190 0.552662
O O6 0.878859 0.878859 0.500000
O O7 0.062134 0.698199 0.650321
O O8 0.458052 0.912271 0.314277
O O9 0.186740 0.792643 0.317760
O O10 0.335531 0.994372 0.259907
#
# Coordination Sequence:
#
# PCOD9584834 Si02
#       5
#    12   6  12  12  12
#     4  11  24  38  61  87 123 157 200 246 308 366
#     4  10  24  40  62  88 126 162 202 246 306 370
#     4  11  23  41  59  90 121 159 202 250 303 366
#     4   9  19  35  58  87 115 157 192 249 293 354
#     4   9  19  36  59  85 118 152 203 243 296 352
#
# _framework density 19.366031
#
# number of rings (size 3 to 8) (size 9 to 14) (size 15 to 20)
#    0.222    1.778    1.111    1.556    6.222    2.667 
#    0.000    0.000    0.000    2.667    0.000    0.000 
#    0.000    0.000    0.000    0.000    0.000    0.000 
#
# Total GULP energy -300677.087344 kJ/mol
# GULP energy per Si atom -5568.094210 kJ/mol
# Density = 1.932195 g / cm^3
# Si number density = 19.366031 Si / 1000 Ang^3
#
#
#
# Elastic Constant Matrix: (Units=GPa)
#
#
# Indices 1 2 3 4 5 6 
#
# 1 63.2394 24.2670 45.7391 0.0000 0.0000 0.0000
# 2 24.2670 63.2394 45.7391 0.0000 0.0000 0.0000
# 3 45.7391 45.7391 183.9538 0.0000 0.0000 0.0000
# 4 0.0000 0.0000 0.0000 12.1933 0.0000 0.0000
# 5 0.0000 0.0000 0.0000 0.0000 12.1933 0.0000
# 6 0.0000 0.0000 0.0000 0.0000 0.0000 19.4862
#
#
#
# Elastic Compliance Matrix: (Units=1/GPa)
#
#
# Indices 1 2 3 4 5 6 
#
# 1 0.020550 -0.005109 -0.003839 0.000000 0.000000 0.000000
# 2 -0.005109 0.020550 -0.003839 0.000000 0.000000 0.000000
# 3 -0.003839 -0.003839 0.007345 0.000000 0.000000 0.000000
# 4 0.000000 0.000000 0.000000 0.082012 0.000000 0.000000
# 5 0.000000 0.000000 0.000000 0.000000 0.082012 0.000000
# 6 0.000000 0.000000 0.000000 0.000000 0.000000 0.051318
#
#
# Mechanical properties :
#
#
# Convention : Reuss Voigt Hill
#
# Bulk Modulus (GPa) = 43.72423 60.21365 51.96894
# Shear Modulus (GPa) = 16.83568 21.75372 19.29470
#
# Velocity S-wave (km/s) = 2.95166 3.35519 3.15987
# Velocity P-wave (km/s) = 5.85177 6.79483 6.34085
#
# Compressibility (1/GPa) = 0.02287061
#
# Stress axis : x y z
#
# Youngs Moduli (GPa) = 48.66109 48.66109 136.13875
#
# Poissons Ratio (x) = 0.24860 0.52269
# Poissons Ratio (y) = 0.24860 0.52269
# Poissons Ratio (z) = 0.18683 0.18683
#
# Static dielectric constant tensor:
#      x y z
#    x 1.665660 0.000000 0.000000 
#    y 0.000000 1.665660 0.000000 
#    z 0.000000 0.000000 1.705590 
# 
# From -- ./inp_files/5187.got.cif
#   From: 2010.05.17/outbox.cif.g08.bks.cpg/sg182_3_cif.got.tgz:5187.got - 2010.05.20 11:58:53.
