data_PCOD9584501
_publ_section_title
;
Structure prediction by ZEFSAII (Michael W. Deem and Ramdas Pophale) SiO2 
 PCOD9584501
Probable space group: P 64 2 2
;
_chemical_formula_sum "Si O2"
_cell_formula_units_Z 51
_cell_length_a 13.335908
_cell_length_b 13.335908
_cell_length_c 17.818642
_cell_angle_alpha 90.000000
_cell_angle_beta 90.000000
_cell_angle_gamma 120.000000
_cell_volume 2744.418989
_symmetry_space_group_name_H-M "P 64 2 2"
_symmetry_group_IT_number 181
_symmetry_cell_setting 'hexagonal'
loop_
_space_group_symop_operation_xyz
x,y,z
x-y,x,2/3+z
-y,x-y,1/3+z
-x,-y,z
-x+y,-x,2/3+z
y,-x+y,1/3+z
x-y,-y,-z
-x,-x+y,2/3-z
y,x,1/3-z
-y,-x,1/3-z
-x+y,y,-z
x,x-y,2/3-z
loop_
_atom_site_type_symbol
_atom_site_label
_atom_site_fract_x
_atom_site_fract_y
_atom_site_fract_z
Si Si1 0.371221 0.628780 0.666667
Si Si2 0.223828 0.862055 0.494694
Si Si3 0.000000 0.000000 0.166667
Si Si4 0.786963 0.969008 0.263396
Si Si5 0.138572 0.784012 0.328779
Si Si6 0.740290 0.370145 0.833334
O O1 0.306261 0.490611 0.649465
O O2 0.356362 0.677793 0.583511
O O3 0.110561 0.788109 0.545366
O O4 0.184204 0.834111 0.410173
O O5 0.313545 0.819967 0.512299
O O6 0.282063 0.000000 0.500000
O O7 0.105091 0.021789 0.218752
O O8 0.773639 0.886820 0.333334
O O9 0.812411 0.098814 0.278792
O O10 0.000000 0.717762 0.333334
#
# Coordination Sequence:
#
# PCOD9584501 Si02
#       6
#     6  12   3  12  12   6
#     4  10  25  46  66  94 126 177 236 282 328 402
#     4  11  22  41  60  96 128 168 215 275 340 408
#     4  12  22  34  52  92 134 168 202 276 342 416
#     4  12  21  35  60  92 128 162 214 262 342 410
#     4  11  23  41  63  91 134 175 216 273 339 412
#     4  10  25  43  70  88 129 171 232 282 332 400
#
# _framework density 18.583169000000002
#
# number of rings (size 3 to 8) (size 9 to 14) (size 15 to 20)
#    0.000    0.941    3.529    3.882    1.647    2.824 
#    0.000    3.529    0.000    0.000    0.000    0.000 
#    0.000    0.000    0.000    0.000    0.000    0.000 
#
# Total GULP energy -283924.804143 kJ/mol
# GULP energy per Si atom -5567.153022 kJ/mol
# Density = 1.854087 g / cm^3
# Si number density = 18.583169 Si / 1000 Ang^3
#
#
#
# Elastic Constant Matrix: (Units=GPa)
#
#
# Indices 1 2 3 4 5 6 
#
# 1 133.0413 82.7757 31.7924 0.0000 0.0000 0.0000
# 2 82.7757 133.0413 31.7924 0.0000 0.0000 0.0000
# 3 31.7924 31.7924 55.0092 0.0000 0.0000 0.0000
# 4 0.0000 0.0000 0.0000 12.8732 0.0000 0.0000
# 5 0.0000 0.0000 0.0000 0.0000 12.8732 0.0000
# 6 0.0000 0.0000 0.0000 0.0000 0.0000 25.1328
#
#
#
# Elastic Compliance Matrix: (Units=1/GPa)
#
#
# Indices 1 2 3 4 5 6 
#
# 1 0.012739 -0.007155 -0.003228 0.000000 0.000000 0.000000
# 2 -0.007155 0.012739 -0.003228 0.000000 0.000000 0.000000
# 3 -0.003228 -0.003228 0.021909 0.000000 0.000000 0.000000
# 4 0.000000 0.000000 0.000000 0.077681 0.000000 0.000000
# 5 0.000000 0.000000 0.000000 0.000000 0.077681 0.000000
# 6 0.000000 0.000000 0.000000 0.000000 0.000000 0.039789
#
#
# Mechanical properties :
#
#
# Convention : Reuss Voigt Hill
#
# Bulk Modulus (GPa) = 49.58282 68.20142 58.89212
# Shear Modulus (GPa) = 18.08445 21.82463 19.95454
#
# Velocity S-wave (km/s) = 3.12294 3.43071 3.28044
# Velocity P-wave (km/s) = 6.30422 7.24385 6.79031
#
# Compressibility (1/GPa) = 0.02016828
#
# Stress axis : x y z
#
# Youngs Moduli (GPa) = 78.49681 78.49681 45.64246
#
# Poissons Ratio (x) = 0.56164 0.14731
# Poissons Ratio (y) = 0.56164 0.14731
# Poissons Ratio (z) = 0.25335 0.25335
#
# Static dielectric constant tensor:
#      x y z
#    x 1.667150 0.000000 0.000000 
#    y 0.000000 1.667150 0.000000 
#    z 0.000000 0.000000 1.690760 
# 
# From -- ./inp_files/6046.got.cif
#   From: 2010.05.17/outbox.cif.g08.bks.cpg/sg181_4_cif.got.tgz:6046.got - 2010.05.20 11:51:17.
