data_PCOD9584212
_publ_section_title
;
Structure prediction by ZEFSAII (Michael W. Deem and Ramdas Pophale) SiO2 
 PCOD9584212
Probable space group: P 64 2 2
;
_chemical_formula_sum "Si O2"
_cell_formula_units_Z 60
_cell_length_a 13.917941
_cell_length_b 13.917941
_cell_length_c 20.749677
_cell_angle_alpha 90.000000
_cell_angle_beta 90.000000
_cell_angle_gamma 120.000000
_cell_volume 3480.903267
_symmetry_space_group_name_H-M "P 64 2 2"
_symmetry_group_IT_number 181
_symmetry_cell_setting 'hexagonal'
loop_
_space_group_symop_operation_xyz
x,y,z
x-y,x,2/3+z
-y,x-y,1/3+z
-x,-y,z
-x+y,-x,2/3+z
y,-x+y,1/3+z
x-y,-y,-z
-x,-x+y,2/3-z
y,x,1/3-z
-y,-x,1/3-z
-x+y,y,-z
x,x-y,2/3-z
loop_
_atom_site_type_symbol
_atom_site_label
_atom_site_fract_x
_atom_site_fract_y
_atom_site_fract_z
Si Si1 0.898481 0.075310 0.060007
Si Si2 0.091415 0.872875 0.513144
Si Si3 0.146028 0.487662 0.466599
Si Si4 0.271839 0.867648 0.003075
Si Si5 0.881273 0.314580 0.475272
O O1 0.016787 0.153018 0.092147
O O2 0.824484 0.991956 0.117639
O O3 0.840557 0.143272 0.033071
O O4 0.892116 0.000000 0.000000
O O5 0.138564 0.789313 0.517788
O O6 0.180835 0.000000 0.500000
O O7 0.225460 0.450919 0.500000
O O8 0.173960 0.498087 0.390466
O O9 0.163063 0.602898 0.493995
O O10 0.015976 0.395939 0.473023
O O11 0.266838 0.833848 0.929418
O O12 0.353649 0.000000 0.000000
#
# Coordination Sequence:
#
# PCOD9584212 Si02
#       5
#    12  12  12  12  12
#     4  10  17  31  46  71 105 137 170 204 266 316
#     4  11  21  30  44  72 108 141 173 210 250 330
#     4  10  18  30  52  77 104 132 169 221 275 315
#     4   9  15  28  48  72 106 127 160 212 269 320
#     4  10  19  32  47  77 105 136 171 214 271 317
#
# _framework density 17.236906000000001
#
# number of rings (size 3 to 8) (size 9 to 14) (size 15 to 20)
#    0.000    2.000    6.000    3.000    0.000    4.000 
#    0.000    0.000    0.000    0.600   10.400    2.800 
#    0.000    0.000    0.000    0.000    0.000    0.000 
#
# Total GULP energy -334198.890003 kJ/mol
# GULP energy per Si atom -5569.981500 kJ/mol
# Density = 1.719767 g / cm^3
# Si number density = 17.236906 Si / 1000 Ang^3
#
#
#
# Elastic Constant Matrix: (Units=GPa)
#
#
# Indices 1 2 3 4 5 6 
#
# 1 55.8368 27.2269 10.8452 0.0000 0.0000 0.0000
# 2 27.2269 55.8368 10.8452 0.0000 0.0000 0.0000
# 3 10.8452 10.8452 59.8554 0.0000 0.0000 0.0000
# 4 0.0000 0.0000 0.0000 11.7659 0.0000 0.0000
# 5 0.0000 0.0000 0.0000 0.0000 11.7659 0.0000
# 6 0.0000 0.0000 0.0000 0.0000 0.0000 14.3050
#
#
#
# Elastic Compliance Matrix: (Units=1/GPa)
#
#
# Indices 1 2 3 4 5 6 
#
# 1 0.023795 -0.011158 -0.002290 0.000000 0.000000 0.000000
# 2 -0.011158 0.023795 -0.002290 0.000000 0.000000 0.000000
# 3 -0.002290 -0.002290 0.017537 0.000000 0.000000 0.000000
# 4 0.000000 0.000000 0.000000 0.084991 0.000000 0.000000
# 5 0.000000 0.000000 0.000000 0.000000 0.084991 0.000000
# 6 0.000000 0.000000 0.000000 0.000000 0.000000 0.069906
#
#
# Mechanical properties :
#
#
# Convention : Reuss Voigt Hill
#
# Bulk Modulus (GPa) = 29.71620 29.92929 29.82274
# Shear Modulus (GPa) = 14.37993 15.74147 15.06070
#
# Velocity S-wave (km/s) = 2.89148 3.02527 2.95913
# Velocity P-wave (km/s) = 5.33149 5.44097 5.38651
#
# Compressibility (1/GPa) = 0.03365168
#
# Stress axis : x y z
#
# Youngs Moduli (GPa) = 42.02585 42.02585 57.02343
#
# Poissons Ratio (x) = 0.46893 0.13057
# Poissons Ratio (y) = 0.46893 0.13057
# Poissons Ratio (z) = 0.09623 0.09623
#
# Static dielectric constant tensor:
#      x y z
#    x 1.623510 0.000000 0.000000 
#    y 0.000000 1.623510 0.000000 
#    z 0.000000 0.000000 1.620080 
# 
# From -- ./inp_files/8963.got.cif
#   From: 2010.05.17/outbox.cif.g08.bks.cpg/sg181_5_cif.got.tgz:8963.got - 2010.05.20 11:51:17.
