data_PCOD9584809
_publ_section_title
;
Structure prediction by ZEFSAII (Michael W. Deem and Ramdas Pophale) SiO2 
 PCOD9584809
Probable space group: P 63 2 2
;
_chemical_formula_sum "Si O2"
_cell_formula_units_Z 54
_cell_length_a 10.404721
_cell_length_b 10.404721
_cell_length_c 25.697980
_cell_angle_alpha 90.000000
_cell_angle_beta 90.000000
_cell_angle_gamma 120.000000
_cell_volume 2409.297871
_symmetry_space_group_name_H-M "P 63 2 2"
_symmetry_group_IT_number 182
_symmetry_cell_setting 'hexagonal'
loop_
_space_group_symop_operation_xyz
x,y,z
x-y,x,1/2+z
-y,x-y,z
-x,-y,1/2+z
-x+y,-x,z
y,-x+y,1/2+z
x-y,-y,-z
-x,-x+y,-z
y,x,-z
-y,-x,1/2-z
-x+y,y,1/2-z
x,x-y,1/2-z
loop_
_atom_site_type_symbol
_atom_site_label
_atom_site_fract_x
_atom_site_fract_y
_atom_site_fract_z
Si Si1 0.327920 0.069836 0.168481
Si Si2 0.597827 0.000535 0.830910
Si Si3 0.034473 0.624406 0.943515
Si Si4 0.061582 0.720407 0.554309
Si Si5 0.171228 0.828773 0.250000
O O1 0.469257 0.043157 0.169647
O O2 0.383666 0.241495 0.179943
O O3 0.260073 0.024769 0.109982
O O4 0.213703 0.965174 0.211518
O O5 0.663739 0.045953 0.889610
O O6 0.690993 0.124104 0.788553
O O7 0.202109 0.759531 0.939637
O O8 0.006125 0.459217 0.946311
O O9 0.000000 0.664170 0.000000
O O10 0.000000 0.747590 0.500000
#
# Coordination Sequence:
#
# PCOD9584809 Si02
#       5
#    12  12  12  12   6
#     4  10  22  43  66  91 118 163 213 257 300 358
#     4  10  22  43  66  91 118 163 213 257 300 358
#     4   9  18  33  59  87 118 151 195 244 294 352
#     4   9  18  33  59  87 118 151 195 244 294 352
#     4  12  24  36  58  92 126 152 196 248 324 360
#
# _framework density 22.413167999999999
#
# number of rings (size 3 to 8) (size 9 to 14) (size 15 to 20)
#    0.000    2.222    0.000    2.222    3.111    3.556 
#   10.667    2.222    0.000    0.444    0.000    0.000 
#    0.000    0.000    0.000    0.000    0.000    0.000 
#
# Total GULP energy -300618.951122 kJ/mol
# GULP energy per Si atom -5567.017613 kJ/mol
# Density = 2.236215 g / cm^3
# Si number density = 22.413168 Si / 1000 Ang^3
#
#
#
# Elastic Constant Matrix: (Units=GPa)
#
#
# Indices 1 2 3 4 5 6 
#
# 1 39.6144 15.9764 40.8317 0.0000 0.0000 0.0000
# 2 15.9764 39.6144 40.8317 0.0000 0.0000 0.0000
# 3 40.8317 40.8317 213.7874 0.0000 0.0000 0.0000
# 4 0.0000 0.0000 0.0000 24.0894 0.0000 0.0000
# 5 0.0000 0.0000 0.0000 0.0000 24.0894 0.0000
# 6 0.0000 0.0000 0.0000 0.0000 0.0000 11.8190
#
#
#
# Elastic Compliance Matrix: (Units=1/GPa)
#
#
# Indices 1 2 3 4 5 6 
#
# 1 0.033654 -0.008650 -0.004776 0.000000 0.000000 0.000000
# 2 -0.008650 0.033654 -0.004776 0.000000 0.000000 0.000000
# 3 -0.004776 -0.004776 0.006502 0.000000 0.000000 0.000000
# 4 0.000000 0.000000 0.000000 0.041512 0.000000 0.000000
# 5 0.000000 0.000000 0.000000 0.000000 0.041512 0.000000
# 6 0.000000 0.000000 0.000000 0.000000 0.000000 0.084609
#
#
# Mechanical properties :
#
#
# Convention : Reuss Voigt Hill
#
# Bulk Modulus (GPa) = 26.73271 54.25509 40.49390
# Shear Modulus (GPa) = 17.22262 25.02466 21.12364
#
# Velocity S-wave (km/s) = 2.77504 3.34506 3.07329
# Velocity P-wave (km/s) = 4.71391 6.25928 5.54073
#
# Compressibility (1/GPa) = 0.03740736
#
# Stress axis : x y z
#
# Youngs Moduli (GPa) = 29.71387 29.71387 153.80519
#
# Poissons Ratio (x) = 0.25704 0.73450
# Poissons Ratio (y) = 0.25704 0.73450
# Poissons Ratio (z) = 0.14190 0.14190
#
# Static dielectric constant tensor:
#      x y z
#    x 1.827410 0.000000 0.000000 
#    y 0.000000 1.827410 0.000000 
#    z 0.000000 0.000000 1.960790 
# 
# From -- ./inp_files/5183.got.cif
#   From: 2010.05.17/outbox.cif.g08.bks.cpg/sg182_3_cif.got.tgz:5183.got - 2010.05.20 11:58:53.
