data_PCOD9584292
_publ_section_title
;
Structure prediction by ZEFSAII (Michael W. Deem and Ramdas Pophale) SiO2 
 PCOD9584292
Probable space group: P 64 2 2
;
_chemical_formula_sum "Si O2"
_cell_formula_units_Z 54
_cell_length_a 19.196618
_cell_length_b 19.196618
_cell_length_c 9.135512
_cell_angle_alpha 90.000000
_cell_angle_beta 90.000000
_cell_angle_gamma 120.000000
_cell_volume 2915.499490
_symmetry_space_group_name_H-M "P 64 2 2"
_symmetry_group_IT_number 181
_symmetry_cell_setting 'hexagonal'
loop_
_space_group_symop_operation_xyz
x,y,z
x-y,x,2/3+z
-y,x-y,1/3+z
-x,-y,z
-x+y,-x,2/3+z
y,-x+y,1/3+z
x-y,-y,-z
-x,-x+y,2/3-z
y,x,1/3-z
-y,-x,1/3-z
-x+y,y,-z
x,x-y,2/3-z
loop_
_atom_site_type_symbol
_atom_site_label
_atom_site_fract_x
_atom_site_fract_y
_atom_site_fract_z
Si Si1 0.889353 0.402888 0.077544
Si Si2 0.500000 0.500000 0.666667
Si Si3 0.803150 0.581731 0.653588
Si Si4 0.500000 0.000000 0.500000
Si Si5 0.157412 0.697144 0.579761
Si Si6 0.084208 0.305921 0.909867
O O1 0.822982 0.310789 0.057902
O O2 0.857842 0.466241 0.067174
O O3 0.943982 0.427861 0.223101
O O4 0.947030 0.425576 0.937618
O O5 0.812429 0.624858 0.500000
O O6 0.720398 0.547180 0.742426
O O7 0.864221 0.642219 0.771773
O O8 0.237887 0.762114 0.666667
O O9 0.087919 0.713076 0.645793
O O10 0.000000 0.244462 0.833334
O O11 0.137439 0.274878 0.000000
#
# Coordination Sequence:
#
# PCOD9584292 Si02
#       6
#    12   3  12   3  12  12
#     4  11  21  35  51  76 106 138 202 236 289 330
#     4  10  24  30  48  78 100 130 180 258 294 326
#     4  10  21  36  51  75 111 146 188 242 292 334
#     4  10  20  30  56  78  88 138 188 234 270 338
#     4   9  20  35  51  75 103 146 197 242 289 339
#     4   9  20  37  59  84 113 146 184 227 279 348
#
# _framework density 18.521698000000001
#
# number of rings (size 3 to 8) (size 9 to 14) (size 15 to 20)
#    0.000    2.667    0.000    4.000    9.333    0.000 
#    4.000    0.000    0.000    0.000    0.000    0.000 
#    0.000    4.444    0.000    0.000    0.000    0.000 
#
# Total GULP energy -300761.867331 kJ/mol
# GULP energy per Si atom -5569.664210 kJ/mol
# Density = 1.847954 g / cm^3
# Si number density = 18.521698 Si / 1000 Ang^3
#
#
#
# Elastic Constant Matrix: (Units=GPa)
#
#
# Indices 1 2 3 4 5 6 
#
# 1 78.2703 41.6144 37.6386 0.0000 0.0000 0.0000
# 2 41.6144 78.2703 37.6386 0.0000 0.0000 0.0000
# 3 37.6386 37.6386 160.0881 0.0000 0.0000 0.0000
# 4 0.0000 0.0000 0.0000 23.0181 0.0000 0.0000
# 5 0.0000 0.0000 0.0000 0.0000 23.0181 0.0000
# 6 0.0000 0.0000 0.0000 0.0000 0.0000 18.3279
#
#
#
# Elastic Compliance Matrix: (Units=1/GPa)
#
#
# Indices 1 2 3 4 5 6 
#
# 1 0.018533 -0.008747 -0.002301 0.000000 0.000000 0.000000
# 2 -0.008747 0.018533 -0.002301 0.000000 0.000000 0.000000
# 3 -0.002301 -0.002301 0.007328 0.000000 0.000000 0.000000
# 4 0.000000 0.000000 0.000000 0.043444 0.000000 0.000000
# 5 0.000000 0.000000 0.000000 0.000000 0.043444 0.000000
# 6 0.000000 0.000000 0.000000 0.000000 0.000000 0.054562
#
#
# Mechanical properties :
#
#
# Convention : Reuss Voigt Hill
#
# Bulk Modulus (GPa) = 56.50575 61.15687 58.83131
# Shear Modulus (GPa) = 22.88936 26.18862 24.53899
#
# Velocity S-wave (km/s) = 3.51923 3.76432 3.64384
# Velocity P-wave (km/s) = 6.86202 7.21001 7.03817
#
# Compressibility (1/GPa) = 0.01769731
#
# Stress axis : x y z
#
# Youngs Moduli (GPa) = 53.95660 53.95660 136.45432
#
# Poissons Ratio (x) = 0.47198 0.31396
# Poissons Ratio (y) = 0.47198 0.31396
# Poissons Ratio (z) = 0.12414 0.12414
#
# Static dielectric constant tensor:
#      x y z
#    x 1.689350 0.000000 0.000000 
#    y 0.000000 1.689350 0.000000 
#    z 0.000000 0.000000 1.714060 
# 
# From -- ./inp_files/3065.got.cif
#   From: 2010.05.17/outbox.cif.g08.bks.cpg/sg181_2_cif.got.tgz:3065.got - 2010.05.20 11:51:17.
