data_PCOD9584248
_publ_section_title
;
Structure prediction by ZEFSAII (Michael W. Deem and Ramdas Pophale) SiO2 
 PCOD9584248
Probable space group: P 64 2 2
;
_chemical_formula_sum "Si O2"
_cell_formula_units_Z 96
_cell_length_a 23.433783
_cell_length_b 23.433783
_cell_length_c 12.061247
_cell_angle_alpha 90.000000
_cell_angle_beta 90.000000
_cell_angle_gamma 120.000000
_cell_volume 5735.980299
_symmetry_space_group_name_H-M "P 64 2 2"
_symmetry_group_IT_number 181
_symmetry_cell_setting 'hexagonal'
loop_
_space_group_symop_operation_xyz
x,y,z
x-y,x,2/3+z
-y,x-y,1/3+z
-x,-y,z
-x+y,-x,2/3+z
y,-x+y,1/3+z
x-y,-y,-z
-x,-x+y,2/3-z
y,x,1/3-z
-y,-x,1/3-z
-x+y,y,-z
x,x-y,2/3-z
loop_
_atom_site_type_symbol
_atom_site_label
_atom_site_fract_x
_atom_site_fract_y
_atom_site_fract_z
Si Si1 0.761908 0.604509 0.776187
Si Si2 0.447156 0.923340 0.369330
Si Si3 0.150925 0.181081 0.555796
Si Si4 0.231372 0.894115 0.115706
Si Si5 0.889783 0.343664 0.633421
Si Si6 0.264108 0.183840 0.414762
Si Si7 0.696892 0.125980 0.445637
Si Si8 0.316545 0.986126 0.314667
O O1 0.737744 0.618931 0.660127
O O2 0.706285 0.560333 0.866072
O O3 0.802224 0.676089 0.835469
O O4 0.810254 0.576090 0.749979
O O5 0.459548 0.919096 0.500000
O O6 0.475252 0.884540 0.299407
O O7 0.368082 0.891616 0.371434
O O8 0.500000 0.000000 0.342227
O O9 0.140727 0.140727 0.666667
O O10 0.084194 0.168387 0.500000
O O11 0.192691 0.259685 0.583096
O O12 0.197970 0.167927 0.477288
O O13 0.175352 0.824649 0.166667
O O14 0.283508 0.938008 0.209335
O O15 0.867536 0.313749 0.757192
O O16 0.965932 0.360425 0.631423
O O17 0.254106 0.127053 0.333334
O O18 0.287549 0.252436 0.350886
O O19 0.701477 0.060871 0.420409
#
# Coordination Sequence:
#
# PCOD9584248 Si02
#       8
#    12  12  12  12  12  12  12  12
#     4  11  20  33  52  81 118 141 181 233 288 331
#     4   9  17  31  50  75 112 151 184 211 267 344
#     4  10  20  37  57  73 100 144 186 228 278 344
#     4  10  19  33  51  76 105 146 184 220 269 338
#     4  10  20  31  48  79 115 147 171 229 284 331
#     4  10  21  34  50  79 112 141 174 231 291 337
#     4  11  19  32  53  81 114 144 182 226 279 343
#     4  10  19  30  51  76 107 150 183 220 272 333
#
# _framework density 16.736459
#
# number of rings (size 3 to 8) (size 9 to 14) (size 15 to 20)
#    0.000    1.875    3.750    2.250    0.000    0.000 
#    0.000    3.125    0.000    1.875    0.000    0.000 
#   33.750    0.000    0.000    0.000    0.000    0.000 
#
# Total GULP energy -534814.496456 kJ/mol
# GULP energy per Si atom -5570.984338 kJ/mol
# Density = 1.669837 g / cm^3
# Si number density = 16.736459 Si / 1000 Ang^3
#
#
#
# Elastic Constant Matrix: (Units=GPa)
#
#
# Indices 1 2 3 4 5 6 
#
# 1 73.4647 36.8723 32.6036 0.0000 0.0000 0.0000
# 2 36.8723 73.4647 32.6036 0.0000 0.0000 0.0000
# 3 32.6036 32.6036 66.1642 0.0000 0.0000 0.0000
# 4 0.0000 0.0000 0.0000 21.4594 0.0000 0.0000
# 5 0.0000 0.0000 0.0000 0.0000 21.4594 0.0000
# 6 0.0000 0.0000 0.0000 0.0000 0.0000 18.2962
#
#
#
# Elastic Compliance Matrix: (Units=1/GPa)
#
#
# Indices 1 2 3 4 5 6 
#
# 1 0.020058 -0.007271 -0.006301 0.000000 0.000000 0.000000
# 2 -0.007271 0.020058 -0.006301 0.000000 0.000000 0.000000
# 3 -0.006301 -0.006301 0.021324 0.000000 0.000000 0.000000
# 4 0.000000 0.000000 0.000000 0.046600 0.000000 0.000000
# 5 0.000000 0.000000 0.000000 0.000000 0.046600 0.000000
# 6 0.000000 0.000000 0.000000 0.000000 0.000000 0.054656
#
#
# Mechanical properties :
#
#
# Convention : Reuss Voigt Hill
#
# Bulk Modulus (GPa) = 46.09644 46.36141 46.22893
# Shear Modulus (GPa) = 19.51062 19.64392 19.57727
#
# Velocity S-wave (km/s) = 3.41802 3.42968 3.42385
# Velocity P-wave (km/s) = 6.57111 6.59125 6.58119
#
# Compressibility (1/GPa) = 0.02169365
#
# Stress axis : x y z
#
# Youngs Moduli (GPa) = 49.85660 49.85660 46.89603
#
# Poissons Ratio (x) = 0.36249 0.29549
# Poissons Ratio (y) = 0.36249 0.29549
# Poissons Ratio (z) = 0.31415 0.31415
#
# Static dielectric constant tensor:
#      x y z
#    x 1.588420 0.000000 0.000000 
#    y 0.000000 1.588420 0.000000 
#    z 0.000000 0.000000 1.580690 
# 
# From -- ./inp_files/5221.got.cif
#   From: 2010.05.17/outbox.cif.g08.bks.cpg/sg181_3_cif.got.tgz:5221.got - 2010.05.20 11:51:17.
