data_PCOD9584172
_publ_section_title
;
Structure prediction by ZEFSAII (Michael W. Deem and Ramdas Pophale) SiO2 
 PCOD9584172
Probable space group: P 62 2 2
;
_chemical_formula_sum "Si O2"
_cell_formula_units_Z 69
_cell_length_a 13.508124
_cell_length_b 13.508124
_cell_length_c 17.752199
_cell_angle_alpha 90.000000
_cell_angle_beta 90.000000
_cell_angle_gamma 120.000000
_cell_volume 2805.258369
_symmetry_space_group_name_H-M "P 62 2 2"
_symmetry_group_IT_number 180
_symmetry_cell_setting 'hexagonal'
loop_
_space_group_symop_operation_xyz
x,y,z
x-y,x,1/3+z
-y,x-y,2/3+z
-x,-y,z
-x+y,-x,1/3+z
y,-x+y,2/3+z
x-y,-y,-z
-x,-x+y,1/3-z
y,x,2/3-z
-y,-x,2/3-z
-x+y,y,-z
x,x-y,1/3-z
loop_
_atom_site_type_symbol
_atom_site_label
_atom_site_fract_x
_atom_site_fract_y
_atom_site_fract_z
Si Si1 0.680259 0.731200 0.253268
Si Si2 0.907921 0.308994 0.060523
Si Si3 0.552960 0.417164 0.610203
Si Si4 0.366146 0.229886 0.527661
Si Si5 0.500000 0.000000 0.500000
Si Si6 0.505874 0.252937 0.166667
Si Si7 0.825192 0.841684 0.043354
O O1 0.677368 0.677368 0.333334
O O2 0.678057 0.647896 0.188926
O O3 0.575979 0.748802 0.232539
O O4 0.791429 0.859567 0.255886
O O5 0.833933 0.231423 0.130579
O O6 0.011489 0.419983 0.100434
O O7 0.839719 0.360759 0.013803
O O8 0.948706 0.237167 0.009228
O O9 0.500000 0.500000 0.602227
O O10 0.449395 0.289025 0.598325
O O11 0.625886 0.423618 0.537383
O O12 0.239743 0.163068 0.562085
O O13 0.942723 0.885445 0.000000
#
# Coordination Sequence:
#
# PCOD9584172 Si02
#       7
#    12  12  12  12   3   6  12
#     4  12  21  42  69  99 145 189 240 305 371 447
#     4  12  24  46  70 105 143 188 253 300 379 464
#     4  12  22  45  77 101 143 197 244 313 384 441
#     4  12  24  44  74 105 142 200 247 307 388 447
#     4  12  24  42  68  88 134 192 224 304 360 436
#     4  12  22  43  72 103 140 191 247 312 382 452
#     4  12  24  42  71 105 147 195 245 308 374 459
#
# _framework density 24.596664000000001
#
# number of rings (size 3 to 8) (size 9 to 14) (size 15 to 20)
#    0.000    0.000    9.565    1.043    0.000    1.043 
#    0.000    6.087    3.826    0.000    0.000    0.000 
#    0.000    0.000    0.000    0.000    0.000    0.000 
#
# Total GULP energy -384230.089037 kJ/mol
# GULP energy per Si atom -5568.552015 kJ/mol
# Density = 2.454068 g / cm^3
# Si number density = 24.596664 Si / 1000 Ang^3
#
#
#
# Elastic Constant Matrix: (Units=GPa)
#
#
# Indices 1 2 3 4 5 6 
#
# 1 57.4894 30.1653 43.5255 0.0000 0.0000 0.0000
# 2 30.1653 57.4894 43.5255 0.0000 0.0000 0.0000
# 3 43.5255 43.5255 134.0305 0.0000 0.0000 0.0000
# 4 0.0000 0.0000 0.0000 50.4807 0.0000 0.0000
# 5 0.0000 0.0000 0.0000 0.0000 50.4807 0.0000
# 6 0.0000 0.0000 0.0000 0.0000 0.0000 13.6620
#
#
#
# Elastic Compliance Matrix: (Units=1/GPa)
#
#
# Indices 1 2 3 4 5 6 
#
# 1 0.026718 -0.009879 -0.005468 0.000000 0.000000 0.000000
# 2 -0.009879 0.026718 -0.005468 0.000000 0.000000 0.000000
# 3 -0.005468 -0.005468 0.011013 0.000000 0.000000 0.000000
# 4 0.000000 0.000000 0.000000 0.019810 0.000000 0.000000
# 5 0.000000 0.000000 0.000000 0.000000 0.019810 0.000000
# 6 0.000000 0.000000 0.000000 0.000000 0.000000 0.073196
#
#
# Mechanical properties :
#
#
# Convention : Reuss Voigt Hill
#
# Bulk Modulus (GPa) = 43.82636 53.71578 48.77107
# Shear Modulus (GPa) = 22.07485 31.71089 26.89287
#
# Velocity S-wave (km/s) = 2.99904 3.59449 3.31018
# Velocity P-wave (km/s) = 5.46342 6.25405 5.87206
#
# Compressibility (1/GPa) = 0.02281732
#
# Stress axis : x y z
#
# Youngs Moduli (GPa) = 37.42733 37.42733 90.80470
#
# Poissons Ratio (x) = 0.36976 0.49656
# Poissons Ratio (y) = 0.36976 0.49656
# Poissons Ratio (z) = 0.20467 0.20467
#
# Static dielectric constant tensor:
#      x y z
#    x 1.979130 0.000000 0.000000 
#    y 0.000000 1.979130 0.000000 
#    z 0.000000 0.000000 2.006430 
# 
# From -- ./inp_files/7853.got.cif
#   From: 2010.05.17/outbox.cif.g08.bks.cpg/sg180_4_cif.got.tgz:7853.got - 2010.05.20 11:43:55.
