data_PCOD9584923
_publ_section_title
;
Structure prediction by ZEFSAII (Michael W. Deem and Ramdas Pophale) SiO2 
 PCOD9584923
Probable space group: P 6 M M
;
_chemical_formula_sum "Si O2"
_cell_formula_units_Z 72
_cell_length_a 19.304608
_cell_length_b 19.304608
_cell_length_c 15.134635
_cell_angle_alpha 90.000000
_cell_angle_beta 90.000000
_cell_angle_gamma 120.000000
_cell_volume 4884.549980
_symmetry_space_group_name_H-M "P 6 M M"
_symmetry_group_IT_number 183
_symmetry_cell_setting 'hexagonal'
loop_
_space_group_symop_operation_xyz
x,y,z
x-y,x,z
-y,x-y,z
-x,-y,z
-x+y,-x,z
y,-x+y,z
-x+y,y,z
x,x-y,z
-y,-x,z
y,x,z
x-y,-y,z
-x,-x+y,z
loop_
_atom_site_type_symbol
_atom_site_label
_atom_site_fract_x
_atom_site_fract_y
_atom_site_fract_z
Si Si1 0.340604 0.092294 0.686170
Si Si2 0.371077 0.909869 0.189982
Si Si3 0.251760 0.908104 0.897741
Si Si4 0.626743 0.530699 0.561683
Si Si5 0.171958 0.668037 0.006539
Si Si6 0.498602 0.830856 0.372051
O O1 0.313454 0.156727 0.665040
O O2 0.353570 0.094713 0.791604
O O3 0.422698 0.117147 0.634424
O O4 0.277923 0.000000 0.662705
O O5 0.456356 0.912711 0.194197
O O6 0.327081 0.853760 0.107055
O O7 0.331393 0.878154 0.285033
O O8 0.391230 0.000000 0.173541
O O9 0.160784 0.839217 0.921129
O O10 0.279940 0.000000 0.921565
O O11 0.309967 0.881366 0.943702
O O12 0.562228 0.437773 0.581185
O O13 0.576236 0.576236 0.558055
O O14 0.663391 0.535958 0.465076
O O15 0.159990 0.579995 0.992446
O O16 0.263846 0.736155 0.993345
O O17 0.413106 0.826211 0.367315
O O18 0.487213 0.743607 0.370589
#
# Coordination Sequence:
#
# PCOD9584923 Si02
#       6
#    12  12  12  12  12  12
#     4   9  17  30  47  66  87 111 141 175 213 257
#     4   9  17  28  41  56  75 102 137 176 214 251
#     4   9  18  31  47  66  87 112 141 175 214 256
#     4   9  17  28  42  60  82 109 141 176 210 246
#     4  10  19  30  44  63  88 116 146 178 212 250
#     4  10  18  27  39  55  77 104 135 171 212 255
#
# _framework density 14.740354
#
# number of rings (size 3 to 8) (size 9 to 14) (size 15 to 20)
#    0.000    2.667    0.000    2.333    0.000    3.667 
#    0.000    3.333    0.000    0.667    0.000    2.333 
#    0.000    0.000    0.000    0.000    0.000    0.000 
#
# Total GULP energy -400839.636244 kJ/mol
# GULP energy per Si atom -5567.217170 kJ/mol
# Density = 1.470680 g / cm^3
# Si number density = 14.740354 Si / 1000 Ang^3
#
#
#
# Elastic Constant Matrix: (Units=GPa)
#
#
# Indices 1 2 3 4 5 6 
#
# 1 67.4660 44.0703 33.3141 0.0000 0.0000 0.0000
# 2 44.0703 67.4660 33.3141 0.0000 0.0000 0.0000
# 3 33.3141 33.3141 41.8146 0.0000 0.0000 0.0000
# 4 0.0000 0.0000 0.0000 19.0102 0.0000 0.0000
# 5 0.0000 0.0000 0.0000 0.0000 19.0102 0.0000
# 6 0.0000 0.0000 0.0000 0.0000 0.0000 11.6978
#
#
#
# Elastic Compliance Matrix: (Units=1/GPa)
#
#
# Indices 1 2 3 4 5 6 
#
# 1 0.029925 -0.012818 -0.013630 0.000000 0.000000 0.000000
# 2 -0.012818 0.029925 -0.013630 0.000000 0.000000 0.000000
# 3 -0.013630 -0.013630 0.045633 0.000000 0.000000 0.000000
# 4 0.000000 0.000000 0.000000 0.052603 0.000000 0.000000
# 5 0.000000 0.000000 0.000000 0.000000 0.052603 0.000000
# 6 0.000000 0.000000 0.000000 0.000000 0.000000 0.085486
#
#
# Mechanical properties :
#
#
# Convention : Reuss Voigt Hill
#
# Bulk Modulus (GPa) = 39.48027 44.23820 41.85923
# Shear Modulus (GPa) = 12.99461 14.34683 13.67072
#
# Velocity S-wave (km/s) = 2.97234 3.12317 3.04869
# Velocity P-wave (km/s) = 6.21464 6.56371 6.39156
#
# Compressibility (1/GPa) = 0.02532911
#
# Stress axis : x y z
#
# Youngs Moduli (GPa) = 33.41646 33.41646 21.91380
#
# Poissons Ratio (x) = 0.42832 0.29868
# Poissons Ratio (y) = 0.42832 0.29868
# Poissons Ratio (z) = 0.45546 0.45546
#
# Static dielectric constant tensor:
#      x y z
#    x 1.484150 0.000000 0.000000 
#    y 0.000000 1.484150 0.000000 
#    z 0.000000 0.000000 1.491990 
# 
# From -- ./inp_files/2486.got.cif
#   From: 2010.05.17/outbox.cif.g08.bks.cpg/sg183_2_cif.got.tgz:2486.got - 2010.05.20 12:02:58.
