data_PCOD9584245
_publ_section_title
;
Structure prediction by ZEFSAII (Michael W. Deem and Ramdas Pophale) SiO2 
 PCOD9584245
Probable space group: P 64 2 2
;
_chemical_formula_sum "Si O2"
_cell_formula_units_Z 39
_cell_length_a 8.511072
_cell_length_b 8.511072
_cell_length_c 28.773312
_cell_angle_alpha 90.000000
_cell_angle_beta 90.000000
_cell_angle_gamma 120.000000
_cell_volume 1805.049082
_symmetry_space_group_name_H-M "P 64 2 2"
_symmetry_group_IT_number 181
_symmetry_cell_setting 'hexagonal'
loop_
_space_group_symop_operation_xyz
x,y,z
x-y,x,2/3+z
-y,x-y,1/3+z
-x,-y,z
-x+y,-x,2/3+z
y,-x+y,1/3+z
x-y,-y,-z
-x,-x+y,2/3-z
y,x,1/3-z
-y,-x,1/3-z
-x+y,y,-z
x,x-y,2/3-z
loop_
_atom_site_type_symbol
_atom_site_label
_atom_site_fract_x
_atom_site_fract_y
_atom_site_fract_z
Si Si1 0.790054 0.728093 0.741628
Si Si2 0.000000 0.000000 0.666667
Si Si3 0.500000 0.000000 0.779839
Si Si4 0.325112 0.607815 0.612693
Si Si5 0.127420 0.872581 0.166667
O O1 0.732974 0.519030 0.744502
O O2 0.602292 0.721392 0.725437
O O3 0.840340 0.829060 0.790915
O O4 0.939552 0.833352 0.702140
O O5 0.622982 0.168559 0.746588
O O6 0.382619 0.058265 0.810771
O O7 0.343944 0.656057 0.666667
#
# Coordination Sequence:
#
# PCOD9584245 Si02
#       5
#    12   3   6  12   6
#     4  10  20  35  65  86 132 164 231 274 339 387
#     4  12  20  36  60  96 116 188 212 294 320 400
#     4  10  20  34  64  89 134 173 228 272 356 406
#     4  10  18  38  59  95 123 173 215 286 329 411
#     4  10  20  37  54  96 122 175 214 279 330 418
#
# _framework density 21.606059999999999
#
# number of rings (size 3 to 8) (size 9 to 14) (size 15 to 20)
#    0.000    1.846    3.077    4.615    0.000    0.615 
#   11.077    0.000    0.000    0.000    0.000    8.615 
#    0.000    0.000    0.000    0.000    0.000    0.000 
#
# Total GULP energy -217886.684473 kJ/mol
# GULP energy per Si atom -5586.838063 kJ/mol
# Density = 2.155688 g / cm^3
# Si number density = 21.606060 Si / 1000 Ang^3
#
#
#
# Elastic Constant Matrix: (Units=GPa)
#
#
# Indices 1 2 3 4 5 6 
#
# 1 97.3767 43.0910 58.1960 0.0000 0.0000 0.0000
# 2 43.0910 97.3767 58.1960 0.0000 0.0000 0.0000
# 3 58.1960 58.1960 182.0078 0.0000 0.0000 0.0000
# 4 0.0000 0.0000 0.0000 8.9149 0.0000 0.0000
# 5 0.0000 0.0000 0.0000 0.0000 8.9149 0.0000
# 6 0.0000 0.0000 0.0000 0.0000 0.0000 27.1428
#
#
#
# Elastic Compliance Matrix: (Units=1/GPa)
#
#
# Indices 1 2 3 4 5 6 
#
# 1 0.014053 -0.004368 -0.003097 0.000000 0.000000 0.000000
# 2 -0.004368 0.014053 -0.003097 0.000000 0.000000 0.000000
# 3 -0.003097 -0.003097 0.007475 0.000000 0.000000 0.000000
# 4 0.000000 0.000000 0.000000 0.112172 0.000000 0.000000
# 5 0.000000 0.000000 0.000000 0.000000 0.112172 0.000000
# 6 0.000000 0.000000 0.000000 0.000000 0.000000 0.036842
#
#
# Mechanical properties :
#
#
# Convention : Reuss Voigt Hill
#
# Bulk Modulus (GPa) = 69.16713 77.30299 73.23506
# Shear Modulus (GPa) = 15.49383 23.47973 19.48678
#
# Velocity S-wave (km/s) = 2.68079 3.30012 3.00644
# Velocity P-wave (km/s) = 6.45480 7.09768 6.78386
#
# Compressibility (1/GPa) = 0.01445773
#
# Stress axis : x y z
#
# Youngs Moduli (GPa) = 71.15890 71.15890 133.78639
#
# Poissons Ratio (x) = 0.31082 0.41430
# Poissons Ratio (y) = 0.31082 0.41430
# Poissons Ratio (z) = 0.22036 0.22036
#
# Static dielectric constant tensor:
#      x y z
#    x 1.812660 0.000000 0.000000 
#    y 0.000000 1.812660 0.000000 
#    z 0.000000 0.000000 1.791470 
# 
# From -- ./inp_files/11827.got.cif
#   From: 2010.05.17/outbox.cif.g08.bks.cpg/sg181_6_cif.got.tgz:11827.got - 2010.05.20 11:51:17.
