data_PCOD9584217
_publ_section_title
;
Structure prediction by ZEFSAII (Michael W. Deem and Ramdas Pophale) SiO2 
 PCOD9584217
Probable space group: P 64 2 2
;
_chemical_formula_sum "Si O2"
_cell_formula_units_Z 84
_cell_length_a 18.069196
_cell_length_b 18.069196
_cell_length_c 16.108321
_cell_angle_alpha 90.000000
_cell_angle_beta 90.000000
_cell_angle_gamma 120.000000
_cell_volume 4554.687286
_symmetry_space_group_name_H-M "P 64 2 2"
_symmetry_group_IT_number 181
_symmetry_cell_setting 'hexagonal'
loop_
_space_group_symop_operation_xyz
x,y,z
x-y,x,2/3+z
-y,x-y,1/3+z
-x,-y,z
-x+y,-x,2/3+z
y,-x+y,1/3+z
x-y,-y,-z
-x,-x+y,2/3-z
y,x,1/3-z
-y,-x,1/3-z
-x+y,y,-z
x,x-y,2/3-z
loop_
_atom_site_type_symbol
_atom_site_label
_atom_site_fract_x
_atom_site_fract_y
_atom_site_fract_z
Si Si1 0.130232 0.530621 0.950815
Si Si2 0.848336 0.407318 0.518284
Si Si3 0.384326 0.338657 0.583374
Si Si4 0.181868 0.785124 0.973609
Si Si5 0.307013 0.596526 0.258454
Si Si6 0.089464 0.399542 0.542946
Si Si7 0.601638 0.973224 0.613514
O O1 0.143036 0.536790 0.050567
O O2 0.076254 0.577037 0.927528
O O3 0.071325 0.432626 0.921782
O O4 0.223190 0.591904 0.914990
O O5 0.911395 0.385473 0.466286
O O6 0.754558 0.347114 0.481505
O O7 0.869423 0.504550 0.508514
O O8 0.389078 0.389078 0.666667
O O9 0.365068 0.244516 0.609029
O O10 0.310677 0.337546 0.526409
O O11 0.157349 0.772845 0.071800
O O12 0.090505 0.727893 0.926615
O O13 0.232348 0.733754 0.957195
O O14 0.297383 0.648692 0.333334
O O15 0.028821 0.395592 0.619486
#
# Coordination Sequence:
#
# PCOD9584217 Si02
#       7
#    12  12  12  12  12  12  12
#     4   9  14  30  44  55  76 114 159 207 275 324
#     4  10  18  29  40  54  85 121 169 208 280 332
#     4  11  21  27  41  67  89 117 173 226 262 344
#     4   8  18  34  41  62  85 121 173 214 277 321
#     4  10  20  27  36  60  84 115 161 219 270 318
#     4   9  17  31  46  54  83 130 157 210 289 316
#     4   7  13  28  48  56  69 114 161 199 265 332
#
# _framework density 18.442539
#
# number of rings (size 3 to 8) (size 9 to 14) (size 15 to 20)
#    0.857    2.000    2.857    0.429    4.000    1.714 
#    0.000    0.000    0.000    0.000    0.000    0.000 
#    0.000   56.000    0.000    0.000    0.000    0.714 
#
# Total GULP energy -467780.570071 kJ/mol
# GULP energy per Si atom -5568.816310 kJ/mol
# Density = 1.840056 g / cm^3
# Si number density = 18.442539 Si / 1000 Ang^3
#
#
#
# Elastic Constant Matrix: (Units=GPa)
#
#
# Indices 1 2 3 4 5 6 
#
# 1 82.4884 48.2226 39.4569 0.0000 0.0000 0.0000
# 2 48.2226 82.4884 39.4569 0.0000 0.0000 0.0000
# 3 39.4569 39.4569 94.1867 0.0000 0.0000 0.0000
# 4 0.0000 0.0000 0.0000 19.5867 0.0000 0.0000
# 5 0.0000 0.0000 0.0000 0.0000 19.5867 0.0000
# 6 0.0000 0.0000 0.0000 0.0000 0.0000 17.1329
#
#
#
# Elastic Compliance Matrix: (Units=1/GPa)
#
#
# Indices 1 2 3 4 5 6 
#
# 1 0.019712 -0.009472 -0.004290 0.000000 0.000000 0.000000
# 2 -0.009472 0.019712 -0.004290 0.000000 0.000000 0.000000
# 3 -0.004290 -0.004290 0.014212 0.000000 0.000000 0.000000
# 4 0.000000 0.000000 0.000000 0.051055 0.000000 0.000000
# 5 0.000000 0.000000 0.000000 0.000000 0.051055 0.000000
# 6 0.000000 0.000000 0.000000 0.000000 0.000000 0.058367
#
#
# Mechanical properties :
#
#
# Convention : Reuss Voigt Hill
#
# Bulk Modulus (GPa) = 57.03665 57.04850 57.04257
# Shear Modulus (GPa) = 19.52665 20.06305 19.79485
#
# Velocity S-wave (km/s) = 3.25743 3.30186 3.27972
# Velocity P-wave (km/s) = 6.71875 6.74809 6.73343
#
# Compressibility (1/GPa) = 0.01753259
#
# Stress axis : x y z
#
# Youngs Moduli (GPa) = 50.73042 50.73042 70.36542
#
# Poissons Ratio (x) = 0.48050 0.30186
# Poissons Ratio (y) = 0.48050 0.30186
# Poissons Ratio (z) = 0.21763 0.21763
#
# Static dielectric constant tensor:
#      x y z
#    x 1.664750 0.000000 0.000000 
#    y 0.000000 1.664750 0.000000 
#    z 0.000000 0.000000 1.733680 
# 
# From -- ./inp_files/9165.got.cif
#   From: 2010.05.17/outbox.cif.g08.bks.cpg/sg181_5_cif.got.tgz:9165.got - 2010.05.20 11:51:17.
