data_PCOD9584873
_publ_section_title
;
Structure prediction by ZEFSAII (Michael W. Deem and Ramdas Pophale) SiO2 
 PCOD9584873
Probable space group: P 63 2 2
;
_chemical_formula_sum "Si O2"
_cell_formula_units_Z 42
_cell_length_a 21.553497
_cell_length_b 21.553497
_cell_length_c 5.413029
_cell_angle_alpha 90.000000
_cell_angle_beta 90.000000
_cell_angle_gamma 120.000000
_cell_volume 2177.742227
_symmetry_space_group_name_H-M "P 63 2 2"
_symmetry_group_IT_number 182
_symmetry_cell_setting 'hexagonal'
loop_
_space_group_symop_operation_xyz
x,y,z
x-y,x,1/2+z
-y,x-y,z
-x,-y,1/2+z
-x+y,-x,z
y,-x+y,1/2+z
x-y,-y,-z
-x,-x+y,-z
y,x,-z
-y,-x,1/2-z
-x+y,y,1/2-z
x,x-y,1/2-z
loop_
_atom_site_type_symbol
_atom_site_label
_atom_site_fract_x
_atom_site_fract_y
_atom_site_fract_z
Si Si1 0.403322 0.930428 0.868294
Si Si2 0.187354 0.520039 0.264312
Si Si3 0.000000 0.339141 0.500000
Si Si4 0.613424 0.766971 0.501577
O O1 0.448028 0.896056 0.750000
O O2 0.370914 0.972166 0.715883
O O3 0.344805 0.871049 0.052431
O O4 0.468709 0.000000 0.000000
O O5 0.269398 0.538796 0.250000
O O6 0.185548 0.592774 0.250000
O O7 0.161549 0.466398 0.499370
O O8 0.930021 0.262874 0.540950
O O9 0.623904 0.811952 0.750000
O O10 0.613816 0.806908 0.250000
#
# Coordination Sequence:
#
# PCOD9584873 Si02
#       4
#    12  12   6  12
#     4  12  22  38  61  89 114 152 214 263 310 378
#     4  11  23  40  58  85 116 158 206 261 323 383
#     4  12  22  38  64  84 122 164 194 254 320 362
#     4  11  25  42  62  92 125 158 210 258 307 377
#
# _framework density 19.286028000000002
#
# number of rings (size 3 to 8) (size 9 to 14) (size 15 to 20)
#    0.000    0.571    4.286    6.286    0.000    0.000 
#    0.000    0.000    0.000    8.571    0.000    0.000 
#    0.000    0.000    0.000    8.571    0.000    0.000 
#
# Total GULP energy -233944.324206 kJ/mol
# GULP energy per Si atom -5570.102957 kJ/mol
# Density = 1.924213 g / cm^3
# Si number density = 19.286028 Si / 1000 Ang^3
#
#
#
# Elastic Constant Matrix: (Units=GPa)
#
#
# Indices 1 2 3 4 5 6 
#
# 1 110.5998 58.0877 56.6345 0.0000 0.0000 0.0000
# 2 58.0877 110.5998 56.6345 0.0000 0.0000 0.0000
# 3 56.6345 56.6345 108.4689 0.0000 0.0000 0.0000
# 4 0.0000 0.0000 0.0000 28.9678 0.0000 0.0000
# 5 0.0000 0.0000 0.0000 0.0000 28.9678 0.0000
# 6 0.0000 0.0000 0.0000 0.0000 0.0000 26.2560
#
#
#
# Elastic Compliance Matrix: (Units=1/GPa)
#
#
# Indices 1 2 3 4 5 6 
#
# 1 0.014086 -0.004957 -0.004766 0.000000 0.000000 0.000000
# 2 -0.004957 0.014086 -0.004766 0.000000 0.000000 0.000000
# 3 -0.004766 -0.004766 0.014196 0.000000 0.000000 0.000000
# 4 0.000000 0.000000 0.000000 0.034521 0.000000 0.000000
# 5 0.000000 0.000000 0.000000 0.000000 0.034521 0.000000
# 6 0.000000 0.000000 0.000000 0.000000 0.000000 0.038086
#
#
# Mechanical properties :
#
#
# Convention : Reuss Voigt Hill
#
# Bulk Modulus (GPa) = 74.69115 74.70909 74.70012
# Shear Modulus (GPa) = 27.33148 27.39246 27.36197
#
# Velocity S-wave (km/s) = 3.76861 3.77281 3.77071
# Velocity P-wave (km/s) = 7.59926 7.60265 7.60096
#
# Compressibility (1/GPa) = 0.01338847
#
# Stress axis : x y z
#
# Youngs Moduli (GPa) = 70.99312 70.99312 70.44043
#
# Poissons Ratio (x) = 0.35194 0.33574
# Poissons Ratio (y) = 0.35194 0.33574
# Poissons Ratio (z) = 0.33837 0.33837
#
# Static dielectric constant tensor:
#      x y z
#    x 1.739220 0.000000 0.000000 
#    y 0.000000 1.739220 0.000000 
#    z 0.000000 0.000000 1.996200 
# 
# From -- ./inp_files/440.got.cif
#   From: 2010.05.17/outbox.cif.g08.bks.cpg/sg182_1_cif.got.tgz:440.got - 2010.05.20 11:58:53.
