data_PCOD9584071
_publ_section_title
;
Structure prediction by ZEFSAII (Michael W. Deem and Ramdas Pophale) SiO2 
 PCOD9584071
Probable space group: P 62 2 2
;
_chemical_formula_sum "Si O2"
_cell_formula_units_Z 54
_cell_length_a 11.162710
_cell_length_b 11.162710
_cell_length_c 19.586148
_cell_angle_alpha 90.000000
_cell_angle_beta 90.000000
_cell_angle_gamma 120.000000
_cell_volume 2113.581252
_symmetry_space_group_name_H-M "P 62 2 2"
_symmetry_group_IT_number 180
_symmetry_cell_setting 'hexagonal'
loop_
_space_group_symop_operation_xyz
x,y,z
x-y,x,1/3+z
-y,x-y,2/3+z
-x,-y,z
-x+y,-x,1/3+z
y,-x+y,2/3+z
x-y,-y,-z
-x,-x+y,1/3-z
y,x,2/3-z
-y,-x,2/3-z
-x+y,y,-z
x,x-y,1/3-z
loop_
_atom_site_type_symbol
_atom_site_label
_atom_site_fract_x
_atom_site_fract_y
_atom_site_fract_z
Si Si1 0.000000 0.000000 0.166667
Si Si2 0.500000 0.000000 0.000000
Si Si3 0.565987 0.332770 0.757461
Si Si4 0.886243 0.699989 0.866615
Si Si5 0.288475 0.850698 0.761841
Si Si6 0.598076 0.794504 0.381571
O O1 0.901612 0.863429 0.122824
O O2 0.371381 0.901367 0.047010
O O3 0.613276 0.386725 0.833334
O O4 0.400451 0.248923 0.755971
O O5 0.631049 0.233166 0.745551
O O6 0.644940 0.476131 0.718423
O O7 0.845166 0.681353 0.785820
O O8 0.988168 0.641636 0.885817
O O9 0.213172 0.786829 0.833334
O O10 0.188414 0.832751 0.697152
#
# Coordination Sequence:
#
# PCOD9584071 Si02
#       6
#     3   3  12  12  12  12
#     4  12  28  52  68 100 138 204 268 286 376 452
#     4  12  20  32  72 110 152 178 228 304 388 452
#     4   9  20  39  67 105 142 176 234 308 382 443
#     4  11  25  45  70  98 146 194 249 312 360 451
#     4  11  20  40  68 107 144 183 240 305 375 441
#     4  11  23  40  69 112 145 188 238 304 388 454
#
# _framework density 25.549053000000001
#
# number of rings (size 3 to 8) (size 9 to 14) (size 15 to 20)
#    0.000    1.333    3.333    2.000    6.222    0.000 
#    0.000   13.889    0.000    0.000    0.000    0.000 
#    0.000    0.000    0.000    0.000    0.000    0.000 
#
# Total GULP energy -301183.720627 kJ/mol
# GULP energy per Si atom -5577.476308 kJ/mol
# Density = 2.549090 g / cm^3
# Si number density = 25.549053 Si / 1000 Ang^3
#
#
#
# Elastic Constant Matrix: (Units=GPa)
#
#
# Indices 1 2 3 4 5 6 
#
# 1 84.1330 29.7038 -10.9432 0.0000 0.0000 0.0000
# 2 29.7038 84.1330 -10.9432 0.0000 0.0000 0.0000
# 3 -10.9432 -10.9432 119.0968 0.0000 0.0000 0.0000
# 4 0.0000 0.0000 0.0000 -8.9812 0.0000 0.0000
# 5 0.0000 0.0000 0.0000 0.0000 -8.9812 0.0000
# 6 0.0000 0.0000 0.0000 0.0000 0.0000 27.2146
#
#
#
# Elastic Compliance Matrix: (Units=1/GPa)
#
#
# Indices 1 2 3 4 5 6 
#
# 1 0.013657 -0.004715 0.000822 0.000000 0.000000 0.000000
# 2 -0.004715 0.013657 0.000822 0.000000 0.000000 0.000000
# 3 0.000822 0.000822 0.008548 0.000000 0.000000 0.000000
# 4 0.000000 0.000000 0.000000 -0.111343 0.000000 0.000000
# 5 0.000000 0.000000 0.000000 0.000000 -0.111343 0.000000
# 6 0.000000 0.000000 0.000000 0.000000 0.000000 0.036745
#
#
# Mechanical properties :
#
#
# Convention : Reuss Voigt Hill
#
# Bulk Modulus (GPa) = 33.64826 33.66639 33.65733
# Shear Modulus (GPa) = -37.30524 20.48679 -8.40922
#
# Velocity S-wave (km/s) = -3.82533 2.83479 -1.81619
# Velocity P-wave (km/s) = 2.51240 4.89085 2.96718
#
# Compressibility (1/GPa) = 0.02971922
#
# Stress axis : x y z
#
# Youngs Moduli (GPa) = 73.21991 73.21991 116.99282
#
# Poissons Ratio (x) = 0.34523 -0.09613
# Poissons Ratio (y) = 0.34523 -0.09613
# Poissons Ratio (z) = -0.06016 -0.06016
#
# Static dielectric constant tensor:
#      x y z
#    x 2.110820 0.000000 0.000000 
#    y 0.000000 2.110820 0.000000 
#    z 0.000000 0.000000 2.040040 
# 
# From -- ./inp_files/10120.got.cif
#   From: 2010.05.17/outbox.cif.g08.bks.cpg/sg180_6_cif.got.tgz:10120.got - 2010.05.20 11:43:55.
