data_PCOD9584168
_publ_section_title
;
Structure prediction by ZEFSAII (Michael W. Deem and Ramdas Pophale) SiO2 
 PCOD9584168
Probable space group: P 62 2 2
;
_chemical_formula_sum "Si O2"
_cell_formula_units_Z 30
_cell_length_a 7.770962
_cell_length_b 7.770962
_cell_length_c 22.131766
_cell_angle_alpha 90.000000
_cell_angle_beta 90.000000
_cell_angle_gamma 120.000000
_cell_volume 1157.434097
_symmetry_space_group_name_H-M "P 62 2 2"
_symmetry_group_IT_number 180
_symmetry_cell_setting 'hexagonal'
loop_
_space_group_symop_operation_xyz
x,y,z
x-y,x,1/3+z
-y,x-y,2/3+z
-x,-y,z
-x+y,-x,1/3+z
y,-x+y,2/3+z
x-y,-y,-z
-x,-x+y,1/3-z
y,x,2/3-z
-y,-x,2/3-z
-x+y,y,-z
x,x-y,1/3-z
loop_
_atom_site_type_symbol
_atom_site_label
_atom_site_fract_x
_atom_site_fract_y
_atom_site_fract_z
Si Si1 0.169823 0.359589 0.066703
Si Si2 0.984834 0.743591 0.733861
Si Si3 0.500000 0.500000 0.507138
O O1 0.330213 0.495055 0.115981
O O2 0.932794 0.245891 0.078245
O O3 0.185687 0.159071 0.063404
O O4 0.226524 0.453047 0.000000
O O5 0.049640 0.670545 0.791755
O O6 0.000000 0.675925 0.666667
#
# Coordination Sequence:
#
# PCOD9584168 Si02
#       3
#    12  12   6
#     4   9  20  39  58  82 123 170 209 256 322 390
#     4   9  19  38  62  85 116 163 216 263 317 392
#     4  12  19  30  60  96 117 148 210 278 326 372
#
# _framework density 25.919405000000001
#
# number of rings (size 3 to 8) (size 9 to 14) (size 15 to 20)
#    0.000    2.400    0.000    5.400    0.000    3.200 
#    0.000   16.000    0.000    9.600    0.000    0.000 
#    0.000    0.000    0.000    0.000    0.000    0.000 
#
# Total GULP energy -167291.476416 kJ/mol
# GULP energy per Si atom -5576.382547 kJ/mol
# Density = 2.586041 g / cm^3
# Si number density = 25.919405 Si / 1000 Ang^3
#
#
#
# Elastic Constant Matrix: (Units=GPa)
#
#
# Indices 1 2 3 4 5 6 
#
# 1 56.5342 31.2716 71.1002 0.0000 0.0000 0.0000
# 2 31.2716 56.5342 71.1002 0.0000 0.0000 0.0000
# 3 71.1002 71.1002 284.5660 0.0000 0.0000 0.0000
# 4 0.0000 0.0000 0.0000 64.7964 0.0000 0.0000
# 5 0.0000 0.0000 0.0000 0.0000 64.7964 0.0000
# 6 0.0000 0.0000 0.0000 0.0000 0.0000 12.6313
#
#
#
# Elastic Compliance Matrix: (Units=1/GPa)
#
#
# Indices 1 2 3 4 5 6 
#
# 1 0.029357 -0.010228 -0.004780 0.000000 0.000000 0.000000
# 2 -0.010228 0.029357 -0.004780 0.000000 0.000000 0.000000
# 3 -0.004780 -0.004780 0.005902 0.000000 0.000000 0.000000
# 4 0.000000 0.000000 0.000000 0.015433 0.000000 0.000000
# 5 0.000000 0.000000 0.000000 0.000000 0.015433 0.000000
# 6 0.000000 0.000000 0.000000 0.000000 0.000000 0.079168
#
#
# Mechanical properties :
#
#
# Convention : Reuss Voigt Hill
#
# Bulk Modulus (GPa) = 39.93174 82.73093 61.33133
# Shear Modulus (GPa) = 22.46477 43.38899 32.92688
#
# Velocity S-wave (km/s) = 2.94720 4.09589 3.56807
# Velocity P-wave (km/s) = 5.19816 7.37267 6.37876
#
# Compressibility (1/GPa) = 0.02504274
#
# Stress axis : x y z
#
# Youngs Moduli (GPa) = 34.06382 34.06382 169.41989
#
# Poissons Ratio (x) = 0.34839 0.80974
# Poissons Ratio (y) = 0.34839 0.80974
# Poissons Ratio (z) = 0.16281 0.16281
#
# Static dielectric constant tensor:
#      x y z
#    x 2.115520 0.000000 0.000000 
#    y 0.000000 2.115520 0.000000 
#    z 0.000000 0.000000 1.934650 
# 
# From -- ./inp_files/9579.got.cif
#   From: 2010.05.17/outbox.cif.g08.bks.cpg/sg180_5_cif.got.tgz:9579.got - 2010.05.20 11:43:55.
