data_PCOD9584981
_publ_section_title
;
Structure prediction by ZEFSAII (Michael W. Deem and Ramdas Pophale) SiO2 
 PCOD9584981
Probable space group: P 6 M M
;
_chemical_formula_sum "Si O2"
_cell_formula_units_Z 96
_cell_length_a 18.070619
_cell_length_b 18.070619
_cell_length_c 21.065491
_cell_angle_alpha 90.000000
_cell_angle_beta 90.000000
_cell_angle_gamma 120.000000
_cell_volume 5957.283616
_symmetry_space_group_name_H-M "P 6 M M"
_symmetry_group_IT_number 183
_symmetry_cell_setting 'hexagonal'
loop_
_space_group_symop_operation_xyz
x,y,z
x-y,x,z
-y,x-y,z
-x,-y,z
-x+y,-x,z
y,-x+y,z
-x+y,y,z
x,x-y,z
-y,-x,z
y,x,z
x-y,-y,z
-x,-x+y,z
loop_
_atom_site_type_symbol
_atom_site_label
_atom_site_fract_x
_atom_site_fract_y
_atom_site_fract_z
Si Si1 0.467594 0.103539 0.062640
Si Si2 0.733098 0.099946 0.183282
Si Si3 0.467594 0.364056 0.541657
Si Si4 0.467629 0.363973 0.684273
Si Si5 0.636028 0.532373 0.920025
Si Si6 0.739123 0.101565 0.802149
Si Si7 0.491105 0.332759 0.302149
Si Si8 0.099946 0.366848 0.421015
O O1 0.566634 0.133267 0.075874
O O2 0.421624 0.124218 0.118406
O O3 0.418557 0.000000 0.061326
O O4 0.460962 0.131759 0.991336
O O5 0.833344 0.166657 0.192450
O O6 0.683414 0.115688 0.240556
O O7 0.703969 0.000000 0.181390
O O8 0.566634 0.433367 0.528422
O O9 0.418557 0.418557 0.542972
O O10 0.460965 0.329206 0.612962
O O11 0.421623 0.297405 0.485892
O O12 0.566308 0.433692 0.697317
O O13 0.418017 0.418017 0.683220
O O14 0.422611 0.297665 0.740318
O O15 0.566308 0.433693 0.906983
O O16 0.581985 0.581985 0.921079
O O17 0.702335 0.577388 0.863979
O O18 0.840698 0.159303 0.802149
O O19 0.701565 0.000000 0.802149
O O20 0.515246 0.257623 0.302149
O O21 0.574732 0.425269 0.302148
O O22 0.432275 0.316587 0.363742
O O23 0.166657 0.333314 0.411847
O O24 0.000000 0.296031 0.422907
#
# Coordination Sequence:
#
# PCOD9584981 Si02
#       8
#    12  12  12  12  12  12  12  12
#     4   8  14  26  45  68  91 113 139 173 215 267
#     4  10  20  32  47  68  93 122 157 197 236 270
#     4   8  14  26  45  68  91 113 139 173 215 267
#     4   8  14  26  45  67  88 110 138 174 218 269
#     4   8  14  26  45  67  88 110 138 174 218 269
#     4  10  19  29  43  64  89 117 152 194 235 273
#     4  10  20  33  50  73 100 126 149 176 216 269
#     4  10  20  32  47  68  93 122 157 197 236 270
#
# _framework density 16.114726999999998
#
# number of rings (size 3 to 8) (size 9 to 14) (size 15 to 20)
#    0.000    3.000    0.000    3.125    0.000    4.500 
#    0.000    0.000    0.000    2.875    0.000    0.000 
#    0.000    3.000    0.000   12.500    0.000    0.000 
#
# Total GULP energy -534521.182724 kJ/mol
# GULP energy per Si atom -5567.928987 kJ/mol
# Density = 1.607805 g / cm^3
# Si number density = 16.114727 Si / 1000 Ang^3
#
#
#
# Elastic Constant Matrix: (Units=GPa)
#
#
# Indices 1 2 3 4 5 6 
#
# 1 75.5455 51.0576 41.8664 0.0000 0.0000 0.0000
# 2 51.0576 75.5455 41.8664 0.0000 0.0000 0.0000
# 3 41.8664 41.8664 99.7259 0.0000 0.0000 0.0000
# 4 0.0000 0.0000 0.0000 -2.5140 0.0000 0.0000
# 5 0.0000 0.0000 0.0000 0.0000 -2.5140 0.0000
# 6 0.0000 0.0000 0.0000 0.0000 0.0000 12.2439
#
#
#
# Elastic Compliance Matrix: (Units=1/GPa)
#
#
# Indices 1 2 3 4 5 6 
#
# 1 0.025886 -0.014951 -0.004591 0.000000 0.000000 0.000000
# 2 -0.014951 0.025886 -0.004591 0.000000 0.000000 0.000000
# 3 -0.004591 -0.004591 0.013882 0.000000 0.000000 0.000000
# 4 0.000000 0.000000 0.000000 -0.397770 0.000000 0.000000
# 5 0.000000 0.000000 0.000000 0.000000 -0.397770 0.000000
# 6 0.000000 0.000000 0.000000 0.000000 0.000000 0.081673
#
#
# Mechanical properties :
#
#
# Convention : Reuss Voigt Hill
#
# Bulk Modulus (GPa) = 57.50716 57.82198 57.66457
# Shear Modulus (GPa) = -8.41533 9.17827 0.38147
#
# Velocity S-wave (km/s) = -2.28768 2.38913 0.48707
# Velocity P-wave (km/s) = 5.36522 6.60075 6.01480
#
# Compressibility (1/GPa) = 0.01738914
#
# Stress axis : x y z
#
# Youngs Moduli (GPa) = 38.63133 38.63133 72.03623
#
# Poissons Ratio (x) = 0.57757 0.33069
# Poissons Ratio (y) = 0.57757 0.33069
# Poissons Ratio (z) = 0.17734 0.17734
#
# Static dielectric constant tensor:
#      x y z
#    x 1.527840 0.000000 0.000000 
#    y 0.000000 1.527840 0.000000 
#    z 0.000000 0.000000 1.563370 
# 
# From -- ./inp_files/3054.got.cif
#   From: 2010.05.17/outbox.cif.g08.bks.cpg/sg183_2_cif.got.tgz:3054.got - 2010.05.20 12:02:58.
