data_PCOD9584639
_publ_section_title
;
Structure prediction by ZEFSAII (Michael W. Deem and Ramdas Pophale) SiO2 
 PCOD9584639
Probable space group: P 63 2 2
;
_chemical_formula_sum "Si O2"
_cell_formula_units_Z 68
_cell_length_a 12.653893
_cell_length_b 12.653893
_cell_length_c 26.554667
_cell_angle_alpha 90.000000
_cell_angle_beta 90.000000
_cell_angle_gamma 120.000000
_cell_volume 3682.305418
_symmetry_space_group_name_H-M "P 63 2 2"
_symmetry_group_IT_number 182
_symmetry_cell_setting 'hexagonal'
loop_
_space_group_symop_operation_xyz
x,y,z
x-y,x,1/2+z
-y,x-y,z
-x,-y,1/2+z
-x+y,-x,z
y,-x+y,1/2+z
x-y,-y,-z
-x,-x+y,-z
y,x,-z
-y,-x,1/2-z
-x+y,y,1/2-z
x,x-y,1/2-z
loop_
_atom_site_type_symbol
_atom_site_label
_atom_site_fract_x
_atom_site_fract_y
_atom_site_fract_z
Si Si1 0.666667 0.333334 0.813834
Si Si2 0.993408 0.741765 0.150783
Si Si3 0.000000 0.000000 0.058709
Si Si4 0.209346 0.003311 0.876224
Si Si5 0.665769 0.544767 0.719116
Si Si6 0.589868 0.919793 0.050026
Si Si7 0.580775 0.918023 0.450190
O O1 0.666668 0.333334 0.750000
O O2 0.543064 0.331252 0.825548
O O3 0.007580 0.666557 0.195559
O O4 0.014299 0.693476 0.097380
O O5 0.869620 0.745614 0.151672
O O6 0.110694 0.878635 0.155161
O O7 0.998848 0.117973 0.079900
O O8 0.000000 0.000000 0.000000
O O9 0.331371 0.022147 0.902011
O O10 0.544080 0.455921 0.750000
O O11 0.789396 0.578791 0.750000
O O12 0.458217 0.908715 0.057030
O O13 0.572715 0.785348 0.043929
O O14 0.649719 0.000000 0.000000
O O15 0.640464 0.000000 0.500000
#
# Coordination Sequence:
#
# PCOD9584639 Si02
#       7
#     4  12   4  12  12  12  12
#     4   6  12  27  48  78 105 126 165 213 261 309
#     4  10  19  34  53  75 109 142 179 221 266 330
#     4   9  15  27  48  72 100 143 196 228 249 309
#     4   9  19  30  47  75 104 141 178 220 273 318
#     4   8  16  31  53  80 107 136 173 221 274 324
#     4  10  21  33  50  77 106 145 188 228 273 325
#     4  10  19  32  48  71 107 143 184 231 272 317
#
# _framework density 18.466691999999998
#
# number of rings (size 3 to 8) (size 9 to 14) (size 15 to 20)
#    0.000    3.176    0.000    2.471    0.000   10.588 
#    0.000    0.882    0.000    1.059    0.000    0.000 
#    0.000    5.647    0.000    0.529    0.000    0.000 
#
# Total GULP energy -379072.361785 kJ/mol
# GULP energy per Si atom -5574.593556 kJ/mol
# Density = 1.842466 g / cm^3
# Si number density = 18.466692 Si / 1000 Ang^3
#
#
#
# Elastic Constant Matrix: (Units=GPa)
#
#
# Indices 1 2 3 4 5 6 
#
# 1 100.6351 47.7576 31.8910 0.0000 0.0000 0.0000
# 2 47.7576 100.6354 31.8910 0.0000 0.0000 0.0000
# 3 31.8910 31.8910 46.4614 0.0000 0.0000 0.0000
# 4 0.0000 0.0000 0.0000 18.6192 0.0000 0.0000
# 5 0.0000 0.0000 0.0000 0.0000 18.6192 0.0000
# 6 0.0000 0.0000 0.0000 0.0000 0.0000 26.4388
#
#
#
# Elastic Compliance Matrix: (Units=1/GPa)
#
#
# Indices 1 2 3 4 5 6 
#
# 1 0.014235 -0.004676 -0.006561 0.000000 0.000000 0.000000
# 2 -0.004676 0.014235 -0.006561 0.000000 0.000000 0.000000
# 3 -0.006561 -0.006561 0.030531 0.000000 0.000000 0.000000
# 4 0.000000 0.000000 0.000000 0.053708 0.000000 0.000000
# 5 0.000000 0.000000 0.000000 0.000000 0.053708 0.000000
# 6 0.000000 0.000000 0.000000 0.000000 0.000000 0.037823
#
#
# Mechanical properties :
#
#
# Convention : Reuss Voigt Hill
#
# Bulk Modulus (GPa) = 42.72878 52.31237 47.52057
# Shear Modulus (GPa) = 20.19065 21.81492 21.00279
#
# Velocity S-wave (km/s) = 3.31018 3.44075 3.37610
# Velocity P-wave (km/s) = 6.14803 6.64639 6.40206
#
# Compressibility (1/GPa) = 0.02340343
#
# Stress axis : x y z
#
# Youngs Moduli (GPa) = 70.24778 70.24799 32.75406
#
# Poissons Ratio (x) = 0.32850 0.21491
# Poissons Ratio (y) = 0.32850 0.21491
# Poissons Ratio (z) = 0.46092 0.46092
#
# Static dielectric constant tensor:
#      x y z
#    x 1.659780 0.000000 0.000000 
#    y 0.000000 1.659780 0.000000 
#    z 0.000000 0.000000 1.678660 
# 
# From -- ./inp_files/5768.got.cif
#   From: 2010.05.17/outbox.cif.g08.bks.cpg/sg182_3_cif.got.tgz:5768.got - 2010.05.20 11:58:53.
