data_PCOD9584362
_publ_section_title
;
Structure prediction by ZEFSAII (Michael W. Deem and Ramdas Pophale) SiO2 
 PCOD9584362
Probable space group: P 64 2 2
;
_chemical_formula_sum "Si O2"
_cell_formula_units_Z 84
_cell_length_a 13.865926
_cell_length_b 13.865926
_cell_length_c 26.100056
_cell_angle_alpha 90.000000
_cell_angle_beta 90.000000
_cell_angle_gamma 120.000000
_cell_volume 4345.800916
_symmetry_space_group_name_H-M "P 64 2 2"
_symmetry_group_IT_number 181
_symmetry_cell_setting 'hexagonal'
loop_
_space_group_symop_operation_xyz
x,y,z
x-y,x,2/3+z
-y,x-y,1/3+z
-x,-y,z
-x+y,-x,2/3+z
y,-x+y,1/3+z
x-y,-y,-z
-x,-x+y,2/3-z
y,x,1/3-z
-y,-x,1/3-z
-x+y,y,-z
x,x-y,2/3-z
loop_
_atom_site_type_symbol
_atom_site_label
_atom_site_fract_x
_atom_site_fract_y
_atom_site_fract_z
Si Si1 0.321092 0.321092 0.166667
Si Si2 0.062661 0.439498 0.279560
Si Si3 0.467923 0.626359 0.222243
Si Si4 0.854877 0.145124 0.166667
Si Si5 0.874613 0.345492 0.558698
Si Si6 0.093067 0.783628 0.469946
Si Si7 0.554513 0.243763 0.645744
Si Si8 0.317213 0.429309 0.412674
O O1 0.416272 0.368375 0.210089
O O2 0.307267 0.206205 0.145108
O O3 0.064633 0.338201 0.251659
O O4 0.192519 0.525676 0.288223
O O5 0.000000 0.500000 0.253983
O O6 0.000000 0.397665 0.333334
O O7 0.405554 0.594447 0.166667
O O8 0.502984 0.751730 0.237990
O O9 0.388428 0.551717 0.267592
O O10 0.846121 0.212647 0.117572
O O11 0.985000 0.199771 0.177636
O O12 0.897934 0.309270 0.503866
O O13 0.872922 0.459786 0.559516
O O14 0.977212 0.358383 0.593510
O O15 0.679653 0.320348 0.666667
O O16 0.471534 0.177545 0.692517
#
# Coordination Sequence:
#
# PCOD9584362 Si02
#       8
#     6  12  12   6  12  12  12  12
#     4  10  23  47  62  92 120 166 228 273 333 394
#     4  11  23  38  58  92 139 173 209 252 327 398
#     4  11  23  41  64  87 121 163 222 265 326 392
#     4  10  22  35  66  96 120 165 214 272 328 406
#     4   9  20  37  54  86 122 163 202 263 313 385
#     4  10  22  40  65  89 122 168 214 273 328 384
#     4  12  22  38  59  92 127 176 211 260 315 395
#     4  10  21  36  56  91 128 163 212 256 328 386
#
# _framework density 19.329004999999999
#
# number of rings (size 3 to 8) (size 9 to 14) (size 15 to 20)
#    0.000    1.571    2.857    2.786    5.000    0.286 
#   10.286    0.000    0.000    0.000    0.000    7.000 
#    0.000    0.000    0.000    0.000    0.000    0.000 
#
# Total GULP energy -468458.270192 kJ/mol
# GULP energy per Si atom -5576.884169 kJ/mol
# Density = 1.928501 g / cm^3
# Si number density = 19.329005 Si / 1000 Ang^3
#
#
#
# Elastic Constant Matrix: (Units=GPa)
#
#
# Indices 1 2 3 4 5 6 
#
# 1 120.3761 53.8781 47.0799 0.0000 0.0000 0.0000
# 2 53.8781 120.3761 47.0799 0.0000 0.0000 0.0000
# 3 47.0799 47.0799 83.7044 0.0000 0.0000 0.0000
# 4 0.0000 0.0000 0.0000 17.4645 0.0000 0.0000
# 5 0.0000 0.0000 0.0000 0.0000 17.4645 0.0000
# 6 0.0000 0.0000 0.0000 0.0000 0.0000 33.2490
#
#
#
# Elastic Compliance Matrix: (Units=1/GPa)
#
#
# Indices 1 2 3 4 5 6 
#
# 1 0.011641 -0.003397 -0.004637 0.000000 0.000000 0.000000
# 2 -0.003397 0.011641 -0.004637 0.000000 0.000000 0.000000
# 3 -0.004637 -0.004637 0.017163 0.000000 0.000000 0.000000
# 4 0.000000 0.000000 0.000000 0.057259 0.000000 0.000000
# 5 0.000000 0.000000 0.000000 0.000000 0.057259 0.000000
# 6 0.000000 0.000000 0.000000 0.000000 0.000000 0.030076
#
#
# Mechanical properties :
#
#
# Convention : Reuss Voigt Hill
#
# Bulk Modulus (GPa) = 66.20961 68.94804 67.57883
# Shear Modulus (GPa) = 23.21086 25.39684 24.30385
#
# Velocity S-wave (km/s) = 3.46906 3.62874 3.54980
# Velocity P-wave (km/s) = 7.09748 7.30104 7.19998
#
# Compressibility (1/GPa) = 0.01510355
#
# Stress axis : x y z
#
# Youngs Moduli (GPa) = 85.90139 85.90139 58.26433
#
# Poissons Ratio (x) = 0.29179 0.27018
# Poissons Ratio (y) = 0.29179 0.27018
# Poissons Ratio (z) = 0.39834 0.39834
#
# Static dielectric constant tensor:
#      x y z
#    x 1.714760 0.000000 0.000000 
#    y 0.000000 1.714760 0.000000 
#    z 0.000000 0.000000 1.736290 
# 
# From -- ./inp_files/10249.got.cif
#   From: 2010.05.17/outbox.cif.g08.bks.cpg/sg181_6_cif.got.tgz:10249.got - 2010.05.20 11:51:17.
