data_PCOD9584035
_publ_section_title
;
Structure prediction by ZEFSAII (Michael W. Deem and Ramdas Pophale) SiO2 
 PCOD9584035
Probable space group: P 62 2 2
;
_chemical_formula_sum "Si O2"
_cell_formula_units_Z 48
_cell_length_a 14.466998
_cell_length_b 14.466998
_cell_length_c 13.378929
_cell_angle_alpha 90.000000
_cell_angle_beta 90.000000
_cell_angle_gamma 120.000000
_cell_volume 2424.983699
_symmetry_space_group_name_H-M "P 62 2 2"
_symmetry_group_IT_number 180
_symmetry_cell_setting 'hexagonal'
loop_
_space_group_symop_operation_xyz
x,y,z
x-y,x,1/3+z
-y,x-y,2/3+z
-x,-y,z
-x+y,-x,1/3+z
y,-x+y,2/3+z
x-y,-y,-z
-x,-x+y,1/3-z
y,x,2/3-z
-y,-x,2/3-z
-x+y,y,-z
x,x-y,1/3-z
loop_
_atom_site_type_symbol
_atom_site_label
_atom_site_fract_x
_atom_site_fract_y
_atom_site_fract_z
Si Si1 0.322473 0.439015 0.618447
Si Si2 0.545838 0.889966 0.048965
Si Si3 0.644108 0.458805 0.928867
Si Si4 0.943883 0.707438 0.066319
O O1 0.354195 0.452048 0.502096
O O2 0.216439 0.447874 0.634570
O O3 0.418269 0.533452 0.680228
O O4 0.293414 0.324010 0.659167
O O5 0.437669 0.875338 0.000000
O O6 0.638830 0.000000 0.000000
O O7 0.615012 0.384989 0.833334
O O8 0.707224 0.583012 0.899533
O O9 0.720449 0.440897 0.000000
O O10 0.000000 0.774461 0.166667
O O11 0.867136 0.734271 0.000000
#
# Coordination Sequence:
#
# PCOD9584035 Si02
#       4
#    12  12  12  12
#     4  11  24  40  63  91 129 173 219 273 328 397
#     4  10  25  41  63  92 128 169 219 270 331 399
#     4  11  24  37  61  93 138 179 222 269 329 407
#     4  11  25  42  66  97 132 178 225 283 344 411
#
# _framework density 19.793945999999998
#
# number of rings (size 3 to 8) (size 9 to 14) (size 15 to 20)
#    0.000    1.250    2.500    1.500   17.500    0.000 
#    0.000    0.000    0.000    0.750    0.000    0.000 
#    0.000    0.000    0.000    0.000    0.000    0.000 
#
# Total GULP energy -268306.021497 kJ/mol
# GULP energy per Si atom -5589.708781 kJ/mol
# Density = 1.974889 g / cm^3
# Si number density = 19.793946 Si / 1000 Ang^3
#
#
#
# Elastic Constant Matrix: (Units=GPa)
#
#
# Indices 1 2 3 4 5 6 
#
# 1 77.6274 50.3881 49.0094 0.0000 0.0000 0.0000
# 2 50.3881 77.6274 49.0094 0.0000 0.0000 0.0000
# 3 49.0094 49.0094 122.9890 0.0000 0.0000 0.0000
# 4 0.0000 0.0000 0.0000 39.9879 0.0000 0.0000
# 5 0.0000 0.0000 0.0000 0.0000 39.9879 0.0000
# 6 0.0000 0.0000 0.0000 0.0000 0.0000 13.6196
#
#
#
# Elastic Compliance Matrix: (Units=1/GPa)
#
#
# Indices 1 2 3 4 5 6 
#
# 1 0.023977 -0.012735 -0.004480 0.000000 0.000000 0.000000
# 2 -0.012735 0.023977 -0.004480 0.000000 0.000000 0.000000
# 3 -0.004480 -0.004480 0.011701 0.000000 0.000000 0.000000
# 4 0.000000 0.000000 0.000000 0.025008 0.000000 0.000000
# 5 0.000000 0.000000 0.000000 0.000000 0.025008 0.000000
# 6 0.000000 0.000000 0.000000 0.000000 0.000000 0.073423
#
#
# Mechanical properties :
#
#
# Convention : Reuss Voigt Hill
#
# Bulk Modulus (GPa) = 61.47959 63.89530 62.68744
# Shear Modulus (GPa) = 21.56072 27.37486 24.46779
#
# Velocity S-wave (km/s) = 3.30397 3.72289 3.51967
# Velocity P-wave (km/s) = 6.75886 7.12953 6.94667
#
# Compressibility (1/GPa) = 0.01626556
#
# Stress axis : x y z
#
# Youngs Moduli (GPa) = 41.70731 41.70731 85.46340
#
# Poissons Ratio (x) = 0.53115 0.38284
# Poissons Ratio (y) = 0.53115 0.38284
# Poissons Ratio (z) = 0.18683 0.18683
#
# Static dielectric constant tensor:
#      x y z
#    x 1.699780 0.000000 0.000000 
#    y 0.000000 1.699780 0.000000 
#    z 0.000000 0.000000 1.703990 
# 
# From -- ./inp_files/4360.got.cif
#   From: 2010.05.17/outbox.cif.g08.bks.cpg/sg180_3_cif.got.tgz:4360.got - 2010.05.20 11:43:55.
