data_PCOD9584160
_publ_section_title
;
Structure prediction by ZEFSAII (Michael W. Deem and Ramdas Pophale) SiO2 
 PCOD9584160
Probable space group: P 62 2 2
;
_chemical_formula_sum "Si O2"
_cell_formula_units_Z 30
_cell_length_a 8.736750
_cell_length_b 8.736750
_cell_length_c 20.510165
_cell_angle_alpha 90.000000
_cell_angle_beta 90.000000
_cell_angle_gamma 120.000000
_cell_volume 1355.812405
_symmetry_space_group_name_H-M "P 62 2 2"
_symmetry_group_IT_number 180
_symmetry_cell_setting 'hexagonal'
loop_
_space_group_symop_operation_xyz
x,y,z
x-y,x,1/3+z
-y,x-y,2/3+z
-x,-y,z
-x+y,-x,1/3+z
y,-x+y,2/3+z
x-y,-y,-z
-x,-x+y,1/3-z
y,x,2/3-z
-y,-x,2/3-z
-x+y,y,-z
x,x-y,1/3-z
loop_
_atom_site_type_symbol
_atom_site_label
_atom_site_fract_x
_atom_site_fract_y
_atom_site_fract_z
Si Si1 0.500000 0.000000 0.776614
Si Si2 0.075798 0.785307 0.997089
Si Si3 0.415277 0.245104 0.861097
O O1 0.328849 0.904708 0.728013
O O2 0.564388 0.905262 0.827411
O O3 0.142241 0.735727 0.062331
O O4 0.869300 0.738600 0.000000
O O5 0.190655 0.000000 0.000000
O O6 0.241447 0.241447 0.833334
O O7 0.584645 0.415356 0.833334
#
# Coordination Sequence:
#
# PCOD9584160 Si02
#       3
#     6  12  12
#     4  12  26  48  78 110 158 210 258 334 400 466
#     4  11  26  49  77 112 157 207 264 332 405 478
#     4  11  25  46  74 109 151 203 257 324 397 472
#
# _framework density 22.126954000000001
#
# number of rings (size 3 to 8) (size 9 to 14) (size 15 to 20)
#    0.000    0.800    4.000    2.400    5.600    0.000 
#    0.000    0.000    0.000    0.000    0.000    0.000 
#    0.000    0.000    0.000    0.000    0.000    0.000 
#
# Total GULP energy -167132.811104 kJ/mol
# GULP energy per Si atom -5571.093703 kJ/mol
# Density = 2.207659 g / cm^3
# Si number density = 22.126954 Si / 1000 Ang^3
#
#
#
# Elastic Constant Matrix: (Units=GPa)
#
#
# Indices 1 2 3 4 5 6 
#
# 1 108.7465 37.2857 58.1760 0.0000 0.0000 0.0000
# 2 37.2857 108.7465 58.1760 0.0000 0.0000 0.0000
# 3 58.1760 58.1760 165.0254 0.0000 0.0000 0.0000
# 4 0.0000 0.0000 0.0000 27.0058 0.0000 0.0000
# 5 0.0000 0.0000 0.0000 0.0000 27.0058 0.0000
# 6 0.0000 0.0000 0.0000 0.0000 0.0000 35.7304
#
#
#
# Elastic Compliance Matrix: (Units=1/GPa)
#
#
# Indices 1 2 3 4 5 6 
#
# 1 0.011758 -0.002236 -0.003357 0.000000 0.000000 0.000000
# 2 -0.002236 0.011758 -0.003357 0.000000 0.000000 0.000000
# 3 -0.003357 -0.003357 0.008426 0.000000 0.000000 0.000000
# 4 0.000000 0.000000 0.000000 0.037029 0.000000 0.000000
# 5 0.000000 0.000000 0.000000 0.000000 0.037029 0.000000
# 6 0.000000 0.000000 0.000000 0.000000 0.000000 0.027987
#
#
# Mechanical properties :
#
#
# Convention : Reuss Voigt Hill
#
# Bulk Modulus (GPa) = 71.20636 76.64377 73.92507
# Shear Modulus (GPa) = 31.93496 33.20713 32.57105
#
# Velocity S-wave (km/s) = 3.80315 3.87816 3.84084
# Velocity P-wave (km/s) = 7.17885 7.40047 7.29050
#
# Compressibility (1/GPa) = 0.01404369
#
# Stress axis : x y z
#
# Youngs Moduli (GPa) = 85.04800 85.04800 118.67335
#
# Poissons Ratio (x) = 0.19013 0.39838
# Poissons Ratio (y) = 0.19013 0.39838
# Poissons Ratio (z) = 0.28550 0.28550
#
# Static dielectric constant tensor:
#      x y z
#    x 1.861240 0.000000 0.000000 
#    y 0.000000 1.861240 0.000000 
#    z 0.000000 0.000000 2.185420 
# 
# From -- ./inp_files/9619.got.cif
#   From: 2010.05.17/outbox.cif.g08.bks.cpg/sg180_5_cif.got.tgz:9619.got - 2010.05.20 11:43:55.
