data_PCOD9584098
_publ_section_title
;
Structure prediction by ZEFSAII (Michael W. Deem and Ramdas Pophale) SiO2 
 PCOD9584098
Probable space group: P 62 2 2
;
_chemical_formula_sum "Si O2"
_cell_formula_units_Z 30
_cell_length_a 7.124373
_cell_length_b 7.124373
_cell_length_c 27.341577
_cell_angle_alpha 90.000000
_cell_angle_beta 90.000000
_cell_angle_gamma 120.000000
_cell_volume 1201.842313
_symmetry_space_group_name_H-M "P 62 2 2"
_symmetry_group_IT_number 180
_symmetry_cell_setting 'hexagonal'
loop_
_space_group_symop_operation_xyz
x,y,z
x-y,x,1/3+z
-y,x-y,2/3+z
-x,-y,z
-x+y,-x,1/3+z
y,-x+y,2/3+z
x-y,-y,-z
-x,-x+y,1/3-z
y,x,2/3-z
-y,-x,2/3-z
-x+y,y,-z
x,x-y,1/3-z
loop_
_atom_site_type_symbol
_atom_site_label
_atom_site_fract_x
_atom_site_fract_y
_atom_site_fract_z
Si Si1 0.226096 0.516108 0.944250
Si Si2 0.500000 0.000000 0.000000
Si Si3 0.826737 0.676533 0.251338
Si Si4 0.000000 0.000000 0.166667
O O1 0.220295 0.287975 0.941531
O O2 0.423856 0.672880 0.909819
O O3 0.000000 0.500000 0.934482
O O4 0.306270 0.612539 0.000000
O O5 0.658215 0.986736 0.043161
O O6 0.852318 0.801134 0.201826
#
# Coordination Sequence:
#
# PCOD9584098 Si02
#       4
#    12   3  12   3
#     4  11  21  44  78 114 147 215 291 353 396 490
#     4  12  24  50  92 112 150 222 300 338 404 514
#     4  11  27  47  75 120 161 216 278 350 428 510
#     4  12  32  48  68 128 190 220 264 362 456 528
#
# _framework density 24.961677999999999
#
# number of rings (size 3 to 8) (size 9 to 14) (size 15 to 20)
#    0.000    0.800    6.000    0.000   11.200    3.200 
#    3.600    0.000    0.000    0.000    0.000    0.000 
#    0.000    0.000    0.000    0.000    0.000    0.000 
#
# Total GULP energy -167511.641629 kJ/mol
# GULP energy per Si atom -5583.721388 kJ/mol
# Density = 2.490486 g / cm^3
# Si number density = 24.961678 Si / 1000 Ang^3
#
#
#
# Elastic Constant Matrix: (Units=GPa)
#
#
# Indices 1 2 3 4 5 6 
#
# 1 174.5560 73.6943 77.2148 0.0000 0.0000 0.0000
# 2 73.6943 174.5560 77.2148 0.0000 0.0000 0.0000
# 3 77.2148 77.2148 180.3307 0.0000 0.0000 0.0000
# 4 0.0000 0.0000 0.0000 39.5847 0.0000 0.0000
# 5 0.0000 0.0000 0.0000 0.0000 39.5847 0.0000
# 6 0.0000 0.0000 0.0000 0.0000 0.0000 50.4308
#
#
#
# Elastic Compliance Matrix: (Units=1/GPa)
#
#
# Indices 1 2 3 4 5 6 
#
# 1 0.007703 -0.002212 -0.002351 0.000000 0.000000 0.000000
# 2 -0.002212 0.007703 -0.002351 0.000000 0.000000 0.000000
# 3 -0.002351 -0.002351 0.007559 0.000000 0.000000 0.000000
# 4 0.000000 0.000000 0.000000 0.025262 0.000000 0.000000
# 5 0.000000 0.000000 0.000000 0.000000 0.025262 0.000000
# 6 0.000000 0.000000 0.000000 0.000000 0.000000 0.019829
#
#
# Mechanical properties :
#
#
# Convention : Reuss Voigt Hill
#
# Bulk Modulus (GPa) = 109.45718 109.52117 109.48918
# Shear Modulus (GPa) = 45.37572 46.00795 45.69184
#
# Velocity S-wave (km/s) = 4.26821 4.29784 4.28305
# Velocity P-wave (km/s) = 8.26047 8.28249 8.27149
#
# Compressibility (1/GPa) = 0.00913599
#
# Stress axis : x y z
#
# Youngs Moduli (GPa) = 129.82566 129.82566 132.29757
#
# Poissons Ratio (x) = 0.28717 0.31104
# Poissons Ratio (y) = 0.28717 0.31104
# Poissons Ratio (z) = 0.30522 0.30522
#
# Static dielectric constant tensor:
#      x y z
#    x 1.898390 0.000000 0.000000 
#    y 0.000000 1.898390 0.000000 
#    z 0.000000 0.000000 1.888460 
# 
# From -- ./inp_files/9627.got.cif
#   From: 2010.05.17/outbox.cif.g08.bks.cpg/sg180_5_cif.got.tgz:9627.got - 2010.05.20 11:43:55.
