data_PCOD9584625
_publ_section_title
;
Structure prediction by ZEFSAII (Michael W. Deem and Ramdas Pophale) SiO2 
 PCOD9584625
Probable space group: P 63 2 2
;
_chemical_formula_sum "Si O2"
_cell_formula_units_Z 34
_cell_length_a 8.432975
_cell_length_b 8.432975
_cell_length_c 28.772188
_cell_angle_alpha 90.000000
_cell_angle_beta 90.000000
_cell_angle_gamma 120.000000
_cell_volume 1772.005831
_symmetry_space_group_name_H-M "P 63 2 2"
_symmetry_group_IT_number 182
_symmetry_cell_setting 'hexagonal'
loop_
_space_group_symop_operation_xyz
x,y,z
x-y,x,1/2+z
-y,x-y,z
-x,-y,1/2+z
-x+y,-x,z
y,-x+y,1/2+z
x-y,-y,-z
-x,-x+y,-z
y,x,-z
-y,-x,1/2-z
-x+y,y,1/2-z
x,x-y,1/2-z
loop_
_atom_site_type_symbol
_atom_site_label
_atom_site_fract_x
_atom_site_fract_y
_atom_site_fract_z
Si Si1 0.007018 0.624536 0.153811
Si Si2 0.000000 0.000000 0.444938
Si Si3 0.702355 0.005390 0.380668
Si Si4 0.453824 0.546177 0.750000
O O1 0.032077 0.503165 0.114100
O O2 0.813335 0.612789 0.144971
O O3 0.016974 0.538653 0.202885
O O4 0.154202 0.836669 0.149689
O O5 0.987509 0.815231 0.423810
O O6 0.000000 0.000000 0.500000
O O7 0.530520 0.765260 0.750000
#
# Coordination Sequence:
#
# PCOD9584625 Si02
#       4
#    12   4  12   6
#     4  11  20  38  57  92 120 171 202 258 311 363
#     4   9  21  42  66  97 119 151 201 261 318 390
#     4  10  21  37  64  85 128 158 203 254 319 370
#     4  10  18  34  56  80 122 158 214 250 288 362
#
# _framework density 19.187297000000001
#
# number of rings (size 3 to 8) (size 9 to 14) (size 15 to 20)
#    0.353    1.412    3.529    2.118    0.000    1.412 
#    0.000    7.059    0.000    0.000    0.000    0.000 
#    0.000    0.000    0.000    0.000    0.000    0.000 
#
# Total GULP energy -189303.183449 kJ/mol
# GULP energy per Si atom -5567.740690 kJ/mol
# Density = 1.914363 g / cm^3
# Si number density = 19.187297 Si / 1000 Ang^3
#
#
#
# Elastic Constant Matrix: (Units=GPa)
#
#
# Indices 1 2 3 4 5 6 
#
# 1 77.2519 3.0732 35.1033 0.0000 0.0000 0.0000
# 2 3.0732 77.2519 35.1033 0.0000 0.0000 0.0000
# 3 35.1033 35.1033 137.9528 0.0000 0.0000 0.0000
# 4 0.0000 0.0000 0.0000 16.8981 0.0000 0.0000
# 5 0.0000 0.0000 0.0000 0.0000 16.8981 0.0000
# 6 0.0000 0.0000 0.0000 0.0000 0.0000 37.0893
#
#
#
# Elastic Compliance Matrix: (Units=1/GPa)
#
#
# Indices 1 2 3 4 5 6 
#
# 1 0.014746 0.001265 -0.004074 0.000000 0.000000 0.000000
# 2 0.001265 0.014746 -0.004074 0.000000 0.000000 0.000000
# 3 -0.004074 -0.004074 0.009322 0.000000 0.000000 0.000000
# 4 0.000000 0.000000 0.000000 0.059178 0.000000 0.000000
# 5 0.000000 0.000000 0.000000 0.000000 0.059178 0.000000
# 6 0.000000 0.000000 0.000000 0.000000 0.000000 0.026962
#
#
# Mechanical properties :
#
#
# Convention : Reuss Voigt Hill
#
# Bulk Modulus (GPa) = 39.92535 48.77957 44.35246
# Shear Modulus (GPa) = 24.24278 28.78890 26.51584
#
# Velocity S-wave (km/s) = 3.55840 3.87772 3.72149
# Velocity P-wave (km/s) = 6.14299 6.74737 6.45226
#
# Compressibility (1/GPa) = 0.02504674
#
# Stress axis : x y z
#
# Youngs Moduli (GPa) = 67.81709 67.81709 107.27148
#
# Poissons Ratio (x) = -0.08576 0.43702
# Poissons Ratio (y) = -0.08576 0.43702
# Poissons Ratio (z) = 0.27628 0.27628
#
# Static dielectric constant tensor:
#      x y z
#    x 1.716850 0.000000 0.000000 
#    y 0.000000 1.716850 0.000000 
#    z 0.000000 0.000000 1.666960 
# 
# From -- ./inp_files/5400.got.cif
#   From: 2010.05.17/outbox.cif.g08.bks.cpg/sg182_3_cif.got.tgz:5400.got - 2010.05.20 11:58:53.
