data_PCOD9584081
_publ_section_title
;
Structure prediction by ZEFSAII (Michael W. Deem and Ramdas Pophale) SiO2 
 PCOD9584081
Probable space group: P 62 2 2
;
_chemical_formula_sum "Si O2"
_cell_formula_units_Z 63
_cell_length_a 21.359770
_cell_length_b 21.359770
_cell_length_c 10.979413
_cell_angle_alpha 90.000000
_cell_angle_beta 90.000000
_cell_angle_gamma 120.000000
_cell_volume 4338.133346
_symmetry_space_group_name_H-M "P 62 2 2"
_symmetry_group_IT_number 180
_symmetry_cell_setting 'hexagonal'
loop_
_space_group_symop_operation_xyz
x,y,z
x-y,x,1/3+z
-y,x-y,2/3+z
-x,-y,z
-x+y,-x,1/3+z
y,-x+y,2/3+z
x-y,-y,-z
-x,-x+y,1/3-z
y,x,2/3-z
-y,-x,2/3-z
-x+y,y,-z
x,x-y,1/3-z
loop_
_atom_site_type_symbol
_atom_site_label
_atom_site_fract_x
_atom_site_fract_y
_atom_site_fract_z
Si Si1 0.525349 0.202021 0.995329
Si Si2 0.627651 0.094200 0.808639
Si Si3 0.417062 0.788131 0.360578
Si Si4 0.415393 0.979873 0.361756
Si Si5 0.500000 0.000000 0.000000
Si Si6 0.693230 0.513074 0.063198
O O1 0.558204 0.287883 0.990143
O O2 0.477662 0.169827 0.873889
O O3 0.595747 0.191493 0.000000
O O4 0.474307 0.160096 0.109539
O O5 0.617285 0.137859 0.697423
O O6 0.627205 0.029245 0.734652
O O7 0.565032 0.050588 0.909303
O O8 0.397261 0.794521 0.500000
O O9 0.348184 0.773927 0.282159
O O10 0.358234 0.896244 0.334794
O O11 0.500000 0.000000 0.344041
O O12 0.410672 0.000000 0.500000
O O13 0.770741 0.541482 0.000000
#
# Coordination Sequence:
#
# PCOD9584081 Si02
#       6
#    12  12  12  12   3  12
#     4  12  23  32  47  66  93 119 146 191 245 304
#     4  12  21  35  50  66  84 115 160 189 240 296
#     4  12  22  33  48  68  94 123 147 193 248 323
#     4  11  21  35  54  66  86 120 161 194 237 310
#     4  12  20  36  50  56  84 104 152 206 224 284
#     4  12  23  36  48  71  95 119 157 201 255 306
#
# _framework density 14.522375
#
# number of rings (size 3 to 8) (size 9 to 14) (size 15 to 20)
#    0.000    0.190    7.619    3.429    0.000    0.000 
#    0.000    0.000    0.000    0.000    0.000    0.000 
#    0.000    0.000    0.000    0.000    0.000    0.000 
#
# Total GULP energy -350916.628119 kJ/mol
# GULP energy per Si atom -5570.105208 kJ/mol
# Density = 1.448932 g / cm^3
# Si number density = 14.522375 Si / 1000 Ang^3
#
#
#
# Elastic Constant Matrix: (Units=GPa)
#
#
# Indices 1 2 3 4 5 6 
#
# 1 62.2118 34.3323 31.8459 0.0000 0.0000 0.0000
# 2 34.3323 62.2118 31.8459 0.0000 0.0000 0.0000
# 3 31.8459 31.8459 121.5912 0.0000 0.0000 0.0000
# 4 0.0000 0.0000 0.0000 21.2434 0.0000 0.0000
# 5 0.0000 0.0000 0.0000 0.0000 21.2434 0.0000
# 6 0.0000 0.0000 0.0000 0.0000 0.0000 13.9398
#
#
#
# Elastic Compliance Matrix: (Units=1/GPa)
#
#
# Indices 1 2 3 4 5 6 
#
# 1 0.024195 -0.011674 -0.003279 0.000000 0.000000 0.000000
# 2 -0.011674 0.024195 -0.003279 0.000000 0.000000 0.000000
# 3 -0.003279 -0.003279 0.009942 0.000000 0.000000 0.000000
# 4 0.000000 0.000000 0.000000 0.047073 0.000000 0.000000
# 5 0.000000 0.000000 0.000000 0.000000 0.047073 0.000000
# 6 0.000000 0.000000 0.000000 0.000000 0.000000 0.071737
#
#
# Mechanical properties :
#
#
# Convention : Reuss Voigt Hill
#
# Bulk Modulus (GPa) = 45.73070 49.11810 47.42440
# Shear Modulus (GPa) = 18.65879 21.15138 19.90508
#
# Velocity S-wave (km/s) = 3.58834 3.82051 3.70624
# Velocity P-wave (km/s) = 6.98043 7.30462 7.14437
#
# Compressibility (1/GPa) = 0.02186715
#
# Stress axis : x y z
#
# Youngs Moduli (GPa) = 41.33082 41.33082 100.58195
#
# Poissons Ratio (x) = 0.48248 0.32986
# Poissons Ratio (y) = 0.48248 0.32986
# Poissons Ratio (z) = 0.13554 0.13554
#
# Static dielectric constant tensor:
#      x y z
#    x 1.512220 0.000000 0.000000 
#    y 0.000000 1.512220 0.000000 
#    z 0.000000 0.000000 1.577510 
# 
# From -- ./inp_files/4971.got.cif
#   From: 2010.05.17/outbox.cif.g08.bks.cpg/sg180_3_cif.got.tgz:4971.got - 2010.05.20 11:43:55.
