data_PCOD9584136
_publ_section_title
;
Structure prediction by ZEFSAII (Michael W. Deem and Ramdas Pophale) SiO2 
 PCOD9584136
Probable space group: P 62 2 2
;
_chemical_formula_sum "Si O2"
_cell_formula_units_Z 51
_cell_length_a 13.891675
_cell_length_b 13.891675
_cell_length_c 13.936686
_cell_angle_alpha 90.000000
_cell_angle_beta 90.000000
_cell_angle_gamma 120.000000
_cell_volume 2329.160282
_symmetry_space_group_name_H-M "P 62 2 2"
_symmetry_group_IT_number 180
_symmetry_cell_setting 'hexagonal'
loop_
_space_group_symop_operation_xyz
x,y,z
x-y,x,1/3+z
-y,x-y,2/3+z
-x,-y,z
-x+y,-x,1/3+z
y,-x+y,2/3+z
x-y,-y,-z
-x,-x+y,1/3-z
y,x,2/3-z
-y,-x,2/3-z
-x+y,y,-z
x,x-y,1/3-z
loop_
_atom_site_type_symbol
_atom_site_label
_atom_site_fract_x
_atom_site_fract_y
_atom_site_fract_z
Si Si1 0.252284 0.120490 0.550313
Si Si2 0.271378 0.436615 0.745114
Si Si3 0.000000 0.500000 0.166667
Si Si4 0.500000 0.000000 0.160040
Si Si5 0.405055 0.810109 0.000000
Si Si6 0.334634 0.258195 0.109292
O O1 0.249943 0.124972 0.666667
O O2 0.378276 0.170978 0.509679
O O3 0.220135 0.212347 0.519046
O O4 0.179114 0.000000 0.500000
O O5 0.397378 0.476766 0.767591
O O6 0.258428 0.533886 0.694735
O O7 0.227647 0.338552 0.667178
O O8 0.592946 0.985213 0.215774
O O9 0.451422 0.893025 0.090611
O O10 0.382771 0.191386 0.166667
#
# Coordination Sequence:
#
# PCOD9584136 Si02
#       6
#    12  12   3   6   6  12
#     4  12  25  48  75 105 148 203 255 313 390 462
#     4  12  25  48  72 110 152 201 254 316 386 465
#     4  12  26  48  74 104 154 206 258 312 392 460
#     4  11  23  42  73 107 146 194 242 322 385 455
#     4  11  24  44  74 110 146 194 254 309 386 464
#     4  12  25  44  76 109 149 194 252 316 384 458
#
# _framework density 21.896301999999999
#
# number of rings (size 3 to 8) (size 9 to 14) (size 15 to 20)
#    0.000    0.235    8.235    0.706    0.000    3.294 
#    6.353    1.176    0.000    0.000    0.000    0.000 
#    0.000    0.000    0.000    0.000    0.000    0.000 
#
# Total GULP energy -284445.086546 kJ/mol
# GULP energy per Si atom -5577.354638 kJ/mol
# Density = 2.184647 g / cm^3
# Si number density = 21.896302 Si / 1000 Ang^3
#
#
#
# Elastic Constant Matrix: (Units=GPa)
#
#
# Indices 1 2 3 4 5 6 
#
# 1 141.6773 59.7614 40.5424 0.0000 0.0000 0.0000
# 2 59.7614 141.6773 40.5424 0.0000 0.0000 0.0000
# 3 40.5424 40.5424 116.9839 0.0000 0.0000 0.0000
# 4 0.0000 0.0000 0.0000 5.4368 0.0000 0.0000
# 5 0.0000 0.0000 0.0000 0.0000 5.4368 0.0000
# 6 0.0000 0.0000 0.0000 0.0000 0.0000 40.9580
#
#
#
# Elastic Compliance Matrix: (Units=1/GPa)
#
#
# Indices 1 2 3 4 5 6 
#
# 1 0.008988 -0.003219 -0.001999 0.000000 0.000000 0.000000
# 2 -0.003219 0.008988 -0.001999 0.000000 0.000000 0.000000
# 3 -0.001999 -0.001999 0.009934 0.000000 0.000000 0.000000
# 4 0.000000 0.000000 0.000000 0.183930 0.000000 0.000000
# 5 0.000000 0.000000 0.000000 0.000000 0.183930 0.000000
# 6 0.000000 0.000000 0.000000 0.000000 0.000000 0.024415
#
#
# Mechanical properties :
#
#
# Convention : Reuss Voigt Hill
#
# Bulk Modulus (GPa) = 74.21294 75.78121 74.99707
# Shear Modulus (GPa) = 11.38655 27.66582 19.52619
#
# Velocity S-wave (km/s) = 2.28287 3.55842 2.98947
# Velocity P-wave (km/s) = 6.39650 7.18105 6.80009
#
# Compressibility (1/GPa) = 0.01347474
#
# Stress axis : x y z
#
# Youngs Moduli (GPa) = 111.25497 111.25497 100.66448
#
# Poissons Ratio (x) = 0.35816 0.20126
# Poissons Ratio (y) = 0.35816 0.20126
# Poissons Ratio (z) = 0.22244 0.22244
#
# Static dielectric constant tensor:
#      x y z
#    x 1.848220 0.000000 0.000000 
#    y 0.000000 1.848220 0.000000 
#    z 0.000000 0.000000 3.265630 
# 
# From -- ./inp_files/6014.got.cif
#   From: 2010.05.17/outbox.cif.g08.bks.cpg/sg180_4_cif.got.tgz:6014.got - 2010.05.20 11:43:55.
