data_PCOD9584621
_publ_section_title
;
Structure prediction by ZEFSAII (Michael W. Deem and Ramdas Pophale) SiO2 
 PCOD9584621
Probable space group: P 63 2 2
;
_chemical_formula_sum "Si O2"
_cell_formula_units_Z 60
_cell_length_a 14.854932
_cell_length_b 14.854932
_cell_length_c 15.441744
_cell_angle_alpha 90.000000
_cell_angle_beta 90.000000
_cell_angle_gamma 120.000000
_cell_volume 2950.993930
_symmetry_space_group_name_H-M "P 63 2 2"
_symmetry_group_IT_number 182
_symmetry_cell_setting 'hexagonal'
loop_
_space_group_symop_operation_xyz
x,y,z
x-y,x,1/2+z
-y,x-y,z
-x,-y,1/2+z
-x+y,-x,z
y,-x+y,1/2+z
x-y,-y,-z
-x,-x+y,-z
y,x,-z
-y,-x,1/2-z
-x+y,y,1/2-z
x,x-y,1/2-z
loop_
_atom_site_type_symbol
_atom_site_label
_atom_site_fract_x
_atom_site_fract_y
_atom_site_fract_z
Si Si1 0.066585 0.230790 0.925271
Si Si2 0.838450 0.285837 0.969518
Si Si3 0.639682 0.742911 0.678108
Si Si4 0.625286 0.504461 0.477233
Si Si5 0.077238 0.341446 0.201100
O O1 0.174839 0.257685 0.878212
O O2 0.986722 0.217598 0.849477
O O3 0.106216 0.340966 0.975174
O O4 0.000000 0.146685 0.000000
O O5 0.890537 0.315233 0.875327
O O6 0.851846 0.386391 0.017893
O O7 0.718632 0.197581 0.959917
O O8 0.622854 0.811427 0.750000
O O9 0.543307 0.682883 0.614428
O O10 0.659325 0.660814 0.728197
O O11 0.577829 0.577829 0.500000
O O12 0.175597 0.351194 0.250000
#
# Coordination Sequence:
#
# PCOD9584621 Si02
#       5
#    12  12  12  12  12
#     4   8  16  33  54  77 109 146 181 227 288 351
#     4  10  21  37  57  82 116 154 196 243 296 363
#     4   9  19  35  57  85 112 147 200 252 299 357
#     4  11  21  38  61  85 116 162 203 242 305 377
#     4  10  18  33  55  83 111 143 187 240 291 346
#
# _framework density 20.332132000000001
#
# number of rings (size 3 to 8) (size 9 to 14) (size 15 to 20)
#    0.000    2.400    0.000    3.400    0.000    0.000 
#    0.000   21.000    0.000   10.800    0.000   12.600 
#    0.000    0.000    0.000    0.000    0.000    0.000 
#
# Total GULP energy -334457.317836 kJ/mol
# GULP energy per Si atom -5574.288631 kJ/mol
# Density = 2.028585 g / cm^3
# Si number density = 20.332132 Si / 1000 Ang^3
#
#
#
# Elastic Constant Matrix: (Units=GPa)
#
#
# Indices 1 2 3 4 5 6 
#
# 1 57.0374 36.0866 22.8933 0.0000 0.0000 0.0000
# 2 36.0866 57.0374 22.8933 0.0000 0.0000 0.0000
# 3 22.8933 22.8933 90.3198 0.0000 0.0000 0.0000
# 4 0.0000 0.0000 0.0000 17.0052 0.0000 0.0000
# 5 0.0000 0.0000 0.0000 0.0000 17.0052 0.0000
# 6 0.0000 0.0000 0.0000 0.0000 0.0000 10.4754
#
#
#
# Elastic Compliance Matrix: (Units=1/GPa)
#
#
# Indices 1 2 3 4 5 6 
#
# 1 0.029999 -0.017732 -0.003109 0.000000 0.000000 0.000000
# 2 -0.017732 0.029999 -0.003109 0.000000 0.000000 0.000000
# 3 -0.003109 -0.003109 0.012648 0.000000 0.000000 0.000000
# 4 0.000000 0.000000 0.000000 0.058806 0.000000 0.000000
# 5 0.000000 0.000000 0.000000 0.000000 0.058806 0.000000
# 6 0.000000 0.000000 0.000000 0.000000 0.000000 0.095462
#
#
# Mechanical properties :
#
#
# Convention : Reuss Voigt Hill
#
# Bulk Modulus (GPa) = 40.41231 40.90455 40.65843
# Shear Modulus (GPa) = 14.62552 17.06526 15.84539
#
# Velocity S-wave (km/s) = 2.68494 2.90025 2.79467
# Velocity P-wave (km/s) = 5.43425 5.60153 5.51853
#
# Compressibility (1/GPa) = 0.02474493
#
# Stress axis : x y z
#
# Youngs Moduli (GPa) = 33.33445 33.33445 79.06380
#
# Poissons Ratio (x) = 0.59108 0.24584
# Poissons Ratio (y) = 0.59108 0.24584
# Poissons Ratio (z) = 0.10365 0.10365
#
# Static dielectric constant tensor:
#      x y z
#    x 1.748120 0.000000 0.000000 
#    y 0.000000 1.748120 0.000000 
#    z 0.000000 0.000000 1.766020 
# 
# From -- ./inp_files/3452.got.cif
#   From: 2010.05.17/outbox.cif.g08.bks.cpg/sg182_2_cif.got.tgz:3452.got - 2010.05.20 11:58:53.
