data_PCOD9584143
_publ_section_title
;
Structure prediction by ZEFSAII (Michael W. Deem and Ramdas Pophale) SiO2 
 PCOD9584143
Probable space group: P 62 2 2
;
_chemical_formula_sum "Si O2"
_cell_formula_units_Z 39
_cell_length_a 14.404639
_cell_length_b 14.404639
_cell_length_c 10.435225
_cell_angle_alpha 90.000000
_cell_angle_beta 90.000000
_cell_angle_gamma 120.000000
_cell_volume 1875.155149
_symmetry_space_group_name_H-M "P 62 2 2"
_symmetry_group_IT_number 180
_symmetry_cell_setting 'hexagonal'
loop_
_space_group_symop_operation_xyz
x,y,z
x-y,x,1/3+z
-y,x-y,2/3+z
-x,-y,z
-x+y,-x,1/3+z
y,-x+y,2/3+z
x-y,-y,-z
-x,-x+y,1/3-z
y,x,2/3-z
-y,-x,2/3-z
-x+y,y,-z
x,x-y,1/3-z
loop_
_atom_site_type_symbol
_atom_site_label
_atom_site_fract_x
_atom_site_fract_y
_atom_site_fract_z
Si Si1 0.500000 0.500000 0.833334
Si Si2 0.173178 0.559573 0.972767
Si Si3 0.876728 0.639529 0.867826
Si Si4 0.630962 0.750227 0.046424
O O1 0.515692 0.599602 0.746718
O O2 0.297713 0.595426 0.000000
O O3 0.144185 0.482001 0.850546
O O4 0.145298 0.653605 0.969381
O O5 0.824220 0.665811 0.747737
O O6 0.999930 0.713071 0.904733
O O7 0.816857 0.633714 0.000000
O O8 0.624412 0.812206 0.166667
#
# Coordination Sequence:
#
# PCOD9584143 Si02
#       4
#     3  12  12  12
#     4  12  20  44  64  98 144 188 262 274 350 444
#     4  11  24  38  67  99 142 188 241 290 349 437
#     4  11  24  44  71  98 136 187 245 301 362 449
#     4  12  26  43  67 103 145 185 237 303 378 442
#
# _framework density 20.798279000000001
#
# number of rings (size 3 to 8) (size 9 to 14) (size 15 to 20)
#    0.000    0.615    3.077    5.538    6.462    0.000 
#    0.000    3.077    0.000    9.231    0.000    0.000 
#    0.000    0.000    0.000    0.000    0.000    0.000 
#
# Total GULP energy -217247.085585 kJ/mol
# GULP energy per Si atom -5570.438092 kJ/mol
# Density = 2.075094 g / cm^3
# Si number density = 20.798279 Si / 1000 Ang^3
#
#
#
# Elastic Constant Matrix: (Units=GPa)
#
#
# Indices 1 2 3 4 5 6 
#
# 1 146.2392 50.5358 54.1769 0.0000 0.0000 0.0000
# 2 50.5358 146.2392 54.1769 0.0000 0.0000 0.0000
# 3 54.1769 54.1769 117.3479 0.0000 0.0000 0.0000
# 4 0.0000 0.0000 0.0000 24.2931 0.0000 0.0000
# 5 0.0000 0.0000 0.0000 0.0000 24.2931 0.0000
# 6 0.0000 0.0000 0.0000 0.0000 0.0000 47.8517
#
#
#
# Elastic Compliance Matrix: (Units=1/GPa)
#
#
# Indices 1 2 3 4 5 6 
#
# 1 0.008632 -0.001817 -0.003146 0.000000 0.000000 0.000000
# 2 -0.001817 0.008632 -0.003146 0.000000 0.000000 0.000000
# 3 -0.003146 -0.003146 0.011427 0.000000 0.000000 0.000000
# 4 0.000000 0.000000 0.000000 0.041164 0.000000 0.000000
# 5 0.000000 0.000000 0.000000 0.000000 0.041164 0.000000
# 6 0.000000 0.000000 0.000000 0.000000 0.000000 0.020898
#
#
# Mechanical properties :
#
#
# Convention : Reuss Voigt Hill
#
# Bulk Modulus (GPa) = 80.18535 80.84506 80.51520
# Shear Modulus (GPa) = 32.83180 36.01667 34.42423
#
# Velocity S-wave (km/s) = 3.97745 4.16590 4.07276
# Velocity P-wave (km/s) = 7.72858 7.88004 7.80468
#
# Compressibility (1/GPa) = 0.01247111
#
# Stress axis : x y z
#
# Youngs Moduli (GPa) = 115.85305 115.85305 87.51538
#
# Poissons Ratio (x) = 0.21054 0.27532
# Poissons Ratio (y) = 0.21054 0.27532
# Poissons Ratio (z) = 0.36448 0.36448
#
# Static dielectric constant tensor:
#      x y z
#    x 1.881750 0.000000 0.000000 
#    y 0.000000 1.881750 0.000000 
#    z 0.000000 0.000000 1.790660 
# 
# From -- ./inp_files/4048.got.cif
#   From: 2010.05.17/outbox.cif.g08.bks.cpg/sg180_3_cif.got.tgz:4048.got - 2010.05.20 11:43:55.
