data_PCOD9584476
_publ_section_title
;
Structure prediction by ZEFSAII (Michael W. Deem and Ramdas Pophale) SiO2 
 PCOD9584476
Probable space group: P 64 2 2
;
_chemical_formula_sum "Si O2"
_cell_formula_units_Z 75
_cell_length_a 11.694744
_cell_length_b 11.694744
_cell_length_c 28.437196
_cell_angle_alpha 90.000000
_cell_angle_beta 90.000000
_cell_angle_gamma 120.000000
_cell_volume 3368.207526
_symmetry_space_group_name_H-M "P 64 2 2"
_symmetry_group_IT_number 181
_symmetry_cell_setting 'hexagonal'
loop_
_space_group_symop_operation_xyz
x,y,z
x-y,x,2/3+z
-y,x-y,1/3+z
-x,-y,z
-x+y,-x,2/3+z
y,-x+y,1/3+z
x-y,-y,-z
-x,-x+y,2/3-z
y,x,1/3-z
-y,-x,1/3-z
-x+y,y,-z
x,x-y,2/3-z
loop_
_atom_site_type_symbol
_atom_site_label
_atom_site_fract_x
_atom_site_fract_y
_atom_site_fract_z
Si Si1 0.492093 0.859888 0.546487
Si Si2 0.649811 0.390420 0.611769
Si Si3 0.860028 0.733463 0.835314
Si Si4 0.780422 0.994584 0.264786
Si Si5 0.611542 0.736045 0.790400
Si Si6 0.000000 0.000000 0.666667
Si Si7 0.494399 0.119441 0.313011
O O1 0.400780 0.801559 0.500000
O O2 0.436250 0.754184 0.588455
O O3 0.632342 0.884501 0.528392
O O4 0.500000 0.000000 0.555778
O O5 0.610583 0.389418 0.666667
O O6 0.641008 0.498059 0.578958
O O7 0.803758 0.425059 0.611884
O O8 0.842118 0.722893 0.891475
O O9 0.721146 0.708740 0.813988
O O10 0.000000 0.871230 0.833334
O O11 0.651614 0.959430 0.293416
O O12 0.898496 0.012742 0.298291
O O13 0.835213 0.131002 0.237849
O O14 0.545972 0.772986 0.833334
O O15 0.500410 0.250205 0.333334
O O16 0.500000 0.000000 0.339281
#
# Coordination Sequence:
#
# PCOD9584476 Si02
#       7
#    12  12  12  12  12   3  12
#     4  11  23  46  74 106 145 200 269 326 386 471
#     4  11  25  45  70 110 156 200 255 334 399 484
#     4  11  23  45  74 104 142 195 254 321 382 468
#     4  11  23  44  68 108 145 197 244 316 382 466
#     4  10  23  45  72 102 147 198 256 310 387 476
#     4  12  24  44  74 112 162 192 254 318 402 480
#     4  11  23  44  72 105 151 198 258 309 392 470
#
# _framework density 22.267035
#
# number of rings (size 3 to 8) (size 9 to 14) (size 15 to 20)
#    0.000    1.120    4.000    2.400    0.000    5.440 
#    5.760    0.800    0.000    0.000    0.000    0.000 
#    0.000    0.000    0.000    0.000    0.000    0.000 
#
# Total GULP energy -417627.079862 kJ/mol
# GULP energy per Si atom -5568.361065 kJ/mol
# Density = 2.221635 g / cm^3
# Si number density = 22.267035 Si / 1000 Ang^3
#
#
#
# Elastic Constant Matrix: (Units=GPa)
#
#
# Indices 1 2 3 4 5 6 
#
# 1 88.3011 70.2258 61.1930 0.0000 0.0000 0.0000
# 2 70.2258 88.3011 61.1930 0.0000 0.0000 0.0000
# 3 61.1930 61.1930 154.4838 0.0000 0.0000 0.0000
# 4 0.0000 0.0000 0.0000 12.2119 0.0000 0.0000
# 5 0.0000 0.0000 0.0000 0.0000 12.2119 0.0000
# 6 0.0000 0.0000 0.0000 0.0000 0.0000 9.0376
#
#
#
# Elastic Compliance Matrix: (Units=1/GPa)
#
#
# Indices 1 2 3 4 5 6 
#
# 1 0.032206 -0.023119 -0.003599 0.000000 0.000000 0.000000
# 2 -0.023119 0.032206 -0.003599 0.000000 0.000000 0.000000
# 3 -0.003599 -0.003599 0.009325 0.000000 0.000000 0.000000
# 4 0.000000 0.000000 0.000000 0.081887 0.000000 0.000000
# 5 0.000000 0.000000 0.000000 0.000000 0.081887 0.000000
# 6 0.000000 0.000000 0.000000 0.000000 0.000000 0.110648
#
#
# Mechanical properties :
#
#
# Convention : Reuss Voigt Hill
#
# Bulk Modulus (GPa) = 76.33120 79.58997 77.96059
# Shear Modulus (GPa) = 12.10182 15.92389 14.01285
#
# Velocity S-wave (km/s) = 2.33381 2.67710 2.51133
# Velocity P-wave (km/s) = 6.45109 6.73623 6.59520
#
# Compressibility (1/GPa) = 0.01310080
#
# Stress axis : x y z
#
# Youngs Moduli (GPa) = 31.05054 31.05054 107.24146
#
# Poissons Ratio (x) = 0.71785 0.38601
# Poissons Ratio (y) = 0.71785 0.38601
# Poissons Ratio (z) = 0.11176 0.11176
#
# Static dielectric constant tensor:
#      x y z
#    x 2.044860 0.000000 0.000000 
#    y 0.000000 2.044860 0.000000 
#    z 0.000000 0.000000 0.213700 
# 
# From -- ./inp_files/12385.got.cif
#   From: 2010.05.17/outbox.cif.g08.bks.cpg/sg181_7_cif.got.tgz:12385.got - 2010.05.20 11:51:17.
