data_PCOD9584106
_publ_section_title
;
Structure prediction by ZEFSAII (Michael W. Deem and Ramdas Pophale) SiO2 
 PCOD9584106
Probable space group: P 62 2 2
;
_chemical_formula_sum "Si O2"
_cell_formula_units_Z 51
_cell_length_a 10.646737
_cell_length_b 10.646737
_cell_length_c 20.266192
_cell_angle_alpha 90.000000
_cell_angle_beta 90.000000
_cell_angle_gamma 120.000000
_cell_volume 1989.462863
_symmetry_space_group_name_H-M "P 62 2 2"
_symmetry_group_IT_number 180
_symmetry_cell_setting 'hexagonal'
loop_
_space_group_symop_operation_xyz
x,y,z
x-y,x,1/3+z
-y,x-y,2/3+z
-x,-y,z
-x+y,-x,1/3+z
y,-x+y,2/3+z
x-y,-y,-z
-x,-x+y,1/3-z
y,x,2/3-z
-y,-x,2/3-z
-x+y,y,-z
x,x-y,1/3-z
loop_
_atom_site_type_symbol
_atom_site_label
_atom_site_fract_x
_atom_site_fract_y
_atom_site_fract_z
Si Si1 0.221941 0.517438 0.575019
Si Si2 0.312122 0.167570 0.770156
Si Si3 0.101301 0.728518 0.578144
Si Si4 0.950747 0.311172 0.000711
Si Si5 0.000000 0.000000 0.833334
O O1 0.277215 0.554429 0.500000
O O2 0.167629 0.626824 0.596868
O O3 0.329619 0.499015 0.625374
O O4 0.070476 0.364223 0.569345
O O5 0.375745 0.174845 0.842031
O O6 0.373875 0.323611 0.733772
O O7 0.338628 0.067691 0.720599
O O8 0.139664 0.063166 0.785480
O O9 0.152229 0.848220 0.634600
#
# Coordination Sequence:
#
# PCOD9584106 Si02
#       5
#    12  12  12  12   3
#     4  11  23  40  66  90 134 180 240 283 341 424
#     4  11  23  35  62  97 143 170 219 291 373 430
#     4  11  22  41  64  94 135 181 228 289 348 426
#     4  11  22  37  62  98 129 175 223 286 362 434
#     4  12  20  34  52  96 136 176 196 282 354 448
#
# _framework density 25.635059999999999
#
# number of rings (size 3 to 8) (size 9 to 14) (size 15 to 20)
#    0.000    0.941    4.706    2.824    3.294    2.824 
#    0.000    0.000   15.529    1.412    0.000    0.000 
#    0.000    0.000    0.000    0.000    0.000    0.000 
#
# Total GULP energy -284121.248328 kJ/mol
# GULP energy per Si atom -5571.004869 kJ/mol
# Density = 2.557671 g / cm^3
# Si number density = 25.635060 Si / 1000 Ang^3
#
#
#
# Elastic Constant Matrix: (Units=GPa)
#
#
# Indices 1 2 3 4 5 6 
#
# 1 73.8151 32.5364 34.2038 0.0000 0.0000 0.0000
# 2 32.5364 73.8151 34.2038 0.0000 0.0000 0.0000
# 3 34.2038 34.2038 180.5434 0.0000 0.0000 0.0000
# 4 0.0000 0.0000 0.0000 7.0515 0.0000 0.0000
# 5 0.0000 0.0000 0.0000 0.0000 7.0515 0.0000
# 6 0.0000 0.0000 0.0000 0.0000 0.0000 20.6394
#
#
#
# Elastic Compliance Matrix: (Units=1/GPa)
#
#
# Indices 1 2 3 4 5 6 
#
# 1 0.017467 -0.006759 -0.002029 0.000000 0.000000 0.000000
# 2 -0.006759 0.017467 -0.002029 0.000000 0.000000 0.000000
# 3 -0.002029 -0.002029 0.006307 0.000000 0.000000 0.000000
# 4 0.000000 0.000000 0.000000 0.141814 0.000000 0.000000
# 5 0.000000 0.000000 0.000000 0.000000 0.141814 0.000000
# 6 0.000000 0.000000 0.000000 0.000000 0.000000 0.048451
#
#
# Mechanical properties :
#
#
# Convention : Reuss Voigt Hill
#
# Bulk Modulus (GPa) = 50.99846 58.89576 54.94711
# Shear Modulus (GPa) = 12.45367 22.09711 17.27539
#
# Velocity S-wave (km/s) = 2.20649 2.93915 2.59877
# Velocity P-wave (km/s) = 5.14088 5.87730 5.52138
#
# Compressibility (1/GPa) = 0.01960844
#
# Stress axis : x y z
#
# Youngs Moduli (GPa) = 57.25224 57.25224 158.54278
#
# Poissons Ratio (x) = 0.38697 0.32161
# Poissons Ratio (y) = 0.38697 0.32161
# Poissons Ratio (z) = 0.11614 0.11614
#
# Static dielectric constant tensor:
#      x y z
#    x 2.087270 0.000000 0.000000 
#    y 0.000000 2.087270 0.000000 
#    z 0.000000 0.000000 2.025100 
# 
# From -- ./inp_files/8874.got.cif
#   From: 2010.05.17/outbox.cif.g08.bks.cpg/sg180_5_cif.got.tgz:8874.got - 2010.05.20 11:43:55.
