data_PCOD9584080
_publ_section_title
;
Structure prediction by ZEFSAII (Michael W. Deem and Ramdas Pophale) SiO2 
 PCOD9584080
Probable space group: P 62 2 2
;
_chemical_formula_sum "Si O2"
_cell_formula_units_Z 75
_cell_length_a 13.914970
_cell_length_b 13.914970
_cell_length_c 20.886065
_cell_angle_alpha 90.000000
_cell_angle_beta 90.000000
_cell_angle_gamma 120.000000
_cell_volume 3502.287593
_symmetry_space_group_name_H-M "P 62 2 2"
_symmetry_group_IT_number 180
_symmetry_cell_setting 'hexagonal'
loop_
_space_group_symop_operation_xyz
x,y,z
x-y,x,1/3+z
-y,x-y,2/3+z
-x,-y,z
-x+y,-x,1/3+z
y,-x+y,2/3+z
x-y,-y,-z
-x,-x+y,1/3-z
y,x,2/3-z
-y,-x,2/3-z
-x+y,y,-z
x,x-y,1/3-z
loop_
_atom_site_type_symbol
_atom_site_label
_atom_site_fract_x
_atom_site_fract_y
_atom_site_fract_z
Si Si1 0.127575 0.532555 0.735705
Si Si2 0.000000 0.000000 0.500000
Si Si3 0.867977 0.424797 0.459000
Si Si4 0.367462 0.157002 0.426338
Si Si5 0.249950 0.824970 0.429549
Si Si6 0.829681 0.961732 0.600813
Si Si7 0.538758 0.127325 0.343095
O O1 0.177760 0.588880 0.666667
O O2 0.178859 0.598178 0.802748
O O3 0.132565 0.420392 0.747131
O O4 0.000000 0.500000 0.733127
O O5 0.106563 0.065748 0.545817
O O6 0.840770 0.302733 0.438123
O O7 0.824572 0.454809 0.394903
O O8 0.000000 0.500000 0.466053
O O9 0.401559 0.133968 0.496674
O O10 0.439511 0.128109 0.379486
O O11 0.236460 0.084841 0.412608
O O12 0.194182 0.890401 0.399470
O O13 0.351635 0.830343 0.388500
O O14 0.868256 0.934128 0.666667
O O15 0.500000 0.000000 0.332003
#
# Coordination Sequence:
#
# PCOD9584080 Si02
#       7
#    12   3  12  12  12  12  12
#     4   9  20  43  67  89 122 181 225 269 320 385
#     4  12  26  52  64  96 136 164 238 304 340 418
#     4   9  20  36  60  97 133 173 216 264 322 397
#     4  11  23  41  68  99 135 178 228 272 337 423
#     4  11  21  40  67  97 141 181 214 273 342 411
#     4  12  25  45  71  99 134 176 230 293 358 403
#     4  11  21  34  62 102 140 168 210 259 334 411
#
# _framework density 21.414576
#
# number of rings (size 3 to 8) (size 9 to 14) (size 15 to 20)
#    0.000    1.440    3.200    2.160    2.240    1.920 
#    5.760    2.400    0.000    0.000    0.000    0.000 
#    0.000    0.000    0.000    0.000    0.000    0.000 
#
# Total GULP energy -417647.011483 kJ/mol
# GULP energy per Si atom -5568.626820 kJ/mol
# Density = 2.136584 g / cm^3
# Si number density = 21.414576 Si / 1000 Ang^3
#
#
#
# Elastic Constant Matrix: (Units=GPa)
#
#
# Indices 1 2 3 4 5 6 
#
# 1 75.2039 20.8472 41.6271 0.0000 0.0000 0.0000
# 2 20.8472 75.2039 41.6271 0.0000 0.0000 0.0000
# 3 41.6271 41.6271 214.3500 0.0000 0.0000 0.0000
# 4 0.0000 0.0000 0.0000 34.0721 0.0000 0.0000
# 5 0.0000 0.0000 0.0000 0.0000 34.0721 0.0000
# 6 0.0000 0.0000 0.0000 0.0000 0.0000 27.1784
#
#
#
# Elastic Compliance Matrix: (Units=1/GPa)
#
#
# Indices 1 2 3 4 5 6 
#
# 1 0.015458 -0.002939 -0.002431 0.000000 0.000000 0.000000
# 2 -0.002939 0.015458 -0.002431 0.000000 0.000000 0.000000
# 3 -0.002431 -0.002431 0.005610 0.000000 0.000000 0.000000
# 4 0.000000 0.000000 0.000000 0.029350 0.000000 0.000000
# 5 0.000000 0.000000 0.000000 0.000000 0.029350 0.000000
# 6 0.000000 0.000000 0.000000 0.000000 0.000000 0.036794
#
#
# Mechanical properties :
#
#
# Convention : Reuss Voigt Hill
#
# Bulk Modulus (GPa) = 47.79703 63.66230 55.72967
# Shear Modulus (GPa) = 32.34261 36.44160 34.39210
#
# Velocity S-wave (km/s) = 3.89048 4.12967 4.01186
# Velocity P-wave (km/s) = 6.52300 7.24789 6.89497
#
# Compressibility (1/GPa) = 0.02092180
#
# Stress axis : x y z
#
# Youngs Moduli (GPa) = 64.69292 64.69292 178.26898
#
# Poissons Ratio (x) = 0.19016 0.43338
# Poissons Ratio (y) = 0.19016 0.43338
# Poissons Ratio (z) = 0.15727 0.15727
#
# Static dielectric constant tensor:
#      x y z
#    x 1.618470 0.000000 0.000000 
#    y 0.000000 1.618470 0.000000 
#    z 0.000000 0.000000 1.968860 
# 
# From -- ./inp_files/9192.got.cif
#   From: 2010.05.17/outbox.cif.g08.bks.cpg/sg180_5_cif.got.tgz:9192.got - 2010.05.20 11:43:55.
