data_PCOD9584279
_publ_section_title
;
Structure prediction by ZEFSAII (Michael W. Deem and Ramdas Pophale) SiO2 
 PCOD9584279
Probable space group: P 64 2 2
;
_chemical_formula_sum "Si O2"
_cell_formula_units_Z 84
_cell_length_a 17.810551
_cell_length_b 17.810551
_cell_length_c 16.381022
_cell_angle_alpha 90.000000
_cell_angle_beta 90.000000
_cell_angle_gamma 120.000000
_cell_volume 4500.143222
_symmetry_space_group_name_H-M "P 64 2 2"
_symmetry_group_IT_number 181
_symmetry_cell_setting 'hexagonal'
loop_
_space_group_symop_operation_xyz
x,y,z
x-y,x,2/3+z
-y,x-y,1/3+z
-x,-y,z
-x+y,-x,2/3+z
y,-x+y,1/3+z
x-y,-y,-z
-x,-x+y,2/3-z
y,x,1/3-z
-y,-x,1/3-z
-x+y,y,-z
x,x-y,2/3-z
loop_
_atom_site_type_symbol
_atom_site_label
_atom_site_fract_x
_atom_site_fract_y
_atom_site_fract_z
Si Si1 0.515371 0.673451 0.854948
Si Si2 0.487320 0.648599 0.418846
Si Si3 0.662024 0.774031 0.986184
Si Si4 0.342559 0.822780 0.562039
Si Si5 0.677830 0.733268 0.746254
Si Si6 0.308849 0.248855 0.433034
Si Si7 0.668902 0.767776 0.174310
O O1 0.484120 0.742060 0.833334
O O2 0.436397 0.577985 0.865746
O O3 0.574426 0.708488 0.936937
O O4 0.581847 0.683227 0.784230
O O5 0.464079 0.630029 0.323123
O O6 0.474250 0.729094 0.444163
O O7 0.588545 0.681193 0.430549
O O8 0.695251 0.866787 0.943572
O O9 0.728114 0.738253 0.971304
O O10 0.647774 0.782205 0.081349
O O11 0.414945 0.829889 0.500000
O O12 0.311221 0.891508 0.542826
O O13 0.689053 0.689053 0.666667
O O14 0.738857 0.732281 0.817394
O O15 0.305109 0.157302 0.437873
O O16 0.741996 0.741996 0.166667
#
# Coordination Sequence:
#
# PCOD9584279 Si02
#       7
#    12  12  12  12  12  12  12
#     4   9  19  34  57  84 115 155 200 230 285 340
#     4  10  20  36  55  82 119 153 189 251 278 329
#     4  10  20  36  60  83 112 149 186 231 282 352
#     4  10  21  36  56  78 114 158 199 231 289 336
#     4  10  19  37  61  83 111 149 185 232 289 349
#     4  10  21  37  58  84 113 147 191 231 296 339
#     4  11  22  36  57  84 111 144 191 240 281 342
#
# _framework density 18.666073000000001
#
# number of rings (size 3 to 8) (size 9 to 14) (size 15 to 20)
#    0.000    2.000    1.429    3.429    0.000    4.286 
#    0.000    5.714    0.000    1.714    0.000    0.000 
#    0.000    0.000    0.000    0.000    0.000    0.000 
#
# Total GULP energy -468952.725237 kJ/mol
# GULP energy per Si atom -5582.770539 kJ/mol
# Density = 1.862359 g / cm^3
# Si number density = 18.666073 Si / 1000 Ang^3
#
#
#
# Elastic Constant Matrix: (Units=GPa)
#
#
# Indices 1 2 3 4 5 6 
#
# 1 76.2075 61.4288 9.9756 0.0000 0.0000 0.0000
# 2 61.4288 76.2075 9.9756 0.0000 0.0000 0.0000
# 3 9.9756 9.9756 46.6864 0.0000 0.0000 0.0000
# 4 0.0000 0.0000 0.0000 19.8663 0.0000 0.0000
# 5 0.0000 0.0000 0.0000 0.0000 19.8663 0.0000
# 6 0.0000 0.0000 0.0000 0.0000 0.0000 7.3893
#
#
#
# Elastic Compliance Matrix: (Units=1/GPa)
#
#
# Indices 1 2 3 4 5 6 
#
# 1 0.037581 -0.030084 -0.001602 0.000000 0.000000 0.000000
# 2 -0.030084 0.037581 -0.001602 0.000000 0.000000 0.000000
# 3 -0.001602 -0.001602 0.022104 0.000000 0.000000 0.000000
# 4 0.000000 0.000000 0.000000 0.050336 0.000000 0.000000
# 5 0.000000 0.000000 0.000000 0.000000 0.050336 0.000000
# 6 0.000000 0.000000 0.000000 0.000000 0.000000 0.135330
#
#
# Mechanical properties :
#
#
# Convention : Reuss Voigt Hill
#
# Bulk Modulus (GPa) = 32.58243 40.20683 36.39463
# Shear Modulus (GPa) = 12.19287 17.27249 14.73268
#
# Velocity S-wave (km/s) = 2.55857 3.04524 2.81245
# Velocity P-wave (km/s) = 5.12071 5.82679 5.48512
#
# Compressibility (1/GPa) = 0.03069139
#
# Stress axis : x y z
#
# Youngs Moduli (GPa) = 26.60891 26.60891 45.24035
#
# Poissons Ratio (x) = 0.80049 0.07248
# Poissons Ratio (y) = 0.80049 0.07248
# Poissons Ratio (z) = 0.04263 0.04263
#
# Static dielectric constant tensor:
#      x y z
#    x 1.635570 0.000000 0.000000 
#    y 0.000000 1.635570 0.000000 
#    z 0.000000 0.000000 1.658580 
# 
# From -- ./inp_files/6478.got.cif
#   From: 2010.05.17/outbox.cif.g08.bks.cpg/sg181_4_cif.got.tgz:6478.got - 2010.05.20 11:51:17.
