data_PCOD9584003
_publ_section_title
;
Structure prediction by ZEFSAII (Michael W. Deem and Ramdas Pophale) SiO2 
 PCOD9584003
Probable space group: P 62 2 2
;
_chemical_formula_sum "Si O2"
_cell_formula_units_Z 27
_cell_length_a 11.864251
_cell_length_b 11.864251
_cell_length_c 9.600975
_cell_angle_alpha 90.000000
_cell_angle_beta 90.000000
_cell_angle_gamma 120.000000
_cell_volume 1170.379275
_symmetry_space_group_name_H-M "P 62 2 2"
_symmetry_group_IT_number 180
_symmetry_cell_setting 'hexagonal'
loop_
_space_group_symop_operation_xyz
x,y,z
x-y,x,1/3+z
-y,x-y,2/3+z
-x,-y,z
-x+y,-x,1/3+z
y,-x+y,2/3+z
x-y,-y,-z
-x,-x+y,1/3-z
y,x,2/3-z
-y,-x,2/3-z
-x+y,y,-z
x,x-y,1/3-z
loop_
_atom_site_type_symbol
_atom_site_label
_atom_site_fract_x
_atom_site_fract_y
_atom_site_fract_z
Si Si1 0.956979 0.360750 0.930681
Si Si2 0.500000 0.500000 0.333334
Si Si3 0.737926 0.856540 0.441388
O O1 0.000000 0.500000 0.998353
O O2 0.916551 0.385093 0.775971
O O3 0.068572 0.326478 0.888248
O O4 0.866952 0.242589 0.028540
O O5 0.815132 0.815132 0.333334
O O6 0.835039 0.000000 0.500000
#
# Coordination Sequence:
#
# PCOD9584003 Si02
#       3
#    12   3  12
#     4  10  23  44  70  97 145 190 233 286 356 427
#     4   8  20  44  70  82 140 200 216 294 332 432
#     4  12  25  42  75 108 148 183 237 298 366 429
#
# _framework density 23.069441999999999
#
# number of rings (size 3 to 8) (size 9 to 14) (size 15 to 20)
#    1.333    0.000    2.222    2.667    0.000    9.778 
#    0.000    0.000   78.222    0.000    0.000    0.000 
#    0.000    0.000    0.000    0.000    0.000    0.000 
#
# Total GULP energy -150449.498798 kJ/mol
# GULP energy per Si atom -5572.203659 kJ/mol
# Density = 2.301694 g / cm^3
# Si number density = 23.069442 Si / 1000 Ang^3
#
#
#
# Elastic Constant Matrix: (Units=GPa)
#
#
# Indices 1 2 3 4 5 6 
#
# 1 133.4264 52.5627 17.2558 0.0000 0.0000 0.0000
# 2 52.5627 133.4264 17.2558 0.0000 0.0000 0.0000
# 3 17.2558 17.2558 46.6269 0.0000 0.0000 0.0000
# 4 0.0000 0.0000 0.0000 37.6207 0.0000 0.0000
# 5 0.0000 0.0000 0.0000 0.0000 37.6207 0.0000
# 6 0.0000 0.0000 0.0000 0.0000 0.0000 40.4318
#
#
#
# Elastic Compliance Matrix: (Units=1/GPa)
#
#
# Indices 1 2 3 4 5 6 
#
# 1 0.009070 -0.003297 -0.002137 0.000000 0.000000 0.000000
# 2 -0.003297 0.009070 -0.002137 0.000000 0.000000 0.000000
# 3 -0.002137 -0.002137 0.023028 0.000000 0.000000 0.000000
# 4 0.000000 0.000000 0.000000 0.026581 0.000000 0.000000
# 5 0.000000 0.000000 0.000000 0.000000 0.026581 0.000000
# 6 0.000000 0.000000 0.000000 0.000000 0.000000 0.024733
#
#
# Mechanical properties :
#
#
# Convention : Reuss Voigt Hill
#
# Bulk Modulus (GPa) = 38.41964 54.18090 46.30027
# Shear Modulus (GPa) = 34.99474 38.22834 36.61154
#
# Velocity S-wave (km/s) = 3.89900 4.07516 3.98806
# Velocity P-wave (km/s) = 6.07945 6.75867 6.42804
#
# Compressibility (1/GPa) = 0.02602835
#
# Stress axis : x y z
#
# Youngs Moduli (GPa) = 110.25603 110.25603 43.42496
#
# Poissons Ratio (x) = 0.36348 0.09278
# Poissons Ratio (y) = 0.36348 0.09278
# Poissons Ratio (z) = 0.23556 0.23556
#
# Static dielectric constant tensor:
#      x y z
#    x 1.887720 0.000000 0.000000 
#    y 0.000000 1.887720 0.000000 
#    z 0.000000 0.000000 1.958040 
# 
# From -- ./inp_files/3871.got.cif
#   From: 2010.05.17/outbox.cif.g08.bks.cpg/sg180_2_cif.got.tgz:3871.got - 2010.05.20 11:43:55.
