data_PCOD9584680
_publ_section_title
;
Structure prediction by ZEFSAII (Michael W. Deem and Ramdas Pophale) SiO2 
 PCOD9584680
Probable space group: P 63 2 2
;
_chemical_formula_sum "Si O2"
_cell_formula_units_Z 52
_cell_length_a 11.115768
_cell_length_b 11.115768
_cell_length_c 27.607606
_cell_angle_alpha 90.000000
_cell_angle_beta 90.000000
_cell_angle_gamma 120.000000
_cell_volume 2954.189348
_symmetry_space_group_name_H-M "P 63 2 2"
_symmetry_group_IT_number 182
_symmetry_cell_setting 'hexagonal'
loop_
_space_group_symop_operation_xyz
x,y,z
x-y,x,1/2+z
-y,x-y,z
-x,-y,1/2+z
-x+y,-x,z
y,-x+y,1/2+z
x-y,-y,-z
-x,-x+y,-z
y,x,-z
-y,-x,1/2-z
-x+y,y,1/2-z
x,x-y,1/2-z
loop_
_atom_site_type_symbol
_atom_site_label
_atom_site_fract_x
_atom_site_fract_y
_atom_site_fract_z
Si Si1 0.002564 0.281333 0.694685
Si Si2 0.666667 0.333335 0.806799
Si Si3 0.281334 0.278768 0.305315
Si Si4 0.522796 0.477204 0.637977
Si Si5 0.574660 0.149320 0.972286
O O1 0.118467 0.236934 0.692249
O O2 0.006460 0.332605 0.750000
O O3 0.851757 0.148243 0.686838
O O4 0.032953 0.396894 0.654563
O O5 0.666668 0.333334 0.750000
O O6 0.589659 0.410344 0.827211
O O7 0.396895 0.363940 0.345437
O O8 0.551766 0.448233 0.583886
O O9 0.741463 0.258537 0.981093
O O10 0.500000 0.000000 0.000000
#
# Coordination Sequence:
#
# PCOD9584680 Si02
#       5
#    12   4  12  12  12
#     4  10  20  33  51  78 115 156 193 233 291 361
#     4  12  18  30  60  90 114 138 183 246 298 341
#     4  10  20  33  51  78 115 156 193 233 291 361
#     4  12  20  36  58  86 112 146 205 253 296 360
#     4  10  22  42  64  90 119 160 213 273 328 395
#
# _framework density 17.602121
#
# number of rings (size 3 to 8) (size 9 to 14) (size 15 to 20)
#    0.462    0.923    4.615    2.538    0.000    3.692 
#    1.385    0.000    0.000    0.462    0.000    0.000 
#    0.000    0.000    0.000    0.000    0.000    0.000 
#
# Total GULP energy -289563.369950 kJ/mol
# GULP energy per Si atom -5568.526345 kJ/mol
# Density = 1.756206 g / cm^3
# Si number density = 17.602121 Si / 1000 Ang^3
#
#
#
# Elastic Constant Matrix: (Units=GPa)
#
#
# Indices 1 2 3 4 5 6 
#
# 1 83.1677 28.9988 38.7845 0.0000 0.0000 0.0000
# 2 28.9988 83.1674 38.7845 0.0001 0.0000 0.0000
# 3 38.7845 38.7845 101.6960 -0.0001 -0.0001 0.0000
# 4 0.0000 0.0001 -0.0001 22.2625 0.0000 0.0000
# 5 0.0000 0.0000 -0.0001 0.0000 22.2622 0.0000
# 6 0.0000 0.0000 0.0000 0.0000 0.0000 27.0845
#
#
#
# Elastic Compliance Matrix: (Units=1/GPa)
#
#
# Indices 1 2 3 4 5 6 
#
# 1 0.015285 -0.003176 -0.004618 0.000000 0.000000 0.000000
# 2 -0.003176 0.015285 -0.004618 0.000000 0.000000 0.000000
# 3 -0.004618 -0.004618 0.013356 0.000000 0.000000 0.000000
# 4 0.000000 0.000000 0.000000 0.044919 0.000000 0.000000
# 5 0.000000 0.000000 0.000000 0.000000 0.044919 0.000000
# 6 0.000000 0.000000 0.000000 0.000000 0.000000 0.036922
#
#
# Mechanical properties :
#
#
# Convention : Reuss Voigt Hill
#
# Bulk Modulus (GPa) = 52.35242 53.46296 52.90769
# Shear Modulus (GPa) = 24.76767 25.08605 24.92686
#
# Velocity S-wave (km/s) = 3.75518 3.77924 3.76723
# Velocity P-wave (km/s) = 6.97198 7.03438 7.00325
#
# Compressibility (1/GPa) = 0.01910132
#
# Stress axis : x y z
#
# Youngs Moduli (GPa) = 65.42422 65.42391 74.87445
#
# Poissons Ratio (x) = 0.20778 0.34578
# Poissons Ratio (y) = 0.20778 0.34578
# Poissons Ratio (z) = 0.30213 0.30213
#
# Static dielectric constant tensor:
#      x y z
#    x 1.588260 0.000000 0.000000 
#    y 0.000000 1.588250 0.000000 
#    z 0.000000 0.000000 1.588780 
# 
# From -- ./inp_files/4791.got.cif
#   From: 2010.05.17/outbox.cif.g08.bks.cpg/sg182_3_cif.got.tgz:4791.got - 2010.05.20 11:58:53.
