data_PCOD9584416
_publ_section_title
;
Structure prediction by ZEFSAII (Michael W. Deem and Ramdas Pophale) SiO2 
 PCOD9584416
Probable space group: P 64 2 2
;
_chemical_formula_sum "Si O2"
_cell_formula_units_Z 45
_cell_length_a 9.215479
_cell_length_b 9.215479
_cell_length_c 28.183594
_cell_angle_alpha 90.000000
_cell_angle_beta 90.000000
_cell_angle_gamma 120.000000
_cell_volume 2072.825932
_symmetry_space_group_name_H-M "P 64 2 2"
_symmetry_group_IT_number 181
_symmetry_cell_setting 'hexagonal'
loop_
_space_group_symop_operation_xyz
x,y,z
x-y,x,2/3+z
-y,x-y,1/3+z
-x,-y,z
-x+y,-x,2/3+z
y,-x+y,1/3+z
x-y,-y,-z
-x,-x+y,2/3-z
y,x,1/3-z
-y,-x,1/3-z
-x+y,y,-z
x,x-y,2/3-z
loop_
_atom_site_type_symbol
_atom_site_label
_atom_site_fract_x
_atom_site_fract_y
_atom_site_fract_z
Si Si1 0.235358 0.775628 0.908374
Si Si2 0.000000 0.500000 0.833334
Si Si3 0.530074 0.359405 0.416398
Si Si4 0.500000 0.500000 0.509109
Si Si5 0.139117 0.184448 0.054282
O O1 0.324466 0.678354 0.931086
O O2 0.114188 0.650486 0.868054
O O3 0.122001 0.804523 0.944605
O O4 0.350589 0.945654 0.879398
O O5 0.500000 0.500000 0.390927
O O6 0.580781 0.433159 0.470088
O O7 0.348059 0.191347 0.414584
O O8 0.098906 0.197811 0.000000
O O9 0.000000 0.000000 0.072844
#
# Coordination Sequence:
#
# PCOD9584416 Si02
#       5
#    12   3  12   6  12
#     4  12  21  40  71  95 140 177 214 289 347 422
#     4  12  16  40  68 104 120 182 214 268 362 432
#     4  10  22  40  65 104 133 173 224 281 349 438
#     4  10  22  36  69 107 142 158 226 283 367 428
#     4  11  26  45  65  93 136 187 245 286 340 411
#
# _framework density 21.709492999999998
#
# number of rings (size 3 to 8) (size 9 to 14) (size 15 to 20)
#    0.800    0.267    5.333    0.000    3.733    2.133 
#    0.000    4.667    0.000    0.000    0.000    0.000 
#    0.000    0.000    0.000    0.000    0.000    0.000 
#
# Total GULP energy -250505.387719 kJ/mol
# GULP energy per Si atom -5566.786394 kJ/mol
# Density = 2.166008 g / cm^3
# Si number density = 21.709493 Si / 1000 Ang^3
#
#
#
# Elastic Constant Matrix: (Units=GPa)
#
#
# Indices 1 2 3 4 5 6 
#
# 1 124.0831 49.7823 25.4614 0.0000 0.0000 0.0000
# 2 49.7823 124.0831 25.4614 0.0000 0.0000 0.0000
# 3 25.4614 25.4614 52.9396 0.0000 0.0000 0.0000
# 4 0.0000 0.0000 0.0000 30.2350 0.0000 0.0000
# 5 0.0000 0.0000 0.0000 0.0000 30.2350 0.0000
# 6 0.0000 0.0000 0.0000 0.0000 0.0000 37.1504
#
#
#
# Elastic Compliance Matrix: (Units=1/GPa)
#
#
# Indices 1 2 3 4 5 6 
#
# 1 0.010077 -0.003382 -0.003220 0.000000 0.000000 0.000000
# 2 -0.003382 0.010077 -0.003220 0.000000 0.000000 0.000000
# 3 -0.003220 -0.003220 0.021987 0.000000 0.000000 0.000000
# 4 0.000000 0.000000 0.000000 0.033074 0.000000 0.000000
# 5 0.000000 0.000000 0.000000 0.000000 0.033074 0.000000
# 6 0.000000 0.000000 0.000000 0.000000 0.000000 0.026918
#
#
# Mechanical properties :
#
#
# Convention : Reuss Voigt Hill
#
# Bulk Modulus (GPa) = 44.45105 55.83509 50.14307
# Shear Modulus (GPa) = 30.79799 32.88414 31.84107
#
# Velocity S-wave (km/s) = 3.77057 3.89618 3.83389
# Velocity P-wave (km/s) = 6.28300 6.78346 6.53802
#
# Compressibility (1/GPa) = 0.02249665
#
# Stress axis : x y z
#
# Youngs Moduli (GPa) = 99.23876 99.23876 45.48231
#
# Poissons Ratio (x) = 0.33564 0.14644
# Poissons Ratio (y) = 0.33564 0.14644
# Poissons Ratio (z) = 0.31953 0.31953
#
# Static dielectric constant tensor:
#      x y z
#    x 1.869990 0.000000 0.000000 
#    y 0.000000 1.869990 0.000000 
#    z 0.000000 0.000000 1.753660 
# 
# From -- ./inp_files/12007.got.cif
#   From: 2010.05.17/outbox.cif.g08.bks.cpg/sg181_7_cif.got.tgz:12007.got - 2010.05.20 11:51:17.
