data_PCOD9584151
_publ_section_title
;
Structure prediction by ZEFSAII (Michael W. Deem and Ramdas Pophale) SiO2 
 PCOD9584151
Probable space group: P 62 2 2
;
_chemical_formula_sum "Si O2"
_cell_formula_units_Z 51
_cell_length_a 11.879092
_cell_length_b 11.879092
_cell_length_c 20.146020
_cell_angle_alpha 90.000000
_cell_angle_beta 90.000000
_cell_angle_gamma 120.000000
_cell_volume 2461.990564
_symmetry_space_group_name_H-M "P 62 2 2"
_symmetry_group_IT_number 180
_symmetry_cell_setting 'hexagonal'
loop_
_space_group_symop_operation_xyz
x,y,z
x-y,x,1/3+z
-y,x-y,2/3+z
-x,-y,z
-x+y,-x,1/3+z
y,-x+y,2/3+z
x-y,-y,-z
-x,-x+y,1/3-z
y,x,2/3-z
-y,-x,2/3-z
-x+y,y,-z
x,x-y,1/3-z
loop_
_atom_site_type_symbol
_atom_site_label
_atom_site_fract_x
_atom_site_fract_y
_atom_site_fract_z
Si Si1 0.000000 0.000000 0.666667
Si Si2 0.035114 0.301267 0.462985
Si Si3 0.349233 0.905177 0.665594
Si Si4 0.610330 0.220660 0.000000
Si Si5 0.776193 0.967818 0.577058
Si Si6 0.500000 0.000000 0.110789
O O1 0.908963 0.028013 0.619118
O O2 0.128587 0.257173 0.500000
O O3 0.115078 0.389765 0.401507
O O4 0.909231 0.186042 0.426113
O O5 0.994953 0.383932 0.511219
O O6 0.311152 0.760257 0.646827
O O7 0.500000 0.000000 0.678443
O O8 0.306440 0.976285 0.611572
O O9 0.575964 0.124066 0.937291
O O10 0.795720 0.000000 0.500000
#
# Coordination Sequence:
#
# PCOD9584151 Si02
#       6
#     3  12  12   6  12   6
#     4  12  22  42  76 106 148 184 230 306 370 434
#     4  12  23  45  72 105 142 188 242 300 373 436
#     4  12  27  46  72 104 146 195 242 301 366 444
#     4  11  26  45  70 105 148 187 246 308 364 439
#     4  12  27  45  71 109 144 185 236 303 368 439
#     4  11  24  44  74 104 141 192 248 304 363 444
#
# _framework density 20.714943999999999
#
# number of rings (size 3 to 8) (size 9 to 14) (size 15 to 20)
#    0.000    0.235    5.882    3.176    3.294    2.353 
#    0.000    0.000    0.000    0.000    0.000    0.000 
#    0.000    0.000    0.000    0.000    0.000    0.000 
#
# Total GULP energy -284895.985990 kJ/mol
# GULP energy per Si atom -5586.195804 kJ/mol
# Density = 2.066780 g / cm^3
# Si number density = 20.714944 Si / 1000 Ang^3
#
#
#
# Elastic Constant Matrix: (Units=GPa)
#
#
# Indices 1 2 3 4 5 6 
#
# 1 100.2789 53.2722 23.8101 0.0000 0.0000 0.0000
# 2 53.2722 100.2789 23.8101 0.0000 0.0000 0.0000
# 3 23.8101 23.8101 114.0533 0.0000 0.0000 0.0000
# 4 0.0000 0.0000 0.0000 31.2097 0.0000 0.0000
# 5 0.0000 0.0000 0.0000 0.0000 31.2097 0.0000
# 6 0.0000 0.0000 0.0000 0.0000 0.0000 23.5034
#
#
#
# Elastic Compliance Matrix: (Units=1/GPa)
#
#
# Indices 1 2 3 4 5 6 
#
# 1 0.014118 -0.007155 -0.001454 0.000000 0.000000 0.000000
# 2 -0.007155 0.014118 -0.001454 0.000000 0.000000 0.000000
# 3 -0.001454 -0.001454 0.009375 0.000000 0.000000 0.000000
# 4 0.000000 0.000000 0.000000 0.032041 0.000000 0.000000
# 5 0.000000 0.000000 0.000000 0.000000 0.032041 0.000000
# 6 0.000000 0.000000 0.000000 0.000000 0.000000 0.042547
#
#
# Mechanical properties :
#
#
# Convention : Reuss Voigt Hill
#
# Bulk Modulus (GPa) = 57.18638 57.37733 57.28185
# Shear Modulus (GPa) = 29.37803 31.43248 30.40526
#
# Velocity S-wave (km/s) = 3.76999 3.89958 3.83534
# Velocity P-wave (km/s) = 6.82764 6.93068 6.87935
#
# Compressibility (1/GPa) = 0.01748668
#
# Stress axis : x y z
#
# Youngs Moduli (GPa) = 70.82939 70.82939 106.66915
#
# Poissons Ratio (x) = 0.50679 0.15506
# Poissons Ratio (y) = 0.50679 0.15506
# Poissons Ratio (z) = 0.10296 0.10296
#
# Static dielectric constant tensor:
#      x y z
#    x 1.766520 0.000000 0.000000 
#    y 0.000000 1.766520 0.000000 
#    z 0.000000 0.000000 1.897690 
# 
# From -- ./inp_files/8945.got.cif
#   From: 2010.05.17/outbox.cif.g08.bks.cpg/sg180_5_cif.got.tgz:8945.got - 2010.05.20 11:43:55.
