data_PCOD9584086
_publ_section_title
;
Structure prediction by ZEFSAII (Michael W. Deem and Ramdas Pophale) SiO2 
 PCOD9584086
Probable space group: P 62 2 2
;
_chemical_formula_sum "Si O2"
_cell_formula_units_Z 60
_cell_length_a 10.823233
_cell_length_b 10.823233
_cell_length_c 26.770717
_cell_angle_alpha 90.000000
_cell_angle_beta 90.000000
_cell_angle_gamma 120.000000
_cell_volume 2715.842940
_symmetry_space_group_name_H-M "P 62 2 2"
_symmetry_group_IT_number 180
_symmetry_cell_setting 'hexagonal'
loop_
_space_group_symop_operation_xyz
x,y,z
x-y,x,1/3+z
-y,x-y,2/3+z
-x,-y,z
-x+y,-x,1/3+z
y,-x+y,2/3+z
x-y,-y,-z
-x,-x+y,1/3-z
y,x,2/3-z
-y,-x,2/3-z
-x+y,y,-z
x,x-y,1/3-z
loop_
_atom_site_type_symbol
_atom_site_label
_atom_site_fract_x
_atom_site_fract_y
_atom_site_fract_z
Si Si1 0.835324 0.635298 0.169526
Si Si2 0.239419 0.997153 0.692864
Si Si3 0.623887 0.895917 0.211495
Si Si4 0.462897 0.775336 0.744624
Si Si5 0.339155 0.863793 0.608839
O O1 0.827285 0.577727 0.224660
O O2 0.719840 0.679291 0.153366
O O3 0.793249 0.515920 0.126451
O O4 0.000000 0.760464 0.166667
O O5 0.176132 0.088066 0.666667
O O6 0.395183 0.118797 0.713904
O O7 0.175577 0.904797 0.743512
O O8 0.261948 0.903818 0.651601
O O9 0.571871 0.785936 0.166667
O O10 0.382401 0.858819 0.761310
O O11 0.362352 0.631341 0.715682
O O12 0.500000 0.000000 0.605801
#
# Coordination Sequence:
#
# PCOD9584086 Si02
#       5
#    12  12  12  12  12
#     4  11  21  37  61  92 127 170 227 281 332 416
#     4  11  22  38  63 100 132 166 220 296 353 405
#     4  11  25  44  61  88 138 188 222 271 352 421
#     4  11  23  37  64  96 137 175 217 281 361 421
#     4  12  20  34  63 100 131 163 227 288 349 416
#
# _framework density 22.092587999999999
#
# number of rings (size 3 to 8) (size 9 to 14) (size 15 to 20)
#    0.000    0.800    4.000    6.600    0.000    0.400 
#    0.000    1.000    0.000    3.600    0.000    8.400 
#    0.000    0.000    0.000    0.000    0.000    0.000 
#
# Total GULP energy -334551.816529 kJ/mol
# GULP energy per Si atom -5575.863609 kJ/mol
# Density = 2.204230 g / cm^3
# Si number density = 22.092588 Si / 1000 Ang^3
#
#
#
# Elastic Constant Matrix: (Units=GPa)
#
#
# Indices 1 2 3 4 5 6 
#
# 1 61.3977 25.3223 21.9496 0.0000 0.0000 0.0000
# 2 25.3223 61.3977 21.9496 0.0000 0.0000 0.0000
# 3 21.9496 21.9496 156.7298 0.0000 0.0000 0.0000
# 4 0.0000 0.0000 0.0000 34.1168 0.0000 0.0000
# 5 0.0000 0.0000 0.0000 0.0000 34.1168 0.0000
# 6 0.0000 0.0000 0.0000 0.0000 0.0000 18.0377
#
#
#
# Elastic Compliance Matrix: (Units=1/GPa)
#
#
# Indices 1 2 3 4 5 6 
#
# 1 0.020065 -0.007654 -0.001738 0.000000 0.000000 0.000000
# 2 -0.007654 0.020065 -0.001738 0.000000 0.000000 0.000000
# 3 -0.001738 -0.001738 0.006867 0.000000 0.000000 0.000000
# 4 0.000000 0.000000 0.000000 0.029311 0.000000 0.000000
# 5 0.000000 0.000000 0.000000 0.000000 0.029311 0.000000
# 6 0.000000 0.000000 0.000000 0.000000 0.000000 0.055439
#
#
# Mechanical properties :
#
#
# Convention : Reuss Voigt Hill
#
# Bulk Modulus (GPa) = 40.42506 46.44090 43.43298
# Shear Modulus (GPa) = 26.10059 31.27452 28.68755
#
# Velocity S-wave (km/s) = 3.44091 3.76654 3.60740
# Velocity P-wave (km/s) = 5.84159 6.32317 6.08714
#
# Compressibility (1/GPa) = 0.02473713
#
# Stress axis : x y z
#
# Youngs Moduli (GPa) = 49.83680 49.83680 145.61853
#
# Poissons Ratio (x) = 0.38146 0.25311
# Poissons Ratio (y) = 0.38146 0.25311
# Poissons Ratio (z) = 0.08662 0.08662
#
# Static dielectric constant tensor:
#      x y z
#    x 1.872800 0.000000 0.000000 
#    y 0.000000 1.872800 0.000000 
#    z 0.000000 0.000000 1.916840 
# 
# From -- ./inp_files/12210.got.cif
#   From: 2010.05.17/outbox.cif.g08.bks.cpg/sg180_7_cif.got.tgz:12210.got - 2010.05.20 11:43:55.
