data_PCOD9584426
_publ_section_title
;
Structure prediction by ZEFSAII (Michael W. Deem and Ramdas Pophale) SiO2 
 PCOD9584426
Probable space group: P 64 2 2
;
_chemical_formula_sum "Si O2"
_cell_formula_units_Z 66
_cell_length_a 25.709326
_cell_length_b 25.709326
_cell_length_c 6.194741
_cell_angle_alpha 90.000000
_cell_angle_beta 90.000000
_cell_angle_gamma 120.000000
_cell_volume 3545.970903
_symmetry_space_group_name_H-M "P 64 2 2"
_symmetry_group_IT_number 181
_symmetry_cell_setting 'hexagonal'
loop_
_space_group_symop_operation_xyz
x,y,z
x-y,x,2/3+z
-y,x-y,1/3+z
-x,-y,z
-x+y,-x,2/3+z
y,-x+y,1/3+z
x-y,-y,-z
-x,-x+y,2/3-z
y,x,1/3-z
-y,-x,1/3-z
-x+y,y,-z
x,x-y,2/3-z
loop_
_atom_site_type_symbol
_atom_site_label
_atom_site_fract_x
_atom_site_fract_y
_atom_site_fract_z
Si Si1 0.382190 0.436306 0.992208
Si Si2 0.484311 0.840586 0.663585
Si Si3 0.827194 0.654388 0.000000
Si Si4 0.852281 0.251018 0.055556
Si Si5 0.539949 0.079897 0.000000
Si Si6 0.062508 0.329465 0.259869
Si Si7 0.635186 0.364815 0.166667
O O1 0.411876 0.411876 0.166667
O O2 0.364569 0.480053 0.126868
O O3 0.430538 0.478895 0.811543
O O4 0.324202 0.379410 0.881198
O O5 0.533263 0.829177 0.775672
O O6 0.428019 0.777034 0.606615
O O7 0.468035 0.878451 0.825111
O O8 0.843530 0.612883 0.855005
O O9 0.796279 0.685383 0.856310
O O10 0.811519 0.188482 0.166667
O O11 0.914720 0.276170 0.173149
O O12 0.000000 0.272833 0.333334
O O13 0.627491 0.313746 0.333334
#
# Coordination Sequence:
#
# PCOD9584426 Si02
#       7
#    12  12   6  12   6  12   6
#     4  12  26  43  65  95 122 158 199 256 337 406
#     4  12  25  45  64  85 112 156 196 256 333 397
#     4  10  22  40  64  91 128 159 204 260 305 372
#     4  10  22  38  64  93 116 158 202 254 317 379
#     4  12  26  45  62  87 126 155 198 260 328 416
#     4  11  23  41  65  96 127 164 210 257 318 382
#     4  12  32  46  63  88 112 152 212 270 328 410
#
# _framework density 18.612674999999999
#
# number of rings (size 3 to 8) (size 9 to 14) (size 15 to 20)
#    0.000    0.727    5.455    1.091    3.818    2.182 
#    0.000    0.000    0.000    0.000    0.000    0.000 
#    0.000    0.000    0.000    0.000    0.000    0.000 
#
# Total GULP energy -367480.209135 kJ/mol
# GULP energy per Si atom -5567.881957 kJ/mol
# Density = 1.857031 g / cm^3
# Si number density = 18.612675 Si / 1000 Ang^3
#
#
#
# Elastic Constant Matrix: (Units=GPa)
#
#
# Indices 1 2 3 4 5 6 
#
# 1 91.8693 48.7848 40.3057 0.0000 0.0000 0.0000
# 2 48.7848 91.8693 40.3057 0.0000 0.0000 0.0000
# 3 40.3057 40.3057 76.5646 0.0000 0.0000 0.0000
# 4 0.0000 0.0000 0.0000 17.3860 0.0000 0.0000
# 5 0.0000 0.0000 0.0000 0.0000 17.3860 0.0000
# 6 0.0000 0.0000 0.0000 0.0000 0.0000 21.5422
#
#
#
# Elastic Compliance Matrix: (Units=1/GPa)
#
#
# Indices 1 2 3 4 5 6 
#
# 1 0.016696 -0.006514 -0.005360 0.000000 0.000000 0.000000
# 2 -0.006514 0.016696 -0.005360 0.000000 0.000000 0.000000
# 3 -0.005360 -0.005360 0.018704 0.000000 0.000000 0.000000
# 4 0.000000 0.000000 0.000000 0.057517 0.000000 0.000000
# 5 0.000000 0.000000 0.000000 0.000000 0.057517 0.000000
# 6 0.000000 0.000000 0.000000 0.000000 0.000000 0.046420
#
#
# Mechanical properties :
#
#
# Convention : Reuss Voigt Hill
#
# Bulk Modulus (GPa) = 56.72899 57.67727 57.20313
# Shear Modulus (GPa) = 19.69321 19.99000 19.84160
#
# Velocity S-wave (km/s) = 3.25630 3.28075 3.26855
# Velocity P-wave (km/s) = 6.68452 6.73844 6.71153
#
# Compressibility (1/GPa) = 0.01762767
#
# Stress axis : x y z
#
# Youngs Moduli (GPa) = 59.89522 59.89522 53.46472
#
# Poissons Ratio (x) = 0.39018 0.28656
# Poissons Ratio (y) = 0.39018 0.28656
# Poissons Ratio (z) = 0.32102 0.32102
#
# Static dielectric constant tensor:
#      x y z
#    x 1.685590 0.000000 0.000000 
#    y 0.000000 1.685590 0.000000 
#    z 0.000000 0.000000 1.804330 
# 
# From -- ./inp_files/1574.got.cif
#   From: 2010.05.17/outbox.cif.g08.bks.cpg/sg181_1_cif.got.tgz:1574.got - 2010.05.20 11:51:17.
