data_PCOD9584659
_publ_section_title
;
Structure prediction by ZEFSAII (Michael W. Deem and Ramdas Pophale) SiO2 
 PCOD9584659
Probable space group: P 63 2 2
;
_chemical_formula_sum "Si O2"
_cell_formula_units_Z 66
_cell_length_a 20.582883
_cell_length_b 20.582883
_cell_length_c 9.074478
_cell_angle_alpha 90.000000
_cell_angle_beta 90.000000
_cell_angle_gamma 120.000000
_cell_volume 3329.390182
_symmetry_space_group_name_H-M "P 63 2 2"
_symmetry_group_IT_number 182
_symmetry_cell_setting 'hexagonal'
loop_
_space_group_symop_operation_xyz
x,y,z
x-y,x,1/2+z
-y,x-y,z
-x,-y,1/2+z
-x+y,-x,z
y,-x+y,1/2+z
x-y,-y,-z
-x,-x+y,-z
y,x,-z
-y,-x,1/2-z
-x+y,y,1/2-z
x,x-y,1/2-z
loop_
_atom_site_type_symbol
_atom_site_label
_atom_site_fract_x
_atom_site_fract_y
_atom_site_fract_z
Si Si1 0.538389 0.000000 0.000000
Si Si2 0.546102 0.337180 0.157085
Si Si3 0.771342 0.630694 0.389414
Si Si4 0.600401 0.720916 0.040414
Si Si5 0.345363 0.359663 0.752024
Si Si6 0.400193 0.559385 0.417369
O O1 0.585698 0.005530 0.147935
O O2 0.459197 0.924506 0.020782
O O3 0.585102 0.414899 0.250000
O O4 0.562328 0.281164 0.250000
O O5 0.457150 0.293154 0.129764
O O6 0.585351 0.366705 0.002016
O O7 0.825522 0.651044 0.250000
O O8 0.824655 0.634443 0.521007
O O9 0.724643 0.672424 0.365101
O O10 0.631580 0.696672 0.178900
O O11 0.510959 0.681477 0.056714
O O12 0.612960 0.683310 0.891350
O O13 0.420505 0.579496 0.250000
#
# Coordination Sequence:
#
# PCOD9584659 Si02
#       6
#     6  12  12  12  12  12
#     4  12  22  34  52  82 112 144 182 246 330 378
#     4  11  22  38  58  76  99 148 193 229 297 393
#     4   9  18  35  54  77 103 139 184 236 295 382
#     4  10  21  35  55  81 104 142 192 244 306 383
#     4  10  19  36  54  77 108 141 184 240 315 386
#     4  12  24  35  53  84 114 140 191 255 314 381
#
# _framework density 19.823449
#
# number of rings (size 3 to 8) (size 9 to 14) (size 15 to 20)
#    0.000    1.455    3.636    4.545    0.000    0.000 
#    0.000    6.364    0.000    0.000    0.000    0.000 
#    0.000    0.000    0.000    0.000    0.000    0.000 
#
# Total GULP energy -368207.573995 kJ/mol
# GULP energy per Si atom -5578.902636 kJ/mol
# Density = 1.977833 g / cm^3
# Si number density = 19.823449 Si / 1000 Ang^3
#
#
#
# Elastic Constant Matrix: (Units=GPa)
#
#
# Indices 1 2 3 4 5 6 
#
# 1 56.1032 24.0358 38.6770 0.0000 0.0000 0.0000
# 2 24.0358 56.1032 38.6770 0.0000 0.0000 0.0000
# 3 38.6770 38.6770 102.0912 0.0000 0.0000 0.0000
# 4 0.0000 0.0000 0.0000 31.5065 0.0000 0.0000
# 5 0.0000 0.0000 0.0000 0.0000 31.5065 0.0000
# 6 0.0000 0.0000 0.0000 0.0000 0.0000 16.0337
#
#
#
# Elastic Compliance Matrix: (Units=1/GPa)
#
#
# Indices 1 2 3 4 5 6 
#
# 1 0.025428 -0.005756 -0.007453 0.000000 0.000000 0.000000
# 2 -0.005756 0.025428 -0.007453 0.000000 0.000000 0.000000
# 3 -0.007453 -0.007453 0.015442 0.000000 0.000000 0.000000
# 4 0.000000 0.000000 0.000000 0.031739 0.000000 0.000000
# 5 0.000000 0.000000 0.000000 0.000000 0.031739 0.000000
# 6 0.000000 0.000000 0.000000 0.000000 0.000000 0.062369
#
#
# Mechanical properties :
#
#
# Convention : Reuss Voigt Hill
#
# Bulk Modulus (GPa) = 40.03958 46.34193 43.19076
# Shear Modulus (GPa) = 20.67876 23.33654 22.00765
#
# Velocity S-wave (km/s) = 3.23328 3.43478 3.33555
# Velocity P-wave (km/s) = 5.84643 6.25767 6.05554
#
# Compressibility (1/GPa) = 0.02497529
#
# Stress axis : x y z
#
# Youngs Moduli (GPa) = 39.32648 39.32648 64.75826
#
# Poissons Ratio (x) = 0.22637 0.48262
# Poissons Ratio (y) = 0.22637 0.48262
# Poissons Ratio (z) = 0.29309 0.29309
#
# Static dielectric constant tensor:
#      x y z
#    x 1.741680 0.000000 0.000000 
#    y 0.000000 1.741680 0.000000 
#    z 0.000000 0.000000 1.787230 
# 
# From -- ./inp_files/1842.got.cif
#   From: 2010.05.17/outbox.cif.g08.bks.cpg/sg182_1_cif.got.tgz:1842.got - 2010.05.20 11:58:53.
