data_PCOD9584011
_publ_section_title
;
Structure prediction by ZEFSAII (Michael W. Deem and Ramdas Pophale) SiO2 
 PCOD9584011
Probable space group: P 62 2 2
;
_chemical_formula_sum "Si O2"
_cell_formula_units_Z 60
_cell_length_a 15.576197
_cell_length_b 15.576197
_cell_length_c 13.645574
_cell_angle_alpha 90.000000
_cell_angle_beta 90.000000
_cell_angle_gamma 120.000000
_cell_volume 2867.116257
_symmetry_space_group_name_H-M "P 62 2 2"
_symmetry_group_IT_number 180
_symmetry_cell_setting 'hexagonal'
loop_
_space_group_symop_operation_xyz
x,y,z
x-y,x,1/3+z
-y,x-y,2/3+z
-x,-y,z
-x+y,-x,1/3+z
y,-x+y,2/3+z
x-y,-y,-z
-x,-x+y,1/3-z
y,x,2/3-z
-y,-x,2/3-z
-x+y,y,-z
x,x-y,1/3-z
loop_
_atom_site_type_symbol
_atom_site_label
_atom_site_fract_x
_atom_site_fract_y
_atom_site_fract_z
Si Si1 0.927152 0.531577 0.404778
Si Si2 0.044159 0.261104 0.441379
Si Si3 0.158693 0.259233 0.783664
Si Si4 0.607602 0.214244 0.883279
Si Si5 0.167883 0.489295 0.208010
O O1 0.972357 0.645911 0.427239
O O2 0.889696 0.468768 0.503270
O O3 0.842073 0.504853 0.324870
O O4 0.000000 0.500000 0.355976
O O5 0.144096 0.288192 0.500000
O O6 0.073667 0.241487 0.332345
O O7 0.947073 0.182461 0.503276
O O8 0.181323 0.181323 0.833334
O O9 0.250930 0.370827 0.811247
O O10 0.712055 0.287946 0.833334
O O11 0.535891 0.253707 0.846063
O O12 0.607170 0.214340 0.000000
O O13 0.135525 0.567763 0.166667
#
# Coordination Sequence:
#
# PCOD9584011 Si02
#       5
#    12  12  12  12  12
#     4  11  24  40  65 100 137 182 232 284 349 428
#     4  11  25  47  73 101 143 183 239 302 365 420
#     4  11  25  46  72 104 135 184 239 299 363 432
#     4  11  21  41  62  92 131 178 224 268 333 409
#     4  10  24  39  67  98 144 186 226 286 348 424
#
# _framework density 20.926950999999999
#
# number of rings (size 3 to 8) (size 9 to 14) (size 15 to 20)
#    0.000    1.200    2.000    3.000    8.400    0.800 
#    7.200    2.000    0.000    0.000    0.000    0.000 
#    0.000    0.000    0.000    0.000    0.000    0.000 
#
# Total GULP energy -334054.314543 kJ/mol
# GULP energy per Si atom -5567.571909 kJ/mol
# Density = 2.087932 g / cm^3
# Si number density = 20.926951 Si / 1000 Ang^3
#
#
#
# Elastic Constant Matrix: (Units=GPa)
#
#
# Indices 1 2 3 4 5 6 
#
# 1 78.8376 37.7435 25.8640 0.0000 0.0000 0.0000
# 2 37.7435 78.8376 25.8640 0.0000 0.0000 0.0000
# 3 25.8640 25.8640 112.8864 0.0000 0.0000 0.0000
# 4 0.0000 0.0000 0.0000 -12.2698 0.0000 0.0000
# 5 0.0000 0.0000 0.0000 0.0000 -12.2698 0.0000
# 6 0.0000 0.0000 0.0000 0.0000 0.0000 20.5470
#
#
#
# Elastic Compliance Matrix: (Units=1/GPa)
#
#
# Indices 1 2 3 4 5 6 
#
# 1 0.016941 -0.007393 -0.002188 0.000000 0.000000 0.000000
# 2 -0.007393 0.016941 -0.002188 0.000000 0.000000 0.000000
# 3 -0.002188 -0.002188 0.009861 0.000000 0.000000 0.000000
# 4 0.000000 0.000000 0.000000 -0.081501 0.000000 0.000000
# 5 0.000000 0.000000 0.000000 0.000000 -0.081501 0.000000
# 6 0.000000 0.000000 0.000000 0.000000 0.000000 0.048669
#
#
# Mechanical properties :
#
#
# Convention : Reuss Voigt Hill
#
# Bulk Modulus (GPa) = 49.48779 49.94497 49.71638
# Shear Modulus (GPa) = -124.01985 11.27413 -56.37286
#
# Velocity S-wave (km/s) = -7.70661 2.32359 -5.19581
# Velocity P-wave (km/s) = 7.44916 5.57825 3.49092
#
# Compressibility (1/GPa) = 0.02020700
#
# Stress axis : x y z
#
# Youngs Moduli (GPa) = 59.02692 59.02692 101.41035
#
# Poissons Ratio (x) = 0.43639 0.22185
# Poissons Ratio (y) = 0.43639 0.22185
# Poissons Ratio (z) = 0.12913 0.12913
#
# Static dielectric constant tensor:
#      x y z
#    x 2.514190 0.000000 0.000000 
#    y 0.000000 2.514190 0.000000 
#    z 0.000000 0.000000 1.862980 
# 
# From -- ./inp_files/6101.got.cif
#   From: 2010.05.17/outbox.cif.g08.bks.cpg/sg180_4_cif.got.tgz:6101.got - 2010.05.20 11:43:55.
