data_PCOD9584519
_publ_section_title
;
Structure prediction by ZEFSAII (Michael W. Deem and Ramdas Pophale) SiO2 
 PCOD9584519
Probable space group: P 64 2 2
;
_chemical_formula_sum "Si O2"
_cell_formula_units_Z 48
_cell_length_a 13.666055
_cell_length_b 13.666055
_cell_length_c 15.336568
_cell_angle_alpha 90.000000
_cell_angle_beta 90.000000
_cell_angle_gamma 120.000000
_cell_volume 2480.533775
_symmetry_space_group_name_H-M "P 64 2 2"
_symmetry_group_IT_number 181
_symmetry_cell_setting 'hexagonal'
loop_
_space_group_symop_operation_xyz
x,y,z
x-y,x,2/3+z
-y,x-y,1/3+z
-x,-y,z
-x+y,-x,2/3+z
y,-x+y,1/3+z
x-y,-y,-z
-x,-x+y,2/3-z
y,x,1/3-z
-y,-x,1/3-z
-x+y,y,-z
x,x-y,2/3-z
loop_
_atom_site_type_symbol
_atom_site_label
_atom_site_fract_x
_atom_site_fract_y
_atom_site_fract_z
Si Si1 0.850130 0.381260 0.661200
Si Si2 0.379105 0.329855 0.070309
Si Si3 0.729245 0.597539 0.673636
Si Si4 0.809859 0.394168 0.193512
O O1 0.723845 0.276156 0.666667
O O2 0.882084 0.483217 0.728896
O O3 0.868996 0.436922 0.566121
O O4 0.938991 0.339662 0.677821
O O5 0.336771 0.336771 0.166667
O O6 0.348814 0.208537 0.032816
O O7 0.685901 0.685901 0.666667
O O8 0.690463 0.523947 0.584523
O O9 0.658504 0.503718 0.747956
O O10 0.678659 0.321342 0.166667
#
# Coordination Sequence:
#
# PCOD9584519 Si02
#       4
#    12  12  12  12
#     4  11  22  38  63  94 131 172 218 279 338 412
#     4  11  24  42  61  94 131 178 228 274 333 404
#     4  11  25  39  61  92 133 178 220 282 329 403
#     4  11  21  37  60  92 131 171 217 262 342 400
#
# _framework density 19.350674000000001
#
# number of rings (size 3 to 8) (size 9 to 14) (size 15 to 20)
#    0.000    1.000    2.500    6.000    7.000    2.000 
#    0.000    0.000    0.000    0.750    0.000    3.500 
#    0.000    0.000    0.000    0.000    0.000    0.000 
#
# Total GULP energy -267952.289644 kJ/mol
# GULP energy per Si atom -5582.339368 kJ/mol
# Density = 1.930663 g / cm^3
# Si number density = 19.350674 Si / 1000 Ang^3
#
#
#
# Elastic Constant Matrix: (Units=GPa)
#
#
# Indices 1 2 3 4 5 6 
#
# 1 104.9011 36.0696 39.5616 0.0000 0.0000 0.0000
# 2 36.0696 104.9011 39.5616 0.0000 0.0000 0.0000
# 3 39.5616 39.5616 139.3235 0.0000 0.0000 0.0000
# 4 0.0000 0.0000 0.0000 22.7846 0.0000 0.0000
# 5 0.0000 0.0000 0.0000 0.0000 22.7846 0.0000
# 6 0.0000 0.0000 0.0000 0.0000 0.0000 34.4158
#
#
#
# Elastic Compliance Matrix: (Units=1/GPa)
#
#
# Indices 1 2 3 4 5 6 
#
# 1 0.011483 -0.003045 -0.002396 0.000000 0.000000 0.000000
# 2 -0.003045 0.011483 -0.002396 0.000000 0.000000 0.000000
# 3 -0.002396 -0.002396 0.008538 0.000000 0.000000 0.000000
# 4 0.000000 0.000000 0.000000 0.043889 0.000000 0.000000
# 5 0.000000 0.000000 0.000000 0.000000 0.043889 0.000000
# 6 0.000000 0.000000 0.000000 0.000000 0.000000 0.029056
#
#
# Mechanical properties :
#
#
# Convention : Reuss Voigt Hill
#
# Bulk Modulus (GPa) = 63.16793 64.39012 63.77902
# Shear Modulus (GPa) = 29.53486 31.59253 30.56369
#
# Velocity S-wave (km/s) = 3.91102 4.04497 3.97856
# Velocity P-wave (km/s) = 7.28762 7.42720 7.35774
#
# Compressibility (1/GPa) = 0.01583082
#
# Stress axis : x y z
#
# Youngs Moduli (GPa) = 87.08220 87.08220 117.11867
#
# Poissons Ratio (x) = 0.26515 0.28064
# Poissons Ratio (y) = 0.26515 0.28064
# Poissons Ratio (z) = 0.20866 0.20866
#
# Static dielectric constant tensor:
#      x y z
#    x 1.710930 0.000000 0.000000 
#    y 0.000000 1.710930 0.000000 
#    z 0.000000 0.000000 1.733420 
# 
# From -- ./inp_files/5870.got.cif
#   From: 2010.05.17/outbox.cif.g08.bks.cpg/sg181_3_cif.got.tgz:5870.got - 2010.05.20 11:51:17.
