data_PCOD9584280
_publ_section_title
;
Structure prediction by ZEFSAII (Michael W. Deem and Ramdas Pophale) SiO2 
 PCOD9584280
Probable space group: P 64 2 2
;
_chemical_formula_sum "Si O2"
_cell_formula_units_Z 84
_cell_length_a 17.170522
_cell_length_b 17.170522
_cell_length_c 15.410677
_cell_angle_alpha 90.000000
_cell_angle_beta 90.000000
_cell_angle_gamma 120.000000
_cell_volume 3934.769953
_symmetry_space_group_name_H-M "P 64 2 2"
_symmetry_group_IT_number 181
_symmetry_cell_setting 'hexagonal'
loop_
_space_group_symop_operation_xyz
x,y,z
x-y,x,2/3+z
-y,x-y,1/3+z
-x,-y,z
-x+y,-x,2/3+z
y,-x+y,1/3+z
x-y,-y,-z
-x,-x+y,2/3-z
y,x,1/3-z
-y,-x,1/3-z
-x+y,y,-z
x,x-y,2/3-z
loop_
_atom_site_type_symbol
_atom_site_label
_atom_site_fract_x
_atom_site_fract_y
_atom_site_fract_z
Si Si1 0.211930 0.000000 0.500000
Si Si2 0.893159 0.702328 0.351329
Si Si3 0.127591 0.394355 0.931529
Si Si4 0.138191 0.032576 0.655761
Si Si5 0.421880 0.398062 0.414981
Si Si6 0.187250 0.734740 0.455796
Si Si7 0.585120 0.414881 0.666667
Si Si8 0.548654 0.691193 0.812934
O O1 0.297892 0.062383 0.443256
O O2 0.180661 0.054291 0.560687
O O3 0.859964 0.772108 0.377328
O O4 0.843728 0.635437 0.270667
O O5 0.877922 0.636294 0.428049
O O6 0.000000 0.759971 0.333334
O O7 0.194852 0.457533 0.855434
O O8 0.192893 0.385785 0.000000
O O9 0.065721 0.420410 0.988660
O O10 0.077339 0.077339 0.666667
O O11 0.073283 0.926718 0.666667
O O12 0.500000 0.500000 0.418049
O O13 0.435497 0.335705 0.486736
O O14 0.339697 0.414266 0.439827
O O15 0.214604 0.676986 0.391523
O O16 0.510889 0.388726 0.743633
O O17 0.500638 0.750319 0.833334
#
# Coordination Sequence:
#
# PCOD9584280 Si02
#       8
#     6  12  12  12  12  12   6  12
#     4  12  22  43  61  84 130 184 236 288 344 404
#     4  10  19  37  62  91 126 172 229 288 339 402
#     4  10  24  39  64  97 134 179 225 278 343 439
#     4  10  23  39  56  87 126 181 235 284 337 396
#     4  11  22  41  67 101 134 176 227 286 357 431
#     4  10  19  39  65 102 132 176 225 283 356 425
#     4  10  22  39  72  98 136 172 216 294 364 420
#     4  11  24  38  63 104 137 170 222 293 356 429
#
# _framework density 21.348134000000002
#
# number of rings (size 3 to 8) (size 9 to 14) (size 15 to 20)
#    0.000    1.571    4.286    0.429    2.000    1.714 
#    5.143    1.786    0.000    0.000    0.000    0.000 
#    2.143    0.000    0.000    0.000    0.000    0.000 
#
# Total GULP energy -467795.637101 kJ/mol
# GULP energy per Si atom -5568.995680 kJ/mol
# Density = 2.129955 g / cm^3
# Si number density = 21.348134 Si / 1000 Ang^3
#
#
#
# Elastic Constant Matrix: (Units=GPa)
#
#
# Indices 1 2 3 4 5 6 
#
# 1 113.9608 22.8627 39.8604 0.0000 0.0000 0.0000
# 2 22.8627 113.9608 39.8604 0.0000 0.0000 0.0000
# 3 39.8604 39.8604 84.4965 0.0000 0.0000 0.0000
# 4 0.0000 0.0000 0.0000 33.5925 0.0000 0.0000
# 5 0.0000 0.0000 0.0000 0.0000 33.5925 0.0000
# 6 0.0000 0.0000 0.0000 0.0000 0.0000 45.5490
#
#
#
# Elastic Compliance Matrix: (Units=1/GPa)
#
#
# Indices 1 2 3 4 5 6 
#
# 1 0.010528 -0.000449 -0.004755 0.000000 0.000000 0.000000
# 2 -0.000449 0.010528 -0.004755 0.000000 0.000000 0.000000
# 3 -0.004755 -0.004755 0.016321 0.000000 0.000000 0.000000
# 4 0.000000 0.000000 0.000000 0.029769 0.000000 0.000000
# 5 0.000000 0.000000 0.000000 0.000000 0.029769 0.000000
# 6 0.000000 0.000000 0.000000 0.000000 0.000000 0.021954
#
#
# Mechanical properties :
#
#
# Convention : Reuss Voigt Hill
#
# Bulk Modulus (GPa) = 57.27352 57.50946 57.39149
# Shear Modulus (GPa) = 34.57687 36.53578 35.55633
#
# Velocity S-wave (km/s) = 4.02888 4.14143 4.08554
# Velocity P-wave (km/s) = 6.96628 7.06158 7.01409
#
# Compressibility (1/GPa) = 0.01746008
#
# Stress axis : x y z
#
# Youngs Moduli (GPa) = 94.98385 94.98385 61.27165
#
# Poissons Ratio (x) = 0.04265 0.29133
# Poissons Ratio (y) = 0.04265 0.29133
# Poissons Ratio (z) = 0.45162 0.45162
#
# Static dielectric constant tensor:
#      x y z
#    x 1.872000 0.000000 0.000000 
#    y 0.000000 1.872000 0.000000 
#    z 0.000000 0.000000 1.851850 
# 
# From -- ./inp_files/6531.got.cif
#   From: 2010.05.17/outbox.cif.g08.bks.cpg/sg181_4_cif.got.tgz:6531.got - 2010.05.20 11:51:17.
