data_PCOD9584409
_publ_section_title
;
Structure prediction by ZEFSAII (Michael W. Deem and Ramdas Pophale) SiO2 
 PCOD9584409
Probable space group: P 64 2 2
;
_chemical_formula_sum "Si O2"
_cell_formula_units_Z 45
_cell_length_a 13.445763
_cell_length_b 13.445763
_cell_length_c 13.122382
_cell_angle_alpha 90.000000
_cell_angle_beta 90.000000
_cell_angle_gamma 120.000000
_cell_volume 2054.538159
_symmetry_space_group_name_H-M "P 64 2 2"
_symmetry_group_IT_number 181
_symmetry_cell_setting 'hexagonal'
loop_
_space_group_symop_operation_xyz
x,y,z
x-y,x,2/3+z
-y,x-y,1/3+z
-x,-y,z
-x+y,-x,2/3+z
y,-x+y,1/3+z
x-y,-y,-z
-x,-x+y,2/3-z
y,x,1/3-z
-y,-x,1/3-z
-x+y,y,-z
x,x-y,2/3-z
loop_
_atom_site_type_symbol
_atom_site_label
_atom_site_fract_x
_atom_site_fract_y
_atom_site_fract_z
Si Si1 0.420271 0.840541 0.000000
Si Si2 0.593275 0.619422 0.968253
Si Si3 0.312839 0.656420 0.833334
Si Si4 0.687899 0.687899 0.666667
Si Si5 0.769359 0.230642 0.666667
Si Si6 0.500000 0.500000 0.166667
Si Si7 0.164606 0.329212 0.500000
O O1 0.394928 0.760590 0.904279
O O2 0.555953 0.904510 0.025290
O O3 0.500000 0.500000 0.915047
O O4 0.607506 0.728533 0.910579
O O5 0.709348 0.613021 0.974543
O O6 0.543500 0.602910 0.083486
O O7 0.244625 0.698105 0.759595
O O8 0.728187 0.782261 0.756601
#
# Coordination Sequence:
#
# PCOD9584409 Si02
#       7
#     6  12   6   6   6   3   6
#     4  10  22  37  60 102 146 189 241 291 368 451
#     4  10  25  43  72 107 152 206 251 310 387 461
#     4  10  22  34  65 100 148 194 235 292 362 460
#     4  11  26  40  66  99 154 202 246 313 374 451
#     4  11  22  39  66 100 146 193 243 294 372 446
#     4   8  22  44  66  98 152 206 254 290 376 460
#     4  12  27  46  73 109 156 198 262 321 386 458
#
# _framework density 21.902733000000001
#
# number of rings (size 3 to 8) (size 9 to 14) (size 15 to 20)
#    0.800    0.800    0.000    3.200   14.933    2.133 
#    0.000    0.000    0.000    2.400    0.000    0.000 
#    0.000    0.000    0.000    0.000    0.000    0.000 
#
# Total GULP energy -250888.228438 kJ/mol
# GULP energy per Si atom -5575.293965 kJ/mol
# Density = 2.185288 g / cm^3
# Si number density = 21.902733 Si / 1000 Ang^3
#
#
#
# Elastic Constant Matrix: (Units=GPa)
#
#
# Indices 1 2 3 4 5 6 
#
# 1 121.3955 51.0608 56.7160 0.0000 0.0000 0.0000
# 2 51.0608 121.3955 56.7160 0.0000 0.0000 0.0000
# 3 56.7160 56.7160 164.3334 0.0000 0.0000 0.0000
# 4 0.0000 0.0000 0.0000 35.7576 0.0000 0.0000
# 5 0.0000 0.0000 0.0000 0.0000 35.7576 0.0000
# 6 0.0000 0.0000 0.0000 0.0000 0.0000 35.1674
#
#
#
# Elastic Compliance Matrix: (Units=1/GPa)
#
#
# Indices 1 2 3 4 5 6 
#
# 1 0.010860 -0.003358 -0.002589 0.000000 0.000000 0.000000
# 2 -0.003358 0.010860 -0.002589 0.000000 0.000000 0.000000
# 3 -0.002589 -0.002589 0.007872 0.000000 0.000000 0.000000
# 4 0.000000 0.000000 0.000000 0.027966 0.000000 0.000000
# 5 0.000000 0.000000 0.000000 0.000000 0.027966 0.000000
# 6 0.000000 0.000000 0.000000 0.000000 0.000000 0.028435
#
#
# Mechanical properties :
#
#
# Convention : Reuss Voigt Hill
#
# Bulk Modulus (GPa) = 79.87670 81.78997 80.83334
# Shear Modulus (GPa) = 36.98110 37.51196 37.24653
#
# Velocity S-wave (km/s) = 4.11350 4.14292 4.12824
# Velocity P-wave (km/s) = 7.68825 7.76585 7.72715
#
# Compressibility (1/GPa) = 0.01251929
#
# Stress axis : x y z
#
# Youngs Moduli (GPa) = 92.08459 92.08459 127.02888
#
# Poissons Ratio (x) = 0.30923 0.32887
# Poissons Ratio (y) = 0.30923 0.32887
# Poissons Ratio (z) = 0.23840 0.23840
#
# Static dielectric constant tensor:
#      x y z
#    x 1.888140 0.000000 0.000000 
#    y 0.000000 1.888140 0.000000 
#    z 0.000000 0.000000 1.894960 
# 
# From -- ./inp_files/5964.got.cif
#   From: 2010.05.17/outbox.cif.g08.bks.cpg/sg181_3_cif.got.tgz:5964.got - 2010.05.20 11:51:17.
