data_PCOD9584934
_publ_section_title
;
Structure prediction by ZEFSAII (Michael W. Deem and Ramdas Pophale) SiO2 
 PCOD9584934
Probable space group: P 6 M M
;
_chemical_formula_sum "Si O2"
_cell_formula_units_Z 48
_cell_length_a 23.405517
_cell_length_b 23.405517
_cell_length_c 5.132672
_cell_angle_alpha 90.000000
_cell_angle_beta 90.000000
_cell_angle_gamma 120.000000
_cell_volume 2435.065349
_symmetry_space_group_name_H-M "P 6 M M"
_symmetry_group_IT_number 183
_symmetry_cell_setting 'hexagonal'
loop_
_space_group_symop_operation_xyz
x,y,z
x-y,x,z
-y,x-y,z
-x,-y,z
-x+y,-x,z
y,-x+y,z
-x+y,y,z
x,x-y,z
-y,-x,z
y,x,z
x-y,-y,z
-x,-x+y,z
loop_
_atom_site_type_symbol
_atom_site_label
_atom_site_fract_x
_atom_site_fract_y
_atom_site_fract_z
Si Si1 0.749252 0.118397 0.187700
Si Si2 0.075449 0.795977 0.689360
Si Si3 0.502986 0.623984 0.303433
Si Si4 0.206679 0.540903 0.801075
O O1 0.801707 0.198294 0.208533
O O2 0.773523 0.086875 0.407849
O O3 0.672036 0.092738 0.236021
O O4 0.760087 0.096747 0.905220
O O5 0.126728 0.873273 0.718795
O O6 0.000000 0.774249 0.726398
O O7 0.455715 0.544286 0.273683
O O8 0.494191 0.641070 0.598617
O O9 0.471934 0.653078 0.095870
O O10 0.259179 0.518357 0.754092
O O11 0.236767 0.618384 0.749764
#
# Coordination Sequence:
#
# PCOD9584934 Si02
#       4
#    12  12  12  12
#     4  10  19  33  55  80 108 146 188 229 274 319
#     4  10  21  37  60  88 115 143 176 217 263 317
#     4  10  20  31  46  68  98 138 180 227 278 323
#     4  10  18  27  39  58  87 125 171 221 274 328
#
# _framework density 19.711995999999999
#
# number of rings (size 3 to 8) (size 9 to 14) (size 15 to 20)
#    0.000    2.000    0.000    4.750    0.000    2.000 
#    0.000    2.500    0.000    5.250    0.000    0.000 
#    0.000    6.000    0.000    0.000    0.000    1.000 
#
# Total GULP energy -267474.978348 kJ/mol
# GULP energy per Si atom -5572.395382 kJ/mol
# Density = 1.966713 g / cm^3
# Si number density = 19.711996 Si / 1000 Ang^3
#
#
#
# Elastic Constant Matrix: (Units=GPa)
#
#
# Indices 1 2 3 4 5 6 
#
# 1 57.1093 50.9434 -12.7943 0.0000 0.0000 0.0000
# 2 50.9434 57.1093 -12.7943 0.0000 0.0000 0.0000
# 3 -12.7943 -12.7943 43.2105 0.0000 0.0000 0.0000
# 4 0.0000 0.0000 0.0000 15.5353 0.0000 0.0000
# 5 0.0000 0.0000 0.0000 0.0000 15.5353 0.0000
# 6 0.0000 0.0000 0.0000 0.0000 0.0000 3.0829
#
#
#
# Elastic Compliance Matrix: (Units=1/GPa)
#
#
# Indices 1 2 3 4 5 6 
#
# 1 0.086068 -0.076115 0.002947 0.000000 0.000000 0.000000
# 2 -0.076115 0.086068 0.002947 0.000000 0.000000 0.000000
# 3 0.002947 0.002947 0.024888 0.000000 0.000000 0.000000
# 4 0.000000 0.000000 0.000000 0.064369 0.000000 0.000000
# 5 0.000000 0.000000 0.000000 0.000000 0.064369 0.000000
# 6 0.000000 0.000000 0.000000 0.000000 0.000000 0.324366
#
#
# Mechanical properties :
#
#
# Convention : Reuss Voigt Hill
#
# Bulk Modulus (GPa) = 17.67397 23.12652 20.40025
# Shear Modulus (GPa) = 6.17717 15.63568 10.90642
#
# Velocity S-wave (km/s) = 1.77215 2.81945 2.35476
# Velocity P-wave (km/s) = 3.62945 4.72829 4.21483
#
# Compressibility (1/GPa) = 0.05658040
#
# Stress axis : x y z
#
# Youngs Moduli (GPa) = 11.61873 11.61873 40.18064
#
# Poissons Ratio (x) = 0.88436 -0.11841
# Poissons Ratio (y) = 0.88436 -0.11841
# Poissons Ratio (z) = -0.03424 -0.03424
#
# Static dielectric constant tensor:
#      x y z
#    x 1.732810 0.000000 0.000000 
#    y 0.000000 1.732810 0.000000 
#    z 0.000000 0.000000 1.665680 
# 
# From -- ./inp_files/284.got.cif
#   From: 2010.05.17/outbox.cif.g08.bks.cpg/sg183_1_cif.got.tgz:284.got - 2010.05.20 12:02:58.
