data_PCOD9585344
_publ_section_title
;
Structure prediction by ZEFSAII (Michael W. Deem and Ramdas Pophale) SiO2 
 PCOD9585344
Probable space group: P 63 M C
;
_chemical_formula_sum "Si O2"
_cell_formula_units_Z 72
_cell_length_a 22.441152
_cell_length_b 22.441152
_cell_length_c 10.521815
_cell_angle_alpha 90.000000
_cell_angle_beta 90.000000
_cell_angle_gamma 120.000000
_cell_volume 4588.931637
_symmetry_space_group_name_H-M "P 63 M C"
_symmetry_group_IT_number 186
_symmetry_cell_setting 'hexagonal'
loop_
_space_group_symop_operation_xyz
x,y,z
x-y,x,1/2+z
-y,x-y,z
-x,-y,1/2+z
-x+y,-x,z
y,-x+y,1/2+z
-x+y,y,z
x,x-y,z
-y,-x,z
y,x,1/2+z
x-y,-y,1/2+z
-x,-x+y,1/2+z
loop_
_atom_site_type_symbol
_atom_site_label
_atom_site_fract_x
_atom_site_fract_y
_atom_site_fract_z
Si Si1 0.473021 0.666064 0.625000
Si Si2 0.213534 0.927296 0.777504
Si Si3 0.221721 0.921549 0.277503
Si Si4 0.881178 0.261931 0.522698
Si Si5 0.118822 0.380753 0.532309
Si Si6 0.193044 0.666064 0.930009
O O1 0.462521 0.731261 0.596979
O O2 0.404786 0.595215 0.593059
O O3 0.541849 0.677386 0.556336
O O4 0.484396 0.667860 0.777505
O O5 0.133936 0.866064 0.777505
O O6 0.249403 0.916733 0.653606
O O7 0.230033 0.005499 0.777504
O O8 0.249404 0.916733 0.901400
O O9 0.144742 0.855259 0.277504
O O10 0.260973 0.917109 0.152806
O O11 0.260973 0.917109 0.402201
O O12 0.806220 0.193781 0.527959
O O13 0.864463 0.322615 0.498673
O O14 0.193780 0.387560 0.527046
O O15 0.190429 0.595215 0.961951
O O16 0.268740 0.731261 0.958031
#
# Coordination Sequence:
#
# PCOD9585344 Si02
#       6
#    12  12  12  12  12  12
#     4   9  15  25  44  69  95 123 161 205 244 276
#     4  10  18  32  53  72  91 117 153 191 225 271
#     4  10  20  32  49  72  97 121 149 187 233 281
#     4   9  17  30  47  69  94 123 156 192 232 273
#     4   9  17  30  47  69  94 123 156 192 232 273
#     4   9  15  25  44  69  95 123 161 205 244 276
#
# _framework density 15.689927000000001
#
# number of rings (size 3 to 8) (size 9 to 14) (size 15 to 20)
#    0.000    2.667    1.667    1.333    0.000    1.333 
#    0.000    0.833    0.000    6.333    0.000    2.333 
#    0.000    8.000    0.000    0.000    0.000    1.333 
#
# Total GULP energy -400850.210992 kJ/mol
# GULP energy per Si atom -5567.364042 kJ/mol
# Density = 1.565422 g / cm^3
# Si number density = 15.689927 Si / 1000 Ang^3
#
#
#
# Elastic Constant Matrix: (Units=GPa)
#
#
# Indices 1 2 3 4 5 6 
#
# 1 91.2215 54.0407 36.5755 0.0000 0.0000 0.0000
# 2 54.0407 91.2215 36.5755 0.0000 0.0000 0.0000
# 3 36.5755 36.5755 103.7531 0.0000 0.0000 0.0000
# 4 0.0000 0.0000 0.0000 -21.4533 0.0000 0.0000
# 5 0.0000 0.0000 0.0000 0.0000 -21.4533 0.0000
# 6 0.0000 0.0000 0.0000 0.0000 0.0000 18.5904
#
#
#
# Elastic Compliance Matrix: (Units=1/GPa)
#
#
# Indices 1 2 3 4 5 6 
#
# 1 0.017633 -0.009263 -0.002951 0.000000 0.000000 0.000000
# 2 -0.009263 0.017633 -0.002951 0.000000 0.000000 0.000000
# 3 -0.002951 -0.002951 0.011719 0.000000 0.000000 0.000000
# 4 0.000000 0.000000 0.000000 -0.046613 0.000000 0.000000
# 5 0.000000 0.000000 0.000000 0.000000 -0.046613 0.000000
# 6 0.000000 0.000000 0.000000 0.000000 0.000000 0.053791
#
#
# Mechanical properties :
#
#
# Convention : Reuss Voigt Hill
#
# Bulk Modulus (GPa) = 60.03819 60.06439 60.05129
# Shear Modulus (GPa) = 115.12778 5.73703 60.43240
#
# Velocity S-wave (km/s) = 8.57532 1.91427 6.21291
# Velocity P-wave (km/s) = 11.67890 6.57656 9.47755
#
# Compressibility (1/GPa) = 0.01665606
#
# Stress axis : x y z
#
# Youngs Moduli (GPa) = 56.71251 56.71251 85.33446
#
# Poissons Ratio (x) = 0.52532 0.25179
# Poissons Ratio (y) = 0.52532 0.25179
# Poissons Ratio (z) = 0.16734 0.16734
#
# Static dielectric constant tensor:
#      x y z
#    x 1.522400 0.000000 0.000000 
#    y 0.000000 1.522400 0.000000 
#    z 0.000000 0.000000 1.529990 
# 
# From -- ./inp_files/1218.got.cif
#   From: 2010.05.17/outbox.cif.g08.bks.cpg/sg186_1_cif.got.tgz:1218.got - 2010.05.20 12:07:08.
