data_PCOD9585330
_publ_section_title
;
Structure prediction by ZEFSAII (Michael W. Deem and Ramdas Pophale) SiO2 
 PCOD9585330
Probable space group: P 63 M C
;
_chemical_formula_sum "Si O2"
_cell_formula_units_Z 96
_cell_length_a 16.792035
_cell_length_b 16.792035
_cell_length_c 25.734634
_cell_angle_alpha 90.000000
_cell_angle_beta 90.000000
_cell_angle_gamma 120.000000
_cell_volume 6284.276560
_symmetry_space_group_name_H-M "P 63 M C"
_symmetry_group_IT_number 186
_symmetry_cell_setting 'hexagonal'
loop_
_space_group_symop_operation_xyz
x,y,z
x-y,x,1/2+z
-y,x-y,z
-x,-y,1/2+z
-x+y,-x,z
y,-x+y,1/2+z
-x+y,y,z
x,x-y,z
-y,-x,z
y,x,1/2+z
x-y,-y,1/2+z
-x,-x+y,1/2+z
loop_
_atom_site_type_symbol
_atom_site_label
_atom_site_fract_x
_atom_site_fract_y
_atom_site_fract_z
Si Si1 0.482757 0.149952 0.412070
Si Si2 0.184720 0.186389 0.972698
Si Si3 0.144953 0.480221 0.441601
Si Si4 0.971686 0.344126 0.509094
Si Si5 0.230734 0.945250 0.860686
Si Si6 0.106636 0.704572 0.328005
Si Si7 0.478828 0.335518 0.605941
Si Si8 0.148978 0.664159 0.221978
O O1 0.566597 0.133194 0.399337
O O2 0.515280 0.257640 0.413303
O O3 0.439928 0.105332 0.467850
O O4 0.394112 0.102651 0.374360
O O5 0.079935 0.159869 0.982227
O O6 0.210467 0.229039 0.914515
O O7 0.198767 0.099384 0.977410
O O8 0.252969 0.272486 0.007911
O O9 0.233660 0.467320 0.447421
O O10 0.172930 0.586465 0.443888
O O11 0.100739 0.442061 0.384286
O O12 0.067588 0.424181 0.485074
O O13 0.935191 0.354528 0.564364
O O14 0.133753 0.866248 0.839385
O O15 0.294554 0.033092 0.826953
O O16 0.208958 0.791043 0.328142
O O17 0.093939 0.648368 0.275438
O O18 0.469081 0.234541 0.599515
O O19 0.585264 0.414737 0.599222
O O20 0.451547 0.345795 0.665071
O O21 0.186146 0.593073 0.222722
O O22 0.233317 0.766684 0.223173
#
# Coordination Sequence:
#
# PCOD9585330 Si02
#       8
#    12  12  12  12  12  12  12  12
#     4  10  18  27  39  59  85 116 150 184 224 271
#     4  10  18  30  46  67  92 120 153 190 233 279
#     4  11  21  32  47  69  98 129 158 190 230 282
#     4  11  20  30  46  65  92 125 155 188 232 280
#     4   9  18  29  44  63  90 122 153 187 229 277
#     4  10  18  30  49  70  94 124 158 192 236 286
#     4  10  19  32  48  69  96 127 162 200 243 290
#     4   9  18  30  47  70  97 127 159 197 239 285
#
# _framework density 15.276221
#
# number of rings (size 3 to 8) (size 9 to 14) (size 15 to 20)
#    0.000    2.000    2.500    4.750    0.000    1.500 
#    0.000    2.500    0.000    1.750    0.000    0.000 
#    0.000    0.000    0.000    0.500    0.000    0.250 
#
# Total GULP energy -534535.744616 kJ/mol
# GULP energy per Si atom -5568.080673 kJ/mol
# Density = 1.524145 g / cm^3
# Si number density = 15.276221 Si / 1000 Ang^3
#
#
#
# Elastic Constant Matrix: (Units=GPa)
#
#
# Indices 1 2 3 4 5 6 
#
# 1 57.2804 9.5290 24.8915 0.0000 0.0000 0.0000
# 2 9.5290 57.2804 24.8915 0.0000 0.0000 0.0000
# 3 24.8915 24.8915 80.0366 0.0000 0.0000 0.0000
# 4 0.0000 0.0000 0.0000 12.3296 0.0000 0.0000
# 5 0.0000 0.0000 0.0000 0.0000 12.3296 0.0000
# 6 0.0000 0.0000 0.0000 0.0000 0.0000 23.8757
#
#
#
# Elastic Compliance Matrix: (Units=1/GPa)
#
#
# Indices 1 2 3 4 5 6 
#
# 1 0.020212 -0.000729 -0.006059 0.000000 0.000000 0.000000
# 2 -0.000729 0.020212 -0.006059 0.000000 0.000000 0.000000
# 3 -0.006059 -0.006059 0.016263 0.000000 0.000000 0.000000
# 4 0.000000 0.000000 0.000000 0.081106 0.000000 0.000000
# 5 0.000000 0.000000 0.000000 0.000000 0.081106 0.000000
# 6 0.000000 0.000000 0.000000 0.000000 0.000000 0.041884
#
#
# Mechanical properties :
#
#
# Convention : Reuss Voigt Hill
#
# Bulk Modulus (GPa) = 32.26621 34.80238 33.53430
# Shear Modulus (GPa) = 16.84585 18.72602 17.78593
#
# Velocity S-wave (km/s) = 3.32437 3.50498 3.41587
# Velocity P-wave (km/s) = 5.99191 6.26190 6.12839
#
# Compressibility (1/GPa) = 0.03099217
#
# Stress axis : x y z
#
# Youngs Moduli (GPa) = 49.47464 49.47464 61.48877
#
# Poissons Ratio (x) = 0.03609 0.37257
# Poissons Ratio (y) = 0.03609 0.37257
# Poissons Ratio (z) = 0.29978 0.29978
#
# Static dielectric constant tensor:
#      x y z
#    x 1.522710 0.000000 0.000000 
#    y 0.000000 1.522710 0.000000 
#    z 0.000000 0.000000 1.520880 
# 
# From -- ./inp_files/3902.got.cif
#   From: 2010.05.17/outbox.cif.g08.bks.cpg/sg186_2_cif.got.tgz:3902.got - 2010.05.20 12:07:08.
