data_PCOD9585007
_publ_section_title
;
Structure prediction by ZEFSAII (Michael W. Deem and Ramdas Pophale) SiO2 
 PCOD9585007
Probable space group: P 6 M M
;
_chemical_formula_sum "Si O2"
_cell_formula_units_Z 84
_cell_length_a 18.689498
_cell_length_b 18.689498
_cell_length_c 17.720867
_cell_angle_alpha 90.000000
_cell_angle_beta 90.000000
_cell_angle_gamma 120.000000
_cell_volume 5360.568754
_symmetry_space_group_name_H-M "P 6 M M"
_symmetry_group_IT_number 183
_symmetry_cell_setting 'hexagonal'
loop_
_space_group_symop_operation_xyz
x,y,z
x-y,x,z
-y,x-y,z
-x,-y,z
-x+y,-x,z
y,-x+y,z
-x+y,y,z
x,x-y,z
-y,-x,z
y,x,z
x-y,-y,z
-x,-x+y,z
loop_
_atom_site_type_symbol
_atom_site_label
_atom_site_fract_x
_atom_site_fract_y
_atom_site_fract_z
Si Si1 0.467696 0.369015 0.605930
Si Si2 0.263990 0.359304 0.894925
Si Si3 0.665772 0.165433 0.194998
Si Si4 0.743027 0.650307 0.305555
Si Si5 0.333744 0.834359 0.017904
Si Si6 0.650109 0.904924 0.480084
Si Si7 0.167586 0.667641 0.771708
O O1 0.558723 0.441278 0.583450
O O2 0.413914 0.413914 0.620042
O O3 0.423140 0.304717 0.539090
O O4 0.475871 0.331338 0.684346
O O5 0.167034 0.334067 0.894890
O O6 0.287327 0.287327 0.894202
O O7 0.306555 0.420613 0.823857
O O8 0.306421 0.419425 0.966757
O O9 0.579371 0.158741 0.214226
O O10 0.740541 0.259460 0.203956
O O11 0.687295 0.110493 0.248785
O O12 0.663846 0.144587 0.106396
O O13 0.837177 0.674354 0.291754
O O14 0.723893 0.723893 0.295786
O O15 0.723547 0.621921 0.392980
O O16 0.422077 0.844154 0.997152
O O17 0.261238 0.738763 0.008526
O O18 0.683260 0.841630 0.489415
O O19 0.717608 0.000000 0.493421
O O20 0.153455 0.576728 0.788356
O O21 0.262682 0.737319 0.784803
#
# Coordination Sequence:
#
# PCOD9585007 Si02
#       7
#    12  12  12  12  12  12  12
#     4   9  17  28  43  64  89 118 152 188 221 252
#     4  10  21  35  50  68  90 117 148 184 226 269
#     4   9  17  29  45  66  93 124 155 184 214 250
#     4   9  18  31  46  64  86 113 145 183 227 272
#     4   9  17  29  46  68  95 126 156 183 211 248
#     4   9  17  30  47  65  86 113 146 183 224 271
#     4  10  19  30  45  66  94 126 157 186 215 250
#
# _framework density 15.669979
#
# number of rings (size 3 to 8) (size 9 to 14) (size 15 to 20)
#    0.000    2.714    0.000    1.714    0.000    4.286 
#    0.000    4.286    0.000    0.714    0.000    2.000 
#    0.000    0.000    0.000   11.714    0.000    6.857 
#
# Total GULP energy -468046.071014 kJ/mol
# GULP energy per Si atom -5571.977036 kJ/mol
# Density = 1.563431 g / cm^3
# Si number density = 15.669979 Si / 1000 Ang^3
#
#
#
# Elastic Constant Matrix: (Units=GPa)
#
#
# Indices 1 2 3 4 5 6 
#
# 1 78.5496 58.8273 45.1881 0.0000 0.0000 0.0000
# 2 58.8273 78.5496 45.1881 0.0000 0.0000 0.0000
# 3 45.1881 45.1881 59.2065 0.0000 0.0000 0.0000
# 4 0.0000 0.0000 0.0000 21.1713 0.0000 0.0000
# 5 0.0000 0.0000 0.0000 0.0000 21.1713 0.0000
# 6 0.0000 0.0000 0.0000 0.0000 0.0000 9.8612
#
#
#
# Elastic Compliance Matrix: (Units=1/GPa)
#
#
# Indices 1 2 3 4 5 6 
#
# 1 0.032662 -0.018042 -0.011158 0.000000 0.000000 0.000000
# 2 -0.018042 0.032662 -0.011158 0.000000 0.000000 0.000000
# 3 -0.011158 -0.011158 0.033923 0.000000 0.000000 0.000000
# 4 0.000000 0.000000 0.000000 0.047234 0.000000 0.000000
# 5 0.000000 0.000000 0.000000 0.000000 0.047234 0.000000
# 6 0.000000 0.000000 0.000000 0.000000 0.000000 0.101408
#
#
# Mechanical properties :
#
#
# Convention : Reuss Voigt Hill
#
# Bulk Modulus (GPa) = 53.96869 57.19028 55.57949
# Shear Modulus (GPa) = 13.08843 14.91422 14.00133
#
# Velocity S-wave (km/s) = 2.89321 3.08842 2.99241
# Velocity P-wave (km/s) = 6.75844 7.02095 6.89095
#
# Compressibility (1/GPa) = 0.01852926
#
# Stress axis : x y z
#
# Youngs Moduli (GPa) = 30.61661 30.61661 29.47856
#
# Poissons Ratio (x) = 0.55238 0.32894
# Poissons Ratio (y) = 0.55238 0.32894
# Poissons Ratio (z) = 0.34163 0.34163
#
# Static dielectric constant tensor:
#      x y z
#    x 1.510550 0.000000 0.000000 
#    y 0.000000 1.510550 0.000000 
#    z 0.000000 0.000000 1.531200 
# 
# From -- ./inp_files/2270.got.cif
#   From: 2010.05.17/outbox.cif.g08.bks.cpg/sg183_2_cif.got.tgz:2270.got - 2010.05.20 12:02:58.
