data_PCOD9585032
_publ_section_title
;
Structure prediction by ZEFSAII (Michael W. Deem and Ramdas Pophale) SiO2 
 PCOD9585032
Probable space group: P 6 M M
;
_chemical_formula_sum "Si O2"
_cell_formula_units_Z 96
_cell_length_a 17.962918
_cell_length_b 17.962918
_cell_length_c 21.334647
_cell_angle_alpha 90.000000
_cell_angle_beta 90.000000
_cell_angle_gamma 120.000000
_cell_volume 5961.696567
_symmetry_space_group_name_H-M "P 6 M M"
_symmetry_group_IT_number 183
_symmetry_cell_setting 'hexagonal'
loop_
_space_group_symop_operation_xyz
x,y,z
x-y,x,z
-y,x-y,z
-x,-y,z
-x+y,-x,z
y,-x+y,z
-x+y,y,z
x,x-y,z
-y,-x,z
y,x,z
x-y,-y,z
-x,-x+y,z
loop_
_atom_site_type_symbol
_atom_site_label
_atom_site_fract_x
_atom_site_fract_y
_atom_site_fract_z
Si Si1 0.363825 0.896325 0.159780
Si Si2 0.367796 0.099049 0.792375
Si Si3 0.162063 0.493498 0.537195
Si Si4 0.370979 0.102811 0.036613
Si Si5 0.102621 0.466497 0.403224
Si Si6 0.103711 0.467554 0.913297
Si Si7 0.489386 0.332282 0.675343
Si Si8 0.266583 0.369330 0.281711
O O1 0.430817 0.861633 0.159115
O O2 0.306789 0.875716 0.097741
O O3 0.307927 0.875187 0.222436
O O4 0.421566 0.000000 0.159859
O O5 0.335768 0.167884 0.788157
O O6 0.433459 0.126073 0.850840
O O7 0.421819 0.107623 0.729850
O O8 0.295134 0.000000 0.801143
O O9 0.263083 0.526165 0.538257
O O10 0.145046 0.572523 0.535451
O O11 0.127546 0.446675 0.471199
O O12 0.128005 0.450919 0.605054
O O13 0.331497 0.165749 0.036442
O O14 0.303417 0.000000 0.036753
O O15 0.430966 0.123827 0.975466
O O16 0.137778 0.568889 0.396645
O O17 0.124866 0.426336 0.344583
O O18 0.000000 0.421166 0.402416
O O19 0.138448 0.569224 0.914171
O O20 0.000000 0.421416 0.912539
O O21 0.513530 0.256765 0.681219
O O22 0.574668 0.425333 0.680889
O O23 0.164283 0.328566 0.278787
O O24 0.302904 0.302904 0.280739
#
# Coordination Sequence:
#
# PCOD9585032 Si02
#       8
#    12  12  12  12  12  12  12  12
#     4   9  17  30  49  70  90 115 147 182 222 270
#     4  10  20  33  49  69  92 119 152 190 231 273
#     4   9  16  26  40  59  85 116 148 179 213 256
#     4  10  19  31  49  72  97 127 164 203 240 278
#     4   9  17  28  42  61  85 114 148 185 224 267
#     4   9  17  30  49  71  93 118 149 184 222 268
#     4   9  17  28  43  64  91 123 155 186 220 261
#     4  10  19  31  48  68  90 118 153 191 229 271
#
# _framework density 16.102799999999998
#
# number of rings (size 3 to 8) (size 9 to 14) (size 15 to 20)
#    0.000    2.625    0.000    2.500    0.000    5.250 
#    0.000    1.250    0.000   11.375    0.000    0.000 
#    0.000    6.000    0.000    0.000    0.000   16.750 
#
# Total GULP energy -534432.372119 kJ/mol
# GULP energy per Si atom -5567.003876 kJ/mol
# Density = 1.606615 g / cm^3
# Si number density = 16.102800 Si / 1000 Ang^3
#
#
#
# Elastic Constant Matrix: (Units=GPa)
#
#
# Indices 1 2 3 4 5 6 
#
# 1 67.0241 40.0061 34.2049 0.0000 0.0000 0.0000
# 2 40.0061 67.0241 34.2049 0.0000 0.0000 0.0000
# 3 34.2049 34.2049 143.9422 0.0000 0.0000 0.0000
# 4 0.0000 0.0000 0.0000 0.4978 0.0000 0.0000
# 5 0.0000 0.0000 0.0000 0.0000 0.4978 0.0000
# 6 0.0000 0.0000 0.0000 0.0000 0.0000 13.5090
#
#
#
# Elastic Compliance Matrix: (Units=1/GPa)
#
#
# Indices 1 2 3 4 5 6 
#
# 1 0.024014 -0.012998 -0.002618 0.000000 0.000000 0.000000
# 2 -0.012998 0.024014 -0.002618 0.000000 0.000000 0.000000
# 3 -0.002618 -0.002618 0.008191 0.000000 0.000000 0.000000
# 4 0.000000 0.000000 0.000000 2.009033 0.000000 0.000000
# 5 0.000000 0.000000 0.000000 0.000000 2.009033 0.000000
# 6 0.000000 0.000000 0.000000 0.000000 0.000000 0.074025
#
#
# Mechanical properties :
#
#
# Convention : Reuss Voigt Hill
#
# Bulk Modulus (GPa) = 50.62559 54.98023 52.80291
# Shear Modulus (GPa) = 1.19293 14.20586 7.69940
#
# Velocity S-wave (km/s) = 0.86164 2.97340 2.18901
# Velocity P-wave (km/s) = 5.70063 6.78274 6.26509
#
# Compressibility (1/GPa) = 0.01975286
#
# Stress axis : x y z
#
# Youngs Moduli (GPa) = 41.64168 41.64168 122.07972
#
# Poissons Ratio (x) = 0.54126 0.31958
# Poissons Ratio (y) = 0.54126 0.31958
# Poissons Ratio (z) = 0.10901 0.10901
#
# Static dielectric constant tensor:
#      x y z
#    x 1.543310 0.000000 0.000000 
#    y 0.000000 1.543310 0.000000 
#    z 0.000000 0.000000 1.569830 
# 
# From -- ./inp_files/3016.got.cif
#   From: 2010.05.17/outbox.cif.g08.bks.cpg/sg183_2_cif.got.tgz:3016.got - 2010.05.20 12:02:58.
