data_PCOD9585264
_publ_section_title
;
Structure prediction by ZEFSAII (Michael W. Deem and Ramdas Pophale) SiO2 
 PCOD9585264
Probable space group: P 63 C M
;
_chemical_formula_sum "Si O2"
_cell_formula_units_Z 84
_cell_length_a 18.968128
_cell_length_b 18.968128
_cell_length_c 14.541365
_cell_angle_alpha 90.000000
_cell_angle_beta 90.000000
_cell_angle_gamma 120.000000
_cell_volume 4530.902855
_symmetry_space_group_name_H-M "P 63 C M"
_symmetry_group_IT_number 185
_symmetry_cell_setting 'hexagonal'
loop_
_space_group_symop_operation_xyz
x,y,z
x-y,x,1/2+z
-y,x-y,z
-x,-y,1/2+z
-x+y,-x,z
y,-x+y,1/2+z
-x+y,y,1/2+z
x,x-y,1/2+z
-y,-x,1/2+z
y,x,z
x-y,-y,z
-x,-x+y,z
loop_
_atom_site_type_symbol
_atom_site_label
_atom_site_fract_x
_atom_site_fract_y
_atom_site_fract_z
Si Si1 0.640427 0.098093 0.750000
Si Si2 0.336530 0.098082 0.720920
Si Si3 0.789109 0.093842 0.835071
Si Si4 0.163756 0.782650 0.014849
Si Si5 0.493899 0.401320 0.028260
Si Si6 0.556903 0.654058 0.034955
Si Si7 0.092786 0.487451 0.752159
O O1 0.720154 0.116066 0.804297
O O2 0.663298 0.119292 0.643460
O O3 0.581046 0.131316 0.782877
O O4 0.583449 0.000000 0.751641
O O5 0.288954 0.130772 0.781788
O O6 0.351531 0.136424 0.619155
O O7 0.289941 0.000000 0.713619
O O8 0.425778 0.126357 0.765517
O O9 0.755173 0.000000 0.810618
O O10 0.796322 0.107516 0.943708
O O11 0.149360 0.691662 0.002106
O O12 0.256719 0.849439 0.995272
O O13 0.431948 0.431948 0.996313
O O14 0.493162 0.403788 0.140228
O O15 0.583811 0.469592 0.998367
O O16 0.617283 0.617283 0.026567
O O17 0.000000 0.438592 0.788138
#
# Coordination Sequence:
#
# PCOD9585264 Si02
#       7
#    12  12  12  12  12  12  12
#     4   8  14  29  51  74 101 135 174 219 272 327
#     4  10  20  36  57  81 110 145 191 242 288 340
#     4  11  22  35  54  82 113 146 189 239 292 345
#     4  11  20  34  56  81 111 150 194 236 285 345
#     4   8  15  30  50  73 103 141 181 220 271 331
#     4   9  17  32  55  79 106 144 187 233 283 334
#     4   7  12  26  51  74  97 131 171 213 261 318
#
# _framework density 18.539352000000001
#
# number of rings (size 3 to 8) (size 9 to 14) (size 15 to 20)
#    0.000    2.857    1.429    3.857    0.000    0.571 
#    3.429    0.000    0.000    0.857    0.000    0.000 
#    0.000    0.000    0.000    0.000    0.000    0.000 
#
# Total GULP energy -468052.317632 kJ/mol
# GULP energy per Si atom -5572.051400 kJ/mol
# Density = 1.849716 g / cm^3
# Si number density = 18.539352 Si / 1000 Ang^3
#
#
#
# Elastic Constant Matrix: (Units=GPa)
#
#
# Indices 1 2 3 4 5 6 
#
# 1 75.9780 28.6379 6.4893 0.0000 0.0000 0.0000
# 2 28.6379 75.9780 6.4893 0.0000 0.0000 0.0000
# 3 6.4893 6.4893 36.7329 0.0000 0.0000 0.0000
# 4 0.0000 0.0000 0.0000 12.4837 0.0000 0.0000
# 5 0.0000 0.0000 0.0000 0.0000 12.4837 0.0000
# 6 0.0000 0.0000 0.0000 0.0000 0.0000 23.6701
#
#
#
# Elastic Compliance Matrix: (Units=1/GPa)
#
#
# Indices 1 2 3 4 5 6 
#
# 1 0.015448 -0.005675 -0.001727 0.000000 0.000000 0.000000
# 2 -0.005675 0.015448 -0.001727 0.000000 0.000000 0.000000
# 3 -0.001727 -0.001727 0.027834 0.000000 0.000000 0.000000
# 4 0.000000 0.000000 0.000000 0.080105 0.000000 0.000000
# 5 0.000000 0.000000 0.000000 0.000000 0.080105 0.000000
# 6 0.000000 0.000000 0.000000 0.000000 0.000000 0.042247
#
#
# Mechanical properties :
#
#
# Convention : Reuss Voigt Hill
#
# Bulk Modulus (GPa) = 24.70757 30.21356 27.46056
# Shear Modulus (GPa) = 17.06863 19.53231 18.30047
#
# Velocity S-wave (km/s) = 3.03755 3.24938 3.14525
# Velocity P-wave (km/s) = 5.06540 5.51456 5.29474
#
# Compressibility (1/GPa) = 0.04047343
#
# Stress axis : x y z
#
# Youngs Moduli (GPa) = 64.73184 64.73184 35.92788
#
# Poissons Ratio (x) = 0.36738 0.06203
# Poissons Ratio (y) = 0.36738 0.06203
# Poissons Ratio (z) = 0.11176 0.11176
#
# Static dielectric constant tensor:
#      x y z
#    x 1.645110 0.000000 0.000000 
#    y 0.000000 1.645110 0.000000 
#    z 0.000000 0.000000 1.704160 
# 
# From -- ./inp_files/1013.got.cif
#   From: 2010.05.17/outbox.cif.g08.bks.cpg/sg185_cif.got.tgz:1013.got - 2010.05.20 12:05:34.
