data_PCOD9585682
_publ_section_title
;
Structure prediction by ZEFSAII (Michael W. Deem and Ramdas Pophale) SiO2 
 PCOD9585682
Probable space group: P -6 M 2
;
_chemical_formula_sum "Si O2"
_cell_formula_units_Z 72
_cell_length_a 12.812811
_cell_length_b 12.812811
_cell_length_c 31.235747
_cell_angle_alpha 90.000000
_cell_angle_beta 90.000000
_cell_angle_gamma 120.000000
_cell_volume 4440.903828
_symmetry_space_group_name_H-M "P -6 M 2"
_symmetry_group_IT_number 187
_symmetry_cell_setting 'hexagonal'
loop_
_space_group_symop_operation_xyz
x,y,z
-x+y,-x,-z
-y,x-y,z
x,y,-z
-x+y,-x,z
-y,x-y,-z
-y,-x,-z
-x+y,y,-z
x,x-y,-z
-x+y,y,z
x,x-y,z
-y,-x,z
loop_
_atom_site_type_symbol
_atom_site_label
_atom_site_fract_x
_atom_site_fract_y
_atom_site_fract_z
Si Si1 0.418620 0.086114 0.000000
Si Si2 0.248000 0.999777 0.081711
Si Si3 0.580344 0.666658 0.836543
Si Si4 0.752786 0.000054 0.241461
Si Si5 0.666481 0.085110 0.500000
Si Si6 0.333629 0.914747 0.581085
Si Si7 0.000067 0.753774 0.659961
O O1 0.336538 0.025392 0.958286
O O2 0.538023 0.076046 0.000000
O O3 0.451188 0.225594 0.000000
O O4 0.233240 0.116620 0.087118
O O5 0.304153 0.975837 0.124039
O O6 0.118748 0.881253 0.074039
O O7 0.550322 0.775161 0.835416
O O8 0.460487 0.539514 0.841544
O O9 0.650569 0.675297 0.792778
O O10 0.779878 0.889939 0.236581
O O11 0.714940 0.998333 0.290805
O O12 0.874094 0.125907 0.233676
O O13 0.793582 0.206419 0.500000
O O14 0.556620 0.113239 0.500000
O O15 0.648484 0.004818 0.458103
O O16 0.447199 0.894398 0.582849
O O17 0.211128 0.788873 0.574412
O O18 0.320016 0.971876 0.625145
O O19 0.872768 0.745535 0.651959
O O20 0.107776 0.892225 0.656341
#
# Coordination Sequence:
#
# PCOD9585682 Si02
#       7
#     6  12  12  12   6  12  12
#     4  10  20  34  52  74 102 136 170 200 232 278
#     4  10  20  34  54  78 102 128 160 203 251 294
#     4  10  20  33  49  70  98 132 167 202 242 290
#     4   9  17  30  50  74  98 125 159 202 249 294
#     4  10  20  34  52  72  94 122 158 200 242 284
#     4  10  20  33  50  72  99 131 164 197 234 280
#     4   9  17  30  49  73  99 127 160 200 247 293
#
# _framework density 16.212916
#
# number of rings (size 3 to 8) (size 9 to 14) (size 15 to 20)
#    0.000    2.333    0.000    3.000    0.000    2.000 
#    0.000    3.333    0.000   10.667    0.000    0.000 
#    0.000    0.000    0.000    0.000    0.000    0.000 
#
# Total GULP energy -401661.822534 kJ/mol
# GULP energy per Si atom -5578.636424 kJ/mol
# Density = 1.617601 g / cm^3
# Si number density = 16.212916 Si / 1000 Ang^3
#
#
#
# Elastic Constant Matrix: (Units=GPa)
#
#
# Indices 1 2 3 4 5 6 
#
# 1 118.9124 80.6861 80.0887 0.0000 0.0003 0.0000
# 2 80.6861 118.9124 80.0887 0.0000 -0.0003 0.0000
# 3 80.0887 80.0887 118.0729 0.0000 0.0000 0.0000
# 4 0.0000 0.0000 0.0000 20.3099 0.0000 -0.0003
# 5 0.0003 -0.0003 0.0000 0.0000 20.3099 0.0000
# 6 0.0000 0.0000 0.0000 -0.0003 0.0000 19.1132
#
#
#
# Elastic Compliance Matrix: (Units=1/GPa)
#
#
# Indices 1 2 3 4 5 6 
#
# 1 0.018577 -0.007582 -0.007458 0.000000 0.000000 0.000000
# 2 -0.007582 0.018577 -0.007458 0.000000 0.000000 0.000000
# 3 -0.007458 -0.007458 0.018587 0.000000 0.000000 0.000000
# 4 0.000000 0.000000 0.000000 0.049237 0.000000 0.000001
# 5 0.000000 0.000000 0.000000 0.000000 0.049237 0.000000
# 6 0.000000 0.000000 0.000000 0.000001 0.000000 0.052320
#
#
# Mechanical properties :
#
#
# Convention : Reuss Voigt Hill
#
# Bulk Modulus (GPa) = 93.06545 93.06943 93.06744
# Shear Modulus (GPa) = 19.59906 19.61553 19.60730
#
# Velocity S-wave (km/s) = 3.48063 3.48209 3.48136
# Velocity P-wave (km/s) = 8.58369 8.58462 8.58416
#
# Compressibility (1/GPa) = 0.01074513
#
# Stress axis : x y z
#
# Youngs Moduli (GPa) = 53.82857 53.82857 53.80178
#
# Poissons Ratio (x) = 0.40815 0.40125
# Poissons Ratio (y) = 0.40815 0.40125
# Poissons Ratio (z) = 0.40145 0.40145
#
# Static dielectric constant tensor:
#      x y z
#    x 1.511020 0.000000 0.000000 
#    y 0.000000 1.511020 0.000000 
#    z 0.000000 0.000000 1.541730 
# 
# From -- ./inp_files/4529.got.cif
#   From: 2010.05.17/outbox.cif.g08.bks.cpg/sg187_3_cif.got.tgz:4529.got - 2010.05.20 12:09:04.
