data_PCOD9585750
_publ_section_title
;
Structure prediction by ZEFSAII (Michael W. Deem and Ramdas Pophale) SiO2 
 PCOD9585750
Probable space group: P -6 M 2
;
_chemical_formula_sum "Si O2"
_cell_formula_units_Z 45
_cell_length_a 15.095876
_cell_length_b 15.095876
_cell_length_c 12.718408
_cell_angle_alpha 90.000000
_cell_angle_beta 90.000000
_cell_angle_gamma 120.000000
_cell_volume 2510.036426
_symmetry_space_group_name_H-M "P -6 M 2"
_symmetry_group_IT_number 187
_symmetry_cell_setting 'hexagonal'
loop_
_space_group_symop_operation_xyz
x,y,z
-x+y,-x,-z
-y,x-y,z
x,y,-z
-x+y,-x,z
-y,x-y,-z
-y,-x,-z
-x+y,y,-z
x,x-y,-z
-x+y,y,z
x,x-y,z
-y,-x,z
loop_
_atom_site_type_symbol
_atom_site_label
_atom_site_fract_x
_atom_site_fract_y
_atom_site_fract_z
Si Si1 0.984138 0.593487 0.623387
Si Si2 0.855902 0.144098 0.000000
Si Si3 0.847314 0.152687 0.624560
Si Si4 0.534862 0.666465 0.811189
Si Si5 0.932363 0.864726 0.801162
Si Si6 0.415107 0.386312 0.000000
O O1 0.010121 0.612293 0.500000
O O2 0.948635 0.474318 0.643930
O O3 0.901007 0.627296 0.646222
O O4 0.080443 0.657486 0.698329
O O5 0.893618 0.106383 0.100934
O O6 0.901816 0.265428 0.000000
O O7 0.860304 0.139697 0.500000
O O8 0.897583 0.102418 0.697113
O O9 0.557638 0.778819 0.834695
O O10 0.413955 0.586046 0.812611
O O11 0.583600 0.626900 0.897879
O O12 0.889691 0.944846 0.804627
O O13 0.538199 0.461802 0.000000
#
# Coordination Sequence:
#
# PCOD9585750 Si02
#       6
#    12   3   6  12   6   6
#     4   9  19  35  53  78 110 141 184 233 274 332
#     4  12  22  40  64  80 114 152 184 232 286 332
#     4  10  20  36  58  80 110 152 188 234 294 336
#     4  10  20  35  55  80 110 142 177 221 271 326
#     4  10  24  40  56  84 116 146 192 242 279 335
#     4  10  23  38  55  85 112 139 182 228 269 328
#
# _framework density 17.928028000000001
#
# number of rings (size 3 to 8) (size 9 to 14) (size 15 to 20)
#    0.267    1.867    0.000    2.667    0.000    6.400 
#    1.200    4.000    0.000    1.600    0.000    0.000 
#    0.000    0.000    0.000    0.000    0.000    0.000 
#
# Total GULP energy -250948.096333 kJ/mol
# GULP energy per Si atom -5576.624363 kJ/mol
# Density = 1.788722 g / cm^3
# Si number density = 17.928028 Si / 1000 Ang^3
#
#
#
# Elastic Constant Matrix: (Units=GPa)
#
#
# Indices 1 2 3 4 5 6 
#
# 1 98.1214 72.7309 42.3258 0.0000 0.0001 0.0000
# 2 72.7309 98.1214 42.3258 0.0000 -0.0001 0.0000
# 3 42.3258 42.3258 58.4028 0.0000 0.0000 0.0000
# 4 0.0000 0.0000 0.0000 16.1977 0.0000 -0.0001
# 5 0.0001 -0.0001 0.0000 0.0000 16.1977 0.0000
# 6 0.0000 0.0000 0.0000 -0.0001 0.0000 12.6952
#
#
#
# Elastic Compliance Matrix: (Units=1/GPa)
#
#
# Indices 1 2 3 4 5 6 
#
# 1 0.024258 -0.015126 -0.006618 0.000000 0.000000 0.000000
# 2 -0.015126 0.024258 -0.006618 0.000000 0.000000 0.000000
# 3 -0.006618 -0.006618 0.026715 0.000000 0.000000 0.000000
# 4 0.000000 0.000000 0.000000 0.061737 0.000000 0.000000
# 5 0.000000 0.000000 0.000000 0.000000 0.061737 0.000000
# 6 0.000000 0.000000 0.000000 0.000000 0.000000 0.078770
#
#
# Mechanical properties :
#
#
# Convention : Reuss Voigt Hill
#
# Bulk Modulus (GPa) = 54.03507 63.26783 58.65145
# Shear Modulus (GPa) = 14.68985 15.50231 15.09608
#
# Velocity S-wave (km/s) = 2.86558 2.94376 2.90494
# Velocity P-wave (km/s) = 6.41515 6.84988 6.63608
#
# Compressibility (1/GPa) = 0.01850650
#
# Stress axis : x y z
#
# Youngs Moduli (GPa) = 41.22267 41.22267 37.43176
#
# Poissons Ratio (x) = 0.62355 0.24773
# Poissons Ratio (y) = 0.62355 0.24773
# Poissons Ratio (z) = 0.27282 0.27282
#
# Static dielectric constant tensor:
#      x y z
#    x 1.599820 0.000000 0.000000 
#    y 0.000000 1.599820 0.000000 
#    z 0.000000 0.000000 1.619900 
# 
# From -- ./inp_files/1455.got.cif
#   From: 2010.05.17/outbox.cif.g08.bks.cpg/sg187_1_cif.got.tgz:1455.got - 2010.05.20 12:09:04.
