data_PCOD9585722
_publ_section_title
;
Structure prediction by ZEFSAII (Michael W. Deem and Ramdas Pophale) SiO2 
 PCOD9585722
Probable space group: P -6 M 2
;
_chemical_formula_sum "Si O2"
_cell_formula_units_Z 72
_cell_length_a 12.642509
_cell_length_b 12.642509
_cell_length_c 31.400989
_cell_angle_alpha 90.000000
_cell_angle_beta 90.000000
_cell_angle_gamma 120.000000
_cell_volume 4346.508181
_symmetry_space_group_name_H-M "P -6 M 2"
_symmetry_group_IT_number 187
_symmetry_cell_setting 'hexagonal'
loop_
_space_group_symop_operation_xyz
x,y,z
-x+y,-x,-z
-y,x-y,z
x,y,-z
-x+y,-x,z
-y,x-y,-z
-y,-x,-z
-x+y,y,-z
x,x-y,-z
-x+y,y,z
x,x-y,z
-y,-x,z
loop_
_atom_site_type_symbol
_atom_site_label
_atom_site_fract_x
_atom_site_fract_y
_atom_site_fract_z
Si Si1 0.918163 0.584391 0.166328
Si Si2 0.918300 0.333809 0.000000
Si Si3 0.584716 0.918402 0.916690
Si Si4 0.082044 0.415742 0.500000
Si Si5 0.333236 0.414982 0.249679
Si Si6 0.666850 0.585185 0.583159
Si Si7 0.748367 0.748434 0.333289
O O1 0.795556 0.591112 0.165411
O O2 0.887826 0.443913 0.165133
O O3 0.002575 0.649290 0.125461
O O4 0.995326 0.643155 0.209100
O O5 0.999234 0.352980 0.041817
O O6 0.795478 0.204523 0.000000
O O7 0.887625 0.443813 0.000000
O O8 0.444301 0.888601 0.916572
O O9 0.590296 0.795148 0.917434
O O10 0.204454 0.408908 0.500000
O O11 0.111977 0.555989 0.500000
O O12 0.001665 0.353818 0.458072
O O13 0.212564 0.425127 0.242998
O O14 0.451578 0.548423 0.254461
O O15 0.312473 0.335486 0.291983
O O16 0.786316 0.572631 0.577378
O O17 0.547095 0.452906 0.588038
O O18 0.687636 0.666101 0.625083
O O19 0.879788 0.759575 0.327329
O O20 0.761759 0.880880 0.338957
#
# Coordination Sequence:
#
# PCOD9585722 Si02
#       7
#    12   6  12   6  12  12  12
#     4  10  20  34  53  76 102 132 166 206 251 299
#     4  10  20  34  54  78 104 134 168 208 252 298
#     4  10  20  34  54  78 104 134 168 209 254 300
#     4  10  20  34  52  74 100 130 164 202 246 296
#     4  10  20  34  53  76 102 132 167 209 255 302
#     4  10  20  34  53  76 102 132 167 208 253 299
#     4  10  20  34  52  74 102 136 172 209 250 299
#
# _framework density 16.565023
#
# number of rings (size 3 to 8) (size 9 to 14) (size 15 to 20)
#    0.000    2.000    0.000    4.000    0.000    0.000 
#    0.000    5.000    0.000   22.000    0.000    0.000 
#    0.000    0.000    0.000    0.000    0.000    0.000 
#
# Total GULP energy -402035.812202 kJ/mol
# GULP energy per Si atom -5583.830725 kJ/mol
# Density = 1.652732 g / cm^3
# Si number density = 16.565023 Si / 1000 Ang^3
#
#
#
# Elastic Constant Matrix: (Units=GPa)
#
#
# Indices 1 2 3 4 5 6 
#
# 1 147.1847 109.0681 104.7722 0.0000 0.0000 0.0000
# 2 109.0681 147.1847 104.7722 0.0000 0.0000 0.0000
# 3 104.7722 104.7722 166.3137 0.0000 0.0000 0.0000
# 4 0.0000 0.0000 0.0000 18.9158 0.0000 0.0000
# 5 0.0000 0.0000 0.0000 0.0000 18.9158 0.0000
# 6 0.0000 0.0000 0.0000 0.0000 0.0000 19.0583
#
#
#
# Elastic Compliance Matrix: (Units=1/GPa)
#
#
# Indices 1 2 3 4 5 6 
#
# 1 0.017142 -0.009093 -0.005070 0.000000 0.000000 0.000000
# 2 -0.009093 0.017142 -0.005070 0.000000 0.000000 0.000000
# 3 -0.005070 -0.005070 0.012401 0.000000 0.000000 0.000000
# 4 0.000000 0.000000 0.000000 0.052866 0.000000 0.000000
# 5 0.000000 0.000000 0.000000 0.000000 0.052866 0.000000
# 6 0.000000 0.000000 0.000000 0.000000 0.000000 0.052471
#
#
# Mechanical properties :
#
#
# Convention : Reuss Voigt Hill
#
# Bulk Modulus (GPa) = 121.70184 121.98980 121.84582
# Shear Modulus (GPa) = 20.31742 20.84933 20.58338
#
# Velocity S-wave (km/s) = 3.50598 3.55157 3.52885
# Velocity P-wave (km/s) = 9.48777 9.51951 9.50366
#
# Compressibility (1/GPa) = 0.00821680
#
# Stress axis : x y z
#
# Youngs Moduli (GPa) = 58.33652 58.33652 80.63877
#
# Poissons Ratio (x) = 0.53048 0.40886
# Poissons Ratio (y) = 0.53048 0.40886
# Poissons Ratio (z) = 0.29578 0.29578
#
# Static dielectric constant tensor:
#      x y z
#    x 1.523160 0.000000 0.000000 
#    y 0.000000 1.523160 0.000000 
#    z 0.000000 0.000000 1.540160 
# 
# From -- ./inp_files/4517.got.cif
#   From: 2010.05.17/outbox.cif.g08.bks.cpg/sg187_3_cif.got.tgz:4517.got - 2010.05.20 12:09:04.
