data_PCOD9585814
_publ_section_title
;
Structure prediction by ZEFSAII (Michael W. Deem and Ramdas Pophale) SiO2 
 PCOD9585814
Probable space group: P -6 M 2
;
_chemical_formula_sum "Si O2"
_cell_formula_units_Z 84
_cell_length_a 17.347490
_cell_length_b 17.347490
_cell_length_c 22.820704
_cell_angle_alpha 90.000000
_cell_angle_beta 90.000000
_cell_angle_gamma 120.000000
_cell_volume 5947.479602
_symmetry_space_group_name_H-M "P -6 M 2"
_symmetry_group_IT_number 187
_symmetry_cell_setting 'hexagonal'
loop_
_space_group_symop_operation_xyz
x,y,z
-x+y,-x,-z
-y,x-y,z
x,y,-z
-x+y,-x,z
-y,x-y,-z
-y,-x,-z
-x+y,y,-z
x,x-y,-z
-x+y,y,z
x,x-y,z
-y,-x,z
loop_
_atom_site_type_symbol
_atom_site_label
_atom_site_fract_x
_atom_site_fract_y
_atom_site_fract_z
Si Si1 0.576041 0.972986 0.862663
Si Si2 0.235618 0.288693 0.933252
Si Si3 0.849306 0.333244 0.567525
Si Si4 0.666347 0.153876 0.792232
Si Si5 0.821495 0.820559 0.181609
Si Si6 0.273543 0.906898 0.754652
Si Si7 0.608282 0.574016 0.322299
O O1 0.479053 0.958106 0.875840
O O2 0.626383 0.954980 0.914795
O O3 0.575081 0.913735 0.807572
O O4 0.636029 0.074399 0.839108
O O5 0.155072 0.310145 0.927523
O O6 0.213689 0.213883 0.884205
O O7 0.236561 0.261251 0.000000
O O8 0.877085 0.334753 0.500000
O O9 0.830093 0.415047 0.574425
O O10 0.759233 0.240767 0.577866
O O11 0.923198 0.349981 0.615467
O O12 0.591662 0.183323 0.794183
O O13 0.763765 0.236236 0.801598
O O14 0.656452 0.108257 0.728816
O O15 0.903806 0.807612 0.196716
O O16 0.735383 0.767453 0.222985
O O17 0.847669 0.923835 0.184042
O O18 0.191609 0.808392 0.746967
O O19 0.334052 0.950734 0.698073
O O20 0.506082 0.493919 0.321854
#
# Coordination Sequence:
#
# PCOD9585814 Si02
#       7
#    12  12  12  12  12  12  12
#     4   9  17  28  43  62  80 101 130 161 195 236
#     4   9  18  31  44  58  77 101 127 156 195 240
#     4   9  16  25  38  59  89 122 149 169 191 223
#     4   9  16  25  38  58  84 111 136 161 189 222
#     4   9  17  28  42  60  81 104 129 158 194 236
#     4   9  17  29  44  60  80 106 131 161 206 250
#     4   9  17  27  40  59  82 108 138 170 201 236
#
# _framework density 14.12363
#
# number of rings (size 3 to 8) (size 9 to 14) (size 15 to 20)
#    0.000    3.000    0.000    3.429    0.000    6.857 
#    0.000    1.429    0.000    6.429    0.000    0.000 
#    0.000    1.143    0.000    0.000    0.000    0.000 
#
# Total GULP energy -467797.869826 kJ/mol
# GULP energy per Si atom -5569.022260 kJ/mol
# Density = 1.409148 g / cm^3
# Si number density = 14.123630 Si / 1000 Ang^3
#
#
#
# Elastic Constant Matrix: (Units=GPa)
#
#
# Indices 1 2 3 4 5 6 
#
# 1 51.2305 29.6952 14.4071 0.0000 0.0001 0.0000
# 2 29.6952 51.2305 14.4071 0.0000 -0.0001 0.0000
# 3 14.4071 14.4071 49.1195 0.0000 0.0000 0.0000
# 4 0.0000 0.0000 0.0000 16.0807 0.0000 -0.0001
# 5 0.0001 -0.0001 0.0000 0.0000 16.0807 0.0000
# 6 0.0000 0.0000 0.0000 -0.0001 0.0000 10.7677
#
#
#
# Elastic Compliance Matrix: (Units=1/GPa)
#
#
# Indices 1 2 3 4 5 6 
#
# 1 0.030117 -0.016319 -0.004047 0.000000 0.000000 0.000000
# 2 -0.016319 0.030117 -0.004047 0.000000 0.000000 0.000000
# 3 -0.004047 -0.004047 0.022733 0.000000 0.000000 0.000000
# 4 0.000000 0.000000 0.000000 0.062186 0.000000 0.000000
# 5 0.000000 0.000000 0.000000 0.000000 0.062186 0.000000
# 6 0.000000 0.000000 0.000000 0.000000 0.000000 0.092870
#
#
# Mechanical properties :
#
#
# Convention : Reuss Voigt Hill
#
# Bulk Modulus (GPa) = 29.29086 29.84439 29.56762
# Shear Modulus (GPa) = 13.87291 14.79056 14.33173
#
# Velocity S-wave (km/s) = 3.13748 3.23959 3.18895
# Velocity P-wave (km/s) = 5.82314 5.93043 5.87703
#
# Compressibility (1/GPa) = 0.03414034
#
# Stress axis : x y z
#
# Youngs Moduli (GPa) = 33.20425 33.20425 43.98969
#
# Poissons Ratio (x) = 0.54185 0.17803
# Poissons Ratio (y) = 0.54185 0.17803
# Poissons Ratio (z) = 0.13438 0.13438
#
# Static dielectric constant tensor:
#      x y z
#    x 1.462340 0.000000 0.000000 
#    y 0.000000 1.462340 0.000000 
#    z 0.000000 0.000000 1.462980 
# 
# From -- ./inp_files/3640.got.cif
#   From: 2010.05.17/outbox.cif.g08.bks.cpg/sg187_2_cif.got.tgz:3640.got - 2010.05.20 12:09:04.
