data_PCOD9585628
_publ_section_title
;
Structure prediction by ZEFSAII (Michael W. Deem and Ramdas Pophale) SiO2 
 PCOD9585628
Probable space group: P -6 M 2
;
_chemical_formula_sum "Si O2"
_cell_formula_units_Z 78
_cell_length_a 25.208534
_cell_length_b 25.208534
_cell_length_c 8.525415
_cell_angle_alpha 90.000000
_cell_angle_beta 90.000000
_cell_angle_gamma 120.000000
_cell_volume 4691.819982
_symmetry_space_group_name_H-M "P -6 M 2"
_symmetry_group_IT_number 187
_symmetry_cell_setting 'hexagonal'
loop_
_space_group_symop_operation_xyz
x,y,z
-x+y,-x,-z
-y,x-y,z
x,y,-z
-x+y,-x,z
-y,x-y,-z
-y,-x,-z
-x+y,y,-z
x,x-y,-z
-x+y,y,z
x,x-y,z
-y,-x,z
loop_
_atom_site_type_symbol
_atom_site_label
_atom_site_fract_x
_atom_site_fract_y
_atom_site_fract_z
Si Si1 0.000173 0.876725 0.500000
Si Si2 0.690335 0.903124 0.684457
Si Si3 0.332643 0.789009 0.689220
Si Si4 0.812479 0.997609 0.174524
Si Si5 0.521225 0.600024 0.813681
Si Si6 0.998475 0.351399 0.683647
Si Si7 0.326287 0.103199 0.182199
O O1 0.937422 0.874844 0.500000
O O2 0.002337 0.847707 0.334027
O O3 0.056070 0.943931 0.500000
O O4 0.711182 0.914829 0.500000
O O5 0.660049 0.830025 0.705385
O O6 0.746871 0.936810 0.802789
O O7 0.656086 0.941454 0.707064
O O8 0.331741 0.788514 0.500000
O O9 0.390466 0.780932 0.738949
O O10 0.268256 0.731745 0.743623
O O11 0.347924 0.856217 0.743695
O O12 0.804032 0.056970 0.184364
O O13 0.837707 0.997888 0.000000
O O14 0.464102 0.535899 0.758149
O O15 0.584839 0.604424 0.768317
O O16 0.518432 0.603742 0.000000
O O17 0.992166 0.358020 0.500000
O O18 0.937467 0.289884 0.739491
O O19 0.339063 0.169532 0.245317
O O20 0.345225 0.112272 0.000000
#
# Coordination Sequence:
#
# PCOD9585628 Si02
#       7
#     6  12  12  12  12  12  12
#     4  12  25  38  50  64  86 116 153 198 244 290
#     4   9  17  31  49  71  98 125 154 193 244 298
#     4   9  17  30  49  71  94 122 162 214 270 322
#     4  10  20  35  54  74  93 120 157 193 238 299
#     4  10  21  36  51  67  93 133 175 211 249 297
#     4  10  20  32  49  74 100 128 162 203 247 292
#     4   9  18  33  53  77 103 128 154 188 235 291
#
# _framework density 16.624679
#
# number of rings (size 3 to 8) (size 9 to 14) (size 15 to 20)
#    0.000    2.308    0.769    2.077    1.077    5.538 
#    0.000    1.538    0.000    1.846    0.000    0.000 
#    0.000    0.000    0.000    0.462    0.000    8.923 
#
# Total GULP energy -434244.004288 kJ/mol
# GULP energy per Si atom -5567.230824 kJ/mol
# Density = 1.658684 g / cm^3
# Si number density = 16.624679 Si / 1000 Ang^3
#
#
#
# Elastic Constant Matrix: (Units=GPa)
#
#
# Indices 1 2 3 4 5 6 
#
# 1 62.1006 41.5003 25.0369 0.0000 -0.0002 0.0000
# 2 41.5003 62.1006 25.0369 0.0000 0.0002 0.0000
# 3 25.0369 25.0369 68.1293 0.0000 0.0000 0.0000
# 4 0.0000 0.0000 0.0000 17.3122 0.0000 0.0002
# 5 -0.0002 0.0002 0.0000 0.0000 17.3122 0.0000
# 6 0.0000 0.0000 0.0000 0.0002 0.0000 10.3001
#
#
#
# Elastic Compliance Matrix: (Units=1/GPa)
#
#
# Indices 1 2 3 4 5 6 
#
# 1 0.030140 -0.018403 -0.004313 0.000000 0.000001 0.000000
# 2 -0.018403 0.030140 -0.004313 0.000000 -0.000001 0.000000
# 3 -0.004313 -0.004313 0.017848 0.000000 0.000000 0.000000
# 4 0.000000 0.000000 0.000000 0.057763 0.000000 -0.000001
# 5 0.000001 -0.000001 0.000000 0.000000 0.057763 0.000000
# 6 0.000000 0.000000 0.000000 -0.000001 0.000000 0.097086
#
#
# Mechanical properties :
#
#
# Convention : Reuss Voigt Hill
#
# Bulk Modulus (GPa) = 41.54666 41.71985 41.63326
# Shear Modulus (GPa) = 14.17143 15.70198 14.93671
#
# Velocity S-wave (km/s) = 2.92281 3.07660 3.00069
# Velocity P-wave (km/s) = 6.03620 6.14575 6.09122
#
# Compressibility (1/GPa) = 0.02406932
#
# Stress axis : x y z
#
# Youngs Moduli (GPa) = 33.17835 33.17835 56.02814
#
# Poissons Ratio (x) = 0.61058 0.24167
# Poissons Ratio (y) = 0.61058 0.24167
# Poissons Ratio (z) = 0.14311 0.14311
#
# Static dielectric constant tensor:
#      x y z
#    x 1.574390 0.000000 0.000000 
#    y 0.000000 1.574390 0.000000 
#    z 0.000000 0.000000 1.599530 
# 
# From -- ./inp_files/1170.got.cif
#   From: 2010.05.17/outbox.cif.g08.bks.cpg/sg187_1_cif.got.tgz:1170.got - 2010.05.20 12:09:04.
