data_PCOD9585091
_publ_section_title
;
Structure prediction by ZEFSAII (Michael W. Deem and Ramdas Pophale) SiO2 
 PCOD9585091
Probable space group: P 6 M M
;
_chemical_formula_sum "Si O2"
_cell_formula_units_Z 96
_cell_length_a 18.000000
_cell_length_b 18.000000
_cell_length_c 21.000000
_cell_angle_alpha 90.000000
_cell_angle_beta 90.000000
_cell_angle_gamma 120.000000
_cell_volume 5892.436847
_symmetry_space_group_name_H-M "P 6 M M"
_symmetry_group_IT_number 183
_symmetry_cell_setting 'hexagonal'
loop_
_space_group_symop_operation_xyz
x,y,z
x-y,x,z
-y,x-y,z
-x,-y,z
-x+y,-x,z
y,-x+y,z
-x+y,y,z
x,x-y,z
-y,-x,z
y,x,z
x-y,-y,z
-x,-x+y,z
loop_
_atom_site_type_symbol
_atom_site_label
_atom_site_fract_x
_atom_site_fract_y
_atom_site_fract_z
Si Si1 0.903269 0.267012 0.987430
Si Si2 0.366878 0.268935 0.609093
Si Si3 0.332969 0.841349 0.492333
Si Si4 0.731067 0.097944 0.134278
Si Si5 0.730045 0.097363 0.371686
Si Si6 0.491405 0.158032 0.871686
Si Si7 0.636258 0.903269 0.755942
Si Si8 0.508380 0.667032 0.251039
O O1 0.831745 0.168256 0.977892
O O2 0.884706 0.319752 0.934654
O O3 0.000000 0.287783 0.979914
O O4 0.893904 0.289844 0.060484
O O5 0.338875 0.169438 0.599153
O O6 0.292994 0.292994 0.599551
O O7 0.441605 0.321654 0.558394
O O8 0.395939 0.289844 0.682888
O O9 0.425584 0.851168 0.486190
O O10 0.258453 0.741548 0.490866
O O11 0.312081 0.885785 0.433912
O O12 0.830566 0.169435 0.144217
O O13 0.678351 0.119954 0.184979
O O14 0.707006 0.000000 0.143821
O O15 0.829928 0.170073 0.371687
O O16 0.687921 0.114218 0.309461
O O17 0.708675 0.000000 0.371685
O O18 0.575688 0.151376 0.871685
O O19 0.513093 0.256547 0.871686
O O20 0.435045 0.115295 0.808718
O O21 0.663490 0.831745 0.765480
O O22 0.712217 0.000000 0.763458
O O23 0.483089 0.741545 0.252506
O O24 0.425586 0.574415 0.257180
#
# Coordination Sequence:
#
# PCOD9585091 Si02
#       8
#    12  12  12  12  12  12  12  12
#     4   9  18  32  49  69  93 121 153 189 231 277
#     4   9  18  32  49  69  93 122 155 191 232 276
#     4  10  20  33  49  70  97 128 160 193 230 272
#     4   9  18  32  49  69  93 122 155 191 232 276
#     4  10  21  35  51  72  97 125 156 192 235 279
#     4  10  20  33  48  67  92 122 155 190 228 269
#     4   9  18  32  49  69  93 121 153 189 231 277
#     4  10  20  33  49  70  97 128 160 193 230 272
#
# _framework density 16.292071
#
# number of rings (size 3 to 8) (size 9 to 14) (size 15 to 20)
#    0.000    2.500    0.000    1.875    0.000    4.500 
#    0.000    3.750    0.000    3.625    0.000    3.500 
#    0.000    9.000    0.000    0.500    0.000    0.500 
#
# Total GULP energy -535103.854651 kJ/mol
# GULP energy per Si atom -5573.998486 kJ/mol
# Density = 1.625499 g / cm^3
# Si number density = 16.292071 Si / 1000 Ang^3
#
#
#
# Elastic Constant Matrix: (Units=GPa)
#
#
# Indices 1 2 3 4 5 6 
#
# 1 89.3047 87.1682 57.4598 0.0000 0.0000 0.0000
# 2 87.1682 89.3047 57.4598 0.0000 0.0000 0.0000
# 3 57.4598 57.4598 95.5789 0.0000 0.0000 0.0000
# 4 0.0000 0.0000 0.0000 18.1645 0.0000 0.0000
# 5 0.0000 0.0000 0.0000 0.0000 18.1645 0.0000
# 6 0.0000 0.0000 0.0000 0.0000 0.0000 1.0683
#
#
#
# Elastic Compliance Matrix: (Units=1/GPa)
#
#
# Indices 1 2 3 4 5 6 
#
# 1 0.238679 -0.229367 -0.005598 0.000000 0.000000 0.000000
# 2 -0.229367 0.238679 -0.005598 0.000000 0.000000 0.000000
# 3 -0.005598 -0.005598 0.017194 0.000000 0.000000 0.000000
# 4 0.000000 0.000000 0.000000 0.055052 0.000000 0.000000
# 5 0.000000 0.000000 0.000000 0.000000 0.055052 0.000000
# 6 0.000000 0.000000 0.000000 0.000000 0.000000 0.936093
#
#
# Mechanical properties :
#
#
# Convention : Reuss Voigt Hill
#
# Bulk Modulus (GPa) = 74.48813 75.37378 74.93096
# Shear Modulus (GPa) = 2.46749 12.28616 7.37682
#
# Velocity S-wave (km/s) = 1.23200 2.74910 2.13019
# Velocity P-wave (km/s) = 6.91690 7.51274 7.22097
#
# Compressibility (1/GPa) = 0.01342496
#
# Stress axis : x y z
#
# Youngs Moduli (GPa) = 4.18972 4.18972 58.16088
#
# Poissons Ratio (x) = 0.96098 0.32560
# Poissons Ratio (y) = 0.96098 0.32560
# Poissons Ratio (z) = 0.02346 0.02346
#
# Static dielectric constant tensor:
#      x y z
#    x 1.527850 0.000000 0.000000 
#    y 0.000000 1.527850 0.000000 
#    z 0.000000 0.000000 1.560300 
# 
# From -- ./inp_files/3097.got.cif
#   From: 2010.05.17/outbox.ucp.g08.bks.cvg/sg183_2_cif.got.tgz:3097.got - 2010.06.11 15:21:10.
