data_PCOD9585278
_publ_section_title
;
Structure prediction by ZEFSAII (Michael W. Deem and Ramdas Pophale) SiO2 
 PCOD9585278
Probable space group: P 63 C M
;
_chemical_formula_sum "Si O2"
_cell_formula_units_Z 60
_cell_length_a 14.660806
_cell_length_b 14.660806
_cell_length_c 15.535489
_cell_angle_alpha 90.000000
_cell_angle_beta 90.000000
_cell_angle_gamma 120.000000
_cell_volume 2891.819976
_symmetry_space_group_name_H-M "P 63 C M"
_symmetry_group_IT_number 185
_symmetry_cell_setting 'hexagonal'
loop_
_space_group_symop_operation_xyz
x,y,z
x-y,x,1/2+z
-y,x-y,z
-x,-y,1/2+z
-x+y,-x,z
y,-x+y,1/2+z
-x+y,y,1/2+z
x,x-y,1/2+z
-y,-x,1/2+z
y,x,z
x-y,-y,z
-x,-x+y,z
loop_
_atom_site_type_symbol
_atom_site_label
_atom_site_fract_x
_atom_site_fract_y
_atom_site_fract_z
Si Si1 0.764595 0.645329 0.867660
Si Si2 0.876177 0.125398 0.692245
Si Si3 0.188648 0.420151 0.542593
Si Si4 0.429406 0.551007 0.603775
Si Si5 0.358609 0.563961 0.291874
O O1 0.730126 0.730126 0.889618
O O2 0.833657 0.684995 0.781083
O O3 0.658332 0.534878 0.845553
O O4 0.818218 0.628749 0.949908
O O5 0.857033 0.186805 0.614895
O O6 0.000000 0.162752 0.694155
O O7 0.804677 0.000000 0.683131
O O8 0.311225 0.497568 0.568688
O O9 0.132457 0.489529 0.541970
O O10 0.463926 0.463926 0.616330
O O11 0.445270 0.613921 0.693415
O O12 0.439608 0.686579 0.309119
#
# Coordination Sequence:
#
# PCOD9585278 Si02
#       5
#    12  12  12  12  12
#     4  11  24  42  65  96 137 174 217 275 338 404
#     4  11  24  46  72  98 130 173 227 287 347 408
#     4  12  25  43  65  99 138 173 221 276 332 401
#     4  12  22  39  66  93 129 176 216 262 326 392
#     4  10  20  38  62  92 125 170 213 268 319 377
#
# _framework density 20.748179
#
# number of rings (size 3 to 8) (size 9 to 14) (size 15 to 20)
#    0.400    0.400    4.000    3.600    2.800    1.600 
#    0.000    1.000    0.000    2.400    0.000    0.000 
#    0.000    0.000    0.000    0.000    0.000    0.000 
#
# Total GULP energy -335049.261389 kJ/mol
# GULP energy per Si atom -5584.154356 kJ/mol
# Density = 2.070096 g / cm^3
# Si number density = 20.748179 Si / 1000 Ang^3
#
#
#
# Elastic Constant Matrix: (Units=GPa)
#
#
# Indices 1 2 3 4 5 6 
#
# 1 69.4665 14.3028 2.3989 0.0000 0.0000 0.0000
# 2 14.3028 69.4665 2.3989 0.0000 0.0000 0.0000
# 3 2.3989 2.3989 89.4895 0.0000 0.0000 0.0000
# 4 0.0000 0.0000 0.0000 13.3620 0.0000 0.0000
# 5 0.0000 0.0000 0.0000 0.0000 13.3620 0.0000
# 6 0.0000 0.0000 0.0000 0.0000 0.0000 27.5819
#
#
#
# Elastic Compliance Matrix: (Units=1/GPa)
#
#
# Indices 1 2 3 4 5 6 
#
# 1 0.015042 -0.003086 -0.000320 0.000000 0.000000 0.000000
# 2 -0.003086 0.015042 -0.000320 0.000000 0.000000 0.000000
# 3 -0.000320 -0.000320 0.011192 0.000000 0.000000 0.000000
# 4 0.000000 0.000000 0.000000 0.074839 0.000000 0.000000
# 5 0.000000 0.000000 0.000000 0.000000 0.074839 0.000000
# 6 0.000000 0.000000 0.000000 0.000000 0.000000 0.036256
#
#
# Mechanical properties :
#
#
# Convention : Reuss Voigt Hill
#
# Bulk Modulus (GPa) = 29.56699 29.62485 29.59592
# Shear Modulus (GPa) = 20.33038 24.81596 22.57317
#
# Velocity S-wave (km/s) = 3.13367 3.46215 3.30200
# Velocity P-wave (km/s) = 5.23207 5.50375 5.36963
#
# Compressibility (1/GPa) = 0.03382151
#
# Stress axis : x y z
#
# Youngs Moduli (GPa) = 66.48105 66.48105 89.35213
#
# Poissons Ratio (x) = 0.20516 0.02864
# Poissons Ratio (y) = 0.20516 0.02864
# Poissons Ratio (z) = 0.02131 0.02131
#
# Static dielectric constant tensor:
#      x y z
#    x 1.744800 0.000000 0.000000 
#    y 0.000000 1.744800 0.000000 
#    z 0.000000 0.000000 1.734470 
# 
# From -- ./inp_files/1349.got.cif
#   From: 2010.05.17/outbox.cif.g08.bks.cpg/sg185_cif.got.tgz:1349.got - 2010.05.20 12:05:34.
