data_PCOD9585250
_publ_section_title
;
Structure prediction by ZEFSAII (Michael W. Deem and Ramdas Pophale) SiO2 
 PCOD9585250
Probable space group: P 63 C M
;
_chemical_formula_sum "Si O2"
_cell_formula_units_Z 96
_cell_length_a 13.803526
_cell_length_b 13.803526
_cell_length_c 26.546138
_cell_angle_alpha 90.000000
_cell_angle_beta 90.000000
_cell_angle_gamma 120.000000
_cell_volume 4380.382696
_symmetry_space_group_name_H-M "P 63 C M"
_symmetry_group_IT_number 185
_symmetry_cell_setting 'hexagonal'
loop_
_space_group_symop_operation_xyz
x,y,z
x-y,x,1/2+z
-y,x-y,z
-x,-y,1/2+z
-x+y,-x,z
y,-x+y,1/2+z
-x+y,y,1/2+z
x,x-y,1/2+z
-y,-x,1/2+z
y,x,z
x-y,-y,z
-x,-x+y,z
loop_
_atom_site_type_symbol
_atom_site_label
_atom_site_fract_x
_atom_site_fract_y
_atom_site_fract_z
Si Si1 0.863687 0.347104 0.787040
Si Si2 0.868720 0.503020 0.175497
Si Si3 0.578222 0.128127 0.995710
Si Si4 0.872241 0.735190 0.815815
Si Si5 0.424073 0.873230 0.889645
Si Si6 0.789871 0.203773 0.530237
Si Si7 0.801689 0.674425 0.924097
Si Si8 0.422099 0.295867 0.636198
O O1 0.836713 0.377405 0.732886
O O2 0.833582 0.217543 0.790951
O O3 0.821013 0.388683 0.834540
O O4 0.000000 0.415070 0.792416
O O5 0.852679 0.401787 0.139523
O O6 0.800158 0.564779 0.163012
O O7 0.000000 0.591408 0.175181
O O8 0.628288 0.168911 0.939149
O O9 0.480267 0.000000 0.990136
O O10 0.523620 0.198041 0.014356
O O11 0.665055 0.128892 0.035324
O O12 0.814545 0.814545 0.813112
O O13 0.876075 0.702975 0.874445
O O14 0.000000 0.799541 0.796315
O O15 0.313188 0.874846 0.908643
O O16 0.523443 0.000000 0.882745
O O17 0.833562 0.170609 0.480896
O O18 0.754938 0.132830 0.580608
O O19 0.771364 0.771364 0.926922
O O20 0.344148 0.344148 0.656442
#
# Coordination Sequence:
#
# PCOD9585250 Si02
#       8
#    12  12  12  12  12  12  12  12
#     4   8  15  31  54  75 104 149 186 224 289 351
#     4  10  22  41  62  86 118 155 201 259 314 365
#     4  10  20  33  52  80 110 139 176 221 272 339
#     4   9  16  27  47  76 107 141 183 229 279 342
#     4   7  12  27  49  71  98 133 170 207 256 327
#     4  11  20  33  52  75 105 140 179 230 290 345
#     4   8  15  28  45  65  95 135 171 206 258 325
#     4  11  23  38  60  88 116 154 204 256 314 372
#
# _framework density 21.915894000000002
#
# number of rings (size 3 to 8) (size 9 to 14) (size 15 to 20)
#    0.000    2.750    0.000    4.750    0.000    2.500 
#    0.000    3.750    0.000    1.750    0.000    0.000 
#    0.000    0.000    0.000    0.000    0.000    0.000 
#
# Total GULP energy -534721.045934 kJ/mol
# GULP energy per Si atom -5570.010895 kJ/mol
# Density = 2.186601 g / cm^3
# Si number density = 21.915894 Si / 1000 Ang^3
#
#
#
# Elastic Constant Matrix: (Units=GPa)
#
#
# Indices 1 2 3 4 5 6 
#
# 1 62.0616 19.8540 6.6997 0.0000 0.0000 0.0000
# 2 19.8540 62.0616 6.6997 0.0000 0.0000 0.0000
# 3 6.6997 6.6997 69.7659 0.0000 0.0000 0.0000
# 4 0.0000 0.0000 0.0000 18.8907 0.0000 0.0000
# 5 0.0000 0.0000 0.0000 0.0000 18.8907 0.0000
# 6 0.0000 0.0000 0.0000 0.0000 0.0000 21.1038
#
#
#
# Elastic Compliance Matrix: (Units=1/GPa)
#
#
# Indices 1 2 3 4 5 6 
#
# 1 0.018047 -0.005645 -0.001191 0.000000 0.000000 0.000000
# 2 -0.005645 0.018047 -0.001191 0.000000 0.000000 0.000000
# 3 -0.001191 -0.001191 0.014562 0.000000 0.000000 0.000000
# 4 0.000000 0.000000 0.000000 0.052936 0.000000 0.000000
# 5 0.000000 0.000000 0.000000 0.000000 0.052936 0.000000
# 6 0.000000 0.000000 0.000000 0.000000 0.000000 0.047385
#
#
# Mechanical properties :
#
#
# Convention : Reuss Voigt Hill
#
# Bulk Modulus (GPa) = 28.89899 28.93290 28.91594
# Shear Modulus (GPa) = 21.59801 22.48608 22.04205
#
# Velocity S-wave (km/s) = 3.14267 3.20663 3.17481
# Velocity P-wave (km/s) = 5.13648 5.19041 5.16352
#
# Compressibility (1/GPa) = 0.03460329
#
# Stress axis : x y z
#
# Youngs Moduli (GPa) = 55.40943 55.40943 68.66999
#
# Poissons Ratio (x) = 0.31278 0.08179
# Poissons Ratio (y) = 0.31278 0.08179
# Poissons Ratio (z) = 0.06599 0.06599
#
# Static dielectric constant tensor:
#      x y z
#    x 1.814120 0.000000 0.000000 
#    y 0.000000 1.814120 0.000000 
#    z 0.000000 0.000000 1.882950 
# 
# From -- ./inp_files/2231.got.cif
#   From: 2010.05.17/outbox.cif.g08.bks.cpg/sg185_cif.got.tgz:2231.got - 2010.05.20 12:05:34.
