data_PCOD9585901
_publ_section_title
;
Structure prediction by ZEFSAII (Michael W. Deem and Ramdas Pophale) SiO2 
 PCOD9585901
Probable space group: P -6 C 2
;
_chemical_formula_sum "Si O2"
_cell_formula_units_Z 72
_cell_length_a 14.556505
_cell_length_b 14.556505
_cell_length_c 17.944335
_cell_angle_alpha 90.000000
_cell_angle_beta 90.000000
_cell_angle_gamma 120.000000
_cell_volume 3292.852125
_symmetry_space_group_name_H-M "P -6 C 2"
_symmetry_group_IT_number 188
_symmetry_cell_setting 'hexagonal'
loop_
_space_group_symop_operation_xyz
x,y,z
-x+y,-x,1/2-z
-y,x-y,z
x,y,1/2-z
-x+y,-x,z
-y,x-y,1/2-z
-y,-x,-z
-x+y,y,-z
x,x-y,-z
-x+y,y,1/2+z
x,x-y,1/2+z
-y,-x,1/2+z
loop_
_atom_site_type_symbol
_atom_site_label
_atom_site_fract_x
_atom_site_fract_y
_atom_site_fract_z
Si Si1 0.474203 0.104982 0.659955
Si Si2 0.702295 0.143946 0.660133
Si Si3 0.071755 0.317663 0.661571
Si Si4 0.998350 0.196107 0.970174
Si Si5 0.071276 0.363596 0.410782
Si Si6 0.363214 0.563184 0.834415
O O1 0.481269 0.112397 0.750000
O O2 0.589276 0.129201 0.633810
O O3 0.451862 0.197901 0.633649
O O4 0.372559 0.989350 0.645387
O O5 0.703649 0.146401 0.750000
O O6 0.699974 0.038456 0.633199
O O7 0.075918 0.310107 0.750000
O O8 0.184773 0.347085 0.626855
O O9 0.998613 0.207244 0.618201
O O10 0.045555 0.312875 0.007571
O O11 0.883431 0.116570 0.000000
O O12 0.079840 0.159680 0.000000
O O13 0.119670 0.488728 0.396575
O O14 0.440412 0.689628 0.839152
O O15 0.372911 0.529059 0.750000
#
# Coordination Sequence:
#
# PCOD9585901 Si02
#       6
#    12  12  12  12  12  12
#     4   9  19  33  55  84 121 164 206 259 309 364
#     4  10  19  33  55  86 122 165 214 256 307 374
#     4  10  21  38  61  89 121 158 208 264 321 383
#     4  10  22  41  63  86 123 163 207 259 328 384
#     4  11  21  34  60  91 118 163 214 257 315 392
#     4   8  17  31  53  87 130 169 205 253 316 388
#
# _framework density 21.865542000000001
#
# number of rings (size 3 to 8) (size 9 to 14) (size 15 to 20)
#    0.333    2.000    0.000    3.000    2.333    1.333 
#    0.000    5.000    3.667    0.667    0.000    4.667 
#    0.000    0.000    0.000    0.000    0.000    0.000 
#
# Total GULP energy -401413.005243 kJ/mol
# GULP energy per Si atom -5575.180628 kJ/mol
# Density = 2.181578 g / cm^3
# Si number density = 21.865542 Si / 1000 Ang^3
#
#
#
# Elastic Constant Matrix: (Units=GPa)
#
#
# Indices 1 2 3 4 5 6 
#
# 1 92.3345 40.7668 22.3604 -0.0002 0.0000 0.0000
# 2 40.7668 92.3345 22.3604 0.0002 0.0000 0.0000
# 3 22.3604 22.3604 61.7488 0.0000 0.0000 0.0000
# 4 -0.0002 0.0002 0.0000 15.2469 0.0000 0.0000
# 5 0.0000 0.0000 0.0000 0.0000 15.2469 -0.0002
# 6 0.0000 0.0000 0.0000 0.0000 -0.0002 25.7839
#
#
#
# Elastic Compliance Matrix: (Units=1/GPa)
#
#
# Indices 1 2 3 4 5 6 
#
# 1 0.013973 -0.005419 -0.003097 0.000000 0.000000 0.000000
# 2 -0.005419 0.013973 -0.003097 0.000000 0.000000 0.000000
# 3 -0.003097 -0.003097 0.018438 0.000000 0.000000 0.000000
# 4 0.000000 0.000000 0.000000 0.065587 0.000000 0.000000
# 5 0.000000 0.000000 0.000000 0.000000 0.065587 0.000001
# 6 0.000000 0.000000 0.000000 0.000000 0.000001 0.038784
#
#
# Mechanical properties :
#
#
# Convention : Reuss Voigt Hill
#
# Bulk Modulus (GPa) = 43.18610 46.37701 44.78155
# Shear Modulus (GPa) = 20.21932 21.98423 21.10177
#
# Velocity S-wave (km/s) = 3.04421 3.17429 3.10993
# Velocity P-wave (km/s) = 5.67009 5.88990 5.78104
#
# Compressibility (1/GPa) = 0.02315560
#
# Stress axis : x y z
#
# Youngs Moduli (GPa) = 71.56715 71.56715 54.23586
#
# Poissons Ratio (x) = 0.38783 0.16800
# Poissons Ratio (y) = 0.38783 0.16800
# Poissons Ratio (z) = 0.22168 0.22168
#
# Static dielectric constant tensor:
#      x y z
#    x 1.860520 0.000000 0.000000 
#    y 0.000000 1.860520 0.000000 
#    z 0.000000 0.000000 1.777520 
# 
# From -- ./inp_files/3175.got.cif
#   From: 2010.05.17/outbox.cif.g08.bks.cpg/sg188_2_cif.got.tgz:3175.got - 2010.05.20 12:11:46.
