data_PCOD9585647
_publ_section_title
;
Structure prediction by ZEFSAII (Michael W. Deem and Ramdas Pophale) SiO2 
 PCOD9585647
Probable space group: P -6 M 2
;
_chemical_formula_sum "Si O2"
_cell_formula_units_Z 60
_cell_length_a 12.857591
_cell_length_b 12.857591
_cell_length_c 26.715742
_cell_angle_alpha 90.000000
_cell_angle_beta 90.000000
_cell_angle_gamma 120.000000
_cell_volume 3824.873584
_symmetry_space_group_name_H-M "P -6 M 2"
_symmetry_group_IT_number 187
_symmetry_cell_setting 'hexagonal'
loop_
_space_group_symop_operation_xyz
x,y,z
-x+y,-x,-z
-y,x-y,z
x,y,-z
-x+y,-x,z
-y,x-y,-z
-y,-x,-z
-x+y,y,-z
x,x-y,-z
-x+y,y,z
x,x-y,z
-y,-x,z
loop_
_atom_site_type_symbol
_atom_site_label
_atom_site_fract_x
_atom_site_fract_y
_atom_site_fract_z
Si Si1 0.420039 0.086883 0.851659
Si Si2 0.417918 0.084922 0.553733
Si Si3 0.333374 0.419497 0.242652
Si Si4 0.333195 0.911978 0.058061
Si Si5 0.915810 0.333038 0.336118
O O1 0.557558 0.115116 0.851351
O O2 0.414767 0.207384 0.846763
O O3 0.355152 0.997076 0.805579
O O4 0.360710 0.016643 0.902989
O O5 0.357061 0.029162 0.500000
O O6 0.545946 0.091891 0.552839
O O7 0.437217 0.218609 0.554369
O O8 0.364845 0.033313 0.608345
O O9 0.207440 0.414880 0.240459
O O10 0.443141 0.556860 0.243404
O O11 0.347246 0.356157 0.292188
O O12 0.441539 0.883077 0.064080
O O13 0.207104 0.792897 0.068306
O O14 0.334428 0.946637 0.000000
O O15 0.892148 0.446074 0.334746
O O16 0.790796 0.209205 0.329045
#
# Coordination Sequence:
#
# PCOD9585647 Si02
#       5
#    12  12  12  12  12
#     4  10  20  33  50  72  97 123 149 181 225 276
#     4   8  12  18  31  55  87 118 144 171 208 257
#     4  10  20  33  49  67  87 114 149 189 229 267
#     4   9  17  30  50  75 100 126 157 193 228 258
#     4   9  16  26  43  67  93 119 145 177 220 269
#
# _framework density 15.686794000000001
#
# number of rings (size 3 to 8) (size 9 to 14) (size 15 to 20)
#    0.000    2.800    0.000    2.200    0.000    3.600 
#    0.000    4.000    0.000    9.000    0.000    0.000 
#    0.000    1.600    0.000    0.000    0.000    0.000 
#
# Total GULP energy -334002.860345 kJ/mol
# GULP energy per Si atom -5566.714339 kJ/mol
# Density = 1.565109 g / cm^3
# Si number density = 15.686794 Si / 1000 Ang^3
#
#
#
# Elastic Constant Matrix: (Units=GPa)
#
#
# Indices 1 2 3 4 5 6 
#
# 1 79.6331 51.9326 68.2017 0.0000 0.0001 0.0000
# 2 51.9326 79.6331 68.2017 0.0000 -0.0001 0.0000
# 3 68.2017 68.2017 136.9296 0.0000 0.0000 0.0000
# 4 0.0000 0.0000 0.0000 14.7101 0.0000 -0.0001
# 5 0.0001 -0.0001 0.0000 0.0000 14.7101 0.0000
# 6 0.0000 0.0000 0.0000 -0.0001 0.0000 13.8503
#
#
#
# Elastic Compliance Matrix: (Units=1/GPa)
#
#
# Indices 1 2 3 4 5 6 
#
# 1 0.025909 -0.010192 -0.007828 0.000000 0.000000 0.000000
# 2 -0.010192 0.025909 -0.007828 0.000000 0.000000 0.000000
# 3 -0.007828 -0.007828 0.015101 0.000000 0.000000 0.000000
# 4 0.000000 0.000000 0.000000 0.067980 0.000000 0.000001
# 5 0.000000 0.000000 0.000000 0.000000 0.067980 0.000000
# 6 0.000000 0.000000 0.000000 0.000001 0.000000 0.072201
#
#
# Mechanical properties :
#
#
# Convention : Reuss Voigt Hill
#
# Bulk Modulus (GPa) = 65.69461 74.76309 70.22885
# Shear Modulus (GPa) = 15.06703 15.84476 15.45589
#
# Velocity S-wave (km/s) = 3.10254 3.18161 3.14232
# Velocity P-wave (km/s) = 7.40299 7.82689 7.61789
#
# Compressibility (1/GPa) = 0.01522195
#
# Stress axis : x y z
#
# Youngs Moduli (GPa) = 38.59719 38.59719 66.22006
#
# Poissons Ratio (x) = 0.39337 0.51839
# Poissons Ratio (y) = 0.39337 0.51839
# Poissons Ratio (z) = 0.30215 0.30215
#
# Static dielectric constant tensor:
#      x y z
#    x 1.487050 0.000000 0.000000 
#    y 0.000000 1.487050 0.000000 
#    z 0.000000 0.000000 1.579580 
# 
# From -- ./inp_files/4142.got.cif
#   From: 2010.05.17/outbox.cif.g08.bks.cpg/sg187_3_cif.got.tgz:4142.got - 2010.05.20 12:09:04.
