data_PCOD9585142
_publ_section_title
;
Structure prediction by ZEFSAII (Michael W. Deem and Ramdas Pophale) SiO2 
 PCOD9585142
Probable space group: P 6 C C
;
_chemical_formula_sum "Si O2"
_cell_formula_units_Z 90
_cell_length_a 24.898714
_cell_length_b 24.898714
_cell_length_c 8.461148
_cell_angle_alpha 90.000000
_cell_angle_beta 90.000000
_cell_angle_gamma 120.000000
_cell_volume 4542.696860
_symmetry_space_group_name_H-M "P 6 C C"
_symmetry_group_IT_number 184
_symmetry_cell_setting 'hexagonal'
loop_
_space_group_symop_operation_xyz
x,y,z
x-y,x,z
-y,x-y,z
-x,-y,z
-x+y,-x,z
y,-x+y,z
-x+y,y,1/2+z
x,x-y,1/2+z
-y,-x,1/2+z
y,x,1/2+z
x-y,-y,1/2+z
-x,-x+y,1/2+z
loop_
_atom_site_type_symbol
_atom_site_label
_atom_site_fract_x
_atom_site_fract_y
_atom_site_fract_z
Si Si1 0.916486 0.741524 0.821390
Si Si2 0.244361 0.193766 0.454419
Si Si3 0.763325 0.302722 0.349676
Si Si4 0.384454 0.269449 0.402944
Si Si5 0.765042 0.599844 0.263130
Si Si6 0.500000 0.500000 0.153447
Si Si7 0.787450 0.362715 0.007448
Si Si8 0.481790 0.406387 0.410158
O O1 0.934476 0.754182 0.638425
O O2 0.866029 0.761619 0.864194
O O3 0.885071 0.666147 0.840737
O O4 0.979241 0.781801 0.918553
O O5 0.312553 0.247955 0.405614
O O6 0.815297 0.281426 0.345952
O O7 0.771644 0.355122 0.473700
O O8 0.695136 0.245545 0.386024
O O9 0.767432 0.333013 0.179589
O O10 0.396562 0.227908 0.278890
O O11 0.400881 0.255501 0.580904
O O12 0.425057 0.340866 0.364743
O O13 0.507907 0.452577 0.263679
O O14 0.559116 0.536336 0.041654
O O15 0.860381 0.393454 0.983351
#
# Coordination Sequence:
#
# PCOD9585142 Si02
#       8
#    12  12  12  12  12   6  12  12
#     4  10  21  38  65  94 132 165 211 251 311 362
#     4  10  21  38  62  97 129 168 204 258 304 366
#     4  12  23  42  61  92 119 163 209 272 321 399
#     4  10  21  39  63  89 121 154 206 252 315 366
#     4  10  20  40  61  88 122 154 204 258 307 374
#     4  10  26  42  60  80 116 154 210 250 308 380
#     4  12  25  40  67  87 126 157 213 259 336 378
#     4  11  22  45  59  85 114 161 201 260 310 384
#
# _framework density 19.81202
#
# number of rings (size 3 to 8) (size 9 to 14) (size 15 to 20)
#    0.000    1.333    2.667    2.667    0.000    3.200 
#    4.800    0.000    0.000    0.267    0.000    1.867 
#    0.000    0.000    0.000    0.000    0.000    0.000 
#
# Total GULP energy -502687.079944 kJ/mol
# GULP energy per Si atom -5585.411999 kJ/mol
# Density = 1.976693 g / cm^3
# Si number density = 19.812020 Si / 1000 Ang^3
#
#
#
# Elastic Constant Matrix: (Units=GPa)
#
#
# Indices 1 2 3 4 5 6 
#
# 1 91.6168 43.3501 30.8427 0.0000 0.0000 0.0000
# 2 43.3501 91.6168 30.8427 0.0000 0.0000 0.0000
# 3 30.8427 30.8427 47.8895 0.0000 0.0000 0.0000
# 4 0.0000 0.0000 0.000012876.3478 0.2746 0.0000
# 5 0.0000 0.0000 0.0000 0.274612876.0307 0.0000
# 6 0.0000 0.0000 0.0000 0.0000 0.0000 24.1333
#
#
#
# Elastic Compliance Matrix: (Units=1/GPa)
#
#
# Indices 1 2 3 4 5 6 
#
# 1 0.015609 -0.005109 -0.006762 0.000000 0.000000 0.000000
# 2 -0.005109 0.015609 -0.006762 0.000000 0.000000 0.000000
# 3 -0.006762 -0.006762 0.029592 0.000000 0.000000 0.000000
# 4 0.000000 0.000000 0.000000 0.000078 0.000000 0.000000
# 5 0.000000 0.000000 0.000000 0.000000 0.000078 0.000000
# 6 0.000000 0.000000 0.000000 0.000000 0.000000 0.041437
#
#
# Mechanical properties :
#
#
# Convention : Reuss Voigt Hill
#
# Bulk Modulus (GPa) = 42.47680 49.02156 45.74918
# Shear Modulus (GPa) = 33.89442 5163.70820 2598.80131
#
# Velocity S-wave (km/s) = 4.14067 51.10782 36.25710
# Velocity P-wave (km/s) = 6.65933 59.22395 42.14156
#
# Compressibility (1/GPa) = 0.02354226
#
# Stress axis : x y z
#
# Youngs Moduli (GPa) = 64.06533 64.06533 33.79312
#
# Poissons Ratio (x) = 0.32732 0.22852
# Poissons Ratio (y) = 0.32732 0.22852
# Poissons Ratio (z) = 0.43323 0.43323
#
# Static dielectric constant tensor:
#      x y z
#    x 0.000000 0.000000 0.000000 
#    y 0.000000 0.000000 0.000000 
#    z 0.000000 0.000000 0.000000 
# 
# From -- ./inp_files/411.got.cif
#   From: 2010.05.17/outbox.cif.g08.bks.cpg/sg184_cif.got.tgz:411.got - 2010.05.20 12:04:40.
