data_PCOD9585253
_publ_section_title
;
Structure prediction by ZEFSAII (Michael W. Deem and Ramdas Pophale) SiO2 
 PCOD9585253
Probable space group: P 63 C M
;
_chemical_formula_sum "Si O2"
_cell_formula_units_Z 60
_cell_length_a 14.414155
_cell_length_b 14.414155
_cell_length_c 18.792748
_cell_angle_alpha 90.000000
_cell_angle_beta 90.000000
_cell_angle_gamma 120.000000
_cell_volume 3381.421406
_symmetry_space_group_name_H-M "P 63 C M"
_symmetry_group_IT_number 185
_symmetry_cell_setting 'hexagonal'
loop_
_space_group_symop_operation_xyz
x,y,z
x-y,x,1/2+z
-y,x-y,z
-x,-y,1/2+z
-x+y,-x,z
y,-x+y,1/2+z
-x+y,y,1/2+z
x,x-y,1/2+z
-y,-x,1/2+z
y,x,z
x-y,-y,z
-x,-x+y,z
loop_
_atom_site_type_symbol
_atom_site_label
_atom_site_fract_x
_atom_site_fract_y
_atom_site_fract_z
Si Si1 0.571907 0.872574 0.585410
Si Si2 0.472376 0.717313 0.942232
Si Si3 0.875220 0.126855 0.687718
Si Si4 0.566966 0.443311 0.213999
Si Si5 0.437694 0.218857 0.789535
O O1 0.535911 0.803906 0.514268
O O2 0.657542 0.855384 0.630131
O O3 0.472066 0.845186 0.637917
O O4 0.629210 0.000000 0.570221
O O5 0.406040 0.780770 0.940413
O O6 0.542828 0.748038 0.871451
O O7 0.852553 0.170708 0.760865
O O8 0.000000 0.190408 0.670279
O O9 0.828796 0.000000 0.692207
O O10 0.476238 0.476238 0.209745
O O11 0.515415 0.324132 0.243011
O O12 0.658112 0.521467 0.269538
#
# Coordination Sequence:
#
# PCOD9585253 Si02
#       5
#    12  12  12  12  12
#     4   9  21  37  55  83 118 150 194 242 286 348
#     4  10  21  36  53  84 121 166 189 224 283 350
#     4  10  22  41  64  86 110 147 201 260 306 347
#     4  10  20  34  54  80 109 149 192 231 280 334
#     4  11  19  36  56  83 117 154 190 231 285 347
#
# _framework density 17.744018000000001
#
# number of rings (size 3 to 8) (size 9 to 14) (size 15 to 20)
#    0.400    1.600    2.000    3.000    5.600    1.600 
#    0.000    2.000    0.000    0.000    0.000    2.800 
#    0.000    0.000    0.000    0.000    0.000    0.000 
#
# Total GULP energy -334640.512085 kJ/mol
# GULP energy per Si atom -5577.341868 kJ/mol
# Density = 1.770363 g / cm^3
# Si number density = 17.744018 Si / 1000 Ang^3
#
#
#
# Elastic Constant Matrix: (Units=GPa)
#
#
# Indices 1 2 3 4 5 6 
#
# 1 57.3238 19.9029 35.0779 0.0000 0.0000 0.0000
# 2 19.9029 57.3238 35.0779 0.0000 0.0000 0.0000
# 3 35.0779 35.0779 137.0635 0.0000 0.0000 0.0000
# 4 0.0000 0.0000 0.0000 15.2333 0.0000 0.0000
# 5 0.0000 0.0000 0.0000 0.0000 15.2333 0.0000
# 6 0.0000 0.0000 0.0000 0.0000 0.0000 18.7105
#
#
#
# Elastic Compliance Matrix: (Units=1/GPa)
#
#
# Indices 1 2 3 4 5 6 
#
# 1 0.021797 -0.004926 -0.004318 0.000000 0.000000 0.000000
# 2 -0.004926 0.021797 -0.004318 0.000000 0.000000 0.000000
# 3 -0.004318 -0.004318 0.009506 0.000000 0.000000 0.000000
# 4 0.000000 0.000000 0.000000 0.065646 0.000000 0.000000
# 5 0.000000 0.000000 0.000000 0.000000 0.065646 0.000000
# 6 0.000000 0.000000 0.000000 0.000000 0.000000 0.053446
#
#
# Mechanical properties :
#
#
# Convention : Reuss Voigt Hill
#
# Bulk Modulus (GPa) = 38.49490 47.98095 43.23792
# Shear Modulus (GPa) = 18.27353 20.61223 19.44288
#
# Velocity S-wave (km/s) = 3.21260 3.41199 3.31379
# Velocity P-wave (km/s) = 5.95841 6.52852 6.24997
#
# Compressibility (1/GPa) = 0.02597747
#
# Stress axis : x y z
#
# Youngs Moduli (GPa) = 45.87752 45.87752 105.19728
#
# Poissons Ratio (x) = 0.22598 0.45422
# Poissons Ratio (y) = 0.22598 0.45422
# Poissons Ratio (z) = 0.19809 0.19809
#
# Static dielectric constant tensor:
#      x y z
#    x 1.604870 0.000000 0.000000 
#    y 0.000000 1.604870 0.000000 
#    z 0.000000 0.000000 1.592500 
# 
# From -- ./inp_files/1351.got.cif
#   From: 2010.05.17/outbox.cif.g08.bks.cpg/sg185_cif.got.tgz:1351.got - 2010.05.20 12:05:34.
