data_PCOD9585202
_publ_section_title
;
Structure prediction by ZEFSAII (Michael W. Deem and Ramdas Pophale) SiO2 
 PCOD9585202
Probable space group: P 6 C C
;
_chemical_formula_sum "Si O2"
_cell_formula_units_Z 48
_cell_length_a 16.729533
_cell_length_b 16.729533
_cell_length_c 9.348334
_cell_angle_alpha 90.000000
_cell_angle_beta 90.000000
_cell_angle_gamma 120.000000
_cell_volume 2265.856950
_symmetry_space_group_name_H-M "P 6 C C"
_symmetry_group_IT_number 184
_symmetry_cell_setting 'hexagonal'
loop_
_space_group_symop_operation_xyz
x,y,z
x-y,x,z
-y,x-y,z
-x,-y,z
-x+y,-x,z
y,-x+y,z
-x+y,y,1/2+z
x,x-y,1/2+z
-y,-x,1/2+z
y,x,1/2+z
x-y,-y,1/2+z
-x,-x+y,1/2+z
loop_
_atom_site_type_symbol
_atom_site_label
_atom_site_fract_x
_atom_site_fract_y
_atom_site_fract_z
Si Si1 0.379730 0.482753 0.670110
Si Si2 0.216803 0.071055 0.978025
Si Si3 0.177076 0.829260 0.732899
Si Si4 0.622494 0.090063 0.837914
O O1 0.269963 0.427157 0.680679
O O2 0.437355 0.581939 0.747502
O O3 0.413636 0.422401 0.759359
O O4 0.404129 0.489048 0.503281
O O5 0.173453 0.138286 0.987397
O O6 0.272322 0.094091 0.829545
O O7 0.292292 0.102311 0.103413
O O8 0.268825 0.868730 0.826754
#
# Coordination Sequence:
#
# PCOD9585202 Si02
#       4
#    12  12  12  12
#     4  11  24  42  69  99 131 170 218 279 344 414
#     4  12  25  44  68 102 144 194 246 300 349 406
#     4  12  26  42  69 102 138 184 235 288 348 426
#     4  11  24  42  69  99 131 170 218 279 344 414
#
# _framework density 21.184038000000001
#
# number of rings (size 3 to 8) (size 9 to 14) (size 15 to 20)
#    0.000    0.500    2.500    7.750    7.000    0.000 
#    1.500    2.500    0.000    0.000    0.000    0.000 
#    0.000    0.000    0.000    0.000    0.000    0.000 
#
# Total GULP energy -268414.770878 kJ/mol
# GULP energy per Si atom -5591.974393 kJ/mol
# Density = 2.113582 g / cm^3
# Si number density = 21.184038 Si / 1000 Ang^3
#
#
#
# Elastic Constant Matrix: (Units=GPa)
#
#
# Indices 1 2 3 4 5 6 
#
# 1 71.8531 -1.5647 -6.1469 0.0000 0.0000 0.0000
# 2 -1.5647 71.8531 -6.1469 0.0000 0.0000 0.0000
# 3 -6.1469 -6.1469 124.6980 0.0000 0.0000 0.0000
# 4 0.0000 0.0000 0.0000 15.3418 0.0000 0.0000
# 5 0.0000 0.0000 0.0000 0.0000 15.3418 0.0000
# 6 0.0000 0.0000 0.0000 0.0000 0.0000 36.7089
#
#
#
# Elastic Compliance Matrix: (Units=1/GPa)
#
#
# Indices 1 2 3 4 5 6 
#
# 1 0.013986 0.000365 0.000707 0.000000 0.000000 0.000000
# 2 0.000365 0.013986 0.000707 0.000000 0.000000 0.000000
# 3 0.000707 0.000707 0.008089 0.000000 0.000000 0.000000
# 4 0.000000 0.000000 0.000000 0.065181 0.000000 0.000000
# 5 0.000000 0.000000 0.000000 0.000000 0.065181 0.000000
# 6 0.000000 0.000000 0.000000 0.000000 0.000000 0.027241
#
#
# Mechanical properties :
#
#
# Convention : Reuss Voigt Hill
#
# Bulk Modulus (GPa) = 25.23953 26.74305 25.99129
# Shear Modulus (GPa) = 24.59281 32.29602 28.44441
#
# Velocity S-wave (km/s) = 3.41091 3.90878 3.66830
# Velocity P-wave (km/s) = 5.23953 5.74656 5.49889
#
# Compressibility (1/GPa) = 0.03962039
#
# Stress axis : x y z
#
# Youngs Moduli (GPa) = 71.50136 71.50136 123.62288
#
# Poissons Ratio (x) = -0.02610 -0.08745
# Poissons Ratio (y) = -0.02610 -0.08745
# Poissons Ratio (z) = -0.05058 -0.05058
#
# Static dielectric constant tensor:
#      x y z
#    x 1.781450 0.000000 0.000000 
#    y 0.000000 1.781450 0.000000 
#    z 0.000000 0.000000 1.750320 
# 
# From -- ./inp_files/192.got.cif
#   From: 2010.05.17/outbox.cif.g08.bks.cpg/sg184_cif.got.tgz:192.got - 2010.05.20 12:04:40.
