data_PCOD9585678
_publ_section_title
;
Structure prediction by ZEFSAII (Michael W. Deem and Ramdas Pophale) SiO2 
 PCOD9585678
Probable space group: P -6 M 2
;
_chemical_formula_sum "Si O2"
_cell_formula_units_Z 54
_cell_length_a 12.729991
_cell_length_b 12.729991
_cell_length_c 23.483850
_cell_angle_alpha 90.000000
_cell_angle_beta 90.000000
_cell_angle_gamma 120.000000
_cell_volume 3295.764129
_symmetry_space_group_name_H-M "P -6 M 2"
_symmetry_group_IT_number 187
_symmetry_cell_setting 'hexagonal'
loop_
_space_group_symop_operation_xyz
x,y,z
-x+y,-x,-z
-y,x-y,z
x,y,-z
-x+y,-x,z
-y,x-y,-z
-y,-x,-z
-x+y,y,-z
x,x-y,-z
-x+y,y,z
x,x-y,z
-y,-x,z
loop_
_atom_site_type_symbol
_atom_site_label
_atom_site_fract_x
_atom_site_fract_y
_atom_site_fract_z
Si Si1 0.084586 0.417890 0.434509
Si Si2 0.666072 0.582597 0.109874
Si Si3 0.083976 0.417183 0.219771
Si Si4 0.999808 0.248298 0.329407
Si Si5 0.583269 0.916992 0.000000
O O1 0.048072 0.378595 0.500000
O O2 0.222742 0.445484 0.428171
O O3 0.080082 0.540041 0.424781
O O4 0.007417 0.316959 0.388099
O O5 0.795203 0.590405 0.108513
O O6 0.557265 0.442736 0.108049
O O7 0.646670 0.640585 0.166968
O O8 0.645504 0.647483 0.055683
O O9 0.212712 0.425423 0.209251
O O10 0.101233 0.550617 0.225943
O O11 0.028412 0.340028 0.277020
O O12 0.109390 0.218779 0.330704
O O13 0.872405 0.127596 0.322343
O O14 0.443736 0.887472 0.000000
O O15 0.588809 0.794405 0.000000
#
# Coordination Sequence:
#
# PCOD9585678 Si02
#       5
#    12  12  12  12   6
#     4   9  17  30  50  75 100 126 158 200 249 296
#     4  10  20  34  53  76 103 135 169 204 242 289
#     4  10  20  34  54  78 102 128 160 203 252 298
#     4  10  20  33  49  70  98 132 167 201 239 287
#     4  10  20  34  54  78 104 134 168 210 256 298
#
# _framework density 16.384668000000001
#
# number of rings (size 3 to 8) (size 9 to 14) (size 15 to 20)
#    0.000    2.222    0.000    3.333    0.000    1.333 
#    0.000    5.556    0.000   13.778    0.000    0.000 
#    0.000    0.000    0.000    0.000    0.000    0.000 
#
# Total GULP energy -301354.363829 kJ/mol
# GULP energy per Si atom -5580.636367 kJ/mol
# Density = 1.634738 g / cm^3
# Si number density = 16.384668 Si / 1000 Ang^3
#
#
#
# Elastic Constant Matrix: (Units=GPa)
#
#
# Indices 1 2 3 4 5 6 
#
# 1 124.5841 87.5698 75.8312 0.0000 -0.0003 0.0000
# 2 87.5698 124.5841 75.8312 0.0000 0.0003 0.0000
# 3 75.8312 75.8312 116.7887 0.0000 0.0000 0.0000
# 4 0.0000 0.0000 0.0000 15.2807 0.0000 0.0003
# 5 -0.0003 0.0003 0.0000 0.0000 15.2807 0.0000
# 6 0.0000 0.0000 0.0000 0.0003 0.0000 18.5072
#
#
#
# Elastic Compliance Matrix: (Units=1/GPa)
#
#
# Indices 1 2 3 4 5 6 
#
# 1 0.017907 -0.009110 -0.005712 0.000000 0.000001 0.000000
# 2 -0.009110 0.017907 -0.005712 0.000000 -0.000001 0.000000
# 3 -0.005712 -0.005712 0.015980 0.000000 0.000000 0.000000
# 4 0.000000 0.000000 0.000000 0.065442 0.000000 -0.000001
# 5 0.000001 -0.000001 0.000000 0.000000 0.065442 0.000000
# 6 0.000000 0.000000 0.000000 -0.000001 0.000000 0.054033
#
#
# Mechanical properties :
#
#
# Convention : Reuss Voigt Hill
#
# Bulk Modulus (GPa) = 93.22915 93.82459 93.52687
# Shear Modulus (GPa) = 17.77131 18.26203 18.01667
#
# Velocity S-wave (km/s) = 3.29695 3.34216 3.31963
# Velocity P-wave (km/s) = 8.45677 8.50184 8.47933
#
# Compressibility (1/GPa) = 0.01072626
#
# Stress axis : x y z
#
# Youngs Moduli (GPa) = 55.84529 55.84529 62.57920
#
# Poissons Ratio (x) = 0.50875 0.35743
# Poissons Ratio (y) = 0.50875 0.35743
# Poissons Ratio (z) = 0.31897 0.31897
#
# Static dielectric constant tensor:
#      x y z
#    x 1.516080 0.000000 0.000000 
#    y 0.000000 1.516080 0.000000 
#    z 0.000000 0.000000 1.549370 
# 
# From -- ./inp_files/3443.got.cif
#   From: 2010.05.17/outbox.cif.g08.bks.cpg/sg187_2_cif.got.tgz:3443.got - 2010.05.20 12:09:04.
