data_PCOD9585073
_publ_section_title
;
Structure prediction by ZEFSAII (Michael W. Deem and Ramdas Pophale) SiO2 
 PCOD9585073
Probable space group: P 6 M M
;
_chemical_formula_sum "Si O2"
_cell_formula_units_Z 84
_cell_length_a 21.467301
_cell_length_b 21.467301
_cell_length_c 11.665879
_cell_angle_alpha 90.000000
_cell_angle_beta 90.000000
_cell_angle_gamma 120.000000
_cell_volume 4655.892997
_symmetry_space_group_name_H-M "P 6 M M"
_symmetry_group_IT_number 183
_symmetry_cell_setting 'hexagonal'
loop_
_space_group_symop_operation_xyz
x,y,z
x-y,x,z
-y,x-y,z
-x,-y,z
-x+y,-x,z
y,-x+y,z
-x+y,y,z
x,x-y,z
-y,-x,z
y,x,z
x-y,-y,z
-x,-x+y,z
loop_
_atom_site_type_symbol
_atom_site_label
_atom_site_fract_x
_atom_site_fract_y
_atom_site_fract_z
Si Si1 0.694222 0.918689 0.265380
Si Si2 0.666266 0.197518 0.998221
Si Si3 0.572906 0.916431 0.848690
Si Si4 0.197518 0.531253 0.271300
Si Si5 0.817347 0.484616 0.634759
Si Si6 0.775535 0.694223 0.004137
Si Si7 0.572906 0.656474 0.420829
O O1 0.714665 0.857333 0.278617
O O2 0.638983 0.911244 0.364435
O O3 0.759337 0.000000 0.270724
O O4 0.662662 0.909517 0.134758
O O5 0.613637 0.227273 0.964175
O O6 0.747140 0.252861 0.957194
O O7 0.668427 0.195913 0.134761
O O8 0.632934 0.118328 0.949142
O O9 0.532279 0.863958 0.743019
O O10 0.638984 0.911243 0.905081
O O11 0.601938 0.000000 0.822633
O O12 0.252861 0.505721 0.312328
O O13 0.227275 0.613638 0.305346
O O14 0.118328 0.485396 0.320379
O O15 0.737775 0.475549 0.634759
O O16 0.813977 0.406989 0.634758
O O17 0.863958 0.532280 0.526501
O O18 0.857334 0.714668 0.990901
O O19 0.759337 0.759337 0.998793
O O20 0.601936 0.601936 0.446887
#
# Coordination Sequence:
#
# PCOD9585073 Si02
#       7
#    12  12  12  12  12  12  12
#     4   9  17  31  53  80 109 140 175 214 255 301
#     4  10  20  34  53  76 103 135 172 214 256 299
#     4  11  23  37  54  77 104 134 167 208 259 309
#     4  10  20  34  53  76 103 135 172 214 256 299
#     4  12  26  43  61  77  98 131 171 213 255 306
#     4   9  17  31  53  80 109 140 175 214 255 301
#     4  11  23  37  54  77 104 134 167 208 259 309
#
# _framework density 18.041651000000002
#
# number of rings (size 3 to 8) (size 9 to 14) (size 15 to 20)
#    0.000    1.714    0.000    5.143    0.000    8.000 
#    0.000    4.286    0.000    0.286    0.000    2.000 
#    0.000    0.000    0.000    0.000    0.000   29.714 
#
# Total GULP energy -468182.956523 kJ/mol
# GULP energy per Si atom -5573.606625 kJ/mol
# Density = 1.800059 g / cm^3
# Si number density = 18.041651 Si / 1000 Ang^3
#
#
#
# Elastic Constant Matrix: (Units=GPa)
#
#
# Indices 1 2 3 4 5 6 
#
# 1 123.0555 78.0228 51.0757 0.0000 0.0000 0.0000
# 2 78.0228 123.0555 51.0757 0.0000 0.0000 0.0000
# 3 51.0757 51.0757 67.0649 0.0000 0.0000 0.0000
# 4 0.0000 0.0000 0.0000 31.4898 0.0000 0.0000
# 5 0.0000 0.0000 0.0000 0.0000 31.4898 0.0000
# 6 0.0000 0.0000 0.0000 0.0000 0.0000 22.5163
#
#
#
# Elastic Compliance Matrix: (Units=1/GPa)
#
#
# Indices 1 2 3 4 5 6 
#
# 1 0.015159 -0.007047 -0.006178 0.000000 0.000000 0.000000
# 2 -0.007047 0.015159 -0.006178 0.000000 0.000000 0.000000
# 3 -0.006178 -0.006178 0.024321 0.000000 0.000000 0.000000
# 4 0.000000 0.000000 0.000000 0.031756 0.000000 0.000000
# 5 0.000000 0.000000 0.000000 0.000000 0.031756 0.000000
# 6 0.000000 0.000000 0.000000 0.000000 0.000000 0.044412
#
#
# Mechanical properties :
#
#
# Convention : Reuss Voigt Hill
#
# Bulk Modulus (GPa) = 63.15898 74.83603 68.99750
# Shear Modulus (GPa) = 24.19600 25.96597 25.08098
#
# Velocity S-wave (km/s) = 3.66610 3.79783 3.73254
# Velocity P-wave (km/s) = 7.28037 7.79750 7.54336
#
# Compressibility (1/GPa) = 0.01583306
#
# Stress axis : x y z
#
# Youngs Moduli (GPa) = 65.96819 65.96819 41.11755
#
# Poissons Ratio (x) = 0.46490 0.25401
# Poissons Ratio (y) = 0.46490 0.25401
# Poissons Ratio (z) = 0.40753 0.40753
#
# Static dielectric constant tensor:
#      x y z
#    x 1.625650 0.000000 0.000000 
#    y 0.000000 1.625650 0.000000 
#    z 0.000000 0.000000 1.673780 
# 
# From -- ./inp_files/1752.got.cif
#   From: 2010.05.17/outbox.cif.g08.bks.cpg/sg183_1_cif.got.tgz:1752.got - 2010.05.20 12:02:58.
