data_PCOD9585001
_publ_section_title
;
Structure prediction by ZEFSAII (Michael W. Deem and Ramdas Pophale) SiO2 
 PCOD9585001
Probable space group: P 6 M M
;
_chemical_formula_sum "Si O2"
_cell_formula_units_Z 96
_cell_length_a 18.454580
_cell_length_b 18.454580
_cell_length_c 20.688867
_cell_angle_alpha 90.000000
_cell_angle_beta 90.000000
_cell_angle_gamma 120.000000
_cell_volume 6102.048721
_symmetry_space_group_name_H-M "P 6 M M"
_symmetry_group_IT_number 183
_symmetry_cell_setting 'hexagonal'
loop_
_space_group_symop_operation_xyz
x,y,z
x-y,x,z
-y,x-y,z
-x,-y,z
-x+y,-x,z
y,-x+y,z
-x+y,y,z
x,x-y,z
-y,-x,z
y,x,z
x-y,-y,z
-x,-x+y,z
loop_
_atom_site_type_symbol
_atom_site_label
_atom_site_fract_x
_atom_site_fract_y
_atom_site_fract_z
Si Si1 0.668951 0.168230 0.473720
Si Si2 0.458992 0.365527 0.337825
Si Si3 0.265221 0.904851 0.944900
Si Si4 0.838619 0.332652 0.057921
Si Si5 0.836778 0.331870 0.202123
Si Si6 0.665924 0.164541 0.838152
Si Si7 0.264007 0.905250 0.580032
Si Si8 0.334125 0.835437 0.685686
O O1 0.575045 0.150090 0.483147
O O2 0.735740 0.264260 0.489435
O O3 0.679652 0.151247 0.398842
O O4 0.692018 0.112997 0.519539
O O5 0.546502 0.453499 0.333452
O O6 0.387919 0.387919 0.353320
O O7 0.444767 0.325586 0.266888
O O8 0.167956 0.832045 0.946719
O O9 0.306073 0.888822 0.881271
O O10 0.286110 0.000000 0.946674
O O11 0.311013 0.887217 0.004537
O O12 0.845606 0.422803 0.049007
O O13 0.741274 0.258727 0.053453
O O14 0.868660 0.327584 0.130649
O O15 0.840411 0.420206 0.203829
O O16 0.741517 0.258483 0.205625
O O17 0.576651 0.153302 0.857563
O O18 0.738688 0.261312 0.847060
O O19 0.662726 0.145479 0.761939
O O20 0.166880 0.833121 0.579534
O O21 0.306440 0.889075 0.642615
O O22 0.284551 0.000000 0.578760
O O23 0.423309 0.846618 0.666301
O O24 0.261171 0.738830 0.676986
#
# Coordination Sequence:
#
# PCOD9585001 Si02
#       8
#    12  12  12  12  12  12  12  12
#     4  10  19  30  45  65  90 120 153 186 219 259
#     4   9  17  27  38  54  78 110 149 192 232 262
#     4  10  21  35  49  66  88 114 145 183 229 275
#     4   9  17  28  43  64  91 123 155 184 214 253
#     4   9  16  26  40  58  81 110 145 183 220 256
#     4   9  17  29  46  69  98 131 162 188 213 246
#     4  10  21  35  50  68  90 117 148 184 228 274
#     4   9  17  29  46  69  98 131 163 190 215 247
#
# _framework density 15.732421
#
# number of rings (size 3 to 8) (size 9 to 14) (size 15 to 20)
#    0.000    2.625    0.000    2.125    0.000    5.500 
#    0.000    6.250    0.000    0.250    0.000    0.000 
#    0.000    0.000    0.000    6.250    0.000    0.000 
#
# Total GULP energy -534908.563655 kJ/mol
# GULP energy per Si atom -5571.964205 kJ/mol
# Density = 1.569661 g / cm^3
# Si number density = 15.732421 Si / 1000 Ang^3
#
#
#
# Elastic Constant Matrix: (Units=GPa)
#
#
# Indices 1 2 3 4 5 6 
#
# 1 62.7796 50.7660 32.5560 0.0000 0.0000 0.0000
# 2 50.7660 62.7796 32.5560 0.0000 0.0000 0.0000
# 3 32.5560 32.5560 64.3621 0.0000 0.0000 0.0000
# 4 0.0000 0.0000 0.0000 12.6054 0.0000 0.0000
# 5 0.0000 0.0000 0.0000 0.0000 12.6054 0.0000
# 6 0.0000 0.0000 0.0000 0.0000 0.0000 6.0068
#
#
#
# Elastic Compliance Matrix: (Units=1/GPa)
#
#
# Indices 1 2 3 4 5 6 
#
# 1 0.047822 -0.035417 -0.006275 0.000000 0.000000 0.000000
# 2 -0.035417 0.047822 -0.006275 0.000000 0.000000 0.000000
# 3 -0.006275 -0.006275 0.021885 0.000000 0.000000 0.000000
# 4 0.000000 0.000000 0.000000 0.079331 0.000000 0.000000
# 5 0.000000 0.000000 0.000000 0.000000 0.079331 0.000000
# 6 0.000000 0.000000 0.000000 0.000000 0.000000 0.166478
#
#
# Mechanical properties :
#
#
# Convention : Reuss Voigt Hill
#
# Bulk Modulus (GPa) = 46.30467 46.85301 46.57884
# Shear Modulus (GPa) = 9.16082 11.17972 10.17027
#
# Velocity S-wave (km/s) = 2.41569 2.66863 2.54530
# Velocity P-wave (km/s) = 6.10551 6.27226 6.18945
#
# Compressibility (1/GPa) = 0.02159609
#
# Stress axis : x y z
#
# Youngs Moduli (GPa) = 20.91078 20.91078 45.69308
#
# Poissons Ratio (x) = 0.74059 0.28672
# Poissons Ratio (y) = 0.74059 0.28672
# Poissons Ratio (z) = 0.13121 0.13121
#
# Static dielectric constant tensor:
#      x y z
#    x 1.516170 0.000000 0.000000 
#    y 0.000000 1.516170 0.000000 
#    z 0.000000 0.000000 1.569820 
# 
# From -- ./inp_files/2987.got.cif
#   From: 2010.05.17/outbox.cif.g08.bks.cpg/sg183_2_cif.got.tgz:2987.got - 2010.05.20 12:02:58.
