data_PCOD9585464
_publ_section_title
;
Structure prediction by ZEFSAII (Michael W. Deem and Ramdas Pophale) SiO2 
 PCOD9585464
Probable space group: P -6 M 2
;
_chemical_formula_sum "Si O2"
_cell_formula_units_Z 78
_cell_length_a 24.565341
_cell_length_b 24.565341
_cell_length_c 7.667376
_cell_angle_alpha 90.000000
_cell_angle_beta 90.000000
_cell_angle_gamma 120.000000
_cell_volume 4007.033627
_symmetry_space_group_name_H-M "P -6 M 2"
_symmetry_group_IT_number 187
_symmetry_cell_setting 'hexagonal'
loop_
_space_group_symop_operation_xyz
x,y,z
-x+y,-x,-z
-y,x-y,z
x,y,-z
-x+y,-x,z
-y,x-y,-z
-y,-x,-z
-x+y,y,-z
x,x-y,-z
-x+y,y,z
x,x-y,z
-y,-x,z
loop_
_atom_site_type_symbol
_atom_site_label
_atom_site_fract_x
_atom_site_fract_y
_atom_site_fract_z
Si Si1 0.293539 0.829584 0.792038
Si Si2 0.154177 0.577089 0.291979
Si Si3 0.494664 0.505337 0.286095
Si Si4 0.040939 0.347793 0.790701
Si Si5 0.636958 0.564987 0.292425
Si Si6 0.870993 0.000624 0.500000
Si Si7 0.773324 0.821796 0.202774
Si Si8 0.792798 0.332740 0.713398
O O1 0.227469 0.772532 0.723602
O O2 0.350787 0.816504 0.762632
O O3 0.312318 0.899348 0.723231
O O4 0.285956 0.831786 0.000000
O O5 0.152334 0.576167 0.500000
O O6 0.082138 0.541069 0.224636
O O7 0.493996 0.506005 0.500000
O O8 0.566161 0.538017 0.225674
O O9 0.050612 0.290222 0.740424
O O10 0.971633 0.332832 0.738132
O O11 0.042826 0.351924 0.000000
O O12 0.632358 0.555448 0.500000
O O13 0.665566 0.522365 0.227498
O O14 0.880586 0.940293 0.500000
O O15 0.830000 0.994322 0.669946
O O16 0.936319 0.063682 0.500000
O O17 0.763578 0.881789 0.213924
O O18 0.785963 0.814690 0.000000
O O19 0.791843 0.331906 0.500000
O O20 0.794502 0.397251 0.765119
O O21 0.729335 0.270666 0.771049
#
# Coordination Sequence:
#
# PCOD9585464 Si02
#       8
#    12   6   6  12  12   6  12  12
#     4  10  21  37  56  77 103 137 179 226 275 329
#     4  11  21  35  53  77 107 137 177 221 273 327
#     4   9  16  29  47  71 101 137 167 211 275 331
#     4  10  20  34  55  81 107 139 180 227 277 331
#     4  10  18  30  50  74 105 140 174 219 276 331
#     4  10  21  38  62  92 122 155 196 238 280 330
#     4   9  19  37  59  85 120 157 193 236 286 339
#     4   9  16  27  46  72 101 134 174 220 268 318
#
# _framework density 19.465772000000001
#
# number of rings (size 3 to 8) (size 9 to 14) (size 15 to 20)
#    0.000    2.308    2.308    0.923    1.077    3.077 
#    0.462    1.154    0.000    2.308    0.000    0.000 
#    0.000    1.231    0.000    0.000    0.000    0.000 
#
# Total GULP energy -435103.857351 kJ/mol
# GULP energy per Si atom -5578.254581 kJ/mol
# Density = 1.942147 g / cm^3
# Si number density = 19.465772 Si / 1000 Ang^3
#
#
#
# Elastic Constant Matrix: (Units=GPa)
#
#
# Indices 1 2 3 4 5 6 
#
# 1 113.8158 49.8428 19.1301 0.0000 -0.0006 0.0000
# 2 49.8428 113.8158 19.1301 0.0000 0.0006 0.0000
# 3 19.1301 19.1301 38.4876 0.0000 0.0000 0.0000
# 4 0.0000 0.0000 0.0000 2.1722 0.0000 0.0006
# 5 -0.0006 0.0006 0.0000 0.0000 2.1722 0.0000
# 6 0.0000 0.0000 0.0000 0.0006 0.0000 31.9865
#
#
#
# Elastic Compliance Matrix: (Units=1/GPa)
#
#
# Indices 1 2 3 4 5 6 
#
# 1 0.011273 -0.004359 -0.003436 0.000000 0.000005 0.000000
# 2 -0.004359 0.011273 -0.003436 0.000000 -0.000005 0.000000
# 3 -0.003436 -0.003436 0.029398 0.000000 0.000000 0.000000
# 4 0.000000 0.000000 0.000000 0.460355 0.000000 -0.000009
# 5 0.000005 -0.000005 0.000000 0.000000 0.460355 0.000000
# 6 0.000000 0.000000 0.000000 -0.000009 0.000000 0.031263
#
#
# Mechanical properties :
#
#
# Convention : Reuss Voigt Hill
#
# Bulk Modulus (GPa) = 33.92111 49.14726 41.53418
# Shear Modulus (GPa) = 4.82529 19.13394 11.97961
#
# Velocity S-wave (km/s) = 1.57615 3.13861 2.48346
# Velocity P-wave (km/s) = 4.55809 6.19979 5.44121
#
# Compressibility (1/GPa) = 0.02948017
#
# Stress axis : x y z
#
# Youngs Moduli (GPa) = 88.71049 88.71049 34.01538
#
# Poissons Ratio (x) = 0.38669 0.11689
# Poissons Ratio (y) = 0.38669 0.11689
# Poissons Ratio (z) = 0.30484 0.30484
#
# Static dielectric constant tensor:
#      x y z
#    x 1.677930 0.000000 0.000000 
#    y 0.000000 1.677930 0.000000 
#    z 0.000000 0.000000 1.723210 
# 
# From -- ./inp_files/1205.got.cif
#   From: 2010.05.17/outbox.cif.g08.bks.cpg/sg187_1_cif.got.tgz:1205.got - 2010.05.20 12:09:04.
