data_PCOD9585965
_publ_section_title
;
Structure prediction by ZEFSAII (Michael W. Deem and Ramdas Pophale) SiO2 
 PCOD9585965
Probable space group: P -6 C 2
;
_chemical_formula_sum "Si O2"
_cell_formula_units_Z 64
_cell_length_a 16.451692
_cell_length_b 16.451692
_cell_length_c 15.984695
_cell_angle_alpha 90.000000
_cell_angle_beta 90.000000
_cell_angle_gamma 120.000000
_cell_volume 3746.762167
_symmetry_space_group_name_H-M "P -6 C 2"
_symmetry_group_IT_number 188
_symmetry_cell_setting 'hexagonal'
loop_
_space_group_symop_operation_xyz
x,y,z
-x+y,-x,1/2-z
-y,x-y,z
x,y,1/2-z
-x+y,-x,z
-y,x-y,1/2-z
-y,-x,-z
-x+y,y,-z
x,x-y,-z
-x+y,y,1/2+z
x,x-y,1/2+z
-y,-x,1/2+z
loop_
_atom_site_type_symbol
_atom_site_label
_atom_site_fract_x
_atom_site_fract_y
_atom_site_fract_z
Si Si1 0.520912 0.819817 0.581108
Si Si2 0.398920 0.373441 0.649444
Si Si3 0.452509 0.228398 0.900462
Si Si4 0.666668 0.333334 0.102323
Si Si5 0.481357 0.840252 0.345033
Si Si6 0.452131 0.047612 0.849322
O O1 0.531060 0.765530 0.500000
O O2 0.421057 0.815883 0.593459
O O3 0.515991 0.749634 0.652821
O O4 0.597332 0.928455 0.600348
O O5 0.390458 0.382275 0.750000
O O6 0.391338 0.273789 0.630625
O O7 0.505895 0.449976 0.620804
O O8 0.560059 0.292095 0.868878
O O9 0.425554 0.123582 0.877054
O O10 0.455094 0.227547 0.000000
O O11 0.666668 0.333334 0.000000
O O12 0.452719 0.848001 0.250000
O O13 0.565396 0.941541 0.371321
O O14 0.460984 0.055977 0.750000
#
# Coordination Sequence:
#
# PCOD9585965 Si02
#       6
#    12  12  12   4  12  12
#     4  11  22  35  54  78 106 141 188 234 278 329
#     4  10  21  36  53  77 110 148 188 232 281 335
#     4  11  20  32  52  75 110 146 186 231 272 324
#     4   9  18  30  43  74 103 147 181 215 262 306
#     4  10  20  36  55  74 106 143 182 226 276 333
#     4   9  19  33  50  74 104 143 184 223 271 324
#
# _framework density 17.081416000000001
#
# number of rings (size 3 to 8) (size 9 to 14) (size 15 to 20)
#    0.000    1.875    1.875    4.312    2.625    0.000 
#    0.000    0.000    0.000    0.000    0.000    0.000 
#    1.875    1.500    2.250    0.000    0.000    0.000 
#
# Total GULP energy -356526.368818 kJ/mol
# GULP energy per Si atom -5570.724513 kJ/mol
# Density = 1.704254 g / cm^3
# Si number density = 17.081416 Si / 1000 Ang^3
#
#
#
# Elastic Constant Matrix: (Units=GPa)
#
#
# Indices 1 2 3 4 5 6 
#
# 1 124.5571 60.5329 30.3954 0.0000 0.0000 0.0000
# 2 60.5329 124.5574 30.3954 0.0000 0.0000 0.0000
# 3 30.3954 30.3954 69.4224 0.0001 0.0000 0.0000
# 4 0.0000 0.0000 0.0001 25.0198 0.0000 0.0000
# 5 0.0000 0.0000 0.0000 0.0000 25.0198 0.0000
# 6 0.0000 0.0000 0.0000 0.0000 0.0000 32.0122
#
#
#
# Elastic Compliance Matrix: (Units=1/GPa)
#
#
# Indices 1 2 3 4 5 6 
#
# 1 0.010965 -0.004654 -0.002763 0.000000 0.000000 0.000000
# 2 -0.004654 0.010965 -0.002763 0.000000 0.000000 0.000000
# 3 -0.002763 -0.002763 0.016824 0.000000 0.000000 0.000000
# 4 0.000000 0.000000 0.000000 0.039968 0.000000 0.000000
# 5 0.000000 0.000000 0.000000 0.000000 0.039968 0.000000
# 6 0.000000 0.000000 0.000000 0.000000 0.000000 0.031238
#
#
# Mechanical properties :
#
#
# Convention : Reuss Voigt Hill
#
# Bulk Modulus (GPa) = 54.36845 62.35381 58.36113
# Shear Modulus (GPa) = 28.34163 29.55791 28.94977
#
# Velocity S-wave (km/s) = 4.07776 4.16434 4.12127
# Velocity P-wave (km/s) = 7.35316 7.72693 7.54236
#
# Compressibility (1/GPa) = 0.01839302
#
# Stress axis : x y z
#
# Youngs Moduli (GPa) = 91.20240 91.20259 59.43933
#
# Poissons Ratio (x) = 0.42450 0.16422
# Poissons Ratio (y) = 0.42449 0.16422
# Poissons Ratio (z) = 0.25197 0.25198
#
# Static dielectric constant tensor:
#      x y z
#    x 1.599710 0.000000 0.000000 
#    y 0.000000 1.599710 0.000000 
#    z 0.000000 0.000000 1.672630 
# 
# From -- ./inp_files/3099.got.cif
#   From: 2010.05.17/outbox.cif.g08.bks.cpg/sg188_2_cif.got.tgz:3099.got - 2010.05.20 12:11:46.
