data_PCOD9585093
_publ_section_title
;
Structure prediction by ZEFSAII (Michael W. Deem and Ramdas Pophale) SiO2 
 PCOD9585093
Probable space group: P 6 C C
;
_chemical_formula_sum "Si O2"
_cell_formula_units_Z 84
_cell_length_a 17.364193
_cell_length_b 17.364193
_cell_length_c 14.655816
_cell_angle_alpha 90.000000
_cell_angle_beta 90.000000
_cell_angle_gamma 120.000000
_cell_volume 3826.924059
_symmetry_space_group_name_H-M "P 6 C C"
_symmetry_group_IT_number 184
_symmetry_cell_setting 'hexagonal'
loop_
_space_group_symop_operation_xyz
x,y,z
x-y,x,z
-y,x-y,z
-x,-y,z
-x+y,-x,z
y,-x+y,z
-x+y,y,1/2+z
x,x-y,1/2+z
-y,-x,1/2+z
y,x,1/2+z
x-y,-y,1/2+z
-x,-x+y,1/2+z
loop_
_atom_site_type_symbol
_atom_site_label
_atom_site_fract_x
_atom_site_fract_y
_atom_site_fract_z
Si Si1 0.838203 0.328911 0.845130
Si Si2 0.925377 0.805941 0.306773
Si Si3 0.336061 0.479823 0.361873
Si Si4 0.765707 0.124463 0.205504
Si Si5 0.638214 0.653681 0.484344
Si Si6 0.302951 0.924978 0.667573
Si Si7 0.816603 0.842181 0.518044
O O1 0.845645 0.423355 0.856250
O O2 0.746944 0.242469 0.874000
O O3 0.851322 0.306699 0.741104
O O4 0.917198 0.333131 0.904465
O O5 0.862122 0.838987 0.266594
O O6 0.876283 0.701637 0.289677
O O7 0.948091 0.825280 0.413153
O O8 0.340521 0.420137 0.444392
O O9 0.328275 0.430383 0.264196
O O10 0.840504 0.204618 0.145481
O O11 0.710606 0.021113 0.180084
O O12 0.582072 0.635175 0.578138
O O13 0.728120 0.746459 0.505787
O O14 0.891896 0.823596 0.560634
#
# Coordination Sequence:
#
# PCOD9585093 Si02
#       7
#    12  12  12  12  12  12  12
#     4  11  24  46  74  99 133 178 228 289 367 425
#     4  10  17  30  53  84 124 171 220 271 322 380
#     4  11  25  50  73 104 141 180 231 302 362 442
#     4  11  21  40  63  92 135 177 229 279 337 409
#     4  12  24  42  69 104 139 178 238 282 358 426
#     4  11  26  41  67 100 139 186 229 288 349 411
#     4  10  20  33  56  89 134 181 228 278 333 402
#
# _framework density 21.949743000000002
#
# number of rings (size 3 to 8) (size 9 to 14) (size 15 to 20)
#    0.000    1.143    4.286    1.857    8.000    1.143 
#    5.143    0.000    0.000    0.000    0.000    0.000 
#    0.000    0.000    0.000    0.000    0.000    0.000 
#
# Total GULP energy -468056.307846 kJ/mol
# GULP energy per Si atom -5572.098903 kJ/mol
# Density = 2.189978 g / cm^3
# Si number density = 21.949743 Si / 1000 Ang^3
#
#
#
# Elastic Constant Matrix: (Units=GPa)
#
#
# Indices 1 2 3 4 5 6 
#
# 1 130.5976 70.2949 20.3627 0.0000 0.0000 0.0000
# 2 70.2949 130.5976 20.3627 0.0000 0.0000 0.0000
# 3 20.3627 20.3627 63.2285 0.0000 0.0000 0.0000
# 4 0.0000 0.0000 0.0000 16.7966 0.0000 0.0000
# 5 0.0000 0.0000 0.0000 0.0000 16.7966 0.0000
# 6 0.0000 0.0000 0.0000 0.0000 0.0000 30.1513
#
#
#
# Elastic Compliance Matrix: (Units=1/GPa)
#
#
# Indices 1 2 3 4 5 6 
#
# 1 0.010954 -0.005629 -0.001715 0.000000 0.000000 0.000000
# 2 -0.005629 0.010954 -0.001715 0.000000 0.000000 0.000000
# 3 -0.001715 -0.001715 0.016920 0.000000 0.000000 0.000000
# 4 0.000000 0.000000 0.000000 0.059536 0.000000 0.000000
# 5 0.000000 0.000000 0.000000 0.000000 0.059536 0.000000
# 6 0.000000 0.000000 0.000000 0.000000 0.000000 0.033166
#
#
# Mechanical properties :
#
#
# Convention : Reuss Voigt Hill
#
# Bulk Modulus (GPa) = 48.28349 60.71826 54.50088
# Shear Modulus (GPa) = 23.13873 26.97581 25.05727
#
# Velocity S-wave (km/s) = 3.25032 3.50949 3.38238
# Velocity P-wave (km/s) = 6.01092 6.64413 6.33544
#
# Compressibility (1/GPa) = 0.02071101
#
# Stress axis : x y z
#
# Youngs Moduli (GPa) = 91.28888 91.28888 59.10051
#
# Poissons Ratio (x) = 0.51384 0.10136
# Poissons Ratio (y) = 0.51384 0.10136
# Poissons Ratio (z) = 0.15657 0.15657
#
# Static dielectric constant tensor:
#      x y z
#    x 1.846090 0.000000 0.000000 
#    y 0.000000 1.846090 0.000000 
#    z 0.000000 0.000000 1.934840 
# 
# From -- ./inp_files/936.got.cif
#   From: 2010.05.17/outbox.cif.g08.bks.cpg/sg184_cif.got.tgz:936.got - 2010.05.20 12:04:40.
