data_PCOD9585783
_publ_section_title
;
Structure prediction by ZEFSAII (Michael W. Deem and Ramdas Pophale) SiO2 
 PCOD9585783
Probable space group: P -6 M 2
;
_chemical_formula_sum "Si O2"
_cell_formula_units_Z 60
_cell_length_a 22.572186
_cell_length_b 22.572186
_cell_length_c 7.411007
_cell_angle_alpha 90.000000
_cell_angle_beta 90.000000
_cell_angle_gamma 120.000000
_cell_volume 3270.055290
_symmetry_space_group_name_H-M "P -6 M 2"
_symmetry_group_IT_number 187
_symmetry_cell_setting 'hexagonal'
loop_
_space_group_symop_operation_xyz
x,y,z
-x+y,-x,-z
-y,x-y,z
x,y,-z
-x+y,-x,z
-y,x-y,-z
-y,-x,-z
-x+y,y,-z
x,x-y,-z
-x+y,y,z
x,x-y,z
-y,-x,z
loop_
_atom_site_type_symbol
_atom_site_label
_atom_site_fract_x
_atom_site_fract_y
_atom_site_fract_z
Si Si1 0.588664 0.864620 0.288050
Si Si2 0.474413 0.808089 0.000000
Si Si3 0.000001 0.862812 0.720418
Si Si4 0.411335 0.135380 0.711950
Si Si5 0.808088 0.474413 0.000000
Si Si6 0.273873 1.000000 0.719827
O O1 0.577797 0.871336 0.500000
O O2 0.601114 0.800557 0.267431
O O3 0.656563 0.932519 0.226275
O O4 0.522147 0.846154 0.171787
O O5 0.404348 0.808696 0.000000
O O6 0.461119 0.730560 0.000000
O O7 0.000001 0.862593 0.500000
O O8 0.068549 0.931452 0.776752
O O9 0.000001 0.794386 0.779411
O O10 0.931451 0.862902 0.776748
O O11 0.422202 0.128664 0.500000
O O12 0.398883 0.199442 0.732571
O O13 0.343437 0.067481 0.773724
O O14 0.477853 0.153847 0.828214
O O15 0.730559 0.461117 0.000000
O O16 0.808698 0.404349 0.000000
O O17 0.272014 1.000000 0.500000
#
# Coordination Sequence:
#
# PCOD9585783 Si02
#       6
#    12   6  12  12   6  12
#     4   9  18  33  52  75 104 136 171 211 250 292
#     4  10  21  37  57  79 102 128 160 201 251 307
#     4   9  15  22  36  63 100 139 178 220 262 300
#     4   9  18  33  52  75 104 136 171 211 250 292
#     4  10  21  37  57  79 102 128 160 201 251 307
#     4   9  16  28  47  69  96 136 179 213 252 299
#
# _framework density 18.348313999999998
#
# number of rings (size 3 to 8) (size 9 to 14) (size 15 to 20)
#    0.000    2.800    0.000    1.600    0.000    7.200 
#    0.000    2.000    0.000    6.000    0.000    0.000 
#    0.000    0.000    0.000   15.200    0.000   41.400 
#
# Total GULP energy -334919.225374 kJ/mol
# GULP energy per Si atom -5581.987090 kJ/mol
# Density = 1.830655 g / cm^3
# Si number density = 18.348314 Si / 1000 Ang^3
#
#
#
# Elastic Constant Matrix: (Units=GPa)
#
#
# Indices 1 2 3 4 5 6 
#
# 1 170.7800 110.9581 54.8351 0.0000 -0.0001 0.0000
# 2 110.9581 170.7800 54.8351 0.0000 0.0001 0.0000
# 3 54.8351 54.8351 79.6912 0.0000 0.0000 0.0000
# 4 0.0000 0.0000 0.0000 -21.9847 0.0000 0.0001
# 5 -0.0001 0.0001 0.0000 0.0000 -21.9847 0.0000
# 6 0.0000 0.0000 0.0000 0.0001 0.0000 29.9110
#
#
#
# Elastic Compliance Matrix: (Units=1/GPa)
#
#
# Indices 1 2 3 4 5 6 
#
# 1 0.010782 -0.005934 -0.003336 0.000000 0.000000 0.000000
# 2 -0.005934 0.010782 -0.003336 0.000000 0.000000 0.000000
# 3 -0.003336 -0.003336 0.017139 0.000000 0.000000 0.000000
# 4 0.000000 0.000000 0.000000 -0.045486 0.000000 0.000000
# 5 0.000000 0.000000 0.000000 0.000000 -0.045486 0.000000
# 6 0.000000 0.000000 0.000000 0.000000 0.000000 0.033433
#
#
# Mechanical properties :
#
#
# Convention : Reuss Voigt Hill
#
# Bulk Modulus (GPa) = 74.11966 95.83420 84.97693
# Shear Modulus (GPa) = 459.87993 10.56317 235.22155
#
# Velocity S-wave (km/s) = 15.84875 2.40198 11.33474
# Velocity P-wave (km/s) = 19.37509 7.74833 14.75518
#
# Compressibility (1/GPa) = 0.01349170
#
# Stress axis : x y z
#
# Youngs Moduli (GPa) = 92.74635 92.74635 58.34588
#
# Poissons Ratio (x) = 0.55037 0.19463
# Poissons Ratio (y) = 0.55037 0.19463
# Poissons Ratio (z) = 0.30939 0.30939
#
# Static dielectric constant tensor:
#      x y z
#    x 1.589510 0.000000 0.000000 
#    y 0.000000 1.589510 0.000000 
#    z 0.000000 0.000000 1.698480 
# 
# From -- ./inp_files/660.got.cif
#   From: 2010.05.17/outbox.cif.g08.bks.cpg/sg187_1_cif.got.tgz:660.got - 2010.05.20 12:09:04.
