data_PCOD9585991
_publ_section_title
;
Structure prediction by ZEFSAII (Michael W. Deem and Ramdas Pophale) SiO2 
 PCOD9585991
Probable space group: P -6 C 2
;
_chemical_formula_sum "Si O2"
_cell_formula_units_Z 66
_cell_length_a 20.768113
_cell_length_b 20.768113
_cell_length_c 9.046389
_cell_angle_alpha 90.000000
_cell_angle_beta 90.000000
_cell_angle_gamma 120.000000
_cell_volume 3379.091615
_symmetry_space_group_name_H-M "P -6 C 2"
_symmetry_group_IT_number 188
_symmetry_cell_setting 'hexagonal'
loop_
_space_group_symop_operation_xyz
x,y,z
-x+y,-x,1/2-z
-y,x-y,z
x,y,1/2-z
-x+y,-x,z
-y,x-y,1/2-z
-y,-x,-z
-x+y,y,-z
x,x-y,-z
-x+y,y,1/2+z
x,x-y,1/2+z
-y,-x,1/2+z
loop_
_atom_site_type_symbol
_atom_site_label
_atom_site_fract_x
_atom_site_fract_y
_atom_site_fract_z
Si Si1 0.539272 0.078544 0.000000
Si Si2 0.000374 0.138915 0.929117
Si Si3 0.951038 0.690335 0.070982
Si Si4 0.204892 0.667963 0.071800
Si Si5 0.830187 0.290638 0.080521
Si Si6 0.577240 0.955249 0.082138
O O1 0.510774 0.130489 0.072998
O O2 0.557085 0.020651 0.084555
O O3 0.003183 0.134083 0.750000
O O4 0.971459 0.197271 0.964256
O O5 0.939409 0.060592 0.000000
O O6 0.080127 0.160253 0.000000
O O7 0.943803 0.682534 0.250000
O O8 0.015664 0.674051 0.016413
O O9 0.880202 0.619323 0.999686
O O10 0.210725 0.668453 0.250000
O O11 0.120088 0.632981 0.016899
O O12 0.251652 0.748349 0.000000
O O13 0.233565 0.616783 0.000000
O O14 0.821702 0.267991 0.250000
O O15 0.751005 0.248996 0.000000
O O16 0.583332 0.935858 0.250000
#
# Coordination Sequence:
#
# PCOD9585991 Si02
#       6
#     6  12  12  12  12  12
#     4  10  20  40  62  88 118 158 206 248 300 358
#     4  11  23  39  60  85 117 156 198 243 297 356
#     4   9  20  39  62  88 120 155 194 246 300 356
#     4  11  22  37  56  81 114 154 197 246 300 357
#     4  11  23  38  62  92 123 160 200 248 301 361
#     4   9  18  35  60  86 115 150 194 245 298 351
#
# _framework density 19.531876
#
# number of rings (size 3 to 8) (size 9 to 14) (size 15 to 20)
#    0.000    1.818    0.909    3.091    0.000    5.818 
#    0.545    0.909    0.000    0.000    0.000    0.000 
#    0.000    0.000    0.000    0.000    0.000    0.000 
#
# Total GULP energy -367533.653013 kJ/mol
# GULP energy per Si atom -5568.691712 kJ/mol
# Density = 1.948742 g / cm^3
# Si number density = 19.531876 Si / 1000 Ang^3
#
#
#
# Elastic Constant Matrix: (Units=GPa)
#
#
# Indices 1 2 3 4 5 6 
#
# 1 107.1625 47.2821 32.7502 0.0001 0.0000 0.0000
# 2 47.2821 107.1625 32.7502 -0.0001 0.0000 0.0000
# 3 32.7502 32.7502 78.4302 0.0000 0.0000 0.0000
# 4 0.0001 -0.0001 0.0000 18.6294 0.0000 0.0000
# 5 0.0000 0.0000 0.0000 0.0000 18.6294 0.0001
# 6 0.0000 0.0000 0.0000 0.0000 0.0001 29.9402
#
#
#
# Elastic Compliance Matrix: (Units=1/GPa)
#
#
# Indices 1 2 3 4 5 6 
#
# 1 0.012284 -0.004416 -0.003286 0.000000 0.000000 0.000000
# 2 -0.004416 0.012284 -0.003286 0.000000 0.000000 0.000000
# 3 -0.003286 -0.003286 0.015494 0.000000 0.000000 0.000000
# 4 0.000000 0.000000 0.000000 0.053679 0.000000 0.000000
# 5 0.000000 0.000000 0.000000 0.000000 0.053679 0.000000
# 6 0.000000 0.000000 0.000000 0.000000 0.000000 0.033400
#
#
# Mechanical properties :
#
#
# Convention : Reuss Voigt Hill
#
# Bulk Modulus (GPa) = 55.28418 57.59112 56.43765
# Shear Modulus (GPa) = 23.94375 25.43798 24.69087
#
# Velocity S-wave (km/s) = 3.50506 3.61277 3.55932
# Velocity P-wave (km/s) = 6.68929 6.85219 6.77123
#
# Compressibility (1/GPa) = 0.01808836
#
# Stress axis : x y z
#
# Youngs Moduli (GPa) = 81.40617 81.40617 64.54080
#
# Poissons Ratio (x) = 0.35948 0.21205
# Poissons Ratio (y) = 0.35948 0.21205
# Poissons Ratio (z) = 0.26746 0.26746
#
# Static dielectric constant tensor:
#      x y z
#    x 1.733060 0.000000 0.000000 
#    y 0.000000 1.733060 0.000000 
#    z 0.000000 0.000000 1.676840 
# 
# From -- ./inp_files/775.got.cif
#   From: 2010.05.17/outbox.cif.g08.bks.cpg/sg188_1_cif.got.tgz:775.got - 2010.05.20 12:11:46.
