data_PCOD9585045
_publ_section_title
;
Structure prediction by ZEFSAII (Michael W. Deem and Ramdas Pophale) SiO2 
 PCOD9585045
Probable space group: P 6 M M
;
_chemical_formula_sum "Si O2"
_cell_formula_units_Z 66
_cell_length_a 21.229647
_cell_length_b 21.229647
_cell_length_c 10.432230
_cell_angle_alpha 90.000000
_cell_angle_beta 90.000000
_cell_angle_gamma 120.000000
_cell_volume 4071.864626
_symmetry_space_group_name_H-M "P 6 M M"
_symmetry_group_IT_number 183
_symmetry_cell_setting 'hexagonal'
loop_
_space_group_symop_operation_xyz
x,y,z
x-y,x,z
-y,x-y,z
-x,-y,z
-x+y,-x,z
y,-x+y,z
-x+y,y,z
x,x-y,z
-y,-x,z
y,x,z
x-y,-y,z
-x,-x+y,z
loop_
_atom_site_type_symbol
_atom_site_label
_atom_site_fract_x
_atom_site_fract_y
_atom_site_fract_z
Si Si1 0.724778 0.000000 0.539361
Si Si2 0.000000 0.275221 0.246393
Si Si3 0.383270 0.470753 0.892874
Si Si4 0.333369 0.816917 0.392873
Si Si5 0.418418 0.134420 0.642190
Si Si6 0.150841 0.000000 0.392879
Si Si7 0.134420 0.418416 0.143558
O O1 0.698812 0.000000 0.392876
O O2 0.662972 0.929208 0.609616
O O3 0.799891 0.000000 0.512943
O O4 0.000000 0.200108 0.272813
O O5 0.929208 0.266234 0.176136
O O6 0.444635 0.555366 0.892876
O O7 0.425266 0.425266 0.892871
O O8 0.334126 0.449184 0.766427
O O9 0.334127 0.449181 0.019321
O O10 0.409434 0.818867 0.392871
O O11 0.265870 0.734131 0.392875
O O12 0.323557 0.854800 0.518970
O O13 0.323555 0.854798 0.266777
O O14 0.418686 0.209343 0.661400
O O15 0.145542 0.072771 0.392879
O O16 0.209342 0.418684 0.124342
#
# Coordination Sequence:
#
# PCOD9585045 Si02
#       7
#     6   6  12  12  12   6  12
#     4  10  20  34  54  84 112 140 178 229 279 322
#     4  10  20  34  54  84 112 140 178 229 279 322
#     4  11  23  38  54  79 111 141 178 227 274 321
#     4  10  20  34  54  78 105 139 179 222 268 324
#     4  11  21  37  57  79 109 144 181 223 276 333
#     4  10  19  32  52  82 119 156 188 224 272 330
#     4  11  21  37  57  79 109 144 181 223 276 333
#
# _framework density 16.20879
#
# number of rings (size 3 to 8) (size 9 to 14) (size 15 to 20)
#    0.545    0.909    3.636    3.000    0.000    0.000 
#    0.000    0.909    0.000    5.091    0.000    0.000 
#    0.000    0.000    0.000    7.818    0.000    0.000 
#
# Total GULP energy -368189.015090 kJ/mol
# GULP energy per Si atom -5578.621441 kJ/mol
# Density = 1.617190 g / cm^3
# Si number density = 16.208790 Si / 1000 Ang^3
#
#
#
# Elastic Constant Matrix: (Units=GPa)
#
#
# Indices 1 2 3 4 5 6 
#
# 1 127.6626 86.8331 71.8096 0.0000 0.0000 0.0000
# 2 86.8331 127.6626 71.8096 0.0000 0.0000 0.0000
# 3 71.8096 71.8096 139.3333 0.0000 0.0000 0.0000
# 4 0.0000 0.0000 0.0000 18.1962 0.0000 0.0000
# 5 0.0000 0.0000 0.0000 0.0000 18.1962 0.0000
# 6 0.0000 0.0000 0.0000 0.0000 0.0000 20.4147
#
#
#
# Elastic Compliance Matrix: (Units=1/GPa)
#
#
# Indices 1 2 3 4 5 6 
#
# 1 0.015805 -0.008687 -0.003669 0.000000 0.000000 0.000000
# 2 -0.008687 0.015805 -0.003669 0.000000 0.000000 0.000000
# 3 -0.003669 -0.003669 0.010959 0.000000 0.000000 0.000000
# 4 0.000000 0.000000 0.000000 0.054957 0.000000 0.000000
# 5 0.000000 0.000000 0.000000 0.000000 0.054957 0.000000
# 6 0.000000 0.000000 0.000000 0.000000 0.000000 0.048984
#
#
# Mechanical properties :
#
#
# Convention : Reuss Voigt Hill
#
# Bulk Modulus (GPa) = 95.05044 95.06257 95.05651
# Shear Modulus (GPa) = 21.09506 22.30850 21.70178
#
# Velocity S-wave (km/s) = 3.61149 3.71390 3.66305
# Velocity P-wave (km/s) = 8.72692 8.78447 8.75574
#
# Compressibility (1/GPa) = 0.01052073
#
# Stress axis : x y z
#
# Youngs Moduli (GPa) = 63.26969 63.26969 91.25200
#
# Poissons Ratio (x) = 0.54961 0.33478
# Poissons Ratio (y) = 0.54961 0.33478
# Poissons Ratio (z) = 0.23212 0.23212
#
# Static dielectric constant tensor:
#      x y z
#    x 1.523750 0.000000 0.000000 
#    y 0.000000 1.523750 0.000000 
#    z 0.000000 0.000000 1.520420 
# 
# From -- ./inp_files/1017.got.cif
#   From: 2010.05.17/outbox.cif.g08.bks.cpg/sg183_1_cif.got.tgz:1017.got - 2010.05.20 12:02:58.
