data_PCOD9585064
_publ_section_title
;
Structure prediction by ZEFSAII (Michael W. Deem and Ramdas Pophale) SiO2 
 PCOD9585064
Probable space group: P 6 M M
;
_chemical_formula_sum "Si O2"
_cell_formula_units_Z 84
_cell_length_a 17.977965
_cell_length_b 17.977965
_cell_length_c 18.191067
_cell_angle_alpha 90.000000
_cell_angle_beta 90.000000
_cell_angle_gamma 120.000000
_cell_volume 5091.782760
_symmetry_space_group_name_H-M "P 6 M M"
_symmetry_group_IT_number 183
_symmetry_cell_setting 'hexagonal'
loop_
_space_group_symop_operation_xyz
x,y,z
x-y,x,z
-y,x-y,z
-x,-y,z
-x+y,-x,z
y,-x+y,z
-x+y,y,z
x,x-y,z
-y,-x,z
y,x,z
x-y,-y,z
-x,-x+y,z
loop_
_atom_site_type_symbol
_atom_site_label
_atom_site_fract_x
_atom_site_fract_y
_atom_site_fract_z
Si Si1 0.508062 0.666888 0.895160
Si Si2 0.633379 0.902111 0.027769
Si Si3 0.729351 0.097792 0.755934
Si Si4 0.842071 0.332609 0.615450
Si Si5 0.635310 0.531578 0.333183
Si Si6 0.900620 0.265331 0.198197
Si Si7 0.631215 0.899796 0.475484
O O1 0.482307 0.741154 0.893332
O O2 0.425751 0.574250 0.885476
O O3 0.576534 0.690137 0.830006
O O4 0.556087 0.676446 0.972080
O O5 0.660887 0.830443 0.014332
O O6 0.606766 0.894370 0.113378
O O7 0.707213 0.000000 0.015684
O O8 0.829595 0.170406 0.753429
O O9 0.684171 0.116728 0.687533
O O10 0.707222 0.000000 0.752896
O O11 0.851852 0.425926 0.615193
O O12 0.741900 0.258100 0.615046
O O13 0.884838 0.315957 0.544341
O O14 0.569371 0.430630 0.340436
O O15 0.578198 0.578198 0.333379
O O16 0.685650 0.559125 0.256426
O O17 0.697792 0.573321 0.402084
O O18 0.835613 0.164387 0.207009
O O19 0.000000 0.295582 0.212480
O O20 0.664899 0.832450 0.483445
O O21 0.702733 0.000000 0.471648
#
# Coordination Sequence:
#
# PCOD9585064 Si02
#       7
#    12  12  12  12  12  12  12
#     4  10  20  33  49  70  97 127 157 189 228 275
#     4   9  18  31  47  68  93 122 156 195 238 280
#     4  10  21  35  51  72  97 126 159 196 237 278
#     4  10  20  33  50  73 101 131 161 194 234 279
#     4   9  17  29  46  68  92 118 150 188 228 272
#     4   9  17  30  48  69  93 122 157 195 235 279
#     4  10  20  33  50  72  97 126 160 198 239 281
#
# _framework density 16.497167999999999
#
# number of rings (size 3 to 8) (size 9 to 14) (size 15 to 20)
#    0.000    2.429    0.000    2.429    0.000    4.000 
#    0.000    2.857    0.000    3.714    0.000    2.000 
#    0.000   10.286    0.000    0.286    0.000    1.143 
#
# Total GULP energy -468267.267663 kJ/mol
# GULP energy per Si atom -5574.610329 kJ/mol
# Density = 1.645962 g / cm^3
# Si number density = 16.497168 Si / 1000 Ang^3
#
#
#
# Elastic Constant Matrix: (Units=GPa)
#
#
# Indices 1 2 3 4 5 6 
#
# 1 92.1742 71.5877 39.8850 0.0000 0.0000 0.0000
# 2 71.5877 92.1742 39.8850 0.0000 0.0000 0.0000
# 3 39.8850 39.8850 84.4840 0.0000 0.0000 0.0000
# 4 0.0000 0.0000 0.0000 16.5863 0.0000 0.0000
# 5 0.0000 0.0000 0.0000 0.0000 16.5863 0.0000
# 6 0.0000 0.0000 0.0000 0.0000 0.0000 10.2932
#
#
#
# Elastic Compliance Matrix: (Units=1/GPa)
#
#
# Indices 1 2 3 4 5 6 
#
# 1 0.028253 -0.020323 -0.003744 0.000000 0.000000 0.000000
# 2 -0.020323 0.028253 -0.003744 0.000000 0.000000 0.000000
# 3 -0.003744 -0.003744 0.015371 0.000000 0.000000 0.000000
# 4 0.000000 0.000000 0.000000 0.060291 0.000000 0.000000
# 5 0.000000 0.000000 0.000000 0.000000 0.060291 0.000000
# 6 0.000000 0.000000 0.000000 0.000000 0.000000 0.097151
#
#
# Mechanical properties :
#
#
# Convention : Reuss Voigt Hill
#
# Bulk Modulus (GPa) = 61.51418 63.50532 62.50975
# Shear Modulus (GPa) = 14.25928 16.52482 15.39205
#
# Velocity S-wave (km/s) = 2.94317 3.16836 3.05784
# Velocity P-wave (km/s) = 6.99416 7.20853 7.10216
#
# Compressibility (1/GPa) = 0.01625641
#
# Stress axis : x y z
#
# Youngs Moduli (GPa) = 35.39470 35.39470 65.05559
#
# Poissons Ratio (x) = 0.71932 0.24355
# Poissons Ratio (y) = 0.71932 0.24355
# Poissons Ratio (z) = 0.13251 0.13251
#
# Static dielectric constant tensor:
#      x y z
#    x 1.543340 0.000000 0.000000 
#    y 0.000000 1.543340 0.000000 
#    z 0.000000 0.000000 1.567140 
# 
# From -- ./inp_files/2267.got.cif
#   From: 2010.05.17/outbox.cif.g08.bks.cpg/sg183_2_cif.got.tgz:2267.got - 2010.05.20 12:02:58.
