data_PCOD9585544
_publ_section_title
;
Structure prediction by ZEFSAII (Michael W. Deem and Ramdas Pophale) SiO2 
 PCOD9585544
Probable space group: P -6 M 2
;
_chemical_formula_sum "Si O2"
_cell_formula_units_Z 84
_cell_length_a 17.829271
_cell_length_b 17.829271
_cell_length_c 15.768780
_cell_angle_alpha 90.000000
_cell_angle_beta 90.000000
_cell_angle_gamma 120.000000
_cell_volume 4341.061096
_symmetry_space_group_name_H-M "P -6 M 2"
_symmetry_group_IT_number 187
_symmetry_cell_setting 'hexagonal'
loop_
_space_group_symop_operation_xyz
x,y,z
-x+y,-x,-z
-y,x-y,z
x,y,-z
-x+y,-x,z
-y,x-y,-z
-y,-x,-z
-x+y,y,-z
x,x-y,-z
-x+y,y,z
x,x-y,z
-y,-x,z
loop_
_atom_site_type_symbol
_atom_site_label
_atom_site_fract_x
_atom_site_fract_y
_atom_site_fract_z
Si Si1 0.825402 0.824914 0.237580
Si Si2 0.970024 0.400417 0.344738
Si Si3 0.838450 0.505210 0.814318
Si Si4 0.279058 0.050409 0.593066
Si Si5 0.320089 0.047060 0.095444
Si Si6 0.305582 0.442878 0.092269
Si Si7 0.499610 0.665507 0.720144
O O1 0.926275 0.852550 0.245146
O O2 0.780166 0.780494 0.326804
O O3 0.784522 0.751311 0.165071
O O4 0.814099 0.907050 0.218848
O O5 0.962892 0.481446 0.380822
O O6 0.904511 0.363916 0.265050
O O7 0.949049 0.318117 0.400920
O O8 0.069163 0.439742 0.313644
O O9 0.742844 0.485688 0.789836
O O10 0.836444 0.418222 0.845393
O O11 0.877355 0.584735 0.879754
O O12 0.239414 0.017345 0.500000
O O13 0.295588 0.147794 0.601533
O O14 0.325866 0.959942 0.097354
O O15 0.295868 0.057748 0.000000
O O16 0.202282 0.404563 0.093582
O O17 0.338118 0.497395 0.177463
O O18 0.335932 0.486501 0.000000
O O19 0.525941 0.762971 0.696083
O O20 0.402538 0.597463 0.691776
#
# Coordination Sequence:
#
# PCOD9585544 Si02
#       7
#    12  12  12  12  12  12  12
#     4  11  23  40  61  87 121 159 199 244 294 353
#     4  10  20  35  58  87 118 153 195 240 292 353
#     4  11  22  38  58  83 115 153 197 247 302 361
#     4  10  21  39  64  92 121 154 191 237 298 362
#     4  11  22  37  60  85 114 154 199 245 295 350
#     4   9  17  29  47  73 104 140 185 236 288 339
#     4  10  19  32  50  76 109 148 191 238 289 342
#
# _framework density 19.350107000000001
#
# number of rings (size 3 to 8) (size 9 to 14) (size 15 to 20)
#    0.000    1.714    2.857    1.714    0.000    4.857 
#    0.000    1.429    0.000    3.714    0.000    0.000 
#    0.000    1.143    0.000    0.000    0.000    0.000 
#
# Total GULP energy -468527.245268 kJ/mol
# GULP energy per Si atom -5577.705301 kJ/mol
# Density = 1.930607 g / cm^3
# Si number density = 19.350107 Si / 1000 Ang^3
#
#
#
# Elastic Constant Matrix: (Units=GPa)
#
#
# Indices 1 2 3 4 5 6 
#
# 1 98.0810 50.5268 27.2303 0.0000 0.0013 0.0000
# 2 50.5268 98.0810 27.2303 0.0000 -0.0013 0.0000
# 3 27.2303 27.2303 87.8606 0.0000 0.0000 0.0000
# 4 0.0000 0.0000 0.0000 30.6561 0.0000 -0.0013
# 5 0.0013 -0.0013 0.0000 0.0000 30.6561 0.0000
# 6 0.0000 0.0000 0.0000 -0.0013 0.0000 23.7771
#
#
#
# Elastic Compliance Matrix: (Units=1/GPa)
#
#
# Indices 1 2 3 4 5 6 
#
# 1 0.014310 -0.006719 -0.002353 0.000000 -0.000001 0.000000
# 2 -0.006719 0.014310 -0.002353 0.000000 0.000001 0.000000
# 3 -0.002353 -0.002353 0.012840 0.000000 0.000000 0.000000
# 4 0.000000 0.000000 0.000000 0.032620 0.000000 0.000002
# 5 -0.000001 0.000001 0.000000 0.000000 0.032620 0.000000
# 6 0.000000 0.000000 0.000000 0.000002 0.000000 0.042057
#
#
# Mechanical properties :
#
#
# Convention : Reuss Voigt Hill
#
# Bulk Modulus (GPa) = 53.72968 54.88859 54.30914
# Shear Modulus (GPa) = 28.12000 28.95353 28.53676
#
# Velocity S-wave (km/s) = 3.81625 3.87240 3.84443
# Velocity P-wave (km/s) = 6.87355 6.95856 6.91619
#
# Compressibility (1/GPa) = 0.01861169
#
# Stress axis : x y z
#
# Youngs Moduli (GPa) = 69.88123 69.88123 77.88138
#
# Poissons Ratio (x) = 0.46951 0.18324
# Poissons Ratio (y) = 0.46951 0.18324
# Poissons Ratio (z) = 0.16441 0.16441
#
# Static dielectric constant tensor:
#      x y z
#    x 1.676550 0.000000 0.000000 
#    y 0.000000 1.676550 0.000000 
#    z 0.000000 0.000000 1.692120 
# 
# From -- ./inp_files/2585.got.cif
#   From: 2010.05.17/outbox.cif.g08.bks.cpg/sg187_2_cif.got.tgz:2585.got - 2010.05.20 12:09:04.
