data_PCOD9585027
_publ_section_title
;
Structure prediction by ZEFSAII (Michael W. Deem and Ramdas Pophale) SiO2 
 PCOD9585027
Probable space group: P 6 M M
;
_chemical_formula_sum "Si O2"
_cell_formula_units_Z 72
_cell_length_a 22.808105
_cell_length_b 22.808105
_cell_length_c 9.721327
_cell_angle_alpha 90.000000
_cell_angle_beta 90.000000
_cell_angle_gamma 120.000000
_cell_volume 4379.601450
_symmetry_space_group_name_H-M "P 6 M M"
_symmetry_group_IT_number 183
_symmetry_cell_setting 'hexagonal'
loop_
_space_group_symop_operation_xyz
x,y,z
x-y,x,z
-y,x-y,z
-x,-y,z
-x+y,-x,z
y,-x+y,z
-x+y,y,z
x,x-y,z
-y,-x,z
y,x,z
x-y,-y,z
-x,-x+y,z
loop_
_atom_site_type_symbol
_atom_site_label
_atom_site_fract_x
_atom_site_fract_y
_atom_site_fract_z
Si Si1 0.666314 0.192928 0.884970
Si Si2 0.391765 0.923601 0.672317
Si Si3 0.422950 0.281479 0.113443
Si Si4 0.603070 0.919988 0.411767
Si Si5 0.077657 0.784779 0.927628
Si Si6 0.790978 0.712710 0.605990
O O1 0.602011 0.204021 0.877925
O O2 0.736621 0.263380 0.867691
O O3 0.657057 0.137340 0.771380
O O4 0.669021 0.159177 0.028728
O O5 0.463345 0.926690 0.681063
O O6 0.363828 0.908241 0.517835
O O7 0.407011 0.000000 0.706820
O O8 0.421802 0.210901 0.122804
O O9 0.420018 0.304771 0.266078
O O10 0.356704 0.264046 0.022608
O O11 0.651783 0.901628 0.499664
O O12 0.646531 0.000000 0.385879
O O13 0.137658 0.862343 0.955167
O O14 0.083839 0.772777 0.764927
O O15 0.000000 0.766174 0.950059
O O16 0.870137 0.740273 0.590010
O O17 0.767114 0.767114 0.582329
#
# Coordination Sequence:
#
# PCOD9585027 Si02
#       6
#    12  12  12  12  12  12
#     4  10  21  37  56  76  99 130 167 204 241 284
#     4   9  19  35  53  74  99 126 158 197 240 285
#     4  10  20  31  46  70  97 126 160 199 242 286
#     4  10  19  30  47  71  99 128 156 193 241 290
#     4   9  17  30  48  70  97 129 165 203 244 292
#     4   9  17  29  46  67  92 124 160 198 240 287
#
# _framework density 16.439851999999998
#
# number of rings (size 3 to 8) (size 9 to 14) (size 15 to 20)
#    0.000    2.500    0.000    2.167    0.000    6.000 
#    0.000    0.000    0.000    0.333    0.000    8.167 
#    0.000    0.000    0.000    5.333    0.000    7.333 
#
# Total GULP energy -401156.088215 kJ/mol
# GULP energy per Si atom -5571.612336 kJ/mol
# Density = 1.640243 g / cm^3
# Si number density = 16.439852 Si / 1000 Ang^3
#
#
#
# Elastic Constant Matrix: (Units=GPa)
#
#
# Indices 1 2 3 4 5 6 
#
# 1 66.7180 42.2655 37.7009 0.0000 0.0000 0.0000
# 2 42.2655 66.7180 37.7009 0.0000 0.0000 0.0000
# 3 37.7009 37.7009 96.5361 0.0000 0.0000 0.0000
# 4 0.0000 0.0000 0.0000 21.1895 0.0000 0.0000
# 5 0.0000 0.0000 0.0000 0.0000 21.1895 0.0000
# 6 0.0000 0.0000 0.0000 0.0000 0.0000 12.2262
#
#
#
# Elastic Compliance Matrix: (Units=1/GPa)
#
#
# Indices 1 2 3 4 5 6 
#
# 1 0.026734 -0.014161 -0.004910 0.000000 0.000000 0.000000
# 2 -0.014161 0.026734 -0.004910 0.000000 0.000000 0.000000
# 3 -0.004910 -0.004910 0.014194 0.000000 0.000000 0.000000
# 4 0.000000 0.000000 0.000000 0.047193 0.000000 0.000000
# 5 0.000000 0.000000 0.000000 0.000000 0.047193 0.000000
# 6 0.000000 0.000000 0.000000 0.000000 0.000000 0.081791
#
#
# Mechanical properties :
#
#
# Convention : Reuss Voigt Hill
#
# Bulk Modulus (GPa) = 50.76376 51.70074 51.23225
# Shear Modulus (GPa) = 16.75770 18.40801 17.58286
#
# Velocity S-wave (km/s) = 3.19616 3.34985 3.27391
# Velocity P-wave (km/s) = 6.67579 6.81753 6.74703
#
# Compressibility (1/GPa) = 0.01969909
#
# Stress axis : x y z
#
# Youngs Moduli (GPa) = 37.40517 37.40517 70.45214
#
# Poissons Ratio (x) = 0.52971 0.34593
# Poissons Ratio (y) = 0.52971 0.34593
# Poissons Ratio (z) = 0.18367 0.18367
#
# Static dielectric constant tensor:
#      x y z
#    x 1.560830 0.000000 0.000000 
#    y 0.000000 1.560830 0.000000 
#    z 0.000000 0.000000 1.549700 
# 
# From -- ./inp_files/1134.got.cif
#   From: 2010.05.17/outbox.cif.g08.bks.cpg/sg183_1_cif.got.tgz:1134.got - 2010.05.20 12:02:58.
