data_PCOD9585642
_publ_section_title
;
Structure prediction by ZEFSAII (Michael W. Deem and Ramdas Pophale) SiO2 
 PCOD9585642
Probable space group: P -6 M 2
;
_chemical_formula_sum "Si O2"
_cell_formula_units_Z 60
_cell_length_a 12.675786
_cell_length_b 12.675786
_cell_length_c 26.577805
_cell_angle_alpha 90.000000
_cell_angle_beta 90.000000
_cell_angle_gamma 120.000000
_cell_volume 3698.277877
_symmetry_space_group_name_H-M "P -6 M 2"
_symmetry_group_IT_number 187
_symmetry_cell_setting 'hexagonal'
loop_
_space_group_symop_operation_xyz
x,y,z
-x+y,-x,-z
-y,x-y,z
x,y,-z
-x+y,-x,z
-y,x-y,-z
-y,-x,-z
-x+y,y,-z
x,x-y,-z
-x+y,y,z
x,x-y,z
-y,-x,z
loop_
_atom_site_type_symbol
_atom_site_label
_atom_site_fract_x
_atom_site_fract_y
_atom_site_fract_z
Si Si1 0.251170 0.250875 0.000000
Si Si2 0.749221 0.999973 0.804359
Si Si3 0.999473 0.746665 0.610311
Si Si4 0.916968 0.584127 0.902304
Si Si5 0.251354 0.251114 0.500000
Si Si6 0.082836 0.416304 0.706356
O O1 0.331720 0.313226 0.049370
O O2 0.221972 0.110986 0.000000
O O3 0.127982 0.255964 0.000000
O O4 0.882773 0.117228 0.798764
O O5 0.686190 0.024262 0.851947
O O6 0.758591 0.879296 0.812526
O O7 0.670876 0.979439 0.754135
O O8 0.875437 0.750873 0.616754
O O9 0.996946 0.692564 0.554591
O O10 0.019102 0.675311 0.655401
O O11 0.115860 0.884141 0.611804
O O12 0.776749 0.553497 0.903700
O O13 0.924209 0.462105 0.903225
O O14 0.231122 0.115561 0.500000
O O15 0.122056 0.244112 0.500000
O O16 0.221865 0.443729 0.704838
O O17 0.078499 0.539250 0.710738
#
# Coordination Sequence:
#
# PCOD9585642 Si02
#       6
#     6  12  12  12   6  12
#     4  10  20  34  54  78 104 134 168 210 256 298
#     4  10  20  34  54  78 102 126 154 195 245 294
#     4   9  16  27  46  71  97 122 150 190 239 289
#     4  10  20  34  53  76 103 135 169 203 238 281
#     4   8  13  22  39  66  96 122 148 182 232 288
#     4  10  20  33  48  66  92 127 164 198 232 276
#
# _framework density 16.223768
#
# number of rings (size 3 to 8) (size 9 to 14) (size 15 to 20)
#    0.000    2.400    0.000    3.100    0.000    1.600 
#    0.000    5.500    0.000   11.200    0.000    1.400 
#    0.000    0.000    0.000    0.000    0.000    0.000 
#
# Total GULP energy -334491.761931 kJ/mol
# GULP energy per Si atom -5574.862699 kJ/mol
# Density = 1.618684 g / cm^3
# Si number density = 16.223768 Si / 1000 Ang^3
#
#
#
# Elastic Constant Matrix: (Units=GPa)
#
#
# Indices 1 2 3 4 5 6 
#
# 1 106.9015 73.9602 80.7518 0.0000 -0.0003 0.0000
# 2 73.9602 106.9015 80.7518 0.0000 0.0003 0.0000
# 3 80.7518 80.7518 165.4155 0.0000 0.0000 0.0000
# 4 0.0000 0.0000 0.0000 11.6607 0.0000 0.0003
# 5 -0.0003 0.0003 0.0000 0.0000 11.6607 0.0000
# 6 0.0000 0.0000 0.0000 0.0003 0.0000 16.4706
#
#
#
# Elastic Compliance Matrix: (Units=1/GPa)
#
#
# Indices 1 2 3 4 5 6 
#
# 1 0.020080 -0.010278 -0.004785 0.000000 0.000001 0.000000
# 2 -0.010278 0.020080 -0.004785 0.000000 -0.000001 0.000000
# 3 -0.004785 -0.004785 0.010717 0.000000 0.000000 0.000000
# 4 0.000000 0.000000 0.000000 0.085758 0.000000 -0.000002
# 5 0.000001 -0.000001 0.000000 0.000000 0.085758 0.000000
# 6 0.000000 0.000000 0.000000 -0.000002 0.000000 0.060714
#
#
# Mechanical properties :
#
#
# Convention : Reuss Voigt Hill
#
# Bulk Modulus (GPa) = 89.43784 94.46068 91.94926
# Shear Modulus (GPa) = 15.31255 17.54204 16.42729
#
# Velocity S-wave (km/s) = 3.07552 3.29181 3.18550
# Velocity P-wave (km/s) = 8.23766 8.53218 8.38621
#
# Compressibility (1/GPa) = 0.01118095
#
# Stress axis : x y z
#
# Youngs Moduli (GPa) = 49.80187 49.80187 93.30679
#
# Poissons Ratio (x) = 0.51184 0.44648
# Poissons Ratio (y) = 0.51184 0.44648
# Poissons Ratio (z) = 0.23831 0.23831
#
# Static dielectric constant tensor:
#      x y z
#    x 1.507160 0.000000 0.000000 
#    y 0.000000 1.507160 0.000000 
#    z 0.000000 0.000000 1.566460 
# 
# From -- ./inp_files/4165.got.cif
#   From: 2010.05.17/outbox.cif.g08.bks.cpg/sg187_3_cif.got.tgz:4165.got - 2010.05.20 12:09:04.
