data_PCOD9585599
_publ_section_title
;
Structure prediction by ZEFSAII (Michael W. Deem and Ramdas Pophale) SiO2 
 PCOD9585599
Probable space group: P -6 M 2
;
_chemical_formula_sum "Si O2"
_cell_formula_units_Z 60
_cell_length_a 13.347103
_cell_length_b 13.347103
_cell_length_c 25.443144
_cell_angle_alpha 90.000000
_cell_angle_beta 90.000000
_cell_angle_gamma 120.000000
_cell_volume 3925.323294
_symmetry_space_group_name_H-M "P -6 M 2"
_symmetry_group_IT_number 187
_symmetry_cell_setting 'hexagonal'
loop_
_space_group_symop_operation_xyz
x,y,z
-x+y,-x,-z
-y,x-y,z
x,y,-z
-x+y,-x,z
-y,x-y,-z
-y,-x,-z
-x+y,y,-z
x,x-y,-z
-x+y,y,z
x,x-y,z
-y,-x,z
loop_
_atom_site_type_symbol
_atom_site_label
_atom_site_fract_x
_atom_site_fract_y
_atom_site_fract_z
Si Si1 0.333200 0.902839 0.733493
Si Si2 0.428879 0.333191 0.059877
Si Si3 0.100135 0.667315 0.562472
Si Si4 0.569778 0.667355 0.143804
Si Si5 0.905566 0.333418 0.353577
O O1 0.437051 0.874102 0.726462
O O2 0.210601 0.789400 0.721463
O O3 0.333483 0.933450 0.794850
O O4 0.364600 0.010694 0.695961
O O5 0.428380 0.214190 0.066519
O O6 0.559179 0.440822 0.065168
O O7 0.353572 0.350765 0.103655
O O8 0.390917 0.337663 0.000000
O O9 0.081004 0.668518 0.500000
O O10 0.128902 0.564451 0.572578
O O11 0.209826 0.790175 0.577416
O O12 0.985928 0.633557 0.595704
O O13 0.572595 0.786298 0.133278
O O14 0.440050 0.559951 0.136782
O O15 0.879029 0.439515 0.353277
O O16 0.788688 0.211313 0.352897
#
# Coordination Sequence:
#
# PCOD9585599 Si02
#       5
#    12  12  12  12  12
#     4   9  17  30  49  71  92 115 145 184 229 273
#     4   9  17  29  45  65  89 118 152 188 223 259
#     4   9  17  30  50  75  98 118 144 184 232 274
#     4   9  17  29  46  69  95 119 143 176 223 277
#     4  10  20  32  46  66  94 126 156 185 219 262
#
# _framework density 15.285365000000001
#
# number of rings (size 3 to 8) (size 9 to 14) (size 15 to 20)
#    0.000    2.800    0.000    1.600    0.000    4.800 
#    0.000    2.000    0.000    8.400    0.000    0.000 
#    0.000    0.000    0.000    0.000    0.000    0.000 
#
# Total GULP energy -334358.889157 kJ/mol
# GULP energy per Si atom -5572.648153 kJ/mol
# Density = 1.525057 g / cm^3
# Si number density = 15.285365 Si / 1000 Ang^3
#
#
#
# Elastic Constant Matrix: (Units=GPa)
#
#
# Indices 1 2 3 4 5 6 
#
# 1 105.3201 62.6841 68.8539 0.0000 0.0000 0.0000
# 2 62.6841 105.3201 68.8539 0.0000 0.0000 0.0000
# 3 68.8539 68.8539 89.5509 0.0000 0.0000 0.0000
# 4 0.0000 0.0000 0.0000 23.2871 0.0000 0.0000
# 5 0.0000 0.0000 0.0000 0.0000 23.2871 0.0000
# 6 0.0000 0.0000 0.0000 0.0000 0.0000 21.3180
#
#
#
# Elastic Compliance Matrix: (Units=1/GPa)
#
#
# Indices 1 2 3 4 5 6 
#
# 1 0.019776 -0.003679 -0.012377 0.000000 0.000000 0.000000
# 2 -0.003679 0.019776 -0.012377 0.000000 0.000000 0.000000
# 3 -0.012377 -0.012377 0.030199 0.000000 0.000000 0.000000
# 4 0.000000 0.000000 0.000000 0.042942 0.000000 0.000000
# 5 0.000000 0.000000 0.000000 0.000000 0.042942 0.000000
# 6 0.000000 0.000000 0.000000 0.000000 0.000000 0.046909
#
#
# Mechanical properties :
#
#
# Convention : Reuss Voigt Hill
#
# Bulk Modulus (GPa) = 77.60044 77.88608 77.74326
# Shear Modulus (GPa) = 18.96072 20.23173 19.59623
#
# Velocity S-wave (km/s) = 3.52582 3.64208 3.58442
# Velocity P-wave (km/s) = 8.21299 8.29166 8.25242
#
# Compressibility (1/GPa) = 0.01288652
#
# Stress axis : x y z
#
# Youngs Moduli (GPa) = 50.56720 50.56720 33.11354
#
# Poissons Ratio (x) = 0.18602 0.40983
# Poissons Ratio (y) = 0.18602 0.40983
# Poissons Ratio (z) = 0.62585 0.62585
#
# Static dielectric constant tensor:
#      x y z
#    x 1.478400 0.000000 0.000000 
#    y 0.000000 1.478400 0.000000 
#    z 0.000000 0.000000 1.530450 
# 
# From -- ./inp_files/3502.got.cif
#   From: 2010.05.17/outbox.cif.g08.bks.cpg/sg187_2_cif.got.tgz:3502.got - 2010.05.20 12:09:04.
