data_PCOD9585955
_publ_section_title
;
Structure prediction by ZEFSAII (Michael W. Deem and Ramdas Pophale) SiO2 
 PCOD9585955
Probable space group: P -6 C 2
;
_chemical_formula_sum "Si O2"
_cell_formula_units_Z 64
_cell_length_a 16.246752
_cell_length_b 16.246752
_cell_length_c 16.859248
_cell_angle_alpha 90.000000
_cell_angle_beta 90.000000
_cell_angle_gamma 120.000000
_cell_volume 3853.913238
_symmetry_space_group_name_H-M "P -6 C 2"
_symmetry_group_IT_number 188
_symmetry_cell_setting 'hexagonal'
loop_
_space_group_symop_operation_xyz
x,y,z
-x+y,-x,1/2-z
-y,x-y,z
x,y,1/2-z
-x+y,-x,z
-y,x-y,1/2-z
-y,-x,-z
-x+y,y,-z
x,x-y,-z
-x+y,y,1/2+z
x,x-y,1/2+z
-y,-x,1/2+z
loop_
_atom_site_type_symbol
_atom_site_label
_atom_site_fract_x
_atom_site_fract_y
_atom_site_fract_z
Si Si1 0.692043 0.183949 0.339104
Si Si2 0.785519 0.881011 0.342351
Si Si3 0.633320 0.482838 0.421295
Si Si4 0.741738 0.037330 0.924774
Si Si5 0.000000 0.000000 0.846827
Si Si6 0.781372 0.716335 0.611051
O O1 0.723447 0.220420 0.250000
O O2 0.582388 0.148950 0.351275
O O3 0.753171 0.266324 0.403803
O O4 0.709882 0.097306 0.355852
O O5 0.782177 0.856624 0.250000
O O6 0.721664 0.784832 0.390725
O O7 0.894029 0.926970 0.373368
O O8 0.768675 0.970031 0.350043
O O9 0.573891 0.426110 0.500000
O O10 0.662632 0.593292 0.418013
O O11 0.838048 0.116649 0.880150
O O12 0.765675 0.045087 0.017533
O O13 0.000000 0.000000 0.750000
#
# Coordination Sequence:
#
# PCOD9585955 Si02
#       6
#    12  12  12  12   4  12
#     4  11  22  35  55  80 106 140 186 232 277 331
#     4  11  20  33  52  76 110 143 180 223 266 318
#     4  11  21  38  55  74 106 145 184 230 279 326
#     4  10  21  34  53  76 102 145 189 225 263 328
#     4   9  18  30  46  71 103 144 172 203 256 306
#     4  10  20  35  50  75 107 144 180 222 275 320
#
# _framework density 16.606497999999998
#
# number of rings (size 3 to 8) (size 9 to 14) (size 15 to 20)
#    0.000    1.500    3.750    2.625    0.000    3.750 
#    0.000    0.000    0.000    0.000    0.000    0.000 
#    1.875    0.375    1.125    0.000    0.000    0.000 
#
# Total GULP energy -356757.648632 kJ/mol
# GULP energy per Si atom -5574.338260 kJ/mol
# Density = 1.656870 g / cm^3
# Si number density = 16.606498 Si / 1000 Ang^3
#
#
#
# Elastic Constant Matrix: (Units=GPa)
#
#
# Indices 1 2 3 4 5 6 
#
# 1 89.3520 45.4611 24.8703 0.0000 0.0000 0.0000
# 2 45.4611 89.3520 24.8703 0.0000 0.0000 0.0000
# 3 24.8703 24.8703 59.8847 0.0000 0.0000 0.0000
# 4 0.0000 0.0000 0.0000 19.8425 0.0000 0.0000
# 5 0.0000 0.0000 0.0000 0.0000 19.8425 0.0000
# 6 0.0000 0.0000 0.0000 0.0000 0.0000 21.9455
#
#
#
# Elastic Compliance Matrix: (Units=1/GPa)
#
#
# Indices 1 2 3 4 5 6 
#
# 1 0.015772 -0.007012 -0.003638 0.000000 0.000000 0.000000
# 2 -0.007012 0.015772 -0.003638 0.000000 0.000000 0.000000
# 3 -0.003638 -0.003638 0.019721 0.000000 0.000000 0.000000
# 4 0.000000 0.000000 0.000000 0.050397 0.000000 0.000000
# 5 0.000000 0.000000 0.000000 0.000000 0.050397 0.000000
# 6 0.000000 0.000000 0.000000 0.000000 0.000000 0.045568
#
#
# Mechanical properties :
#
#
# Convention : Reuss Voigt Hill
#
# Bulk Modulus (GPa) = 44.07555 47.66577 45.87066
# Shear Modulus (GPa) = 21.38907 21.88522 21.63715
#
# Velocity S-wave (km/s) = 3.59276 3.63419 3.61353
# Velocity P-wave (km/s) = 6.61886 6.80993 6.71507
#
# Compressibility (1/GPa) = 0.02268832
#
# Stress axis : x y z
#
# Youngs Moduli (GPa) = 63.40405 63.40405 50.70856
#
# Poissons Ratio (x) = 0.44458 0.18448
# Poissons Ratio (y) = 0.44458 0.18448
# Poissons Ratio (z) = 0.23067 0.23067
#
# Static dielectric constant tensor:
#      x y z
#    x 1.575970 0.000000 0.000000 
#    y 0.000000 1.575970 0.000000 
#    z 0.000000 0.000000 1.592360 
# 
# From -- ./inp_files/3082.got.cif
#   From: 2010.05.17/outbox.cif.g08.bks.cpg/sg188_2_cif.got.tgz:3082.got - 2010.05.20 12:11:46.
