data_PCOD9585905
_publ_section_title
;
Structure prediction by ZEFSAII (Michael W. Deem and Ramdas Pophale) SiO2 
 PCOD9585905
Probable space group: P -6 C 2
;
_chemical_formula_sum "Si O2"
_cell_formula_units_Z 64
_cell_length_a 13.485804
_cell_length_b 13.485804
_cell_length_c 19.412881
_cell_angle_alpha 90.000000
_cell_angle_beta 90.000000
_cell_angle_gamma 120.000000
_cell_volume 3057.555232
_symmetry_space_group_name_H-M "P -6 C 2"
_symmetry_group_IT_number 188
_symmetry_cell_setting 'hexagonal'
loop_
_space_group_symop_operation_xyz
x,y,z
-x+y,-x,1/2-z
-y,x-y,z
x,y,1/2-z
-x+y,-x,z
-y,x-y,1/2-z
-y,-x,-z
-x+y,y,-z
x,x-y,-z
-x+y,y,1/2+z
x,x-y,1/2+z
-y,-x,1/2+z
loop_
_atom_site_type_symbol
_atom_site_label
_atom_site_fract_x
_atom_site_fract_y
_atom_site_fract_z
Si Si1 0.159638 0.900743 0.825754
Si Si2 0.371978 0.016399 0.328819
Si Si3 0.133680 0.503667 0.673457
Si Si4 0.797142 0.801461 0.964649
Si Si5 0.884076 0.552093 0.522212
Si Si6 0.333335 0.666668 0.418979
O O1 0.138362 0.931023 0.750000
O O2 0.072838 0.764446 0.836275
O O3 0.288366 0.920417 0.828846
O O4 0.158340 0.978259 0.886334
O O5 0.388361 0.064784 0.250000
O O6 0.443139 0.948951 0.331557
O O7 0.414846 0.096683 0.396452
O O8 0.188600 0.536333 0.750000
O O9 0.225902 0.556243 0.613477
O O10 0.746179 0.873090 0.000000
O O11 0.711586 0.668569 0.979092
O O12 0.914680 0.829360 0.000000
O O13 0.753881 0.507762 0.500000
O O14 0.918546 0.459273 0.500000
O O15 0.333334 0.666667 0.500000
#
# Coordination Sequence:
#
# PCOD9585905 Si02
#       6
#    12  12  12  12  12   4
#     4  10  20  36  60  90 127 172 220 267 320 388
#     4  10  20  37  63  92 127 172 219 271 324 388
#     4  10  19  34  54  82 129 180 219 259 318 384
#     4  11  23  42  65  93 127 169 213 266 330 392
#     4  11  24  44  68  96 131 174 219 274 331 391
#     4  12  22  26  40  84 133 182 223 255 298 395
#
# _framework density 20.931754999999999
#
# number of rings (size 3 to 8) (size 9 to 14) (size 15 to 20)
#    0.000    1.500    3.750    2.062    0.000    3.000 
#    0.000    5.625    0.000    0.375    0.000    0.000 
#    0.000    0.000    0.000    0.000    0.000    0.000 
#
# Total GULP energy -357400.631520 kJ/mol
# GULP energy per Si atom -5584.384868 kJ/mol
# Density = 2.088411 g / cm^3
# Si number density = 20.931755 Si / 1000 Ang^3
#
#
#
# Elastic Constant Matrix: (Units=GPa)
#
#
# Indices 1 2 3 4 5 6 
#
# 1 43.2501 27.1591 39.3558 -0.0011 0.0000 0.0001
# 2 27.1591 43.2505 39.3559 0.0009 -0.0001 0.0001
# 3 39.3558 39.3559 220.4207 0.0000 0.0005 0.0001
# 4 -0.0011 0.0009 0.0000 17.0320 0.0005 0.0001
# 5 0.0000 -0.0001 0.0005 0.0005 17.0312 -0.0010
# 6 0.0001 0.0001 0.0001 0.0001 -0.0010 8.0455
#
#
#
# Elastic Compliance Matrix: (Units=1/GPa)
#
#
# Indices 1 2 3 4 5 6 
#
# 1 0.039945 -0.022201 -0.003168 0.000004 0.000000 0.000000
# 2 -0.022201 0.039945 -0.003168 -0.000004 0.000000 0.000000
# 3 -0.003168 -0.003168 0.005668 0.000000 0.000000 0.000000
# 4 0.000004 -0.000004 0.000000 0.058713 -0.000002 0.000000
# 5 0.000000 0.000000 0.000000 -0.000002 0.058716 0.000007
# 6 0.000000 0.000000 0.000000 0.000000 0.000007 0.124292
#
#
# Mechanical properties :
#
#
# Convention : Reuss Voigt Hill
#
# Bulk Modulus (GPa) = 35.10732 57.62920 46.36826
# Shear Modulus (GPa) = 12.69522 21.82511 17.26017
#
# Velocity S-wave (km/s) = 2.46540 3.23256 2.87469
# Velocity P-wave (km/s) = 4.99129 6.44393 5.76356
#
# Compressibility (1/GPa) = 0.02848409
#
# Stress axis : x y z
#
# Youngs Moduli (GPa) = 25.03418 25.03440 176.42430
#
# Poissons Ratio (x) = 0.55578 0.55896
# Poissons Ratio (y) = 0.55578 0.55895
# Poissons Ratio (z) = 0.07932 0.07931
#
# Static dielectric constant tensor:
#      x y z
#    x 1.772080 0.000000 0.000000 
#    y 0.000000 1.772080 0.000000 
#    z 0.000000 0.000000 1.804090 
# 
# From -- ./inp_files/3050.got.cif
#   From: 2010.05.17/outbox.cif.g08.bks.cpg/sg188_2_cif.got.tgz:3050.got - 2010.05.20 12:11:46.
