data_PCOD9585483
_publ_section_title
;
Structure prediction by ZEFSAII (Michael W. Deem and Ramdas Pophale) SiO2 
 PCOD9585483
Probable space group: P -6 M 2
;
_chemical_formula_sum "Si O2"
_cell_formula_units_Z 90
_cell_length_a 18.964330
_cell_length_b 18.964330
_cell_length_c 16.690196
_cell_angle_alpha 90.000000
_cell_angle_beta 90.000000
_cell_angle_gamma 120.000000
_cell_volume 5198.368667
_symmetry_space_group_name_H-M "P -6 M 2"
_symmetry_group_IT_number 187
_symmetry_cell_setting 'hexagonal'
loop_
_space_group_symop_operation_xyz
x,y,z
-x+y,-x,-z
-y,x-y,z
x,y,-z
-x+y,-x,z
-y,x-y,-z
-y,-x,-z
-x+y,y,-z
x,x-y,-z
-x+y,y,z
x,x-y,z
-y,-x,z
loop_
_atom_site_type_symbol
_atom_site_label
_atom_site_fract_x
_atom_site_fract_y
_atom_site_fract_z
Si Si1 0.000209 0.836409 0.180039
Si Si2 0.000151 0.157675 0.373070
Si Si3 0.750194 0.671365 0.092168
Si Si4 0.298574 0.330922 0.592542
Si Si5 0.417708 0.286917 0.666899
Si Si6 0.491136 0.824436 0.402925
Si Si7 0.665700 0.498541 0.167481
Si Si8 0.668320 0.488303 0.500000
O O1 0.086400 0.913601 0.155642
O O2 0.998627 0.833295 0.276627
O O3 0.924829 0.849658 0.155470
O O4 0.981811 0.750152 0.143849
O O5 0.063885 0.127770 0.392004
O O6 0.035260 0.247975 0.406990
O O7 0.909360 0.090641 0.399727
O O8 0.835042 0.670083 0.095450
O O9 0.684436 0.582663 0.125146
O O10 0.733567 0.681110 0.000000
O O11 0.329681 0.341826 0.500000
O O12 0.351221 0.313365 0.656211
O O13 0.303386 0.415076 0.615911
O O14 0.380680 0.190340 0.682040
O O15 0.481352 0.330679 0.737824
O O16 0.460406 0.307273 0.580810
O O17 0.487513 0.822152 0.500000
O O18 0.423436 0.846872 0.375270
O O19 0.469763 0.734881 0.375496
O O20 0.742419 0.484837 0.150614
O O21 0.581016 0.418984 0.146335
O O22 0.573891 0.426110 0.500000
O O23 0.722377 0.444754 0.500000
#
# Coordination Sequence:
#
# PCOD9585483 Si02
#       8
#    12  12  12  12  12  12  12   6
#     4   9  17  31  51  75 102 134 169 202 239 290
#     4  10  20  33  50  70  96 130 169 210 249 291
#     4   9  18  32  49  72 102 131 160 199 247 295
#     4  11  21  33  48  69  93 126 164 209 253 311
#     4  10  20  33  47  67  94 126 163 205 255 304
#     4   9  18  32  49  67  87 112 146 192 249 308
#     4  10  20  34  52  72  96 130 172 215 257 304
#     4  10  19  30  44  62  87 118 154 198 248 300
#
# _framework density 17.313124999999999
#
# number of rings (size 3 to 8) (size 9 to 14) (size 15 to 20)
#    0.000    2.267    0.667    2.600    0.000    6.933 
#    0.000    1.333    0.000    2.400    0.000    0.000 
#    0.000    0.000    0.000    0.400    0.000    1.733 
#
# Total GULP energy -501604.395080 kJ/mol
# GULP energy per Si atom -5573.382168 kJ/mol
# Density = 1.727372 g / cm^3
# Si number density = 17.313125 Si / 1000 Ang^3
#
#
#
# Elastic Constant Matrix: (Units=GPa)
#
#
# Indices 1 2 3 4 5 6 
#
# 1 108.0265 46.9660 17.0000 0.0000 -0.0001 0.0000
# 2 46.9660 108.0265 17.0000 0.0000 0.0001 0.0000
# 3 17.0000 17.0000 41.9979 0.0000 0.0000 0.0000
# 4 0.0000 0.0000 0.0000 13.9144 0.0000 0.0001
# 5 -0.0001 0.0001 0.0000 0.0000 13.9144 0.0000
# 6 0.0000 0.0000 0.0000 0.0001 0.0000 30.5303
#
#
#
# Elastic Compliance Matrix: (Units=1/GPa)
#
#
# Indices 1 2 3 4 5 6 
#
# 1 0.011729 -0.004648 -0.002866 0.000000 0.000000 0.000000
# 2 -0.004648 0.011729 -0.002866 0.000000 0.000000 0.000000
# 3 -0.002866 -0.002866 0.026131 0.000000 0.000000 0.000000
# 4 0.000000 0.000000 0.000000 0.071868 0.000000 0.000000
# 5 0.000000 0.000000 0.000000 0.000000 0.071868 0.000000
# 6 0.000000 0.000000 0.000000 0.000000 0.000000 0.032754
#
#
# Mechanical properties :
#
#
# Convention : Reuss Voigt Hill
#
# Bulk Modulus (GPa) = 34.68870 46.66475 40.67673
# Shear Modulus (GPa) = 19.49701 23.47747 21.48724
#
# Velocity S-wave (km/s) = 3.35944 3.68645 3.52674
# Velocity P-wave (km/s) = 5.92683 6.71802 6.33479
#
# Compressibility (1/GPa) = 0.02882783
#
# Stress axis : x y z
#
# Youngs Moduli (GPa) = 85.25933 85.25933 38.26874
#
# Poissons Ratio (x) = 0.39631 0.10968
# Poissons Ratio (y) = 0.39631 0.10968
# Poissons Ratio (z) = 0.24436 0.24436
#
# Static dielectric constant tensor:
#      x y z
#    x 1.609260 0.000000 0.000000 
#    y 0.000000 1.609260 0.000000 
#    z 0.000000 0.000000 1.589110 
# 
# From -- ./inp_files/3250.got.cif
#   From: 2010.05.17/outbox.cif.g08.bks.cpg/sg187_2_cif.got.tgz:3250.got - 2010.05.20 12:09:04.
