data_PCOD9585420
_publ_section_title
;
Structure prediction by ZEFSAII (Michael W. Deem and Ramdas Pophale) SiO2 
 PCOD9585420
Probable space group: P -6 M 2
;
_chemical_formula_sum "Si O2"
_cell_formula_units_Z 66
_cell_length_a 16.728392
_cell_length_b 16.728392
_cell_length_c 16.105550
_cell_angle_alpha 90.000000
_cell_angle_beta 90.000000
_cell_angle_gamma 120.000000
_cell_volume 3903.144105
_symmetry_space_group_name_H-M "P -6 M 2"
_symmetry_group_IT_number 187
_symmetry_cell_setting 'hexagonal'
loop_
_space_group_symop_operation_xyz
x,y,z
-x+y,-x,-z
-y,x-y,z
x,y,-z
-x+y,-x,z
-y,x-y,-z
-y,-x,-z
-x+y,y,-z
x,x-y,-z
-x+y,y,z
x,x-y,z
-y,-x,z
loop_
_atom_site_type_symbol
_atom_site_label
_atom_site_fract_x
_atom_site_fract_y
_atom_site_fract_z
Si Si1 0.617323 0.661357 0.595257
Si Si2 0.179484 0.000755 0.399252
Si Si3 0.850365 0.332082 0.659120
Si Si4 0.333884 0.479843 0.756546
Si Si5 0.668051 0.525596 0.000000
Si Si6 0.427512 0.378813 0.828284
O O1 0.597889 0.673237 0.500000
O O2 0.716629 0.746821 0.621770
O O3 0.630611 0.572710 0.603899
O O4 0.543381 0.655817 0.660777
O O5 0.179413 0.003532 0.500000
O O6 0.203010 0.101505 0.369295
O O7 0.077889 0.922112 0.372824
O O8 0.822289 0.411145 0.661538
O O9 0.765110 0.234891 0.631960
O O10 0.884998 0.324170 0.751262
O O11 0.236097 0.472194 0.770208
O O12 0.417978 0.582023 0.775708
O O13 0.350295 0.406321 0.808150
O O14 0.666004 0.577475 0.916669
O O15 0.574679 0.425322 0.000000
O O16 0.756470 0.512940 0.000000
O O17 0.523169 0.476832 0.827203
#
# Coordination Sequence:
#
# PCOD9585420 Si02
#       6
#    12  12  12  12   6  12
#     4  10  20  33  47  64  90 124 160 203 260 316
#     4   9  16  26  41  61  83 108 141 183 232 287
#     4  10  19  31  46  65  92 128 169 206 239 281
#     4  10  20  35  53  71  92 122 163 208 253 300
#     4  10  17  28  49  78 110 140 170 198 227 268
#     4   8  17  31  47  70 100 130 156 191 239 284
#
# _framework density 16.909445000000002
#
# number of rings (size 3 to 8) (size 9 to 14) (size 15 to 20)
#    0.000    2.545    0.000    3.909    0.000    4.364 
#    0.000    2.273    0.000    2.182    0.000    1.273 
#    0.000    0.000    0.000   10.545    0.000    0.000 
#
# Total GULP energy -367939.680737 kJ/mol
# GULP energy per Si atom -5574.843648 kJ/mol
# Density = 1.687096 g / cm^3
# Si number density = 16.909445 Si / 1000 Ang^3
#
#
#
# Elastic Constant Matrix: (Units=GPa)
#
#
# Indices 1 2 3 4 5 6 
#
# 1 67.1005 13.6433 3.1539 0.0000 -0.0002 0.0000
# 2 13.6433 67.1005 3.1539 0.0000 0.0002 0.0000
# 3 3.1539 3.1539 57.9550 0.0000 0.0000 0.0000
# 4 0.0000 0.0000 0.0000 9.5364 0.0000 0.0002
# 5 -0.0002 0.0002 0.0000 0.0000 9.5364 0.0000
# 6 0.0000 0.0000 0.0000 0.0002 0.0000 26.7286
#
#
#
# Elastic Compliance Matrix: (Units=1/GPa)
#
#
# Indices 1 2 3 4 5 6 
#
# 1 0.015572 -0.003134 -0.000677 0.000000 0.000000 0.000000
# 2 -0.003134 0.015572 -0.000677 0.000000 0.000000 0.000000
# 3 -0.000677 -0.000677 0.017328 0.000000 0.000000 0.000000
# 4 0.000000 0.000000 0.000000 0.104862 0.000000 -0.000001
# 5 0.000000 0.000000 0.000000 0.000000 0.104862 0.000000
# 6 0.000000 0.000000 0.000000 -0.000001 0.000000 0.037413
#
#
# Mechanical properties :
#
#
# Convention : Reuss Voigt Hill
#
# Bulk Modulus (GPa) = 25.31874 25.78425 25.55150
# Shear Modulus (GPa) = 15.73562 20.64062 18.18812
#
# Velocity S-wave (km/s) = 3.05385 3.49758 3.28322
# Velocity P-wave (km/s) = 5.23835 5.62070 5.43289
#
# Compressibility (1/GPa) = 0.03949644
#
# Stress axis : x y z
#
# Youngs Moduli (GPa) = 64.21730 64.21730 57.70866
#
# Poissons Ratio (x) = 0.20128 0.03906
# Poissons Ratio (y) = 0.20128 0.03906
# Poissons Ratio (z) = 0.04347 0.04347
#
# Static dielectric constant tensor:
#      x y z
#    x 1.584490 0.000000 0.000000 
#    y 0.000000 1.584490 0.000000 
#    z 0.000000 0.000000 1.571180 
# 
# From -- ./inp_files/2494.got.cif
#   From: 2010.05.17/outbox.cif.g08.bks.cpg/sg187_2_cif.got.tgz:2494.got - 2010.05.20 12:09:04.
