data_PCOD9585998
_publ_section_title
;
Structure prediction by ZEFSAII (Michael W. Deem and Ramdas Pophale) SiO2 
 PCOD9585998
Probable space group: P -6 C 2
;
_chemical_formula_sum "Si O2"
_cell_formula_units_Z 84
_cell_length_a 17.183291
_cell_length_b 17.183291
_cell_length_c 15.398898
_cell_angle_alpha 90.000000
_cell_angle_beta 90.000000
_cell_angle_gamma 120.000000
_cell_volume 3937.612399
_symmetry_space_group_name_H-M "P -6 C 2"
_symmetry_group_IT_number 188
_symmetry_cell_setting 'hexagonal'
loop_
_space_group_symop_operation_xyz
x,y,z
-x+y,-x,1/2-z
-y,x-y,z
x,y,1/2-z
-x+y,-x,z
-y,x-y,1/2-z
-y,-x,-z
-x+y,y,-z
x,x-y,-z
-x+y,y,1/2+z
x,x-y,1/2+z
-y,-x,1/2+z
loop_
_atom_site_type_symbol
_atom_site_label
_atom_site_fract_x
_atom_site_fract_y
_atom_site_fract_z
Si Si1 0.513075 0.663825 0.494073
Si Si2 0.878787 0.363078 0.846710
Si Si3 0.117364 0.918687 0.850225
Si Si4 0.920206 0.114317 0.101229
Si Si5 0.057308 0.695153 0.349719
Si Si6 0.780953 0.173278 0.600613
Si Si7 0.582313 0.569112 0.356554
O O1 0.408069 0.591932 0.500000
O O2 0.529093 0.764547 0.500000
O O3 0.557624 0.657266 0.583168
O O4 0.552857 0.630663 0.413662
O O5 0.860005 0.381870 0.750000
O O6 0.792040 0.269526 0.873480
O O7 0.934078 0.463292 0.886015
O O8 0.952879 0.331577 0.847609
O O9 0.111290 0.894586 0.750000
O O10 0.209399 0.926392 0.883048
O O11 0.025843 0.845000 0.891747
O O12 0.129109 0.017238 0.858276
O O13 0.861518 0.154740 0.140433
O O14 0.901545 0.098456 0.000000
O O15 0.090042 0.703326 0.250000
O O16 0.808424 0.191577 0.500000
O O17 0.683702 0.088666 0.619875
O O18 0.571657 0.575492 0.250000
#
# Coordination Sequence:
#
# PCOD9585998 Si02
#       7
#    12  12  12  12  12  12  12
#     4  12  27  46  73 100 141 185 242 306 377 452
#     4  10  20  43  71  96 133 183 234 288 359 431
#     4  11  23  39  61  89 124 174 229 279 336 408
#     4  11  24  39  59  88 132 172 221 275 338 396
#     4  10  22  42  69  97 129 180 237 292 358 434
#     4  11  24  40  68 103 138 183 232 291 351 427
#     4  11  26  46  74 109 147 189 239 304 373 447
#
# _framework density 21.332725
#
# number of rings (size 3 to 8) (size 9 to 14) (size 15 to 20)
#    0.000    1.143    2.857    2.571    4.000    2.286 
#    0.857    0.000    0.000    1.714    0.000    0.000 
#    0.000    0.000    0.000    0.000    0.000    0.000 
#
# Total GULP energy -467991.077862 kJ/mol
# GULP energy per Si atom -5571.322355 kJ/mol
# Density = 2.128417 g / cm^3
# Si number density = 21.332725 Si / 1000 Ang^3
#
#
#
# Elastic Constant Matrix: (Units=GPa)
#
#
# Indices 1 2 3 4 5 6 
#
# 1 90.7739 45.5744 25.2911 -0.0002 0.0000 0.0000
# 2 45.5744 90.7739 25.2911 0.0002 0.0000 0.0000
# 3 25.2911 25.2911 71.3823 0.0000 0.0000 0.0000
# 4 -0.0002 0.0002 0.0000 36.7185 0.0000 0.0000
# 5 0.0000 0.0000 0.0000 0.0000 36.7185 -0.0002
# 6 0.0000 0.0000 0.0000 0.0000 -0.0002 22.5997
#
#
#
# Elastic Compliance Matrix: (Units=1/GPa)
#
#
# Indices 1 2 3 4 5 6 
#
# 1 0.015284 -0.006840 -0.002992 0.000000 0.000000 0.000000
# 2 -0.006840 0.015284 -0.002992 0.000000 0.000000 0.000000
# 3 -0.002992 -0.002992 0.016129 0.000000 0.000000 0.000000
# 4 0.000000 0.000000 0.000000 0.027234 0.000000 0.000000
# 5 0.000000 0.000000 0.000000 0.000000 0.027234 0.000000
# 6 0.000000 0.000000 0.000000 0.000000 0.000000 0.044248
#
#
# Mechanical properties :
#
#
# Convention : Reuss Voigt Hill
#
# Bulk Modulus (GPa) = 47.50576 49.47150 48.48863
# Shear Modulus (GPa) = 28.07759 29.65889 28.86824
#
# Velocity S-wave (km/s) = 3.63185 3.73272 3.68263
# Velocity P-wave (km/s) = 6.31699 6.46671 6.39229
#
# Compressibility (1/GPa) = 0.02105008
#
# Stress axis : x y z
#
# Youngs Moduli (GPa) = 65.42748 65.42748 61.99980
#
# Poissons Ratio (x) = 0.44753 0.18549
# Poissons Ratio (y) = 0.44753 0.18549
# Poissons Ratio (z) = 0.19574 0.19574
#
# Static dielectric constant tensor:
#      x y z
#    x 2.019530 0.000000 0.000000 
#    y 0.000000 2.019530 0.000000 
#    z 0.000000 0.000000 1.822200 
# 
# From -- ./inp_files/2593.got.cif
#   From: 2010.05.17/outbox.cif.g08.bks.cpg/sg188_2_cif.got.tgz:2593.got - 2010.05.20 12:11:46.
