data_PCOD9585764
_publ_section_title
;
Structure prediction by ZEFSAII (Michael W. Deem and Ramdas Pophale) SiO2 
 PCOD9585764
Probable space group: P -6 M 2
;
_chemical_formula_sum "Si O2"
_cell_formula_units_Z 84
_cell_length_a 18.038673
_cell_length_b 18.038673
_cell_length_c 14.275519
_cell_angle_alpha 90.000000
_cell_angle_beta 90.000000
_cell_angle_gamma 120.000000
_cell_volume 4022.830274
_symmetry_space_group_name_H-M "P -6 M 2"
_symmetry_group_IT_number 187
_symmetry_cell_setting 'hexagonal'
loop_
_space_group_symop_operation_xyz
x,y,z
-x+y,-x,-z
-y,x-y,z
x,y,-z
-x+y,-x,z
-y,x-y,-z
-y,-x,-z
-x+y,y,-z
x,x-y,-z
-x+y,y,z
x,x-y,z
-y,-x,z
loop_
_atom_site_type_symbol
_atom_site_label
_atom_site_fract_x
_atom_site_fract_y
_atom_site_fract_z
Si Si1 0.225015 0.198380 0.897436
Si Si2 0.622389 0.600850 0.107887
Si Si3 0.664555 0.158230 0.734487
Si Si4 0.828664 0.831275 0.690026
Si Si5 0.169917 0.667143 0.886696
Si Si6 0.983804 0.656662 0.387933
Si Si7 0.504247 0.666254 0.613756
O O1 0.252888 0.126444 0.895648
O O2 0.308452 0.290436 0.891673
O O3 0.172344 0.182423 0.802947
O O4 0.184064 0.190885 0.000000
O O5 0.637516 0.537475 0.171866
O O6 0.551491 0.623265 0.144590
O O7 0.602980 0.571520 0.000000
O O8 0.588946 0.177891 0.711853
O O9 0.755340 0.244661 0.744690
O O10 0.670149 0.096076 0.657236
O O11 0.921149 0.842297 0.669959
O O12 0.755296 0.741633 0.649834
O O13 0.820684 0.910342 0.652425
O O14 0.203557 0.601779 0.865953
O O15 0.237296 0.762705 0.854425
O O16 0.165417 0.671679 0.000000
O O17 0.977556 0.653498 0.500000
O O18 0.073117 0.661400 0.360878
O O19 0.501565 0.665316 0.500000
O O20 0.508049 0.754025 0.643106
O O21 0.417629 0.582372 0.646294
#
# Coordination Sequence:
#
# PCOD9585764 Si02
#       7
#    12  12  12  12  12  12  12
#     4   9  18  35  60  90 124 162 205 254 310 373
#     4  10  20  37  63  93 127 165 209 256 309 378
#     4  12  26  45  68  96 127 161 204 261 327 391
#     4  11  23  40  63  94 129 168 214 269 330 388
#     4   9  17  30  50  79 118 165 213 258 303 353
#     4  11  24  44  68  92 123 167 219 267 317 384
#     4   9  17  32  58  93 129 162 197 243 302 367
#
# _framework density 20.880821999999998
#
# number of rings (size 3 to 8) (size 9 to 14) (size 15 to 20)
#    0.000    1.857    1.429    2.714    0.000    6.571 
#    0.000    1.429    0.000    3.429    0.000    2.000 
#    0.000    0.000    0.000    0.000    0.000    0.286 
#
# Total GULP energy -469395.560886 kJ/mol
# GULP energy per Si atom -5588.042391 kJ/mol
# Density = 2.083330 g / cm^3
# Si number density = 20.880822 Si / 1000 Ang^3
#
#
#
# Elastic Constant Matrix: (Units=GPa)
#
#
# Indices 1 2 3 4 5 6 
#
# 1 123.3223 106.8457 32.1741 0.0000 -0.0006 0.0000
# 2 106.8457 123.3223 32.1741 0.0000 0.0006 0.0000
# 3 32.1741 32.1741 103.3959 0.0000 0.0000 0.0000
# 4 0.0000 0.0000 0.0000 5.5576 0.0000 0.0006
# 5 -0.0006 0.0006 0.0000 0.0000 5.5576 0.0000
# 6 0.0000 0.0000 0.0000 0.0006 0.0000 8.2383
#
#
#
# Elastic Compliance Matrix: (Units=1/GPa)
#
#
# Indices 1 2 3 4 5 6 
#
# 1 0.032725 -0.027967 -0.001481 0.000000 0.000006 0.000000
# 2 -0.027967 0.032725 -0.001481 0.000000 -0.000006 0.000000
# 3 -0.001481 -0.001481 0.010593 0.000000 0.000000 0.000000
# 4 0.000000 0.000000 0.000000 0.179935 0.000000 -0.000013
# 5 0.000006 -0.000006 0.000000 0.000000 0.179935 0.000000
# 6 0.000000 0.000000 0.000000 -0.000013 0.000000 0.121384
#
#
# Mechanical properties :
#
#
# Convention : Reuss Voigt Hill
#
# Bulk Modulus (GPa) = 70.48546 76.93650 73.71098
# Shear Modulus (GPa) = 8.01430 15.79378 11.90404
#
# Velocity S-wave (km/s) = 1.96124 2.75321 2.39026
# Velocity P-wave (km/s) = 6.24163 6.85802 6.55707
#
# Compressibility (1/GPa) = 0.01418732
#
# Stress axis : x y z
#
# Youngs Moduli (GPa) = 30.55729 30.55729 94.40093
#
# Poissons Ratio (x) = 0.85459 0.13979
# Poissons Ratio (y) = 0.85459 0.13979
# Poissons Ratio (z) = 0.04525 0.04525
#
# Static dielectric constant tensor:
#      x y z
#    x 1.722800 0.000000 0.000000 
#    y 0.000000 1.722800 0.000000 
#    z 0.000000 0.000000 1.799980 
# 
# From -- ./inp_files/2639.got.cif
#   From: 2010.05.17/outbox.cif.g08.bks.cpg/sg187_2_cif.got.tgz:2639.got - 2010.05.20 12:09:04.
