data_PCOD9585947
_publ_section_title
;
Structure prediction by ZEFSAII (Michael W. Deem and Ramdas Pophale) SiO2 
 PCOD9585947
Probable space group: P -6 C 2
;
_chemical_formula_sum "Si O2"
_cell_formula_units_Z 48
_cell_length_a 19.323079
_cell_length_b 19.323079
_cell_length_c 8.845756
_cell_angle_alpha 90.000000
_cell_angle_beta 90.000000
_cell_angle_gamma 120.000000
_cell_volume 2860.343865
_symmetry_space_group_name_H-M "P -6 C 2"
_symmetry_group_IT_number 188
_symmetry_cell_setting 'hexagonal'
loop_
_space_group_symop_operation_xyz
x,y,z
-x+y,-x,1/2-z
-y,x-y,z
x,y,1/2-z
-x+y,-x,z
-y,x-y,1/2-z
-y,-x,-z
-x+y,y,-z
x,x-y,-z
-x+y,y,1/2+z
x,x-y,1/2+z
-y,-x,1/2+z
loop_
_atom_site_type_symbol
_atom_site_label
_atom_site_fract_x
_atom_site_fract_y
_atom_site_fract_z
Si Si1 0.571790 0.857063 0.924058
Si Si2 0.186821 0.953048 0.421828
Si Si3 0.577382 0.571332 0.569170
Si Si4 0.753835 0.654398 0.066494
O O1 0.545459 0.850165 0.750000
O O2 0.669001 0.902204 0.921657
O O3 0.543358 0.771679 0.000000
O O4 0.552231 0.915979 0.017591
O O5 0.171387 0.965471 0.250000
O O6 0.102611 0.897389 0.500000
O O7 0.253894 0.038102 0.485489
O O8 0.580465 0.568692 0.750000
O O9 0.513079 0.486921 0.500000
O O10 0.664695 0.601692 0.497938
O O11 0.751559 0.652528 0.250000
O O12 0.814390 0.628779 0.000000
#
# Coordination Sequence:
#
# PCOD9585947 Si02
#       4
#    12  12  12  12
#     4   9  16  28  46  71  99 127 159 197 241 295
#     4   8  15  26  43  67  95 122 153 191 235 288
#     4  11  21  34  52  75 103 137 175 221 269 316
#     4  10  20  34  51  75 103 134 173 219 267 319
#
# _framework density 16.781199000000001
#
# number of rings (size 3 to 8) (size 9 to 14) (size 15 to 20)
#    0.000    2.500    0.000    5.250    0.000    7.000 
#    0.000    0.000    0.000    1.500    0.000    7.000 
#    0.000    0.000    0.000    0.000    0.000    0.000 
#
# Total GULP energy -267409.569715 kJ/mol
# GULP energy per Si atom -5571.032702 kJ/mol
# Density = 1.674300 g / cm^3
# Si number density = 16.781199 Si / 1000 Ang^3
#
#
#
# Elastic Constant Matrix: (Units=GPa)
#
#
# Indices 1 2 3 4 5 6 
#
# 1 87.5855 54.1261 46.1138 -0.0005 0.0000 0.0000
# 2 54.1261 87.5855 46.1138 0.0005 0.0000 0.0000
# 3 46.1138 46.1138 115.4043 0.0000 0.0000 0.0000
# 4 -0.0005 0.0005 0.0000 19.1291 0.0000 0.0000
# 5 0.0000 0.0000 0.0000 0.0000 19.1291 -0.0005
# 6 0.0000 0.0000 0.0000 0.0000 -0.0005 16.7297
#
#
#
# Elastic Compliance Matrix: (Units=1/GPa)
#
#
# Indices 1 2 3 4 5 6 
#
# 1 0.019712 -0.010175 -0.003811 0.000001 0.000000 0.000000
# 2 -0.010175 0.019712 -0.003811 -0.000001 0.000000 0.000000
# 3 -0.003811 -0.003811 0.011711 0.000000 0.000000 0.000000
# 4 0.000001 -0.000001 0.000000 0.052276 0.000000 0.000000
# 5 0.000000 0.000000 0.000000 0.000000 0.052276 0.000002
# 6 0.000000 0.000000 0.000000 0.000000 0.000002 0.059774
#
#
# Mechanical properties :
#
#
# Convention : Reuss Voigt Hill
#
# Bulk Modulus (GPa) = 64.34563 64.80918 64.57741
# Shear Modulus (GPa) = 19.51338 20.61235 20.06286
#
# Velocity S-wave (km/s) = 3.41370 3.50851 3.46143
# Velocity P-wave (km/s) = 7.34608 7.42407 7.38518
#
# Compressibility (1/GPa) = 0.01554107
#
# Stress axis : x y z
#
# Youngs Moduli (GPa) = 50.73104 50.73104 85.39286
#
# Poissons Ratio (x) = 0.51620 0.32541
# Poissons Ratio (y) = 0.51620 0.32541
# Poissons Ratio (z) = 0.19332 0.19332
#
# Static dielectric constant tensor:
#      x y z
#    x 1.569150 0.000000 0.000000 
#    y 0.000000 1.569150 0.000000 
#    z 0.000000 0.000000 1.569670 
# 
# From -- ./inp_files/357.got.cif
#   From: 2010.05.17/outbox.cif.g08.bks.cpg/sg188_1_cif.got.tgz:357.got - 2010.05.20 12:11:46.
