data_PCOD9585234
_publ_section_title
;
Structure prediction by ZEFSAII (Michael W. Deem and Ramdas Pophale) SiO2 
 PCOD9585234
Probable space group: P 63 C M
;
_chemical_formula_sum "Si O2"
_cell_formula_units_Z 84
_cell_length_a 18.690789
_cell_length_b 18.690789
_cell_length_c 14.075612
_cell_angle_alpha 90.000000
_cell_angle_beta 90.000000
_cell_angle_gamma 120.000000
_cell_volume 4258.466038
_symmetry_space_group_name_H-M "P 63 C M"
_symmetry_group_IT_number 185
_symmetry_cell_setting 'hexagonal'
loop_
_space_group_symop_operation_xyz
x,y,z
x-y,x,1/2+z
-y,x-y,z
-x,-y,1/2+z
-x+y,-x,z
y,-x+y,1/2+z
-x+y,y,1/2+z
x,x-y,1/2+z
-y,-x,1/2+z
y,x,z
x-y,-y,z
-x,-x+y,z
loop_
_atom_site_type_symbol
_atom_site_label
_atom_site_fract_x
_atom_site_fract_y
_atom_site_fract_z
Si Si1 0.907905 0.819041 0.190320
Si Si2 0.844807 0.669385 0.066193
Si Si3 0.905262 0.561058 0.539011
Si Si4 0.564749 0.904153 0.754288
Si Si5 0.751274 0.152596 0.251725
Si Si6 0.098154 0.513880 0.846309
Si Si7 0.093527 0.251440 0.886654
O O1 0.893710 0.893710 0.167123
O O2 0.843541 0.738861 0.133295
O O3 0.897070 0.800700 0.302222
O O4 0.000000 0.840348 0.164625
O O5 0.753639 0.600227 0.036015
O O6 0.877711 0.628448 0.143118
O O7 0.881128 0.717559 0.967559
O O8 0.901469 0.532340 0.646876
O O9 0.885060 0.496187 0.456066
O O10 0.000000 0.632740 0.523217
O O11 0.587468 0.831913 0.759731
O O12 0.489507 0.885016 0.823245
O O13 0.637935 0.000000 0.769472
O O14 0.666117 0.146477 0.282292
O O15 0.770920 0.100347 0.328057
O O16 0.000000 0.453879 0.828433
O O17 0.000000 0.198523 0.926223
#
# Coordination Sequence:
#
# PCOD9585234 Si02
#       7
#    12  12  12  12  12  12  12
#     4  10  21  34  49  71 105 147 189 237 290 346
#     4  10  19  33  55  79 105 137 186 237 283 335
#     4   9  16  31  58  79 101 146 183 211 270 347
#     4   9  20  37  54  82 116 148 186 228 282 348
#     4  10  20  34  57  87 110 143 188 238 278 334
#     4  10  19  36  60  83 113 149 187 231 284 347
#     4  10  19  33  54  79 106 140 187 234 288 349
#
# _framework density 19.725411999999999
#
# number of rings (size 3 to 8) (size 9 to 14) (size 15 to 20)
#    0.000    2.286    1.429    1.857    0.000    5.143 
#    3.429    0.000    0.000    1.714    0.000    0.000 
#    0.000    0.000    0.000    0.000    0.000    0.000 
#
# Total GULP energy -467810.379964 kJ/mol
# GULP energy per Si atom -5569.171190 kJ/mol
# Density = 1.968052 g / cm^3
# Si number density = 19.725412 Si / 1000 Ang^3
#
#
#
# Elastic Constant Matrix: (Units=GPa)
#
#
# Indices 1 2 3 4 5 6 
#
# 1 49.2352 18.4052 5.9332 0.0000 0.0000 0.0000
# 2 18.4052 49.2352 5.9332 0.0000 0.0000 0.0000
# 3 5.9332 5.9332 76.1278 0.0000 0.0000 0.0000
# 4 0.0000 0.0000 0.0000 19.9883 0.0000 0.0000
# 5 0.0000 0.0000 0.0000 0.0000 19.9883 0.0000
# 6 0.0000 0.0000 0.0000 0.0000 0.0000 15.4150
#
#
#
# Elastic Compliance Matrix: (Units=1/GPa)
#
#
# Indices 1 2 3 4 5 6 
#
# 1 0.023712 -0.008723 -0.001168 0.000000 0.000000 0.000000
# 2 -0.008723 0.023712 -0.001168 0.000000 0.000000 0.000000
# 3 -0.001168 -0.001168 0.013318 0.000000 0.000000 0.000000
# 4 0.000000 0.000000 0.000000 0.050029 0.000000 0.000000
# 5 0.000000 0.000000 0.000000 0.000000 0.050029 0.000000
# 6 0.000000 0.000000 0.000000 0.000000 0.000000 0.064872
#
#
# Mechanical properties :
#
#
# Convention : Reuss Voigt Hill
#
# Bulk Modulus (GPa) = 25.89123 26.12681 26.00902
# Shear Modulus (GPa) = 19.18153 20.70008 19.94080
#
# Velocity S-wave (km/s) = 3.12176 3.24298 3.18295
# Velocity P-wave (km/s) = 5.11353 5.22461 5.16937
#
# Compressibility (1/GPa) = 0.03862312
#
# Stress axis : x y z
#
# Youngs Moduli (GPa) = 42.17192 42.17192 75.08690
#
# Poissons Ratio (x) = 0.36788 0.08772
# Poissons Ratio (y) = 0.36788 0.08772
# Poissons Ratio (z) = 0.04927 0.04927
#
# Static dielectric constant tensor:
#      x y z
#    x 1.697860 0.000000 0.000000 
#    y 0.000000 1.697860 0.000000 
#    z 0.000000 0.000000 1.739580 
# 
# From -- ./inp_files/1493.got.cif
#   From: 2010.05.17/outbox.cif.g08.bks.cpg/sg185_cif.got.tgz:1493.got - 2010.05.20 12:05:34.
