data_PCOD9585761
_publ_section_title
;
Structure prediction by ZEFSAII (Michael W. Deem and Ramdas Pophale) SiO2 
 PCOD9585761
Probable space group: P -6 M 2
;
_chemical_formula_sum "Si O2"
_cell_formula_units_Z 84
_cell_length_a 18.545762
_cell_length_b 18.545762
_cell_length_c 14.927257
_cell_angle_alpha 90.000000
_cell_angle_beta 90.000000
_cell_angle_gamma 120.000000
_cell_volume 4446.312736
_symmetry_space_group_name_H-M "P -6 M 2"
_symmetry_group_IT_number 187
_symmetry_cell_setting 'hexagonal'
loop_
_space_group_symop_operation_xyz
x,y,z
-x+y,-x,-z
-y,x-y,z
x,y,-z
-x+y,-x,z
-y,x-y,-z
-y,-x,-z
-x+y,y,-z
x,x-y,-z
-x+y,y,z
x,x-y,z
-y,-x,z
loop_
_atom_site_type_symbol
_atom_site_label
_atom_site_fract_x
_atom_site_fract_y
_atom_site_fract_z
Si Si1 0.334137 0.825065 0.892518
Si Si2 0.836391 0.834709 0.605728
Si Si3 0.833547 0.500420 0.142554
Si Si4 0.248392 0.325930 0.276907
Si Si5 0.667179 0.499008 0.640386
Si Si6 0.654620 0.992441 0.897982
Si Si7 0.024137 0.597760 0.397355
O O1 0.402718 0.805436 0.854603
O O2 0.241936 0.758065 0.860745
O O3 0.361515 0.920740 0.880378
O O4 0.332981 0.815435 0.000000
O O5 0.823278 0.817141 0.500000
O O6 0.909897 0.819794 0.636689
O O7 0.751913 0.780239 0.657672
O O8 0.861959 0.930980 0.617824
O O9 0.749695 0.499389 0.113410
O O10 0.833662 0.416831 0.114216
O O11 0.834296 0.501641 0.251145
O O12 0.916632 0.582525 0.111350
O O13 0.170656 0.341312 0.269192
O O14 0.272059 0.302210 0.181579
O O15 0.329551 0.400404 0.324958
O O16 0.757000 0.513999 0.611389
O O17 0.593001 0.407000 0.613688
O O18 0.639291 0.564089 0.608782
O O19 0.675774 0.981149 0.000000
O O20 0.051244 0.625413 0.500000
O O21 0.033244 0.516622 0.379144
#
# Coordination Sequence:
#
# PCOD9585761 Si02
#       7
#    12  12  12  12  12  12  12
#     4   9  17  30  50  76 104 134 172 223 284 345
#     4   9  18  34  59  91 122 147 173 213 272 341
#     4  10  20  36  58  84 115 154 200 246 286 329
#     4  11  23  39  60  84 112 148 190 237 288 346
#     4   9  17  31  53  82 117 157 199 241 284 335
#     4  11  23  38  56  79 111 151 195 243 294 345
#     4  10  21  37  57  83 117 156 195 236 288 350
#
# _framework density 18.892057999999999
#
# number of rings (size 3 to 8) (size 9 to 14) (size 15 to 20)
#    0.000    2.143    1.429    1.857    0.000    7.143 
#    0.000    0.000    0.000    2.000    0.000    0.000 
#    0.000    1.143    0.000    0.000    0.000    0.000 
#
# Total GULP energy -468662.067912 kJ/mol
# GULP energy per Si atom -5579.310332 kJ/mol
# Density = 1.884906 g / cm^3
# Si number density = 18.892058 Si / 1000 Ang^3
#
#
#
# Elastic Constant Matrix: (Units=GPa)
#
#
# Indices 1 2 3 4 5 6 
#
# 1 78.4410 54.5357 28.3127 0.0000 0.0006 0.0000
# 2 54.5357 78.4410 28.3127 0.0000 -0.0006 0.0000
# 3 28.3127 28.3127 76.4866 0.0000 0.0000 0.0000
# 4 0.0000 0.0000 0.0000 12.8009 0.0000 -0.0006
# 5 0.0006 -0.0006 0.0000 0.0000 12.8009 0.0000
# 6 0.0000 0.0000 0.0000 -0.0006 0.0000 11.9526
#
#
#
# Elastic Compliance Matrix: (Units=1/GPa)
#
#
# Indices 1 2 3 4 5 6 
#
# 1 0.025380 -0.016452 -0.003305 0.000000 -0.000002 0.000000
# 2 -0.016452 0.025380 -0.003305 0.000000 0.000002 0.000000
# 3 -0.003305 -0.003305 0.015521 0.000000 0.000000 0.000000
# 4 0.000000 0.000000 0.000000 0.078119 0.000000 0.000004
# 5 -0.000002 0.000002 0.000000 0.000000 0.078119 0.000000
# 6 0.000000 0.000000 0.000000 0.000004 0.000000 0.083664
#
#
# Mechanical properties :
#
#
# Convention : Reuss Voigt Hill
#
# Bulk Modulus (GPa) = 49.61067 50.63232 50.12149
# Shear Modulus (GPa) = 13.92665 15.65805 14.79235
#
# Velocity S-wave (km/s) = 2.71803 2.88204 2.80124
# Velocity P-wave (km/s) = 6.01393 6.15905 6.08692
#
# Compressibility (1/GPa) = 0.02015695
#
# Stress axis : x y z
#
# Youngs Moduli (GPa) = 39.40176 39.40176 64.43014
#
# Poissons Ratio (x) = 0.64825 0.21291
# Poissons Ratio (y) = 0.64825 0.21291
# Poissons Ratio (z) = 0.13021 0.13021
#
# Static dielectric constant tensor:
#      x y z
#    x 1.649830 0.000000 0.000000 
#    y 0.000000 1.649830 0.000000 
#    z 0.000000 0.000000 1.693680 
# 
# From -- ./inp_files/2602.got.cif
#   From: 2010.05.17/outbox.cif.g08.bks.cpg/sg187_2_cif.got.tgz:2602.got - 2010.05.20 12:09:04.
