data_PCOD9585169
_publ_section_title
;
Structure prediction by ZEFSAII (Michael W. Deem and Ramdas Pophale) SiO2 
 PCOD9585169
Probable space group: P 6 C C
;
_chemical_formula_sum "Si O2"
_cell_formula_units_Z 54
_cell_length_a 16.530967
_cell_length_b 16.530967
_cell_length_c 12.336164
_cell_angle_alpha 90.000000
_cell_angle_beta 90.000000
_cell_angle_gamma 120.000000
_cell_volume 2919.491962
_symmetry_space_group_name_H-M "P 6 C C"
_symmetry_group_IT_number 184
_symmetry_cell_setting 'hexagonal'
loop_
_space_group_symop_operation_xyz
x,y,z
x-y,x,z
-y,x-y,z
-x,-y,z
-x+y,-x,z
y,-x+y,z
-x+y,y,1/2+z
x,x-y,1/2+z
-y,-x,1/2+z
y,x,1/2+z
x-y,-y,1/2+z
-x,-x+y,1/2+z
loop_
_atom_site_type_symbol
_atom_site_label
_atom_site_fract_x
_atom_site_fract_y
_atom_site_fract_z
Si Si1 0.631289 0.802855 0.222180
Si Si2 0.878540 0.319718 0.521500
Si Si3 0.738192 0.286482 0.348368
Si Si4 0.500000 0.500000 0.157731
Si Si5 0.652754 0.671098 0.801581
O O1 0.627048 0.758862 0.105754
O O2 0.526227 0.775894 0.254297
O O3 0.683396 0.912548 0.244543
O O4 0.655743 0.740965 0.301338
O O5 0.778614 0.280718 0.463664
O O6 0.918728 0.419805 0.581720
O O7 0.946031 0.330835 0.421857
O O8 0.767662 0.394606 0.338994
O O9 0.410988 0.433461 0.233310
#
# Coordination Sequence:
#
# PCOD9585169 Si02
#       5
#    12  12  12   6  12
#     4  10  23  38  57  82 114 151 199 243 296 346
#     4  10  22  34  57  80 114 161 186 247 287 341
#     4   9  22  32  50  78 112 152 192 235 262 346
#     4  10  22  32  60  80 118 150 196 230 290 344
#     4  10  23  39  57  85 113 149 198 244 288 360
#
# _framework density 18.496369000000001
#
# number of rings (size 3 to 8) (size 9 to 14) (size 15 to 20)
#    0.444    1.778    0.000    0.667   18.667    5.333 
#    0.000    0.000    0.000    0.444    0.000    0.000 
#    0.000   14.222    0.000    0.000    0.000    0.000 
#
# Total GULP energy -300650.302391 kJ/mol
# GULP energy per Si atom -5567.598192 kJ/mol
# Density = 1.845427 g / cm^3
# Si number density = 18.496369 Si / 1000 Ang^3
#
#
#
# Elastic Constant Matrix: (Units=GPa)
#
#
# Indices 1 2 3 4 5 6 
#
# 1 70.9905 26.3687 16.7030 0.0000 0.0000 0.0000
# 2 26.3687 70.9905 16.7030 0.0000 0.0000 0.0000
# 3 16.7030 16.7030 87.6132 0.0000 0.0000 0.0000
# 4 0.0000 0.0000 0.0000 26.7913 0.0000 0.0000
# 5 0.0000 0.0000 0.0000 0.0000 26.7913 0.0000
# 6 0.0000 0.0000 0.0000 0.0000 0.0000 22.3109
#
#
#
# Elastic Compliance Matrix: (Units=1/GPa)
#
#
# Indices 1 2 3 4 5 6 
#
# 1 0.016700 -0.005710 -0.002095 0.000000 0.000000 0.000000
# 2 -0.005710 0.016700 -0.002095 0.000000 0.000000 0.000000
# 3 -0.002095 -0.002095 0.012213 0.000000 0.000000 0.000000
# 4 0.000000 0.000000 0.000000 0.037326 0.000000 0.000000
# 5 0.000000 0.000000 0.000000 0.000000 0.037326 0.000000
# 6 0.000000 0.000000 0.000000 0.000000 0.000000 0.044821
#
#
# Mechanical properties :
#
#
# Convention : Reuss Voigt Hill
#
# Bulk Modulus (GPa) = 38.74147 38.79374 38.76760
# Shear Modulus (GPa) = 25.84097 26.49998 26.17048
#
# Velocity S-wave (km/s) = 3.74181 3.78923 3.76559
# Velocity P-wave (km/s) = 6.29755 6.33747 6.31754
#
# Compressibility (1/GPa) = 0.02581213
#
# Stress axis : x y z
#
# Youngs Moduli (GPa) = 59.87891 59.87891 81.88201
#
# Poissons Ratio (x) = 0.34192 0.17156
# Poissons Ratio (y) = 0.34192 0.17156
# Poissons Ratio (z) = 0.12546 0.12546
#
# Static dielectric constant tensor:
#      x y z
#    x 1.681700 0.000000 0.000000 
#    y 0.000000 1.681700 0.000000 
#    z 0.000000 0.000000 1.658580 
# 
# From -- ./inp_files/586.got.cif
#   From: 2010.05.17/outbox.cif.g08.bks.cpg/sg184_cif.got.tgz:586.got - 2010.05.20 12:04:40.
