data_PCOD9585603
_publ_section_title
;
Structure prediction by ZEFSAII (Michael W. Deem and Ramdas Pophale) SiO2 
 PCOD9585603
Probable space group: P -6 M 2
;
_chemical_formula_sum "Si O2"
_cell_formula_units_Z 66
_cell_length_a 13.019339
_cell_length_b 13.019339
_cell_length_c 28.327429
_cell_angle_alpha 90.000000
_cell_angle_beta 90.000000
_cell_angle_gamma 120.000000
_cell_volume 4158.298506
_symmetry_space_group_name_H-M "P -6 M 2"
_symmetry_group_IT_number 187
_symmetry_cell_setting 'hexagonal'
loop_
_space_group_symop_operation_xyz
x,y,z
-x+y,-x,-z
-y,x-y,z
x,y,-z
-x+y,-x,z
-y,x-y,-z
-y,-x,-z
-x+y,y,-z
x,x-y,-z
-x+y,y,z
x,x-y,z
-y,-x,z
loop_
_atom_site_type_symbol
_atom_site_label
_atom_site_fract_x
_atom_site_fract_y
_atom_site_fract_z
Si Si1 0.245194 0.244317 0.500000
Si Si2 0.666875 0.089017 0.412624
Si Si3 0.666061 0.576787 0.862304
Si Si4 0.757617 0.999920 0.945466
Si Si5 0.241709 0.999749 0.669752
Si Si6 0.758713 0.759237 0.780206
O O1 0.126254 0.252509 0.500000
O O2 0.328138 0.305432 0.545434
O O3 0.213847 0.106924 0.500000
O O4 0.541095 0.082189 0.417529
O O5 0.774267 0.225734 0.413779
O O6 0.679803 0.031501 0.364186
O O7 0.776843 0.553686 0.862640
O O8 0.544116 0.455885 0.862785
O O9 0.681545 0.656552 0.908015
O O10 0.680837 0.653687 0.815727
O O11 0.751589 0.875795 0.936636
O O12 0.723256 0.002267 0.000000
O O13 0.892844 0.107157 0.940031
O O14 0.212198 0.106099 0.663112
O O15 0.270868 0.999474 0.725025
O O16 0.125700 0.874300 0.658454
O O17 0.893845 0.787690 0.786457
O O18 0.750669 0.875335 0.791133
#
# Coordination Sequence:
#
# PCOD9585603 Si02
#       6
#     6  12  12  12  12  12
#     4  10  20  34  54  78 100 122 152 196 248 294
#     4  10  20  33  50  72  99 131 164 196 230 273
#     4  10  20  32  46  66  94 128 162 193 227 271
#     4   9  17  30  50  75  98 118 144 185 238 288
#     4   9  17  30  50  75 100 124 152 192 242 290
#     4   9  17  30  50  75  98 120 150 193 245 292
#
# _framework density 15.871877
#
# number of rings (size 3 to 8) (size 9 to 14) (size 15 to 20)
#    0.000    2.545    0.000    2.364    0.000    3.273 
#    0.000    4.545    0.000   11.273    0.000    0.000 
#    0.000    0.000    0.000    0.000    0.000    0.000 
#
# Total GULP energy -368042.434904 kJ/mol
# GULP energy per Si atom -5576.400529 kJ/mol
# Density = 1.583575 g / cm^3
# Si number density = 15.871877 Si / 1000 Ang^3
#
#
#
# Elastic Constant Matrix: (Units=GPa)
#
#
# Indices 1 2 3 4 5 6 
#
# 1 114.8607 75.6626 75.9891 0.0000 0.0000 0.0000
# 2 75.6626 114.8607 75.9891 0.0000 0.0000 0.0000
# 3 75.9891 75.9891 94.3562 0.0000 0.0000 0.0000
# 4 0.0000 0.0000 0.0000 17.3544 0.0000 0.0000
# 5 0.0000 0.0000 0.0000 0.0000 17.3544 0.0000
# 6 0.0000 0.0000 0.0000 0.0000 0.0000 19.5991
#
#
#
# Elastic Compliance Matrix: (Units=1/GPa)
#
#
# Indices 1 2 3 4 5 6 
#
# 1 0.020095 -0.005417 -0.011821 0.000000 0.000000 0.000000
# 2 -0.005417 0.020095 -0.011821 0.000000 0.000000 0.000000
# 3 -0.011821 -0.011821 0.029638 0.000000 0.000000 0.000000
# 4 0.000000 0.000000 0.000000 0.057622 0.000000 0.000000
# 5 0.000000 0.000000 0.000000 0.000000 0.057622 0.000000
# 6 0.000000 0.000000 0.000000 0.000000 0.000000 0.051023
#
#
# Mechanical properties :
#
#
# Convention : Reuss Voigt Hill
#
# Bulk Modulus (GPa) = 85.39353 86.59544 85.99448
# Shear Modulus (GPa) = 16.77203 17.29068 17.03135
#
# Velocity S-wave (km/s) = 3.25424 3.30417 3.27930
# Velocity P-wave (km/s) = 8.24856 8.32071 8.28471
#
# Compressibility (1/GPa) = 0.01171049
#
# Stress axis : x y z
#
# Youngs Moduli (GPa) = 49.76424 49.76424 33.74062
#
# Poissons Ratio (x) = 0.26956 0.39884
# Poissons Ratio (y) = 0.26956 0.39884
# Poissons Ratio (z) = 0.58826 0.58826
#
# Static dielectric constant tensor:
#      x y z
#    x 1.497830 0.000000 0.000000 
#    y 0.000000 1.497830 0.000000 
#    z 0.000000 0.000000 1.552140 
# 
# From -- ./inp_files/4437.got.cif
#   From: 2010.05.17/outbox.cif.g08.bks.cpg/sg187_3_cif.got.tgz:4437.got - 2010.05.20 12:09:04.
