data_PCOD9585279
_publ_section_title
;
Structure prediction by ZEFSAII (Michael W. Deem and Ramdas Pophale) SiO2 
 PCOD9585279
Probable space group: P 63 C M
;
_chemical_formula_sum "Si O2"
_cell_formula_units_Z 72
_cell_length_a 15.075191
_cell_length_b 15.075191
_cell_length_c 18.394603
_cell_angle_alpha 90.000000
_cell_angle_beta 90.000000
_cell_angle_gamma 120.000000
_cell_volume 3620.317815
_symmetry_space_group_name_H-M "P 63 C M"
_symmetry_group_IT_number 185
_symmetry_cell_setting 'hexagonal'
loop_
_space_group_symop_operation_xyz
x,y,z
x-y,x,1/2+z
-y,x-y,z
-x,-y,1/2+z
-x+y,-x,z
y,-x+y,1/2+z
-x+y,y,1/2+z
x,x-y,1/2+z
-y,-x,1/2+z
y,x,z
x-y,-y,z
-x,-x+y,z
loop_
_atom_site_type_symbol
_atom_site_label
_atom_site_fract_x
_atom_site_fract_y
_atom_site_fract_z
Si Si1 0.567802 0.362663 0.388760
Si Si2 0.568638 0.449806 0.044697
Si Si3 0.240303 0.120582 0.859312
Si Si4 0.296794 0.881563 0.764027
Si Si5 0.769741 0.550315 0.611776
Si Si6 0.120761 0.880186 0.528164
O O1 0.561310 0.251804 0.386692
O O2 0.528769 0.384281 0.463726
O O3 0.505509 0.365480 0.320087
O O4 0.484906 0.484906 0.050259
O O5 0.662188 0.512868 0.099273
O O6 0.520631 0.331046 0.064190
O O7 0.190374 0.190374 0.841248
O O8 0.332340 0.136008 0.807855
O O9 0.154523 0.000000 0.855313
O O10 0.275586 0.140196 0.943644
O O11 0.264937 0.809621 0.694309
O O12 0.358075 0.000000 0.740290
O O13 0.818409 0.664820 0.581410
O O14 0.000000 0.813144 0.541413
O O15 0.159961 0.000000 0.536640
#
# Coordination Sequence:
#
# PCOD9585279 Si02
#       6
#    12  12  12  12  12  12
#     4  10  22  43  67  93 121 163 213 269 323 383
#     4  12  24  43  70  94 126 172 218 268 329 384
#     4   9  19  36  61  91 127 171 216 264 314 379
#     4  11  24  41  62  92 133 171 212 265 326 388
#     4  12  25  43  62  96 130 169 215 269 323 389
#     4  10  20  38  64  94 128 166 213 265 321 383
#
# _framework density 19.887758000000002
#
# number of rings (size 3 to 8) (size 9 to 14) (size 15 to 20)
#    0.333    1.000    1.667    4.167    2.333    4.000 
#    0.000    0.833    0.000    2.000    0.000    0.000 
#    0.000    0.000    0.000    0.000    0.000    0.000 
#
# Total GULP energy -402397.796834 kJ/mol
# GULP energy per Si atom -5588.858289 kJ/mol
# Density = 1.984249 g / cm^3
# Si number density = 19.887758 Si / 1000 Ang^3
#
#
#
# Elastic Constant Matrix: (Units=GPa)
#
#
# Indices 1 2 3 4 5 6 
#
# 1 40.3874 -9.3646 8.3940 0.0000 0.0000 0.0000
# 2 -9.3646 40.3874 8.3940 0.0000 0.0000 0.0000
# 3 8.3940 8.3940 77.5108 0.0000 0.0000 0.0000
# 4 0.0000 0.0000 0.0000 -14.2260 0.0000 0.0000
# 5 0.0000 0.0000 0.0000 0.0000 -14.2260 0.0000
# 6 0.0000 0.0000 0.0000 0.0000 0.0000 24.8760
#
#
#
# Elastic Compliance Matrix: (Units=1/GPa)
#
#
# Indices 1 2 3 4 5 6 
#
# 1 0.027170 0.007071 -0.003708 0.000000 0.000000 0.000000
# 2 0.007071 0.027170 -0.003708 0.000000 0.000000 0.000000
# 3 -0.003708 -0.003708 0.013705 0.000000 0.000000 0.000000
# 4 0.000000 0.000000 0.000000 -0.070294 0.000000 0.000000
# 5 0.000000 0.000000 0.000000 0.000000 -0.070294 0.000000
# 6 0.000000 0.000000 0.000000 0.000000 0.000000 0.040199
#
#
# Mechanical properties :
#
#
# Convention : Reuss Voigt Hill
#
# Bulk Modulus (GPa) = 14.84693 19.23695 17.04194
# Shear Modulus (GPa) = -543.43531 9.34229 -267.04651
#
# Velocity S-wave (km/s) = -16.54824 2.16972 -11.60036
# Velocity P-wave (km/s) = 18.91149 3.99634 13.07045
#
# Compressibility (1/GPa) = 0.06735398
#
# Stress axis : x y z
#
# Youngs Moduli (GPa) = 36.80487 36.80487 72.96842
#
# Poissons Ratio (x) = -0.26023 0.27057
# Poissons Ratio (y) = -0.26023 0.27057
# Poissons Ratio (z) = 0.13648 0.13648
#
# Static dielectric constant tensor:
#      x y z
#    x 1.696320 0.000000 0.000000 
#    y 0.000000 1.696320 0.000000 
#    z 0.000000 0.000000 1.682250 
# 
# From -- ./inp_files/1712.got.cif
#   From: 2010.05.17/outbox.cif.g08.bks.cpg/sg185_cif.got.tgz:1712.got - 2010.05.20 12:05:34.
