data_PCOD9585381
_publ_section_title
;
Structure prediction by ZEFSAII (Michael W. Deem and Ramdas Pophale) SiO2 
 PCOD9585381
Probable space group: P 63 M C
;
_chemical_formula_sum "Si O2"
_cell_formula_units_Z 60
_cell_length_a 12.895008
_cell_length_b 12.895008
_cell_length_c 25.912030
_cell_angle_alpha 90.000000
_cell_angle_beta 90.000000
_cell_angle_gamma 120.000000
_cell_volume 3731.430021
_symmetry_space_group_name_H-M "P 63 M C"
_symmetry_group_IT_number 186
_symmetry_cell_setting 'hexagonal'
loop_
_space_group_symop_operation_xyz
x,y,z
x-y,x,1/2+z
-y,x-y,z
-x,-y,1/2+z
-x+y,-x,z
y,-x+y,1/2+z
-x+y,y,z
x,x-y,z
-y,-x,z
y,x,1/2+z
x-y,-y,1/2+z
-x,-x+y,1/2+z
loop_
_atom_site_type_symbol
_atom_site_label
_atom_site_fract_x
_atom_site_fract_y
_atom_site_fract_z
Si Si1 0.910855 0.577323 0.237280
Si Si2 0.911660 0.578657 0.356106
Si Si3 0.666746 0.086984 0.546326
Si Si4 0.754414 0.754004 0.643447
Si Si5 0.666515 0.578910 0.949224
O O1 0.772521 0.545041 0.233991
O O2 0.920644 0.460322 0.226364
O O3 0.948577 0.614955 0.296613
O O4 0.982732 0.680141 0.195786
O O5 0.792655 0.585310 0.366670
O O6 0.882793 0.441397 0.360932
O O7 0.014969 0.654238 0.396909
O O8 0.550156 0.100312 0.553778
O O9 0.784164 0.215837 0.537780
O O10 0.690931 0.028254 0.596310
O O11 0.641388 0.001575 0.497162
O O12 0.887691 0.775381 0.647963
O O13 0.756461 0.878231 0.634095
O O14 0.793318 0.586636 0.953805
O O15 0.558830 0.441171 0.948640
#
# Coordination Sequence:
#
# PCOD9585381 Si02
#       5
#    12  12  12  12  12
#     4   9  17  30  49  73  98 124 157 199 246 289
#     4   9  17  30  50  74  98 124 156 198 245 289
#     4  10  20  34  53  75  97 121 152 195 244 290
#     4  10  20  33  49  69  96 131 167 199 233 279
#     4  10  20  33  49  69  95 126 158 191 228 275
#
# _framework density 16.079626999999999
#
# number of rings (size 3 to 8) (size 9 to 14) (size 15 to 20)
#    0.000    2.400    0.000    2.800    0.000    2.400 
#    0.000    2.000    0.000   11.200    0.000    0.000 
#    0.000    0.000    0.000    0.000    0.000    0.000 
#
# Total GULP energy -334674.760991 kJ/mol
# GULP energy per Si atom -5577.912683 kJ/mol
# Density = 1.604303 g / cm^3
# Si number density = 16.079627 Si / 1000 Ang^3
#
#
#
# Elastic Constant Matrix: (Units=GPa)
#
#
# Indices 1 2 3 4 5 6 
#
# 1 121.5133 83.6233 84.4772 0.0000 0.0000 0.0000
# 2 83.6233 121.5133 84.4772 0.0000 0.0000 0.0000
# 3 84.4772 84.4772 116.0284 0.0000 0.0000 0.0000
# 4 0.0000 0.0000 0.0000 23.5656 0.0000 0.0000
# 5 0.0000 0.0000 0.0000 0.0000 23.5656 0.0000
# 6 0.0000 0.0000 0.0000 0.0000 0.0000 18.9450
#
#
#
# Elastic Compliance Matrix: (Units=1/GPa)
#
#
# Indices 1 2 3 4 5 6 
#
# 1 0.019284 -0.007108 -0.008865 0.000000 0.000000 0.000000
# 2 -0.007108 0.019284 -0.008865 0.000000 0.000000 0.000000
# 3 -0.008865 -0.008865 0.021528 0.000000 0.000000 0.000000
# 4 0.000000 0.000000 0.000000 0.042435 0.000000 0.000000
# 5 0.000000 0.000000 0.000000 0.000000 0.042435 0.000000
# 6 0.000000 0.000000 0.000000 0.000000 0.000000 0.052784
#
#
# Mechanical properties :
#
#
# Convention : Reuss Voigt Hill
#
# Bulk Modulus (GPa) = 95.97538 96.02338 95.99938
# Shear Modulus (GPa) = 19.92818 20.31371 20.12095
#
# Velocity S-wave (km/s) = 3.52425 3.55818 3.54125
# Velocity P-wave (km/s) = 8.73943 8.75945 8.74944
#
# Compressibility (1/GPa) = 0.01041934
#
# Stress axis : x y z
#
# Youngs Moduli (GPa) = 51.85550 51.85550 46.45140
#
# Poissons Ratio (x) = 0.36858 0.41181
# Poissons Ratio (y) = 0.36858 0.41181
# Poissons Ratio (z) = 0.45972 0.45972
#
# Static dielectric constant tensor:
#      x y z
#    x 1.508660 0.000000 0.000000 
#    y 0.000000 1.508660 0.000000 
#    z 0.000000 0.000000 1.534020 
# 
# From -- ./inp_files/3960.got.cif
#   From: 2010.05.17/outbox.cif.g08.bks.cpg/sg186_2_cif.got.tgz:3960.got - 2010.05.20 12:07:08.
