data_PCOD9585718
_publ_section_title
;
Structure prediction by ZEFSAII (Michael W. Deem and Ramdas Pophale) SiO2 
 PCOD9585718
Probable space group: P -6 M 2
;
_chemical_formula_sum "Si O2"
_cell_formula_units_Z 84
_cell_length_a 18.185187
_cell_length_b 18.185187
_cell_length_c 18.026953
_cell_angle_alpha 90.000000
_cell_angle_beta 90.000000
_cell_angle_gamma 120.000000
_cell_volume 5162.838033
_symmetry_space_group_name_H-M "P -6 M 2"
_symmetry_group_IT_number 187
_symmetry_cell_setting 'hexagonal'
loop_
_space_group_symop_operation_xyz
x,y,z
-x+y,-x,-z
-y,x-y,z
x,y,-z
-x+y,-x,z
-y,x-y,-z
-y,-x,-z
-x+y,y,-z
x,x-y,-z
-x+y,y,z
x,x-y,z
-y,-x,z
loop_
_atom_site_type_symbol
_atom_site_label
_atom_site_fract_x
_atom_site_fract_y
_atom_site_fract_z
Si Si1 0.666667 0.667506 0.344242
Si Si2 0.252893 0.919560 0.190224
Si Si3 0.170937 0.000180 0.913386
Si Si4 0.491612 0.158279 0.412547
Si Si5 0.503482 0.836656 0.589613
Si Si6 0.829852 0.999841 0.410387
Si Si7 0.162398 0.495911 0.913385
O O1 0.666666 0.691992 0.258913
O O2 0.666667 0.581208 0.362637
O O3 0.583222 0.662006 0.380371
O O4 0.750111 0.745451 0.380371
O O5 0.166667 0.833334 0.215315
O O6 0.222601 0.972044 0.139552
O O7 0.305377 0.889267 0.139552
O O8 0.072332 0.927669 0.906445
O O9 0.182835 0.091418 0.895348
O O10 0.193998 0.999872 0.000000
O O11 0.469147 0.135813 0.500000
O O12 0.582151 0.164302 0.400340
O O13 0.497636 0.248818 0.400341
O O14 0.506285 0.838687 0.500000
O O15 0.415463 0.830925 0.612541
O O16 0.506711 0.753355 0.614064
O O17 0.827050 0.999071 0.500000
O O18 0.917871 0.082130 0.387457
O O19 0.826624 0.913312 0.385937
O O20 0.261004 0.522007 0.906443
O O21 0.150498 0.575249 0.895348
O O22 0.139338 0.472541 0.000000
#
# Coordination Sequence:
#
# PCOD9585718 Si02
#       7
#    12  12  12  12  12  12  12
#     4  12  22  33  50  74 102 132 166 201 242 294
#     4  10  21  34  47  68 102 138 164 192 237 288
#     4   9  17  31  52  75  97 124 161 202 240 280
#     4  10  21  38  59  80 100 124 158 204 257 306
#     4  10  20  34  51  70  94 127 168 212 254 294
#     4  10  20  34  51  70  94 127 168 212 254 294
#     4   9  17  31  52  75  97 124 161 202 240 280
#
# _framework density 16.270121
#
# number of rings (size 3 to 8) (size 9 to 14) (size 15 to 20)
#    0.000    2.000    0.000    4.571    0.000   10.286 
#    0.000    0.000    0.000    3.429    0.000    0.000 
#    0.000    0.000    0.000    0.000    0.000   15.143 
#
# Total GULP energy -468965.344723 kJ/mol
# GULP energy per Si atom -5582.920771 kJ/mol
# Density = 1.623309 g / cm^3
# Si number density = 16.270121 Si / 1000 Ang^3
#
#
#
# Elastic Constant Matrix: (Units=GPa)
#
#
# Indices 1 2 3 4 5 6 
#
# 1 129.7334 69.1402 58.3277 0.0000 0.0002 0.0000
# 2 69.1402 129.7334 58.3277 0.0000 -0.0002 0.0000
# 3 58.3277 58.3277 59.4854 0.0000 0.0000 0.0000
# 4 0.0000 0.0000 0.0000 -16.3045 0.0000 -0.0002
# 5 0.0002 -0.0002 0.0000 0.0000 -16.3045 0.0000
# 6 0.0000 0.0000 0.0000 -0.0002 0.0000 30.2966
#
#
#
# Elastic Compliance Matrix: (Units=1/GPa)
#
#
# Indices 1 2 3 4 5 6 
#
# 1 0.014170 -0.002334 -0.011606 0.000000 0.000000 0.000000
# 2 -0.002334 0.014170 -0.011606 0.000000 0.000000 0.000000
# 3 -0.011606 -0.011606 0.039570 0.000000 0.000000 0.000000
# 4 0.000000 0.000000 0.000000 -0.061333 0.000000 0.000000
# 5 0.000000 0.000000 0.000000 0.000000 -0.061333 0.000000
# 6 0.000000 0.000000 0.000000 0.000000 0.000000 0.033007
#
#
# Mechanical properties :
#
#
# Convention : Reuss Voigt Hill
#
# Bulk Modulus (GPa) = 59.45370 76.72704 68.09037
# Shear Modulus (GPa) = 143.07134 8.41463 75.74298
#
# Velocity S-wave (km/s) = 9.38754 2.27663 6.83041
# Velocity P-wave (km/s) = 12.41460 7.36012 10.20523
#
# Compressibility (1/GPa) = 0.01681981
#
# Stress axis : x y z
#
# Youngs Moduli (GPa) = 70.57310 70.57310 25.27153
#
# Poissons Ratio (x) = 0.16470 0.29329
# Poissons Ratio (y) = 0.16470 0.29329
# Poissons Ratio (z) = 0.81904 0.81904
#
# Static dielectric constant tensor:
#      x y z
#    x 1.526260 0.000000 0.000000 
#    y 0.000000 1.526260 0.000000 
#    z 0.000000 0.000000 1.540360 
# 
# From -- ./inp_files/2628.got.cif
#   From: 2010.05.17/outbox.cif.g08.bks.cpg/sg187_2_cif.got.tgz:2628.got - 2010.05.20 12:09:04.
