data_PCOD9585221
_publ_section_title
;
Structure prediction by ZEFSAII (Michael W. Deem and Ramdas Pophale) SiO2 
 PCOD9585221
Probable space group: P 63 C M
;
_chemical_formula_sum "Si O2"
_cell_formula_units_Z 84
_cell_length_a 19.670240
_cell_length_b 19.670240
_cell_length_c 13.841355
_cell_angle_alpha 90.000000
_cell_angle_beta 90.000000
_cell_angle_gamma 120.000000
_cell_volume 4637.976640
_symmetry_space_group_name_H-M "P 63 C M"
_symmetry_group_IT_number 185
_symmetry_cell_setting 'hexagonal'
loop_
_space_group_symop_operation_xyz
x,y,z
x-y,x,1/2+z
-y,x-y,z
-x,-y,1/2+z
-x+y,-x,z
y,-x+y,1/2+z
-x+y,y,1/2+z
x,x-y,1/2+z
-y,-x,1/2+z
y,x,z
x-y,-y,z
-x,-x+y,z
loop_
_atom_site_type_symbol
_atom_site_label
_atom_site_fract_x
_atom_site_fract_y
_atom_site_fract_z
Si Si1 0.093676 0.909625 0.031790
Si Si2 0.443487 0.349387 0.461394
Si Si3 0.906574 0.298456 0.496676
Si Si4 0.141434 0.821115 0.388404
Si Si5 0.095680 0.516384 0.367621
Si Si6 0.179685 0.333703 0.167949
Si Si7 0.905777 0.564719 0.678016
O O1 0.121959 0.871738 0.115068
O O2 0.000000 0.858430 0.020067
O O3 0.122439 0.000000 0.052390
O O4 0.139961 0.904506 0.938017
O O5 0.391901 0.391901 0.452824
O O6 0.384194 0.258720 0.440286
O O7 0.516517 0.393725 0.389356
O O8 0.473104 0.361394 0.571646
O O9 0.882419 0.232215 0.413809
O O10 0.881706 0.358946 0.455175
O O11 0.870165 0.253331 0.596714
O O12 0.000000 0.344712 0.508133
O O13 0.122349 0.801970 0.276553
O O14 0.121067 0.495793 0.266580
O O15 0.000000 0.469797 0.366314
O O16 0.132222 0.379947 0.179105
O O17 0.000000 0.619170 0.685912
#
# Coordination Sequence:
#
# PCOD9585221 Si02
#       7
#    12  12  12  12  12  12  12
#     4  11  24  40  57  82 118 164 215 269 325 381
#     4  10  20  34  54  84 115 143 183 235 289 347
#     4  10  20  35  54  83 116 148 195 249 299 349
#     4  11  21  35  58  85 113 152 198 255 306 363
#     4   9  19  34  55  82 113 146 178 227 289 349
#     4  11  21  34  58  86 114 154 201 251 307 368
#     4  10  18  32  55  82 112 149 191 232 284 351
#
# _framework density 18.111345
#
# number of rings (size 3 to 8) (size 9 to 14) (size 15 to 20)
#    0.000    1.714    4.286    2.714    0.000    5.143 
#    0.000    2.857    0.000    2.286    0.000    0.000 
#    0.000    0.000    0.000    0.000    0.000    0.000 
#
# Total GULP energy -468419.724086 kJ/mol
# GULP energy per Si atom -5576.425287 kJ/mol
# Density = 1.807012 g / cm^3
# Si number density = 18.111345 Si / 1000 Ang^3
#
#
#
# Elastic Constant Matrix: (Units=GPa)
#
#
# Indices 1 2 3 4 5 6 
#
# 1 74.3026 30.9403 31.4010 0.0000 0.0000 0.0000
# 2 30.9403 74.3026 31.4010 0.0000 0.0000 0.0000
# 3 31.4010 31.4010 122.5436 0.0000 0.0000 0.0000
# 4 0.0000 0.0000 0.0000 16.5079 0.0000 0.0000
# 5 0.0000 0.0000 0.0000 0.0000 16.5079 0.0000
# 6 0.0000 0.0000 0.0000 0.0000 0.0000 21.6811
#
#
#
# Elastic Compliance Matrix: (Units=1/GPa)
#
#
# Indices 1 2 3 4 5 6 
#
# 1 0.017139 -0.005922 -0.002874 0.000000 0.000000 0.000000
# 2 -0.005922 0.017139 -0.002874 0.000000 0.000000 0.000000
# 3 -0.002874 -0.002874 0.009633 0.000000 0.000000 0.000000
# 4 0.000000 0.000000 0.000000 0.060577 0.000000 0.000000
# 5 0.000000 0.000000 0.000000 0.000000 0.060577 0.000000
# 6 0.000000 0.000000 0.000000 0.000000 0.000000 0.046123
#
#
# Mechanical properties :
#
#
# Convention : Reuss Voigt Hill
#
# Bulk Modulus (GPa) = 48.61385 50.95929 49.78657
# Shear Modulus (GPa) = 20.71358 22.76648 21.74003
#
# Velocity S-wave (km/s) = 3.38550 3.54931 3.46837
# Velocity P-wave (km/s) = 6.49477 6.70780 6.60214
#
# Compressibility (1/GPa) = 0.02057027
#
# Stress axis : x y z
#
# Youngs Moduli (GPa) = 58.34553 58.34553 103.80555
#
# Poissons Ratio (x) = 0.34554 0.29837
# Poissons Ratio (y) = 0.34554 0.29837
# Poissons Ratio (z) = 0.16770 0.16770
#
# Static dielectric constant tensor:
#      x y z
#    x 1.618390 0.000000 0.000000 
#    y 0.000000 1.618390 0.000000 
#    z 0.000000 0.000000 1.656370 
# 
# From -- ./inp_files/1492.got.cif
#   From: 2010.05.17/outbox.cif.g08.bks.cpg/sg185_cif.got.tgz:1492.got - 2010.05.20 12:05:34.
