data_PCOD9585162
_publ_section_title
;
Structure prediction by ZEFSAII (Michael W. Deem and Ramdas Pophale) SiO2 
 PCOD9585162
Probable space group: P 6 C C
;
_chemical_formula_sum "Si O2"
_cell_formula_units_Z 72
_cell_length_a 13.840344
_cell_length_b 13.840344
_cell_length_c 17.208975
_cell_angle_alpha 90.000000
_cell_angle_beta 90.000000
_cell_angle_gamma 120.000000
_cell_volume 2854.824430
_symmetry_space_group_name_H-M "P 6 C C"
_symmetry_group_IT_number 184
_symmetry_cell_setting 'hexagonal'
loop_
_space_group_symop_operation_xyz
x,y,z
x-y,x,z
-y,x-y,z
-x,-y,z
-x+y,-x,z
y,-x+y,z
-x+y,y,1/2+z
x,x-y,1/2+z
-y,-x,1/2+z
y,x,1/2+z
x-y,-y,1/2+z
-x,-x+y,1/2+z
loop_
_atom_site_type_symbol
_atom_site_label
_atom_site_fract_x
_atom_site_fract_y
_atom_site_fract_z
Si Si1 0.061691 0.243883 0.454840
Si Si2 0.790990 0.277938 0.144199
Si Si3 0.531990 0.772211 0.897394
Si Si4 0.606409 0.480740 0.543748
Si Si5 0.463385 0.593303 0.793274
Si Si6 0.184998 0.242125 0.143101
O O1 0.153468 0.213022 0.428132
O O2 0.110122 0.368892 0.426633
O O3 0.056307 0.239847 0.548569
O O4 0.805150 0.352348 0.068954
O O5 0.694856 0.154875 0.115310
O O6 0.800039 0.359632 0.213990
O O7 0.899825 0.269193 0.161322
O O8 0.559556 0.706915 0.831819
O O9 0.450045 0.806300 0.851730
O O10 0.505160 0.683556 0.968248
O O11 0.500000 0.500000 0.536423
O O12 0.500000 0.500000 0.783606
O O13 0.213062 0.149927 0.171097
#
# Coordination Sequence:
#
# PCOD9585162 Si02
#       6
#    12  12  12  12  12  12
#     4  10  21  40  70 109 148 187 236 304 382 453
#     4  12  25  46  72 109 151 201 257 316 387 463
#     4  12  25  46  75 106 154 197 258 320 387 455
#     4  12  26  45  77 114 148 196 262 331 390 456
#     4  12  28  49  73 109 154 210 260 317 388 471
#     4  10  21  40  71 111 149 187 237 308 388 460
#
# _framework density 25.220466999999999
#
# number of rings (size 3 to 8) (size 9 to 14) (size 15 to 20)
#    0.000    0.667    1.667    6.000    2.333    2.667 
#    0.000    0.833    0.000    0.000    0.000    2.333 
#    0.000    0.000    0.000    0.000    0.000    0.000 
#
# Total GULP energy -401785.068236 kJ/mol
# GULP energy per Si atom -5580.348170 kJ/mol
# Density = 2.516306 g / cm^3
# Si number density = 25.220467 Si / 1000 Ang^3
#
#
#
# Elastic Constant Matrix: (Units=GPa)
#
#
# Indices 1 2 3 4 5 6 
#
# 1 117.6994 25.7209 29.6353 0.0000 0.0000 0.0000
# 2 25.7209 117.6994 29.6353 0.0000 0.0000 0.0000
# 3 29.6353 29.6353 86.9274 0.0000 0.0000 0.0000
# 4 0.0000 0.0000 0.0000 25.7182 0.0000 0.0000
# 5 0.0000 0.0000 0.0000 0.0000 25.7182 0.0000
# 6 0.0000 0.0000 0.0000 0.0000 0.0000 45.9892
#
#
#
# Elastic Compliance Matrix: (Units=1/GPa)
#
#
# Indices 1 2 3 4 5 6 
#
# 1 0.009494 -0.001378 -0.002767 0.000000 0.000000 0.000000
# 2 -0.001378 0.009494 -0.002767 0.000000 0.000000 0.000000
# 3 -0.002767 -0.002767 0.013390 0.000000 0.000000 0.000000
# 4 0.000000 0.000000 0.000000 0.038883 0.000000 0.000000
# 5 0.000000 0.000000 0.000000 0.000000 0.038883 0.000000
# 6 0.000000 0.000000 0.000000 0.000000 0.000000 0.021744
#
#
# Mechanical properties :
#
#
# Convention : Reuss Voigt Hill
#
# Bulk Modulus (GPa) = 53.89443 54.70101 54.29772
# Shear Modulus (GPa) = 32.91695 35.30743 34.11219
#
# Velocity S-wave (km/s) = 3.61663 3.74565 3.68171
# Velocity P-wave (km/s) = 6.23344 6.35946 6.29677
#
# Compressibility (1/GPa) = 0.01855479
#
# Stress axis : x y z
#
# Youngs Moduli (GPa) = 105.32920 105.32920 74.68019
#
# Poissons Ratio (x) = 0.14515 0.20663
# Poissons Ratio (y) = 0.14515 0.20663
# Poissons Ratio (z) = 0.29144 0.29144
#
# Static dielectric constant tensor:
#      x y z
#    x 2.043610 0.000000 0.000000 
#    y 0.000000 2.043610 0.000000 
#    z 0.000000 0.000000 2.060820 
# 
# From -- ./inp_files/1095.got.cif
#   From: 2010.05.17/outbox.cif.g08.bks.cpg/sg184_cif.got.tgz:1095.got - 2010.05.20 12:04:40.
