data_PCOD9585861
_publ_section_title
;
Structure prediction by ZEFSAII (Michael W. Deem and Ramdas Pophale) SiO2 
 PCOD9585861
Probable space group: P -6 C 2
;
_chemical_formula_sum "Si O2"
_cell_formula_units_Z 78
_cell_length_a 17.292171
_cell_length_b 17.292171
_cell_length_c 16.919590
_cell_angle_alpha 90.000000
_cell_angle_beta 90.000000
_cell_angle_gamma 120.000000
_cell_volume 4381.466643
_symmetry_space_group_name_H-M "P -6 C 2"
_symmetry_group_IT_number 188
_symmetry_cell_setting 'hexagonal'
loop_
_space_group_symop_operation_xyz
x,y,z
-x+y,-x,1/2-z
-y,x-y,z
x,y,1/2-z
-x+y,-x,z
-y,x-y,1/2-z
-y,-x,-z
-x+y,y,-z
x,x-y,-z
-x+y,y,1/2+z
x,x-y,1/2+z
-y,-x,1/2+z
loop_
_atom_site_type_symbol
_atom_site_label
_atom_site_fract_x
_atom_site_fract_y
_atom_site_fract_z
Si Si1 0.246508 0.753492 0.750000
Si Si2 0.032964 0.364029 0.587212
Si Si3 0.566679 0.953710 0.750000
Si Si4 0.505295 0.752648 0.916691
Si Si5 0.818122 0.999931 0.656416
Si Si6 0.387031 0.433321 0.250000
Si Si7 0.818122 0.999931 0.343584
Si Si8 0.331065 0.364029 0.587212
O O1 0.139226 0.707400 0.750000
O O2 0.271748 0.728252 0.832918
O O3 0.292600 0.860773 0.750000
O O4 0.139983 0.431671 0.584018
O O5 0.999813 0.390881 0.666550
O O6 0.998205 0.369107 0.500000
O O7 0.014820 0.265068 0.604279
O O8 0.464187 0.928373 0.750000
O O9 0.609119 0.000187 0.666550
O O10 0.568329 0.860017 0.915982
O O11 0.455894 0.727947 0.000000
O O12 0.795962 0.999468 0.750000
O O13 0.834876 0.917438 0.644429
O O14 0.734932 0.985180 0.604279
O O15 0.907018 0.092982 0.639710
O O16 0.795962 0.999468 0.250000
#
# Coordination Sequence:
#
# PCOD9585861 Si02
#       8
#     6  12   6  12  12   6  12  12
#     4   8  16  28  46  64  86 110 140 188 244 300
#     4  10  18  30  49  69  91 124 164 205 250 299
#     4  10  20  34  51  69  91 118 155 207 259 309
#     4   8  14  24  42  64  82 112 154 190 230 284
#     4  10  19  30  47  71 104 142 184 224 257 292
#     4  10  20  34  51  69  91 118 155 207 259 309
#     4  10  19  30  47  71 104 142 184 224 257 292
#     4  10  18  30  49  69  91 124 164 205 250 299
#
# _framework density 17.802258999999999
#
# number of rings (size 3 to 8) (size 9 to 14) (size 15 to 20)
#    0.000    2.462    3.077    0.308    0.000    2.462 
#    0.462    0.000    0.000    1.846    0.000    0.000 
#    0.000    0.000    0.000    3.692    0.000    8.000 
#
# Total GULP energy -434302.655736 kJ/mol
# GULP energy per Si atom -5567.982766 kJ/mol
# Density = 1.776174 g / cm^3
# Si number density = 17.802259 Si / 1000 Ang^3
#
#
#
# Elastic Constant Matrix: (Units=GPa)
#
#
# Indices 1 2 3 4 5 6 
#
# 1 37.7019 19.8117 23.1469 0.0000 0.0000 0.0000
# 2 19.8117 37.7019 23.1469 0.0000 0.0000 0.0000
# 3 23.1469 23.1469 196.2075 0.0000 0.0000 0.0000
# 4 0.0000 0.0000 0.0000 -33.1464 0.0000 0.0000
# 5 0.0000 0.0000 0.0000 0.0000 -33.1464 0.0000
# 6 0.0000 0.0000 0.0000 0.0000 0.0000 8.9451
#
#
#
# Elastic Compliance Matrix: (Units=1/GPa)
#
#
# Indices 1 2 3 4 5 6 
#
# 1 0.037554 -0.018343 -0.002266 0.000000 0.000000 0.000000
# 2 -0.018343 0.037554 -0.002266 0.000000 0.000000 0.000000
# 3 -0.002266 -0.002266 0.005631 0.000000 0.000000 0.000000
# 4 0.000000 0.000000 0.000000 -0.030169 0.000000 0.000000
# 5 0.000000 0.000000 0.000000 0.000000 -0.030169 0.000000
# 6 0.000000 0.000000 0.000000 0.000000 0.000000 0.111793
#
#
# Mechanical properties :
#
#
# Convention : Reuss Voigt Hill
#
# Bulk Modulus (GPa) = 28.58070 44.86916 36.72493
# Shear Modulus (GPa) = 26.37028 2.23086 14.30057
#
# Velocity S-wave (km/s) = 3.85293 1.12065 2.83733
# Velocity P-wave (km/s) = 5.99022 5.18974 5.60429
#
# Compressibility (1/GPa) = 0.03498865
#
# Stress axis : x y z
#
# Youngs Moduli (GPa) = 26.62835 26.62835 177.57617
#
# Poissons Ratio (x) = 0.48843 0.40246
# Poissons Ratio (y) = 0.48843 0.40246
# Poissons Ratio (z) = 0.06035 0.06035
#
# Static dielectric constant tensor:
#      x y z
#    x 1.573640 0.000000 0.000000 
#    y 0.000000 1.573640 0.000000 
#    z 0.000000 0.000000 1.731760 
# 
# From -- ./inp_files/3382.got.cif
#   From: 2010.05.17/outbox.cif.g08.bks.cpg/sg188_2_cif.got.tgz:3382.got - 2010.05.20 12:11:46.
