data_PCOD9585218
_publ_section_title
;
Structure prediction by ZEFSAII (Michael W. Deem and Ramdas Pophale) SiO2 
 PCOD9585218
Probable space group: P 63 C M
;
_chemical_formula_sum "Si O2"
_cell_formula_units_Z 84
_cell_length_a 15.578606
_cell_length_b 15.578606
_cell_length_c 23.344026
_cell_angle_alpha 90.000000
_cell_angle_beta 90.000000
_cell_angle_gamma 120.000000
_cell_volume 4906.407068
_symmetry_space_group_name_H-M "P 63 C M"
_symmetry_group_IT_number 185
_symmetry_cell_setting 'hexagonal'
loop_
_space_group_symop_operation_xyz
x,y,z
x-y,x,1/2+z
-y,x-y,z
-x,-y,1/2+z
-x+y,-x,z
y,-x+y,1/2+z
-x+y,y,1/2+z
x,x-y,1/2+z
-y,-x,1/2+z
y,x,z
x-y,-y,z
-x,-x+y,z
loop_
_atom_site_type_symbol
_atom_site_label
_atom_site_fract_x
_atom_site_fract_y
_atom_site_fract_z
Si Si1 0.891375 0.647278 0.817800
Si Si2 0.285508 0.885861 0.615269
Si Si3 0.397004 0.511718 0.900976
Si Si4 0.672519 0.118463 0.330888
Si Si5 0.547303 0.229669 0.513239
Si Si6 0.276934 0.886141 0.184541
Si Si7 0.576651 0.115088 0.216547
O O1 0.885591 0.548449 0.844511
O O2 0.787442 0.633387 0.837918
O O3 0.888249 0.646833 0.749110
O O4 0.000000 0.735767 0.835897
O O5 0.303304 0.837328 0.559302
O O6 0.177938 0.812452 0.641820
O O7 0.358474 0.886421 0.664369
O O8 0.315310 0.000000 0.605993
O O9 0.457860 0.457860 0.920944
O O10 0.474550 0.622589 0.881252
O O11 0.326194 0.510345 0.950518
O O12 0.647574 0.157038 0.271821
O O13 0.612661 0.000000 0.327794
O O14 0.654261 0.235171 0.520236
O O15 0.349914 0.840875 0.194228
O O16 0.341314 0.000000 0.164280
O O17 0.497082 0.000000 0.231545
#
# Coordination Sequence:
#
# PCOD9585218 Si02
#       7
#    12  12  12  12  12  12  12
#     4  10  19  31  50  77 109 139 173 217 267 314
#     4  11  21  35  54  75 101 141 182 220 265 318
#     4  10  19  34  53  76 107 143 180 219 264 319
#     4  10  18  31  51  77 108 140 179 218 260 316
#     4  10  22  36  50  72 107 139 180 219 266 320
#     4  10  19  33  51  77 107 135 171 219 267 318
#     4   9  17  30  47  72 104 133 167 212 262 311
#
# _framework density 17.120470999999998
#
# number of rings (size 3 to 8) (size 9 to 14) (size 15 to 20)
#    0.286    1.714    2.857    2.143    0.000    0.000 
#    1.714    2.143    0.000    1.429    0.000    0.000 
#    0.000    0.000    0.000    2.429    0.000    0.000 
#
# Total GULP energy -467711.506729 kJ/mol
# GULP energy per Si atom -5567.994128 kJ/mol
# Density = 1.708150 g / cm^3
# Si number density = 17.120471 Si / 1000 Ang^3
#
#
#
# Elastic Constant Matrix: (Units=GPa)
#
#
# Indices 1 2 3 4 5 6 
#
# 1 71.3890 26.8490 37.4047 0.0000 0.0000 0.0000
# 2 26.8490 71.3890 37.4047 0.0000 0.0000 0.0000
# 3 37.4047 37.4047 81.5078 0.0000 0.0000 0.0000
# 4 0.0000 0.0000 0.0000 19.8953 0.0000 0.0000
# 5 0.0000 0.0000 0.0000 0.0000 19.8953 0.0000
# 6 0.0000 0.0000 0.0000 0.0000 0.0000 22.2700
#
#
#
# Elastic Compliance Matrix: (Units=1/GPa)
#
#
# Indices 1 2 3 4 5 6 
#
# 1 0.019050 -0.003402 -0.007181 0.000000 0.000000 0.000000
# 2 -0.003402 0.019050 -0.007181 0.000000 0.000000 0.000000
# 3 -0.007181 -0.007181 0.018860 0.000000 0.000000 0.000000
# 4 0.000000 0.000000 0.000000 0.050263 0.000000 0.000000
# 5 0.000000 0.000000 0.000000 0.000000 0.050263 0.000000
# 6 0.000000 0.000000 0.000000 0.000000 0.000000 0.044903
#
#
# Mechanical properties :
#
#
# Convention : Reuss Voigt Hill
#
# Bulk Modulus (GPa) = 46.66054 47.51140 47.08597
# Shear Modulus (GPa) = 20.40319 20.58730 20.49524
#
# Velocity S-wave (km/s) = 3.45591 3.47146 3.46369
# Velocity P-wave (km/s) = 6.57555 6.62416 6.59990
#
# Compressibility (1/GPa) = 0.02143138
#
# Stress axis : x y z
#
# Youngs Moduli (GPa) = 52.49426 52.49426 53.02362
#
# Poissons Ratio (x) = 0.17859 0.38076
# Poissons Ratio (y) = 0.17859 0.38076
# Poissons Ratio (z) = 0.37695 0.37695
#
# Static dielectric constant tensor:
#      x y z
#    x 1.604940 0.000000 0.000000 
#    y 0.000000 1.604940 0.000000 
#    z 0.000000 0.000000 1.587620 
# 
# From -- ./inp_files/2091.got.cif
#   From: 2010.05.17/outbox.cif.g08.bks.cpg/sg185_cif.got.tgz:2091.got - 2010.05.20 12:05:34.
