data_PCOD9585665
_publ_section_title
;
Structure prediction by ZEFSAII (Michael W. Deem and Ramdas Pophale) SiO2 
 PCOD9585665
Probable space group: P -6 M 2
;
_chemical_formula_sum "Si O2"
_cell_formula_units_Z 60
_cell_length_a 12.648775
_cell_length_b 12.648775
_cell_length_c 26.636082
_cell_angle_alpha 90.000000
_cell_angle_beta 90.000000
_cell_angle_gamma 120.000000
_cell_volume 3690.607921
_symmetry_space_group_name_H-M "P -6 M 2"
_symmetry_group_IT_number 187
_symmetry_cell_setting 'hexagonal'
loop_
_space_group_symop_operation_xyz
x,y,z
-x+y,-x,-z
-y,x-y,z
x,y,-z
-x+y,-x,z
-y,x-y,-z
-y,-x,-z
-x+y,y,-z
x,x-y,-z
-x+y,y,z
x,x-y,z
-y,-x,z
loop_
_atom_site_type_symbol
_atom_site_label
_atom_site_fract_x
_atom_site_fract_y
_atom_site_fract_z
Si Si1 0.000435 0.748923 0.000000
Si Si2 0.584777 0.667080 0.901980
Si Si3 0.999664 0.748186 0.500000
Si Si4 0.746746 0.000546 0.610083
Si Si5 0.584445 0.666361 0.706490
Si Si6 0.748800 0.999654 0.195875
O O1 0.019436 0.687092 0.950702
O O2 0.871361 0.742721 0.000000
O O3 0.110548 0.889453 0.000000
O O4 0.554385 0.777193 0.902273
O O5 0.461953 0.538048 0.902817
O O6 0.663423 0.684982 0.852098
O O7 0.123138 0.876862 0.500000
O O8 0.996022 0.691643 0.554477
O O9 0.885051 0.770101 0.500000
O O10 0.768397 0.884199 0.611264
O O11 0.654900 0.979460 0.654990
O O12 0.875000 0.125001 0.616920
O O13 0.557878 0.778939 0.706392
O O14 0.460504 0.539497 0.711140
O O15 0.673208 0.689853 0.753478
O O16 0.779123 0.889562 0.195194
O O17 0.871458 0.128543 0.193953
#
# Coordination Sequence:
#
# PCOD9585665 Si02
#       6
#     6  12   6  12  12  12
#     4  10  20  34  54  78 104 134 168 210 256 298
#     4  10  20  34  54  78 104 134 167 204 242 284
#     4   8  13  22  39  66  96 122 148 182 232 288
#     4   9  16  27  46  71  97 122 150 190 239 289
#     4  10  20  33  49  68  93 126 162 199 236 279
#     4  10  20  34  54  78 102 126 154 195 245 294
#
# _framework density 16.257483000000001
#
# number of rings (size 3 to 8) (size 9 to 14) (size 15 to 20)
#    0.000    2.400    0.000    3.100    0.000    1.600 
#    0.000    7.500    0.000   13.600    0.000    1.400 
#    0.000    0.000    0.000    0.000    0.000    0.000 
#
# Total GULP energy -334509.291848 kJ/mol
# GULP energy per Si atom -5575.154864 kJ/mol
# Density = 1.622048 g / cm^3
# Si number density = 16.257483 Si / 1000 Ang^3
#
#
#
# Elastic Constant Matrix: (Units=GPa)
#
#
# Indices 1 2 3 4 5 6 
#
# 1 108.2580 76.1857 76.6557 0.0000 0.0004 0.0000
# 2 76.1857 108.2580 76.6557 0.0000 -0.0004 0.0000
# 3 76.6557 76.6557 172.1184 0.0000 0.0000 0.0000
# 4 0.0000 0.0000 0.0000 9.9816 0.0000 -0.0004
# 5 0.0004 -0.0004 0.0000 0.0000 9.9816 0.0000
# 6 0.0000 0.0000 0.0000 -0.0004 0.0000 16.0362
#
#
#
# Elastic Compliance Matrix: (Units=1/GPa)
#
#
# Indices 1 2 3 4 5 6 
#
# 1 0.019894 -0.011285 -0.003834 0.000000 -0.000001 0.000000
# 2 -0.011285 0.019894 -0.003834 0.000000 0.000001 0.000000
# 3 -0.003834 -0.003834 0.009225 0.000000 0.000000 0.000000
# 4 0.000000 0.000000 0.000000 0.100185 0.000000 0.000003
# 5 -0.000001 0.000001 0.000000 0.000000 0.100185 0.000000
# 6 0.000000 0.000000 0.000000 0.000003 0.000000 0.062359
#
#
# Mechanical properties :
#
#
# Convention : Reuss Voigt Hill
#
# Bulk Modulus (GPa) = 90.03949 94.18096 92.11022
# Shear Modulus (GPa) = 14.15026 17.80901 15.97963
#
# Velocity S-wave (km/s) = 2.95343 3.31333 3.13854
# Velocity P-wave (km/s) = 8.19353 8.52608 8.36146
#
# Compressibility (1/GPa) = 0.01110624
#
# Stress axis : x y z
#
# Youngs Moduli (GPa) = 50.26635 50.26635 108.40136
#
# Poissons Ratio (x) = 0.56728 0.41561
# Poissons Ratio (y) = 0.56728 0.41561
# Poissons Ratio (z) = 0.19272 0.19272
#
# Static dielectric constant tensor:
#      x y z
#    x 1.506540 0.000000 0.000000 
#    y 0.000000 1.506540 0.000000 
#    z 0.000000 0.000000 1.573880 
# 
# From -- ./inp_files/4163.got.cif
#   From: 2010.05.17/outbox.cif.g08.bks.cpg/sg187_3_cif.got.tgz:4163.got - 2010.05.20 12:09:04.
