data_PCOD9585451
_publ_section_title
;
Structure prediction by ZEFSAII (Michael W. Deem and Ramdas Pophale) SiO2 
 PCOD9585451
Probable space group: P -6 M 2
;
_chemical_formula_sum "Si O2"
_cell_formula_units_Z 96
_cell_length_a 17.996260
_cell_length_b 17.996260
_cell_length_c 20.369777
_cell_angle_alpha 90.000000
_cell_angle_beta 90.000000
_cell_angle_gamma 120.000000
_cell_volume 5713.226267
_symmetry_space_group_name_H-M "P -6 M 2"
_symmetry_group_IT_number 187
_symmetry_cell_setting 'hexagonal'
loop_
_space_group_symop_operation_xyz
x,y,z
-x+y,-x,-z
-y,x-y,z
x,y,-z
-x+y,-x,z
-y,x-y,-z
-y,-x,-z
-x+y,y,-z
x,x-y,-z
-x+y,y,z
x,x-y,z
-y,-x,z
loop_
_atom_site_type_symbol
_atom_site_label
_atom_site_fract_x
_atom_site_fract_y
_atom_site_fract_z
Si Si1 0.698372 0.135112 0.794771
Si Si2 0.967649 0.198568 0.796402
Si Si3 0.609675 0.561090 0.927011
Si Si4 0.331220 0.488493 0.244231
Si Si5 0.642903 0.739621 0.877945
Si Si6 0.166593 0.999014 0.648212
Si Si7 0.424610 0.015848 0.320402
Si Si8 0.345684 0.088098 0.577084
O O1 0.764168 0.235833 0.783979
O O2 0.754935 0.088491 0.789934
O O3 0.657768 0.113633 0.867341
O O4 0.626932 0.083168 0.740233
O O5 0.899587 0.100414 0.817701
O O6 0.000507 0.195253 0.723745
O O7 0.043456 0.262669 0.844248
O O8 0.508933 0.491067 0.920262
O O9 0.628729 0.658297 0.919914
O O10 0.636725 0.550199 0.000000
O O11 0.249753 0.499505 0.263120
O O12 0.418874 0.581127 0.236103
O O13 0.302566 0.430577 0.178371
O O14 0.354352 0.432744 0.293957
O O15 0.635129 0.817565 0.909046
O O16 0.132855 0.066428 0.646316
O O17 0.247490 0.035784 0.600726
O O18 0.094327 0.905674 0.629021
O O19 0.503589 0.007177 0.344588
O O20 0.392762 0.053635 0.376908
O O21 0.353940 0.077594 0.500000
O O22 0.375498 0.187749 0.590179
#
# Coordination Sequence:
#
# PCOD9585451 Si02
#       8
#    12  12  12  12  12  12  12  12
#     4  10  18  32  54  77 100 128 165 206 252 308
#     4   9  16  27  46  71 100 133 165 207 260 306
#     4  10  20  34  51  73 105 141 174 212 259 310
#     4  10  19  31  49  75 107 141 175 216 263 309
#     4  10  18  29  48  73 102 137 179 223 260 302
#     4  10  18  29  46  71 103 137 171 205 244 292
#     4  11  20  33  56  81 104 129 167 215 258 302
#     4  10  21  37  54  73 101 136 169 203 252 309
#
# _framework density 16.803115999999999
#
# number of rings (size 3 to 8) (size 9 to 14) (size 15 to 20)
#    0.000    2.000    3.750    1.750    0.000    2.500 
#    0.000    0.000    0.000    5.750    0.000    0.000 
#    0.000    1.000    0.000    0.750    0.000    0.000 
#
# Total GULP energy -534710.437954 kJ/mol
# GULP energy per Si atom -5569.900395 kJ/mol
# Density = 1.676487 g / cm^3
# Si number density = 16.803116 Si / 1000 Ang^3
#
#
#
# Elastic Constant Matrix: (Units=GPa)
#
#
# Indices 1 2 3 4 5 6 
#
# 1 67.2803 35.9684 32.2436 0.0000 0.0005 0.0000
# 2 35.9684 67.2803 32.2436 0.0000 -0.0005 0.0000
# 3 32.2436 32.2436 66.1110 0.0000 0.0000 0.0000
# 4 0.0000 0.0000 0.0000 -1.3209 0.0000 -0.0005
# 5 0.0005 -0.0005 0.0000 0.0000 -1.3209 0.0000
# 6 0.0000 0.0000 0.0000 -0.0005 0.0000 15.6559
#
#
#
# Elastic Compliance Matrix: (Units=1/GPa)
#
#
# Indices 1 2 3 4 5 6 
#
# 1 0.022932 -0.009004 -0.006793 0.000000 0.000012 0.000000
# 2 -0.009004 0.022932 -0.006793 0.000000 -0.000012 0.000000
# 3 -0.006793 -0.006793 0.021752 0.000000 0.000000 0.000000
# 4 0.000000 0.000000 0.000000 -0.757072 0.000000 -0.000024
# 5 0.000012 -0.000012 0.000000 0.000000 -0.757072 0.000000
# 6 0.000000 0.000000 0.000000 -0.000024 0.000000 0.063874
#
#
# Mechanical properties :
#
#
# Convention : Reuss Voigt Hill
#
# Bulk Modulus (GPa) = 44.57035 44.62033 44.59534
# Shear Modulus (GPa) = -3.75942 9.28389 2.76224
#
# Velocity S-wave (km/s) = -1.49739 2.35310 1.28353
# Velocity P-wave (km/s) = 4.85727 5.83054 5.36602
#
# Compressibility (1/GPa) = 0.02243644
#
# Stress axis : x y z
#
# Youngs Moduli (GPa) = 43.60628 43.60628 45.97227
#
# Poissons Ratio (x) = 0.39265 0.31229
# Poissons Ratio (y) = 0.39265 0.31229
# Poissons Ratio (z) = 0.29622 0.29622
#
# Static dielectric constant tensor:
#      x y z
#    x 1.582620 0.000000 0.000000 
#    y 0.000000 1.582620 0.000000 
#    z 0.000000 0.000000 1.556590 
# 
# From -- ./inp_files/3806.got.cif
#   From: 2010.05.17/outbox.cif.g08.bks.cpg/sg187_2_cif.got.tgz:3806.got - 2010.05.20 12:09:04.
