data_PCOD9585856
_publ_section_title
;
Structure prediction by ZEFSAII (Michael W. Deem and Ramdas Pophale) SiO2 
 PCOD9585856
Probable space group: P -6 C 2
;
_chemical_formula_sum "Si O2"
_cell_formula_units_Z 96
_cell_length_a 18.949178
_cell_length_b 18.949178
_cell_length_c 15.477594
_cell_angle_alpha 90.000000
_cell_angle_beta 90.000000
_cell_angle_gamma 120.000000
_cell_volume 4812.988597
_symmetry_space_group_name_H-M "P -6 C 2"
_symmetry_group_IT_number 188
_symmetry_cell_setting 'hexagonal'
loop_
_space_group_symop_operation_xyz
x,y,z
-x+y,-x,1/2-z
-y,x-y,z
x,y,1/2-z
-x+y,-x,z
-y,x-y,1/2-z
-y,-x,-z
-x+y,y,-z
x,x-y,-z
-x+y,y,1/2+z
x,x-y,1/2+z
-y,-x,1/2+z
loop_
_atom_site_type_symbol
_atom_site_label
_atom_site_fract_x
_atom_site_fract_y
_atom_site_fract_z
Si Si1 0.571996 0.428006 0.606271
Si Si2 0.041550 0.239542 0.355559
Si Si3 0.572951 0.709458 0.353771
Si Si4 0.760457 0.958450 0.144441
Si Si5 0.288000 0.144000 0.354281
Si Si6 0.479149 0.520852 0.898567
Si Si7 0.479554 0.239776 0.396346
Si Si8 0.136509 0.427050 0.853771
O O1 0.572175 0.427826 0.500000
O O2 0.525163 0.474840 0.638141
O O3 0.666477 0.475462 0.634418
O O4 0.524538 0.333525 0.634418
O O5 0.040111 0.238564 0.250000
O O6 0.081799 0.333585 0.383119
O O7 0.104975 0.209949 0.381619
O O8 0.949075 0.189702 0.385911
O O9 0.574972 0.713288 0.250000
O O10 0.521845 0.615679 0.376644
O O11 0.542474 0.771236 0.384511
O O12 0.761434 0.959889 0.250000
O O13 0.666414 0.918200 0.116881
O O14 0.810296 0.050926 0.114089
O O15 0.283237 0.141618 0.250000
O O16 0.383556 0.191777 0.376073
O O17 0.521844 0.615680 0.876644
O O18 0.485188 0.514813 0.000000
O O19 0.487040 0.243520 0.500000
O O20 0.138318 0.425029 0.750000
#
# Coordination Sequence:
#
# PCOD9585856 Si02
#       8
#    12  12  12  12  12  12  12  12
#     4   9  19  33  51  75 101 135 173 208 242 291
#     4   8  15  29  48  71  99 129 161 199 240 285
#     4   9  18  34  53  69  91 129 170 198 231 291
#     4   8  15  29  48  71  99 129 161 199 240 285
#     4  10  18  29  49  77 103 127 162 208 251 289
#     4  11  21  32  49  77 105 123 154 208 259 293
#     4  10  19  34  53  71  99 137 175 206 242 293
#     4   9  18  34  53  69  91 129 170 198 231 291
#
# _framework density 19.946026
#
# number of rings (size 3 to 8) (size 9 to 14) (size 15 to 20)
#    0.000    2.750    0.000    3.625    0.000    1.500 
#    1.500    1.875    0.000    2.250    0.000    0.000 
#    0.000    0.000    0.000    0.000    0.000    0.000 
#
# Total GULP energy -535493.273454 kJ/mol
# GULP energy per Si atom -5578.054932 kJ/mol
# Density = 1.990063 g / cm^3
# Si number density = 19.946026 Si / 1000 Ang^3
#
#
#
# Elastic Constant Matrix: (Units=GPa)
#
#
# Indices 1 2 3 4 5 6 
#
# 1 221.2238 129.0784 8.3838 0.0000 0.0000 0.0000
# 2 129.0784 221.2238 8.3838 0.0000 0.0000 0.0000
# 3 8.3838 8.3838 27.1227 0.0000 0.0000 0.0000
# 4 0.0000 0.0000 0.0000 5.5015 0.0000 0.0000
# 5 0.0000 0.0000 0.0000 0.0000 5.5015 0.0000
# 6 0.0000 0.0000 0.0000 0.0000 0.0000 46.0727
#
#
#
# Elastic Compliance Matrix: (Units=1/GPa)
#
#
# Indices 1 2 3 4 5 6 
#
# 1 0.006875 -0.003977 -0.000896 0.000000 0.000000 0.000000
# 2 -0.003977 0.006875 -0.000896 0.000000 0.000000 0.000000
# 3 -0.000896 -0.000896 0.037423 0.000000 0.000000 0.000000
# 4 0.000000 0.000000 0.000000 0.181768 0.000000 0.000000
# 5 0.000000 0.000000 0.000000 0.000000 0.181768 0.000000
# 6 0.000000 0.000000 0.000000 0.000000 0.000000 0.021705
#
#
# Mechanical properties :
#
#
# Convention : Reuss Voigt Hill
#
# Bulk Modulus (GPa) = 25.22979 84.58468 54.90724
# Shear Modulus (GPa) = 10.84212 32.99676 21.91944
#
# Velocity S-wave (km/s) = 2.33399 4.07172 3.31862
# Velocity P-wave (km/s) = 4.46541 8.03767 6.50169
#
# Compressibility (1/GPa) = 0.03963568
#
# Stress axis : x y z
#
# Youngs Moduli (GPa) = 145.45489 145.45489 26.72142
#
# Poissons Ratio (x) = 0.57854 0.02393
# Poissons Ratio (y) = 0.57854 0.02393
# Poissons Ratio (z) = 0.13028 0.13028
#
# Static dielectric constant tensor:
#      x y z
#    x 1.595910 0.000000 0.000000 
#    y 0.000000 1.595910 0.000000 
#    z 0.000000 0.000000 1.750740 
# 
# From -- ./inp_files/3874.got.cif
#   From: 2010.05.17/outbox.cif.g08.bks.cpg/sg188_2_cif.got.tgz:3874.got - 2010.05.20 12:11:46.
