data_PCOD9585188
_publ_section_title
;
Structure prediction by ZEFSAII (Michael W. Deem and Ramdas Pophale) SiO2 
 PCOD9585188
Probable space group: P 6 C C
;
_chemical_formula_sum "Si O2"
_cell_formula_units_Z 44
_cell_length_a 14.185283
_cell_length_b 14.185283
_cell_length_c 13.382748
_cell_angle_alpha 90.000000
_cell_angle_beta 90.000000
_cell_angle_gamma 120.000000
_cell_volume 2332.125625
_symmetry_space_group_name_H-M "P 6 C C"
_symmetry_group_IT_number 184
_symmetry_cell_setting 'hexagonal'
loop_
_space_group_symop_operation_xyz
x,y,z
x-y,x,z
-y,x-y,z
-x,-y,z
-x+y,-x,z
y,-x+y,z
-x+y,y,1/2+z
x,x-y,1/2+z
-y,-x,1/2+z
y,x,1/2+z
x-y,-y,1/2+z
-x,-x+y,1/2+z
loop_
_atom_site_type_symbol
_atom_site_label
_atom_site_fract_x
_atom_site_fract_y
_atom_site_fract_z
Si Si1 0.183694 0.434646 0.479250
Si Si2 0.666668 0.333335 0.185170
Si Si3 0.595721 0.627720 0.900302
Si Si4 0.333334 0.666668 0.946239
Si Si5 0.617020 0.102162 0.683957
O O1 0.284960 0.414231 0.470656
O O2 0.233922 0.550738 0.422400
O O3 0.144676 0.443422 0.591130
O O4 0.072724 0.360154 0.421481
O O5 0.599566 0.207617 0.213654
O O6 0.666668 0.333334 0.065948
O O7 0.500000 0.500000 0.917530
O O8 0.584704 0.652586 0.784974
O O9 0.500000 0.000000 0.654189
#
# Coordination Sequence:
#
# PCOD9585188 Si02
#       5
#    12   4  12   4  12
#     4  11  22  39  60  88 130 167 215 275 334 403
#     4   9  21  37  59  85 124 173 214 280 329 403
#     4  11  24  37  62  92 124 175 222 272 340 416
#     4   9  18  34  59  82 118 164 202 259 326 394
#     4  10  24  38  58  90 130 174 222 271 338 410
#
# _framework density 18.866909
#
# number of rings (size 3 to 8) (size 9 to 14) (size 15 to 20)
#    0.000    1.636    2.727    0.818   15.273    0.000 
#    0.000    0.000    0.000    0.545    0.000    0.000 
#    0.000    4.364    0.000    0.000    0.000    0.000 
#
# Total GULP energy -245269.040179 kJ/mol
# GULP energy per Si atom -5574.296368 kJ/mol
# Density = 1.882397 g / cm^3
# Si number density = 18.866909 Si / 1000 Ang^3
#
#
#
# Elastic Constant Matrix: (Units=GPa)
#
#
# Indices 1 2 3 4 5 6 
#
# 1 115.2171 51.3793 36.1732 0.0000 0.0001 0.0000
# 2 51.3793 115.2164 36.1720 0.0001 -0.0002 0.0000
# 3 36.1732 36.1720 124.6883 0.0001 0.0001 -0.0002
# 4 0.0000 0.0001 0.0001 15.3898 -0.0003 0.0002
# 5 0.0001 -0.0002 0.0001 -0.0003 15.3904 0.0000
# 6 0.0000 0.0000 -0.0002 0.0002 0.0000 31.9190
#
#
#
# Elastic Compliance Matrix: (Units=1/GPa)
#
#
# Indices 1 2 3 4 5 6 
#
# 1 0.011266 -0.004399 -0.001992 0.000000 0.000000 0.000000
# 2 -0.004399 0.011266 -0.001992 0.000000 0.000000 0.000000
# 3 -0.001992 -0.001992 0.009176 0.000000 0.000000 0.000000
# 4 0.000000 0.000000 0.000000 0.064978 0.000001 0.000000
# 5 0.000000 0.000000 0.000000 0.000001 0.064976 0.000000
# 6 0.000000 0.000000 0.000000 0.000000 0.000000 0.031329
#
#
# Mechanical properties :
#
#
# Convention : Reuss Voigt Hill
#
# Bulk Modulus (GPa) = 66.92538 66.95232 66.93885
# Shear Modulus (GPa) = 23.28413 27.96632 25.62522
#
# Velocity S-wave (km/s) = 3.51682 3.85423 3.68939
# Velocity P-wave (km/s) = 7.21388 7.44114 7.32839
#
# Compressibility (1/GPa) = 0.01494201
#
# Stress axis : x y z
#
# Youngs Moduli (GPa) = 88.76059 88.76051 108.98015
#
# Poissons Ratio (x) = 0.39042 0.21714
# Poissons Ratio (y) = 0.39042 0.21712
# Poissons Ratio (z) = 0.17685 0.17684
#
# Static dielectric constant tensor:
#      x y z
#    x 1.698770 0.000000 0.000000 
#    y 0.000000 1.698770 0.000000 
#    z 0.000000 0.000000 1.732940 
# 
# From -- ./inp_files/763.got.cif
#   From: 2010.05.17/outbox.cif.g08.bks.cpg/sg184_cif.got.tgz:763.got - 2010.05.20 12:04:40.
