data_PCOD9585596
_publ_section_title
;
Structure prediction by ZEFSAII (Michael W. Deem and Ramdas Pophale) SiO2 
 PCOD9585596
Probable space group: P -6 M 2
;
_chemical_formula_sum "Si O2"
_cell_formula_units_Z 66
_cell_length_a 13.523720
_cell_length_b 13.523720
_cell_length_c 27.945484
_cell_angle_alpha 90.000000
_cell_angle_beta 90.000000
_cell_angle_gamma 120.000000
_cell_volume 4426.236429
_symmetry_space_group_name_H-M "P -6 M 2"
_symmetry_group_IT_number 187
_symmetry_cell_setting 'hexagonal'
loop_
_space_group_symop_operation_xyz
x,y,z
-x+y,-x,-z
-y,x-y,z
x,y,-z
-x+y,-x,z
-y,x-y,-z
-y,-x,-z
-x+y,y,-z
x,x-y,-z
-x+y,y,z
x,x-y,z
-y,-x,z
loop_
_atom_site_type_symbol
_atom_site_label
_atom_site_fract_x
_atom_site_fract_y
_atom_site_fract_z
Si Si1 0.100686 0.433806 0.075816
Si Si2 0.665985 0.567083 0.370783
Si Si3 0.429665 0.095858 0.000000
Si Si4 0.102366 0.667613 0.188771
Si Si5 0.000342 0.766516 0.444510
Si Si6 0.899973 0.332739 0.260511
O O1 0.211463 0.422925 0.063323
O O2 0.128563 0.564282 0.067691
O O3 0.077316 0.409309 0.132336
O O4 0.987914 0.355118 0.045057
O O5 0.771535 0.543069 0.374966
O O6 0.547737 0.452264 0.380065
O O7 0.689914 0.666116 0.408000
O O8 0.665960 0.602647 0.315601
O O9 0.561256 0.122511 0.000000
O O10 0.424126 0.212063 0.000000
O O11 0.126984 0.563492 0.195946
O O12 0.213599 0.786402 0.200437
O O13 0.997336 0.641829 0.222674
O O14 0.998616 0.732246 0.500000
O O15 0.895584 0.791167 0.438939
O O16 0.119338 0.880662 0.435496
O O17 0.875500 0.437750 0.256201
O O18 0.785512 0.214489 0.251755
#
# Coordination Sequence:
#
# PCOD9585596 Si02
#       6
#    12  12   6  12  12  12
#     4   9  17  30  49  71  91 112 142 183 227 264
#     4   9  17  29  45  65  89 116 146 181 220 259
#     4  10  20  32  46  66  94 124 150 178 216 262
#     4   9  17  29  46  68  92 116 143 179 223 265
#     4   9  17  29  45  64  85 110 141 178 219 261
#     4   9  17  29  45  65  89 118 150 182 216 256
#
# _framework density 14.911089
#
# number of rings (size 3 to 8) (size 9 to 14) (size 15 to 20)
#    0.000    2.909    0.000    1.273    0.000    5.455 
#    0.000    0.909    0.000    5.455    0.000    0.000 
#    0.000    0.000    0.000    0.000    0.000    0.000 
#
# Total GULP energy -367659.442582 kJ/mol
# GULP energy per Si atom -5570.597615 kJ/mol
# Density = 1.487715 g / cm^3
# Si number density = 14.911089 Si / 1000 Ang^3
#
#
#
# Elastic Constant Matrix: (Units=GPa)
#
#
# Indices 1 2 3 4 5 6 
#
# 1 101.9822 64.6783 76.9541 0.0000 -0.0001 0.0000
# 2 64.6783 101.9822 76.9541 0.0000 0.0001 0.0000
# 3 76.9541 76.9541 98.4801 0.0000 0.0000 0.0000
# 4 0.0000 0.0000 0.0000 23.9468 0.0000 0.0001
# 5 -0.0001 0.0001 0.0000 0.0000 23.9468 0.0000
# 6 0.0000 0.0000 0.0000 0.0001 0.0000 18.6519
#
#
#
# Elastic Compliance Matrix: (Units=1/GPa)
#
#
# Indices 1 2 3 4 5 6 
#
# 1 0.024181 -0.002626 -0.016843 0.000000 0.000000 0.000000
# 2 -0.002626 0.024181 -0.016843 0.000000 0.000000 0.000000
# 3 -0.016843 -0.016843 0.036477 0.000000 0.000000 0.000000
# 4 0.000000 0.000000 0.000000 0.041759 0.000000 0.000000
# 5 0.000000 0.000000 0.000000 0.000000 0.041759 0.000000
# 6 0.000000 0.000000 0.000000 0.000000 0.000000 0.053614
#
#
# Mechanical properties :
#
#
# Convention : Reuss Voigt Hill
#
# Bulk Modulus (GPa) = 81.87317 82.17971 82.02644
# Shear Modulus (GPa) = 16.74103 18.89964 17.82033
#
# Velocity S-wave (km/s) = 3.35434 3.56404 3.46078
# Velocity P-wave (km/s) = 8.36833 8.49525 8.43203
#
# Compressibility (1/GPa) = 0.01221401
#
# Stress axis : x y z
#
# Youngs Moduli (GPa) = 41.35522 41.35522 27.41418
#
# Poissons Ratio (x) = 0.10860 0.46174
# Poissons Ratio (y) = 0.10860 0.46174
# Poissons Ratio (z) = 0.69655 0.69655
#
# Static dielectric constant tensor:
#      x y z
#    x 1.467570 0.000000 0.000000 
#    y 0.000000 1.467570 0.000000 
#    z 0.000000 0.000000 1.505540 
# 
# From -- ./inp_files/4425.got.cif
#   From: 2010.05.17/outbox.cif.g08.bks.cpg/sg187_3_cif.got.tgz:4425.got - 2010.05.20 12:09:04.
