data_PCOD9585852
_publ_section_title
;
Structure prediction by ZEFSAII (Michael W. Deem and Ramdas Pophale) SiO2 
 PCOD9585852
Probable space group: P -6 C 2
;
_chemical_formula_sum "Si O2"
_cell_formula_units_Z 72
_cell_length_a 24.030119
_cell_length_b 24.030119
_cell_length_c 8.623570
_cell_angle_alpha 90.000000
_cell_angle_beta 90.000000
_cell_angle_gamma 120.000000
_cell_volume 4312.504564
_symmetry_space_group_name_H-M "P -6 C 2"
_symmetry_group_IT_number 188
_symmetry_cell_setting 'hexagonal'
loop_
_space_group_symop_operation_xyz
x,y,z
-x+y,-x,1/2-z
-y,x-y,z
x,y,1/2-z
-x+y,-x,z
-y,x-y,1/2-z
-y,-x,-z
-x+y,y,-z
x,x-y,-z
-x+y,y,1/2+z
x,x-y,1/2+z
-y,-x,1/2+z
loop_
_atom_site_type_symbol
_atom_site_label
_atom_site_fract_x
_atom_site_fract_y
_atom_site_fract_z
Si Si1 0.805168 0.735653 0.063435
Si Si2 0.074723 0.600330 0.063963
Si Si3 0.459016 0.667456 0.435241
Si Si4 0.734405 0.140318 0.936141
Si Si5 0.931667 0.403331 0.935529
Si Si6 0.124276 0.999042 0.063618
O O1 0.806063 0.735305 0.250000
O O2 0.748729 0.665667 0.014480
O O3 0.816143 0.805065 0.016428
O O4 0.868431 0.736862 0.000000
O O5 0.081079 0.603095 0.250000
O O6 0.003668 0.586484 0.022563
O O7 0.073672 0.536836 0.000000
O O8 0.139553 0.657131 0.990853
O O9 0.455818 0.666119 0.250000
O O10 0.392962 0.607039 0.500000
O O11 0.465089 0.732545 0.500000
O O12 0.735198 0.143693 0.750000
O O13 0.792866 0.207135 0.000000
O O14 0.664824 0.121347 0.998943
O O15 0.928246 0.403794 0.750000
O O16 0.925037 0.462519 0.000000
O O17 0.120978 0.999703 0.250000
O O18 0.066504 0.933497 0.000000
O O19 0.118210 0.059105 0.000000
#
# Coordination Sequence:
#
# PCOD9585852 Si02
#       6
#    12  12  12  12  12  12
#     4   8  16  29  45  65  90 121 158 199 241 284
#     4   9  17  30  47  68  94 124 161 202 244 288
#     4  11  20  30  44  64  92 125 164 208 256 305
#     4  10  19  33  54  79 105 131 161 197 237 280
#     4  10  20  34  54  80 107 133 162 196 234 278
#     4  10  18  28  41  60  87 120 159 202 249 297
#
# _framework density 16.695633999999998
#
# number of rings (size 3 to 8) (size 9 to 14) (size 15 to 20)
#    0.000    2.333    0.000    4.833    0.000    3.333 
#    0.000    0.000    0.000    1.333    0.000    7.000 
#    0.000    0.000    0.000    0.000    0.000    0.000 
#
# Total GULP energy -400947.875910 kJ/mol
# GULP energy per Si atom -5568.720499 kJ/mol
# Density = 1.665763 g / cm^3
# Si number density = 16.695634 Si / 1000 Ang^3
#
#
#
# Elastic Constant Matrix: (Units=GPa)
#
#
# Indices 1 2 3 4 5 6 
#
# 1 103.0736 57.1594 36.6352 0.0000 0.0000 0.0000
# 2 57.1594 103.0736 36.6352 0.0000 0.0000 0.0000
# 3 36.6352 36.6352 74.7507 0.0000 0.0000 0.0000
# 4 0.0000 0.0000 0.0000 16.3346 0.0000 0.0000
# 5 0.0000 0.0000 0.0000 0.0000 16.3346 0.0000
# 6 0.0000 0.0000 0.0000 0.0000 0.0000 22.9571
#
#
#
# Elastic Compliance Matrix: (Units=1/GPa)
#
#
# Indices 1 2 3 4 5 6 
#
# 1 0.014912 -0.006868 -0.003942 0.000000 0.000000 0.000000
# 2 -0.006868 0.014912 -0.003942 0.000000 0.000000 0.000000
# 3 -0.003942 -0.003942 0.017242 0.000000 0.000000 0.000000
# 4 0.000000 0.000000 0.000000 0.061220 0.000000 0.000000
# 5 0.000000 0.000000 0.000000 0.000000 0.061220 0.000000
# 6 0.000000 0.000000 0.000000 0.000000 0.000000 0.043560
#
#
# Mechanical properties :
#
#
# Convention : Reuss Voigt Hill
#
# Bulk Modulus (GPa) = 56.94617 60.19527 58.57072
# Shear Modulus (GPa) = 20.12703 21.15648 20.64175
#
# Velocity S-wave (km/s) = 3.47584 3.56362 3.52000
# Velocity P-wave (km/s) = 7.09162 7.28459 7.18875
#
# Compressibility (1/GPa) = 0.01756044
#
# Stress axis : x y z
#
# Youngs Moduli (GPa) = 67.06162 67.06162 57.99835
#
# Poissons Ratio (x) = 0.46059 0.22864
# Poissons Ratio (y) = 0.46059 0.22864
# Poissons Ratio (z) = 0.26437 0.26437
#
# Static dielectric constant tensor:
#      x y z
#    x 1.567370 0.000000 0.000000 
#    y 0.000000 1.567370 0.000000 
#    z 0.000000 0.000000 1.622070 
# 
# From -- ./inp_files/1065.got.cif
#   From: 2010.05.17/outbox.cif.g08.bks.cpg/sg188_1_cif.got.tgz:1065.got - 2010.05.20 12:11:46.
