data_PCOD9585737
_publ_section_title
;
Structure prediction by ZEFSAII (Michael W. Deem and Ramdas Pophale) SiO2 
 PCOD9585737
Probable space group: P -6 M 2
;
_chemical_formula_sum "Si O2"
_cell_formula_units_Z 72
_cell_length_a 12.607849
_cell_length_b 12.607849
_cell_length_c 31.521137
_cell_angle_alpha 90.000000
_cell_angle_beta 90.000000
_cell_angle_gamma 120.000000
_cell_volume 4339.248318
_symmetry_space_group_name_H-M "P -6 M 2"
_symmetry_group_IT_number 187
_symmetry_cell_setting 'hexagonal'
loop_
_space_group_symop_operation_xyz
x,y,z
-x+y,-x,-z
-y,x-y,z
x,y,-z
-x+y,-x,z
-y,x-y,-z
-y,-x,-z
-x+y,y,-z
x,x-y,-z
-x+y,y,z
x,x-y,z
-y,-x,z
loop_
_atom_site_type_symbol
_atom_site_label
_atom_site_fract_x
_atom_site_fract_y
_atom_site_fract_z
Si Si1 0.333535 0.919112 0.500000
Si Si2 0.666204 0.584952 0.416905
Si Si3 0.332936 0.918617 0.000000
Si Si4 0.251701 0.252156 0.249745
Si Si5 0.080956 0.666669 0.333328
Si Si6 0.081256 0.414278 0.166685
Si Si7 0.747710 0.748132 0.083309
O O1 0.205007 0.794994 0.500000
O O2 0.445205 0.890409 0.500000
O O3 0.351078 0.999291 0.458237
O O4 0.795956 0.591911 0.416948
O O5 0.555919 0.444082 0.417961
O O6 0.646284 0.644637 0.374759
O O7 0.314218 0.980624 0.958277
O O8 0.222269 0.777732 0.000000
O O9 0.462247 0.924494 0.000000
O O10 0.258501 0.129251 0.249432
O O11 0.310946 0.330919 0.292081
O O12 0.316261 0.335032 0.208638
O O13 0.110861 0.221723 0.248547
O O14 0.093611 0.546806 0.327515
O O15 0.213790 0.786211 0.338961
O O16 0.221931 0.443862 0.166920
O O17 0.075994 0.537997 0.166044
O O18 0.019158 0.332498 0.125173
O O19 0.871007 0.742013 0.083172
O O20 0.778137 0.889069 0.083162
#
# Coordination Sequence:
#
# PCOD9585737 Si02
#       7
#     6  12   6  12  12  12  12
#     4  10  20  34  54  78 104 134 168 210 256 302
#     4  10  20  34  53  76 103 135 170 208 250 299
#     4  10  20  34  54  78 104 134 168 210 256 302
#     4  10  20  34  53  76 103 135 170 209 252 300
#     4  10  20  34  54  78 104 134 168 210 256 302
#     4  10  20  34  54  78 104 134 168 210 256 302
#     4  10  20  34  54  78 104 134 168 209 254 301
#
# _framework density 16.592735000000001
#
# number of rings (size 3 to 8) (size 9 to 14) (size 15 to 20)
#    0.000    2.000    0.000    4.000    0.000    0.000 
#    0.000    8.333    0.000   18.000    0.000    0.000 
#    0.000    0.000    0.000    0.000    0.000    0.000 
#
# Total GULP energy -402062.753001 kJ/mol
# GULP energy per Si atom -5584.204903 kJ/mol
# Density = 1.655497 g / cm^3
# Si number density = 16.592735 Si / 1000 Ang^3
#
#
#
# Elastic Constant Matrix: (Units=GPa)
#
#
# Indices 1 2 3 4 5 6 
#
# 1 151.2732 113.6279 99.3948 0.0000 0.0000 0.0000
# 2 113.6279 151.2732 99.3948 0.0000 0.0000 0.0000
# 3 99.3948 99.3948 182.5353 0.0000 0.0000 0.0000
# 4 0.0000 0.0000 0.0000 12.3195 0.0000 0.0000
# 5 0.0000 0.0000 0.0000 0.0000 12.3195 0.0000
# 6 0.0000 0.0000 0.0000 0.0000 0.0000 18.8227
#
#
#
# Elastic Compliance Matrix: (Units=1/GPa)
#
#
# Indices 1 2 3 4 5 6 
#
# 1 0.016474 -0.010090 -0.003476 0.000000 0.000000 0.000000
# 2 -0.010090 0.016474 -0.003476 0.000000 0.000000 0.000000
# 3 -0.003476 -0.003476 0.009264 0.000000 0.000000 0.000000
# 4 0.000000 0.000000 0.000000 0.081172 0.000000 0.000000
# 5 0.000000 0.000000 0.000000 0.000000 0.081172 0.000000
# 6 0.000000 0.000000 0.000000 0.000000 0.000000 0.053127
#
#
# Mechanical properties :
#
#
# Convention : Reuss Voigt Hill
#
# Bulk Modulus (GPa) = 123.04679 123.32408 123.18543
# Shear Modulus (GPa) = 16.97937 20.20331 18.59134
#
# Velocity S-wave (km/s) = 3.20238 3.49320 3.35094
# Velocity P-wave (km/s) = 9.38039 9.52656 9.45376
#
# Compressibility (1/GPa) = 0.00812699
#
# Stress axis : x y z
#
# Youngs Moduli (GPa) = 60.70331 60.70331 107.94649
#
# Poissons Ratio (x) = 0.61250 0.37521
# Poissons Ratio (y) = 0.61250 0.37521
# Poissons Ratio (z) = 0.21100 0.21100
#
# Static dielectric constant tensor:
#      x y z
#    x 1.522340 0.000000 0.000000 
#    y 0.000000 1.522340 0.000000 
#    z 0.000000 0.000000 1.548980 
# 
# From -- ./inp_files/4567.got.cif
#   From: 2010.05.17/outbox.cif.g08.bks.cpg/sg187_3_cif.got.tgz:4567.got - 2010.05.20 12:09:04.
