data_PCOD9585048
_publ_section_title
;
Structure prediction by ZEFSAII (Michael W. Deem and Ramdas Pophale) SiO2 
 PCOD9585048
Probable space group: P 6 M M
;
_chemical_formula_sum "Si O2"
_cell_formula_units_Z 84
_cell_length_a 21.505017
_cell_length_b 21.505017
_cell_length_c 12.620131
_cell_angle_alpha 90.000000
_cell_angle_beta 90.000000
_cell_angle_gamma 120.000000
_cell_volume 5054.451983
_symmetry_space_group_name_H-M "P 6 M M"
_symmetry_group_IT_number 183
_symmetry_cell_setting 'hexagonal'
loop_
_space_group_symop_operation_xyz
x,y,z
x-y,x,z
-y,x-y,z
-x,-y,z
-x+y,-x,z
y,-x+y,z
-x+y,y,z
x,x-y,z
-y,-x,z
y,x,z
x-y,-y,z
-x,-x+y,z
loop_
_atom_site_type_symbol
_atom_site_label
_atom_site_fract_x
_atom_site_fract_y
_atom_site_fract_z
Si Si1 0.643348 0.561314 0.052140
Si Si2 0.640270 0.084177 0.432036
Si Si3 0.524326 0.335991 0.235589
Si Si4 0.334094 0.521567 0.625712
Si Si5 0.078525 0.781238 0.131190
Si Si6 0.921042 0.701236 0.385548
Si Si7 0.385062 0.919402 0.805540
O O1 0.581161 0.581161 0.079121
O O2 0.646242 0.502847 0.126747
O O3 0.717899 0.633672 0.074986
O O4 0.635798 0.542283 0.928696
O O5 0.645234 0.129339 0.327493
O O6 0.638374 0.129443 0.530997
O O7 0.715519 0.084915 0.436585
O O8 0.578777 0.000000 0.428465
O O9 0.507567 0.253784 0.240651
O O10 0.608879 0.391122 0.247226
O O11 0.257665 0.515330 0.602805
O O12 0.395297 0.604704 0.641769
O O13 0.331873 0.475690 0.728435
O O14 0.142408 0.857593 0.098992
O O15 0.083905 0.772610 0.258032
O O16 0.000000 0.768761 0.110335
O O17 0.856467 0.712934 0.418036
O O18 0.000000 0.766765 0.407465
O O19 0.460571 0.921142 0.793810
O O20 0.402172 0.000000 0.777406
#
# Coordination Sequence:
#
# PCOD9585048 Si02
#       7
#    12  12  12  12  12  12  12
#     4  10  19  33  54  78 100 127 165 211 258 297
#     4  11  22  36  55  76  96 124 165 213 260 301
#     4  12  24  36  50  71 103 137 167 202 249 306
#     4  11  23  38  55  74  99 131 166 203 247 303
#     4   9  16  27  45  69  97 126 157 195 240 289
#     4   9  16  28  46  70  98 126 157 194 239 288
#     4   9  19  36  55  74  97 126 164 209 251 292
#
# _framework density 16.619012999999999
#
# number of rings (size 3 to 8) (size 9 to 14) (size 15 to 20)
#    0.000    1.857    1.429    3.714    0.000    4.286 
#    0.000    1.429    0.000    2.000    0.000    2.000 
#    0.000    0.000    0.000    0.000    0.000    0.000 
#
# Total GULP energy -468511.604690 kJ/mol
# GULP energy per Si atom -5577.519103 kJ/mol
# Density = 1.658119 g / cm^3
# Si number density = 16.619013 Si / 1000 Ang^3
#
#
#
# Elastic Constant Matrix: (Units=GPa)
#
#
# Indices 1 2 3 4 5 6 
#
# 1 77.4568 54.9107 26.4095 0.0000 0.0000 0.0000
# 2 54.9107 77.4568 26.4095 0.0000 0.0000 0.0000
# 3 26.4095 26.4095 49.3191 0.0000 0.0000 0.0000
# 4 0.0000 0.0000 0.0000 27.1193 0.0000 0.0000
# 5 0.0000 0.0000 0.0000 0.0000 27.1193 0.0000
# 6 0.0000 0.0000 0.0000 0.0000 0.0000 11.2731
#
#
#
# Elastic Compliance Matrix: (Units=1/GPa)
#
#
# Indices 1 2 3 4 5 6 
#
# 1 0.026981 -0.017373 -0.005145 0.000000 0.000000 0.000000
# 2 -0.017373 0.026981 -0.005145 0.000000 0.000000 0.000000
# 3 -0.005145 -0.005145 0.025786 0.000000 0.000000 0.000000
# 4 0.000000 0.000000 0.000000 0.036874 0.000000 0.000000
# 5 0.000000 0.000000 0.000000 0.000000 0.036874 0.000000
# 6 0.000000 0.000000 0.000000 0.000000 0.000000 0.088707
#
#
# Mechanical properties :
#
#
# Convention : Reuss Voigt Hill
#
# Bulk Modulus (GPa) = 40.94609 46.63241 43.78925
# Shear Modulus (GPa) = 16.35761 19.53585 17.94673
#
# Velocity S-wave (km/s) = 3.14071 3.43229 3.28974
# Velocity P-wave (km/s) = 6.15172 6.62028 6.39030
#
# Compressibility (1/GPa) = 0.02442236
#
# Stress axis : x y z
#
# Youngs Moduli (GPa) = 37.06367 37.06367 38.78082
#
# Poissons Ratio (x) = 0.64391 0.19952
# Poissons Ratio (y) = 0.64391 0.19952
# Poissons Ratio (z) = 0.19068 0.19068
#
# Static dielectric constant tensor:
#      x y z
#    x 1.567400 0.000000 0.000000 
#    y 0.000000 1.567400 0.000000 
#    z 0.000000 0.000000 1.562930 
# 
# From -- ./inp_files/1741.got.cif
#   From: 2010.05.17/outbox.cif.g08.bks.cpg/sg183_1_cif.got.tgz:1741.got - 2010.05.20 12:02:58.
