data_PCOD9585196
_publ_section_title
;
Structure prediction by ZEFSAII (Michael W. Deem and Ramdas Pophale) SiO2 
 PCOD9585196
Probable space group: P 6 C C
;
_chemical_formula_sum "Si O2"
_cell_formula_units_Z 84
_cell_length_a 14.066011
_cell_length_b 14.066011
_cell_length_c 23.338092
_cell_angle_alpha 90.000000
_cell_angle_beta 90.000000
_cell_angle_gamma 120.000000
_cell_volume 3998.875514
_symmetry_space_group_name_H-M "P 6 C C"
_symmetry_group_IT_number 184
_symmetry_cell_setting 'hexagonal'
loop_
_space_group_symop_operation_xyz
x,y,z
x-y,x,z
-y,x-y,z
-x,-y,z
-x+y,-x,z
y,-x+y,z
-x+y,y,1/2+z
x,x-y,1/2+z
-y,-x,1/2+z
y,x,1/2+z
x-y,-y,1/2+z
-x,-x+y,1/2+z
loop_
_atom_site_type_symbol
_atom_site_label
_atom_site_fract_x
_atom_site_fract_y
_atom_site_fract_z
Si Si1 0.045676 0.244980 0.507380
Si Si2 0.711873 0.625846 0.330169
Si Si3 0.132323 0.549365 0.919611
Si Si4 0.118531 0.742160 0.895334
Si Si5 0.172181 0.418713 0.601111
Si Si6 0.827390 0.093488 0.712407
Si Si7 0.874182 0.404020 0.551577
O O1 0.138655 0.210859 0.508983
O O2 0.054122 0.314152 0.451320
O O3 0.081465 0.331039 0.558382
O O4 0.645748 0.505662 0.359747
O O5 0.637288 0.679364 0.341637
O O6 0.811587 0.677940 0.375499
O O7 0.768870 0.660550 0.269099
O O8 0.183080 0.678788 0.910958
O O9 0.000000 0.500000 0.923566
O O10 0.161748 0.532689 0.984685
O O11 0.133618 0.355825 0.661376
O O12 0.179964 0.535218 0.586623
O O13 0.293816 0.444224 0.584076
O O14 0.962117 0.171442 0.710753
O O15 0.000000 0.500000 0.550437
#
# Coordination Sequence:
#
# PCOD9585196 Si02
#       7
#    12  12  12  12  12  12  12
#     4  12  23  38  64 100 143 184 235 302 368 435
#     4  11  22  41  65  97 134 182 236 286 354 425
#     4   9  21  37  63  95 130 168 219 283 357 424
#     4  11  20  39  64  95 135 177 230 293 357 433
#     4  12  26  44  70 102 139 188 244 295 362 435
#     4  12  26  48  73 103 146 200 252 300 352 427
#     4  11  22  43  68 100 136 177 226 293 369 437
#
# _framework density 21.005904000000001
#
# number of rings (size 3 to 8) (size 9 to 14) (size 15 to 20)
#    0.000    0.857    4.286    4.000    2.000    0.000 
#    3.429    2.143    0.000    0.000    0.000    0.000 
#    0.000    0.000    0.000    0.000    0.000    0.000 
#
# Total GULP energy -467684.328675 kJ/mol
# GULP energy per Si atom -5567.670579 kJ/mol
# Density = 2.095809 g / cm^3
# Si number density = 21.005904 Si / 1000 Ang^3
#
#
#
# Elastic Constant Matrix: (Units=GPa)
#
#
# Indices 1 2 3 4 5 6 
#
# 1 101.7736 39.3879 60.3282 0.0000 0.0000 0.0000
# 2 39.3879 101.7736 60.3282 0.0000 0.0000 0.0000
# 3 60.3282 60.3282 179.4071 0.0000 0.0000 0.0000
# 4 0.0000 0.0000 0.0000 32.7352 0.0000 0.0000
# 5 0.0000 0.0000 0.0000 0.0000 32.7352 0.0000
# 6 0.0000 0.0000 0.0000 0.0000 0.0000 31.1929
#
#
#
# Elastic Compliance Matrix: (Units=1/GPa)
#
#
# Indices 1 2 3 4 5 6 
#
# 1 0.012985 -0.003044 -0.003343 0.000000 0.000000 0.000000
# 2 -0.003044 0.012985 -0.003343 0.000000 0.000000 0.000000
# 3 -0.003343 -0.003343 0.007822 0.000000 0.000000 0.000000
# 4 0.000000 0.000000 0.000000 0.030548 0.000000 0.000000
# 5 0.000000 0.000000 0.000000 0.000000 0.030548 0.000000
# 6 0.000000 0.000000 0.000000 0.000000 0.000000 0.032059
#
#
# Mechanical properties :
#
#
# Convention : Reuss Voigt Hill
#
# Bulk Modulus (GPa) = 69.76802 78.11590 73.94196
# Shear Modulus (GPa) = 33.07202 34.19333 33.63268
#
# Velocity S-wave (km/s) = 3.97220 4.03897 4.00572
# Velocity P-wave (km/s) = 7.37044 7.68241 7.52804
#
# Compressibility (1/GPa) = 0.01433322
#
# Stress axis : x y z
#
# Youngs Moduli (GPa) = 77.00972 77.00972 127.84209
#
# Poissons Ratio (x) = 0.23441 0.42737
# Poissons Ratio (y) = 0.23441 0.42737
# Poissons Ratio (z) = 0.25744 0.25744
#
# Static dielectric constant tensor:
#      x y z
#    x 1.904990 0.000000 0.000000 
#    y 0.000000 1.904990 0.000000 
#    z 0.000000 0.000000 1.777830 
# 
# From -- ./inp_files/1347.got.cif
#   From: 2010.05.17/outbox.cif.g08.bks.cpg/sg184_cif.got.tgz:1347.got - 2010.05.20 12:04:40.
