data_PCOD9585258
_publ_section_title
;
Structure prediction by ZEFSAII (Michael W. Deem and Ramdas Pophale) SiO2 
 PCOD9585258
Probable space group: P 63 C M
;
_chemical_formula_sum "Si O2"
_cell_formula_units_Z 96
_cell_length_a 15.780345
_cell_length_b 15.780345
_cell_length_c 19.642605
_cell_angle_alpha 90.000000
_cell_angle_beta 90.000000
_cell_angle_gamma 120.000000
_cell_volume 4236.065850
_symmetry_space_group_name_H-M "P 63 C M"
_symmetry_group_IT_number 185
_symmetry_cell_setting 'hexagonal'
loop_
_space_group_symop_operation_xyz
x,y,z
x-y,x,1/2+z
-y,x-y,z
-x,-y,1/2+z
-x+y,-x,z
y,-x+y,1/2+z
-x+y,y,1/2+z
x,x-y,1/2+z
-y,-x,1/2+z
y,x,z
x-y,-y,z
-x,-x+y,z
loop_
_atom_site_type_symbol
_atom_site_label
_atom_site_fract_x
_atom_site_fract_y
_atom_site_fract_z
Si Si1 0.462095 0.882142 0.484280
Si Si2 0.590172 0.471279 0.137380
Si Si3 0.471107 0.175958 0.274744
Si Si4 0.107957 0.883953 0.220149
Si Si5 0.119436 0.731410 0.982475
Si Si6 0.505842 0.881374 0.333896
Si Si7 0.712638 0.893213 0.856226
Si Si8 0.118197 0.392233 0.637040
O O1 0.476041 0.849970 0.559407
O O2 0.347654 0.845771 0.472287
O O3 0.503531 0.864261 0.415131
O O4 0.515155 0.000000 0.490412
O O5 0.537740 0.537740 0.142914
O O6 0.670900 0.506127 0.196109
O O7 0.504695 0.358207 0.148372
O O8 0.547257 0.151883 0.312433
O O9 0.369345 0.100916 0.310295
O O10 0.475243 0.277842 0.294716
O O11 0.098840 0.854512 0.299523
O O12 0.146635 0.819113 0.183697
O O13 0.000000 0.851092 0.193198
O O14 0.178268 0.000000 0.213387
O O15 0.142120 0.763806 0.059902
O O16 0.000000 0.669455 0.975505
O O17 0.155363 0.815615 0.926288
O O18 0.577291 0.000000 0.319868
O O19 0.799124 0.000000 0.874628
O O20 0.000000 0.336971 0.642792
#
# Coordination Sequence:
#
# PCOD9585258 Si02
#       8
#    12  12  12  12  12  12  12  12
#     4   8  15  34  63  91 125 176 228 277 346 415
#     4   9  18  35  64  98 133 177 229 288 348 424
#     4  12  24  39  62  97 134 173 223 276 351 412
#     4  10  21  37  57  86 127 177 229 283 343 414
#     4   8  13  29  58  87 111 148 209 274 340 417
#     4  11  24  43  66  96 139 185 234 295 353 424
#     4  10  20  35  58  86 116 161 217 270 330 405
#     4   8  16  32  59  91 119 157 215 281 350 415
#
# _framework density 22.662538000000001
#
# number of rings (size 3 to 8) (size 9 to 14) (size 15 to 20)
#    0.000    2.500    1.250    3.000    1.750    0.500 
#    0.000    3.125    0.000    1.500    0.000    2.625 
#    0.000    0.000    0.000    0.000    0.000    0.000 
#
# Total GULP energy -535210.288701 kJ/mol
# GULP energy per Si atom -5575.107174 kJ/mol
# Density = 2.261096 g / cm^3
# Si number density = 22.662538 Si / 1000 Ang^3
#
#
#
# Elastic Constant Matrix: (Units=GPa)
#
#
# Indices 1 2 3 4 5 6 
#
# 1 99.2165 72.5577 51.0207 0.0000 0.0000 0.0000
# 2 72.5577 99.2165 51.0207 0.0000 0.0000 0.0000
# 3 51.0207 51.0207 176.4736 0.0000 0.0000 0.0000
# 4 0.0000 0.0000 0.0000 28.9382 0.0000 0.0000
# 5 0.0000 0.0000 0.0000 0.0000 28.9382 0.0000
# 6 0.0000 0.0000 0.0000 0.0000 0.0000 13.3294
#
#
#
# Elastic Compliance Matrix: (Units=1/GPa)
#
#
# Indices 1 2 3 4 5 6 
#
# 1 0.022270 -0.015241 -0.002032 0.000000 0.000000 0.000000
# 2 -0.015241 0.022270 -0.002032 0.000000 0.000000 0.000000
# 3 -0.002032 -0.002032 0.006842 0.000000 0.000000 0.000000
# 4 0.000000 0.000000 0.000000 0.034556 0.000000 0.000000
# 5 0.000000 0.000000 0.000000 0.000000 0.034556 0.000000
# 6 0.000000 0.000000 0.000000 0.000000 0.000000 0.075022
#
#
# Mechanical properties :
#
#
# Convention : Reuss Voigt Hill
#
# Bulk Modulus (GPa) = 78.30431 80.45608 79.38019
# Shear Modulus (GPa) = 20.97456 27.59497 24.28477
#
# Velocity S-wave (km/s) = 3.04553 3.49327 3.27705
# Velocity P-wave (km/s) = 6.85524 7.20065 7.03007
#
# Compressibility (1/GPa) = 0.01277069
#
# Stress axis : x y z
#
# Youngs Moduli (GPa) = 44.90364 44.90364 146.16505
#
# Poissons Ratio (x) = 0.68438 0.29702
# Poissons Ratio (y) = 0.68438 0.29702
# Poissons Ratio (z) = 0.09125 0.09125
#
# Static dielectric constant tensor:
#      x y z
#    x 1.911440 0.000000 0.000000 
#    y 0.000000 1.911440 0.000000 
#    z 0.000000 0.000000 1.908310 
# 
# From -- ./inp_files/1803.got.cif
#   From: 2010.05.17/outbox.cif.g08.bks.cpg/sg185_cif.got.tgz:1803.got - 2010.05.20 12:05:34.
