data_PCOD9585815
_publ_section_title
;
Structure prediction by ZEFSAII (Michael W. Deem and Ramdas Pophale) SiO2 
 PCOD9585815
Probable space group: P -6 M 2
;
_chemical_formula_sum "Si O2"
_cell_formula_units_Z 84
_cell_length_a 22.869694
_cell_length_b 22.869694
_cell_length_c 13.253623
_cell_angle_alpha 90.000000
_cell_angle_beta 90.000000
_cell_angle_gamma 120.000000
_cell_volume 6003.243399
_symmetry_space_group_name_H-M "P -6 M 2"
_symmetry_group_IT_number 187
_symmetry_cell_setting 'hexagonal'
loop_
_space_group_symop_operation_xyz
x,y,z
-x+y,-x,-z
-y,x-y,z
x,y,-z
-x+y,-x,z
-y,x-y,-z
-y,-x,-z
-x+y,y,-z
x,x-y,-z
-x+y,y,z
x,x-y,z
-y,-x,z
loop_
_atom_site_type_symbol
_atom_site_label
_atom_site_fract_x
_atom_site_fract_y
_atom_site_fract_z
Si Si1 0.333333 0.000000 0.380233
Si Si2 0.277346 0.857908 0.118966
Si Si3 0.387119 0.125611 0.238401
Si Si4 0.610679 0.524576 0.881034
Si Si5 0.541057 0.594843 0.238402
Si Si6 0.944012 0.752770 0.881034
Si Si7 0.207723 0.928176 0.761600
O O1 0.333333 0.000000 0.500000
O O2 0.374163 0.965549 0.333135
O O3 0.258052 0.959170 0.333134
O O4 0.367784 0.075281 0.333134
O O5 0.219770 0.780231 0.134268
O O6 0.345341 0.882336 0.181676
O O7 0.245268 0.902069 0.161724
O O8 0.290723 0.869797 0.000000
O O9 0.395483 0.197742 0.263356
O O10 0.450997 0.129671 0.181675
O O11 0.323467 0.088067 0.161725
O O12 0.553103 0.446898 0.865732
O O13 0.578601 0.568735 0.838275
O O14 0.624055 0.536465 0.000000
O O15 0.468926 0.531075 0.263357
O O16 0.886436 0.772872 0.865731
O O17 0.012008 0.796338 0.818326
O O18 0.957388 0.754257 0.000000
O O19 0.135593 0.864408 0.736645
#
# Coordination Sequence:
#
# PCOD9585815 Si02
#       7
#    12  12  12  12  12  12  12
#     4   9  18  30  43  62  85 105 135 180 217 251
#     4   9  16  25  39  61  86 111 141 173 202 240
#     4   9  17  28  42  60  84 113 140 169 211 254
#     4   9  16  25  39  61  86 111 141 173 202 240
#     4   9  17  28  42  60  84 113 140 169 211 254
#     4   9  16  25  39  61  86 111 141 173 202 240
#     4   9  17  28  42  60  84 113 140 169 211 254
#
# _framework density 13.992436
#
# number of rings (size 3 to 8) (size 9 to 14) (size 15 to 20)
#    0.000    3.000    0.000    2.143    0.000    3.429 
#    0.000    0.000    0.000    0.857    0.000    0.000 
#    0.000    0.000    0.000    1.286    0.000    1.714 
#
# Total GULP energy -467790.561165 kJ/mol
# GULP energy per Si atom -5568.935252 kJ/mol
# Density = 1.396059 g / cm^3
# Si number density = 13.992436 Si / 1000 Ang^3
#
#
#
# Elastic Constant Matrix: (Units=GPa)
#
#
# Indices 1 2 3 4 5 6 
#
# 1 77.8821 45.4185 56.7491 0.0000 -0.0001 0.0000
# 2 45.4185 77.8821 56.7491 0.0000 0.0001 0.0000
# 3 56.7491 56.7491 123.9741 0.0000 0.0000 0.0000
# 4 0.0000 0.0000 0.0000 10.7639 0.0000 0.0001
# 5 -0.0001 0.0001 0.0000 0.0000 10.7639 0.0000
# 6 0.0000 0.0000 0.0000 0.0001 0.0000 16.2318
#
#
#
# Elastic Compliance Matrix: (Units=1/GPa)
#
#
# Indices 1 2 3 4 5 6 
#
# 1 0.022410 -0.008394 -0.006416 0.000000 0.000000 0.000000
# 2 -0.008394 0.022410 -0.006416 0.000000 0.000000 0.000000
# 3 -0.006416 -0.006416 0.013940 0.000000 0.000000 0.000000
# 4 0.000000 0.000000 0.000000 0.092903 0.000000 0.000000
# 5 0.000000 0.000000 0.000000 0.000000 0.092903 0.000000
# 6 0.000000 0.000000 0.000000 0.000000 0.000000 0.061608
#
#
# Mechanical properties :
#
#
# Convention : Reuss Voigt Hill
#
# Bulk Modulus (GPa) = 61.31722 66.39686 63.85704
# Shear Modulus (GPa) = 14.12186 15.60668 14.86427
#
# Velocity S-wave (km/s) = 3.18032 3.34333 3.26284
# Velocity P-wave (km/s) = 7.57646 7.90309 7.74150
#
# Compressibility (1/GPa) = 0.01630863
#
# Stress axis : x y z
#
# Youngs Moduli (GPa) = 44.62312 44.62312 71.73647
#
# Poissons Ratio (x) = 0.37456 0.46025
# Poissons Ratio (y) = 0.37456 0.46025
# Poissons Ratio (z) = 0.28630 0.28630
#
# Static dielectric constant tensor:
#      x y z
#    x 1.461510 0.000000 0.000000 
#    y 0.000000 1.461510 0.000000 
#    z 0.000000 0.000000 1.434940 
# 
# From -- ./inp_files/1992.got.cif
#   From: 2010.05.17/outbox.cif.g08.bks.cpg/sg187_1_cif.got.tgz:1992.got - 2010.05.20 12:09:04.
