data_PCOD9585650
_publ_section_title
;
Structure prediction by ZEFSAII (Michael W. Deem and Ramdas Pophale) SiO2 
 PCOD9585650
Probable space group: P -6 M 2
;
_chemical_formula_sum "Si O2"
_cell_formula_units_Z 54
_cell_length_a 12.660728
_cell_length_b 12.660728
_cell_length_c 24.283928
_cell_angle_alpha 90.000000
_cell_angle_beta 90.000000
_cell_angle_gamma 120.000000
_cell_volume 3371.063439
_symmetry_space_group_name_H-M "P -6 M 2"
_symmetry_group_IT_number 187
_symmetry_cell_setting 'hexagonal'
loop_
_space_group_symop_operation_xyz
x,y,z
-x+y,-x,-z
-y,x-y,z
x,y,-z
-x+y,-x,z
-y,x-y,-z
-y,-x,-z
-x+y,y,-z
x,x-y,-z
-x+y,y,z
x,x-y,z
-y,-x,z
loop_
_atom_site_type_symbol
_atom_site_label
_atom_site_fract_x
_atom_site_fract_y
_atom_site_fract_z
Si Si1 0.415772 0.333560 0.892917
Si Si2 0.584278 0.666403 0.000000
Si Si3 0.747104 0.000239 0.320107
Si Si4 0.081746 0.415593 0.785927
Si Si5 0.999753 0.747142 0.559150
O O1 0.410249 0.205125 0.894717
O O2 0.555584 0.444417 0.893714
O O3 0.351586 0.353520 0.945857
O O4 0.355357 0.349486 0.837626
O O5 0.444309 0.555692 0.000000
O O6 0.589397 0.794699 0.000000
O O7 0.874173 0.125828 0.313276
O O8 0.770342 0.885171 0.319237
O O9 0.656359 0.979011 0.270325
O O10 0.693797 0.001167 0.380926
O O11 0.209426 0.418852 0.792994
O O12 0.102665 0.551333 0.783527
O O13 0.995226 0.685817 0.500000
O O14 0.122189 0.877812 0.558201
O O15 0.882758 0.765515 0.559907
#
# Coordination Sequence:
#
# PCOD9585650 Si02
#       5
#    12   6  12  12  12
#     4  10  20  34  53  75  98 123 152 190 235 280
#     4  10  20  34  54  78 104 134 166 198 226 256
#     4   9  16  26  42  65  92 119 146 180 226 279
#     4  10  20  33  49  67  89 120 157 196 233 271
#     4   8  12  18  31  54  84 115 144 175 215 266
#
# _framework density 16.018685000000001
#
# number of rings (size 3 to 8) (size 9 to 14) (size 15 to 20)
#    0.000    2.667    0.000    2.667    0.000    2.667 
#    0.000    3.333    0.000    8.667    0.000    0.000 
#    0.000    1.778    0.000    0.000    0.000    0.000 
#
# Total GULP energy -300649.225890 kJ/mol
# GULP energy per Si atom -5567.578257 kJ/mol
# Density = 1.598223 g / cm^3
# Si number density = 16.018685 Si / 1000 Ang^3
#
#
#
# Elastic Constant Matrix: (Units=GPa)
#
#
# Indices 1 2 3 4 5 6 
#
# 1 77.8093 51.0041 70.3274 0.0000 -0.0001 0.0000
# 2 51.0041 77.8093 70.3274 0.0000 0.0001 0.0000
# 3 70.3274 70.3274 190.6385 0.0000 0.0000 0.0000
# 4 0.0000 0.0000 0.0000 18.6890 0.0000 0.0001
# 5 -0.0001 0.0001 0.0000 0.0000 18.6890 0.0000
# 6 0.0000 0.0000 0.0000 0.0001 0.0000 13.4026
#
#
#
# Elastic Compliance Matrix: (Units=1/GPa)
#
#
# Indices 1 2 3 4 5 6 
#
# 1 0.025153 -0.012153 -0.004796 0.000000 0.000000 0.000000
# 2 -0.012153 0.025153 -0.004796 0.000000 0.000000 0.000000
# 3 -0.004796 -0.004796 0.008784 0.000000 0.000000 0.000000
# 4 0.000000 0.000000 0.000000 0.053507 0.000000 -0.000001
# 5 0.000000 0.000000 0.000000 0.000000 0.053507 0.000000
# 6 0.000000 0.000000 0.000000 -0.000001 0.000000 0.074612
#
#
# Mechanical properties :
#
#
# Convention : Reuss Voigt Hill
#
# Bulk Modulus (GPa) = 64.10024 81.06387 72.58205
# Shear Modulus (GPa) = 17.27678 20.46268 18.86973
#
# Velocity S-wave (km/s) = 3.28767 3.57799 3.43590
# Velocity P-wave (km/s) = 7.38340 8.23316 7.81983
#
# Compressibility (1/GPa) = 0.01560057
#
# Stress axis : x y z
#
# Youngs Moduli (GPa) = 39.75687 39.75687 113.84616
#
# Poissons Ratio (x) = 0.48318 0.54596
# Poissons Ratio (y) = 0.48318 0.54596
# Poissons Ratio (z) = 0.19066 0.19066
#
# Static dielectric constant tensor:
#      x y z
#    x 1.499500 0.000000 0.000000 
#    y 0.000000 1.499500 0.000000 
#    z 0.000000 0.000000 1.584140 
# 
# From -- ./inp_files/3856.got.cif
#   From: 2010.05.17/outbox.cif.g08.bks.cpg/sg187_2_cif.got.tgz:3856.got - 2010.05.20 12:09:04.
