data_PCOD9585367
_publ_section_title
;
Structure prediction by ZEFSAII (Michael W. Deem and Ramdas Pophale) SiO2 
 PCOD9585367
Probable space group: P 63 M C
;
_chemical_formula_sum "Si O2"
_cell_formula_units_Z 84
_cell_length_a 18.280611
_cell_length_b 18.280611
_cell_length_c 16.085718
_cell_angle_alpha 90.000000
_cell_angle_beta 90.000000
_cell_angle_gamma 120.000000
_cell_volume 4655.351706
_symmetry_space_group_name_H-M "P 63 M C"
_symmetry_group_IT_number 186
_symmetry_cell_setting 'hexagonal'
loop_
_space_group_symop_operation_xyz
x,y,z
x-y,x,1/2+z
-y,x-y,z
-x,-y,1/2+z
-x+y,-x,z
y,-x+y,1/2+z
-x+y,y,z
x,x-y,z
-y,-x,z
y,x,1/2+z
x-y,-y,1/2+z
-x,-x+y,1/2+z
loop_
_atom_site_type_symbol
_atom_site_label
_atom_site_fract_x
_atom_site_fract_y
_atom_site_fract_z
Si Si1 0.981175 0.575850 0.095260
Si Si2 0.205086 0.964298 0.879442
Si Si3 0.174827 0.174580 0.694275
Si Si4 0.498368 0.335276 0.586610
Si Si5 0.295863 0.231143 0.036605
Si Si6 0.693976 0.557772 0.402326
Si Si7 0.166388 0.663510 0.727258
O O1 0.978803 0.489402 0.066492
O O2 0.908940 0.547767 0.164026
O O3 0.075030 0.635500 0.133346
O O4 0.958034 0.629761 0.032408
O O5 0.107530 0.892471 0.892680
O O6 0.259083 0.917096 0.890237
O O7 0.211393 0.997675 0.785505
O O8 0.238808 0.031212 0.953901
O O9 0.177476 0.088738 0.683116
O O10 0.221167 0.239253 0.618181
O O11 0.078625 0.157249 0.692961
O O12 0.481142 0.240571 0.598821
O O13 0.595978 0.404023 0.601698
O O14 0.475151 0.346862 0.491646
O O15 0.327242 0.163621 0.046120
O O16 0.766120 0.532240 0.402740
O O17 0.643969 0.517187 0.319131
O O18 0.203688 0.601844 0.711349
O O19 0.239381 0.760619 0.720755
#
# Coordination Sequence:
#
# PCOD9585367 Si02
#       7
#    12  12  12  12  12  12  12
#     4  10  21  35  51  73 104 137 170 212 268 324
#     4  10  19  33  52  77 109 144 181 221 268 318
#     4  10  21  35  53  79 112 149 188 228 269 315
#     4  10  19  32  51  76 104 136 171 212 262 320
#     4  11  21  35  56  78 104 142 188 232 272 321
#     4   9  17  30  49  72 103 135 165 208 261 315
#     4  10  19  32  51  77 107 139 173 213 262 321
#
# _framework density 18.043748999999998
#
# number of rings (size 3 to 8) (size 9 to 14) (size 15 to 20)
#    0.000    2.000    1.429    3.000    0.000    2.857 
#    0.000    1.429    0.000    4.857    0.000    0.000 
#    0.000    0.000    0.000    0.429    0.000    0.000 
#
# Total GULP energy -467849.330509 kJ/mol
# GULP energy per Si atom -5569.634887 kJ/mol
# Density = 1.800268 g / cm^3
# Si number density = 18.043749 Si / 1000 Ang^3
#
#
#
# Elastic Constant Matrix: (Units=GPa)
#
#
# Indices 1 2 3 4 5 6 
#
# 1 75.6140 39.3755 18.2345 0.0000 0.0000 0.0000
# 2 39.3755 75.6140 18.2345 0.0000 0.0000 0.0000
# 3 18.2345 18.2345 69.0458 0.0000 0.0000 0.0000
# 4 0.0000 0.0000 0.0000 8.1220 0.0000 0.0000
# 5 0.0000 0.0000 0.0000 0.0000 8.1220 0.0000
# 6 0.0000 0.0000 0.0000 0.0000 0.0000 18.1193
#
#
#
# Elastic Compliance Matrix: (Units=1/GPa)
#
#
# Indices 1 2 3 4 5 6 
#
# 1 0.018543 -0.009052 -0.002507 0.000000 0.000000 0.000000
# 2 -0.009052 0.018543 -0.002507 0.000000 0.000000 0.000000
# 3 -0.002507 -0.002507 0.015807 0.000000 0.000000 0.000000
# 4 0.000000 0.000000 0.000000 0.123123 0.000000 0.000000
# 5 0.000000 0.000000 0.000000 0.000000 0.123123 0.000000
# 6 0.000000 0.000000 0.000000 0.000000 0.000000 0.055190
#
#
# Mechanical properties :
#
#
# Convention : Reuss Voigt Hill
#
# Bulk Modulus (GPa) = 40.38208 41.32923 40.85565
# Shear Modulus (GPa) = 12.79710 16.50126 14.64918
#
# Velocity S-wave (km/s) = 2.66602 3.02737 2.85242
# Velocity P-wave (km/s) = 5.64850 5.93083 5.79139
#
# Compressibility (1/GPa) = 0.02476346
#
# Stress axis : x y z
#
# Youngs Moduli (GPa) = 53.92819 53.92819 63.26272
#
# Poissons Ratio (x) = 0.48814 0.15858
# Poissons Ratio (y) = 0.48814 0.15858
# Poissons Ratio (z) = 0.13518 0.13518
#
# Static dielectric constant tensor:
#      x y z
#    x 1.659420 0.000000 0.000000 
#    y 0.000000 1.659420 0.000000 
#    z 0.000000 0.000000 1.660350 
# 
# From -- ./inp_files/2556.got.cif
#   From: 2010.05.17/outbox.cif.g08.bks.cpg/sg186_2_cif.got.tgz:2556.got - 2010.05.20 12:07:08.
