data_PCOD9585672
_publ_section_title
;
Structure prediction by ZEFSAII (Michael W. Deem and Ramdas Pophale) SiO2 
 PCOD9585672
Probable space group: P -6 M 2
;
_chemical_formula_sum "Si O2"
_cell_formula_units_Z 66
_cell_length_a 12.714925
_cell_length_b 12.714925
_cell_length_c 28.777434
_cell_angle_alpha 90.000000
_cell_angle_beta 90.000000
_cell_angle_gamma 120.000000
_cell_volume 4029.120943
_symmetry_space_group_name_H-M "P -6 M 2"
_symmetry_group_IT_number 187
_symmetry_cell_setting 'hexagonal'
loop_
_space_group_symop_operation_xyz
x,y,z
-x+y,-x,-z
-y,x-y,z
x,y,-z
-x+y,-x,z
-y,x-y,-z
-y,-x,-z
-x+y,y,-z
x,x-y,-z
-x+y,y,z
x,x-y,z
-y,-x,z
loop_
_atom_site_type_symbol
_atom_site_label
_atom_site_fract_x
_atom_site_fract_y
_atom_site_fract_z
Si Si1 0.583156 0.666338 0.229673
Si Si2 0.417125 0.333210 0.947158
Si Si3 0.999401 0.249610 0.410110
Si Si4 0.749999 0.750681 0.140108
Si Si5 0.416050 0.332945 0.500000
Si Si6 0.916900 0.333459 0.319999
O O1 0.576973 0.788487 0.236867
O O2 0.449409 0.550592 0.224445
O O3 0.661564 0.684917 0.183457
O O4 0.644851 0.640806 0.273744
O O5 0.444852 0.222426 0.943689
O O6 0.539963 0.460038 0.940188
O O7 0.320105 0.310067 0.907562
O O8 0.373309 0.330706 0.000000
O O9 0.890436 0.109565 0.411462
O O10 0.979145 0.314177 0.454533
O O11 0.979909 0.308005 0.363637
O O12 0.128618 0.257235 0.411018
O O13 0.875909 0.751817 0.146375
O O14 0.772413 0.886207 0.137948
O O15 0.538789 0.461212 0.500000
O O16 0.445592 0.222796 0.500000
O O17 0.907661 0.453831 0.328036
O O18 0.783763 0.216238 0.314731
#
# Coordination Sequence:
#
# PCOD9585672 Si02
#       6
#    12  12  12  12   6  12
#     4  10  20  34  52  73  98 129 165 204 246 293
#     4   9  17  30  49  72  96 122 154 194 240 288
#     4  10  20  34  53  76 102 132 166 204 245 290
#     4  10  20  33  49  70  97 129 164 201 242 288
#     4  10  20  34  54  78 104 134 168 208 252 298
#     4  10  20  34  53  76 102 131 163 202 247 295
#
# _framework density 16.380745000000001
#
# number of rings (size 3 to 8) (size 9 to 14) (size 15 to 20)
#    0.000    2.182    0.000    3.455    0.000    1.091 
#    0.000    2.727    0.000   19.273    0.000    0.000 
#    0.000    0.000    0.000    0.000    0.000    0.000 
#
# Total GULP energy -368313.117678 kJ/mol
# GULP energy per Si atom -5580.501783 kJ/mol
# Density = 1.634346 g / cm^3
# Si number density = 16.380745 Si / 1000 Ang^3
#
#
#
# Elastic Constant Matrix: (Units=GPa)
#
#
# Indices 1 2 3 4 5 6 
#
# 1 123.5801 84.4527 89.4488 0.0000 0.0003 0.0000
# 2 84.4527 123.5801 89.4488 0.0000 -0.0003 0.0000
# 3 89.4488 89.4488 144.8672 0.0000 0.0000 0.0000
# 4 0.0000 0.0000 0.0000 24.1289 0.0000 -0.0003
# 5 0.0003 -0.0003 0.0000 0.0000 24.1289 0.0000
# 6 0.0000 0.0000 0.0000 -0.0003 0.0000 19.5637
#
#
#
# Elastic Compliance Matrix: (Units=1/GPa)
#
#
# Indices 1 2 3 4 5 6 
#
# 1 0.017903 -0.007654 -0.006328 0.000000 0.000000 0.000000
# 2 -0.007654 0.017903 -0.006328 0.000000 0.000000 0.000000
# 3 -0.006328 -0.006328 0.014718 0.000000 0.000000 0.000000
# 4 0.000000 0.000000 0.000000 0.041444 0.000000 0.000001
# 5 0.000000 0.000000 0.000000 0.000000 0.041444 0.000000
# 6 0.000000 0.000000 0.000000 0.000001 0.000000 0.051115
#
#
# Mechanical properties :
#
#
# Convention : Reuss Voigt Hill
#
# Bulk Modulus (GPa) = 100.98417 102.08090 101.53253
# Shear Modulus (GPa) = 21.88667 22.14277 22.01472
#
# Velocity S-wave (km/s) = 3.65927 3.68061 3.66995
# Velocity P-wave (km/s) = 8.92388 8.97304 8.94849
#
# Compressibility (1/GPa) = 0.00990254
#
# Stress axis : x y z
#
# Youngs Moduli (GPa) = 55.85595 55.85595 67.94584
#
# Poissons Ratio (x) = 0.42754 0.42997
# Poissons Ratio (y) = 0.42754 0.42997
# Poissons Ratio (z) = 0.35347 0.35347
#
# Static dielectric constant tensor:
#      x y z
#    x 1.518000 0.000000 0.000000 
#    y 0.000000 1.518000 0.000000 
#    z 0.000000 0.000000 1.539110 
# 
# From -- ./inp_files/4438.got.cif
#   From: 2010.05.17/outbox.cif.g08.bks.cpg/sg187_3_cif.got.tgz:4438.got - 2010.05.20 12:09:04.
