data_PCOD9585034
_publ_section_title
;
Structure prediction by ZEFSAII (Michael W. Deem and Ramdas Pophale) SiO2 
 PCOD9585034
Probable space group: P 6 M M
;
_chemical_formula_sum "Si O2"
_cell_formula_units_Z 84
_cell_length_a 22.099782
_cell_length_b 22.099782
_cell_length_c 12.592544
_cell_angle_alpha 90.000000
_cell_angle_beta 90.000000
_cell_angle_gamma 120.000000
_cell_volume 5326.232105
_symmetry_space_group_name_H-M "P 6 M M"
_symmetry_group_IT_number 183
_symmetry_cell_setting 'hexagonal'
loop_
_space_group_symop_operation_xyz
x,y,z
x-y,x,z
-y,x-y,z
-x,-y,z
-x+y,-x,z
y,-x+y,z
-x+y,y,z
x,x-y,z
-y,-x,z
y,x,z
x-y,-y,z
-x,-x+y,z
loop_
_atom_site_type_symbol
_atom_site_label
_atom_site_fract_x
_atom_site_fract_y
_atom_site_fract_z
Si Si1 0.352195 0.919608 0.799470
Si Si2 0.078703 0.296569 0.727197
Si Si3 0.436362 0.149007 0.372631
Si Si4 0.078861 0.289172 0.478290
Si Si5 0.610618 0.532159 0.555115
Si Si6 0.613381 0.081496 0.171444
Si Si7 0.477452 0.811856 0.979164
O O1 0.276597 0.913788 0.790673
O O2 0.371745 0.911007 0.679389
O O3 0.347611 0.859830 0.875287
O O4 0.407702 0.000000 0.832804
O O5 0.140813 0.281626 0.752579
O O6 0.084248 0.314522 0.600886
O O7 0.000000 0.233555 0.743712
O O8 0.459222 0.229611 0.353071
O O9 0.354332 0.108800 0.400013
O O10 0.468284 0.136306 0.479513
O O11 0.451564 0.111897 0.276010
O O12 0.127936 0.255871 0.472363
O O13 0.000000 0.236164 0.454578
O O14 0.538687 0.461314 0.537672
O O15 0.595518 0.595518 0.527127
O O16 0.541155 0.082309 0.186085
O O17 0.589765 0.000000 0.151608
O O18 0.654201 0.135024 0.075805
O O19 0.396876 0.793751 0.986357
O O20 0.482697 0.741349 0.979607
#
# Coordination Sequence:
#
# PCOD9585034 Si02
#       7
#    12  12  12  12  12  12  12
#     4  10  19  32  52  76 100 126 163 210 255 295
#     4   9  16  27  44  68  96 125 156 192 237 285
#     4  11  20  30  48  72  99 126 154 189 237 296
#     4   9  16  26  42  65  93 122 151 185 226 275
#     4  10  19  31  49  72  97 125 159 202 247 286
#     4  10  21  37  56  74  92 118 157 206 251 290
#     4  11  23  38  54  71  96 130 167 203 244 299
#
# _framework density 15.770999
#
# number of rings (size 3 to 8) (size 9 to 14) (size 15 to 20)
#    0.000    2.000    1.429    3.571    0.000    3.143 
#    0.000    0.000    0.000    3.429    0.000    2.000 
#    0.000    0.000    0.000    0.000    0.000    0.000 
#
# Total GULP energy -468264.568746 kJ/mol
# GULP energy per Si atom -5574.578199 kJ/mol
# Density = 1.573510 g / cm^3
# Si number density = 15.770999 Si / 1000 Ang^3
#
#
#
# Elastic Constant Matrix: (Units=GPa)
#
#
# Indices 1 2 3 4 5 6 
#
# 1 86.7330 46.6009 32.8673 0.0000 0.0000 0.0000
# 2 46.6009 86.7330 32.8673 0.0000 0.0000 0.0000
# 3 32.8673 32.8673 59.7852 0.0000 0.0000 0.0000
# 4 0.0000 0.0000 0.0000 18.3204 0.0000 0.0000
# 5 0.0000 0.0000 0.0000 0.0000 18.3204 0.0000
# 6 0.0000 0.0000 0.0000 0.0000 0.0000 20.0661
#
#
#
# Elastic Compliance Matrix: (Units=1/GPa)
#
#
# Indices 1 2 3 4 5 6 
#
# 1 0.017603 -0.007315 -0.005656 0.000000 0.000000 0.000000
# 2 -0.007315 0.017603 -0.005656 0.000000 0.000000 0.000000
# 3 -0.005656 -0.005656 0.022946 0.000000 0.000000 0.000000
# 4 0.000000 0.000000 0.000000 0.054584 0.000000 0.000000
# 5 0.000000 0.000000 0.000000 0.000000 0.054584 0.000000
# 6 0.000000 0.000000 0.000000 0.000000 0.000000 0.049835
#
#
# Mechanical properties :
#
#
# Convention : Reuss Voigt Hill
#
# Bulk Modulus (GPa) = 47.85166 50.88021 49.36594
# Shear Modulus (GPa) = 19.12962 19.40243 19.26602
#
# Velocity S-wave (km/s) = 3.48654 3.51131 3.49895
# Velocity P-wave (km/s) = 6.82754 6.98362 6.90602
#
# Compressibility (1/GPa) = 0.02089792
#
# Stress axis : x y z
#
# Youngs Moduli (GPa) = 56.80822 56.80822 43.58141
#
# Poissons Ratio (x) = 0.41553 0.24650
# Poissons Ratio (y) = 0.41553 0.24650
# Poissons Ratio (z) = 0.32132 0.32132
#
# Static dielectric constant tensor:
#      x y z
#    x 1.530950 0.000000 0.000000 
#    y 0.000000 1.530950 0.000000 
#    z 0.000000 0.000000 1.529270 
# 
# From -- ./inp_files/1767.got.cif
#   From: 2010.05.17/outbox.cif.g08.bks.cpg/sg183_1_cif.got.tgz:1767.got - 2010.05.20 12:02:58.
