data_PCOD9585500
_publ_section_title
;
Structure prediction by ZEFSAII (Michael W. Deem and Ramdas Pophale) SiO2 
 PCOD9585500
Probable space group: P -6 M 2
;
_chemical_formula_sum "Si O2"
_cell_formula_units_Z 66
_cell_length_a 20.731628
_cell_length_b 20.731628
_cell_length_c 9.548613
_cell_angle_alpha 90.000000
_cell_angle_beta 90.000000
_cell_angle_gamma 120.000000
_cell_volume 3554.166250
_symmetry_space_group_name_H-M "P -6 M 2"
_symmetry_group_IT_number 187
_symmetry_cell_setting 'hexagonal'
loop_
_space_group_symop_operation_xyz
x,y,z
-x+y,-x,-z
-y,x-y,z
x,y,-z
-x+y,-x,z
-y,x-y,-z
-y,-x,-z
-x+y,y,-z
x,x-y,-z
-x+y,y,z
x,x-y,z
-y,-x,z
loop_
_atom_site_type_symbol
_atom_site_label
_atom_site_fract_x
_atom_site_fract_y
_atom_site_fract_z
Si Si1 0.850510 0.848646 0.000000
Si Si2 0.234912 0.322945 0.649425
Si Si3 0.937713 0.730721 0.747559
Si Si4 0.707313 0.149391 0.832560
Si Si5 0.932820 0.466410 0.828429
Si Si6 0.454200 0.908400 0.331273
Si Si7 0.152924 0.694098 0.161905
O O1 0.816461 0.792407 0.130696
O O2 0.939093 0.878185 0.000000
O O3 0.835156 0.917578 0.000000
O O4 0.260675 0.365052 0.500000
O O5 0.147836 0.295671 0.660405
O O6 0.252296 0.257179 0.647833
O O7 0.273522 0.375014 0.782279
O O8 0.868689 0.737377 0.690448
O O9 0.902677 0.645592 0.799998
O O10 0.767845 0.232156 0.778277
O O11 0.621314 0.112808 0.788596
O O12 0.705737 0.155058 0.000000
O O13 0.010706 0.505353 0.744945
O O14 0.944442 0.472221 0.000000
O O15 0.457081 0.914161 0.500000
O O16 0.492803 0.864132 0.268439
O O17 0.237314 0.762687 0.170305
O O18 0.136916 0.669280 0.000000
#
# Coordination Sequence:
#
# PCOD9585500 Si02
#       7
#     6  12  12  12   6   6  12
#     4  10  19  30  46  71 100 136 182 238 294 345
#     4  10  21  36  54  79 112 146 184 236 290 345
#     4  10  19  31  50  74 105 145 185 234 284 343
#     4   9  17  32  51  78 113 143 181 231 291 344
#     4  10  20  34  58  86 112 156 198 244 296 354
#     4  12  24  38  60  88 124 158 192 242 294 358
#     4  10  22  40  62  87 114 150 195 241 287 341
#
# _framework density 18.569756999999999
#
# number of rings (size 3 to 8) (size 9 to 14) (size 15 to 20)
#    0.000    2.000    0.909    3.091    1.273    2.909 
#    1.091    0.000    0.000    2.000    0.000    0.000 
#    0.000    0.000    0.000    0.000    0.000    0.000 
#
# Total GULP energy -367806.980205 kJ/mol
# GULP energy per Si atom -5572.833033 kJ/mol
# Density = 1.852749 g / cm^3
# Si number density = 18.569757 Si / 1000 Ang^3
#
#
#
# Elastic Constant Matrix: (Units=GPa)
#
#
# Indices 1 2 3 4 5 6 
#
# 1 101.5243 66.7289 43.0251 0.0000 -0.0007 0.0000
# 2 66.7289 101.5243 43.0251 0.0000 0.0007 0.0000
# 3 43.0251 43.0251 94.0192 0.0000 0.0000 0.0000
# 4 0.0000 0.0000 0.0000 22.9475 0.0000 0.0007
# 5 -0.0007 0.0007 0.0000 0.0000 22.9475 0.0000
# 6 0.0000 0.0000 0.0000 0.0007 0.0000 17.3977
#
#
#
# Elastic Compliance Matrix: (Units=1/GPa)
#
#
# Indices 1 2 3 4 5 6 
#
# 1 0.018249 -0.010490 -0.003551 0.000000 0.000001 0.000000
# 2 -0.010490 0.018249 -0.003551 0.000000 -0.000001 0.000000
# 3 -0.003551 -0.003551 0.013886 0.000000 0.000000 0.000000
# 4 0.000000 0.000000 0.000000 0.043578 0.000000 -0.000002
# 5 0.000001 -0.000001 0.000000 0.000000 0.043578 0.000000
# 6 0.000000 0.000000 0.000000 -0.000002 0.000000 0.057479
#
#
# Mechanical properties :
#
#
# Convention : Reuss Voigt Hill
#
# Bulk Modulus (GPa) = 65.78331 66.95841 66.37086
# Shear Modulus (GPa) = 21.25220 22.27781 21.76500
#
# Velocity S-wave (km/s) = 3.38665 3.46740 3.42726
# Velocity P-wave (km/s) = 7.12702 7.22264 7.17499
#
# Compressibility (1/GPa) = 0.01520143
#
# Stress axis : x y z
#
# Youngs Moduli (GPa) = 54.79622 54.79622 72.01476
#
# Poissons Ratio (x) = 0.57481 0.25572
# Poissons Ratio (y) = 0.57481 0.25572
# Poissons Ratio (z) = 0.19458 0.19458
#
# Static dielectric constant tensor:
#      x y z
#    x 1.661410 0.000000 0.000000 
#    y 0.000000 1.661410 0.000000 
#    z 0.000000 0.000000 1.642740 
# 
# From -- ./inp_files/799.got.cif
#   From: 2010.05.17/outbox.cif.g08.bks.cpg/sg187_1_cif.got.tgz:799.got - 2010.05.20 12:09:04.
