data_PCOD9585742
_publ_section_title
;
Structure prediction by ZEFSAII (Michael W. Deem and Ramdas Pophale) SiO2 
 PCOD9585742
Probable space group: P -6 M 2
;
_chemical_formula_sum "Si O2"
_cell_formula_units_Z 36
_cell_length_a 16.519128
_cell_length_b 16.519128
_cell_length_c 7.814109
_cell_angle_alpha 90.000000
_cell_angle_beta 90.000000
_cell_angle_gamma 120.000000
_cell_volume 1846.648907
_symmetry_space_group_name_H-M "P -6 M 2"
_symmetry_group_IT_number 187
_symmetry_cell_setting 'hexagonal'
loop_
_space_group_symop_operation_xyz
x,y,z
-x+y,-x,-z
-y,x-y,z
x,y,-z
-x+y,-x,z
-y,x-y,-z
-y,-x,-z
-x+y,y,-z
x,x-y,-z
-x+y,y,z
x,x-y,z
-y,-x,z
loop_
_atom_site_type_symbol
_atom_site_label
_atom_site_fract_x
_atom_site_fract_y
_atom_site_fract_z
Si Si1 0.773585 0.727899 0.297236
Si Si2 0.848926 0.334738 0.793130
Si Si3 0.274296 0.548592 0.205584
Si Si4 0.165236 0.834765 0.294251
O O1 0.787204 0.747391 0.500000
O O2 0.874197 0.748393 0.225865
O O3 0.703428 0.617813 0.274126
O O4 0.723414 0.782458 0.226633
O O5 0.872301 0.436151 0.732553
O O6 0.743072 0.256929 0.747270
O O7 0.854694 0.336626 0.000000
O O8 0.383951 0.616050 0.257819
O O9 0.220946 0.441891 0.262413
O O10 0.272817 0.545633 0.000000
O O11 0.160860 0.839141 0.500000
#
# Coordination Sequence:
#
# PCOD9585742 Si02
#       4
#    12  12   6   6
#     4   9  19  35  50  69  99 129 164 209 251 297
#     4   9  17  30  49  73 100 130 162 196 236 288
#     4   8  18  36  54  76 106 136 168 206 251 310
#     4  10  20  34  54  76  98 132 172 212 261 304
#
# _framework density 19.494769999999999
#
# number of rings (size 3 to 8) (size 9 to 14) (size 15 to 20)
#    0.333    2.667    0.000    0.333    0.000    5.333 
#    1.000    6.667    0.000    2.000    0.000    0.000 
#    0.000    0.000    0.000    0.000    0.000    0.000 
#
# Total GULP energy -200462.803818 kJ/mol
# GULP energy per Si atom -5568.411217 kJ/mol
# Density = 1.945040 g / cm^3
# Si number density = 19.494770 Si / 1000 Ang^3
#
#
#
# Elastic Constant Matrix: (Units=GPa)
#
#
# Indices 1 2 3 4 5 6 
#
# 1 142.3831 120.1639 8.1962 0.0000 -0.0044 0.0000
# 2 120.1639 142.3831 8.1962 0.0000 0.0044 0.0000
# 3 8.1962 8.1962 21.1533 0.0000 0.0000 0.0000
# 4 0.0000 0.0000 0.0000 -35.7623 0.0000 0.0044
# 5 -0.0044 0.0044 0.0000 0.0000 -35.7623 0.0000
# 6 0.0000 0.0000 0.0000 0.0044 0.0000 11.1096
#
#
#
# Elastic Compliance Matrix: (Units=1/GPa)
#
#
# Indices 1 2 3 4 5 6 
#
# 1 0.024455 -0.020551 -0.001512 0.000000 -0.000006 0.000000
# 2 -0.020551 0.024455 -0.001512 0.000000 0.000006 0.000000
# 3 -0.001512 -0.001512 0.048446 0.000000 0.000000 0.000000
# 4 0.000000 0.000000 0.000000 -0.027962 0.000000 0.000011
# 5 -0.000006 0.000006 0.000000 0.000000 -0.027962 0.000000
# 6 0.000000 0.000000 0.000000 0.000011 0.000000 0.090012
#
#
# Mechanical properties :
#
#
# Convention : Reuss Voigt Hill
#
# Bulk Modulus (GPa) = 19.91911 64.33688 42.12800
# Shear Modulus (GPa) = 25.59771 -0.79215 12.40278
#
# Velocity S-wave (km/s) = 3.62754 -0.63814 2.52506
# Velocity P-wave (km/s) = 5.27117 5.70358 5.49163
#
# Compressibility (1/GPa) = 0.05020304
#
# Stress axis : x y z
#
# Youngs Moduli (GPa) = 40.89189 40.89189 20.64152
#
# Poissons Ratio (x) = 0.84039 0.03122
# Poissons Ratio (y) = 0.84039 0.03122
# Poissons Ratio (z) = 0.06184 0.06184
#
# Static dielectric constant tensor:
#      x y z
#    x 1.680910 0.000000 0.000000 
#    y 0.000000 1.680910 0.000000 
#    z 0.000000 0.000000 1.722870 
# 
# From -- ./inp_files/267.got.cif
#   From: 2010.05.17/outbox.cif.g08.bks.cpg/sg187_1_cif.got.tgz:267.got - 2010.05.20 12:09:04.
