data_PCOD9585360
_publ_section_title
;
Structure prediction by ZEFSAII (Michael W. Deem and Ramdas Pophale) SiO2 
 PCOD9585360
Probable space group: P 63 M C
;
_chemical_formula_sum "Si O2"
_cell_formula_units_Z 84
_cell_length_a 29.963624
_cell_length_b 29.963624
_cell_length_c 5.482205
_cell_angle_alpha 90.000000
_cell_angle_beta 90.000000
_cell_angle_gamma 120.000000
_cell_volume 4262.599998
_symmetry_space_group_name_H-M "P 63 M C"
_symmetry_group_IT_number 186
_symmetry_cell_setting 'hexagonal'
loop_
_space_group_symop_operation_xyz
x,y,z
x-y,x,1/2+z
-y,x-y,z
-x,-y,1/2+z
-x+y,-x,z
y,-x+y,1/2+z
-x+y,y,z
x,x-y,z
-y,-x,z
y,x,1/2+z
x-y,-y,1/2+z
-x,-x+y,1/2+z
loop_
_atom_site_type_symbol
_atom_site_label
_atom_site_fract_x
_atom_site_fract_y
_atom_site_fract_z
Si Si1 0.769348 0.016402 0.446260
Si Si2 0.124634 0.976616 0.410504
Si Si3 0.657505 0.775450 0.097264
Si Si4 0.367427 0.373624 0.637328
Si Si5 0.411554 0.490055 0.122878
Si Si6 0.115431 0.637995 0.621985
Si Si7 0.146508 0.399924 0.595311
O O1 0.788160 0.072409 0.561716
O O2 0.734218 0.981486 0.668983
O O3 0.809974 0.995884 0.411157
O O4 0.084799 0.915202 0.412399
O O5 0.117114 0.000245 0.660084
O O6 0.657565 0.828783 0.105854
O O7 0.626015 0.746159 0.853647
O O8 0.629950 0.746047 0.348399
O O9 0.345385 0.344224 0.388050
O O10 0.429249 0.394001 0.630842
O O11 0.361751 0.423388 0.628500
O O12 0.473168 0.526833 0.109818
O O13 0.391941 0.502768 0.373071
O O14 0.387658 0.501129 0.881413
O O15 0.155806 0.698165 0.596909
O O16 0.199992 0.399983 0.588887
#
# Coordination Sequence:
#
# PCOD9585360 Si02
#       7
#    12  12  12  12  12  12  12
#     4  10  21  35  53  82 106 128 161 207 266 319
#     4  10  21  37  59  84 106 131 159 195 250 320
#     4  10  21  38  58  78 102 133 175 224 268 317
#     4   8  16  27  41  64  91 128 167 203 242 288
#     4  10  19  31  49  75 106 141 178 214 256 306
#     4  10  19  32  49  72 102 140 180 218 259 302
#     4  10  21  38  58  77 103 143 185 225 270 318
#
# _framework density 19.706282000000002
#
# number of rings (size 3 to 8) (size 9 to 14) (size 15 to 20)
#    0.000    2.286    0.000    2.571    0.000    9.714 
#    0.000   14.286    0.000    2.857    0.000    0.000 
#    0.000    0.000    0.000    8.571    0.000    0.000 
#
# Total GULP energy -467947.273839 kJ/mol
# GULP energy per Si atom -5570.800879 kJ/mol
# Density = 1.966143 g / cm^3
# Si number density = 19.706282 Si / 1000 Ang^3
#
#
#
# Elastic Constant Matrix: (Units=GPa)
#
#
# Indices 1 2 3 4 5 6 
#
# 1 52.3298 18.3426 11.5508 0.0000 0.0000 0.0000
# 2 18.3426 52.3298 11.5508 0.0000 0.0000 0.0000
# 3 11.5508 11.5508 175.0545 0.0000 0.0000 0.0000
# 4 0.0000 0.0000 0.0000 23.0240 0.0000 0.0000
# 5 0.0000 0.0000 0.0000 0.0000 23.0240 0.0000
# 6 0.0000 0.0000 0.0000 0.0000 0.0000 16.9936
#
#
#
# Elastic Compliance Matrix: (Units=1/GPa)
#
#
# Indices 1 2 3 4 5 6 
#
# 1 0.021942 -0.007481 -0.000954 0.000000 0.000000 0.000000
# 2 -0.007481 0.021942 -0.000954 0.000000 0.000000 0.000000
# 3 -0.000954 -0.000954 0.005838 0.000000 0.000000 0.000000
# 4 0.000000 0.000000 0.000000 0.043433 0.000000 0.000000
# 5 0.000000 0.000000 0.000000 0.000000 0.043433 0.000000
# 6 0.000000 0.000000 0.000000 0.000000 0.000000 0.058846
#
#
# Mechanical properties :
#
#
# Convention : Reuss Voigt Hill
#
# Bulk Modulus (GPa) = 32.31550 40.28916 36.30233
# Shear Modulus (GPa) = 22.26901 28.49301 25.38101
#
# Velocity S-wave (km/s) = 3.36526 3.80660 3.59272
# Velocity P-wave (km/s) = 5.61553 6.30948 5.97259
#
# Compressibility (1/GPa) = 0.03094490
#
# Stress axis : x y z
#
# Youngs Moduli (GPa) = 45.57417 45.57417 171.27879
#
# Poissons Ratio (x) = 0.34092 0.16344
# Poissons Ratio (y) = 0.34092 0.16344
# Poissons Ratio (z) = 0.04349 0.04349
#
# Static dielectric constant tensor:
#      x y z
#    x 1.711080 0.000000 0.000000 
#    y 0.000000 1.711080 0.000000 
#    z 0.000000 0.000000 1.819850 
# 
# From -- ./inp_files/438.got.cif
#   From: 2010.05.17/outbox.cif.g08.bks.cpg/sg186_1_cif.got.tgz:438.got - 2010.05.20 12:07:08.
