data_PCOD9585550
_publ_section_title
;
Structure prediction by ZEFSAII (Michael W. Deem and Ramdas Pophale) SiO2 
 PCOD9585550
Probable space group: P -6 M 2
;
_chemical_formula_sum "Si O2"
_cell_formula_units_Z 60
_cell_length_a 18.271127
_cell_length_b 18.271127
_cell_length_c 12.331563
_cell_angle_alpha 90.000000
_cell_angle_beta 90.000000
_cell_angle_gamma 120.000000
_cell_volume 3565.163326
_symmetry_space_group_name_H-M "P -6 M 2"
_symmetry_group_IT_number 187
_symmetry_cell_setting 'hexagonal'
loop_
_space_group_symop_operation_xyz
x,y,z
-x+y,-x,-z
-y,x-y,z
x,y,-z
-x+y,-x,z
-y,x-y,-z
-y,-x,-z
-x+y,y,-z
x,x-y,-z
-x+y,y,z
x,x-y,z
-y,-x,z
loop_
_atom_site_type_symbol
_atom_site_label
_atom_site_fract_x
_atom_site_fract_y
_atom_site_fract_z
Si Si1 0.665679 0.504583 0.369348
Si Si2 0.547182 0.857208 0.500000
Si Si3 0.760302 0.067059 0.292982
Si Si4 0.500958 0.663141 0.739365
Si Si5 0.040487 0.790192 0.500000
Si Si6 0.249440 0.327877 0.128407
O O1 0.663665 0.512067 0.500000
O O2 0.744576 0.489151 0.345285
O O3 0.576125 0.423876 0.335832
O O4 0.689893 0.595956 0.321058
O O5 0.514829 0.757415 0.500000
O O6 0.519756 0.873985 0.383837
O O7 0.647982 0.905286 0.500000
O O8 0.846303 0.153698 0.276586
O O9 0.772176 0.017488 0.393832
O O10 0.734906 0.006957 0.189556
O O11 0.485656 0.742828 0.735179
O O12 0.419053 0.580948 0.780978
O O13 0.581855 0.692562 0.814576
O O14 0.109919 0.890082 0.500000
O O15 0.152975 0.305949 0.148603
O O16 0.262757 0.331641 0.000000
#
# Coordination Sequence:
#
# PCOD9585550 Si02
#       6
#    12   6  12  12   6  12
#     4   9  17  30  49  77 114 150 179 209 251 304
#     4   9  17  30  50  75 105 142 178 208 250 309
#     4  11  21  35  56  83 109 134 173 222 268 321
#     4  10  19  32  51  78 111 147 185 223 260 303
#     4  11  19  34  56  79 110 144 172 204 259 329
#     4  10  22  40  58  75  99 137 182 223 270 325
#
# _framework density 16.829522999999998
#
# number of rings (size 3 to 8) (size 9 to 14) (size 15 to 20)
#    0.000    2.000    3.000    1.600    0.000    2.400 
#    0.000    1.000    0.000    6.800    0.000    0.000 
#    0.000    1.600    0.000    0.000    0.000    0.000 
#
# Total GULP energy -334542.111555 kJ/mol
# GULP energy per Si atom -5575.701859 kJ/mol
# Density = 1.679122 g / cm^3
# Si number density = 16.829523 Si / 1000 Ang^3
#
#
#
# Elastic Constant Matrix: (Units=GPa)
#
#
# Indices 1 2 3 4 5 6 
#
# 1 89.9348 64.5128 53.9833 0.0000 -0.0004 0.0000
# 2 64.5128 89.9348 53.9833 0.0000 0.0004 0.0000
# 3 53.9833 53.9833 90.9171 0.0000 0.0000 0.0000
# 4 0.0000 0.0000 0.0000 -7.0873 0.0000 0.0004
# 5 -0.0004 0.0004 0.0000 0.0000 -7.0873 0.0000
# 6 0.0000 0.0000 0.0000 0.0004 0.0000 12.7110
#
#
#
# Elastic Compliance Matrix: (Units=1/GPa)
#
#
# Indices 1 2 3 4 5 6 
#
# 1 0.025203 -0.014133 -0.006572 0.000000 -0.000002 0.000000
# 2 -0.014133 0.025203 -0.006572 0.000000 0.000002 0.000000
# 3 -0.006572 -0.006572 0.018804 0.000000 0.000000 0.000000
# 4 0.000000 0.000000 0.000000 -0.141097 0.000000 0.000004
# 5 -0.000002 0.000002 0.000000 0.000000 -0.141097 0.000000
# 6 0.000000 0.000000 0.000000 0.000004 0.000000 0.078672
#
#
# Mechanical properties :
#
#
# Convention : Reuss Voigt Hill
#
# Bulk Modulus (GPa) = 68.24785 68.41616 68.33201
# Shear Modulus (GPa) = -66.78153 6.26107 -30.26023
#
# Velocity S-wave (km/s) = -6.30613 1.93090 -4.24494
# Velocity P-wave (km/s) = 3.51889 6.76106 4.08223
#
# Compressibility (1/GPa) = 0.01465248
#
# Stress axis : x y z
#
# Youngs Moduli (GPa) = 39.67840 39.67840 53.18004
#
# Poissons Ratio (x) = 0.56079 0.34953
# Poissons Ratio (y) = 0.56079 0.34953
# Poissons Ratio (z) = 0.26079 0.26079
#
# Static dielectric constant tensor:
#      x y z
#    x 1.573470 0.000000 0.000000 
#    y 0.000000 1.573470 0.000000 
#    z 0.000000 0.000000 1.555030 
# 
# From -- ./inp_files/1686.got.cif
#   From: 2010.05.17/outbox.cif.g08.bks.cpg/sg187_1_cif.got.tgz:1686.got - 2010.05.20 12:09:04.
