data_PCOD9585616
_publ_section_title
;
Structure prediction by ZEFSAII (Michael W. Deem and Ramdas Pophale) SiO2 
 PCOD9585616
Probable space group: P -6 M 2
;
_chemical_formula_sum "Si O2"
_cell_formula_units_Z 60
_cell_length_a 12.810578
_cell_length_b 12.810578
_cell_length_c 26.146740
_cell_angle_alpha 90.000000
_cell_angle_beta 90.000000
_cell_angle_gamma 120.000000
_cell_volume 3716.084923
_symmetry_space_group_name_H-M "P -6 M 2"
_symmetry_group_IT_number 187
_symmetry_cell_setting 'hexagonal'
loop_
_space_group_symop_operation_xyz
x,y,z
-x+y,-x,-z
-y,x-y,z
x,y,-z
-x+y,-x,z
-y,x-y,-z
-y,-x,-z
-x+y,y,-z
x,x-y,-z
-x+y,y,z
x,x-y,z
-y,-x,z
loop_
_atom_site_type_symbol
_atom_site_label
_atom_site_fract_x
_atom_site_fract_y
_atom_site_fract_z
Si Si1 0.000688 0.751650 0.000000
Si Si2 0.581988 0.667308 0.902044
Si Si3 0.752709 0.751478 0.500000
Si Si4 0.580240 0.913755 0.593301
Si Si5 0.580710 0.666802 0.710799
Si Si6 0.752159 0.000093 0.195241
O O1 0.021146 0.690070 0.950263
O O2 0.872310 0.744619 0.000000
O O3 0.109046 0.890955 0.000000
O O4 0.550849 0.775425 0.902985
O O5 0.461061 0.538940 0.903945
O O6 0.658780 0.685496 0.850831
O O7 0.878779 0.757558 0.500000
O O8 0.677042 0.686082 0.449366
O O9 0.769707 0.884854 0.500000
O O10 0.457706 0.915412 0.585134
O O11 0.555213 0.777607 0.587844
O O12 0.619921 0.950894 0.652018
O O13 0.551535 0.775768 0.716095
O O14 0.460021 0.539980 0.720099
O O15 0.683583 0.694020 0.751777
O O16 0.780895 0.890448 0.194357
O O17 0.873142 0.126859 0.189463
#
# Coordination Sequence:
#
# PCOD9585616 Si02
#       6
#     6  12   6  12  12  12
#     4  10  20  34  54  78 104 134 166 200 238 284
#     4  10  20  34  54  78 102 128 160 203 252 296
#     4  10  20  32  46  66  94 128 162 194 232 280
#     4   9  17  30  50  75  98 120 150 193 245 292
#     4   9  17  30  50  75 100 124 152 192 242 292
#     4  10  20  33  50  72  99 131 165 201 239 282
#
# _framework density 16.146025000000002
#
# number of rings (size 3 to 8) (size 9 to 14) (size 15 to 20)
#    0.000    2.400    0.000    2.800    0.000    2.400 
#    0.000    6.000    0.000   13.600    0.000    0.000 
#    0.000    0.000    0.000    0.000    0.000    0.000 
#
# Total GULP energy -334677.181850 kJ/mol
# GULP energy per Si atom -5577.953031 kJ/mol
# Density = 1.610928 g / cm^3
# Si number density = 16.146025 Si / 1000 Ang^3
#
#
#
# Elastic Constant Matrix: (Units=GPa)
#
#
# Indices 1 2 3 4 5 6 
#
# 1 108.5794 70.5702 75.0886 0.0000 -0.0001 0.0000
# 2 70.5702 108.5794 75.0886 0.0000 0.0001 0.0000
# 3 75.0886 75.0886 126.4292 0.0000 0.0000 0.0000
# 4 0.0000 0.0000 0.0000 16.7192 0.0000 0.0001
# 5 -0.0001 0.0001 0.0000 0.0000 16.7192 0.0000
# 6 0.0000 0.0000 0.0000 0.0001 0.0000 19.0046
#
#
#
# Elastic Compliance Matrix: (Units=1/GPa)
#
#
# Indices 1 2 3 4 5 6 
#
# 1 0.018713 -0.007596 -0.006602 0.000000 0.000000 0.000000
# 2 -0.007596 0.018713 -0.006602 0.000000 0.000000 0.000000
# 3 -0.006602 -0.006602 0.015752 0.000000 0.000000 0.000000
# 4 0.000000 0.000000 0.000000 0.059812 0.000000 0.000000
# 5 0.000000 0.000000 0.000000 0.000000 0.059812 0.000000
# 6 0.000000 0.000000 0.000000 0.000000 0.000000 0.052619
#
#
# Mechanical properties :
#
#
# Convention : Reuss Voigt Hill
#
# Bulk Modulus (GPa) = 86.38688 87.23141 86.80915
# Shear Modulus (GPa) = 18.45834 18.67798 18.56816
#
# Velocity S-wave (km/s) = 3.38481 3.40489 3.39486
# Velocity P-wave (km/s) = 8.30034 8.34275 8.32157
#
# Compressibility (1/GPa) = 0.01157583
#
# Stress axis : x y z
#
# Youngs Moduli (GPa) = 53.43899 53.43899 63.48411
#
# Poissons Ratio (x) = 0.40595 0.41914
# Poissons Ratio (y) = 0.40595 0.41914
# Poissons Ratio (z) = 0.35282 0.35282
#
# Static dielectric constant tensor:
#      x y z
#    x 1.506270 0.000000 0.000000 
#    y 0.000000 1.506270 0.000000 
#    z 0.000000 0.000000 1.558200 
# 
# From -- ./inp_files/4197.got.cif
#   From: 2010.05.17/outbox.cif.g08.bks.cpg/sg187_3_cif.got.tgz:4197.got - 2010.05.20 12:09:04.
