data_PCOD9585817
_publ_section_title
;
Structure prediction by ZEFSAII (Michael W. Deem and Ramdas Pophale) SiO2 
 PCOD9585817
Probable space group: P -6 M 2
;
_chemical_formula_sum "Si O2"
_cell_formula_units_Z 60
_cell_length_a 22.715868
_cell_length_b 22.715868
_cell_length_c 7.777230
_cell_angle_alpha 90.000000
_cell_angle_beta 90.000000
_cell_angle_gamma 120.000000
_cell_volume 3475.475627
_symmetry_space_group_name_H-M "P -6 M 2"
_symmetry_group_IT_number 187
_symmetry_cell_setting 'hexagonal'
loop_
_space_group_symop_operation_xyz
x,y,z
-x+y,-x,-z
-y,x-y,z
x,y,-z
-x+y,-x,z
-y,x-y,-z
-y,-x,-z
-x+y,y,-z
x,x-y,-z
-x+y,y,z
x,x-y,z
-y,-x,z
loop_
_atom_site_type_symbol
_atom_site_label
_atom_site_fract_x
_atom_site_fract_y
_atom_site_fract_z
Si Si1 0.080086 0.791637 0.298041
Si Si2 0.959477 0.299328 0.294495
Si Si3 0.999075 0.131861 0.206440
Si Si4 0.830647 0.661294 0.794704
Si Si5 0.881778 0.505382 0.294824
Si Si6 0.752355 0.247646 0.794640
O O1 0.090499 0.784339 0.500000
O O2 0.153350 0.846651 0.222468
O O3 0.033700 0.827001 0.284657
O O4 0.032993 0.716092 0.224687
O O5 0.965200 0.308836 0.500000
O O6 0.906974 0.219223 0.263660
O O7 0.924858 0.342068 0.225251
O O8 0.053185 0.106370 0.235203
O O9 0.995220 0.139443 0.000000
O O10 0.924639 0.075362 0.267406
O O11 0.791502 0.583003 0.731652
O O12 0.831603 0.663206 0.000000
O O13 0.891976 0.509906 0.500000
O O14 0.900342 0.450171 0.226225
O O15 0.801659 0.477534 0.264608
O O16 0.752242 0.247759 0.000000
#
# Coordination Sequence:
#
# PCOD9585817 Si02
#       6
#    12  12  12   6  12   6
#     4   9  18  30  41  55  76 101 128 158 195 239
#     4   9  17  29  44  60  79 103 129 162 202 238
#     4   9  17  28  40  53  70  94 124 159 197 233
#     4   9  17  27  41  61  81 101 131 165 195 233
#     4   9  17  30  47  64  81 104 135 167 200 241
#     4   9  17  29  43  61  85 109 131 161 199 237
#
# _framework density 17.263824
#
# number of rings (size 3 to 8) (size 9 to 14) (size 15 to 20)
#    0.000    3.000    0.000    0.800    1.400    4.800 
#    0.600    0.000    0.000    1.200    0.000    0.000 
#    0.000    0.000    0.000    0.600    0.000   19.200 
#
# Total GULP energy -334094.989398 kJ/mol
# GULP energy per Si atom -5568.249823 kJ/mol
# Density = 1.722453 g / cm^3
# Si number density = 17.263824 Si / 1000 Ang^3
#
#
#
# Elastic Constant Matrix: (Units=GPa)
#
#
# Indices 1 2 3 4 5 6 
#
# 1 93.2656 44.7373 3.3888 0.0000 0.0001 0.0000
# 2 44.7373 93.2656 3.3888 0.0000 -0.0001 0.0000
# 3 3.3888 3.3888 23.3557 0.0000 0.0000 0.0000
# 4 0.0000 0.0000 0.0000 -2.9161 0.0000 -0.0001
# 5 0.0001 -0.0001 0.0000 0.0000 -2.9161 0.0000
# 6 0.0000 0.0000 0.0000 -0.0001 0.0000 24.2642
#
#
#
# Elastic Compliance Matrix: (Units=1/GPa)
#
#
# Indices 1 2 3 4 5 6 
#
# 1 0.013952 -0.006654 -0.001059 0.000000 0.000001 0.000000
# 2 -0.006654 0.013952 -0.001059 0.000000 -0.000001 0.000000
# 3 -0.001059 -0.001059 0.043123 0.000000 0.000000 0.000000
# 4 0.000000 0.000000 0.000000 -0.342920 0.000000 -0.000001
# 5 0.000001 -0.000001 0.000000 0.000000 -0.342920 0.000000
# 6 0.000000 0.000000 0.000000 -0.000001 0.000000 0.041213
#
#
# Mechanical properties :
#
#
# Convention : Reuss Voigt Hill
#
# Bulk Modulus (GPa) = 18.69713 34.76852 26.73283
# Shear Modulus (GPa) = -9.28975 14.24452 2.47739
#
# Velocity S-wave (km/s) = -2.32223 2.87559 1.19922
# Velocity P-wave (km/s) = 1.91401 5.58646 4.17564
#
# Compressibility (1/GPa) = 0.05348414
#
# Stress axis : x y z
#
# Youngs Moduli (GPa) = 71.67240 71.67240 23.18927
#
# Poissons Ratio (x) = 0.47692 0.02456
# Poissons Ratio (y) = 0.47692 0.02456
# Poissons Ratio (z) = 0.07590 0.07590
#
# Static dielectric constant tensor:
#      x y z
#    x 1.630560 0.000000 0.000000 
#    y 0.000000 1.630560 0.000000 
#    z 0.000000 0.000000 1.612300 
# 
# From -- ./inp_files/900.got.cif
#   From: 2010.05.17/outbox.cif.g08.bks.cpg/sg187_1_cif.got.tgz:900.got - 2010.05.20 12:09:04.
