data_PCOD9585127
_publ_section_title
;
Structure prediction by ZEFSAII (Michael W. Deem and Ramdas Pophale) SiO2 
 PCOD9585127
Probable space group: P 6 C C
;
_chemical_formula_sum "Si O2"
_cell_formula_units_Z 60
_cell_length_a 19.161874
_cell_length_b 19.161874
_cell_length_c 10.197887
_cell_angle_alpha 90.000000
_cell_angle_beta 90.000000
_cell_angle_gamma 120.000000
_cell_volume 3242.774784
_symmetry_space_group_name_H-M "P 6 C C"
_symmetry_group_IT_number 184
_symmetry_cell_setting 'hexagonal'
loop_
_space_group_symop_operation_xyz
x,y,z
x-y,x,z
-y,x-y,z
-x,-y,z
-x+y,-x,z
y,-x+y,z
-x+y,y,1/2+z
x,x-y,1/2+z
-y,-x,1/2+z
y,x,1/2+z
x-y,-y,1/2+z
-x,-x+y,1/2+z
loop_
_atom_site_type_symbol
_atom_site_label
_atom_site_fract_x
_atom_site_fract_y
_atom_site_fract_z
Si Si1 0.694283 0.258920 0.299710
Si Si2 0.926651 0.810070 0.789700
Si Si3 0.063478 0.326194 0.675649
Si Si4 0.073134 0.759651 0.464560
Si Si5 0.759184 0.539503 0.055540
O O1 0.751042 0.356742 0.296012
O O2 0.717379 0.226973 0.171169
O O3 0.708942 0.226448 0.435396
O O4 0.873425 0.851984 0.776200
O O5 0.901742 0.735745 0.690055
O O6 0.916948 0.763539 0.927120
O O7 0.233948 0.391484 0.494342
O O8 0.132067 0.411217 0.622695
O O9 0.988686 0.284830 0.579810
O O10 0.039941 0.711597 0.326559
#
# Coordination Sequence:
#
# PCOD9585127 Si02
#       5
#    12  12  12  12  12
#     4  10  23  40  68 105 125 152 191 257 300 398
#     4  10  20  36  54  85 122 170 224 273 322 346
#     4  10  23  37  60  88 122 170 222 269 302 370
#     4  10  23  37  60  88 122 170 222 269 302 370
#     4  12  20  42  66  94 127 168 205 250 324 364
#
# _framework density 18.502672
#
# number of rings (size 3 to 8) (size 9 to 14) (size 15 to 20)
#    1.600    0.000    2.000    3.800    2.800    0.000 
#    0.000    0.000    0.000    9.600    0.000    0.000 
#    0.000    0.000    0.000    0.000    0.000    0.000 
#
# Total GULP energy -334244.615922 kJ/mol
# GULP energy per Si atom -5570.743599 kJ/mol
# Density = 1.846056 g / cm^3
# Si number density = 18.502672 Si / 1000 Ang^3
#
#
#
# Elastic Constant Matrix: (Units=GPa)
#
#
# Indices 1 2 3 4 5 6 
#
# 1 44.4894 15.9325 -1.8419 0.0000 0.0000 0.0000
# 2 15.9325 44.4894 -1.8419 0.0000 0.0000 0.0000
# 3 -1.8419 -1.8419 81.2892 0.0000 0.0000 0.0000
# 4 0.0000 0.0000 0.0000 37.9078 0.0000 0.0000
# 5 0.0000 0.0000 0.0000 0.0000 37.9078 0.0000
# 6 0.0000 0.0000 0.0000 0.0000 0.0000 14.2784
#
#
#
# Elastic Compliance Matrix: (Units=1/GPa)
#
#
# Indices 1 2 3 4 5 6 
#
# 1 0.025796 -0.009222 0.000376 0.000000 0.000000 0.000000
# 2 -0.009222 0.025796 0.000376 0.000000 0.000000 0.000000
# 3 0.000376 0.000376 0.012319 0.000000 0.000000 0.000000
# 4 0.000000 0.000000 0.000000 0.026380 0.000000 0.000000
# 5 0.000000 0.000000 0.000000 0.000000 0.026380 0.000000
# 6 0.000000 0.000000 0.000000 0.000000 0.000000 0.070036
#
#
# Mechanical properties :
#
#
# Convention : Reuss Voigt Hill
#
# Bulk Modulus (GPa) = 21.29142 21.64059 21.46600
# Shear Modulus (GPa) = 22.79946 28.55343 25.67645
#
# Velocity S-wave (km/s) = 3.51412 3.93263 3.72925
# Velocity P-wave (km/s) = 5.29127 5.68701 5.49270
#
# Compressibility (1/GPa) = 0.04696728
#
# Stress axis : x y z
#
# Youngs Moduli (GPa) = 38.76642 38.76642 81.17695
#
# Poissons Ratio (x) = 0.35752 -0.03048
# Poissons Ratio (y) = 0.35752 -0.03048
# Poissons Ratio (z) = -0.01456 -0.01456
#
# Static dielectric constant tensor:
#      x y z
#    x 1.626070 0.000000 0.000000 
#    y 0.000000 1.626070 0.000000 
#    z 0.000000 0.000000 1.675130 
# 
# From -- ./inp_files/613.got.cif
#   From: 2010.05.17/outbox.cif.g08.bks.cpg/sg184_cif.got.tgz:613.got - 2010.05.20 12:04:40.
