data_PCOD9585108
_publ_section_title
;
Structure prediction by ZEFSAII (Michael W. Deem and Ramdas Pophale) SiO2 
 PCOD9585108
Probable space group: P 6 C C
;
_chemical_formula_sum "Si O2"
_cell_formula_units_Z 48
_cell_length_a 10.949621
_cell_length_b 10.949621
_cell_length_c 21.322271
_cell_angle_alpha 90.000000
_cell_angle_beta 90.000000
_cell_angle_gamma 120.000000
_cell_volume 2213.921740
_symmetry_space_group_name_H-M "P 6 C C"
_symmetry_group_IT_number 184
_symmetry_cell_setting 'hexagonal'
loop_
_space_group_symop_operation_xyz
x,y,z
x-y,x,z
-y,x-y,z
-x,-y,z
-x+y,-x,z
y,-x+y,z
-x+y,y,1/2+z
x,x-y,1/2+z
-y,-x,1/2+z
y,x,1/2+z
x-y,-y,1/2+z
-x,-x+y,1/2+z
loop_
_atom_site_type_symbol
_atom_site_label
_atom_site_fract_x
_atom_site_fract_y
_atom_site_fract_z
Si Si1 0.514511 0.164581 0.917740
Si Si2 0.310091 0.273364 0.531313
Si Si3 0.290457 0.290457 0.667740
Si Si4 0.273364 0.963273 0.304167
O O1 0.678991 0.209793 0.917740
O O2 0.427865 0.080778 0.857070
O O3 0.427865 0.080778 0.978410
O O4 0.164350 0.275489 0.525604
O O5 0.363581 0.343272 0.600350
O O6 0.136706 0.273412 0.667740
O O7 0.343272 0.363581 0.735130
O O8 0.111140 0.835650 0.309876
#
# Coordination Sequence:
#
# PCOD9585108 Si02
#       4
#    12  12  12  12
#     4  10  24  40  54  82 120 176 214 248 288 346
#     4  10  19  34  60  91 121 150 196 258 324 376
#     4   8  15  28  52  85 116 146 178 233 311 376
#     4  10  19  34  60  91 121 150 196 258 324 376
#
# _framework density 21.680985
#
# number of rings (size 3 to 8) (size 9 to 14) (size 15 to 20)
#    0.500    2.000    0.000    2.250    0.000    8.000 
#    0.000    2.500    0.000   45.000    0.000    0.000 
#    0.000    0.000    0.000    0.000    0.000    0.000 
#
# Total GULP energy -267209.297658 kJ/mol
# GULP energy per Si atom -5566.860368 kJ/mol
# Density = 2.163164 g / cm^3
# Si number density = 21.680985 Si / 1000 Ang^3
#
#
#
# Elastic Constant Matrix: (Units=GPa)
#
#
# Indices 1 2 3 4 5 6 
#
# 1 187.1613 -14.4464 79.1835 0.0000 0.0000 0.0000
# 2 -14.4464 187.1613 79.1835 0.0000 0.0000 0.0000
# 3 79.1835 79.1835 252.8789 0.0000 0.0000 0.0000
# 4 0.0000 0.0000 0.0000 -174.2360 0.0000 0.0000
# 5 0.0000 0.0000 0.0000 0.0000 -174.2360 0.0000
# 6 0.0000 0.0000 0.0000 0.0000 0.0000 100.8038
#
#
#
# Elastic Compliance Matrix: (Units=1/GPa)
#
#
# Indices 1 2 3 4 5 6 
#
# 1 0.006541 0.001581 -0.002543 0.000000 0.000000 0.000000
# 2 0.001581 0.006541 -0.002543 0.000000 0.000000 0.000000
# 3 -0.002543 -0.002543 0.005547 0.000000 0.000000 0.000000
# 4 0.000000 0.000000 0.000000 -0.005739 0.000000 0.000000
# 5 0.000000 0.000000 0.000000 0.000000 -0.005739 0.000000
# 6 0.000000 0.000000 0.000000 0.000000 0.000000 0.009920
#
#
# Mechanical properties :
#
#
# Convention : Reuss Voigt Hill
#
# Bulk Modulus (GPa) = 86.07292 101.67141 93.87217
# Shear Modulus (GPa) = 178.86359 -17.31489 80.77435
#
# Velocity S-wave (km/s) = 9.09269 -2.82905 6.11038
# Velocity P-wave (km/s) = 12.24834 6.02700 9.65263
#
# Compressibility (1/GPa) = 0.01161806
#
# Stress axis : x y z
#
# Youngs Moduli (GPa) = 152.88295 152.88295 180.27345
#
# Poissons Ratio (x) = -0.24168 0.45846
# Poissons Ratio (y) = -0.24168 0.45846
# Poissons Ratio (z) = 0.38881 0.38881
#
# Static dielectric constant tensor:
#      x y z
#    x 1.784450 0.000000 0.000000 
#    y 0.000000 1.784450 0.000000 
#    z 0.000000 0.000000 1.890740 
# 
# From -- ./inp_files/1186.got.cif
#   From: 2010.05.17/outbox.cif.g08.bks.cpg/sg184_cif.got.tgz:1186.got - 2010.05.20 12:04:40.
