data_PCOD9585371
_publ_section_title
;
Structure prediction by ZEFSAII (Michael W. Deem and Ramdas Pophale) SiO2 
 PCOD9585371
Probable space group: P 63 M C
;
_chemical_formula_sum "Si O2"
_cell_formula_units_Z 84
_cell_length_a 31.088093
_cell_length_b 31.088093
_cell_length_c 5.294907
_cell_angle_alpha 90.000000
_cell_angle_beta 90.000000
_cell_angle_gamma 120.000000
_cell_volume 4431.769182
_symmetry_space_group_name_H-M "P 63 M C"
_symmetry_group_IT_number 186
_symmetry_cell_setting 'hexagonal'
loop_
_space_group_symop_operation_xyz
x,y,z
x-y,x,1/2+z
-y,x-y,z
-x,-y,1/2+z
-x+y,-x,z
y,-x+y,1/2+z
-x+y,y,z
x,x-y,z
-y,-x,z
y,x,1/2+z
x-y,-y,1/2+z
-x,-x+y,1/2+z
loop_
_atom_site_type_symbol
_atom_site_label
_atom_site_fract_x
_atom_site_fract_y
_atom_site_fract_z
Si Si1 0.666972 0.428150 0.038920
Si Si2 0.872134 0.230356 0.574801
Si Si3 0.497601 0.200897 0.423579
Si Si4 0.314140 0.285313 0.818835
Si Si5 0.968807 0.580467 0.838506
Si Si6 0.866808 0.483205 0.758661
Si Si7 0.407384 0.154582 0.072035
O O1 0.720828 0.441656 0.934705
O O2 0.629458 0.370543 0.012492
O O3 0.676676 0.445839 0.328952
O O4 0.639761 0.456151 0.924221
O O5 0.825874 0.174127 0.562248
O O6 0.921106 0.238119 0.714883
O O7 0.882120 0.256446 0.299619
O O8 0.857665 0.260282 0.777895
O O9 0.484494 0.242247 0.532755
O O10 0.493362 0.152331 0.547360
O O11 0.462468 0.181099 0.177177
O O12 0.283729 0.294584 0.599493
O O13 0.370364 0.333200 0.827381
O O14 0.916623 0.529551 0.869984
O O15 0.995458 0.582853 0.573741
O O16 0.877071 0.438536 0.681981
O O17 0.390120 0.195060 0.080662
#
# Coordination Sequence:
#
# PCOD9585371 Si02
#       7
#    12  12  12  12  12  12  12
#     4  10  22  39  59  83 111 142 174 214 266 324
#     4  10  19  33  51  78 108 140 173 216 266 312
#     4  10  21  35  55  82 109 136 166 208 262 315
#     4  10  20  34  52  75 103 138 176 213 260 320
#     4  10  24  42  61  83 109 143 175 214 266 317
#     4  11  24  39  59  81 105 136 177 220 256 308
#     4   9  19  30  49  76 104 131 163 205 258 312
#
# _framework density 18.954056000000001
#
# number of rings (size 3 to 8) (size 9 to 14) (size 15 to 20)
#    0.000    2.000    0.000    2.714    6.000    1.714 
#    0.000    0.000    0.000    4.571    0.000    0.000 
#    0.000    0.000    0.000    0.000    0.000    0.000 
#
# Total GULP energy -467694.210294 kJ/mol
# GULP energy per Si atom -5567.788218 kJ/mol
# Density = 1.891092 g / cm^3
# Si number density = 18.954056 Si / 1000 Ang^3
#
#
#
# Elastic Constant Matrix: (Units=GPa)
#
#
# Indices 1 2 3 4 5 6 
#
# 1 66.6203 21.7033 14.9955 0.0000 0.0000 0.0000
# 2 21.7033 66.6203 14.9955 0.0000 0.0000 0.0000
# 3 14.9955 14.9955 50.8460 0.0000 0.0000 0.0000
# 4 0.0000 0.0000 0.0000 15.4093 0.0000 0.0000
# 5 0.0000 0.0000 0.0000 0.0000 15.4093 0.0000
# 6 0.0000 0.0000 0.0000 0.0000 0.0000 22.4585
#
#
#
# Elastic Compliance Matrix: (Units=1/GPa)
#
#
# Indices 1 2 3 4 5 6 
#
# 1 0.017423 -0.004841 -0.003711 0.000000 0.000000 0.000000
# 2 -0.004841 0.017423 -0.003711 0.000000 0.000000 0.000000
# 3 -0.003711 -0.003711 0.021856 0.000000 0.000000 0.000000
# 4 0.000000 0.000000 0.000000 0.064896 0.000000 0.000000
# 5 0.000000 0.000000 0.000000 0.000000 0.064896 0.000000
# 6 0.000000 0.000000 0.000000 0.000000 0.000000 0.044527
#
#
# Mechanical properties :
#
#
# Convention : Reuss Voigt Hill
#
# Bulk Modulus (GPa) = 31.07788 31.94167 31.50978
# Shear Modulus (GPa) = 18.77800 19.48158 19.12979
#
# Velocity S-wave (km/s) = 3.15097 3.20946 3.18035
# Velocity P-wave (km/s) = 5.44703 5.53380 5.49059
#
# Compressibility (1/GPa) = 0.03217722
#
# Stress axis : x y z
#
# Youngs Moduli (GPa) = 57.39655 57.39655 45.75415
#
# Poissons Ratio (x) = 0.27784 0.16978
# Poissons Ratio (y) = 0.27784 0.16978
# Poissons Ratio (z) = 0.21298 0.21298
#
# Static dielectric constant tensor:
#      x y z
#    x 1.722420 0.000000 0.000000 
#    y 0.000000 1.722420 0.000000 
#    z 0.000000 0.000000 1.797600 
# 
# From -- ./inp_files/427.got.cif
#   From: 2010.05.17/outbox.cif.g08.bks.cpg/sg186_1_cif.got.tgz:427.got - 2010.05.20 12:07:08.
