data_PCOD9585770
_publ_section_title
;
Structure prediction by ZEFSAII (Michael W. Deem and Ramdas Pophale) SiO2 
 PCOD9585770
Probable space group: P -6 M 2
;
_chemical_formula_sum "Si O2"
_cell_formula_units_Z 72
_cell_length_a 23.107911
_cell_length_b 23.107911
_cell_length_c 9.413346
_cell_angle_alpha 90.000000
_cell_angle_beta 90.000000
_cell_angle_gamma 120.000000
_cell_volume 4353.073761
_symmetry_space_group_name_H-M "P -6 M 2"
_symmetry_group_IT_number 187
_symmetry_cell_setting 'hexagonal'
loop_
_space_group_symop_operation_xyz
x,y,z
-x+y,-x,-z
-y,x-y,z
x,y,-z
-x+y,-x,z
-y,x-y,-z
-y,-x,-z
-x+y,y,-z
x,x-y,-z
-x+y,y,z
x,x-y,z
-y,-x,z
loop_
_atom_site_type_symbol
_atom_site_label
_atom_site_fract_x
_atom_site_fract_y
_atom_site_fract_z
Si Si1 0.430767 0.390667 0.843807
Si Si2 0.642762 0.156127 0.338846
Si Si3 0.375852 0.883086 0.164301
Si Si4 0.853114 0.706227 0.172759
Si Si5 0.447820 0.223910 0.831526
Si Si6 0.119278 0.743041 0.333119
Si Si7 0.281506 0.010864 0.834603
O O1 0.475758 0.395912 0.712370
O O2 0.412317 0.448604 0.839006
O O3 0.362018 0.319667 0.835536
O O4 0.461167 0.393962 0.000000
O O5 0.666837 0.162855 0.500000
O O6 0.591841 0.183681 0.330327
O O7 0.702426 0.189144 0.229872
O O8 0.431957 0.863913 0.208960
O O9 0.311332 0.865074 0.259805
O O10 0.356417 0.860648 0.000000
O O11 0.814429 0.628857 0.218774
O O12 0.803388 0.734401 0.214124
O O13 0.853878 0.707755 0.000000
O O14 0.446815 0.223408 0.000000
O O15 0.104162 0.726680 0.500000
O O16 0.184474 0.815527 0.320076
O O17 0.056105 0.742821 0.257198
O O18 0.260139 0.993768 0.000000
#
# Coordination Sequence:
#
# PCOD9585770 Si02
#       7
#    12  12  12   6   6  12  12
#     4   9  16  29  49  71  95 125 157 191 234 288
#     4  11  23  35  46  64  90 118 150 193 245 293
#     4   9  18  32  51  75 100 128 166 209 250 293
#     4   9  16  31  53  77 103 127 159 211 263 307
#     4  11  21  37  55  67  85 117 161 207 249 297
#     4  10  21  35  50  73 108 145 178 214 258 311
#     4   9  17  31  52  76 103 134 169 208 255 307
#
# _framework density 16.540037000000002
#
# number of rings (size 3 to 8) (size 9 to 14) (size 15 to 20)
#    0.000    2.333    1.667    2.750    0.000    6.333 
#    0.500    0.417    0.000    0.333    0.000    0.000 
#    0.833    0.000    0.500    0.000    0.667    0.000 
#
# Total GULP energy -400882.560352 kJ/mol
# GULP energy per Si atom -5567.813338 kJ/mol
# Density = 1.650239 g / cm^3
# Si number density = 16.540037 Si / 1000 Ang^3
#
#
#
# Elastic Constant Matrix: (Units=GPa)
#
#
# Indices 1 2 3 4 5 6 
#
# 1 62.7473 32.3570 40.1660 0.0000 -0.0001 0.0000
# 2 32.3570 62.7473 40.1660 0.0000 0.0001 0.0000
# 3 40.1660 40.1660 81.9937 0.0000 0.0000 0.0000
# 4 0.0000 0.0000 0.0000 22.1675 0.0000 0.0001
# 5 -0.0001 0.0001 0.0000 0.0000 22.1675 0.0000
# 6 0.0000 0.0000 0.0000 0.0001 0.0000 15.1952
#
#
#
# Elastic Compliance Matrix: (Units=1/GPa)
#
#
# Indices 1 2 3 4 5 6 
#
# 1 0.025421 -0.007484 -0.008786 0.000000 0.000000 0.000000
# 2 -0.007484 0.025421 -0.008786 0.000000 0.000000 0.000000
# 3 -0.008786 -0.008786 0.020804 0.000000 0.000000 0.000000
# 4 0.000000 0.000000 0.000000 0.045111 0.000000 0.000000
# 5 0.000000 0.000000 0.000000 0.000000 0.045111 0.000000
# 6 0.000000 0.000000 0.000000 0.000000 0.000000 0.065810
#
#
# Mechanical properties :
#
#
# Convention : Reuss Voigt Hill
#
# Bulk Modulus (GPa) = 46.44361 48.09624 47.26992
# Shear Modulus (GPa) = 17.54568 18.22599 17.88584
#
# Velocity S-wave (km/s) = 3.26053 3.32314 3.29198
# Velocity P-wave (km/s) = 6.50501 6.62315 6.56435
#
# Compressibility (1/GPa) = 0.02153149
#
# Stress axis : x y z
#
# Youngs Moduli (GPa) = 39.33786 39.33786 48.06665
#
# Poissons Ratio (x) = 0.29442 0.42234
# Poissons Ratio (y) = 0.29442 0.42234
# Poissons Ratio (z) = 0.34564 0.34564
#
# Static dielectric constant tensor:
#      x y z
#    x 1.595790 0.000000 0.000000 
#    y 0.000000 1.595790 0.000000 
#    z 0.000000 0.000000 1.561340 
# 
# From -- ./inp_files/1017.got.cif
#   From: 2010.05.17/outbox.cif.g08.bks.cpg/sg187_1_cif.got.tgz:1017.got - 2010.05.20 12:09:04.
