data_PCOD9585790
_publ_section_title
;
Structure prediction by ZEFSAII (Michael W. Deem and Ramdas Pophale) SiO2 
 PCOD9585790
Probable space group: P -6 M 2
;
_chemical_formula_sum "Si O2"
_cell_formula_units_Z 78
_cell_length_a 24.458305
_cell_length_b 24.458305
_cell_length_c 7.332140
_cell_angle_alpha 90.000000
_cell_angle_beta 90.000000
_cell_angle_gamma 120.000000
_cell_volume 3798.517166
_symmetry_space_group_name_H-M "P -6 M 2"
_symmetry_group_IT_number 187
_symmetry_cell_setting 'hexagonal'
loop_
_space_group_symop_operation_xyz
x,y,z
-x+y,-x,-z
-y,x-y,z
x,y,-z
-x+y,-x,z
-y,x-y,-z
-y,-x,-z
-x+y,y,-z
x,x-y,-z
-x+y,y,z
x,x-y,z
-y,-x,z
loop_
_atom_site_type_symbol
_atom_site_label
_atom_site_fract_x
_atom_site_fract_y
_atom_site_fract_z
Si Si1 0.599971 0.738687 0.722210
Si Si2 0.666496 0.202797 0.000000
Si Si3 0.483129 0.390156 0.717647
Si Si4 0.454901 0.789053 0.278270
Si Si5 0.875589 0.999157 0.780452
Si Si6 0.805065 0.732492 0.285619
Si Si7 0.664451 0.659531 0.277447
O O1 0.601276 0.739775 0.500000
O O2 0.620024 0.810012 0.779741
O O3 0.527077 0.693847 0.778055
O O4 0.639402 0.706057 0.783205
O O5 0.654520 0.157110 0.826940
O O6 0.733894 0.266107 0.000000
O O7 0.609144 0.218288 0.000000
O O8 0.482638 0.379730 0.500000
O O9 0.538385 0.461616 0.756079
O O10 0.413920 0.376724 0.772161
O O11 0.455327 0.790816 0.500000
O O12 0.403281 0.806562 0.215415
O O13 0.435682 0.717841 0.226609
O O14 0.864142 0.932071 0.714819
O O15 0.823912 0.018389 0.730570
O O16 0.877857 0.998629 0.000000
O O17 0.943310 0.056691 0.717903
O O18 0.802210 0.718658 0.500000
O O19 0.863537 0.727073 0.207836
O O20 0.735936 0.686843 0.212179
O O21 0.664628 0.661452 0.500000
#
# Coordination Sequence:
#
# PCOD9585790 Si02
#       7
#    12   6  12  12  12  12  12
#     4   8  14  23  35  56  86 120 164 214 259 310
#     4  10  21  38  60  88 119 150 182 220 268 324
#     4   9  19  36  57  83 115 148 185 228 270 319
#     4   8  12  17  26  43  71 108 149 193 239 286
#     4   9  17  30  47  66  89 119 155 198 248 302
#     4   9  18  31  45  64  91 120 153 196 243 292
#     4   9  17  30  48  69  96 132 170 211 261 312
#
# _framework density 20.534327000000001
#
# number of rings (size 3 to 8) (size 9 to 14) (size 15 to 20)
#    0.000    3.231    0.000    1.308    0.000    3.692 
#    1.385    6.154    0.000    1.846    0.000    0.000 
#    0.000    0.000    0.000    0.000    0.000    0.000 
#
# Total GULP energy -435075.436209 kJ/mol
# GULP energy per Si atom -5577.890208 kJ/mol
# Density = 2.048759 g / cm^3
# Si number density = 20.534327 Si / 1000 Ang^3
#
#
#
# Elastic Constant Matrix: (Units=GPa)
#
#
# Indices 1 2 3 4 5 6 
#
# 1 142.1178 99.6000 17.8569 0.0000 -0.0008 0.0000
# 2 99.6000 142.1178 17.8569 0.0000 0.0008 0.0000
# 3 17.8569 17.8569 82.1708 0.0000 0.0000 0.0000
# 4 0.0000 0.0000 0.0000 -3.5675 0.0000 0.0008
# 5 -0.0008 0.0008 0.0000 0.0000 -3.5675 0.0000
# 6 0.0000 0.0000 0.0000 0.0008 0.0000 21.2589
#
#
#
# Elastic Compliance Matrix: (Units=1/GPa)
#
#
# Indices 1 2 3 4 5 6 
#
# 1 0.013897 -0.009623 -0.000929 0.000000 -0.000005 0.000000
# 2 -0.009623 0.013897 -0.000929 0.000000 0.000005 0.000000
# 3 -0.000929 -0.000929 0.012573 0.000000 0.000000 0.000000
# 4 0.000000 0.000000 0.000000 -0.280307 0.000000 0.000010
# 5 -0.000005 0.000005 0.000000 0.000000 -0.280307 0.000000
# 6 0.000000 0.000000 0.000000 0.000010 0.000000 0.047039
#
#
# Mechanical properties :
#
#
# Convention : Reuss Voigt Hill
#
# Bulk Modulus (GPa) = 57.44941 70.78153 64.11547
# Shear Modulus (GPa) = -11.25000 18.23095 3.49048
#
# Velocity S-wave (km/s) = -2.34319 2.98288 1.30519
# Velocity P-wave (km/s) = 4.55163 6.81235 5.79333
#
# Compressibility (1/GPa) = 0.01740662
#
# Stress axis : x y z
#
# Youngs Moduli (GPa) = 71.95841 71.95841 79.53241
#
# Poissons Ratio (x) = 0.69243 0.07387
# Poissons Ratio (y) = 0.69243 0.07387
# Poissons Ratio (z) = 0.06684 0.06684
#
# Static dielectric constant tensor:
#      x y z
#    x 1.706220 0.000000 0.000000 
#    y 0.000000 1.706220 0.000000 
#    z 0.000000 0.000000 1.802320 
# 
# From -- ./inp_files/1145.got.cif
#   From: 2010.05.17/outbox.cif.g08.bks.cpg/sg187_1_cif.got.tgz:1145.got - 2010.05.20 12:09:04.
