data_PCOD9585246
_publ_section_title
;
Structure prediction by ZEFSAII (Michael W. Deem and Ramdas Pophale) SiO2 
 PCOD9585246
Probable space group: P 63 C M
;
_chemical_formula_sum "Si O2"
_cell_formula_units_Z 58
_cell_length_a 13.953247
_cell_length_b 13.953247
_cell_length_c 18.188276
_cell_angle_alpha 90.000000
_cell_angle_beta 90.000000
_cell_angle_gamma 120.000000
_cell_volume 3066.710159
_symmetry_space_group_name_H-M "P 63 C M"
_symmetry_group_IT_number 185
_symmetry_cell_setting 'hexagonal'
loop_
_space_group_symop_operation_xyz
x,y,z
x-y,x,1/2+z
-y,x-y,z
-x,-y,1/2+z
-x+y,-x,z
y,-x+y,1/2+z
-x+y,y,1/2+z
x,x-y,1/2+z
-y,-x,1/2+z
y,x,z
x-y,-y,z
-x,-x+y,z
loop_
_atom_site_type_symbol
_atom_site_label
_atom_site_fract_x
_atom_site_fract_y
_atom_site_fract_z
Si Si1 0.195737 0.392813 0.106750
Si Si2 0.000000 0.000000 0.266331
Si Si3 0.780221 0.780221 0.003069
Si Si4 0.000000 0.000000 0.948129
Si Si5 0.000000 0.653313 0.359748
Si Si6 0.205710 0.646957 0.312237
Si Si7 0.000000 0.778720 0.212735
Si Si8 0.424136 0.871627 0.648898
O O1 0.110246 0.306857 0.047583
O O2 0.198032 0.308387 0.167827
O O3 0.325727 0.481325 0.090854
O O4 0.153505 0.478534 0.128466
O O5 0.108800 0.108800 0.234292
O O6 0.000000 0.000000 0.357195
O O7 0.720018 0.720018 0.929125
O O8 0.892030 0.892030 0.980784
O O9 0.105215 0.638143 0.355422
O O10 0.000000 0.718615 0.287371
O O11 0.238347 0.554422 0.330091
O O12 0.187817 0.636714 0.224530
O O13 0.482665 0.000000 0.665784
#
# Coordination Sequence:
#
# PCOD9585246 Si02
#       8
#    12   2   6   2   6  12   6  12
#     4  12  23  44  69 103 139 178 232 278 350 410
#     4  12  27  43  71 106 129 169 236 295 345 397
#     4  12  29  46  70  96 138 184 224 290 351 410
#     4  12  27  55  68  85 138 187 230 280 354 400
#     4  12  22  45  64  98 141 172 223 287 343 412
#     4  10  19  37  65  99 131 178 221 277 335 393
#     4  12  23  45  75 101 128 176 235 292 329 419
#     4  12  20  36  67 102 136 171 227 287 330 403
#
# _framework density 18.912776000000001
#
# number of rings (size 3 to 8) (size 9 to 14) (size 15 to 20)
#    0.414    0.000    8.276    1.655    0.000    0.828 
#    3.724    1.034    0.000    0.000    0.000    0.000 
#    0.000    0.000    0.000    0.000    0.000    0.000 
#
# Total GULP energy -323192.823080 kJ/mol
# GULP energy per Si atom -5572.290053 kJ/mol
# Density = 1.886973 g / cm^3
# Si number density = 18.912776 Si / 1000 Ang^3
#
#
#
# Elastic Constant Matrix: (Units=GPa)
#
#
# Indices 1 2 3 4 5 6 
#
# 1 175.0642 91.4489 62.9081 0.0000 0.0000 0.0000
# 2 91.4489 175.0642 62.9081 0.0000 0.0000 0.0000
# 3 62.9081 62.9081 98.4628 0.0000 0.0000 0.0000
# 4 0.0000 0.0000 0.0000 6.3295 0.0000 0.0000
# 5 0.0000 0.0000 0.0000 0.0000 6.3295 0.0000
# 6 0.0000 0.0000 0.0000 0.0000 0.0000 41.8076
#
#
#
# Elastic Compliance Matrix: (Units=1/GPa)
#
#
# Indices 1 2 3 4 5 6 
#
# 1 0.008666 -0.003293 -0.003433 0.000000 0.000000 0.000000
# 2 -0.003293 0.008666 -0.003433 0.000000 0.000000 0.000000
# 3 -0.003433 -0.003433 0.014542 0.000000 0.000000 0.000000
# 4 0.000000 0.000000 0.000000 0.157990 0.000000 0.000000
# 5 0.000000 0.000000 0.000000 0.000000 0.157990 0.000000
# 6 0.000000 0.000000 0.000000 0.000000 0.000000 0.023919
#
#
# Mechanical properties :
#
#
# Convention : Reuss Voigt Hill
#
# Bulk Modulus (GPa) = 86.52608 98.12459 92.32533
# Shear Modulus (GPa) = 12.62806 26.31507 19.47156
#
# Velocity S-wave (km/s) = 2.58679 3.73418 3.21213
# Velocity P-wave (km/s) = 7.40077 8.40164 7.91703
#
# Compressibility (1/GPa) = 0.01155721
#
# Stress axis : x y z
#
# Youngs Moduli (GPa) = 115.39245 115.39245 68.76503
#
# Poissons Ratio (x) = 0.38004 0.23604
# Poissons Ratio (y) = 0.38004 0.23604
# Poissons Ratio (z) = 0.39609 0.39609
#
# Static dielectric constant tensor:
#      x y z
#    x 1.677030 0.000000 0.000000 
#    y 0.000000 1.677030 0.000000 
#    z 0.000000 0.000000 1.656620 
# 
# From -- ./inp_files/1366.got.cif
#   From: 2010.05.17/outbox.cif.g08.bks.cpg/sg185_cif.got.tgz:1366.got - 2010.05.20 12:05:34.
