data_PCOD9585171
_publ_section_title
;
Structure prediction by ZEFSAII (Michael W. Deem and Ramdas Pophale) SiO2 
 PCOD9585171
Probable space group: P 6 C C
;
_chemical_formula_sum "Si O2"
_cell_formula_units_Z 78
_cell_length_a 24.171305
_cell_length_b 24.171305
_cell_length_c 8.186297
_cell_angle_alpha 90.000000
_cell_angle_beta 90.000000
_cell_angle_gamma 120.000000
_cell_volume 4142.078501
_symmetry_space_group_name_H-M "P 6 C C"
_symmetry_group_IT_number 184
_symmetry_cell_setting 'hexagonal'
loop_
_space_group_symop_operation_xyz
x,y,z
x-y,x,z
-y,x-y,z
-x,-y,z
-x+y,-x,z
y,-x+y,z
-x+y,y,1/2+z
x,x-y,1/2+z
-y,-x,1/2+z
y,x,1/2+z
x-y,-y,1/2+z
-x,-x+y,1/2+z
loop_
_atom_site_type_symbol
_atom_site_label
_atom_site_fract_x
_atom_site_fract_y
_atom_site_fract_z
Si Si1 0.852312 0.891902 0.528430
Si Si2 0.222526 0.877598 0.115131
Si Si3 0.500000 0.500000 0.172969
Si Si4 0.219905 0.024158 0.742974
Si Si5 0.698005 0.658444 0.321781
Si Si6 0.124802 0.738335 0.992130
Si Si7 0.057857 0.607787 0.909753
O O1 0.912107 0.878964 0.536393
O O2 0.805782 0.840884 0.660681
O O3 0.811526 0.862656 0.366340
O O4 0.187549 0.920155 0.119588
O O5 0.180652 0.804085 0.065182
O O6 0.241853 0.880565 0.305176
O O7 0.276874 0.912105 0.976137
O O8 0.502400 0.557242 0.278626
O O9 0.436681 0.466359 0.066349
O O10 0.262088 0.997557 0.825795
O O11 0.714533 0.642267 0.141453
O O12 0.622772 0.631837 0.348770
O O13 0.123119 0.671716 0.954462
#
# Coordination Sequence:
#
# PCOD9585171 Si02
#       7
#    12  12   6  12  12  12  12
#     4  12  28  44  60  74 101 143 207 290 359 422
#     4  12  25  39  61  91 126 165 210 266 327 413
#     4  10  22  36  66  90 124 168 234 244 294 376
#     4  12  25  40  63  85 107 149 207 271 341 420
#     4  12  23  41  63  91 130 165 211 259 328 390
#     4  12  24  38  61  90 132 169 211 253 334 379
#     4  11  21  41  60  94 126 177 212 264 302 378
#
# _framework density 18.831126000000001
#
# number of rings (size 3 to 8) (size 9 to 14) (size 15 to 20)
#    0.000    0.308    6.154    3.846    6.462    0.000 
#    0.000    1.538    0.000    0.000    0.000    0.000 
#    0.000    0.000    0.000  102.462    0.000    0.000 
#
# Total GULP energy -434545.306885 kJ/mol
# GULP energy per Si atom -5571.093678 kJ/mol
# Density = 1.878827 g / cm^3
# Si number density = 18.831126 Si / 1000 Ang^3
#
#
#
# Elastic Constant Matrix: (Units=GPa)
#
#
# Indices 1 2 3 4 5 6 
#
# 1 83.6858 39.9104 30.1341 0.0000 0.0000 0.0000
# 2 39.9104 83.6858 30.1341 0.0000 0.0000 0.0000
# 3 30.1341 30.1341 121.6871 0.0000 0.0000 0.0000
# 4 0.0000 0.0000 0.0000 28.9994 0.0000 0.0000
# 5 0.0000 0.0000 0.0000 0.0000 28.9994 0.0000
# 6 0.0000 0.0000 0.0000 0.0000 0.0000 21.8877
#
#
#
# Elastic Compliance Matrix: (Units=1/GPa)
#
#
# Indices 1 2 3 4 5 6 
#
# 1 0.016023 -0.006821 -0.002279 0.000000 0.000000 0.000000
# 2 -0.006821 0.016023 -0.002279 0.000000 0.000000 0.000000
# 3 -0.002279 -0.002279 0.009346 0.000000 0.000000 0.000000
# 4 0.000000 0.000000 0.000000 0.034483 0.000000 0.000000
# 5 0.000000 0.000000 0.000000 0.000000 0.034483 0.000000
# 6 0.000000 0.000000 0.000000 0.000000 0.000000 0.045688
#
#
# Mechanical properties :
#
#
# Convention : Reuss Voigt Hill
#
# Bulk Modulus (GPa) = 53.66115 54.37953 54.02034
# Shear Modulus (GPa) = 27.02473 28.56930 27.79701
#
# Velocity S-wave (km/s) = 3.79239 3.89926 3.84620
# Velocity P-wave (km/s) = 6.90899 7.01516 6.96228
#
# Compressibility (1/GPa) = 0.01863546
#
# Stress axis : x y z
#
# Youngs Moduli (GPa) = 62.41045 62.41045 106.99305
#
# Poissons Ratio (x) = 0.42570 0.24381
# Poissons Ratio (y) = 0.42570 0.24381
# Poissons Ratio (z) = 0.14222 0.14222
#
# Static dielectric constant tensor:
#      x y z
#    x 1.679690 0.000000 0.000000 
#    y 0.000000 1.679690 0.000000 
#    z 0.000000 0.000000 1.820070 
# 
# From -- ./inp_files/387.got.cif
#   From: 2010.05.17/outbox.cif.g08.bks.cpg/sg184_cif.got.tgz:387.got - 2010.05.20 12:04:40.
