data_PCOD9585809
_publ_section_title
;
Structure prediction by ZEFSAII (Michael W. Deem and Ramdas Pophale) SiO2 
 PCOD9585809
Probable space group: P -6 M 2
;
_chemical_formula_sum "Si O2"
_cell_formula_units_Z 36
_cell_length_a 16.524995
_cell_length_b 16.524995
_cell_length_c 7.422829
_cell_angle_alpha 90.000000
_cell_angle_beta 90.000000
_cell_angle_gamma 120.000000
_cell_volume 1755.426948
_symmetry_space_group_name_H-M "P -6 M 2"
_symmetry_group_IT_number 187
_symmetry_cell_setting 'hexagonal'
loop_
_space_group_symop_operation_xyz
x,y,z
-x+y,-x,-z
-y,x-y,z
x,y,-z
-x+y,-x,z
-y,x-y,-z
-y,-x,-z
-x+y,y,-z
x,x-y,-z
-x+y,y,z
x,x-y,z
-y,-x,z
loop_
_atom_site_type_symbol
_atom_site_label
_atom_site_fract_x
_atom_site_fract_y
_atom_site_fract_z
Si Si1 0.774581 0.729727 0.210127
Si Si2 0.848530 0.334609 0.717627
Si Si3 0.274303 0.548606 0.218200
Si Si4 0.166916 0.833085 0.221876
O O1 0.873237 0.746474 0.287810
O O2 0.703247 0.619059 0.220962
O O3 0.723241 0.782822 0.283422
O O4 0.792184 0.755664 0.000000
O O5 0.850879 0.335923 0.500000
O O6 0.872319 0.436160 0.781147
O O7 0.743855 0.256146 0.771441
O O8 0.383935 0.616066 0.269845
O O9 0.221171 0.442342 0.281773
O O10 0.272253 0.544505 0.000000
O O11 0.168298 0.831703 0.000000
#
# Coordination Sequence:
#
# PCOD9585809 Si02
#       4
#    12  12   6   6
#     4   9  18  31  45  66  94 120 154 198 237 276
#     4   9  17  30  48  69  94 124 155 186 224 277
#     4   7  12  22  36  57  83 109 143 183 218 263
#     4   9  16  28  45  63  89 123 153 187 236 283
#
# _framework density 20.507832000000001
#
# number of rings (size 3 to 8) (size 9 to 14) (size 15 to 20)
#    0.333    3.000    0.000    0.333    0.000    3.333 
#    1.000    4.167    0.000    2.000    0.000    0.000 
#    0.000    0.000    0.000    0.000    0.000    0.000 
#
# Total GULP energy -200534.717841 kJ/mol
# GULP energy per Si atom -5570.408829 kJ/mol
# Density = 2.046116 g / cm^3
# Si number density = 20.507832 Si / 1000 Ang^3
#
#
#
# Elastic Constant Matrix: (Units=GPa)
#
#
# Indices 1 2 3 4 5 6 
#
# 1 156.7365 130.9091 3.1308 0.0000 0.0006 0.0000
# 2 130.9091 156.7365 3.1308 0.0000 -0.0006 0.0000
# 3 3.1308 3.1308 63.5553 0.0000 0.0000 0.0000
# 4 0.0000 0.0000 0.0000 0.3004 0.0000 -0.0006
# 5 0.0006 -0.0006 0.0000 0.0000 0.3004 0.0000
# 6 0.0000 0.0000 0.0000 -0.0006 0.0000 12.9137
#
#
#
# Elastic Compliance Matrix: (Units=1/GPa)
#
#
# Indices 1 2 3 4 5 6 
#
# 1 0.021099 -0.017619 -0.000171 0.000000 -0.000079 0.000000
# 2 -0.017619 0.021099 -0.000171 0.000000 0.000079 0.000000
# 3 -0.000171 -0.000171 0.015751 0.000000 0.000000 0.000000
# 4 0.000000 0.000000 0.000000 3.328343 0.000000 0.000158
# 5 -0.000079 0.000079 0.000000 0.000000 3.328343 0.000000
# 6 0.000000 0.000000 0.000000 0.000158 0.000000 0.077437
#
#
# Mechanical properties :
#
#
# Convention : Reuss Voigt Hill
#
# Bulk Modulus (GPa) = 45.40107 72.37443 58.88775
# Shear Modulus (GPa) = 0.73149 18.69343 9.71246
#
# Velocity S-wave (km/s) = 0.59788 3.02242 2.17859
# Velocity P-wave (km/s) = 4.76058 6.89549 5.92498
#
# Compressibility (1/GPa) = 0.02202591
#
# Stress axis : x y z
#
# Youngs Moduli (GPa) = 47.39472 47.39472 63.48718
#
# Poissons Ratio (x) = 0.83506 0.01088
# Poissons Ratio (y) = 0.83506 0.01088
# Poissons Ratio (z) = 0.00813 0.00813
#
# Static dielectric constant tensor:
#      x y z
#    x 1.710560 0.000000 0.000000 
#    y 0.000000 1.710560 0.000000 
#    z 0.000000 0.000000 1.786790 
# 
# From -- ./inp_files/268.got.cif
#   From: 2010.05.17/outbox.cif.g08.bks.cpg/sg187_1_cif.got.tgz:268.got - 2010.05.20 12:09:04.
