data_PCOD9585446
_publ_section_title
;
Structure prediction by ZEFSAII (Michael W. Deem and Ramdas Pophale) SiO2 
 PCOD9585446
Probable space group: P -6 M 2
;
_chemical_formula_sum "Si O2"
_cell_formula_units_Z 84
_cell_length_a 19.287734
_cell_length_b 19.287734
_cell_length_c 14.546963
_cell_angle_alpha 90.000000
_cell_angle_beta 90.000000
_cell_angle_gamma 120.000000
_cell_volume 4686.680867
_symmetry_space_group_name_H-M "P -6 M 2"
_symmetry_group_IT_number 187
_symmetry_cell_setting 'hexagonal'
loop_
_space_group_symop_operation_xyz
x,y,z
-x+y,-x,-z
-y,x-y,z
x,y,-z
-x+y,-x,z
-y,x-y,-z
-y,-x,-z
-x+y,y,-z
x,x-y,-z
-x+y,y,z
x,x-y,z
-y,-x,z
loop_
_atom_site_type_symbol
_atom_site_label
_atom_site_fract_x
_atom_site_fract_y
_atom_site_fract_z
Si Si1 0.756222 0.672760 0.109267
Si Si2 0.762562 0.960323 0.602532
Si Si3 0.377535 0.992506 0.601204
Si Si4 0.586299 0.010426 0.812041
Si Si5 0.332407 0.517240 0.373526
Si Si6 0.491803 0.825110 0.847012
Si Si7 0.839300 0.000132 0.795639
O O1 0.829308 0.658616 0.136612
O O2 0.670636 0.602653 0.141376
O O3 0.776336 0.756893 0.155314
O O4 0.757730 0.681192 0.000000
O O5 0.797852 0.984568 0.500000
O O6 0.729896 0.864948 0.610269
O O7 0.692273 0.981342 0.610503
O O8 0.823169 0.998938 0.686475
O O9 0.410783 0.031882 0.500000
O O10 0.418678 0.020658 0.701143
O O11 0.366117 0.904609 0.595762
O O12 0.511963 0.023926 0.831832
O O13 0.557643 0.919932 0.851008
O O14 0.243293 0.486585 0.404003
O O15 0.392440 0.607561 0.401117
O O16 0.331906 0.516695 0.263091
O O17 0.406804 0.813608 0.882396
O O18 0.508277 0.754139 0.880496
O O19 0.927540 0.072461 0.818179
O O20 0.829813 0.914907 0.820643
#
# Coordination Sequence:
#
# PCOD9585446 Si02
#       7
#    12  12  12  12  12  12  12
#     4  10  22  41  62  82 106 137 172 217 281 347
#     4   9  17  29  47  72 104 146 191 229 266 312
#     4  10  18  29  45  69 102 141 180 220 261 307
#     4  10  20  34  54  83 111 140 181 225 269 318
#     4   9  16  24  34  51  82 128 180 228 269 305
#     4   8  14  24  41  67 102 143 184 221 255 290
#     4  10  20  35  56  82 112 145 183 228 276 329
#
# _framework density 17.923131999999999
#
# number of rings (size 3 to 8) (size 9 to 14) (size 15 to 20)
#    0.000    2.571    1.429    2.143    0.000    5.143 
#    0.000    0.000    0.000    3.286    0.000    0.000 
#    0.000    1.143    0.000    0.000    0.000    0.000 
#
# Total GULP energy -467631.851925 kJ/mol
# GULP energy per Si atom -5567.045856 kJ/mol
# Density = 1.788234 g / cm^3
# Si number density = 17.923132 Si / 1000 Ang^3
#
#
#
# Elastic Constant Matrix: (Units=GPa)
#
#
# Indices 1 2 3 4 5 6 
#
# 1 64.3044 38.0932 21.9724 0.0000 -0.0013 0.0000
# 2 38.0932 64.3044 21.9724 0.0000 0.0013 0.0000
# 3 21.9724 21.9724 49.9398 0.0000 0.0000 0.0000
# 4 0.0000 0.0000 0.0000 29.6053 0.0000 0.0013
# 5 -0.0013 0.0013 0.0000 0.0000 29.6053 0.0000
# 6 0.0000 0.0000 0.0000 0.0013 0.0000 13.1056
#
#
#
# Elastic Compliance Matrix: (Units=1/GPa)
#
#
# Indices 1 2 3 4 5 6 
#
# 1 0.025095 -0.013056 -0.005297 0.000000 0.000002 0.000000
# 2 -0.013056 0.025095 -0.005297 0.000000 -0.000002 0.000000
# 3 -0.005297 -0.005297 0.024685 0.000000 0.000000 0.000000
# 4 0.000000 0.000000 0.000000 0.033778 0.000000 -0.000003
# 5 0.000002 -0.000002 0.000000 0.000000 0.033778 0.000000
# 6 0.000000 0.000000 0.000000 -0.000003 0.000000 0.076303
#
#
# Mechanical properties :
#
#
# Convention : Reuss Voigt Hill
#
# Bulk Modulus (GPa) = 36.26391 38.06940 37.16665
# Shear Modulus (GPa) = 18.16684 20.89728 19.53206
#
# Velocity S-wave (km/s) = 3.18716 3.41829 3.30474
# Velocity P-wave (km/s) = 5.81558 6.07174 5.94504
#
# Compressibility (1/GPa) = 0.02757562
#
# Stress axis : x y z
#
# Youngs Moduli (GPa) = 39.84803 39.84803 40.51010
#
# Poissons Ratio (x) = 0.52027 0.21458
# Poissons Ratio (y) = 0.52027 0.21458
# Poissons Ratio (z) = 0.21107 0.21107
#
# Static dielectric constant tensor:
#      x y z
#    x 1.615090 0.000000 0.000000 
#    y 0.000000 1.615090 0.000000 
#    z 0.000000 0.000000 1.666970 
# 
# From -- ./inp_files/2623.got.cif
#   From: 2010.05.17/outbox.cif.g08.bks.cpg/sg187_2_cif.got.tgz:2623.got - 2010.05.20 12:09:04.
