data_PCOD9585972
_publ_section_title
;
Structure prediction by ZEFSAII (Michael W. Deem and Ramdas Pophale) SiO2 
 PCOD9585972
Probable space group: P -6 C 2
;
_chemical_formula_sum "Si O2"
_cell_formula_units_Z 64
_cell_length_a 15.033636
_cell_length_b 15.033636
_cell_length_c 16.381560
_cell_angle_alpha 90.000000
_cell_angle_beta 90.000000
_cell_angle_gamma 120.000000
_cell_volume 3206.372315
_symmetry_space_group_name_H-M "P -6 C 2"
_symmetry_group_IT_number 188
_symmetry_cell_setting 'hexagonal'
loop_
_space_group_symop_operation_xyz
x,y,z
-x+y,-x,1/2-z
-y,x-y,z
x,y,1/2-z
-x+y,-x,z
-y,x-y,1/2-z
-y,-x,-z
-x+y,y,-z
x,x-y,-z
-x+y,y,1/2+z
x,x-y,1/2+z
-y,-x,1/2+z
loop_
_atom_site_type_symbol
_atom_site_label
_atom_site_fract_x
_atom_site_fract_y
_atom_site_fract_z
Si Si1 0.666667 0.333335 0.899610
Si Si2 0.390783 0.796447 0.097757
Si Si3 0.602449 0.621040 0.153247
Si Si4 0.075815 0.230451 0.349688
Si Si5 0.847538 0.777470 0.652471
Si Si6 0.761223 0.201859 0.904317
O O1 0.738839 0.289050 0.872322
O O2 0.666668 0.333334 0.000000
O O3 0.271222 0.714755 0.121164
O O4 0.422657 0.905906 0.134222
O O5 0.403011 0.806022 0.000000
O O6 0.616566 0.617698 0.250000
O O7 0.667309 0.740917 0.126043
O O8 0.659496 0.567343 0.111357
O O9 0.077795 0.231247 0.250000
O O10 0.167570 0.213583 0.379784
O O11 0.966177 0.134026 0.375748
O O12 0.852125 0.789044 0.750000
O O13 0.799778 0.657962 0.633711
O O14 0.781878 0.218123 0.000000
#
# Coordination Sequence:
#
# PCOD9585972 Si02
#       6
#     4  12  12  12  12  12
#     4   9  21  42  61  74 100 147 196 239 301 357
#     4   8  18  38  57  83 118 155 195 242 304 370
#     4  10  20  37  59  86 119 154 197 251 298 360
#     4   8  15  28  51  78 109 145 183 228 283 344
#     4   9  16  32  53  80 112 147 188 231 286 353
#     4  10  21  39  57  81 109 150 198 250 305 359
#
# _framework density 19.960253000000002
#
# number of rings (size 3 to 8) (size 9 to 14) (size 15 to 20)
#    0.375    2.625    0.000    2.062    0.000    4.500 
#   10.125    6.562    0.000    0.000    0.000    0.000 
#    0.000    0.000    0.000    0.000    0.000    0.000 
#
# Total GULP energy -356430.467589 kJ/mol
# GULP energy per Si atom -5569.226056 kJ/mol
# Density = 1.991482 g / cm^3
# Si number density = 19.960253 Si / 1000 Ang^3
#
#
#
# Elastic Constant Matrix: (Units=GPa)
#
#
# Indices 1 2 3 4 5 6 
#
# 1 45.9381 55.1138 13.0052 -0.0005 0.0010 0.0049
# 2 55.1138 45.9245 13.0054 0.0005 -0.0009 -0.0084
# 3 13.0052 13.0054 20.6015 0.0000 0.0000 0.0001
# 4 -0.0005 0.0005 0.0000 21.4828 0.0000 0.0010
# 5 0.0010 -0.0009 0.0000 0.0000 21.4828 -0.0013
# 6 0.0049 -0.0084 0.0001 0.0010 -0.0013 -4.6427
#
#
#
# Elastic Compliance Matrix: (Units=1/GPa)
#
#
# Indices 1 2 3 4 5 6 
#
# 1 -0.048534 0.060360 -0.007466 -0.000003 0.000005 -0.000160
# 2 0.060360 -0.048552 -0.007454 0.000003 -0.000005 0.000151
# 3 -0.007466 -0.007454 0.057958 0.000000 0.000000 0.000007
# 4 -0.000003 0.000003 0.000000 0.046549 0.000000 0.000010
# 5 0.000005 -0.000005 0.000000 0.000000 0.046549 -0.000013
# 6 -0.000160 0.000151 0.000007 0.000010 -0.000013 -0.215391
#
#
# Mechanical properties :
#
#
# Convention : Reuss Voigt Hill
#
# Bulk Modulus (GPa) = 19.32244 30.52363 24.92304
# Shear Modulus (GPa) = -21.27185 9.75391 -5.75897
#
# Velocity S-wave (km/s) = -3.26806 2.21298 -1.70044
# Velocity P-wave (km/s) = 2.13046 4.67494 2.94247
#
# Compressibility (1/GPa) = 0.05175330
#
# Stress axis : x y z
#
# Youngs Moduli (GPa) = -20.60395 -20.59637 17.25375
#
# Poissons Ratio (x) = 1.24320 0.12881
# Poissons Ratio (y) = 1.24366 0.12860
# Poissons Ratio (z) = -0.15383 -0.15352
#
# Static dielectric constant tensor:
#      x y z
#    x 1.755360 -0.000010 0.000000 
#    y -0.000010 1.755290 0.000000 
#    z 0.000000 0.000000 1.701190 
# 
# From -- ./inp_files/3093.got.cif
#   From: 2010.05.17/outbox.cif.g08.bks.cpg/sg188_2_cif.got.tgz:3093.got - 2010.05.20 12:11:46.
