data_PCOD9585975
_publ_section_title
;
Structure prediction by ZEFSAII (Michael W. Deem and Ramdas Pophale) SiO2 
 PCOD9585975
Probable space group: P -6 C 2
;
_chemical_formula_sum "Si O2"
_cell_formula_units_Z 58
_cell_length_a 14.457420
_cell_length_b 14.457420
_cell_length_c 15.918161
_cell_angle_alpha 90.000000
_cell_angle_beta 90.000000
_cell_angle_gamma 120.000000
_cell_volume 2881.410406
_symmetry_space_group_name_H-M "P -6 C 2"
_symmetry_group_IT_number 188
_symmetry_cell_setting 'hexagonal'
loop_
_space_group_symop_operation_xyz
x,y,z
-x+y,-x,1/2-z
-y,x-y,z
x,y,1/2-z
-x+y,-x,z
-y,x-y,1/2-z
-y,-x,-z
-x+y,y,-z
x,x-y,-z
-x+y,y,1/2+z
x,x-y,1/2+z
-y,-x,1/2+z
loop_
_atom_site_type_symbol
_atom_site_label
_atom_site_fract_x
_atom_site_fract_y
_atom_site_fract_z
Si Si1 0.595985 0.191970 0.500000
Si Si2 0.854443 0.103503 0.653785
Si Si3 0.263614 0.434142 0.850136
Si Si4 0.788373 0.875465 0.593228
Si Si5 0.931023 0.555813 0.850770
Si Si6 0.333335 0.666668 0.147426
O O1 0.723871 0.276130 0.500000
O O2 0.579386 0.122350 0.584229
O O3 0.864678 0.134743 0.750000
O O4 0.747292 0.102210 0.624329
O O5 0.967194 0.180423 0.612632
O O6 0.837689 0.983922 0.647691
O O7 0.239060 0.418574 0.750000
O O8 0.167690 0.336806 0.897318
O O9 0.374690 0.434011 0.859715
O O10 0.278075 0.545199 0.879132
O O11 0.826577 0.913289 0.500000
O O12 0.907397 0.529149 0.750000
O O13 0.333334 0.666668 0.250000
#
# Coordination Sequence:
#
# PCOD9585975 Si02
#       6
#     6  12  12  12  12   4
#     4  10  24  42  62  90 116 160 198 262 320 374
#     4  10  20  37  61  87 122 165 212 255 300 367
#     4   9  19  39  62  86 119 162 206 252 299 358
#     4  11  21  34  55  91 128 166 195 251 306 369
#     4   9  20  41  65  89 122 163 208 263 316 372
#     4   9  18  39  64  86 115 153 208 254 292 355
#
# _framework density 20.129031999999999
#
# number of rings (size 3 to 8) (size 9 to 14) (size 15 to 20)
#    0.207    2.069    0.000    4.138    0.000    4.138 
#   11.172    0.000    0.000    0.000    0.000    0.000 
#    0.000    0.000    0.000    0.000    0.000    0.000 
#
# Total GULP energy -323242.813125 kJ/mol
# GULP energy per Si atom -5573.151950 kJ/mol
# Density = 2.008322 g / cm^3
# Si number density = 20.129032 Si / 1000 Ang^3
#
#
#
# Elastic Constant Matrix: (Units=GPa)
#
#
# Indices 1 2 3 4 5 6 
#
# 1 39.8730 31.4359 14.0728 0.0000 0.0000 0.0007
# 2 31.4359 39.8759 14.0741 -0.0005 -0.0003 0.0008
# 3 14.0728 14.0741 55.6242 -0.0002 0.0000 0.0006
# 4 0.0000 -0.0005 -0.0002 108.1939 -0.0002 0.0001
# 5 0.0000 -0.0003 0.0000 -0.0002 108.1947 0.0002
# 6 0.0007 0.0008 0.0006 0.0001 0.0002 4.2196
#
#
#
# Elastic Compliance Matrix: (Units=1/GPa)
#
#
# Indices 1 2 3 4 5 6 
#
# 1 0.067044 -0.051463 -0.003941 0.000000 0.000000 -0.000001
# 2 -0.051463 0.067040 -0.003943 0.000000 0.000000 -0.000004
# 3 -0.003941 -0.003943 0.019972 0.000000 0.000000 -0.000001
# 4 0.000000 0.000000 0.000000 0.009243 0.000000 0.000000
# 5 0.000000 0.000000 0.000000 0.000000 0.009243 0.000000
# 6 -0.000001 -0.000004 -0.000001 0.000000 0.000000 0.236992
#
#
# Mechanical properties :
#
#
# Convention : Reuss Voigt Hill
#
# Bulk Modulus (GPa) = 28.27751 28.28208 28.27979
# Shear Modulus (GPa) = 9.25904 49.17431 29.21668
#
# Velocity S-wave (km/s) = 2.14705 4.94799 3.81395
# Velocity P-wave (km/s) = 4.49723 6.83552 5.78573
#
# Compressibility (1/GPa) = 0.03536380
#
# Stress axis : x y z
#
# Youngs Moduli (GPa) = 14.91565 14.91657 50.06923
#
# Poissons Ratio (x) = 0.76764 0.19731
# Poissons Ratio (y) = 0.76760 0.19740
# Poissons Ratio (z) = 0.05878 0.05881
#
# Static dielectric constant tensor:
#      x y z
#    x 1.766600 0.000000 0.000000 
#    y 0.000000 1.766600 0.000000 
#    z 0.000000 0.000000 1.781740 
# 
# From -- ./inp_files/2309.got.cif
#   From: 2010.05.17/outbox.cif.g08.bks.cpg/sg188_2_cif.got.tgz:2309.got - 2010.05.20 12:11:46.
