data_PCOD9585914
_publ_section_title
;
Structure prediction by ZEFSAII (Michael W. Deem and Ramdas Pophale) SiO2 
 PCOD9585914
Probable space group: P -6 C 2
;
_chemical_formula_sum "Si O2"
_cell_formula_units_Z 64
_cell_length_a 14.910250
_cell_length_b 14.910250
_cell_length_c 14.869388
_cell_angle_alpha 90.000000
_cell_angle_beta 90.000000
_cell_angle_gamma 120.000000
_cell_volume 2862.816927
_symmetry_space_group_name_H-M "P -6 C 2"
_symmetry_group_IT_number 188
_symmetry_cell_setting 'hexagonal'
loop_
_space_group_symop_operation_xyz
x,y,z
-x+y,-x,1/2-z
-y,x-y,z
x,y,1/2-z
-x+y,-x,z
-y,x-y,1/2-z
-y,-x,-z
-x+y,y,-z
x,x-y,-z
-x+y,y,1/2+z
x,x-y,1/2+z
-y,-x,1/2+z
loop_
_atom_site_type_symbol
_atom_site_label
_atom_site_fract_x
_atom_site_fract_y
_atom_site_fract_z
Si Si1 0.191701 0.755847 0.400201
Si Si2 0.786846 0.848563 0.646641
Si Si3 0.652319 0.118612 0.860091
Si Si4 0.102191 0.528609 0.146525
Si Si5 0.666667 0.333333 0.359994
Si Si6 0.928632 0.169062 0.360760
O O1 0.202769 0.797232 0.500000
O O2 0.101032 0.766765 0.354836
O O3 0.302207 0.829514 0.355109
O O4 0.162712 0.637427 0.403211
O O5 0.822783 0.873486 0.750000
O O6 0.852617 0.800258 0.607344
O O7 0.800334 0.955730 0.609546
O O8 0.651728 0.117937 0.750000
O O9 0.658201 0.225077 0.888495
O O10 0.749694 0.106647 0.889694
O O11 0.549186 0.013088 0.888072
O O12 0.093676 0.554163 0.250000
O O13 0.666667 0.333334 0.250000
O O14 0.927998 0.172593 0.250000
#
# Coordination Sequence:
#
# PCOD9585914 Si02
#       6
#    12  12  12  12   4  12
#     4  12  25  40  58  89 124 161 195 246 313 378
#     4  10  19  35  60  89 120 155 203 253 306 362
#     4   9  18  32  54  85 121 154 192 252 307 351
#     4  11  22  40  64  87 117 157 205 252 301 368
#     4   9  18  30  48  84 124 152 187 243 310 347
#     4   9  17  31  55  87 118 152 197 255 303 348
#
# _framework density 22.355604
#
# number of rings (size 3 to 8) (size 9 to 14) (size 15 to 20)
#    0.000    1.875    1.875    3.000    2.625    1.500 
#    0.000    0.938    0.000    0.000    0.000    0.000 
#    0.000    0.000    0.000    0.000    0.000    0.000 
#
# Total GULP energy -357711.858491 kJ/mol
# GULP energy per Si atom -5589.247789 kJ/mol
# Density = 2.230472 g / cm^3
# Si number density = 22.355604 Si / 1000 Ang^3
#
#
#
# Elastic Constant Matrix: (Units=GPa)
#
#
# Indices 1 2 3 4 5 6 
#
# 1 145.3168 61.3501 11.6961 0.0001 0.0000 0.0001
# 2 61.3501 145.3168 11.6961 -0.0001 0.0000 0.0000
# 3 11.6961 11.6961 36.6014 0.0000 0.0000 0.0000
# 4 0.0001 -0.0001 0.0000 4.4902 0.0000 0.0000
# 5 0.0000 0.0000 0.0000 0.0000 4.4902 0.0001
# 6 0.0001 0.0000 0.0000 0.0000 0.0001 41.9833
#
#
#
# Elastic Compliance Matrix: (Units=1/GPa)
#
#
# Indices 1 2 3 4 5 6 
#
# 1 0.008465 -0.003445 -0.001604 0.000000 0.000000 0.000000
# 2 -0.003445 0.008465 -0.001604 0.000000 0.000000 0.000000
# 3 -0.001604 -0.001604 0.028347 0.000000 0.000000 0.000000
# 4 0.000000 0.000000 0.000000 0.222709 0.000001 0.000000
# 5 0.000000 0.000000 0.000000 0.000001 0.222708 0.000000
# 6 0.000000 0.000000 0.000000 0.000000 0.000000 0.023819
#
#
# Mechanical properties :
#
#
# Convention : Reuss Voigt Hill
#
# Bulk Modulus (GPa) = 31.27912 55.19106 43.23509
# Shear Modulus (GPa) = 9.28548 26.35892 17.82220
#
# Velocity S-wave (km/s) = 2.04023 3.43749 2.82656
# Velocity P-wave (km/s) = 4.42403 6.36369 5.48035
#
# Compressibility (1/GPa) = 0.03197021
#
# Stress axis : x y z
#
# Youngs Moduli (GPa) = 118.13519 118.13515 35.27756
#
# Poissons Ratio (x) = 0.40693 0.05659
# Poissons Ratio (y) = 0.40693 0.05659
# Poissons Ratio (z) = 0.18952 0.18952
#
# Static dielectric constant tensor:
#      x y z
#    x 1.792140 0.000000 0.000000 
#    y 0.000000 1.792140 0.000000 
#    z 0.000000 0.000000 1.891940 
# 
# From -- ./inp_files/3081.got.cif
#   From: 2010.05.17/outbox.cif.g08.bks.cpg/sg188_2_cif.got.tgz:3081.got - 2010.05.20 12:11:46.
