data_PCOD9585878
_publ_section_title
;
Structure prediction by ZEFSAII (Michael W. Deem and Ramdas Pophale) SiO2 
 PCOD9585878
Probable space group: P -6 C 2
;
_chemical_formula_sum "Si O2"
_cell_formula_units_Z 72
_cell_length_a 24.848629
_cell_length_b 24.848629
_cell_length_c 8.824119
_cell_angle_alpha 90.000000
_cell_angle_beta 90.000000
_cell_angle_gamma 120.000000
_cell_volume 4718.531426
_symmetry_space_group_name_H-M "P -6 C 2"
_symmetry_group_IT_number 188
_symmetry_cell_setting 'hexagonal'
loop_
_space_group_symop_operation_xyz
x,y,z
-x+y,-x,1/2-z
-y,x-y,z
x,y,1/2-z
-x+y,-x,z
-y,x-y,1/2-z
-y,-x,-z
-x+y,y,-z
x,x-y,-z
-x+y,y,1/2+z
x,x-y,1/2+z
-y,-x,1/2+z
loop_
_atom_site_type_symbol
_atom_site_label
_atom_site_fract_x
_atom_site_fract_y
_atom_site_fract_z
Si Si1 0.738491 0.146214 0.932051
Si Si2 0.525497 0.936853 0.068987
Si Si3 0.341001 0.004669 0.067153
Si Si4 0.290671 0.816520 0.568915
Si Si5 0.221114 0.886015 0.068982
Si Si6 0.782173 0.447761 0.931409
O O1 0.743918 0.148079 0.750000
O O2 0.708803 0.075168 0.982425
O O3 0.691601 0.171722 0.971169
O O4 0.804960 0.195041 0.000000
O O5 0.528125 0.943300 0.250000
O O6 0.501185 0.863867 0.033384
O O7 0.477687 0.955374 0.000000
O O8 0.595042 0.976768 0.003307
O O9 0.347236 0.004048 0.250000
O O10 0.268286 0.957947 0.031369
O O11 0.283115 0.812665 0.750000
O O12 0.252567 0.747434 0.500000
O O13 0.257285 0.852475 0.498859
O O14 0.217066 0.878922 0.250000
O O15 0.152218 0.847783 0.000000
O O16 0.777692 0.441926 0.750000
O O17 0.715532 0.431063 0.000000
O O18 0.802380 0.401190 0.000000
#
# Coordination Sequence:
#
# PCOD9585878 Si02
#       6
#    12  12  12  12  12  12
#     4   9  19  34  49  65  86 114 148 182 219 266
#     4  10  20  31  44  64  88 114 145 182 225 271
#     4   9  18  32  47  64  88 117 146 178 217 259
#     4   9  16  26  41  60  80 104 135 168 204 249
#     4   9  15  24  41  63  87 111 134 163 198 237
#     4  10  19  31  46  62  80 102 134 179 228 276
#
# _framework density 15.258984
#
# number of rings (size 3 to 8) (size 9 to 14) (size 15 to 20)
#    0.000    2.667    0.000    3.167    0.000    4.667 
#    0.000    1.667    0.000    0.333    0.000    0.000 
#    0.000    0.000    0.000    0.500    0.000    6.000 
#
# Total GULP energy -400934.028504 kJ/mol
# GULP energy per Si atom -5568.528174 kJ/mol
# Density = 1.522425 g / cm^3
# Si number density = 15.258984 Si / 1000 Ang^3
#
#
#
# Elastic Constant Matrix: (Units=GPa)
#
#
# Indices 1 2 3 4 5 6 
#
# 1 89.0633 64.1162 30.2917 0.0000 0.0000 0.0000
# 2 64.1162 89.0633 30.2917 0.0000 0.0000 0.0000
# 3 30.2917 30.2917 37.8810 0.0000 0.0000 0.0000
# 4 0.0000 0.0000 0.0000 19.4598 0.0000 0.0000
# 5 0.0000 0.0000 0.0000 0.0000 19.4598 0.0000
# 6 0.0000 0.0000 0.0000 0.0000 0.0000 12.4736
#
#
#
# Elastic Compliance Matrix: (Units=1/GPa)
#
#
# Indices 1 2 3 4 5 6 
#
# 1 0.024816 -0.015268 -0.007635 0.000000 0.000000 0.000000
# 2 -0.015268 0.024816 -0.007635 0.000000 0.000000 0.000000
# 3 -0.007635 -0.007635 0.038609 0.000000 0.000000 0.000000
# 4 0.000000 0.000000 0.000000 0.051388 0.000000 0.000000
# 5 0.000000 0.000000 0.000000 0.000000 0.051388 0.000000
# 6 0.000000 0.000000 0.000000 0.000000 0.000000 0.080169
#
#
# Mechanical properties :
#
#
# Convention : Reuss Voigt Hill
#
# Bulk Modulus (GPa) = 36.81215 51.71186 44.26200
# Shear Modulus (GPa) = 14.64902 16.36583 15.50742
#
# Velocity S-wave (km/s) = 3.10179 3.27851 3.19138
# Velocity P-wave (km/s) = 6.08321 6.94943 6.53070
#
# Compressibility (1/GPa) = 0.02716495
#
# Stress axis : x y z
#
# Youngs Moduli (GPa) = 40.29599 40.29599 25.90047
#
# Poissons Ratio (x) = 0.61525 0.19775
# Poissons Ratio (y) = 0.61525 0.19775
# Poissons Ratio (z) = 0.30766 0.30766
#
# Static dielectric constant tensor:
#      x y z
#    x 1.518060 0.000000 0.000000 
#    y 0.000000 1.518060 0.000000 
#    z 0.000000 0.000000 1.511040 
# 
# From -- ./inp_files/1043.got.cif
#   From: 2010.05.17/outbox.cif.g08.bks.cpg/sg188_1_cif.got.tgz:1043.got - 2010.05.20 12:11:46.
