data_PCOD9585353
_publ_section_title
;
Structure prediction by ZEFSAII (Michael W. Deem and Ramdas Pophale) SiO2 
 PCOD9585353
Probable space group: P 63 M C
;
_chemical_formula_sum "Si O2"
_cell_formula_units_Z 96
_cell_length_a 17.515337
_cell_length_b 17.515337
_cell_length_c 23.033506
_cell_angle_alpha 90.000000
_cell_angle_beta 90.000000
_cell_angle_gamma 120.000000
_cell_volume 6119.665373
_symmetry_space_group_name_H-M "P 63 M C"
_symmetry_group_IT_number 186
_symmetry_cell_setting 'hexagonal'
loop_
_space_group_symop_operation_xyz
x,y,z
x-y,x,1/2+z
-y,x-y,z
-x,-y,1/2+z
-x+y,-x,z
y,-x+y,1/2+z
-x+y,y,z
x,x-y,z
-y,-x,z
y,x,1/2+z
x-y,-y,1/2+z
-x,-x+y,1/2+z
loop_
_atom_site_type_symbol
_atom_site_label
_atom_site_fract_x
_atom_site_fract_y
_atom_site_fract_z
Si Si1 0.606011 0.035236 0.885500
Si Si2 0.508791 0.841173 0.852773
Si Si3 0.817204 0.816588 0.699373
Si Si4 0.764076 0.053660 0.816429
Si Si5 0.909759 0.271662 0.993547
Si Si6 0.179159 0.178427 0.430445
Si Si7 0.333353 0.846865 0.717662
Si Si8 0.657553 0.921214 0.623297
O O1 0.528298 0.056595 0.873006
O O2 0.678421 0.059098 0.834922
O O3 0.656910 0.076829 0.945300
O O4 0.558937 0.929105 0.890024
O O5 0.405145 0.810290 0.853521
O O6 0.524700 0.762350 0.870071
O O7 0.538392 0.866477 0.785586
O O8 0.822430 0.911215 0.704831
O O9 0.768424 0.756371 0.755575
O O10 0.755945 0.765926 0.644306
O O11 0.914002 0.828003 0.696034
O O12 0.848219 0.151782 0.818374
O O13 0.780424 0.000225 0.867568
O O14 0.809426 0.190575 0.990967
O O15 0.969913 0.229772 0.974310
O O16 0.934191 0.304059 0.059449
O O17 0.077206 0.154412 0.429793
O O18 0.187411 0.093706 0.443170
O O19 0.425158 0.850316 0.708175
O O20 0.252024 0.747977 0.708296
O O21 0.320518 0.909680 0.673432
O O22 0.655801 0.827901 0.620951
#
# Coordination Sequence:
#
# PCOD9585353 Si02
#       8
#    12  12  12  12  12  12  12  12
#     4  10  19  30  47  68  87 113 152 191 226 273
#     4   9  17  28  43  66  93 115 133 161 208 263
#     4  10  19  31  48  70  97 129 164 197 228 269
#     4   9  18  31  46  66  94 122 145 181 236 282
#     4   9  19  34  46  59  86 122 154 189 236 273
#     4   9  16  26  42  63  86 114 149 187 226 271
#     4   9  16  27  45  68  92 115 140 172 214 269
#     4   9  18  31  45  62  88 122 155 188 229 272
#
# _framework density 15.687132
#
# number of rings (size 3 to 8) (size 9 to 14) (size 15 to 20)
#    0.000    2.750    0.000    2.750    0.000    5.500 
#    0.000    1.250    0.000    3.500    0.000    0.000 
#    0.000    0.000    0.000    2.625    0.000    0.000 
#
# Total GULP energy -534770.018716 kJ/mol
# GULP energy per Si atom -5570.521028 kJ/mol
# Density = 1.565143 g / cm^3
# Si number density = 15.687132 Si / 1000 Ang^3
#
#
#
# Elastic Constant Matrix: (Units=GPa)
#
#
# Indices 1 2 3 4 5 6 
#
# 1 62.9544 28.2306 19.9603 0.0000 0.0000 0.0000
# 2 28.2306 62.9544 19.9603 0.0000 0.0000 0.0000
# 3 19.9603 19.9603 50.3553 0.0000 0.0000 0.0000
# 4 0.0000 0.0000 0.0000 13.8361 0.0000 0.0000
# 5 0.0000 0.0000 0.0000 0.0000 13.8361 0.0000
# 6 0.0000 0.0000 0.0000 0.0000 0.0000 17.3619
#
#
#
# Elastic Compliance Matrix: (Units=1/GPa)
#
#
# Indices 1 2 3 4 5 6 
#
# 1 0.021034 -0.007765 -0.005260 0.000000 0.000000 0.000000
# 2 -0.007765 0.021034 -0.005260 0.000000 0.000000 0.000000
# 3 -0.005260 -0.005260 0.024029 0.000000 0.000000 0.000000
# 4 0.000000 0.000000 0.000000 0.072275 0.000000 0.000000
# 5 0.000000 0.000000 0.000000 0.000000 0.072275 0.000000
# 6 0.000000 0.000000 0.000000 0.000000 0.000000 0.057597
#
#
# Mechanical properties :
#
#
# Convention : Reuss Voigt Hill
#
# Bulk Modulus (GPa) = 33.86587 34.72961 34.29774
# Shear Modulus (GPa) = 15.89039 16.21433 16.05236
#
# Velocity S-wave (km/s) = 3.18615 3.21846 3.20235
# Velocity P-wave (km/s) = 5.93048 5.99986 5.96527
#
# Compressibility (1/GPa) = 0.02952825
#
# Stress axis : x y z
#
# Youngs Moduli (GPa) = 47.54184 47.54184 41.61671
#
# Poissons Ratio (x) = 0.36914 0.21890
# Poissons Ratio (y) = 0.36914 0.21890
# Poissons Ratio (z) = 0.25006 0.25006
#
# Static dielectric constant tensor:
#      x y z
#    x 1.520780 0.000000 0.000000 
#    y 0.000000 1.520780 0.000000 
#    z 0.000000 0.000000 1.536570 
# 
# From -- ./inp_files/3586.got.cif
#   From: 2010.05.17/outbox.cif.g08.bks.cpg/sg186_2_cif.got.tgz:3586.got - 2010.05.20 12:07:08.
