data_PCOD9585082
_publ_section_title
;
Structure prediction by ZEFSAII (Michael W. Deem and Ramdas Pophale) SiO2 
 PCOD9585082
Probable space group: P 6 M M
;
_chemical_formula_sum "Si O2"
_cell_formula_units_Z 60
_cell_length_a 27.839598
_cell_length_b 27.839598
_cell_length_c 9.369908
_cell_angle_alpha 90.000000
_cell_angle_beta 90.000000
_cell_angle_gamma 120.000000
_cell_volume 6289.148914
_symmetry_space_group_name_H-M "P 6 M M"
_symmetry_group_IT_number 183
_symmetry_cell_setting 'hexagonal'
loop_
_space_group_symop_operation_xyz
x,y,z
x-y,x,z
-y,x-y,z
-x,-y,z
-x+y,-x,z
y,-x+y,z
-x+y,y,z
x,x-y,z
-y,-x,z
y,x,z
x-y,-y,z
-x,-x+y,z
loop_
_atom_site_type_symbol
_atom_site_label
_atom_site_fract_x
_atom_site_fract_y
_atom_site_fract_z
Si Si1 0.890432 0.503660 0.986690
Si Si2 0.441423 0.000000 0.816077
Si Si3 0.441423 0.441423 0.486233
Si Si4 0.779384 0.332939 0.481292
Si Si5 0.890432 0.503660 0.315619
Si Si6 0.332939 0.779384 0.821020
O O1 0.891329 0.445665 0.986433
O O2 0.944598 0.546361 0.898913
O O3 0.833409 0.488904 0.908923
O O4 0.892415 0.520253 0.151155
O O5 0.426262 0.000000 0.651155
O O6 0.500000 0.000000 0.816322
O O7 0.500000 0.500000 0.485987
O O8 0.453638 0.398237 0.403397
O O9 0.769192 0.384596 0.453861
O O10 0.724626 0.275375 0.445944
O O11 0.833410 0.344507 0.393388
O O12 0.790112 0.333663 0.651156
O O13 0.891330 0.445665 0.315876
O O14 0.384597 0.769193 0.848451
O O15 0.275375 0.724626 0.856367
#
# Coordination Sequence:
#
# PCOD9585082 Si02
#       6
#    12   6   6  12  12  12
#     4   9  16  24  33  45  59  72  86 106 132 159
#     4   9  15  23  35  47  57  69  85 105 129 157
#     4   9  15  23  35  47  57  69  85 105 129 157
#     4   9  16  25  35  45  57  74  95 115 133 155
#     4   9  16  24  33  45  59  72  86 106 132 159
#     4   9  16  25  35  45  57  74  95 115 133 155
#
# _framework density 9.540241
#
# number of rings (size 3 to 8) (size 9 to 14) (size 15 to 20)
#    0.000    3.000    0.000    2.200    0.000    9.600 
#    0.000    0.000    0.000    2.400    0.000    0.000 
#    0.000    0.000    0.000    0.000    0.000    0.000 
#
# Total GULP energy -334013.001621 kJ/mol
# GULP energy per Si atom -5566.883360 kJ/mol
# Density = 0.951853 g / cm^3
# Si number density = 9.540241 Si / 1000 Ang^3
#
#
#
# Elastic Constant Matrix: (Units=GPa)
#
#
# Indices 1 2 3 4 5 6 
#
# 1 48.8425 35.5094 44.9876 0.0000 0.0000 0.0000
# 2 35.5094 48.8425 44.9876 0.0000 0.0000 0.0000
# 3 44.9876 44.9876 80.2104 0.0000 0.0000 0.0000
# 4 0.0000 0.0000 0.0000 10.6661 0.0000 0.0000
# 5 0.0000 0.0000 0.0000 0.0000 10.6661 0.0000
# 6 0.0000 0.0000 0.0000 0.0000 0.0000 6.6666
#
#
#
# Elastic Compliance Matrix: (Units=1/GPa)
#
#
# Indices 1 2 3 4 5 6 
#
# 1 0.052255 -0.022746 -0.016551 0.000000 0.000000 0.000000
# 2 -0.022746 0.052255 -0.016551 0.000000 0.000000 0.000000
# 3 -0.016551 -0.016551 0.031033 0.000000 0.000000 0.000000
# 4 0.000000 0.000000 0.000000 0.093755 0.000000 0.000000
# 5 0.000000 0.000000 0.000000 0.000000 0.093755 0.000000
# 6 0.000000 0.000000 0.000000 0.000000 0.000000 0.150003
#
#
# Mechanical properties :
#
#
# Convention : Reuss Voigt Hill
#
# Bulk Modulus (GPa) = 41.93202 47.65163 44.79183
# Shear Modulus (GPa) = 8.43596 9.09382 8.76489
#
# Velocity S-wave (km/s) = 2.97686 3.09075 3.03434
# Velocity P-wave (km/s) = 7.47421 7.92423 7.70251
#
# Compressibility (1/GPa) = 0.02384812
#
# Stress axis : x y z
#
# Youngs Moduli (GPa) = 19.13680 19.13680 32.22372
#
# Poissons Ratio (x) = 0.43528 0.53333
# Poissons Ratio (y) = 0.43528 0.53333
# Poissons Ratio (z) = 0.31673 0.31673
#
# Static dielectric constant tensor:
#      x y z
#    x 1.284160 0.000000 0.000000 
#    y 0.000000 1.284160 0.000000 
#    z 0.000000 0.000000 1.320830 
# 
# From -- ./inp_files/1100.got.cif
#   From: 2010.05.17/outbox.cif.g08.bks.cpg/sg183_1_cif.got.tgz:1100.got - 2010.05.20 12:02:58.
