data_PCOD9585868
_publ_section_title
;
Structure prediction by ZEFSAII (Michael W. Deem and Ramdas Pophale) SiO2 
 PCOD9585868
Probable space group: P -6 C 2
;
_chemical_formula_sum "Si O2"
_cell_formula_units_Z 36
_cell_length_a 18.200329
_cell_length_b 18.200329
_cell_length_c 5.541145
_cell_angle_alpha 90.000000
_cell_angle_beta 90.000000
_cell_angle_gamma 120.000000
_cell_volume 1589.602817
_symmetry_space_group_name_H-M "P -6 C 2"
_symmetry_group_IT_number 188
_symmetry_cell_setting 'hexagonal'
loop_
_space_group_symop_operation_xyz
x,y,z
-x+y,-x,1/2-z
-y,x-y,z
x,y,1/2-z
-x+y,-x,z
-y,x-y,1/2-z
-y,-x,-z
-x+y,y,-z
x,x-y,-z
-x+y,y,1/2+z
x,x-y,1/2+z
-y,-x,1/2+z
loop_
_atom_site_type_symbol
_atom_site_label
_atom_site_fract_x
_atom_site_fract_y
_atom_site_fract_z
Si Si1 0.216519 0.131928 0.750000
Si Si2 0.349227 0.070441 0.750000
Si Si3 0.439323 0.934571 0.250000
Si Si4 0.462767 0.772835 0.250000
Si Si5 0.205877 0.872627 0.750000
Si Si6 0.970126 0.650316 0.750000
O O1 0.172154 0.086077 0.500000
O O2 0.257187 0.233684 0.750000
O O3 0.301275 0.123536 0.750000
O O4 0.273322 0.972125 0.750000
O O5 0.393262 0.078823 0.495704
O O6 0.486998 0.973996 0.500000
O O7 0.432859 0.842773 0.250000
O O8 0.355355 0.943632 0.250000
O O9 0.439908 0.719954 0.500000
O O10 0.564813 0.826519 0.250000
O O11 0.153514 0.846487 0.500000
#
# Coordination Sequence:
#
# PCOD9585868 Si02
#       6
#     6   6   6   6   6   6
#     4   8  16  29  48  73 104 140 167 203 267 340
#     4  10  18  32  51  75 107 143 176 215 276 343
#     4  12  23  35  55  80 104 140 190 251 303 344
#     4  10  21  36  51  68  95 134 180 231 290 343
#     4  10  19  30  46  69  98 136 176 214 262 320
#     4  10  19  32  51  77 106 139 181 226 284 340
#
# _framework density 22.647164
#
# number of rings (size 3 to 8) (size 9 to 14) (size 15 to 20)
#    0.000    2.000    0.000    5.000    0.000    2.667 
#    0.000    0.000    0.000    6.667    0.000    0.000 
#    0.000    0.000    0.000  730.000    0.000   10.000 
#
# Total GULP energy -200881.348889 kJ/mol
# GULP energy per Si atom -5580.037469 kJ/mol
# Density = 2.259562 g / cm^3
# Si number density = 22.647164 Si / 1000 Ang^3
#
#
#
# Elastic Constant Matrix: (Units=GPa)
#
#
# Indices 1 2 3 4 5 6 
#
# 1 63.5795 41.4526 24.3116 0.0000 0.0000 0.0000
# 2 41.4526 63.5795 24.3116 0.0000 0.0000 0.0000
# 3 24.3116 24.3116 263.6549 0.0000 0.0000 0.0000
# 4 0.0000 0.0000 0.0000 23.0907 0.0000 0.0000
# 5 0.0000 0.0000 0.0000 0.0000 23.0907 0.0000
# 6 0.0000 0.0000 0.0000 0.0000 0.0000 11.0634
#
#
#
# Elastic Compliance Matrix: (Units=1/GPa)
#
#
# Indices 1 2 3 4 5 6 
#
# 1 0.027570 -0.017624 -0.000917 0.000000 0.000000 0.000000
# 2 -0.017624 0.027570 -0.000917 0.000000 0.000000 0.000000
# 3 -0.000917 -0.000917 0.003962 0.000000 0.000000 0.000000
# 4 0.000000 0.000000 0.000000 0.043307 0.000000 0.000000
# 5 0.000000 0.000000 0.000000 0.000000 0.043307 0.000000
# 6 0.000000 0.000000 0.000000 0.000000 0.000000 0.090388
#
#
# Mechanical properties :
#
#
# Convention : Reuss Voigt Hill
#
# Bulk Modulus (GPa) = 49.54279 63.44062 56.49171
# Shear Modulus (GPa) = 17.74627 31.49815 24.62221
#
# Velocity S-wave (km/s) = 2.80232 3.73342 3.30086
# Velocity P-wave (km/s) = 5.69158 6.83066 6.28697
#
# Compressibility (1/GPa) = 0.02018457
#
# Stress axis : x y z
#
# Youngs Moduli (GPa) = 36.27168 36.27168 252.40010
#
# Poissons Ratio (x) = 0.63926 0.23147
# Poissons Ratio (y) = 0.63926 0.23147
# Poissons Ratio (z) = 0.03326 0.03326
#
# Static dielectric constant tensor:
#      x y z
#    x 1.847430 0.000000 0.000000 
#    y 0.000000 1.847430 0.000000 
#    z 0.000000 0.000000 2.061330 
# 
# From -- ./inp_files/33.got.cif
#   From: 2010.05.17/outbox.cif.g08.bks.cpg/sg188_1_cif.got.tgz:33.got - 2010.05.20 12:11:46.
