data_PCOD9585705
_publ_section_title
;
Structure prediction by ZEFSAII (Michael W. Deem and Ramdas Pophale) SiO2 
 PCOD9585705
Probable space group: P -6 M 2
;
_chemical_formula_sum "Si O2"
_cell_formula_units_Z 54
_cell_length_a 12.723357
_cell_length_b 12.723357
_cell_length_c 23.556414
_cell_angle_alpha 90.000000
_cell_angle_beta 90.000000
_cell_angle_gamma 120.000000
_cell_volume 3302.503117
_symmetry_space_group_name_H-M "P -6 M 2"
_symmetry_group_IT_number 187
_symmetry_cell_setting 'hexagonal'
loop_
_space_group_symop_operation_xyz
x,y,z
-x+y,-x,-z
-y,x-y,z
x,y,-z
-x+y,-x,z
-y,x-y,-z
-y,-x,-z
-x+y,y,-z
x,x-y,-z
-x+y,y,z
x,x-y,z
-y,-x,z
loop_
_atom_site_type_symbol
_atom_site_label
_atom_site_fract_x
_atom_site_fract_y
_atom_site_fract_z
Si Si1 0.915717 0.582225 0.435236
Si Si2 0.665969 0.083583 0.000000
Si Si3 0.583599 0.916869 0.109934
Si Si4 0.583376 0.916296 0.671284
Si Si5 0.249327 0.999621 0.779941
O O1 0.958184 0.622522 0.500000
O O2 0.793956 0.587912 0.426042
O O3 0.886715 0.443358 0.430881
O O4 0.014746 0.655929 0.387568
O O5 0.645505 0.001980 0.944443
O O6 0.795797 0.204203 0.000000
O O7 0.557763 0.115526 0.000000
O O8 0.451547 0.903093 0.117146
O O9 0.571756 0.785878 0.101504
O O10 0.665148 0.976151 0.165558
O O11 0.456885 0.913769 0.679474
O O12 0.562182 0.781091 0.670015
O O13 0.673691 0.985016 0.723259
O O14 0.109784 0.890217 0.779199
O O15 0.256753 0.128377 0.782627
#
# Coordination Sequence:
#
# PCOD9585705 Si02
#       5
#    12   6  12  12  12
#     4   9  17  30  49  72  97 126 161 202 247 293
#     4  10  20  34  52  74 102 136 172 210 252 296
#     4  10  20  34  54  78 104 134 167 205 247 293
#     4  10  20  33  50  72  99 131 165 202 244 291
#     4  10  20  34  52  73  98 129 165 205 248 294
#
# _framework density 16.351233000000001
#
# number of rings (size 3 to 8) (size 9 to 14) (size 15 to 20)
#    0.000    2.222    0.000    3.333    0.000    1.333 
#    0.000    3.333    0.000   11.111    0.000    0.000 
#    0.000    0.000    0.000    0.000    0.000    0.000 
#
# Total GULP energy -301317.460283 kJ/mol
# GULP energy per Si atom -5579.952968 kJ/mol
# Density = 1.631402 g / cm^3
# Si number density = 16.351233 Si / 1000 Ang^3
#
#
#
# Elastic Constant Matrix: (Units=GPa)
#
#
# Indices 1 2 3 4 5 6 
#
# 1 121.6928 83.8602 85.7611 0.0000 -0.0001 0.0000
# 2 83.8602 121.6928 85.7611 0.0000 0.0001 0.0000
# 3 85.7611 85.7611 143.0816 0.0000 0.0000 0.0000
# 4 0.0000 0.0000 0.0000 23.1985 0.0000 0.0001
# 5 -0.0001 0.0001 0.0000 0.0000 23.1985 0.0000
# 6 0.0000 0.0000 0.0000 0.0001 0.0000 18.9163
#
#
#
# Elastic Compliance Matrix: (Units=1/GPa)
#
#
# Indices 1 2 3 4 5 6 
#
# 1 0.018083 -0.008350 -0.005834 0.000000 0.000000 0.000000
# 2 -0.008350 0.018083 -0.005834 0.000000 0.000000 0.000000
# 3 -0.005834 -0.005834 0.013982 0.000000 0.000000 0.000000
# 4 0.000000 0.000000 0.000000 0.043106 0.000000 0.000000
# 5 0.000000 0.000000 0.000000 0.000000 0.043106 0.000000
# 6 0.000000 0.000000 0.000000 0.000000 0.000000 0.052864
#
#
# Mechanical properties :
#
#
# Convention : Reuss Voigt Hill
#
# Bulk Modulus (GPa) = 98.88169 99.69244 99.28707
# Shear Modulus (GPa) = 21.49341 21.80166 21.64753
#
# Velocity S-wave (km/s) = 3.62951 3.65545 3.64250
# Velocity P-wave (km/s) = 8.84134 8.88359 8.86249
#
# Compressibility (1/GPa) = 0.01011310
#
# Stress axis : x y z
#
# Youngs Moduli (GPa) = 55.30208 55.30208 71.51887
#
# Poissons Ratio (x) = 0.46175 0.41722
# Poissons Ratio (y) = 0.46175 0.41722
# Poissons Ratio (z) = 0.32262 0.32262
#
# Static dielectric constant tensor:
#      x y z
#    x 1.516120 0.000000 0.000000 
#    y 0.000000 1.516120 0.000000 
#    z 0.000000 0.000000 1.540740 
# 
# From -- ./inp_files/3845.got.cif
#   From: 2010.05.17/outbox.cif.g08.bks.cpg/sg187_2_cif.got.tgz:3845.got - 2010.05.20 12:09:04.
