data_PCOD9585405
_publ_section_title
;
Structure prediction by ZEFSAII (Michael W. Deem and Ramdas Pophale) SiO2 
 PCOD9585405
Probable space group: P 63 M C
;
_chemical_formula_sum "Si O2"
_cell_formula_units_Z 84
_cell_length_a 17.856687
_cell_length_b 17.856687
_cell_length_c 14.896640
_cell_angle_alpha 90.000000
_cell_angle_beta 90.000000
_cell_angle_gamma 120.000000
_cell_volume 4113.587376
_symmetry_space_group_name_H-M "P 63 M C"
_symmetry_group_IT_number 186
_symmetry_cell_setting 'hexagonal'
loop_
_space_group_symop_operation_xyz
x,y,z
x-y,x,1/2+z
-y,x-y,z
-x,-y,1/2+z
-x+y,-x,z
y,-x+y,1/2+z
-x+y,y,z
x,x-y,z
-y,-x,z
y,x,1/2+z
x-y,-y,1/2+z
-x,-x+y,1/2+z
loop_
_atom_site_type_symbol
_atom_site_label
_atom_site_fract_x
_atom_site_fract_y
_atom_site_fract_z
Si Si1 0.238038 0.941335 0.412650
Si Si2 0.373810 0.462899 0.187384
Si Si3 0.827251 0.824530 0.081590
Si Si4 0.038912 0.308086 0.735037
Si Si5 0.838476 0.333569 0.292960
Si Si6 0.334611 0.499832 0.989672
Si Si7 0.837412 0.333598 0.879770
O O1 0.145166 0.854835 0.393157
O O2 0.226411 0.984078 0.501929
O O3 0.305387 0.905187 0.415740
O O4 0.267409 0.010669 0.333407
O O5 0.477371 0.522630 0.200531
O O6 0.328550 0.362529 0.202242
O O7 0.336618 0.493205 0.270317
O O8 0.356859 0.475329 0.084668
O O9 0.928233 0.856466 0.064848
O O10 0.798705 0.764206 0.169552
O O11 0.811900 0.905950 0.088142
O O12 0.119678 0.405406 0.738917
O O13 0.848368 0.424184 0.260417
O O14 0.737108 0.262893 0.302976
O O15 0.881031 0.350953 0.393293
O O16 0.235227 0.470453 0.992812
O O17 0.396542 0.603459 0.984665
O O18 0.855125 0.427563 0.909300
O O19 0.742190 0.257811 0.905952
#
# Coordination Sequence:
#
# PCOD9585405 Si02
#       7
#    12  12  12  12  12  12  12
#     4   9  21  41  61  87 122 162 202 245 302 366
#     4   9  18  31  48  79 123 166 206 251 304 353
#     4  11  25  45  69  93 118 147 187 243 312 382
#     4  11  22  38  63  92 121 156 200 255 301 359
#     4  10  21  37  58  85 124 169 214 254 296 351
#     4   9  17  29  48  77 114 158 205 251 297 349
#     4   9  16  29  52  83 123 168 214 259 301 348
#
# _framework density 20.420131000000001
#
# number of rings (size 3 to 8) (size 9 to 14) (size 15 to 20)
#    0.000    2.286    0.000    2.286    2.000    4.571 
#    0.000    2.857    0.000    1.714    0.000    2.000 
#    0.000    0.000    0.000    0.000    0.000    0.000 
#
# Total GULP energy -467867.219453 kJ/mol
# GULP energy per Si atom -5569.847851 kJ/mol
# Density = 2.037365 g / cm^3
# Si number density = 20.420131 Si / 1000 Ang^3
#
#
#
# Elastic Constant Matrix: (Units=GPa)
#
#
# Indices 1 2 3 4 5 6 
#
# 1 87.5395 49.7584 41.9997 0.0000 0.0000 0.0000
# 2 49.7584 87.5395 41.9997 0.0000 0.0000 0.0000
# 3 41.9997 41.9997 66.7834 0.0000 0.0000 0.0000
# 4 0.0000 0.0000 0.0000 21.0509 0.0000 0.0000
# 5 0.0000 0.0000 0.0000 0.0000 21.0509 0.0000
# 6 0.0000 0.0000 0.0000 0.0000 0.0000 18.8905
#
#
#
# Elastic Compliance Matrix: (Units=1/GPa)
#
#
# Indices 1 2 3 4 5 6 
#
# 1 0.019153 -0.007315 -0.007445 0.000000 0.000000 0.000000
# 2 -0.007315 0.019153 -0.007445 0.000000 0.000000 0.000000
# 3 -0.007445 -0.007445 0.024338 0.000000 0.000000 0.000000
# 4 0.000000 0.000000 0.000000 0.047504 0.000000 0.000000
# 5 0.000000 0.000000 0.000000 0.000000 0.047504 0.000000
# 6 0.000000 0.000000 0.000000 0.000000 0.000000 0.052937
#
#
# Mechanical properties :
#
#
# Convention : Reuss Voigt Hill
#
# Bulk Modulus (GPa) = 54.84103 56.59757 55.71930
# Shear Modulus (GPa) = 19.15139 19.40543 19.27841
#
# Velocity S-wave (km/s) = 3.06579 3.08605 3.07594
# Velocity P-wave (km/s) = 6.28066 6.36200 6.32146
#
# Compressibility (1/GPa) = 0.01823452
#
# Stress axis : x y z
#
# Youngs Moduli (GPa) = 52.21027 52.21027 41.08774
#
# Poissons Ratio (x) = 0.38192 0.30590
# Poissons Ratio (y) = 0.38192 0.30590
# Poissons Ratio (z) = 0.38871 0.38871
#
# Static dielectric constant tensor:
#      x y z
#    x 1.753700 0.000000 0.000000 
#    y 0.000000 1.753700 0.000000 
#    z 0.000000 0.000000 1.765200 
# 
# From -- ./inp_files/2554.got.cif
#   From: 2010.05.17/outbox.cif.g08.bks.cpg/sg186_2_cif.got.tgz:2554.got - 2010.05.20 12:07:08.
