data_PCOD9585333
_publ_section_title
;
Structure prediction by ZEFSAII (Michael W. Deem and Ramdas Pophale) SiO2 
 PCOD9585333
Probable space group: P 63 M C
;
_chemical_formula_sum "Si O2"
_cell_formula_units_Z 84
_cell_length_a 16.181250
_cell_length_b 16.181250
_cell_length_c 20.792669
_cell_angle_alpha 90.000000
_cell_angle_beta 90.000000
_cell_angle_gamma 120.000000
_cell_volume 4714.818808
_symmetry_space_group_name_H-M "P 63 M C"
_symmetry_group_IT_number 186
_symmetry_cell_setting 'hexagonal'
loop_
_space_group_symop_operation_xyz
x,y,z
x-y,x,1/2+z
-y,x-y,z
-x,-y,1/2+z
-x+y,-x,z
y,-x+y,1/2+z
-x+y,y,z
x,x-y,z
-y,-x,z
y,x,1/2+z
x-y,-y,1/2+z
-x,-x+y,1/2+z
loop_
_atom_site_type_symbol
_atom_site_label
_atom_site_fract_x
_atom_site_fract_y
_atom_site_fract_z
Si Si1 0.727142 0.727142 0.515660
Si Si2 0.480177 0.335842 0.973240
Si Si3 0.998626 0.806700 0.154618
Si Si4 0.100664 0.401726 0.335153
Si Si5 0.100663 0.401726 0.196168
Si Si6 0.191926 0.998626 0.876702
Si Si7 0.335841 0.855665 0.058082
O O1 0.619943 0.709348 0.510605
O O2 0.781661 0.784364 0.579019
O O3 0.784364 0.781661 0.452301
O O4 0.709348 0.619943 0.520716
O O5 0.511044 0.255522 0.971179
O O6 0.565035 0.434966 0.999363
O O7 0.455400 0.351973 0.900257
O O8 0.087663 0.912338 0.166283
O O9 0.022555 0.732252 0.189070
O O10 0.899865 0.799730 0.172932
O O11 0.202164 0.404327 0.335892
O O12 0.091280 0.438781 0.265660
O O13 0.022555 0.290304 0.342251
O O14 0.202164 0.404328 0.195429
O O15 0.103426 0.455399 0.131064
O O16 0.175327 0.087664 0.865037
O O17 0.100135 0.899866 0.858388
O O18 0.434966 0.869931 0.031958
O O19 0.255522 0.744479 0.060143
#
# Coordination Sequence:
#
# PCOD9585333 Si02
#       7
#    12  12  12  12  12  12  12
#     4  10  19  32  45  62  90 124 150 178 229 284
#     4  10  19  31  48  68  89 113 146 187 228 273
#     4  10  18  28  44  65  90 120 156 194 226 262
#     4   8  16  30  44  60  86 117 144 175 221 271
#     4   8  16  30  44  60  86 117 144 175 221 271
#     4  10  18  28  44  65  90 120 156 194 226 262
#     4  10  19  31  48  68  89 113 146 187 228 273
#
# _framework density 17.816167
#
# number of rings (size 3 to 8) (size 9 to 14) (size 15 to 20)
#    0.000    2.571    0.000    5.286    0.000    1.143 
#    0.000    1.429    0.000    3.429    0.000    0.000 
#    0.000    0.000    0.000    0.000    0.000   96.000 
#
# Total GULP energy -468201.665236 kJ/mol
# GULP energy per Si atom -5573.829348 kJ/mol
# Density = 1.777562 g / cm^3
# Si number density = 17.816167 Si / 1000 Ang^3
#
#
#
# Elastic Constant Matrix: (Units=GPa)
#
#
# Indices 1 2 3 4 5 6 
#
# 1 66.9604 21.2915 -16.6930 0.0000 0.0000 0.0000
# 2 21.2915 66.9604 -16.6930 0.0000 0.0000 0.0000
# 3 -16.6930 -16.6930 28.6142 0.0000 0.0000 0.0000
# 4 0.0000 0.0000 0.0000 3.4614 0.0000 0.0000
# 5 0.0000 0.0000 0.0000 0.0000 3.4614 0.0000
# 6 0.0000 0.0000 0.0000 0.0000 0.0000 22.8344
#
#
#
# Elastic Compliance Matrix: (Units=1/GPa)
#
#
# Indices 1 2 3 4 5 6 
#
# 1 0.018218 -0.003678 0.008482 0.000000 0.000000 0.000000
# 2 -0.003678 0.018218 0.008482 0.000000 0.000000 0.000000
# 3 0.008482 0.008482 0.044845 0.000000 0.000000 0.000000
# 4 0.000000 0.000000 0.000000 0.288902 0.000000 0.000000
# 5 0.000000 0.000000 0.000000 0.000000 0.288902 0.000000
# 6 0.000000 0.000000 0.000000 0.000000 0.000000 0.043794
#
#
# Mechanical properties :
#
#
# Convention : Reuss Voigt Hill
#
# Bulk Modulus (GPa) = 9.27170 15.37176 12.32173
# Shear Modulus (GPa) = 7.01993 17.59340 12.30667
#
# Velocity S-wave (km/s) = 1.98715 3.14585 2.63108
# Velocity P-wave (km/s) = 3.23734 4.67353 4.02009
#
# Compressibility (1/GPa) = 0.10785503
#
# Stress axis : x y z
#
# Youngs Moduli (GPa) = 54.88937 54.88937 22.29914
#
# Poissons Ratio (x) = 0.20190 -0.18915
# Poissons Ratio (y) = 0.20190 -0.18915
# Poissons Ratio (z) = -0.46560 -0.46560
#
# Static dielectric constant tensor:
#      x y z
#    x 1.607960 0.000000 0.000000 
#    y 0.000000 1.607960 0.000000 
#    z 0.000000 0.000000 1.641040 
# 
# From -- ./inp_files/3855.got.cif
#   From: 2010.05.17/outbox.cif.g08.bks.cpg/sg186_2_cif.got.tgz:3855.got - 2010.05.20 12:07:08.
