data_PCOD9585561
_publ_section_title
;
Structure prediction by ZEFSAII (Michael W. Deem and Ramdas Pophale) SiO2 
 PCOD9585561
Probable space group: P -6 M 2
;
_chemical_formula_sum "Si O2"
_cell_formula_units_Z 84
_cell_length_a 17.777088
_cell_length_b 17.777088
_cell_length_c 14.722004
_cell_angle_alpha 90.000000
_cell_angle_beta 90.000000
_cell_angle_gamma 120.000000
_cell_volume 4029.199836
_symmetry_space_group_name_H-M "P -6 M 2"
_symmetry_group_IT_number 187
_symmetry_cell_setting 'hexagonal'
loop_
_space_group_symop_operation_xyz
x,y,z
-x+y,-x,-z
-y,x-y,z
x,y,-z
-x+y,-x,z
-y,x-y,-z
-y,-x,-z
-x+y,y,-z
x,x-y,-z
-x+y,y,z
x,x-y,z
-y,-x,z
loop_
_atom_site_type_symbol
_atom_site_label
_atom_site_fract_x
_atom_site_fract_y
_atom_site_fract_z
Si Si1 0.489734 0.155003 0.766287
Si Si2 0.507316 0.667202 0.861860
Si Si3 0.971838 0.364462 0.400535
Si Si4 0.978167 0.656937 0.104253
Si Si5 0.167186 0.500404 0.357541
Si Si6 0.192665 0.974404 0.399743
Si Si7 0.829814 0.828694 0.195606
O O1 0.587750 0.175499 0.778902
O O2 0.484427 0.242214 0.755404
O O3 0.449562 0.092075 0.678773
O O4 0.429223 0.097829 0.849378
O O5 0.514286 0.757143 0.892532
O O6 0.416174 0.583827 0.888950
O O7 0.587971 0.656646 0.891612
O O8 0.508918 0.669652 0.751825
O O9 0.936403 0.365946 0.500000
O O10 0.069205 0.444744 0.391701
O O11 0.988924 0.283711 0.395552
O O12 0.990113 0.739179 0.161758
O O13 0.958078 0.664907 0.000000
O O14 0.236929 0.473858 0.389215
O O15 0.200699 0.600350 0.379610
O O16 0.174793 0.999511 0.500000
O O17 0.130611 0.869390 0.396741
O O18 0.170463 0.003594 0.305733
O O19 0.918537 0.837074 0.160489
O O20 0.818709 0.909355 0.166834
#
# Coordination Sequence:
#
# PCOD9585561 Si02
#       7
#    12  12  12  12  12  12  12
#     4  12  27  49  73  99 128 162 206 265 336 404
#     4  10  20  37  63  97 136 176 218 265 318 376
#     4  11  22  38  65  97 130 170 218 265 315 379
#     4  12  26  45  71  99 128 167 219 274 325 385
#     4  10  19  33  55  88 132 181 227 269 311 363
#     4   9  18  34  60  96 135 174 218 268 319 372
#     4  11  23  41  65  97 136 178 222 271 328 389
#
# _framework density 20.847812000000001
#
# number of rings (size 3 to 8) (size 9 to 14) (size 15 to 20)
#    0.000    1.286    2.857    2.714    0.000    9.429 
#    0.000    1.429    0.000    5.143    0.000    0.000 
#    0.000    0.000    0.000    0.000    0.000    0.000 
#
# Total GULP energy -469367.246720 kJ/mol
# GULP energy per Si atom -5587.705318 kJ/mol
# Density = 2.080036 g / cm^3
# Si number density = 20.847812 Si / 1000 Ang^3
#
#
#
# Elastic Constant Matrix: (Units=GPa)
#
#
# Indices 1 2 3 4 5 6 
#
# 1 114.0388 56.6685 30.4885 0.0000 -0.0006 0.0000
# 2 56.6685 114.0388 30.4885 0.0000 0.0006 0.0000
# 3 30.4885 30.4885 108.0638 0.0000 0.0000 0.0000
# 4 0.0000 0.0000 0.0000 -19.0160 0.0000 0.0006
# 5 -0.0006 0.0006 0.0000 0.0000 -19.0160 0.0000
# 6 0.0000 0.0000 0.0000 0.0006 0.0000 28.6852
#
#
#
# Elastic Compliance Matrix: (Units=1/GPa)
#
#
# Indices 1 2 3 4 5 6 
#
# 1 0.011973 -0.005458 -0.001838 0.000000 -0.000001 0.000000
# 2 -0.005458 0.011973 -0.001838 0.000000 0.000001 0.000000
# 3 -0.001838 -0.001838 0.010291 0.000000 0.000000 0.000000
# 4 0.000000 0.000000 0.000000 -0.052587 0.000000 0.000001
# 5 -0.000001 0.000001 0.000000 0.000000 -0.052587 0.000000
# 6 0.000000 0.000000 0.000000 0.000001 0.000000 0.034861
#
#
# Mechanical properties :
#
#
# Convention : Reuss Voigt Hill
#
# Bulk Modulus (GPa) = 62.62508 63.49250 63.05879
# Shear Modulus (GPa) = -400.42167 12.69704 -193.86232
#
# Velocity S-wave (km/s) = -13.87393 2.47054 -9.65356
# Velocity P-wave (km/s) = 15.05136 6.21767 9.69237
#
# Compressibility (1/GPa) = 0.01596804
#
# Stress axis : x y z
#
# Youngs Moduli (GPa) = 83.52436 83.52436 97.17326
#
# Poissons Ratio (x) = 0.45588 0.17860
# Poissons Ratio (y) = 0.45588 0.17860
# Poissons Ratio (z) = 0.15351 0.15351
#
# Static dielectric constant tensor:
#      x y z
#    x 1.724490 0.000000 0.000000 
#    y 0.000000 1.724490 0.000000 
#    z 0.000000 0.000000 1.767920 
# 
# From -- ./inp_files/2591.got.cif
#   From: 2010.05.17/outbox.cif.g08.bks.cpg/sg187_2_cif.got.tgz:2591.got - 2010.05.20 12:09:04.
