data_PCOD9585695
_publ_section_title
;
Structure prediction by ZEFSAII (Michael W. Deem and Ramdas Pophale) SiO2 
 PCOD9585695
Probable space group: P -6 M 2
;
_chemical_formula_sum "Si O2"
_cell_formula_units_Z 60
_cell_length_a 12.943159
_cell_length_b 12.943159
_cell_length_c 26.602854
_cell_angle_alpha 90.000000
_cell_angle_beta 90.000000
_cell_angle_gamma 120.000000
_cell_volume 3859.574561
_symmetry_space_group_name_H-M "P -6 M 2"
_symmetry_group_IT_number 187
_symmetry_cell_setting 'hexagonal'
loop_
_space_group_symop_operation_xyz
x,y,z
-x+y,-x,-z
-y,x-y,z
x,y,-z
-x+y,-x,z
-y,x-y,-z
-y,-x,-z
-x+y,y,-z
x,x-y,-z
-x+y,y,z
x,x-y,z
-y,-x,z
loop_
_atom_site_type_symbol
_atom_site_label
_atom_site_fract_x
_atom_site_fract_y
_atom_site_fract_z
Si Si1 0.087789 0.420374 0.000000
Si Si2 0.000623 0.752925 0.390228
Si Si3 0.667032 0.578007 0.186158
Si Si4 0.666264 0.578526 0.699270
Si Si5 0.753547 0.000277 0.500000
Si Si6 0.246015 0.246144 0.094130
O O1 0.026488 0.338125 0.951310
O O2 0.225649 0.451297 0.000000
O O3 0.079069 0.539535 0.000000
O O4 0.884739 0.769477 0.387683
O O5 0.990401 0.670253 0.343829
O O6 0.998092 0.698068 0.445580
O O7 0.119977 0.880024 0.386834
O O8 0.772991 0.545981 0.183123
O O9 0.540103 0.459898 0.177130
O O10 0.668722 0.620503 0.243384
O O11 0.697848 0.679204 0.145002
O O12 0.779683 0.559366 0.694123
O O13 0.545795 0.454206 0.693141
O O14 0.764425 0.882213 0.500000
O O15 0.884643 0.115358 0.500000
O O16 0.241138 0.120569 0.085063
O O17 0.113539 0.227077 0.097867
#
# Coordination Sequence:
#
# PCOD9585695 Si02
#       6
#     6  12  12  12   6  12
#     4  10  20  34  52  72  94 122 158 198 232 260
#     4   9  16  26  42  64  88 113 142 179 224 270
#     4   9  17  30  48  68  89 116 152 192 230 265
#     4   9  17  29  45  64  87 117 151 185 221 264
#     4   8  13  22  37  58  84 112 142 176 216 264
#     4  10  20  33  50  72  99 129 156 183 220 270
#
# _framework density 15.545756000000001
#
# number of rings (size 3 to 8) (size 9 to 14) (size 15 to 20)
#    0.000    2.800    0.000    1.900    0.000    4.000 
#    0.000    1.500    0.000    6.000    0.000    1.400 
#    0.000    0.000    0.000    0.000    0.000    0.000 
#
# Total GULP energy -334035.688517 kJ/mol
# GULP energy per Si atom -5567.261475 kJ/mol
# Density = 1.551037 g / cm^3
# Si number density = 15.545756 Si / 1000 Ang^3
#
#
#
# Elastic Constant Matrix: (Units=GPa)
#
#
# Indices 1 2 3 4 5 6 
#
# 1 72.6078 43.3016 70.0760 0.0000 0.0002 0.0000
# 2 43.3016 72.6078 70.0760 0.0000 -0.0002 0.0000
# 3 70.0760 70.0760 153.0567 0.0000 0.0000 0.0000
# 4 0.0000 0.0000 0.0000 23.8793 0.0000 -0.0002
# 5 0.0002 -0.0002 0.0000 0.0000 23.8793 0.0000
# 6 0.0000 0.0000 0.0000 -0.0002 0.0000 14.6531
#
#
#
# Elastic Compliance Matrix: (Units=1/GPa)
#
#
# Indices 1 2 3 4 5 6 
#
# 1 0.026725 -0.007398 -0.008849 0.000000 0.000000 0.000000
# 2 -0.007398 0.026725 -0.008849 0.000000 0.000000 0.000000
# 3 -0.008849 -0.008849 0.014636 0.000000 0.000000 0.000000
# 4 0.000000 0.000000 0.000000 0.041877 0.000000 0.000001
# 5 0.000000 0.000000 0.000000 0.000000 0.041877 0.000000
# 6 0.000000 0.000000 0.000000 0.000001 0.000000 0.068245
#
#
# Mechanical properties :
#
#
# Convention : Reuss Voigt Hill
#
# Bulk Modulus (GPa) = 55.88123 73.90883 64.89503
# Shear Modulus (GPa) = 18.10021 20.13694 19.11857
#
# Velocity S-wave (km/s) = 3.41591 3.60298 3.51069
# Velocity P-wave (km/s) = 7.18208 8.05944 7.63338
#
# Compressibility (1/GPa) = 0.01789510
#
# Stress axis : x y z
#
# Youngs Moduli (GPa) = 37.41870 37.41870 68.32432
#
# Poissons Ratio (x) = 0.27682 0.60458
# Poissons Ratio (y) = 0.27682 0.60458
# Poissons Ratio (z) = 0.33110 0.33110
#
# Static dielectric constant tensor:
#      x y z
#    x 1.486840 0.000000 0.000000 
#    y 0.000000 1.486840 0.000000 
#    z 0.000000 0.000000 1.552940 
# 
# From -- ./inp_files/4171.got.cif
#   From: 2010.05.17/outbox.cif.g08.bks.cpg/sg187_3_cif.got.tgz:4171.got - 2010.05.20 12:09:04.
