data_PCOD9585123
_publ_section_title
;
Structure prediction by ZEFSAII (Michael W. Deem and Ramdas Pophale) SiO2 
 PCOD9585123
Probable space group: P 6 C C
;
_chemical_formula_sum "Si O2"
_cell_formula_units_Z 90
_cell_length_a 25.351962
_cell_length_b 25.351962
_cell_length_c 9.132534
_cell_angle_alpha 90.000000
_cell_angle_beta 90.000000
_cell_angle_gamma 120.000000
_cell_volume 5083.292260
_symmetry_space_group_name_H-M "P 6 C C"
_symmetry_group_IT_number 184
_symmetry_cell_setting 'hexagonal'
loop_
_space_group_symop_operation_xyz
x,y,z
x-y,x,z
-y,x-y,z
-x,-y,z
-x+y,-x,z
y,-x+y,z
-x+y,y,1/2+z
x,x-y,1/2+z
-y,-x,1/2+z
y,x,1/2+z
x-y,-y,1/2+z
-x,-x+y,1/2+z
loop_
_atom_site_type_symbol
_atom_site_label
_atom_site_fract_x
_atom_site_fract_y
_atom_site_fract_z
Si Si1 0.075210 0.930475 0.888140
Si Si2 0.000000 0.500000 0.604926
Si Si3 0.967055 0.260547 0.165940
Si Si4 0.405155 0.446277 0.353651
Si Si5 0.105836 0.874124 0.132186
Si Si6 0.057220 0.361392 0.356149
Si Si7 0.841124 0.212974 0.681573
Si Si8 0.395508 0.128801 0.358688
O O1 0.083605 0.911766 0.725764
O O2 0.002650 0.896146 0.915765
O O3 0.111969 0.902731 0.973585
O O4 0.963208 0.443118 0.497435
O O5 0.961123 0.517579 0.712381
O O6 0.953395 0.193473 0.133902
O O7 0.926727 0.257224 0.305851
O O8 0.031436 0.310531 0.226354
O O9 0.950907 0.284466 0.018437
O O10 0.396035 0.377536 0.348642
O O11 0.338793 0.438488 0.356356
O O12 0.161625 0.863068 0.176147
O O13 0.126383 0.392329 0.304037
O O14 0.850161 0.239828 0.519441
O O15 0.771294 0.177485 0.734568
#
# Coordination Sequence:
#
# PCOD9585123 Si02
#       8
#    12   6  12  12  12  12  12  12
#     4  12  27  44  57  68  85 120 165 241 316 383
#     4  10  20  34  58  78 114 154 210 230 262 304
#     4  10  21  33  52  79 108 141 175 227 274 360
#     4  10  20  36  53  85 114 161 195 239 271 323
#     4  11  24  39  57  78  97 120 177 224 296 354
#     4  11  20  33  57  81 119 150 185 221 290 337
#     4  11  21  35  55  82 115 152 179 233 282 372
#     4  10  20  36  51  78 117 155 192 220 284 332
#
# _framework density 17.705061000000001
#
# number of rings (size 3 to 8) (size 9 to 14) (size 15 to 20)
#    0.000    1.333    0.000    8.933    5.600    0.000 
#    0.000    1.333    0.000    0.000    0.000    0.000 
#    0.000    0.000    0.000   88.800    0.000    0.000 
#
# Total GULP energy -501661.300602 kJ/mol
# GULP energy per Si atom -5574.014451 kJ/mol
# Density = 1.766476 g / cm^3
# Si number density = 17.705061 Si / 1000 Ang^3
#
#
#
# Elastic Constant Matrix: (Units=GPa)
#
#
# Indices 1 2 3 4 5 6 
#
# 1 84.5801 45.4279 35.3186 0.0000 0.0000 0.0000
# 2 45.4279 84.5801 35.3186 0.0000 0.0000 0.0000
# 3 35.3186 35.3186 99.1232 0.0000 0.0000 0.0000
# 4 0.0000 0.0000 0.0000 18.2066 0.0000 0.0000
# 5 0.0000 0.0000 0.0000 0.0000 18.2066 0.0000
# 6 0.0000 0.0000 0.0000 0.0000 0.0000 19.5761
#
#
#
# Elastic Compliance Matrix: (Units=1/GPa)
#
#
# Indices 1 2 3 4 5 6 
#
# 1 0.017540 -0.008001 -0.003399 0.000000 0.000000 0.000000
# 2 -0.008001 0.017540 -0.003399 0.000000 0.000000 0.000000
# 3 -0.003399 -0.003399 0.012510 0.000000 0.000000 0.000000
# 4 0.000000 0.000000 0.000000 0.054925 0.000000 0.000000
# 5 0.000000 0.000000 0.000000 0.000000 0.054925 0.000000
# 6 0.000000 0.000000 0.000000 0.000000 0.000000 0.051083
#
#
# Mechanical properties :
#
#
# Convention : Reuss Voigt Hill
#
# Bulk Modulus (GPa) = 55.57813 55.60149 55.58981
# Shear Modulus (GPa) = 20.48190 21.34576 20.91383
#
# Velocity S-wave (km/s) = 3.40492 3.47599 3.44064
# Velocity P-wave (km/s) = 6.84962 6.89800 6.87385
#
# Compressibility (1/GPa) = 0.01799269
#
# Stress axis : x y z
#
# Youngs Moduli (GPa) = 57.01288 57.01288 79.93354
#
# Poissons Ratio (x) = 0.45619 0.27166
# Poissons Ratio (y) = 0.45619 0.27166
# Poissons Ratio (z) = 0.19377 0.19377
#
# Static dielectric constant tensor:
#      x y z
#    x 1.666380 0.000000 0.000000 
#    y 0.000000 1.666380 0.000000 
#    z 0.000000 0.000000 1.625040 
# 
# From -- ./inp_files/424.got.cif
#   From: 2010.05.17/outbox.cif.g08.bks.cpg/sg184_cif.got.tgz:424.got - 2010.05.20 12:04:40.
