data_PCOD9585897
_publ_section_title
;
Structure prediction by ZEFSAII (Michael W. Deem and Ramdas Pophale) SiO2 
 PCOD9585897
Probable space group: P -6 C 2
;
_chemical_formula_sum "Si O2"
_cell_formula_units_Z 78
_cell_length_a 24.603188
_cell_length_b 24.603188
_cell_length_c 9.355035
_cell_angle_alpha 90.000000
_cell_angle_beta 90.000000
_cell_angle_gamma 120.000000
_cell_volume 4904.094370
_symmetry_space_group_name_H-M "P -6 C 2"
_symmetry_group_IT_number 188
_symmetry_cell_setting 'hexagonal'
loop_
_space_group_symop_operation_xyz
x,y,z
-x+y,-x,1/2-z
-y,x-y,z
x,y,1/2-z
-x+y,-x,z
-y,x-y,1/2-z
-y,-x,-z
-x+y,y,-z
x,x-y,-z
-x+y,y,1/2+z
x,x-y,1/2+z
-y,-x,1/2+z
loop_
_atom_site_type_symbol
_atom_site_label
_atom_site_fract_x
_atom_site_fract_y
_atom_site_fract_z
Si Si1 0.587525 0.528433 0.923355
Si Si2 0.331370 0.232714 0.902936
Si Si3 0.024133 0.365977 0.084464
Si Si4 0.891800 0.108201 0.500000
Si Si5 0.034612 0.858538 0.085957
Si Si6 0.676366 0.894826 0.078130
Si Si7 0.722629 0.549077 0.917961
O O1 0.581203 0.529515 0.750000
O O2 0.649858 0.523337 0.954275
O O3 0.528366 0.471635 0.000000
O O4 0.600008 0.593146 0.996907
O O5 0.363332 0.236274 0.750000
O O6 0.322782 0.292835 0.907982
O O7 0.266263 0.168170 0.908388
O O8 0.377761 0.243314 0.033545
O O9 0.039724 0.387792 0.250000
O O10 0.078988 0.364805 0.995252
O O11 0.960121 0.132842 0.566883
O O12 0.050701 0.874908 0.250000
O O13 0.057422 0.808494 0.050581
O O14 0.078092 0.921909 0.000000
O O15 0.667907 0.888530 0.250000
O O16 0.662326 0.831163 0.000000
O O17 0.726675 0.543176 0.750000
O O18 0.760689 0.521378 0.000000
#
# Coordination Sequence:
#
# PCOD9585897 Si02
#       7
#    12  12  12   6  12  12  12
#     4  10  21  36  53  75 104 140 175 211 249 302
#     4  10  20  30  47  74 100 123 154 199 255 307
#     4  10  19  33  51  75 103 134 166 205 251 305
#     4  12  20  34  54  74  90 118 160 208 260 314
#     4  10  23  38  52  68  89 120 157 201 252 310
#     4  10  19  33  50  72  98 127 162 203 251 302
#     4  10  20  32  49  74 105 132 162 203 251 299
#
# _framework density 15.905077
#
# number of rings (size 3 to 8) (size 9 to 14) (size 15 to 20)
#    0.000    1.846    2.308    2.308    0.000    4.923 
#    0.462    0.000    0.000    0.308    0.000    0.000 
#    0.000    0.000    0.000    0.462    0.000    6.462 
#
# Total GULP energy -434515.596743 kJ/mol
# GULP energy per Si atom -5570.712779 kJ/mol
# Density = 1.586888 g / cm^3
# Si number density = 15.905077 Si / 1000 Ang^3
#
#
#
# Elastic Constant Matrix: (Units=GPa)
#
#
# Indices 1 2 3 4 5 6 
#
# 1 97.8831 46.7661 52.3118 0.0008 0.0000 0.0000
# 2 46.7661 97.8831 52.3118 -0.0008 0.0000 0.0000
# 3 52.3118 52.3118 101.2790 0.0000 0.0000 0.0000
# 4 0.0008 -0.0008 0.0000 16.9494 0.0000 0.0000
# 5 0.0000 0.0000 0.0000 0.0000 16.9494 0.0008
# 6 0.0000 0.0000 0.0000 0.0000 0.0008 25.5585
#
#
#
# Elastic Compliance Matrix: (Units=1/GPa)
#
#
# Indices 1 2 3 4 5 6 
#
# 1 0.015300 -0.004263 -0.005700 -0.000001 0.000000 0.000000
# 2 -0.004263 0.015300 -0.005700 0.000001 0.000000 0.000000
# 3 -0.005700 -0.005700 0.015762 0.000000 0.000000 0.000000
# 4 -0.000001 0.000001 0.000000 0.058999 0.000000 0.000000
# 5 0.000000 0.000000 0.000000 0.000000 0.058999 -0.000002
# 6 0.000000 0.000000 0.000000 0.000000 -0.000002 0.039126
#
#
# Mechanical properties :
#
#
# Convention : Reuss Voigt Hill
#
# Bulk Modulus (GPa) = 66.51836 66.64715 66.58275
# Shear Modulus (GPa) = 20.84854 21.60185 21.22519
#
# Velocity S-wave (km/s) = 3.62444 3.68934 3.65703
# Velocity P-wave (km/s) = 7.70898 7.75515 7.73210
#
# Compressibility (1/GPa) = 0.01503344
#
# Stress axis : x y z
#
# Youngs Moduli (GPa) = 65.36104 65.36104 63.44236
#
# Poissons Ratio (x) = 0.27865 0.36165
# Poissons Ratio (y) = 0.27865 0.36165
# Poissons Ratio (z) = 0.37258 0.37258
#
# Static dielectric constant tensor:
#      x y z
#    x 1.534900 0.000000 0.000000 
#    y 0.000000 1.534900 0.000000 
#    z 0.000000 0.000000 1.559860 
# 
# From -- ./inp_files/1147.got.cif
#   From: 2010.05.17/outbox.cif.g08.bks.cpg/sg188_1_cif.got.tgz:1147.got - 2010.05.20 12:11:46.
