data_PCOD9585306
_publ_section_title
;
Structure prediction by ZEFSAII (Michael W. Deem and Ramdas Pophale) SiO2 
 PCOD9585306
Probable space group: P 63 C M
;
_chemical_formula_sum "Si O2"
_cell_formula_units_Z 72
_cell_length_a 23.595194
_cell_length_b 23.595194
_cell_length_c 8.593422
_cell_angle_alpha 90.000000
_cell_angle_beta 90.000000
_cell_angle_gamma 120.000000
_cell_volume 4143.276111
_symmetry_space_group_name_H-M "P 63 C M"
_symmetry_group_IT_number 185
_symmetry_cell_setting 'hexagonal'
loop_
_space_group_symop_operation_xyz
x,y,z
x-y,x,1/2+z
-y,x-y,z
-x,-y,1/2+z
-x+y,-x,z
y,-x+y,1/2+z
-x+y,y,1/2+z
x,x-y,1/2+z
-y,-x,1/2+z
y,x,z
x-y,-y,z
-x,-x+y,z
loop_
_atom_site_type_symbol
_atom_site_label
_atom_site_fract_x
_atom_site_fract_y
_atom_site_fract_z
Si Si1 0.255232 0.872020 0.755890
Si Si2 0.872548 0.872548 0.129893
Si Si3 0.616787 0.872020 0.630804
Si Si4 0.745093 0.000000 0.129777
Si Si5 0.477188 0.401257 0.630546
Si Si6 0.075931 0.477188 0.756148
Si Si7 0.254907 0.254907 0.756917
Si Si8 0.872548 0.000000 0.256802
O O1 0.194037 0.805963 0.693347
O O2 0.325807 0.881759 0.708524
O O3 0.253682 0.935191 0.691786
O O4 0.252461 0.872825 0.943347
O O5 0.808720 0.808720 0.192540
O O6 0.872481 0.936240 0.193347
O O7 0.872751 0.872751 0.943347
O O8 0.555952 0.881759 0.678170
O O9 0.681509 0.935191 0.694909
O O10 0.808720 0.000000 0.194154
O O11 0.745383 0.000000 0.943347
O O12 0.430688 0.430688 0.681304
O O13 0.479141 0.403411 0.443347
O O14 0.549024 0.450976 0.693347
O O15 0.000000 0.430688 0.705390
#
# Coordination Sequence:
#
# PCOD9585306 Si02
#       8
#    12   6  12   6  12  12   6   6
#     4  11  22  38  57  84 119 154 190 235 284 337
#     4  12  25  43  62  81 106 140 185 236 288 344
#     4  11  22  38  57  84 119 154 190 235 284 337
#     4  12  24  39  58  83 112 150 191 234 287 342
#     4   9  18  34  56  82 113 145 181 228 278 328
#     4   9  18  34  56  82 113 145 181 228 278 328
#     4  12  24  39  58  83 112 150 191 234 287 342
#     4  12  25  43  62  81 106 140 185 236 288 344
#
# _framework density 17.377554
#
# number of rings (size 3 to 8) (size 9 to 14) (size 15 to 20)
#    0.000    1.333    1.667    5.167    0.000    2.667 
#    0.000    0.000    0.000    0.667    0.000    0.000 
#    0.000    0.000    0.000    0.000    0.000    0.000 
#
# Total GULP energy -402365.745974 kJ/mol
# GULP energy per Si atom -5588.413139 kJ/mol
# Density = 1.733800 g / cm^3
# Si number density = 17.377554 Si / 1000 Ang^3
#
#
#
# Elastic Constant Matrix: (Units=GPa)
#
#
# Indices 1 2 3 4 5 6 
#
# 1 165.2272 115.5593 56.2976 0.0000 0.0000 0.0000
# 2 115.5593 165.2272 56.2976 0.0000 0.0000 0.0000
# 3 56.2976 56.2976 96.9426 0.0000 0.0000 0.0000
# 4 0.0000 0.0000 0.0000 31.0227 0.0000 0.0000
# 5 0.0000 0.0000 0.0000 0.0000 31.0227 0.0000
# 6 0.0000 0.0000 0.0000 0.0000 0.0000 24.8339
#
#
#
# Elastic Compliance Matrix: (Units=1/GPa)
#
#
# Indices 1 2 3 4 5 6 
#
# 1 0.012388 -0.007746 -0.002696 0.000000 0.000000 0.000000
# 2 -0.007746 0.012388 -0.002696 0.000000 0.000000 0.000000
# 3 -0.002696 -0.002696 0.013447 0.000000 0.000000 0.000000
# 4 0.000000 0.000000 0.000000 0.032234 0.000000 0.000000
# 5 0.000000 0.000000 0.000000 0.000000 0.032234 0.000000
# 6 0.000000 0.000000 0.000000 0.000000 0.000000 0.040268
#
#
# Mechanical properties :
#
#
# Convention : Reuss Voigt Hill
#
# Bulk Modulus (GPa) = 83.69901 98.18957 90.94429
# Shear Modulus (GPa) = 28.86545 30.65870 29.76207
#
# Velocity S-wave (km/s) = 4.08005 4.20488 4.14294
# Velocity P-wave (km/s) = 8.39436 8.95550 8.67947
#
# Compressibility (1/GPa) = 0.01194757
#
# Stress axis : x y z
#
# Youngs Moduli (GPa) = 80.72230 80.72230 74.36734
#
# Poissons Ratio (x) = 0.62524 0.20050
# Poissons Ratio (y) = 0.62524 0.20050
# Poissons Ratio (z) = 0.21763 0.21763
#
# Static dielectric constant tensor:
#      x y z
#    x 1.586680 0.000000 0.000000 
#    y 0.000000 1.586680 0.000000 
#    z 0.000000 0.000000 1.585980 
# 
# From -- ./inp_files/659.got.cif
#   From: 2010.05.17/outbox.cif.g08.bks.cpg/sg185_cif.got.tgz:659.got - 2010.05.20 12:05:34.
