data_PCOD9585527
_publ_section_title
;
Structure prediction by ZEFSAII (Michael W. Deem and Ramdas Pophale) SiO2 
 PCOD9585527
Probable space group: P -6 M 2
;
_chemical_formula_sum "Si O2"
_cell_formula_units_Z 96
_cell_length_a 17.541862
_cell_length_b 17.541862
_cell_length_c 20.955971
_cell_angle_alpha 90.000000
_cell_angle_beta 90.000000
_cell_angle_gamma 120.000000
_cell_volume 5584.570794
_symmetry_space_group_name_H-M "P -6 M 2"
_symmetry_group_IT_number 187
_symmetry_cell_setting 'hexagonal'
loop_
_space_group_symop_operation_xyz
x,y,z
-x+y,-x,-z
-y,x-y,z
x,y,-z
-x+y,-x,z
-y,x-y,-z
-y,-x,-z
-x+y,y,-z
x,x-y,-z
-x+y,y,z
x,x-y,z
-y,-x,z
loop_
_atom_site_type_symbol
_atom_site_label
_atom_site_fract_x
_atom_site_fract_y
_atom_site_fract_z
Si Si1 0.667175 0.507684 0.111122
Si Si2 0.182335 0.000642 0.732982
Si Si3 0.035925 0.428995 0.928548
Si Si4 0.084551 0.732905 0.809004
Si Si5 0.392137 0.959712 0.571953
Si Si6 0.841501 0.508171 0.260584
Si Si7 0.336659 0.255883 0.362967
Si Si8 0.512833 0.847184 0.698038
O O1 0.762757 0.525515 0.093056
O O2 0.595679 0.404322 0.105778
O O3 0.629984 0.560026 0.072811
O O4 0.667459 0.531128 0.186102
O O5 0.087492 0.912509 0.727244
O O6 0.235891 0.984483 0.789286
O O7 0.174640 0.087320 0.743652
O O8 0.241723 0.018660 0.669482
O O9 0.057034 0.528517 0.914114
O O10 0.068291 0.389339 0.873509
O O11 0.068243 0.427717 0.000000
O O12 0.178061 0.821940 0.813247
O O13 0.092577 0.678230 0.749951
O O14 0.366854 0.924933 0.500000
O O15 0.496540 0.993080 0.578221
O O16 0.346078 0.888484 0.627804
O O17 0.365311 0.033104 0.585548
O O18 0.737599 0.475197 0.266032
O O19 0.860813 0.430407 0.277261
O O20 0.890467 0.591534 0.306120
O O21 0.338733 0.169367 0.385581
O O22 0.421326 0.842651 0.713006
O O23 0.503187 0.751593 0.700177
#
# Coordination Sequence:
#
# PCOD9585527 Si02
#       8
#    12  12  12  12  12  12  12  12
#     4   9  17  28  44  67  98 135 173 209 248 296
#     4  10  20  35  55  80 108 136 170 217 277 337
#     4  10  21  35  50  73 106 141 174 210 257 308
#     4  10  20  35  57  81 104 133 172 218 263 311
#     4  10  21  35  51  75 110 148 181 215 259 310
#     4   9  16  26  43  69 100 133 169 214 264 312
#     4  10  19  31  50  74 101 135 180 227 267 314
#     4  10  20  35  56  81 108 137 171 209 253 305
#
# _framework density 17.190218999999999
#
# number of rings (size 3 to 8) (size 9 to 14) (size 15 to 20)
#    0.000    2.250    1.250    2.000    0.000    3.500 
#    0.000    0.000    0.000    2.000    0.000    0.000 
#    0.000    2.000    0.000    0.000    0.000    0.000 
#
# Total GULP energy -535491.803360 kJ/mol
# GULP energy per Si atom -5578.039618 kJ/mol
# Density = 1.715109 g / cm^3
# Si number density = 17.190219 Si / 1000 Ang^3
#
#
#
# Elastic Constant Matrix: (Units=GPa)
#
#
# Indices 1 2 3 4 5 6 
#
# 1 75.8517 37.1486 36.6680 0.0000 -0.0003 0.0000
# 2 37.1486 75.8517 36.6680 0.0000 0.0003 0.0000
# 3 36.6680 36.6680 82.6617 0.0000 0.0000 0.0000
# 4 0.0000 0.0000 0.0000 14.4956 0.0000 0.0003
# 5 -0.0003 0.0003 0.0000 0.0000 14.4956 0.0000
# 6 0.0000 0.0000 0.0000 0.0003 0.0000 19.3516
#
#
#
# Elastic Compliance Matrix: (Units=1/GPa)
#
#
# Indices 1 2 3 4 5 6 
#
# 1 0.019132 -0.006705 -0.005513 0.000000 0.000001 0.000000
# 2 -0.006705 0.019132 -0.005513 0.000000 -0.000001 0.000000
# 3 -0.005513 -0.005513 0.016988 0.000000 0.000000 0.000000
# 4 0.000000 0.000000 0.000000 0.068986 0.000000 -0.000001
# 5 0.000001 -0.000001 0.000000 0.000000 0.068986 0.000000
# 6 0.000000 0.000000 0.000000 -0.000001 0.000000 0.051675
#
#
# Mechanical properties :
#
#
# Convention : Reuss Voigt Hill
#
# Bulk Modulus (GPa) = 50.52509 50.59271 50.55890
# Shear Modulus (GPa) = 17.42407 17.92726 17.67566
#
# Velocity S-wave (km/s) = 3.18717 3.23286 3.21010
# Velocity P-wave (km/s) = 6.55741 6.59016 6.57380
#
# Compressibility (1/GPa) = 0.01979215
#
# Stress axis : x y z
#
# Youngs Moduli (GPa) = 52.26728 52.26728 58.86457
#
# Poissons Ratio (x) = 0.35047 0.32449
# Poissons Ratio (y) = 0.35047 0.32449
# Poissons Ratio (z) = 0.28813 0.28813
#
# Static dielectric constant tensor:
#      x y z
#    x 1.586530 0.000000 0.000000 
#    y 0.000000 1.586530 0.000000 
#    z 0.000000 0.000000 1.578290 
# 
# From -- ./inp_files/3743.got.cif
#   From: 2010.05.17/outbox.cif.g08.bks.cpg/sg187_2_cif.got.tgz:3743.got - 2010.05.20 12:09:04.
