data_PCOD9585516
_publ_section_title
;
Structure prediction by ZEFSAII (Michael W. Deem and Ramdas Pophale) SiO2 
 PCOD9585516
Probable space group: P -6 M 2
;
_chemical_formula_sum "Si O2"
_cell_formula_units_Z 72
_cell_length_a 24.400681
_cell_length_b 24.400681
_cell_length_c 8.826662
_cell_angle_alpha 90.000000
_cell_angle_beta 90.000000
_cell_angle_gamma 120.000000
_cell_volume 4551.253466
_symmetry_space_group_name_H-M "P -6 M 2"
_symmetry_group_IT_number 187
_symmetry_cell_setting 'hexagonal'
loop_
_space_group_symop_operation_xyz
x,y,z
-x+y,-x,-z
-y,x-y,z
x,y,-z
-x+y,-x,z
-y,x-y,-z
-y,-x,-z
-x+y,y,-z
x,x-y,-z
-x+y,y,z
x,x-y,z
-y,-x,z
loop_
_atom_site_type_symbol
_atom_site_label
_atom_site_fract_x
_atom_site_fract_y
_atom_site_fract_z
Si Si1 0.552998 0.892671 0.182027
Si Si2 0.554412 0.108824 0.684556
Si Si3 0.769824 0.662078 0.817312
Si Si4 0.703825 0.851913 0.674139
Si Si5 0.035758 0.298402 0.181727
Si Si6 0.224914 0.775086 0.323796
Si Si7 0.699749 0.177503 0.682957
Si Si8 0.480257 0.519744 0.317314
O O1 0.627617 0.935634 0.222581
O O2 0.530651 0.822094 0.243583
O O3 0.515852 0.924790 0.254169
O O4 0.547434 0.890947 0.000000
O O5 0.554392 0.108783 0.500000
O O6 0.627454 0.146845 0.734520
O O7 0.517434 0.034868 0.730219
O O8 0.842573 0.685146 0.778977
O O9 0.743055 0.706834 0.765811
O O10 0.728608 0.592731 0.746908
O O11 0.763738 0.656489 0.000000
O O12 0.722315 0.861158 0.500000
O O13 0.724383 0.806351 0.753084
O O14 0.626946 0.813473 0.682855
O O15 0.037335 0.296017 0.000000
O O16 0.234325 0.765676 0.500000
O O17 0.699422 0.174874 0.500000
O O18 0.749704 0.250297 0.726547
O O19 0.479253 0.520748 0.500000
#
# Coordination Sequence:
#
# PCOD9585516 Si02
#       8
#    12   6  12   6  12   6  12   6
#     4  10  19  31  47  68  93 120 152 189 227 271
#     4   9  18  31  45  65  92 120 155 203 253 298
#     4   9  17  29  45  65  90 119 151 185 225 273
#     4   9  17  27  43  67  92 116 143 175 209 252
#     4   9  17  29  45  65  91 121 149 180 222 268
#     4   9  17  31  49  68  90 117 147 175 215 265
#     4   9  17  30  46  63  85 116 155 198 245 293
#     4  11  21  31  45  66  94 125 157 195 241 287
#
# _framework density 15.819817
#
# number of rings (size 3 to 8) (size 9 to 14) (size 15 to 20)
#    0.000    2.667    0.000    2.250    0.000    3.333 
#    0.500    1.250    0.000    0.333    0.000    2.333 
#    0.833    0.000    1.500    0.000    0.500    0.000 
#
# Total GULP energy -401217.250074 kJ/mol
# GULP energy per Si atom -5572.461807 kJ/mol
# Density = 1.578381 g / cm^3
# Si number density = 15.819817 Si / 1000 Ang^3
#
#
#
# Elastic Constant Matrix: (Units=GPa)
#
#
# Indices 1 2 3 4 5 6 
#
# 1 134.4055 87.2423 36.6336 0.0000 0.0001 0.0000
# 2 87.2423 134.4055 36.6336 0.0000 -0.0001 0.0000
# 3 36.6336 36.6336 26.3239 0.0000 0.0000 0.0000
# 4 0.0000 0.0000 0.0000 17.6800 0.0000 -0.0001
# 5 0.0001 -0.0001 0.0000 0.0000 17.6800 0.0000
# 6 0.0000 0.0000 0.0000 -0.0001 0.0000 23.5816
#
#
#
# Elastic Compliance Matrix: (Units=1/GPa)
#
#
# Indices 1 2 3 4 5 6 
#
# 1 0.014779 -0.006424 -0.011628 0.000000 0.000000 0.000000
# 2 -0.006424 0.014779 -0.011628 0.000000 0.000000 0.000000
# 3 -0.011628 -0.011628 0.070351 0.000000 0.000000 0.000000
# 4 0.000000 0.000000 0.000000 0.056561 0.000000 0.000000
# 5 0.000000 0.000000 0.000000 0.000000 0.056561 0.000000
# 6 0.000000 0.000000 0.000000 0.000000 0.000000 0.042406
#
#
# Mechanical properties :
#
#
# Convention : Reuss Voigt Hill
#
# Bulk Modulus (GPa) = 24.66003 68.46158 46.56080
# Shear Modulus (GPa) = 15.22939 20.76334 17.99637
#
# Velocity S-wave (km/s) = 3.10607 3.62676 3.37647
# Velocity P-wave (km/s) = 5.33718 7.80433 6.68555
#
# Compressibility (1/GPa) = 0.04055145
#
# Stress axis : x y z
#
# Youngs Moduli (GPa) = 67.66313 67.66313 14.21441
#
# Poissons Ratio (x) = 0.43466 0.16528
# Poissons Ratio (y) = 0.43466 0.16528
# Poissons Ratio (z) = 0.78676 0.78676
#
# Static dielectric constant tensor:
#      x y z
#    x 1.521240 0.000000 0.000000 
#    y 0.000000 1.521240 0.000000 
#    z 0.000000 0.000000 1.528640 
# 
# From -- ./inp_files/1090.got.cif
#   From: 2010.05.17/outbox.cif.g08.bks.cpg/sg187_1_cif.got.tgz:1090.got - 2010.05.20 12:09:04.
