data_PCOD9585203
_publ_section_title
;
Structure prediction by ZEFSAII (Michael W. Deem and Ramdas Pophale) SiO2 
 PCOD9585203
Probable space group: P 6 C C
;
_chemical_formula_sum "Si O2"
_cell_formula_units_Z 56
_cell_length_a 13.284419
_cell_length_b 13.284419
_cell_length_c 18.029405
_cell_angle_alpha 90.000000
_cell_angle_beta 90.000000
_cell_angle_gamma 120.000000
_cell_volume 2755.479323
_symmetry_space_group_name_H-M "P 6 C C"
_symmetry_group_IT_number 184
_symmetry_cell_setting 'hexagonal'
loop_
_space_group_symop_operation_xyz
x,y,z
x-y,x,z
-y,x-y,z
-x,-y,z
-x+y,-x,z
y,-x+y,z
-x+y,y,1/2+z
x,x-y,1/2+z
-y,-x,1/2+z
y,x,1/2+z
x-y,-y,1/2+z
-x,-x+y,1/2+z
loop_
_atom_site_type_symbol
_atom_site_label
_atom_site_fract_x
_atom_site_fract_y
_atom_site_fract_z
Si Si1 0.586919 0.800683 0.048620
Si Si2 0.085458 0.632400 0.801249
Si Si3 0.611498 0.625814 0.956243
Si Si4 0.333334 0.666668 0.120001
Si Si5 0.333334 0.666667 0.799829
Si Si6 0.819663 0.091046 0.191526
O O1 0.462722 0.750719 0.088887
O O2 0.676083 0.801317 0.108911
O O3 0.577015 0.719491 0.980092
O O4 0.631042 0.925543 0.013501
O O5 0.021268 0.649728 0.871691
O O6 0.206584 0.641034 0.824576
O O7 0.113171 0.733262 0.742805
O O8 0.000000 0.500000 0.772556
O O9 0.500000 0.500000 0.964732
O O10 0.333334 0.666667 0.209371
O O11 0.956865 0.175177 0.204378
#
# Coordination Sequence:
#
# PCOD9585203 Si02
#       6
#    12  12  12   4   4  12
#     4  12  24  43  69 100 138 182 228 289 344 416
#     4  11  27  44  69 101 143 184 227 287 350 427
#     4  11  26  43  66 103 139 182 228 284 356 415
#     4  12  24  40  71 106 138 172 233 277 345 421
#     4  12  24  43  71 103 138 181 230 280 348 415
#     4  12  26  46  70  99 138 184 238 289 347 419
#
# _framework density 20.323143000000002
#
# number of rings (size 3 to 8) (size 9 to 14) (size 15 to 20)
#    0.000    0.429    6.429    1.500    9.000    0.857 
#    0.000    0.000    0.000    0.000    0.000    0.000 
#    0.000    0.000    0.000    0.000    0.000    0.000 
#
# Total GULP energy -313131.328244 kJ/mol
# GULP energy per Si atom -5591.630862 kJ/mol
# Density = 2.027689 g / cm^3
# Si number density = 20.323143 Si / 1000 Ang^3
#
#
#
# Elastic Constant Matrix: (Units=GPa)
#
#
# Indices 1 2 3 4 5 6 
#
# 1 41.7537 12.3224 -0.9331 0.0000 -0.0002 0.0002
# 2 12.3224 41.7547 -0.9332 -0.0003 0.0000 0.0003
# 3 -0.9331 -0.9332 74.5904 -0.0001 0.0004 -0.0001
# 4 0.0000 -0.0003 -0.0001 26.3493 -0.0001 -0.0001
# 5 -0.0002 0.0000 0.0004 -0.0001 26.3494 -0.0001
# 6 0.0002 0.0003 -0.0001 -0.0001 -0.0001 14.7158
#
#
#
# Elastic Compliance Matrix: (Units=1/GPa)
#
#
# Indices 1 2 3 4 5 6 
#
# 1 0.026239 -0.007738 0.000231 0.000000 0.000000 0.000000
# 2 -0.007738 0.026238 0.000231 0.000000 0.000000 0.000000
# 3 0.000231 0.000231 0.013412 0.000000 0.000000 0.000000
# 4 0.000000 0.000000 0.000000 0.037952 0.000000 0.000000
# 5 0.000000 0.000000 0.000000 0.000000 0.037951 0.000000
# 6 0.000000 0.000000 0.000000 0.000000 0.000000 0.067954
#
#
# Mechanical properties :
#
#
# Convention : Reuss Voigt Hill
#
# Bulk Modulus (GPa) = 19.47848 19.89010 19.68429
# Shear Modulus (GPa) = 20.71161 23.32575 22.01868
#
# Velocity S-wave (km/s) = 3.19582 3.39151 3.29512
# Velocity P-wave (km/s) = 4.81901 5.01444 4.91770
#
# Compressibility (1/GPa) = 0.05133870
#
# Stress axis : x y z
#
# Youngs Moduli (GPa) = 38.11144 38.11230 74.55818
#
# Poissons Ratio (x) = 0.29492 -0.01725
# Poissons Ratio (y) = 0.29492 -0.01726
# Poissons Ratio (z) = -0.00882 -0.00882
#
# Static dielectric constant tensor:
#      x y z
#    x 1.752050 0.000000 0.000000 
#    y 0.000000 1.752070 0.000000 
#    z 0.000000 0.000000 1.774550 
# 
# From -- ./inp_files/834.got.cif
#   From: 2010.05.17/outbox.cif.g08.bks.cpg/sg184_cif.got.tgz:834.got - 2010.05.20 12:04:40.
