data_PCOD9585401
_publ_section_title
;
Structure prediction by ZEFSAII (Michael W. Deem and Ramdas Pophale) SiO2 
 PCOD9585401
Probable space group: P 63 M C
;
_chemical_formula_sum "Si O2"
_cell_formula_units_Z 84
_cell_length_a 18.138281
_cell_length_b 18.138281
_cell_length_c 15.708040
_cell_angle_alpha 90.000000
_cell_angle_beta 90.000000
_cell_angle_gamma 120.000000
_cell_volume 4475.534216
_symmetry_space_group_name_H-M "P 63 M C"
_symmetry_group_IT_number 186
_symmetry_cell_setting 'hexagonal'
loop_
_space_group_symop_operation_xyz
x,y,z
x-y,x,1/2+z
-y,x-y,z
-x,-y,1/2+z
-x+y,-x,z
y,-x+y,1/2+z
-x+y,y,z
x,x-y,z
-y,-x,z
y,x,1/2+z
x-y,-y,1/2+z
-x,-x+y,1/2+z
loop_
_atom_site_type_symbol
_atom_site_label
_atom_site_fract_x
_atom_site_fract_y
_atom_site_fract_z
Si Si1 0.059971 0.765969 0.603250
Si Si2 0.170479 0.502965 0.442141
Si Si3 0.056145 0.768323 0.933172
Si Si4 0.825790 0.825559 0.267091
Si Si5 0.668097 0.499309 0.738053
Si Si6 0.417415 0.416194 0.644266
Si Si7 0.597316 0.565586 0.455852
O O1 0.151850 0.848151 0.589476
O O2 0.015936 0.787138 0.681459
O O3 0.062988 0.682132 0.633053
O O4 0.002744 0.744872 0.517851
O O5 0.238670 0.477339 0.473776
O O6 0.194335 0.597168 0.472362
O O7 0.175834 0.505576 0.339814
O O8 0.070837 0.443035 0.458784
O O9 0.144446 0.855555 0.947245
O O10 0.010603 0.781483 0.851631
O O11 0.071097 0.689099 0.914474
O O12 0.923777 0.847554 0.270908
O O13 0.819076 0.909538 0.265595
O O14 0.760180 0.520360 0.705085
O O15 0.593247 0.406754 0.707891
O O16 0.636961 0.565131 0.714686
O O17 0.483431 0.516570 0.656674
O O18 0.446156 0.391698 0.555690
O O19 0.524138 0.475862 0.419039
#
# Coordination Sequence:
#
# PCOD9585401 Si02
#       7
#    12  12  12  12  12  12  12
#     4  10  21  37  57  81 108 142 184 230 277 328
#     4   9  17  29  48  76 108 138 168 204 253 312
#     4  10  21  37  57  81 108 142 184 230 277 328
#     4  10  21  36  55  80 110 142 180 228 285 340
#     4   9  17  29  48  76 108 138 168 204 253 312
#     4   9  19  34  50  72 105 140 171 209 258 311
#     4   9  19  34  50  72 105 140 171 209 258 311
#
# _framework density 18.768709999999999
#
# number of rings (size 3 to 8) (size 9 to 14) (size 15 to 20)
#    0.000    2.571    0.000    1.286    2.000    6.857 
#    0.000    0.000    0.000    5.143    0.000    0.000 
#    0.000    0.000    0.000    0.000    0.000    0.000 
#
# Total GULP energy -468107.592210 kJ/mol
# GULP energy per Si atom -5572.709431 kJ/mol
# Density = 1.872599 g / cm^3
# Si number density = 18.768710 Si / 1000 Ang^3
#
#
#
# Elastic Constant Matrix: (Units=GPa)
#
#
# Indices 1 2 3 4 5 6 
#
# 1 79.5725 75.6223 39.6120 0.0000 0.0000 0.0000
# 2 75.6223 79.5725 39.6120 0.0000 0.0000 0.0000
# 3 39.6120 39.6120 62.3094 0.0000 0.0000 0.0000
# 4 0.0000 0.0000 0.0000 19.8861 0.0000 0.0000
# 5 0.0000 0.0000 0.0000 0.0000 19.8861 0.0000
# 6 0.0000 0.0000 0.0000 0.0000 0.0000 1.9751
#
#
#
# Elastic Compliance Matrix: (Units=1/GPa)
#
#
# Indices 1 2 3 4 5 6 
#
# 1 0.131345 -0.121806 -0.006064 0.000000 0.000000 0.000000
# 2 -0.121806 0.131345 -0.006064 0.000000 0.000000 0.000000
# 3 -0.006064 -0.006064 0.023760 0.000000 0.000000 0.000000
# 4 0.000000 0.000000 0.000000 0.050286 0.000000 0.000000
# 5 0.000000 0.000000 0.000000 0.000000 0.050286 0.000000
# 6 0.000000 0.000000 0.000000 0.000000 0.000000 0.506303
#
#
# Mechanical properties :
#
#
# Convention : Reuss Voigt Hill
#
# Bulk Modulus (GPa) = 53.81983 59.01635 56.41809
# Shear Modulus (GPa) = 4.28306 12.78999 8.53653
#
# Velocity S-wave (km/s) = 1.51227 2.61330 2.13498
# Velocity P-wave (km/s) = 5.63798 6.37323 6.01685
#
# Compressibility (1/GPa) = 0.01858051
#
# Stress axis : x y z
#
# Youngs Moduli (GPa) = 7.61351 7.61351 42.08822
#
# Poissons Ratio (x) = 0.92737 0.25524
# Poissons Ratio (y) = 0.92737 0.25524
# Poissons Ratio (z) = 0.04617 0.04617
#
# Static dielectric constant tensor:
#      x y z
#    x 1.685210 0.000000 0.000000 
#    y 0.000000 1.685210 0.000000 
#    z 0.000000 0.000000 1.666530 
# 
# From -- ./inp_files/2552.got.cif
#   From: 2010.05.17/outbox.cif.g08.bks.cpg/sg186_2_cif.got.tgz:2552.got - 2010.05.20 12:07:08.
