data_PCOD9585444
_publ_section_title
;
Structure prediction by ZEFSAII (Michael W. Deem and Ramdas Pophale) SiO2 
 PCOD9585444
Probable space group: P -6 M 2
;
_chemical_formula_sum "Si O2"
_cell_formula_units_Z 96
_cell_length_a 17.503473
_cell_length_b 17.503473
_cell_length_c 24.355489
_cell_angle_alpha 90.000000
_cell_angle_beta 90.000000
_cell_angle_gamma 120.000000
_cell_volume 6462.133760
_symmetry_space_group_name_H-M "P -6 M 2"
_symmetry_group_IT_number 187
_symmetry_cell_setting 'hexagonal'
loop_
_space_group_symop_operation_xyz
x,y,z
-x+y,-x,-z
-y,x-y,z
x,y,-z
-x+y,-x,z
-y,x-y,-z
-y,-x,-z
-x+y,y,-z
x,x-y,-z
-x+y,y,z
x,x-y,z
-y,-x,z
loop_
_atom_site_type_symbol
_atom_site_label
_atom_site_fract_x
_atom_site_fract_y
_atom_site_fract_z
Si Si1 0.715813 0.949024 0.438574
Si Si2 0.489075 0.156552 0.200554
Si Si3 0.514637 0.666609 0.062209
Si Si4 0.631483 0.906733 0.724064
Si Si5 0.036903 0.427390 0.832300
Si Si6 0.819534 0.818377 0.671909
Si Si7 0.667070 0.507721 0.669681
Si Si8 0.571592 0.967156 0.620322
O O1 0.746982 0.982738 0.500000
O O2 0.700557 0.850279 0.435050
O O3 0.784347 0.001190 0.389744
O O4 0.624883 0.946720 0.425048
O O5 0.590011 0.180022 0.193069
O O6 0.477656 0.238828 0.186258
O O7 0.469622 0.137248 0.265807
O O8 0.427937 0.067597 0.167956
O O9 0.516631 0.758316 0.070230
O O10 0.414226 0.585775 0.065760
O O11 0.567221 0.650450 0.110150
O O12 0.545631 0.665159 0.000000
O O13 0.621533 0.810767 0.720747
O O14 0.600679 0.922811 0.782435
O O15 0.734736 0.975476 0.710454
O O16 0.575513 0.918863 0.675855
O O17 0.047931 0.523966 0.821169
O O18 0.837818 0.918909 0.674967
O O19 0.906526 0.813052 0.684368
O O20 0.763677 0.527354 0.654236
O O21 0.596157 0.403844 0.665027
O O22 0.629560 0.558502 0.634779
O O23 0.473469 0.946937 0.607223
#
# Coordination Sequence:
#
# PCOD9585444 Si02
#       8
#    12  12  12  12  12  12  12  12
#     4   9  19  35  50  64  84 110 140 177 222 266
#     4   9  16  26  41  63  90 119 149 182 217 254
#     4   9  17  29  46  67  90 118 153 193 233 270
#     4  10  19  30  43  62  89 121 146 172 217 267
#     4  10  18  29  45  65  91 120 152 188 222 263
#     4   9  18  31  48  68  90 115 142 174 214 262
#     4   9  16  26  41  63  90 117 143 173 210 251
#     4  10  18  29  46  66  87 112 144 180 216 258
#
# _framework density 14.855772999999999
#
# number of rings (size 3 to 8) (size 9 to 14) (size 15 to 20)
#    0.000    2.625    1.250    2.375    0.000    4.500 
#    0.000    0.000    0.000    6.375    0.000    0.000 
#    0.000    2.000    0.000    0.000    0.000    1.500 
#
# Total GULP energy -534909.346916 kJ/mol
# GULP energy per Si atom -5571.972364 kJ/mol
# Density = 1.482196 g / cm^3
# Si number density = 14.855773 Si / 1000 Ang^3
#
#
#
# Elastic Constant Matrix: (Units=GPa)
#
#
# Indices 1 2 3 4 5 6 
#
# 1 49.0536 16.3559 17.7228 0.0000 0.0001 0.0000
# 2 16.3559 49.0536 17.7228 0.0000 -0.0001 0.0000
# 3 17.7228 17.7228 63.9876 0.0000 0.0000 0.0000
# 4 0.0000 0.0000 0.0000 14.3601 0.0000 -0.0001
# 5 0.0001 -0.0001 0.0000 0.0000 14.3601 0.0000
# 6 0.0000 0.0000 0.0000 -0.0001 0.0000 16.3488
#
#
#
# Elastic Compliance Matrix: (Units=1/GPa)
#
#
# Indices 1 2 3 4 5 6 
#
# 1 0.024286 -0.006298 -0.004982 0.000000 0.000000 0.000000
# 2 -0.006298 0.024286 -0.004982 0.000000 0.000000 0.000000
# 3 -0.004982 -0.004982 0.018388 0.000000 0.000000 0.000000
# 4 0.000000 0.000000 0.000000 0.069637 0.000000 0.000000
# 5 0.000000 0.000000 0.000000 0.000000 0.069637 0.000000
# 6 0.000000 0.000000 0.000000 0.000000 0.000000 0.061166
#
#
# Mechanical properties :
#
#
# Convention : Reuss Voigt Hill
#
# Bulk Modulus (GPa) = 29.03992 29.52197 29.28095
# Shear Modulus (GPa) = 16.05637 16.36670 16.21154
#
# Velocity S-wave (km/s) = 3.29114 3.32280 3.30701
# Velocity P-wave (km/s) = 5.83374 5.88531 5.85958
#
# Compressibility (1/GPa) = 0.03443536
#
# Stress axis : x y z
#
# Youngs Moduli (GPa) = 41.17650 41.17650 54.38357
#
# Poissons Ratio (x) = 0.25931 0.27095
# Poissons Ratio (y) = 0.25931 0.27095
# Poissons Ratio (z) = 0.20515 0.20515
#
# Static dielectric constant tensor:
#      x y z
#    x 1.492440 0.000000 0.000000 
#    y 0.000000 1.492440 0.000000 
#    z 0.000000 0.000000 1.484740 
# 
# From -- ./inp_files/3725.got.cif
#   From: 2010.05.17/outbox.cif.g08.bks.cpg/sg187_2_cif.got.tgz:3725.got - 2010.05.20 12:09:04.
