data_PCOD9585890
_publ_section_title
;
Structure prediction by ZEFSAII (Michael W. Deem and Ramdas Pophale) SiO2 
 PCOD9585890
Probable space group: P -6 C 2
;
_chemical_formula_sum "Si O2"
_cell_formula_units_Z 60
_cell_length_a 15.667417
_cell_length_b 15.667417
_cell_length_c 13.762991
_cell_angle_alpha 90.000000
_cell_angle_beta 90.000000
_cell_angle_gamma 120.000000
_cell_volume 2925.757068
_symmetry_space_group_name_H-M "P -6 C 2"
_symmetry_group_IT_number 188
_symmetry_cell_setting 'hexagonal'
loop_
_space_group_symop_operation_xyz
x,y,z
-x+y,-x,1/2-z
-y,x-y,z
x,y,1/2-z
-x+y,-x,z
-y,x-y,1/2-z
-y,-x,-z
-x+y,y,-z
x,x-y,-z
-x+y,y,1/2+z
x,x-y,1/2+z
-y,-x,1/2+z
loop_
_atom_site_type_symbol
_atom_site_label
_atom_site_fract_x
_atom_site_fract_y
_atom_site_fract_z
Si Si1 0.906772 0.701945 0.857863
Si Si2 0.534566 0.710633 0.366158
Si Si3 0.759548 0.867236 0.136939
Si Si4 0.383656 0.885057 0.867967
Si Si5 0.720087 0.028422 0.062674
O O1 0.923216 0.672583 0.750000
O O2 0.795399 0.677813 0.869054
O O3 0.989599 0.819145 0.866592
O O4 0.928500 0.659222 0.954651
O O5 0.522511 0.703498 0.250000
O O6 0.650682 0.774206 0.384219
O O7 0.491861 0.780634 0.397456
O O8 0.479676 0.598727 0.401032
O O9 0.758938 0.896492 0.250000
O O10 0.764352 0.953864 0.071913
O O11 0.384205 0.890512 0.750000
O O12 0.362162 0.969545 0.904253
#
# Coordination Sequence:
#
# PCOD9585890 Si02
#       5
#    12  12  12  12  12
#     4  10  20  33  49  68  96 135 177 219 269 317
#     4   8  14  24  43  72 105 139 170 211 266 319
#     4   9  17  31  49  71 103 137 169 210 263 319
#     4   9  15  26  47  76 109 138 174 221 271 325
#     4  10  19  32  50  73  99 133 178 223 267 320
#
# _framework density 20.507511000000001
#
# number of rings (size 3 to 8) (size 9 to 14) (size 15 to 20)
#    0.000    2.800    0.000    4.000    0.000    1.600 
#    1.200    1.000    0.000    0.000    0.000    8.400 
#    2.000    0.000    3.600    0.000    3.200    0.000 
#
# Total GULP energy -334555.784492 kJ/mol
# GULP energy per Si atom -5575.929742 kJ/mol
# Density = 2.046084 g / cm^3
# Si number density = 20.507511 Si / 1000 Ang^3
#
#
#
# Elastic Constant Matrix: (Units=GPa)
#
#
# Indices 1 2 3 4 5 6 
#
# 1 77.4468 32.2465 28.6488 0.0000 0.0000 0.0000
# 2 32.2465 77.4468 28.6488 0.0000 0.0000 0.0000
# 3 28.6488 28.6488 128.8335 0.0000 0.0000 0.0000
# 4 0.0000 0.0000 0.0000 24.5359 0.0000 0.0000
# 5 0.0000 0.0000 0.0000 0.0000 24.5359 0.0000
# 6 0.0000 0.0000 0.0000 0.0000 0.0000 22.6002
#
#
#
# Elastic Compliance Matrix: (Units=1/GPa)
#
#
# Indices 1 2 3 4 5 6 
#
# 1 0.016219 -0.005905 -0.002294 0.000000 0.000000 0.000000
# 2 -0.005905 0.016219 -0.002294 0.000000 0.000000 0.000000
# 3 -0.002294 -0.002294 0.008782 0.000000 0.000000 0.000000
# 4 0.000000 0.000000 0.000000 0.040757 0.000000 0.000000
# 5 0.000000 0.000000 0.000000 0.000000 0.040757 0.000000
# 6 0.000000 0.000000 0.000000 0.000000 0.000000 0.044247
#
#
# Mechanical properties :
#
#
# Convention : Reuss Voigt Hill
#
# Bulk Modulus (GPa) = 49.41610 51.42394 50.42002
# Shear Modulus (GPa) = 25.67920 27.27992 26.47956
#
# Velocity S-wave (km/s) = 3.54246 3.65120 3.59724
# Velocity P-wave (km/s) = 6.39382 6.55020 6.47248
#
# Compressibility (1/GPa) = 0.02023632
#
# Stress axis : x y z
#
# Youngs Moduli (GPa) = 61.65587 61.65587 113.86895
#
# Poissons Ratio (x) = 0.36406 0.26117
# Poissons Ratio (y) = 0.36406 0.26117
# Poissons Ratio (z) = 0.14142 0.14142
#
# Static dielectric constant tensor:
#      x y z
#    x 1.742380 0.000000 0.000000 
#    y 0.000000 1.742380 0.000000 
#    z 0.000000 0.000000 1.860350 
# 
# From -- ./inp_files/2285.got.cif
#   From: 2010.05.17/outbox.cif.g08.bks.cpg/sg188_2_cif.got.tgz:2285.got - 2010.05.20 12:11:46.
