data_PCOD9585746
_publ_section_title
;
Structure prediction by ZEFSAII (Michael W. Deem and Ramdas Pophale) SiO2 
 PCOD9585746
Probable space group: P -6 M 2
;
_chemical_formula_sum "Si O2"
_cell_formula_units_Z 78
_cell_length_a 17.275438
_cell_length_b 17.275438
_cell_length_c 18.792936
_cell_angle_alpha 90.000000
_cell_angle_beta 90.000000
_cell_angle_gamma 120.000000
_cell_volume 4857.171085
_symmetry_space_group_name_H-M "P -6 M 2"
_symmetry_group_IT_number 187
_symmetry_cell_setting 'hexagonal'
loop_
_space_group_symop_operation_xyz
x,y,z
-x+y,-x,-z
-y,x-y,z
x,y,-z
-x+y,-x,z
-y,x-y,-z
-y,-x,-z
-x+y,y,-z
x,x-y,-z
-x+y,y,z
x,x-y,z
-y,-x,z
loop_
_atom_site_type_symbol
_atom_site_label
_atom_site_fract_x
_atom_site_fract_y
_atom_site_fract_z
Si Si1 0.752561 0.692952 0.288678
Si Si2 0.999120 0.183833 0.000000
Si Si3 0.157656 0.489682 0.913472
Si Si4 0.667516 0.151090 0.218527
Si Si5 0.955516 0.572093 0.081035
Si Si6 0.000638 0.184239 0.582531
Si Si7 0.185598 0.999854 0.844254
O O1 0.845462 0.690923 0.287682
O O2 0.677488 0.591518 0.274316
O O3 0.753313 0.740788 0.361591
O O4 0.759100 0.753338 0.221366
O O5 0.994436 0.221592 0.077033
O O6 0.092522 0.185043 0.000000
O O7 0.917598 0.082403 0.000000
O O8 0.235989 0.471978 0.888742
O O9 0.175852 0.587926 0.892206
O O10 0.056874 0.417335 0.894069
O O11 0.158376 0.489201 0.000000
O O12 0.573756 0.147512 0.223620
O O13 0.749057 0.250944 0.228105
O O14 0.675431 0.115760 0.140334
O O15 0.952542 0.476271 0.077729
O O16 0.939639 0.591458 0.000000
O O17 0.001353 0.209645 0.500000
O O18 0.915781 0.084220 0.591238
O O19 0.091339 0.182677 0.597013
O O20 0.171930 0.085965 0.838839
O O21 0.090622 0.909379 0.840871
#
# Coordination Sequence:
#
# PCOD9585746 Si02
#       7
#    12   6  12  12  12  12  12
#     4   9  18  30  43  64  91 117 147 185 230 276
#     4   8  13  20  32  50  75 112 158 196 216 230
#     4   8  12  19  34  56  82 110 139 166 196 245
#     4  10  20  35  52  66  79 102 143 196 253 309
#     4   8  15  28  44  63  86 110 138 183 242 292
#     4   9  16  27  46  73 105 138 166 186 204 236
#     4   9  15  24  38  58  86 121 158 189 213 244
#
# _framework density 16.058731000000002
#
# number of rings (size 3 to 8) (size 9 to 14) (size 15 to 20)
#    0.000    3.231    0.000    2.077    0.000    2.769 
#    1.385    3.077    0.000    1.385    0.000    0.000 
#    0.000    1.231    0.000    4.154    0.000   10.000 
#
# Total GULP energy -434577.022305 kJ/mol
# GULP energy per Si atom -5571.500286 kJ/mol
# Density = 1.602218 g / cm^3
# Si number density = 16.058731 Si / 1000 Ang^3
#
#
#
# Elastic Constant Matrix: (Units=GPa)
#
#
# Indices 1 2 3 4 5 6 
#
# 1 66.4938 30.4674 43.0644 0.0000 0.0002 0.0000
# 2 30.4674 66.4938 43.0644 0.0000 -0.0002 0.0000
# 3 43.0644 43.0644 89.1012 0.0000 0.0000 0.0000
# 4 0.0000 0.0000 0.0000 18.6709 0.0000 -0.0002
# 5 0.0002 -0.0002 0.0000 0.0000 18.6709 0.0000
# 6 0.0000 0.0000 0.0000 -0.0002 0.0000 18.0132
#
#
#
# Elastic Compliance Matrix: (Units=1/GPa)
#
#
# Indices 1 2 3 4 5 6 
#
# 1 0.022915 -0.004843 -0.008735 0.000000 0.000000 0.000000
# 2 -0.004843 0.022915 -0.008735 0.000000 0.000000 0.000000
# 3 -0.008735 -0.008735 0.019666 0.000000 0.000000 0.000000
# 4 0.000000 0.000000 0.000000 0.053559 0.000000 0.000001
# 5 0.000000 0.000000 0.000000 0.000000 0.053559 0.000000
# 6 0.000000 0.000000 0.000000 0.000001 0.000000 0.055515
#
#
# Mechanical properties :
#
#
# Convention : Reuss Voigt Hill
#
# Bulk Modulus (GPa) = 47.91047 50.58679 49.24863
# Shear Modulus (GPa) = 17.87559 18.10382 17.98971
#
# Velocity S-wave (km/s) = 3.33999 3.36125 3.35064
# Velocity P-wave (km/s) = 6.69129 6.82887 6.76043
#
# Compressibility (1/GPa) = 0.02087226
#
# Stress axis : x y z
#
# Youngs Moduli (GPa) = 43.63984 43.63984 50.84794
#
# Poissons Ratio (x) = 0.21133 0.44414
# Poissons Ratio (y) = 0.21133 0.44414
# Poissons Ratio (z) = 0.38118 0.38118
#
# Static dielectric constant tensor:
#      x y z
#    x 1.549530 0.000000 0.000000 
#    y 0.000000 1.549530 0.000000 
#    z 0.000000 0.000000 1.543200 
# 
# From -- ./inp_files/3178.got.cif
#   From: 2010.05.17/outbox.cif.g08.bks.cpg/sg187_2_cif.got.tgz:3178.got - 2010.05.20 12:09:04.
