data_PCOD9585216
_publ_section_title
;
Structure prediction by ZEFSAII (Michael W. Deem and Ramdas Pophale) SiO2 
 PCOD9585216
Probable space group: P 63 C M
;
_chemical_formula_sum "Si O2"
_cell_formula_units_Z 60
_cell_length_a 28.069679
_cell_length_b 28.069679
_cell_length_c 5.395906
_cell_angle_alpha 90.000000
_cell_angle_beta 90.000000
_cell_angle_gamma 120.000000
_cell_volume 3681.882285
_symmetry_space_group_name_H-M "P 63 C M"
_symmetry_group_IT_number 185
_symmetry_cell_setting 'hexagonal'
loop_
_space_group_symop_operation_xyz
x,y,z
x-y,x,1/2+z
-y,x-y,z
-x,-y,1/2+z
-x+y,-x,z
y,-x+y,1/2+z
-x+y,y,1/2+z
x,x-y,1/2+z
-y,-x,1/2+z
y,x,z
x-y,-y,z
-x,-x+y,z
loop_
_atom_site_type_symbol
_atom_site_label
_atom_site_fract_x
_atom_site_fract_y
_atom_site_fract_z
Si Si1 0.768257 0.590437 0.675880
Si Si2 0.061288 0.466168 0.205321
Si Si3 0.610098 0.437422 0.255305
Si Si4 0.256275 0.723408 0.664650
Si Si5 0.341115 0.936933 0.706684
O O1 0.801881 0.608867 0.418716
O O2 0.741175 0.523333 0.669108
O O3 0.720766 0.606154 0.699145
O O4 0.107395 0.528587 0.238192
O O5 0.065823 0.435071 0.449443
O O6 0.000000 0.455668 0.196800
O O7 0.070090 0.440832 0.951043
O O8 0.604905 0.413562 0.528497
O O9 0.673675 0.479367 0.192881
O O10 0.278588 0.714386 0.411193
O O11 0.353163 0.000000 0.721879
#
# Coordination Sequence:
#
# PCOD9585216 Si02
#       5
#    12  12  12  12  12
#     4  10  18  29  50  75  97 123 159 192 229 282
#     4  10  20  34  51  70  98 131 156 184 232 295
#     4  12  24  36  52  74  96 119 153 194 239 284
#     4  10  19  34  55  70  86 110 146 187 226 277
#     4  10  19  33  53  79 105 127 157 201 248 288
#
# _framework density 16.296012000000001
#
# number of rings (size 3 to 8) (size 9 to 14) (size 15 to 20)
#    0.000    1.600    0.000    8.400    0.000    0.800 
#    0.000    0.000    0.000    8.000    0.000    0.000 
#    0.000    0.000    0.000    0.000    0.000    0.000 
#
# Total GULP energy -334664.576547 kJ/mol
# GULP energy per Si atom -5577.742942 kJ/mol
# Density = 1.625892 g / cm^3
# Si number density = 16.296012 Si / 1000 Ang^3
#
#
#
# Elastic Constant Matrix: (Units=GPa)
#
#
# Indices 1 2 3 4 5 6 
#
# 1 47.7021 10.0645 11.5091 0.0000 0.0000 0.0000
# 2 10.0645 47.7021 11.5091 0.0000 0.0000 0.0000
# 3 11.5091 11.5091 152.4445 0.0000 0.0000 0.0000
# 4 0.0000 0.0000 0.0000 19.2663 0.0000 0.0000
# 5 0.0000 0.0000 0.0000 0.0000 19.2663 0.0000
# 6 0.0000 0.0000 0.0000 0.0000 0.0000 18.8188
#
#
#
# Elastic Compliance Matrix: (Units=1/GPa)
#
#
# Indices 1 2 3 4 5 6 
#
# 1 0.022209 -0.004361 -0.001347 0.000000 0.000000 0.000000
# 2 -0.004361 0.022209 -0.001347 0.000000 0.000000 0.000000
# 3 -0.001347 -0.001347 0.006763 0.000000 0.000000 0.000000
# 4 0.000000 0.000000 0.000000 0.051904 0.000000 0.000000
# 5 0.000000 0.000000 0.000000 0.000000 0.051904 0.000000
# 6 0.000000 0.000000 0.000000 0.000000 0.000000 0.053138
#
#
# Mechanical properties :
#
#
# Convention : Reuss Voigt Hill
#
# Bulk Modulus (GPa) = 26.97652 34.89047 30.93349
# Shear Modulus (GPa) = 21.31339 25.78802 23.55071
#
# Velocity S-wave (km/s) = 3.62040 3.98235 3.80568
# Velocity P-wave (km/s) = 5.83664 6.52705 6.19148
#
# Compressibility (1/GPa) = 0.03706928
#
# Stress axis : x y z
#
# Youngs Moduli (GPa) = 45.02765 45.02765 147.85851
#
# Poissons Ratio (x) = 0.19635 0.19923
# Poissons Ratio (y) = 0.19635 0.19923
# Poissons Ratio (z) = 0.06067 0.06067
#
# Static dielectric constant tensor:
#      x y z
#    x 1.562070 0.000000 0.000000 
#    y 0.000000 1.562070 0.000000 
#    z 0.000000 0.000000 1.668540 
# 
# From -- ./inp_files/129.got.cif
#   From: 2010.05.17/outbox.cif.g08.bks.cpg/sg185_cif.got.tgz:129.got - 2010.05.20 12:05:34.
