data_PCOD9585331
_publ_section_title
;
Structure prediction by ZEFSAII (Michael W. Deem and Ramdas Pophale) SiO2 
 PCOD9585331
Probable space group: P 63 M C
;
_chemical_formula_sum "Si O2"
_cell_formula_units_Z 96
_cell_length_a 17.264953
_cell_length_b 17.264953
_cell_length_c 25.859562
_cell_angle_alpha 90.000000
_cell_angle_beta 90.000000
_cell_angle_gamma 120.000000
_cell_volume 6675.481508
_symmetry_space_group_name_H-M "P 63 M C"
_symmetry_group_IT_number 186
_symmetry_cell_setting 'hexagonal'
loop_
_space_group_symop_operation_xyz
x,y,z
x-y,x,1/2+z
-y,x-y,z
-x,-y,1/2+z
-x+y,-x,z
y,-x+y,1/2+z
-x+y,y,z
x,x-y,z
-y,-x,z
y,x,1/2+z
x-y,-y,1/2+z
-x,-x+y,1/2+z
loop_
_atom_site_type_symbol
_atom_site_label
_atom_site_fract_x
_atom_site_fract_y
_atom_site_fract_z
Si Si1 0.148196 0.481714 0.479990
Si Si2 0.246180 0.941425 0.427358
Si Si3 0.437284 0.054347 0.088994
Si Si4 0.948045 0.713451 0.221874
Si Si5 0.181694 0.002276 0.521480
Si Si6 0.999253 0.814208 0.330033
Si Si7 0.693469 0.934797 0.120428
Si Si8 0.847482 0.513809 0.197163
O O1 0.247455 0.494910 0.478520
O O2 0.150839 0.575420 0.473970
O O3 0.087570 0.407426 0.437516
O O4 0.104090 0.440576 0.535863
O O5 0.151987 0.848014 0.428071
O O6 0.244165 0.989317 0.374930
O O7 0.242914 0.996622 0.476583
O O8 0.514759 0.029518 0.085416
O O9 0.462665 0.122613 0.137099
O O10 0.342262 0.968877 0.102131
O O11 0.860495 0.720989 0.207900
O O12 0.910789 0.606953 0.226608
O O13 0.987115 0.766515 0.274842
O O14 0.019115 0.751954 0.175537
O O15 0.161005 0.080503 0.508157
O O16 0.229987 0.024416 0.576655
O O17 0.091755 0.908246 0.523939
O O18 0.087880 0.912121 0.330054
O O19 0.911080 0.822159 0.339382
O O20 0.658909 0.829455 0.122657
O O21 0.745808 0.491616 0.203104
O O22 0.858294 0.429147 0.211424
#
# Coordination Sequence:
#
# PCOD9585331 Si02
#       8
#    12  12  12  12  12  12  12  12
#     4  10  18  29  45  66  90 116 143 173 213 264
#     4   9  18  30  44  61  85 113 141 179 222 258
#     4   9  17  28  43  63  90 117 143 177 216 261
#     4   9  18  30  44  63  90 121 151 186 227 263
#     4  10  18  27  40  60  87 117 147 177 214 260
#     4  10  19  32  48  65  85 114 154 194 226 259
#     4  10  18  28  44  65  89 119 150 179 218 268
#     4   9  16  26  42  65  91 119 147 177 215 263
#
# _framework density 14.380986
#
# number of rings (size 3 to 8) (size 9 to 14) (size 15 to 20)
#    0.000    2.500    1.250    2.000    0.000    1.000 
#    0.000    3.125    0.000    4.250    0.000    0.000 
#    0.000    0.000    0.000    1.000    0.000    0.000 
#
# Total GULP energy -534634.238406 kJ/mol
# GULP energy per Si atom -5569.106650 kJ/mol
# Density = 1.434825 g / cm^3
# Si number density = 14.380986 Si / 1000 Ang^3
#
#
#
# Elastic Constant Matrix: (Units=GPa)
#
#
# Indices 1 2 3 4 5 6 
#
# 1 76.1864 37.9752 38.4511 0.0000 0.0000 0.0000
# 2 37.9752 76.1864 38.4511 0.0000 0.0000 0.0000
# 3 38.4511 38.4511 72.7734 0.0000 0.0000 0.0000
# 4 0.0000 0.0000 0.0000 18.8416 0.0000 0.0000
# 5 0.0000 0.0000 0.0000 0.0000 18.8416 0.0000
# 6 0.0000 0.0000 0.0000 0.0000 0.0000 19.1056
#
#
#
# Elastic Compliance Matrix: (Units=1/GPa)
#
#
# Indices 1 2 3 4 5 6 
#
# 1 0.019885 -0.006285 -0.007186 0.000000 0.000000 0.000000
# 2 -0.006285 0.019885 -0.007186 0.000000 0.000000 0.000000
# 3 -0.007186 -0.007186 0.021335 0.000000 0.000000 0.000000
# 4 0.000000 0.000000 0.000000 0.053074 0.000000 0.000000
# 5 0.000000 0.000000 0.000000 0.000000 0.053074 0.000000
# 6 0.000000 0.000000 0.000000 0.000000 0.000000 0.052341
#
#
# Mechanical properties :
#
#
# Convention : Reuss Voigt Hill
#
# Bulk Modulus (GPa) = 50.52645 50.54455 50.53550
# Shear Modulus (GPa) = 18.69124 18.70900 18.70012
#
# Velocity S-wave (km/s) = 3.60907 3.61079 3.60993
# Velocity P-wave (km/s) = 7.25105 7.25305 7.25205
#
# Compressibility (1/GPa) = 0.01979161
#
# Stress axis : x y z
#
# Youngs Moduli (GPa) = 50.28865 50.28865 46.87177
#
# Poissons Ratio (x) = 0.31607 0.33681
# Poissons Ratio (y) = 0.31607 0.33681
# Poissons Ratio (z) = 0.36137 0.36137
#
# Static dielectric constant tensor:
#      x y z
#    x 1.469630 0.000000 0.000000 
#    y 0.000000 1.469630 0.000000 
#    z 0.000000 0.000000 1.467930 
# 
# From -- ./inp_files/3904.got.cif
#   From: 2010.05.17/outbox.cif.g08.bks.cpg/sg186_2_cif.got.tgz:3904.got - 2010.05.20 12:07:08.
