data_PCOD9585855
_publ_section_title
;
Structure prediction by ZEFSAII (Michael W. Deem and Ramdas Pophale) SiO2 
 PCOD9585855
Probable space group: P -6 C 2
;
_chemical_formula_sum "Si O2"
_cell_formula_units_Z 70
_cell_length_a 15.488153
_cell_length_b 15.488153
_cell_length_c 20.736690
_cell_angle_alpha 90.000000
_cell_angle_beta 90.000000
_cell_angle_gamma 120.000000
_cell_volume 4307.936840
_symmetry_space_group_name_H-M "P -6 C 2"
_symmetry_group_IT_number 188
_symmetry_cell_setting 'hexagonal'
loop_
_space_group_symop_operation_xyz
x,y,z
-x+y,-x,1/2-z
-y,x-y,z
x,y,1/2-z
-x+y,-x,z
-y,x-y,1/2-z
-y,-x,-z
-x+y,y,-z
x,x-y,-z
-x+y,y,1/2+z
x,x-y,1/2+z
-y,-x,1/2+z
loop_
_atom_site_type_symbol
_atom_site_label
_atom_site_fract_x
_atom_site_fract_y
_atom_site_fract_z
Si Si1 0.333335 0.666668 0.326925
Si Si2 0.001131 0.199506 0.500000
Si Si3 0.931071 0.656194 0.750000
Si Si4 0.069299 0.342091 0.122316
Si Si5 0.104227 0.552113 0.129273
Si Si6 0.272793 0.930702 0.622316
Si Si7 0.931071 0.656193 0.250000
Si Si8 0.954695 0.477347 0.250000
O O1 0.333334 0.666668 0.250000
O O2 0.390163 0.780324 0.350576
O O3 0.080907 0.161813 0.500000
O O4 0.022987 0.265467 0.436182
O O5 0.022986 0.265467 0.563818
O O6 0.890692 0.109309 0.500000
O O7 0.836588 0.673176 0.750000
O O8 0.896284 0.538260 0.750000
O O9 0.000405 0.700384 0.813815
O O10 0.082312 0.447774 0.099083
O O11 0.178513 0.357025 0.137164
O O12 0.082311 0.634537 0.099083
O O13 0.030153 0.515077 0.190133
O O14 0.299616 0.999596 0.686185
O O15 0.896284 0.538259 0.250000
#
# Coordination Sequence:
#
# PCOD9585855 Si02
#       8
#     4  12   6  12  12  12   6   6
#     4  12  18  24  51  79 116 160 177 187 248 316
#     4  10  21  37  54  72  96 134 176 215 257 306
#     4  10  19  33  52  73  99 130 168 217 263 297
#     4  10  20  33  52  77 106 134 168 209 251 307
#     4  10  18  29  48  77 110 139 170 203 244 302
#     4  10  20  33  52  77 106 134 168 209 251 307
#     4  10  19  33  52  73  99 130 168 217 263 297
#     4   8  18  30  44  72 100 130 172 210 246 302
#
# _framework density 16.249078999999998
#
# number of rings (size 3 to 8) (size 9 to 14) (size 15 to 20)
#    0.000    2.057    2.571    1.714    0.000    0.686 
#    0.514    0.000    0.000    4.800    0.000    0.000 
#    0.000    0.000    0.000    0.000    0.000    0.000 
#
# Total GULP energy -389924.179809 kJ/mol
# GULP energy per Si atom -5570.345426 kJ/mol
# Density = 1.621210 g / cm^3
# Si number density = 16.249079 Si / 1000 Ang^3
#
#
#
# Elastic Constant Matrix: (Units=GPa)
#
#
# Indices 1 2 3 4 5 6 
#
# 1 142.9884 23.9796 26.2750 -0.0013 0.0002 -0.0027
# 2 23.9796 142.9859 26.2757 0.0014 -0.0002 0.0024
# 3 26.2750 26.2757 62.0655 0.0000 0.0000 0.0002
# 4 -0.0013 0.0014 0.0000 18.0491 0.0000 0.0002
# 5 0.0002 -0.0002 0.0000 0.0000 18.0494 0.0013
# 6 -0.0027 0.0024 0.0002 0.0002 0.0013 59.5312
#
#
#
# Elastic Compliance Matrix: (Units=1/GPa)
#
#
# Indices 1 2 3 4 5 6 
#
# 1 0.007656 -0.000746 -0.002925 0.000001 0.000000 0.000000
# 2 -0.000746 0.007656 -0.002925 -0.000001 0.000000 0.000000
# 3 -0.002925 -0.002925 0.018589 0.000000 0.000000 0.000000
# 4 0.000001 -0.000001 0.000000 0.055404 0.000000 0.000000
# 5 0.000000 0.000000 0.000000 0.000000 0.055403 -0.000001
# 6 0.000000 0.000000 0.000000 0.000000 -0.000001 0.016798
#
#
# Mechanical properties :
#
#
# Convention : Reuss Voigt Hill
#
# Bulk Modulus (GPa) = 48.29175 55.67782 51.98478
# Shear Modulus (GPa) = 27.53244 37.22659 32.37951
#
# Velocity S-wave (km/s) = 4.12078 4.79163 4.46881
# Velocity P-wave (km/s) = 7.24053 8.05931 7.66087
#
# Compressibility (1/GPa) = 0.02070747
#
# Stress axis : x y z
#
# Youngs Moduli (GPa) = 130.61171 130.60859 53.79567
#
# Poissons Ratio (x) = 0.09749 0.15736
# Poissons Ratio (y) = 0.09750 0.15737
# Poissons Ratio (z) = 0.38207 0.38208
#
# Static dielectric constant tensor:
#      x y z
#    x 1.541940 0.000000 0.000000 
#    y 0.000000 1.541940 0.000000 
#    z 0.000000 0.000000 1.531210 
# 
# From -- ./inp_files/3259.got.cif
#   From: 2010.05.17/outbox.cif.g08.bks.cpg/sg188_2_cif.got.tgz:3259.got - 2010.05.20 12:11:46.
