data_PCOD9585662
_publ_section_title
;
Structure prediction by ZEFSAII (Michael W. Deem and Ramdas Pophale) SiO2 
 PCOD9585662
Probable space group: P -6 M 2
;
_chemical_formula_sum "Si O2"
_cell_formula_units_Z 60
_cell_length_a 12.677403
_cell_length_b 12.677403
_cell_length_c 26.592651
_cell_angle_alpha 90.000000
_cell_angle_beta 90.000000
_cell_angle_gamma 120.000000
_cell_volume 3701.287821
_symmetry_space_group_name_H-M "P -6 M 2"
_symmetry_group_IT_number 187
_symmetry_cell_setting 'hexagonal'
loop_
_space_group_symop_operation_xyz
x,y,z
-x+y,-x,-z
-y,x-y,z
x,y,-z
-x+y,-x,z
-y,x-y,-z
-y,-x,-z
-x+y,y,-z
x,x-y,-z
-x+y,y,z
x,x-y,z
-y,-x,z
loop_
_atom_site_type_symbol
_atom_site_label
_atom_site_fract_x
_atom_site_fract_y
_atom_site_fract_z
Si Si1 0.332786 0.416034 0.000000
Si Si2 0.251177 0.251139 0.097919
Si Si3 0.749032 0.748563 0.706702
Si Si4 0.584313 0.666316 0.500000
Si Si5 0.917030 0.584025 0.195987
Si Si6 0.080273 0.414118 0.389842
O O1 0.313207 0.334920 0.049354
O O2 0.462493 0.537508 0.000000
O O3 0.223542 0.447084 0.000000
O O4 0.239086 0.119543 0.091073
O O5 0.332459 0.311381 0.147244
O O6 0.118821 0.237641 0.104019
O O7 0.884325 0.768650 0.704768
O O8 0.682253 0.661642 0.753985
O O9 0.677131 0.687470 0.655378
O O10 0.753007 0.876504 0.712776
O O11 0.447818 0.552183 0.500000
O O12 0.579860 0.789930 0.500000
O O13 0.637172 0.662298 0.445476
O O14 0.777236 0.554471 0.196516
O O15 0.923774 0.461887 0.194303
O O16 0.217843 0.435686 0.389265
O O17 0.083471 0.541736 0.383060
#
# Coordination Sequence:
#
# PCOD9585662 Si02
#       6
#     6  12  12   6  12  12
#     4  10  20  34  52  74 102 136 172 210 252 296
#     4  10  20  34  54  78 104 134 167 204 242 284
#     4  10  20  33  49  68  93 126 162 199 236 279
#     4   8  13  22  39  64  92 120 150 186 232 284
#     4  10  20  34  52  73  97 125 158 198 243 290
#     4   9  16  27  45  69  95 121 151 191 239 288
#
# _framework density 16.210574000000001
#
# number of rings (size 3 to 8) (size 9 to 14) (size 15 to 20)
#    0.000    2.400    0.000    3.100    0.000    1.600 
#    0.000    3.500    0.000    8.800    0.000    1.400 
#    0.000    0.000    0.000    0.000    0.000    0.000 
#
# Total GULP energy -334464.521379 kJ/mol
# GULP energy per Si atom -5574.408690 kJ/mol
# Density = 1.617368 g / cm^3
# Si number density = 16.210574 Si / 1000 Ang^3
#
#
#
# Elastic Constant Matrix: (Units=GPa)
#
#
# Indices 1 2 3 4 5 6 
#
# 1 89.6745 79.8820 84.0468 0.0000 0.0003 0.0000
# 2 79.8820 89.6745 84.0468 0.0000 -0.0003 0.0000
# 3 84.0468 84.0468 175.6555 0.0000 0.0000 0.0000
# 4 0.0000 0.0000 0.0000 23.1380 0.0000 -0.0003
# 5 0.0003 -0.0003 0.0000 0.0000 23.1380 0.0000
# 6 0.0000 0.0000 0.0000 -0.0003 0.0000 4.8963
#
#
#
# Elastic Compliance Matrix: (Units=1/GPa)
#
#
# Indices 1 2 3 4 5 6 
#
# 1 0.056669 -0.045449 -0.005368 0.000000 -0.000001 0.000000
# 2 -0.045449 0.056669 -0.005368 0.000000 0.000001 0.000000
# 3 -0.005368 -0.005368 0.010830 0.000000 0.000000 0.000000
# 4 0.000000 0.000000 0.000000 0.043219 0.000000 0.000002
# 5 -0.000001 0.000001 0.000000 0.000000 0.043219 0.000000
# 6 0.000000 0.000000 0.000000 0.000002 0.000000 0.204237
#
#
# Mechanical properties :
#
#
# Convention : Reuss Voigt Hill
#
# Bulk Modulus (GPa) = 84.77249 94.55067 89.66158
# Shear Modulus (GPa) = 9.41356 17.36972 13.39164
#
# Velocity S-wave (km/s) = 2.41240 3.27694 2.87732
# Velocity P-wave (km/s) = 7.75678 8.53059 8.15287
#
# Compressibility (1/GPa) = 0.01179628
#
# Stress axis : x y z
#
# Youngs Moduli (GPa) = 17.64625 17.64625 92.33386
#
# Poissons Ratio (x) = 0.80201 0.49569
# Poissons Ratio (y) = 0.80201 0.49569
# Poissons Ratio (z) = 0.09473 0.09473
#
# Static dielectric constant tensor:
#      x y z
#    x 1.511980 0.000000 0.000000 
#    y 0.000000 1.511980 0.000000 
#    z 0.000000 0.000000 1.559780 
# 
# From -- ./inp_files/4178.got.cif
#   From: 2010.05.17/outbox.cif.g08.bks.cpg/sg187_3_cif.got.tgz:4178.got - 2010.05.20 12:09:04.
