data_PCOD9585503
_publ_section_title
;
Structure prediction by ZEFSAII (Michael W. Deem and Ramdas Pophale) SiO2 
 PCOD9585503
Probable space group: P -6 M 2
;
_chemical_formula_sum "Si O2"
_cell_formula_units_Z 48
_cell_length_a 18.138754
_cell_length_b 18.138754
_cell_length_c 10.375828
_cell_angle_alpha 90.000000
_cell_angle_beta 90.000000
_cell_angle_gamma 120.000000
_cell_volume 2956.434743
_symmetry_space_group_name_H-M "P -6 M 2"
_symmetry_group_IT_number 187
_symmetry_cell_setting 'hexagonal'
loop_
_space_group_symop_operation_xyz
x,y,z
-x+y,-x,-z
-y,x-y,z
x,y,-z
-x+y,-x,z
-y,x-y,-z
-y,-x,-z
-x+y,y,-z
x,x-y,-z
-x+y,y,z
x,x-y,z
-y,-x,z
loop_
_atom_site_type_symbol
_atom_site_label
_atom_site_fract_x
_atom_site_fract_y
_atom_site_fract_z
Si Si1 0.000629 0.177132 0.000000
Si Si2 0.000390 0.821940 0.500000
Si Si3 0.429112 0.026782 0.844400
Si Si4 0.496460 0.828369 0.843897
Si Si5 0.288690 0.056346 0.248923
O O1 0.993322 0.225133 0.875042
O O2 0.918249 0.081752 0.000000
O O3 0.086642 0.173283 0.000000
O O4 0.087828 0.912173 0.500000
O O5 0.918378 0.836755 0.500000
O O6 0.990938 0.764952 0.624666
O O7 0.526556 0.053111 0.813983
O O8 0.381761 0.068067 0.769988
O O9 0.371737 0.926610 0.810864
O O10 0.425056 0.036303 0.000000
O O11 0.400354 0.800707 0.804627
O O12 0.523353 0.761677 0.796005
O O13 0.496745 0.826391 0.000000
O O14 0.296735 0.148368 0.248928
#
# Coordination Sequence:
#
# PCOD9585503 Si02
#       5
#     6   6  12  12  12
#     4  10  19  30  47  72 102 134 170 214 263 314
#     4  10  21  36  53  74 106 146 184 218 257 310
#     4   9  17  30  47  70  98 128 161 202 260 316
#     4   8  13  20  32  53  83 117 150 182 220 271
#     4  10  20  34  51  73  99 132 175 218 263 315
#
# _framework density 16.235771
#
# number of rings (size 3 to 8) (size 9 to 14) (size 15 to 20)
#    0.000    2.750    1.250    2.750    0.000    3.000 
#    0.000    3.125    0.000    0.500    0.000    0.000 
#    0.000    0.000    0.000    0.000    0.000    0.000 
#
# Total GULP energy -267252.187803 kJ/mol
# GULP energy per Si atom -5567.753913 kJ/mol
# Density = 1.619882 g / cm^3
# Si number density = 16.235771 Si / 1000 Ang^3
#
#
#
# Elastic Constant Matrix: (Units=GPa)
#
#
# Indices 1 2 3 4 5 6 
#
# 1 63.2793 32.9886 36.4016 0.0000 0.0000 0.0000
# 2 32.9886 63.2793 36.4016 0.0000 0.0000 0.0000
# 3 36.4016 36.4016 91.1093 0.0000 0.0000 0.0000
# 4 0.0000 0.0000 0.0000 13.2387 0.0000 0.0000
# 5 0.0000 0.0000 0.0000 0.0000 13.2387 0.0000
# 6 0.0000 0.0000 0.0000 0.0000 0.0000 15.1454
#
#
#
# Elastic Compliance Matrix: (Units=1/GPa)
#
#
# Indices 1 2 3 4 5 6 
#
# 1 0.023949 -0.009064 -0.005947 0.000000 0.000000 0.000000
# 2 -0.009064 0.023949 -0.005947 0.000000 0.000000 0.000000
# 3 -0.005947 -0.005947 0.015728 0.000000 0.000000 0.000000
# 4 0.000000 0.000000 0.000000 0.075536 0.000000 0.000000
# 5 0.000000 0.000000 0.000000 0.000000 0.075536 0.000000
# 6 0.000000 0.000000 0.000000 0.000000 0.000000 0.066027
#
#
# Mechanical properties :
#
#
# Convention : Reuss Voigt Hill
#
# Bulk Modulus (GPa) = 46.06220 47.69462 46.87841
# Shear Modulus (GPa) = 15.15706 15.78297 15.47001
#
# Velocity S-wave (km/s) = 3.05874 3.12125 3.09015
# Velocity P-wave (km/s) = 6.39585 6.51380 6.45510
#
# Compressibility (1/GPa) = 0.02170978
#
# Stress axis : x y z
#
# Youngs Moduli (GPa) = 41.75480 41.75480 63.58027
#
# Poissons Ratio (x) = 0.37847 0.37813
# Poissons Ratio (y) = 0.37847 0.37813
# Poissons Ratio (z) = 0.24833 0.24833
#
# Static dielectric constant tensor:
#      x y z
#    x 1.559250 0.000000 0.000000 
#    y 0.000000 1.559250 0.000000 
#    z 0.000000 0.000000 1.544110 
# 
# From -- ./inp_files/403.got.cif
#   From: 2010.05.17/outbox.cif.g08.bks.cpg/sg187_1_cif.got.tgz:403.got - 2010.05.20 12:09:04.
