data_PCOD9585447
_publ_section_title
;
Structure prediction by ZEFSAII (Michael W. Deem and Ramdas Pophale) SiO2 
 PCOD9585447
Probable space group: P -6 M 2
;
_chemical_formula_sum "Si O2"
_cell_formula_units_Z 72
_cell_length_a 24.617428
_cell_length_b 24.617428
_cell_length_c 8.170926
_cell_angle_alpha 90.000000
_cell_angle_beta 90.000000
_cell_angle_gamma 120.000000
_cell_volume 4288.320753
_symmetry_space_group_name_H-M "P -6 M 2"
_symmetry_group_IT_number 187
_symmetry_cell_setting 'hexagonal'
loop_
_space_group_symop_operation_xyz
x,y,z
-x+y,-x,-z
-y,x-y,z
x,y,-z
-x+y,-x,z
-y,x-y,-z
-y,-x,-z
-x+y,y,-z
x,x-y,-z
-x+y,y,z
x,x-y,z
-y,-x,z
loop_
_atom_site_type_symbol
_atom_site_label
_atom_site_fract_x
_atom_site_fract_y
_atom_site_fract_z
Si Si1 0.365284 0.513185 0.805652
Si Si2 0.150243 0.300486 0.697915
Si Si3 0.005904 0.231498 0.698714
Si Si4 0.370619 0.303913 0.194814
Si Si5 0.891548 0.783096 0.691125
Si Si6 0.222842 0.445683 0.198874
Si Si7 0.359130 0.179565 0.802235
Si Si8 0.556768 0.992073 0.693084
O O1 0.419386 0.580615 0.738217
O O2 0.294769 0.482319 0.741024
O O3 0.391002 0.465355 0.778933
O O4 0.361775 0.521369 0.000000
O O5 0.149690 0.299380 0.500000
O O6 0.077816 0.264052 0.753669
O O7 0.186497 0.372994 0.750308
O O8 0.004922 0.229669 0.500000
O O9 0.975672 0.273637 0.751863
O O10 0.960047 0.159569 0.758414
O O11 0.390791 0.252531 0.238991
O O12 0.412848 0.371858 0.269309
O O13 0.372927 0.310406 0.000000
O O14 0.900347 0.800694 0.500000
O O15 0.853847 0.707693 0.711688
O O16 0.223206 0.446411 0.000000
O O17 0.347285 0.173643 0.000000
O O18 0.550256 0.979573 0.500000
O O19 0.506453 0.012905 0.742171
#
# Coordination Sequence:
#
# PCOD9585447 Si02
#       8
#    12   6  12  12   6   6   6  12
#     4   9  18  33  49  65  86 114 149 189 234 282
#     4  10  20  30  42  63  90 118 148 184 226 274
#     4   9  17  29  44  63  87 116 149 182 221 265
#     4  10  18  29  46  67  91 117 144 176 216 259
#     4   8  14  26  44  61  80 110 144 178 212 254
#     4  10  20  32  46  66  89 113 145 188 234 281
#     4   8  16  28  42  64  91 113 135 166 206 251
#     4  10  20  32  46  65  90 119 150 182 217 261
#
# _framework density 16.789788999999999
#
# number of rings (size 3 to 8) (size 9 to 14) (size 15 to 20)
#    0.000    2.667    0.000    2.000    0.000    5.667 
#    0.500    0.000    0.000    0.333    0.000    2.333 
#    0.833    0.000    0.500    4.833    0.667    6.000 
#
# Total GULP energy -401029.428770 kJ/mol
# GULP energy per Si atom -5569.853177 kJ/mol
# Density = 1.675158 g / cm^3
# Si number density = 16.789789 Si / 1000 Ang^3
#
#
#
# Elastic Constant Matrix: (Units=GPa)
#
#
# Indices 1 2 3 4 5 6 
#
# 1 115.2352 74.5706 5.0886 0.0000 0.0002 0.0000
# 2 74.5706 115.2352 5.0886 0.0000 -0.0002 0.0000
# 3 5.0886 5.0886 8.0611 0.0000 0.0000 0.0000
# 4 0.0000 0.0000 0.0000 13.1439 0.0000 -0.0002
# 5 0.0002 -0.0002 0.0000 0.0000 13.1439 0.0000
# 6 0.0000 0.0000 0.0000 -0.0002 0.0000 20.3323
#
#
#
# Elastic Compliance Matrix: (Units=1/GPa)
#
#
# Indices 1 2 3 4 5 6 
#
# 1 0.015022 -0.009569 -0.003442 0.000000 0.000000 0.000000
# 2 -0.009569 0.015022 -0.003442 0.000000 0.000000 0.000000
# 3 -0.003442 -0.003442 0.128398 0.000000 0.000000 0.000000
# 4 0.000000 0.000000 0.000000 0.076081 0.000000 0.000001
# 5 0.000000 0.000000 0.000000 0.000000 0.076081 0.000000
# 6 0.000000 0.000000 0.000000 0.000001 0.000000 0.049183
#
#
# Mechanical properties :
#
#
# Convention : Reuss Voigt Hill
#
# Bulk Modulus (GPa) = 7.96588 45.33634 26.65111
# Shear Modulus (GPa) = 11.50641 19.57625 15.54133
#
# Velocity S-wave (km/s) = 2.62071 3.41832 3.04574
# Velocity P-wave (km/s) = 3.72991 6.53000 5.31757
#
# Compressibility (1/GPa) = 0.12553546
#
# Stress axis : x y z
#
# Youngs Moduli (GPa) = 66.56776 66.56776 7.78826
#
# Poissons Ratio (x) = 0.63700 0.02681
# Poissons Ratio (y) = 0.63700 0.02681
# Poissons Ratio (z) = 0.22915 0.22915
#
# Static dielectric constant tensor:
#      x y z
#    x 1.573940 0.000000 0.000000 
#    y 0.000000 1.573940 0.000000 
#    z 0.000000 0.000000 1.598580 
# 
# From -- ./inp_files/1112.got.cif
#   From: 2010.05.17/outbox.cif.g08.bks.cpg/sg187_1_cif.got.tgz:1112.got - 2010.05.20 12:09:04.
