data_PCOD9585269
_publ_section_title
;
Structure prediction by ZEFSAII (Michael W. Deem and Ramdas Pophale) SiO2 
 PCOD9585269
Probable space group: P 63 C M
;
_chemical_formula_sum "Si O2"
_cell_formula_units_Z 66
_cell_length_a 20.500240
_cell_length_b 20.500240
_cell_length_c 9.055879
_cell_angle_alpha 90.000000
_cell_angle_beta 90.000000
_cell_angle_gamma 120.000000
_cell_volume 3295.938760
_symmetry_space_group_name_H-M "P 63 C M"
_symmetry_group_IT_number 185
_symmetry_cell_setting 'hexagonal'
loop_
_space_group_symop_operation_xyz
x,y,z
x-y,x,1/2+z
-y,x-y,z
-x,-y,1/2+z
-x+y,-x,z
y,-x+y,1/2+z
-x+y,y,1/2+z
x,x-y,1/2+z
-y,-x,1/2+z
y,x,z
x-y,-y,z
-x,-x+y,z
loop_
_atom_site_type_symbol
_atom_site_label
_atom_site_fract_x
_atom_site_fract_y
_atom_site_fract_z
Si Si1 0.740560 0.000000 0.194140
Si Si2 0.192100 0.542605 0.204341
Si Si3 0.135664 0.000000 0.865084
Si Si4 0.869621 0.869621 0.533835
Si Si5 0.360670 0.269997 0.702247
Si Si6 0.675339 0.460040 0.541327
Si Si7 0.361499 0.221093 0.033224
O O1 0.787038 0.000000 0.335841
O O2 0.666289 0.923349 0.160359
O O3 0.793233 0.000000 0.060045
O O4 0.130987 0.452893 0.194096
O O5 0.216158 0.563381 0.373180
O O6 0.168472 0.599907 0.136659
O O7 0.267594 0.563000 0.113101
O O8 0.145930 0.071919 0.950189
O O9 0.104185 0.000000 0.701380
O O10 0.317970 0.317970 0.681228
O O11 0.339127 0.202273 0.584889
O O12 0.340634 0.231785 0.866098
O O13 0.727584 0.549343 0.537261
#
# Coordination Sequence:
#
# PCOD9585269 Si02
#       7
#     6  12   6   6  12  12  12
#     4  10  24  36  60  80 114 146 206 230 304 350
#     4  10  20  36  62  93 123 170 201 261 301 364
#     4  10  22  36  59  83 111 145 182 243 291 367
#     4  10  22  38  57  83 115 143 186 235 303 359
#     4  10  22  43  64  90 128 161 212 253 312 367
#     4  10  20  36  62  90 129 157 212 244 312 356
#     4  10  22  41  64  88 122 166 198 261 301 368
#
# _framework density 20.024646000000001
#
# number of rings (size 3 to 8) (size 9 to 14) (size 15 to 20)
#    0.545    1.455    0.909    2.182    2.545    1.455 
#    4.909    0.000    0.000    0.000    0.000    0.000 
#    0.000    0.000    0.000    0.000    0.000    0.000 
#
# Total GULP energy -367911.112833 kJ/mol
# GULP energy per Si atom -5574.410800 kJ/mol
# Density = 1.997907 g / cm^3
# Si number density = 20.024646 Si / 1000 Ang^3
#
#
#
# Elastic Constant Matrix: (Units=GPa)
#
#
# Indices 1 2 3 4 5 6 
#
# 1 59.9886 20.2602 35.2604 0.0000 0.0000 0.0000
# 2 20.2602 59.9886 35.2604 0.0000 0.0000 0.0000
# 3 35.2604 35.2604 101.5833 0.0000 0.0000 0.0000
# 4 0.0000 0.0000 0.0000 23.4034 0.0000 0.0000
# 5 0.0000 0.0000 0.0000 0.0000 23.4034 0.0000
# 6 0.0000 0.0000 0.0000 0.0000 0.0000 19.8642
#
#
#
# Elastic Compliance Matrix: (Units=1/GPa)
#
#
# Indices 1 2 3 4 5 6 
#
# 1 0.021551 -0.003620 -0.006224 0.000000 0.000000 0.000000
# 2 -0.003620 0.021551 -0.006224 0.000000 0.000000 0.000000
# 3 -0.006224 -0.006224 0.014165 0.000000 0.000000 0.000000
# 4 0.000000 0.000000 0.000000 0.042729 0.000000 0.000000
# 5 0.000000 0.000000 0.000000 0.000000 0.042729 0.000000
# 6 0.000000 0.000000 0.000000 0.000000 0.000000 0.050342
#
#
# Mechanical properties :
#
#
# Convention : Reuss Voigt Hill
#
# Bulk Modulus (GPa) = 39.79206 44.79137 42.29171
# Shear Modulus (GPa) = 21.40609 22.05284 21.72946
#
# Velocity S-wave (km/s) = 3.27308 3.32216 3.29771
# Velocity P-wave (km/s) = 5.84797 6.09363 5.97207
#
# Compressibility (1/GPa) = 0.02513064
#
# Stress axis : x y z
#
# Youngs Moduli (GPa) = 46.40208 46.40208 70.59731
#
# Poissons Ratio (x) = 0.16798 0.43939
# Poissons Ratio (y) = 0.16798 0.43939
# Poissons Ratio (z) = 0.28880 0.28880
#
# Static dielectric constant tensor:
#      x y z
#    x 1.684020 0.000000 0.000000 
#    y 0.000000 1.684020 0.000000 
#    z 0.000000 0.000000 1.722410 
# 
# From -- ./inp_files/575.got.cif
#   From: 2010.05.17/outbox.cif.g08.bks.cpg/sg185_cif.got.tgz:575.got - 2010.05.20 12:05:34.
