data_PCOD9585634
_publ_section_title
;
Structure prediction by ZEFSAII (Michael W. Deem and Ramdas Pophale) SiO2 
 PCOD9585634
Probable space group: P -6 M 2
;
_chemical_formula_sum "Si O2"
_cell_formula_units_Z 66
_cell_length_a 12.664148
_cell_length_b 12.664148
_cell_length_c 29.502525
_cell_angle_alpha 90.000000
_cell_angle_beta 90.000000
_cell_angle_gamma 120.000000
_cell_volume 4097.715224
_symmetry_space_group_name_H-M "P -6 M 2"
_symmetry_group_IT_number 187
_symmetry_cell_setting 'hexagonal'
loop_
_space_group_symop_operation_xyz
x,y,z
-x+y,-x,-z
-y,x-y,z
x,y,-z
-x+y,-x,z
-y,x-y,-z
-y,-x,-z
-x+y,y,-z
x,x-y,-z
-x+y,y,z
x,x-y,z
-y,-x,z
loop_
_atom_site_type_symbol
_atom_site_label
_atom_site_fract_x
_atom_site_fract_y
_atom_site_fract_z
Si Si1 0.415610 0.082671 0.588147
Si Si2 0.666947 0.586452 0.851956
Si Si3 0.251287 0.000287 0.500000
Si Si4 0.999959 0.251293 0.676486
Si Si5 0.584780 0.667349 0.764842
Si Si6 0.919256 0.333106 0.951309
O O1 0.538083 0.076166 0.587145
O O2 0.445660 0.222830 0.587189
O O3 0.338216 0.023118 0.633528
O O4 0.331716 0.018439 0.544519
O O5 0.792116 0.584231 0.846505
O O6 0.551569 0.448432 0.851149
O O7 0.646817 0.656233 0.810832
O O8 0.667723 0.640682 0.901997
O O9 0.128079 0.871921 0.500000
O O10 0.222008 0.111004 0.500000
O O11 0.882648 0.117353 0.680674
O O12 0.121586 0.243172 0.669664
O O13 0.017998 0.328545 0.721895
O O14 0.563474 0.781737 0.767539
O O15 0.457561 0.542440 0.759320
O O16 0.910679 0.455340 0.952052
O O17 0.784051 0.215950 0.950711
O O18 0.976157 0.328845 0.000000
#
# Coordination Sequence:
#
# PCOD9585634 Si02
#       6
#    12  12   6  12  12  12
#     4  10  20  34  53  76 102 131 162 196 234 278
#     4   9  16  26  42  65  91 116 143 179 226 277
#     4  10  20  34  54  78 104 134 168 208 250 290
#     4  10  20  34  53  75  98 123 152 191 238 286
#     4  10  20  33  48  65  88 121 159 195 229 269
#     4   8  12  18  31  54  84 114 140 169 212 269
#
# _framework density 16.106536999999999
#
# number of rings (size 3 to 8) (size 9 to 14) (size 15 to 20)
#    0.000    2.545    0.000    2.909    0.000    2.182 
#    0.000    2.727    0.000   12.909    0.000    0.000 
#    0.000    1.455    0.000    0.000    0.000    0.000 
#
# Total GULP energy -367645.419850 kJ/mol
# GULP energy per Si atom -5570.385149 kJ/mol
# Density = 1.606988 g / cm^3
# Si number density = 16.106537 Si / 1000 Ang^3
#
#
#
# Elastic Constant Matrix: (Units=GPa)
#
#
# Indices 1 2 3 4 5 6 
#
# 1 87.0629 57.3421 77.5251 0.0000 0.0001 0.0000
# 2 57.3421 87.0629 77.5251 0.0000 -0.0001 0.0000
# 3 77.5251 77.5251 182.3292 0.0000 0.0000 0.0000
# 4 0.0000 0.0000 0.0000 18.7516 0.0000 -0.0001
# 5 0.0001 -0.0001 0.0000 0.0000 18.7516 0.0000
# 6 0.0000 0.0000 0.0000 -0.0001 0.0000 14.8604
#
#
#
# Elastic Compliance Matrix: (Units=1/GPa)
#
#
# Indices 1 2 3 4 5 6 
#
# 1 0.023194 -0.010452 -0.005418 0.000000 0.000000 0.000000
# 2 -0.010452 0.023194 -0.005418 0.000000 0.000000 0.000000
# 3 -0.005418 -0.005418 0.010092 0.000000 0.000000 0.000000
# 4 0.000000 0.000000 0.000000 0.053329 0.000000 0.000000
# 5 0.000000 0.000000 0.000000 0.000000 0.053329 0.000000
# 6 0.000000 0.000000 0.000000 0.000000 0.000000 0.067293
#
#
# Mechanical properties :
#
#
# Convention : Reuss Voigt Hill
#
# Bulk Modulus (GPa) = 71.91770 86.80441 79.36105
# Shear Modulus (GPa) = 18.00880 20.07690 19.04285
#
# Velocity S-wave (km/s) = 3.34743 3.53442 3.44220
# Velocity P-wave (km/s) = 7.72584 8.40637 8.07328
#
# Compressibility (1/GPa) = 0.01390478
#
# Stress axis : x y z
#
# Youngs Moduli (GPa) = 43.11381 43.11381 99.08906
#
# Poissons Ratio (x) = 0.45063 0.53686
# Poissons Ratio (y) = 0.45063 0.53686
# Poissons Ratio (z) = 0.23359 0.23359
#
# Static dielectric constant tensor:
#      x y z
#    x 1.503330 0.000000 0.000000 
#    y 0.000000 1.503330 0.000000 
#    z 0.000000 0.000000 1.573850 
# 
# From -- ./inp_files/4463.got.cif
#   From: 2010.05.17/outbox.cif.g08.bks.cpg/sg187_3_cif.got.tgz:4463.got - 2010.05.20 12:09:04.
