data_PCOD9585923
_publ_section_title
;
Structure prediction by ZEFSAII (Michael W. Deem and Ramdas Pophale) SiO2 
 PCOD9585923
Probable space group: P -6 C 2
;
_chemical_formula_sum "Si O2"
_cell_formula_units_Z 58
_cell_length_a 14.354252
_cell_length_b 14.354252
_cell_length_c 13.884962
_cell_angle_alpha 90.000000
_cell_angle_beta 90.000000
_cell_angle_gamma 120.000000
_cell_volume 2477.630051
_symmetry_space_group_name_H-M "P -6 C 2"
_symmetry_group_IT_number 188
_symmetry_cell_setting 'hexagonal'
loop_
_space_group_symop_operation_xyz
x,y,z
-x+y,-x,1/2-z
-y,x-y,z
x,y,1/2-z
-x+y,-x,z
-y,x-y,1/2-z
-y,-x,-z
-x+y,y,-z
x,x-y,-z
-x+y,y,1/2+z
x,x-y,1/2+z
-y,-x,1/2+z
loop_
_atom_site_type_symbol
_atom_site_label
_atom_site_fract_x
_atom_site_fract_y
_atom_site_fract_z
Si Si1 0.417458 0.896572 0.634941
Si Si2 0.772032 0.466902 0.750000
Si Si3 0.174059 0.843812 0.638847
Si Si4 0.251949 0.021034 0.514906
Si Si5 0.333335 0.666667 0.866406
Si Si6 0.630935 0.109079 0.939886
O O1 0.425915 0.908499 0.750000
O O2 0.293293 0.862560 0.612557
O O3 0.417824 0.788220 0.605487
O O4 0.521430 0.001029 0.594360
O O5 0.777013 0.355395 0.750000
O O6 0.830685 0.528275 0.845969
O O7 0.151135 0.808747 0.750000
O O8 0.071326 0.779031 0.568439
O O9 0.202534 0.964982 0.616224
O O10 0.215234 0.107617 0.500000
O O11 0.380111 0.081232 0.509999
O O12 0.333334 0.666668 0.750000
O O13 0.587296 0.174592 0.000000
#
# Coordination Sequence:
#
# PCOD9585923 Si02
#       6
#    12   6  12  12   4  12
#     4  10  19  38  64  97 141 180 227 279 347 439
#     4  10  28  46  66 100 136 184 244 296 360 442
#     4  10  23  46  71  99 137 183 236 293 364 435
#     4  11  26  44  69 105 140 185 243 304 358 437
#     4   9  18  30  58  95 133 178 209 262 334 413
#     4  12  24  42  70 102 139 187 234 300 360 430
#
# _framework density 23.409465999999998
#
# number of rings (size 3 to 8) (size 9 to 14) (size 15 to 20)
#    0.207    1.241    3.103    1.241    4.345    2.483 
#    4.966    0.000    0.000    0.000    0.000    0.000 
#    0.000    0.000    0.000    0.000    0.000    0.000 
#
# Total GULP energy -323491.725113 kJ/mol
# GULP energy per Si atom -5577.443536 kJ/mol
# Density = 2.335619 g / cm^3
# Si number density = 23.409466 Si / 1000 Ang^3
#
#
#
# Elastic Constant Matrix: (Units=GPa)
#
#
# Indices 1 2 3 4 5 6 
#
# 1 73.8918 13.7051 2.3010 0.0000 -0.0001 0.0001
# 2 13.7051 73.8929 2.3011 -0.0001 0.0000 0.0002
# 3 2.3010 2.3011 92.1982 -0.0001 0.0000 0.0001
# 4 0.0000 -0.0001 -0.0001 21.5745 0.0001 0.0000
# 5 -0.0001 0.0000 0.0000 0.0001 21.5744 -0.0001
# 6 0.0001 0.0002 0.0001 0.0000 -0.0001 30.0935
#
#
#
# Elastic Compliance Matrix: (Units=1/GPa)
#
#
# Indices 1 2 3 4 5 6 
#
# 1 0.014023 -0.002592 -0.000285 0.000000 0.000000 0.000000
# 2 -0.002592 0.014023 -0.000285 0.000000 0.000000 0.000000
# 3 -0.000285 -0.000285 0.010860 0.000000 0.000000 0.000000
# 4 0.000000 0.000000 0.000000 0.046351 0.000000 0.000000
# 5 0.000000 0.000000 0.000000 0.000000 0.046351 0.000000
# 6 0.000000 0.000000 0.000000 0.000000 0.000000 0.033230
#
#
# Mechanical properties :
#
#
# Convention : Reuss Voigt Hill
#
# Bulk Modulus (GPa) = 30.69276 30.73304 30.71290
# Shear Modulus (GPa) = 27.46901 29.42688 28.44795
#
# Velocity S-wave (km/s) = 3.42923 3.54934 3.48980
# Velocity P-wave (km/s) = 5.36835 5.47303 5.42094
#
# Compressibility (1/GPa) = 0.03258097
#
# Stress axis : x y z
#
# Youngs Moduli (GPa) = 71.31182 71.31287 92.07727
#
# Poissons Ratio (x) = 0.18484 0.02627
# Poissons Ratio (y) = 0.18484 0.02627
# Poissons Ratio (z) = 0.02034 0.02035
#
# Static dielectric constant tensor:
#      x y z
#    x 1.939210 0.000000 0.000000 
#    y 0.000000 1.939210 0.000000 
#    z 0.000000 0.000000 1.926490 
# 
# From -- ./inp_files/2316.got.cif
#   From: 2010.05.17/outbox.cif.g08.bks.cpg/sg188_2_cif.got.tgz:2316.got - 2010.05.20 12:11:46.
