data_PCOD9585137
_publ_section_title
;
Structure prediction by ZEFSAII (Michael W. Deem and Ramdas Pophale) SiO2 
 PCOD9585137
Probable space group: P 6 C C
;
_chemical_formula_sum "Si O2"
_cell_formula_units_Z 90
_cell_length_a 26.319773
_cell_length_b 26.319773
_cell_length_c 8.682251
_cell_angle_alpha 90.000000
_cell_angle_beta 90.000000
_cell_angle_gamma 120.000000
_cell_volume 5208.674846
_symmetry_space_group_name_H-M "P 6 C C"
_symmetry_group_IT_number 184
_symmetry_cell_setting 'hexagonal'
loop_
_space_group_symop_operation_xyz
x,y,z
x-y,x,z
-y,x-y,z
-x,-y,z
-x+y,-x,z
y,-x+y,z
-x+y,y,1/2+z
x,x-y,1/2+z
-y,-x,1/2+z
y,x,1/2+z
x-y,-y,1/2+z
-x,-x+y,1/2+z
loop_
_atom_site_type_symbol
_atom_site_label
_atom_site_fract_x
_atom_site_fract_y
_atom_site_fract_z
Si Si1 0.873968 0.267943 0.062100
Si Si2 0.957811 0.406222 0.087415
Si Si3 0.000000 0.500000 0.832066
Si Si4 0.319043 0.379928 0.564944
Si Si5 0.216255 0.843449 0.222243
Si Si6 0.971589 0.176370 0.394759
Si Si7 0.030643 0.716742 0.263186
Si Si8 0.139355 0.910495 0.222414
O O1 0.905869 0.338784 0.074587
O O2 0.822972 0.225055 0.178137
O O3 0.927239 0.258416 0.116997
O O4 0.853930 0.243698 0.891884
O O5 0.956745 0.444473 0.228530
O O6 0.021297 0.409274 0.102311
O O7 0.962899 0.443275 0.937041
O O8 0.271296 0.398641 0.603138
O O9 0.317420 0.366448 0.383719
O O10 0.294341 0.325344 0.686098
O O11 0.173629 0.872815 0.216967
O O12 0.965112 0.232956 0.369233
O O13 0.928404 0.131706 0.265298
O O14 0.945484 0.151051 0.561922
O O15 0.039544 0.202115 0.355227
#
# Coordination Sequence:
#
# PCOD9585137 Si02
#       8
#    12  12   6  12  12  12  12  12
#     4  11  23  33  50  78 115 151 193 227 282 342
#     4  10  21  36  56  80 110 149 204 243 266 322
#     4  10  20  38  58  76 102 152 200 252 268 306
#     4  11  20  32  51  79 110 152 187 233 281 330
#     4  12  21  33  51  77 115 157 182 224 291 359
#     4  12  23  38  53  76 102 141 189 245 288 348
#     4  11  19  31  48  72 107 145 190 229 273 341
#     4  12  25  37  56  76 108 145 193 243 291 355
#
# _framework density 17.278867999999999
#
# number of rings (size 3 to 8) (size 9 to 14) (size 15 to 20)
#    0.000    0.800    4.000    6.400    1.867    0.000 
#    0.000    0.000    0.000    0.267    0.000    1.867 
#    0.000    0.000    0.000   88.800    0.000    0.000 
#
# Total GULP energy -501438.326758 kJ/mol
# GULP energy per Si atom -5571.536964 kJ/mol
# Density = 1.723954 g / cm^3
# Si number density = 17.278868 Si / 1000 Ang^3
#
#
#
# Elastic Constant Matrix: (Units=GPa)
#
#
# Indices 1 2 3 4 5 6 
#
# 1 74.3987 42.3027 27.9893 0.0000 0.0000 0.0000
# 2 42.3027 74.3987 27.9893 0.0000 0.0000 0.0000
# 3 27.9893 27.9893 98.9610 0.0000 0.0000 0.0000
# 4 0.0000 0.0000 0.0000 24.7048 0.0000 0.0000
# 5 0.0000 0.0000 0.0000 0.0000 24.7048 0.0000
# 6 0.0000 0.0000 0.0000 0.0000 0.0000 16.0480
#
#
#
# Elastic Compliance Matrix: (Units=1/GPa)
#
#
# Indices 1 2 3 4 5 6 
#
# 1 0.020535 -0.010621 -0.002804 0.000000 0.000000 0.000000
# 2 -0.010621 0.020535 -0.002804 0.000000 0.000000 0.000000
# 3 -0.002804 -0.002804 0.011691 0.000000 0.000000 0.000000
# 4 0.000000 0.000000 0.000000 0.040478 0.000000 0.000000
# 5 0.000000 0.000000 0.000000 0.000000 0.040478 0.000000
# 6 0.000000 0.000000 0.000000 0.000000 0.000000 0.062313
#
#
# Mechanical properties :
#
#
# Convention : Reuss Voigt Hill
#
# Bulk Modulus (GPa) = 49.25381 49.36899 49.31140
# Shear Modulus (GPa) = 21.25339 23.05666 22.15503
#
# Velocity S-wave (km/s) = 3.51097 3.65689 3.58467
# Velocity P-wave (km/s) = 6.70843 6.81648 6.76267
#
# Compressibility (1/GPa) = 0.02030300
#
# Stress axis : x y z
#
# Youngs Moduli (GPa) = 48.69687 48.69687 85.53524
#
# Poissons Ratio (x) = 0.51723 0.23984
# Poissons Ratio (y) = 0.51723 0.23984
# Poissons Ratio (z) = 0.13654 0.13654
#
# Static dielectric constant tensor:
#      x y z
#    x 1.643780 0.000000 0.000000 
#    y 0.000000 1.643780 0.000000 
#    z 0.000000 0.000000 1.638730 
# 
# From -- ./inp_files/420.got.cif
#   From: 2010.05.17/outbox.cif.g08.bks.cpg/sg184_cif.got.tgz:420.got - 2010.05.20 12:04:40.
