data_PCOD9585327
_publ_section_title
;
Structure prediction by ZEFSAII (Michael W. Deem and Ramdas Pophale) SiO2 
 PCOD9585327
Probable space group: P 63 M C
;
_chemical_formula_sum "Si O2"
_cell_formula_units_Z 72
_cell_length_a 22.363365
_cell_length_b 22.363365
_cell_length_c 10.075159
_cell_angle_alpha 90.000000
_cell_angle_beta 90.000000
_cell_angle_gamma 120.000000
_cell_volume 4363.719683
_symmetry_space_group_name_H-M "P 63 M C"
_symmetry_group_IT_number 186
_symmetry_cell_setting 'hexagonal'
loop_
_space_group_symop_operation_xyz
x,y,z
x-y,x,1/2+z
-y,x-y,z
-x,-y,1/2+z
-x+y,-x,z
y,-x+y,1/2+z
-x+y,y,z
x,x-y,z
-y,-x,z
y,x,1/2+z
x-y,-y,1/2+z
-x,-x+y,1/2+z
loop_
_atom_site_type_symbol
_atom_site_label
_atom_site_fract_x
_atom_site_fract_y
_atom_site_fract_z
Si Si1 0.938780 0.192074 0.252270
Si Si2 0.232897 0.963937 0.471632
Si Si3 0.417769 0.138245 0.297229
Si Si4 0.585959 0.862306 0.344605
Si Si5 0.060645 0.388854 0.063518
Si Si6 0.917888 0.529937 0.064534
O O1 0.879383 0.120618 0.309626
O O2 0.908520 0.244859 0.258929
O O3 0.005918 0.222733 0.341990
O O4 0.948959 0.184871 0.097557
O O5 0.241677 0.900275 0.424708
O O6 0.307654 0.022553 0.526969
O O7 0.433873 0.216937 0.295865
O O8 0.426025 0.113120 0.442234
O O9 0.458904 0.120646 0.189166
O O10 0.564354 0.782177 0.332000
O O11 0.597224 0.899592 0.202453
O O12 0.537397 0.880292 0.433770
O O13 0.997478 0.404390 0.067177
O O14 0.915924 0.457962 0.069221
#
# Coordination Sequence:
#
# PCOD9585327 Si02
#       6
#    12  12  12  12  12  12
#     4  10  18  30  48  71 106 145 176 213 257 312
#     4  10  17  31  45  73 105 140 181 204 256 312
#     4  10  19  33  52  73  99 136 178 216 262 321
#     4  11  20  33  53  77 105 140 176 217 273 326
#     4  10  19  32  50  75 106 132 174 218 259 313
#     4  11  22  35  53  77 107 141 177 222 275 334
#
# _framework density 16.499684999999999
#
# number of rings (size 3 to 8) (size 9 to 14) (size 15 to 20)
#    0.000    1.667    5.000    3.500    0.000    3.333 
#    0.000    0.000    0.000    2.667    0.000    0.000 
#    0.000    0.000    0.000   19.000    0.000    0.333 
#
# Total GULP energy -401460.812717 kJ/mol
# GULP energy per Si atom -5575.844621 kJ/mol
# Density = 1.646213 g / cm^3
# Si number density = 16.499685 Si / 1000 Ang^3
#
#
#
# Elastic Constant Matrix: (Units=GPa)
#
#
# Indices 1 2 3 4 5 6 
#
# 1 65.1631 45.9318 41.4769 0.0000 0.0000 0.0000
# 2 45.9318 65.1631 41.4769 0.0000 0.0000 0.0000
# 3 41.4769 41.4769 136.1268 0.0000 0.0000 0.0000
# 4 0.0000 0.0000 0.0000 13.1672 0.0000 0.0000
# 5 0.0000 0.0000 0.0000 0.0000 13.1672 0.0000
# 6 0.0000 0.0000 0.0000 0.0000 0.0000 9.6157
#
#
#
# Elastic Compliance Matrix: (Units=1/GPa)
#
#
# Indices 1 2 3 4 5 6 
#
# 1 0.031825 -0.020173 -0.003550 0.000000 0.000000 0.000000
# 2 -0.020173 0.031825 -0.003550 0.000000 0.000000 0.000000
# 3 -0.003550 -0.003550 0.009510 0.000000 0.000000 0.000000
# 4 0.000000 0.000000 0.000000 0.075946 0.000000 0.000000
# 5 0.000000 0.000000 0.000000 0.000000 0.075946 0.000000
# 6 0.000000 0.000000 0.000000 0.000000 0.000000 0.103997
#
#
# Mechanical properties :
#
#
# Convention : Reuss Voigt Hill
#
# Bulk Modulus (GPa) = 53.72646 58.24715 55.98680
# Shear Modulus (GPa) = 12.82703 16.36118 14.59411
#
# Velocity S-wave (km/s) = 2.79123 3.15239 2.97729
# Velocity P-wave (km/s) = 6.55902 6.97343 6.76940
#
# Compressibility (1/GPa) = 0.01861280
#
# Stress axis : x y z
#
# Youngs Moduli (GPa) = 31.42143 31.42143 105.15622
#
# Poissons Ratio (x) = 0.63387 0.37335
# Poissons Ratio (y) = 0.63387 0.37335
# Poissons Ratio (z) = 0.11156 0.11156
#
# Static dielectric constant tensor:
#      x y z
#    x 1.549710 0.000000 0.000000 
#    y 0.000000 1.549710 0.000000 
#    z 0.000000 0.000000 1.591060 
# 
# From -- ./inp_files/1229.got.cif
#   From: 2010.05.17/outbox.cif.g08.bks.cpg/sg186_1_cif.got.tgz:1229.got - 2010.05.20 12:07:08.
