data_PCOD9585585
_publ_section_title
;
Structure prediction by ZEFSAII (Michael W. Deem and Ramdas Pophale) SiO2 
 PCOD9585585
Probable space group: P -6 M 2
;
_chemical_formula_sum "Si O2"
_cell_formula_units_Z 54
_cell_length_a 13.248399
_cell_length_b 13.248399
_cell_length_c 22.728992
_cell_angle_alpha 90.000000
_cell_angle_beta 90.000000
_cell_angle_gamma 120.000000
_cell_volume 3454.916900
_symmetry_space_group_name_H-M "P -6 M 2"
_symmetry_group_IT_number 187
_symmetry_cell_setting 'hexagonal'
loop_
_space_group_symop_operation_xyz
x,y,z
-x+y,-x,-z
-y,x-y,z
x,y,-z
-x+y,-x,z
-y,x-y,-z
-y,-x,-z
-x+y,y,-z
x,x-y,-z
-x+y,y,z
x,x-y,z
-y,-x,z
loop_
_atom_site_type_symbol
_atom_site_label
_atom_site_fract_x
_atom_site_fract_y
_atom_site_fract_z
Si Si1 0.667083 0.569641 0.736029
Si Si2 0.902463 0.332779 0.069424
Si Si3 0.666231 0.569307 0.402476
Si Si4 0.573251 0.906475 0.166421
Si Si5 0.000067 0.760148 0.500000
O O1 0.790851 0.581701 0.750819
O O2 0.563859 0.436142 0.745060
O O3 0.666593 0.595538 0.666781
O O4 0.635195 0.647418 0.777082
O O5 0.873511 0.436756 0.079030
O O6 0.790415 0.209586 0.084709
O O7 0.012948 0.364317 0.109761
O O8 0.926967 0.332287 0.000000
O O9 0.769643 0.539285 0.411550
O O10 0.542556 0.457445 0.417324
O O11 0.697970 0.679054 0.443443
O O12 0.440080 0.880160 0.166176
O O13 0.578234 0.789117 0.166717
O O14 0.122606 0.877394 0.500000
O O15 0.893331 0.786661 0.500000
#
# Coordination Sequence:
#
# PCOD9585585 Si02
#       5
#    12  12  12  12   6
#     4   9  17  30  50  75  98 118 144 185 238 288
#     4   9  17  30  50  75  98 118 144 185 238 288
#     4   9  17  30  50  75  98 118 144 185 238 288
#     4  10  20  32  46  65  92 127 163 194 222 259
#     4  10  20  32  46  64  90 126 164 196 222 256
#
# _framework density 15.629899999999999
#
# number of rings (size 3 to 8) (size 9 to 14) (size 15 to 20)
#    0.000    2.667    0.000    2.000    0.000    4.000 
#    0.000    3.333    0.000    6.667    0.000    0.000 
#    0.000    0.000    0.000    0.000    0.000    0.000 
#
# Total GULP energy -301105.862927 kJ/mol
# GULP energy per Si atom -5576.034499 kJ/mol
# Density = 1.559433 g / cm^3
# Si number density = 15.629900 Si / 1000 Ang^3
#
#
#
# Elastic Constant Matrix: (Units=GPa)
#
#
# Indices 1 2 3 4 5 6 
#
# 1 132.1470 87.6267 75.0064 0.0000 0.0000 0.0000
# 2 87.6267 132.1470 75.0064 0.0000 0.0000 0.0000
# 3 75.0064 75.0064 80.9575 0.0000 0.0000 0.0000
# 4 0.0000 0.0000 0.0000 18.1211 0.0000 0.0000
# 5 0.0000 0.0000 0.0000 0.0000 18.1211 0.0000
# 6 0.0000 0.0000 0.0000 0.0000 0.0000 22.2602
#
#
#
# Elastic Compliance Matrix: (Units=1/GPa)
#
#
# Indices 1 2 3 4 5 6 
#
# 1 0.017420 -0.005042 -0.011468 0.000000 0.000000 0.000000
# 2 -0.005042 0.017420 -0.011468 0.000000 0.000000 0.000000
# 3 -0.011468 -0.011468 0.033602 0.000000 0.000000 0.000000
# 4 0.000000 0.000000 0.000000 0.055184 0.000000 0.000000
# 5 0.000000 0.000000 0.000000 0.000000 0.055184 0.000000
# 6 0.000000 0.000000 0.000000 0.000000 0.000000 0.044923
#
#
# Mechanical properties :
#
#
# Convention : Reuss Voigt Hill
#
# Bulk Modulus (GPa) = 80.09011 91.17003 85.63007
# Shear Modulus (GPa) = 17.61480 18.87460 18.24470
#
# Velocity S-wave (km/s) = 3.36071 3.47882 3.42028
# Velocity P-wave (km/s) = 8.14936 8.63675 8.39659
#
# Compressibility (1/GPa) = 0.01248594
#
# Stress axis : x y z
#
# Youngs Moduli (GPa) = 57.40582 57.40582 29.75977
#
# Poissons Ratio (x) = 0.28943 0.34129
# Poissons Ratio (y) = 0.28943 0.34129
# Poissons Ratio (z) = 0.65834 0.65834
#
# Static dielectric constant tensor:
#      x y z
#    x 1.490540 0.000000 0.000000 
#    y 0.000000 1.490540 0.000000 
#    z 0.000000 0.000000 1.542330 
# 
# From -- ./inp_files/3867.got.cif
#   From: 2010.05.17/outbox.cif.g08.bks.cpg/sg187_2_cif.got.tgz:3867.got - 2010.05.20 12:09:04.
