data_PCOD9585480
_publ_section_title
;
Structure prediction by ZEFSAII (Michael W. Deem and Ramdas Pophale) SiO2 
 PCOD9585480
Probable space group: P -6 M 2
;
_chemical_formula_sum "Si O2"
_cell_formula_units_Z 78
_cell_length_a 17.329549
_cell_length_b 17.329549
_cell_length_c 20.838806
_cell_angle_alpha 90.000000
_cell_angle_beta 90.000000
_cell_angle_gamma 120.000000
_cell_volume 5419.734151
_symmetry_space_group_name_H-M "P -6 M 2"
_symmetry_group_IT_number 187
_symmetry_cell_setting 'hexagonal'
loop_
_space_group_symop_operation_xyz
x,y,z
-x+y,-x,-z
-y,x-y,z
x,y,-z
-x+y,-x,z
-y,x-y,-z
-y,-x,-z
-x+y,y,-z
x,x-y,-z
-x+y,y,z
x,x-y,z
-y,-x,z
loop_
_atom_site_type_symbol
_atom_site_label
_atom_site_fract_x
_atom_site_fract_y
_atom_site_fract_z
Si Si1 0.518123 0.851378 0.000000
Si Si2 0.568814 0.960671 0.257624
Si Si3 0.819562 0.000862 0.826490
Si Si4 0.941642 0.235691 0.698662
Si Si5 0.334436 0.846251 0.383491
Si Si6 0.710103 0.946998 0.571553
Si Si7 0.095629 0.374966 0.870202
O O1 0.576442 0.897804 0.063234
O O2 0.426327 0.852653 0.000000
O O3 0.499434 0.749717 0.000000
O O4 0.494922 0.989844 0.255958
O O5 0.535434 0.881391 0.310084
O O6 0.580775 0.927592 0.188610
O O7 0.665719 0.036176 0.281467
O O8 0.838312 0.919156 0.829970
O O9 0.731105 0.973928 0.868172
O O10 0.793020 0.011282 0.753566
O O11 0.906329 0.093672 0.844420
O O12 0.838672 0.161329 0.698837
O O13 0.985097 0.242908 0.629405
O O14 0.427963 0.855925 0.404030
O O15 0.255061 0.744940 0.388119
O O16 0.302995 0.906510 0.421401
O O17 0.738965 0.983918 0.500000
O O18 0.723821 0.861911 0.579370
O O19 0.191783 0.383565 0.858290
#
# Coordination Sequence:
#
# PCOD9585480 Si02
#       7
#     6  12  12  12  12  12  12
#     4  10  19  30  43  60  84 114 146 176 205 238
#     4   9  16  27  43  61  81 106 135 169 209 249
#     4   9  16  27  44  65  87 111 139 171 206 243
#     4   9  17  28  43  62  81 102 133 172 210 249
#     4   9  16  25  38  57  81 108 137 167 197 230
#     4   9  17  28  40  55  78 107 135 163 198 241
#     4   9  17  28  42  61  86 114 142 172 204 239
#
# _framework density 14.39185
#
# number of rings (size 3 to 8) (size 9 to 14) (size 15 to 20)
#    0.000    2.923    0.000    1.769    0.000    4.308 
#    0.000    0.385    0.000    6.462    0.000    1.077 
#    0.000    0.000    0.000    2.000    0.000    1.231 
#
# Total GULP energy -434374.538196 kJ/mol
# GULP energy per Si atom -5568.904336 kJ/mol
# Density = 1.435909 g / cm^3
# Si number density = 14.391850 Si / 1000 Ang^3
#
#
#
# Elastic Constant Matrix: (Units=GPa)
#
#
# Indices 1 2 3 4 5 6 
#
# 1 70.3756 32.1033 35.8854 0.0000 0.0001 0.0000
# 2 32.1033 70.3756 35.8854 0.0000 -0.0001 0.0000
# 3 35.8854 35.8854 94.9677 0.0000 0.0000 0.0000
# 4 0.0000 0.0000 0.0000 11.8959 0.0000 -0.0001
# 5 0.0001 -0.0001 0.0000 0.0000 11.8959 0.0000
# 6 0.0000 0.0000 0.0000 -0.0001 0.0000 19.1361
#
#
#
# Elastic Compliance Matrix: (Units=1/GPa)
#
#
# Indices 1 2 3 4 5 6 
#
# 1 0.019699 -0.006429 -0.005014 0.000000 0.000000 0.000000
# 2 -0.006429 0.019699 -0.005014 0.000000 0.000000 0.000000
# 3 -0.005014 -0.005014 0.014319 0.000000 0.000000 0.000000
# 4 0.000000 0.000000 0.000000 0.084063 0.000000 0.000000
# 5 0.000000 0.000000 0.000000 0.000000 0.084063 0.000000
# 6 0.000000 0.000000 0.000000 0.000000 0.000000 0.052257
#
#
# Mechanical properties :
#
#
# Convention : Reuss Voigt Hill
#
# Bulk Modulus (GPa) = 48.07234 49.27411 48.67323
# Shear Modulus (GPa) = 15.92608 17.37523 16.65065
#
# Velocity S-wave (km/s) = 3.33018 3.47839 3.40509
# Velocity P-wave (km/s) = 6.94707 7.10240 7.02516
#
# Compressibility (1/GPa) = 0.02080198
#
# Stress axis : x y z
#
# Youngs Moduli (GPa) = 50.76348 50.76348 69.83547
#
# Poissons Ratio (x) = 0.32638 0.35017
# Poissons Ratio (y) = 0.32638 0.35017
# Poissons Ratio (z) = 0.25454 0.25454
#
# Static dielectric constant tensor:
#      x y z
#    x 1.459530 0.000000 0.000000 
#    y 0.000000 1.459530 0.000000 
#    z 0.000000 0.000000 1.478060 
# 
# From -- ./inp_files/3129.got.cif
#   From: 2010.05.17/outbox.cif.g08.bks.cpg/sg187_2_cif.got.tgz:3129.got - 2010.05.20 12:09:04.
