data_PCOD9585486
_publ_section_title
;
Structure prediction by ZEFSAII (Michael W. Deem and Ramdas Pophale) SiO2 
 PCOD9585486
Probable space group: P -6 M 2
;
_chemical_formula_sum "Si O2"
_cell_formula_units_Z 78
_cell_length_a 23.440467
_cell_length_b 23.440467
_cell_length_c 9.732298
_cell_angle_alpha 90.000000
_cell_angle_beta 90.000000
_cell_angle_gamma 120.000000
_cell_volume 4631.040187
_symmetry_space_group_name_H-M "P -6 M 2"
_symmetry_group_IT_number 187
_symmetry_cell_setting 'hexagonal'
loop_
_space_group_symop_operation_xyz
x,y,z
-x+y,-x,-z
-y,x-y,z
x,y,-z
-x+y,-x,z
-y,x-y,-z
-y,-x,-z
-x+y,y,-z
x,x-y,-z
-x+y,y,z
x,x-y,z
-y,-x,z
loop_
_atom_site_type_symbol
_atom_site_label
_atom_site_fract_x
_atom_site_fract_y
_atom_site_fract_z
Si Si1 0.280259 0.431427 0.245803
Si Si2 0.412008 0.455379 0.149364
Si Si3 0.202797 0.923671 0.334813
Si Si4 0.467599 0.668323 0.500000
Si Si5 0.725999 0.585104 0.160591
Si Si6 0.606020 0.530664 0.658393
Si Si7 0.793642 0.074914 0.664317
O O1 0.219262 0.438523 0.191947
O O2 0.340997 0.447820 0.149778
O O3 0.249005 0.355288 0.291772
O O4 0.312815 0.483238 0.370800
O O5 0.469402 0.530599 0.168873
O O6 0.419265 0.413935 0.271929
O O7 0.424392 0.434039 0.000000
O O8 0.201553 0.922858 0.500000
O O9 0.129240 0.870761 0.285472
O O10 0.231100 0.999481 0.294744
O O11 0.406147 0.593853 0.500000
O O12 0.442056 0.721028 0.500000
O O13 0.783771 0.567541 0.166524
O O14 0.662136 0.533811 0.244111
O O15 0.753362 0.653552 0.243934
O O16 0.713719 0.591852 0.000000
O O17 0.626586 0.547561 0.500000
O O18 0.540427 0.459574 0.662231
O O19 0.780381 0.076092 0.500000
O O20 0.870940 0.129061 0.684103
#
# Coordination Sequence:
#
# PCOD9585486 Si02
#       7
#    12  12  12   6  12  12  12
#     4  10  19  30  46  68  92 123 163 204 253 305
#     4  10  21  35  50  70  97 129 163 204 256 307
#     4   9  16  28  45  67  96 126 157 196 243 294
#     4  10  19  30  44  64  89 118 156 206 258 306
#     4  10  20  33  51  76 105 136 165 198 245 295
#     4  10  21  35  53  77 102 131 167 206 248 293
#     4   9  17  29  48  73  98 128 167 207 246 292
#
# _framework density 16.842869
#
# number of rings (size 3 to 8) (size 9 to 14) (size 15 to 20)
#    0.000    2.308    0.769    2.385    1.077    3.385 
#    0.000    0.000    0.000    2.308    0.000    2.154 
#    0.000    0.000    0.000    0.000    0.000    0.154 
#
# Total GULP energy -434586.268681 kJ/mol
# GULP energy per Si atom -5571.618829 kJ/mol
# Density = 1.680453 g / cm^3
# Si number density = 16.842869 Si / 1000 Ang^3
#
#
#
# Elastic Constant Matrix: (Units=GPa)
#
#
# Indices 1 2 3 4 5 6 
#
# 1 88.4297 43.2457 36.5747 0.0000 0.0005 0.0000
# 2 43.2457 88.4297 36.5747 0.0000 -0.0005 0.0000
# 3 36.5747 36.5747 92.1195 0.0000 0.0000 0.0000
# 4 0.0000 0.0000 0.0000 13.2070 0.0000 -0.0005
# 5 0.0005 -0.0005 0.0000 0.0000 13.2070 0.0000
# 6 0.0000 0.0000 0.0000 -0.0005 0.0000 22.5920
#
#
#
# Elastic Compliance Matrix: (Units=1/GPa)
#
#
# Indices 1 2 3 4 5 6 
#
# 1 0.015938 -0.006194 -0.003869 0.000000 -0.000001 0.000000
# 2 -0.006194 0.015938 -0.003869 0.000000 0.000001 0.000000
# 3 -0.003869 -0.003869 0.013927 0.000000 0.000000 0.000000
# 4 0.000000 0.000000 0.000000 0.075717 0.000000 0.000002
# 5 -0.000001 0.000001 0.000000 0.000000 0.075717 0.000000
# 6 0.000000 0.000000 0.000000 0.000002 0.000000 0.044263
#
#
# Mechanical properties :
#
#
# Convention : Reuss Voigt Hill
#
# Bulk Modulus (GPa) = 55.74049 55.75214 55.74631
# Shear Modulus (GPa) = 18.15918 19.97348 19.06633
#
# Velocity S-wave (km/s) = 3.28709 3.44738 3.36819
# Velocity P-wave (km/s) = 6.89731 7.00137 6.94953
#
# Compressibility (1/GPa) = 0.01794028
#
# Stress axis : x y z
#
# Youngs Moduli (GPa) = 62.74470 62.74470 71.80124
#
# Poissons Ratio (x) = 0.38865 0.27776
# Poissons Ratio (y) = 0.38865 0.27776
# Poissons Ratio (z) = 0.24273 0.24273
#
# Static dielectric constant tensor:
#      x y z
#    x 1.575930 0.000000 0.000000 
#    y 0.000000 1.575930 0.000000 
#    z 0.000000 0.000000 1.578570 
# 
# From -- ./inp_files/1148.got.cif
#   From: 2010.05.17/outbox.cif.g08.bks.cpg/sg187_1_cif.got.tgz:1148.got - 2010.05.20 12:09:04.
