data_PCOD9585205
_publ_section_title
;
Structure prediction by ZEFSAII (Michael W. Deem and Ramdas Pophale) SiO2 
 PCOD9585205
Probable space group: P 6 C C
;
_chemical_formula_sum "Si O2"
_cell_formula_units_Z 26
_cell_length_a 9.602059
_cell_length_b 9.602059
_cell_length_c 17.192941
_cell_angle_alpha 90.000000
_cell_angle_beta 90.000000
_cell_angle_gamma 120.000000
_cell_volume 1372.807189
_symmetry_space_group_name_H-M "P 6 C C"
_symmetry_group_IT_number 184
_symmetry_cell_setting 'hexagonal'
loop_
_space_group_symop_operation_xyz
x,y,z
x-y,x,z
-y,x-y,z
-x,-y,z
-x+y,-x,z
y,-x+y,z
-x+y,y,1/2+z
x,x-y,1/2+z
-y,-x,1/2+z
y,x,1/2+z
x-y,-y,1/2+z
-x,-x+y,1/2+z
loop_
_atom_site_type_symbol
_atom_site_label
_atom_site_fract_x
_atom_site_fract_y
_atom_site_fract_z
Si Si1 0.333334 0.666667 0.814756
Si Si2 0.274542 0.912706 0.228522
Si Si3 0.500000 0.000000 0.582907
Si Si4 0.666668 0.333334 0.499728
O O1 0.476102 0.833476 0.779957
O O2 0.333334 0.666667 0.906906
O O3 0.347495 0.930756 0.141682
O O4 0.088516 0.785867 0.242328
O O5 0.384390 0.844923 0.531436
#
# Coordination Sequence:
#
# PCOD9585205 Si02
#       4
#     4  12   6   4
#     4  12  25  44  70 102 142 176 232 285 352 407
#     4  12  23  43  69 100 130 183 232 278 334 428
#     4  12  22  44  68  98 138 178 240 272 344 414
#     4  12  28  41  67 108 142 185 223 300 352 401
#
# _framework density 18.939295999999999
#
# number of rings (size 3 to 8) (size 9 to 14) (size 15 to 20)
#    0.000    0.000    9.231    0.462    6.462    0.000 
#    0.000    0.000    0.000    0.000    0.000    0.000 
#    0.000    0.000    0.000    0.000    0.000    0.000 
#
# Total GULP energy -144967.232404 kJ/mol
# GULP energy per Si atom -5575.662785 kJ/mol
# Density = 1.889619 g / cm^3
# Si number density = 18.939296 Si / 1000 Ang^3
#
#
#
# Elastic Constant Matrix: (Units=GPa)
#
#
# Indices 1 2 3 4 5 6 
#
# 1 150.1361 70.4699 63.0817 -0.0002 -0.0001 0.0001
# 2 70.4699 150.1373 63.0818 0.0000 -0.0002 0.0002
# 3 63.0817 63.0818 134.1248 0.0001 0.0005 0.0000
# 4 -0.0002 0.0000 0.0001 6.7931 0.0002 0.0000
# 5 -0.0001 -0.0002 0.0005 0.0002 6.7918 0.0001
# 6 0.0001 0.0002 0.0000 0.0000 0.0001 39.8337
#
#
#
# Elastic Compliance Matrix: (Units=1/GPa)
#
#
# Indices 1 2 3 4 5 6 
#
# 1 0.009377 -0.003176 -0.002916 0.000000 0.000000 0.000000
# 2 -0.003176 0.009377 -0.002916 0.000000 0.000000 0.000000
# 3 -0.002916 -0.002916 0.010199 0.000000 -0.000001 0.000000
# 4 0.000000 0.000000 0.000000 0.147207 -0.000003 0.000000
# 5 0.000000 0.000000 -0.000001 -0.000003 0.147237 0.000000
# 6 0.000000 0.000000 0.000000 0.000000 0.000000 0.025104
#
#
# Mechanical properties :
#
#
# Convention : Reuss Voigt Hill
#
# Bulk Modulus (GPa) = 91.44835 91.96279 91.70557
# Shear Modulus (GPa) = 13.50757 26.53470 20.02113
#
# Velocity S-wave (km/s) = 2.67348 3.74711 3.25487
# Velocity P-wave (km/s) = 7.61051 8.20872 7.91527
#
# Compressibility (1/GPa) = 0.01093513
#
# Stress axis : x y z
#
# Youngs Moduli (GPa) = 106.64852 106.64959 98.04875
#
# Poissons Ratio (x) = 0.33869 0.28595
# Poissons Ratio (y) = 0.33869 0.28594
# Poissons Ratio (z) = 0.31103 0.31103
#
# Static dielectric constant tensor:
#      x y z
#    x 1.781510 -0.000010 0.000000 
#    y -0.000010 1.781490 0.000000 
#    z 0.000000 0.000000 1.634460 
# 
# From -- ./inp_files/478.got.cif
#   From: 2010.05.17/outbox.cif.g08.bks.cpg/sg184_cif.got.tgz:478.got - 2010.05.20 12:04:40.
