data_PCOD9585134
_publ_section_title
;
Structure prediction by ZEFSAII (Michael W. Deem and Ramdas Pophale) SiO2 
 PCOD9585134
Probable space group: P 6 C C
;
_chemical_formula_sum "Si O2"
_cell_formula_units_Z 72
_cell_length_a 14.671086
_cell_length_b 14.671086
_cell_length_c 15.198309
_cell_angle_alpha 90.000000
_cell_angle_beta 90.000000
_cell_angle_gamma 120.000000
_cell_volume 2833.025134
_symmetry_space_group_name_H-M "P 6 C C"
_symmetry_group_IT_number 184
_symmetry_cell_setting 'hexagonal'
loop_
_space_group_symop_operation_xyz
x,y,z
x-y,x,z
-y,x-y,z
-x,-y,z
-x+y,-x,z
y,-x+y,z
-x+y,y,1/2+z
x,x-y,1/2+z
-y,-x,1/2+z
y,x,1/2+z
x-y,-y,1/2+z
-x,-x+y,1/2+z
loop_
_atom_site_type_symbol
_atom_site_label
_atom_site_fract_x
_atom_site_fract_y
_atom_site_fract_z
Si Si1 0.944325 0.177385 0.927000
Si Si2 0.610821 0.018514 0.714567
Si Si3 0.182827 0.231367 0.712633
Si Si4 0.408176 0.501628 0.401563
Si Si5 0.531428 0.810071 0.956223
Si Si6 0.232727 0.690118 0.152606
O O1 0.907298 0.257582 0.960075
O O2 0.059988 0.203731 0.955003
O O3 0.945819 0.180667 0.819880
O O4 0.659413 0.946831 0.686777
O O5 0.600316 0.029571 0.819039
O O6 0.697859 0.139238 0.694692
O O7 0.500000 0.000000 0.676656
O O8 0.067130 0.205084 0.684377
O O9 0.500000 0.500000 0.459993
O O10 0.456893 0.627588 0.389706
O O11 0.291291 0.459219 0.433349
O O12 0.473300 0.784614 0.049100
O O13 0.227448 0.579787 0.176826
#
# Coordination Sequence:
#
# PCOD9585134 Si02
#       6
#    12  12  12  12  12  12
#     4  10  20  37  63  95 127 165 212 274 336 393
#     4  11  25  40  65 101 137 181 232 281 351 413
#     4  10  21  40  66  97 135 173 227 283 343 408
#     4  11  23  38  63  98 128 167 228 279 336 402
#     4  12  21  41  64  94 132 178 219 278 336 402
#     4  10  24  44  61  92 136 184 229 272 342 415
#
# _framework density 25.414531
#
# number of rings (size 3 to 8) (size 9 to 14) (size 15 to 20)
#    0.333    1.000    1.667    5.667    4.667    2.000 
#    3.000    0.000    0.000    0.000    0.000    2.333 
#    0.000    0.000    0.000    0.000    0.000    0.000 
#
# Total GULP energy -402328.153566 kJ/mol
# GULP energy per Si atom -5587.891022 kJ/mol
# Density = 2.535669 g / cm^3
# Si number density = 25.414531 Si / 1000 Ang^3
#
#
#
# Elastic Constant Matrix: (Units=GPa)
#
#
# Indices 1 2 3 4 5 6 
#
# 1 152.6548 50.3467 -6.9244 0.0000 0.0000 0.0000
# 2 50.3467 152.6548 -6.9244 0.0000 0.0000 0.0000
# 3 -6.9244 -6.9244 30.2051 0.0000 0.0000 0.0000
# 4 0.0000 0.0000 0.0000 -1.5072 0.0000 0.0000
# 5 0.0000 0.0000 0.0000 0.0000 -1.5072 0.0000
# 6 0.0000 0.0000 0.0000 0.0000 0.0000 51.1541
#
#
#
# Elastic Compliance Matrix: (Units=1/GPa)
#
#
# Indices 1 2 3 4 5 6 
#
# 1 0.007389 -0.002385 0.001147 0.000000 0.000000 0.000000
# 2 -0.002385 0.007389 0.001147 0.000000 0.000000 0.000000
# 3 0.001147 0.001147 0.033633 0.000000 0.000000 0.000000
# 4 0.000000 0.000000 0.000000 -0.663497 0.000000 0.000000
# 5 0.000000 0.000000 0.000000 0.000000 -0.663497 0.000000
# 6 0.000000 0.000000 0.000000 0.000000 0.000000 0.019549
#
#
# Mechanical properties :
#
#
# Convention : Reuss Voigt Hill
#
# Bulk Modulus (GPa) = 20.73377 45.39007 33.06192
# Shear Modulus (GPa) = -4.02325 29.56240 12.76958
#
# Velocity S-wave (km/s) = -1.25956 3.41428 2.24398
# Velocity P-wave (km/s) = 2.46183 5.78289 4.44423
#
# Compressibility (1/GPa) = 0.04823049
#
# Stress axis : x y z
#
# Youngs Moduli (GPa) = 135.32962 135.32962 29.73276
#
# Poissons Ratio (x) = 0.32277 -0.03411
# Poissons Ratio (y) = 0.32277 -0.03411
# Poissons Ratio (z) = -0.15525 -0.15525
#
# Static dielectric constant tensor:
#      x y z
#    x 2.063440 0.000000 0.000000 
#    y 0.000000 2.063440 0.000000 
#    z 0.000000 0.000000 2.021140 
# 
# From -- ./inp_files/1089.got.cif
#   From: 2010.05.17/outbox.cif.g08.bks.cpg/sg184_cif.got.tgz:1089.got - 2010.05.20 12:04:40.
