data_PCOD9585555
_publ_section_title
;
Structure prediction by ZEFSAII (Michael W. Deem and Ramdas Pophale) SiO2 
 PCOD9585555
Probable space group: P -6 M 2
;
_chemical_formula_sum "Si O2"
_cell_formula_units_Z 66
_cell_length_a 22.770303
_cell_length_b 22.770303
_cell_length_c 7.582748
_cell_angle_alpha 90.000000
_cell_angle_beta 90.000000
_cell_angle_gamma 120.000000
_cell_volume 3404.825621
_symmetry_space_group_name_H-M "P -6 M 2"
_symmetry_group_IT_number 187
_symmetry_cell_setting 'hexagonal'
loop_
_space_group_symop_operation_xyz
x,y,z
-x+y,-x,-z
-y,x-y,z
x,y,-z
-x+y,-x,z
-y,x-y,-z
-y,-x,-z
-x+y,y,-z
x,x-y,-z
-x+y,y,z
x,x-y,z
-y,-x,z
loop_
_atom_site_type_symbol
_atom_site_label
_atom_site_fract_x
_atom_site_fract_y
_atom_site_fract_z
Si Si1 0.720356 0.138682 0.204996
Si Si2 0.466864 0.665949 0.787140
Si Si3 0.666129 0.192841 0.500000
Si Si4 0.743186 0.019812 0.203080
Si Si5 0.620327 0.877306 0.291819
Si Si6 0.000429 0.865286 0.784215
O O1 0.794743 0.205258 0.209095
O O2 0.673751 0.155101 0.329029
O O3 0.727814 0.076299 0.277400
O O4 0.697528 0.126244 0.000000
O O5 0.457136 0.728568 0.726202
O O6 0.405694 0.594306 0.724295
O O7 0.542583 0.685118 0.735961
O O8 0.464369 0.665579 0.000000
O O9 0.731181 0.268820 0.500000
O O10 0.597233 0.194466 0.500000
O O11 0.804819 0.012330 0.278910
O O12 0.675811 0.946950 0.208032
O O13 0.762761 0.041611 0.000000
O O14 0.633777 0.883298 0.500000
O O15 0.625918 0.812959 0.224486
O O16 0.937649 0.875298 0.734380
O O17 0.002568 0.865012 0.000000
O O18 0.072090 0.927911 0.725660
#
# Coordination Sequence:
#
# PCOD9585555 Si02
#       6
#    12  12   6  12  12  12
#     4   9  19  36  58  86 118 149 186 233 278 326
#     4   9  17  31  52  75  97 123 159 205 258 317
#     4  10  21  38  62  90 119 150 184 224 276 336
#     4  10  19  32  53  76 101 140 185 225 269 323
#     4  10  21  34  48  70 102 136 174 222 270 318
#     4   9  16  26  44  73 107 139 173 218 271 322
#
# _framework density 19.384253999999999
#
# number of rings (size 3 to 8) (size 9 to 14) (size 15 to 20)
#    0.000    2.545    0.000    2.091    1.273    6.182 
#    0.000    0.909    0.000    3.273    0.000    0.000 
#    0.000    1.455    0.000    0.000    0.000    0.000 
#
# Total GULP energy -368356.645816 kJ/mol
# GULP energy per Si atom -5581.161300 kJ/mol
# Density = 1.934013 g / cm^3
# Si number density = 19.384254 Si / 1000 Ang^3
#
#
#
# Elastic Constant Matrix: (Units=GPa)
#
#
# Indices 1 2 3 4 5 6 
#
# 1 124.1187 65.6587 26.3299 0.0000 0.0002 0.0000
# 2 65.6587 124.1187 26.3299 0.0000 -0.0002 0.0000
# 3 26.3299 26.3299 65.6546 0.0000 0.0000 0.0000
# 4 0.0000 0.0000 0.0000 -1.7417 0.0000 -0.0002
# 5 0.0002 -0.0002 0.0000 0.0000 -1.7417 0.0000
# 6 0.0000 0.0000 0.0000 -0.0002 0.0000 29.2300
#
#
#
# Elastic Compliance Matrix: (Units=1/GPa)
#
#
# Indices 1 2 3 4 5 6 
#
# 1 0.011517 -0.005588 -0.002378 0.000000 0.000002 0.000000
# 2 -0.005588 0.011517 -0.002378 0.000000 -0.000002 0.000000
# 3 -0.002378 -0.002378 0.017138 0.000000 0.000000 0.000000
# 4 0.000000 0.000000 0.000000 -0.574138 0.000000 -0.000004
# 5 0.000002 -0.000002 0.000000 0.000000 -0.574138 0.000000
# 6 0.000000 0.000000 0.000000 -0.000004 0.000000 0.034211
#
#
# Mechanical properties :
#
#
# Convention : Reuss Voigt Hill
#
# Bulk Modulus (GPa) = 51.32034 61.16989 56.24512
# Shear Modulus (GPa) = -4.77688 18.18753 6.70533
#
# Velocity S-wave (km/s) = -1.57152 3.06643 1.86190
# Velocity P-wave (km/s) = 4.82077 6.64547 5.80526
#
# Compressibility (1/GPa) = 0.01948545
#
# Stress axis : x y z
#
# Youngs Moduli (GPa) = 86.82499 86.82499 58.34856
#
# Poissons Ratio (x) = 0.48520 0.13874
# Poissons Ratio (y) = 0.48520 0.13874
# Poissons Ratio (z) = 0.20645 0.20645
#
# Static dielectric constant tensor:
#      x y z
#    x 1.649880 0.000000 0.000000 
#    y 0.000000 1.649880 0.000000 
#    z 0.000000 0.000000 1.736380 
# 
# From -- ./inp_files/755.got.cif
#   From: 2010.05.17/outbox.cif.g08.bks.cpg/sg187_1_cif.got.tgz:755.got - 2010.05.20 12:09:04.
