data_PCOD9585262
_publ_section_title
;
Structure prediction by ZEFSAII (Michael W. Deem and Ramdas Pophale) SiO2 
 PCOD9585262
Probable space group: P 63 C M
;
_chemical_formula_sum "Si O2"
_cell_formula_units_Z 96
_cell_length_a 14.808018
_cell_length_b 14.808018
_cell_length_c 29.796807
_cell_angle_alpha 90.000000
_cell_angle_beta 90.000000
_cell_angle_gamma 120.000000
_cell_volume 5658.407581
_symmetry_space_group_name_H-M "P 63 C M"
_symmetry_group_IT_number 185
_symmetry_cell_setting 'hexagonal'
loop_
_space_group_symop_operation_xyz
x,y,z
x-y,x,1/2+z
-y,x-y,z
-x,-y,1/2+z
-x+y,-x,z
y,-x+y,1/2+z
-x+y,y,1/2+z
x,x-y,1/2+z
-y,-x,1/2+z
y,x,z
x-y,-y,z
-x,-x+y,z
loop_
_atom_site_type_symbol
_atom_site_label
_atom_site_fract_x
_atom_site_fract_y
_atom_site_fract_z
Si Si1 0.405262 0.527137 0.780490
Si Si2 0.439120 0.256169 0.324987
Si Si3 0.292547 0.533052 0.520056
Si Si4 0.533005 0.295184 0.418666
Si Si5 0.123241 0.700569 0.606912
Si Si6 0.120445 0.242889 0.768068
Si Si7 0.123539 0.345231 0.674633
Si Si8 0.566103 0.125473 0.180938
O O1 0.438986 0.438986 0.781462
O O2 0.303416 0.496021 0.809339
O O3 0.501467 0.632947 0.799875
O O4 0.385792 0.547393 0.729083
O O5 0.455477 0.273585 0.378136
O O6 0.322092 0.188890 0.307510
O O7 0.409781 0.633517 0.524072
O O8 0.281803 0.491882 0.469344
O O9 0.272131 0.455185 0.560023
O O10 0.589108 0.224635 0.414363
O O11 0.148484 0.802257 0.635638
O O12 0.160475 0.635266 0.638412
O O13 0.000000 0.630006 0.599597
O O14 0.194538 0.194538 0.773801
O O15 0.147116 0.308535 0.721773
O O16 0.000000 0.153859 0.765058
O O17 0.145793 0.463369 0.677898
O O18 0.000000 0.272529 0.665836
O O19 0.493816 0.000000 0.182192
#
# Coordination Sequence:
#
# PCOD9585262 Si02
#       8
#    12  12  12  12  12  12  12  12
#     4  11  21  33  48  76 110 139 173 212 258 321
#     4  12  19  33  55  79 106 143 176 218 274 319
#     4   8  17  33  54  73 102 142 178 209 259 325
#     4   8  15  32  53  76 105 139 174 209 251 318
#     4  11  20  32  51  79 107 135 174 223 275 321
#     4  11  23  39  56  76 106 148 195 236 271 311
#     4  10  20  36  53  71 102 143 183 221 267 320
#     4   9  19  32  45  70 108 137 168 210 256 323
#
# _framework density 16.965903000000001
#
# number of rings (size 3 to 8) (size 9 to 14) (size 15 to 20)
#    0.500    1.500    2.500    3.000    0.000    1.000 
#    0.750    1.250    0.000    1.750    0.000    0.000 
#    0.000    0.000    0.000    0.000    0.000    0.000 
#
# Total GULP energy -535327.021487 kJ/mol
# GULP energy per Si atom -5576.323140 kJ/mol
# Density = 1.692729 g / cm^3
# Si number density = 16.965903 Si / 1000 Ang^3
#
#
#
# Elastic Constant Matrix: (Units=GPa)
#
#
# Indices 1 2 3 4 5 6 
#
# 1 51.6957 13.0241 27.4950 0.0000 0.0000 0.0000
# 2 13.0241 51.6957 27.4950 0.0000 0.0000 0.0000
# 3 27.4950 27.4950 141.0862 0.0000 0.0000 0.0000
# 4 0.0000 0.0000 0.0000 10.6124 0.0000 0.0000
# 5 0.0000 0.0000 0.0000 0.0000 10.6124 0.0000
# 6 0.0000 0.0000 0.0000 0.0000 0.0000 19.3358
#
#
#
# Elastic Compliance Matrix: (Units=1/GPa)
#
#
# Indices 1 2 3 4 5 6 
#
# 1 0.022188 -0.003671 -0.003609 0.000000 0.000000 0.000000
# 2 -0.003671 0.022188 -0.003609 0.000000 0.000000 0.000000
# 3 -0.003609 -0.003609 0.008494 0.000000 0.000000 0.000000
# 4 0.000000 0.000000 0.000000 0.094230 0.000000 0.000000
# 5 0.000000 0.000000 0.000000 0.000000 0.094230 0.000000
# 6 0.000000 0.000000 0.000000 0.000000 0.000000 0.051717
#
#
# Mechanical properties :
#
#
# Convention : Reuss Voigt Hill
#
# Bulk Modulus (GPa) = 32.16012 42.27844 37.21928
# Shear Modulus (GPa) = 15.37572 19.87635 17.62604
#
# Velocity S-wave (km/s) = 3.01370 3.42650 3.22671
# Velocity P-wave (km/s) = 5.57734 6.37403 5.98895
#
# Compressibility (1/GPa) = 0.03109441
#
# Stress axis : x y z
#
# Youngs Moduli (GPa) = 45.06929 45.06929 117.72466
#
# Poissons Ratio (x) = 0.16543 0.42483
# Poissons Ratio (y) = 0.16543 0.42483
# Poissons Ratio (z) = 0.16264 0.16264
#
# Static dielectric constant tensor:
#      x y z
#    x 1.580800 0.000000 0.000000 
#    y 0.000000 1.580800 0.000000 
#    z 0.000000 0.000000 1.565800 
# 
# From -- ./inp_files/2234.got.cif
#   From: 2010.05.17/outbox.cif.g08.bks.cpg/sg185_cif.got.tgz:2234.got - 2010.05.20 12:05:34.
