data_PCOD9585273
_publ_section_title
;
Structure prediction by ZEFSAII (Michael W. Deem and Ramdas Pophale) SiO2 
 PCOD9585273
Probable space group: P 63 C M
;
_chemical_formula_sum "Si O2"
_cell_formula_units_Z 84
_cell_length_a 18.025910
_cell_length_b 18.025910
_cell_length_c 13.673717
_cell_angle_alpha 90.000000
_cell_angle_beta 90.000000
_cell_angle_gamma 120.000000
_cell_volume 3847.792251
_symmetry_space_group_name_H-M "P 63 C M"
_symmetry_group_IT_number 185
_symmetry_cell_setting 'hexagonal'
loop_
_space_group_symop_operation_xyz
x,y,z
x-y,x,1/2+z
-y,x-y,z
-x,-y,1/2+z
-x+y,-x,z
y,-x+y,1/2+z
-x+y,y,1/2+z
x,x-y,1/2+z
-y,-x,1/2+z
y,x,z
x-y,-y,z
-x,-x+y,z
loop_
_atom_site_type_symbol
_atom_site_label
_atom_site_fract_x
_atom_site_fract_y
_atom_site_fract_z
Si Si1 0.900944 0.801888 0.065860
Si Si2 0.343783 0.440988 0.434275
Si Si3 0.902795 0.343783 0.697446
Si Si4 0.212474 0.856880 0.432590
Si Si5 0.102591 0.499059 0.427704
Si Si6 0.143120 0.355594 0.199130
Si Si7 0.897409 0.500941 0.704016
O O1 0.860599 0.860599 0.033703
O O2 0.837256 0.736257 0.147894
O O3 0.000000 0.860599 0.098017
O O4 0.899001 0.736257 0.983825
O O5 0.381089 0.381089 0.470087
O O6 0.352693 0.445056 0.315860
O O7 0.244161 0.399156 0.451522
O O8 0.406276 0.538631 0.467898
O O9 0.845005 0.244161 0.680198
O O10 0.867645 0.406276 0.663822
O O11 0.000000 0.381089 0.661633
O O12 0.307054 0.881603 0.470298
O O13 0.218632 0.874444 0.315860
O O14 0.136100 0.510721 0.315860
O O15 0.000000 0.456500 0.424442
O O16 0.118397 0.425451 0.161422
O O17 0.000000 0.543500 0.707277
#
# Coordination Sequence:
#
# PCOD9585273 Si02
#       7
#    12  12  12  12  12  12  12
#     4  12  27  44  62  86 114 146 194 260 325 374
#     4   8  14  27  49  78 111 145 182 225 271 322
#     4   8  14  27  49  78 111 145 182 225 271 322
#     4  10  20  37  61  87 116 156 198 236 285 358
#     4   8  14  27  49  78 111 145 182 225 271 322
#     4  10  20  37  61  87 116 156 198 236 285 358
#     4   8  14  27  49  78 111 145 182 225 271 322
#
# _framework density 21.8307
#
# number of rings (size 3 to 8) (size 9 to 14) (size 15 to 20)
#    0.000    2.857    0.000    3.571    0.000    3.429 
#    1.714    1.429    0.000    6.857    0.000    0.000 
#    0.000    0.000    0.000    0.000    0.000    0.000 
#
# Total GULP energy -468699.131357 kJ/mol
# GULP energy per Si atom -5579.751564 kJ/mol
# Density = 2.178101 g / cm^3
# Si number density = 21.830700 Si / 1000 Ang^3
#
#
#
# Elastic Constant Matrix: (Units=GPa)
#
#
# Indices 1 2 3 4 5 6 
#
# 1 128.3351 47.8070 0.2518 0.0000 0.0000 0.0000
# 2 47.8070 128.3351 0.2518 0.0000 0.0000 0.0000
# 3 0.2518 0.2518 50.4642 0.0000 0.0000 0.0000
# 4 0.0000 0.0000 0.0000 16.2850 0.0000 0.0000
# 5 0.0000 0.0000 0.0000 0.0000 16.2850 0.0000
# 6 0.0000 0.0000 0.0000 0.0000 0.0000 40.2640
#
#
#
# Elastic Compliance Matrix: (Units=1/GPa)
#
#
# Indices 1 2 3 4 5 6 
#
# 1 0.009048 -0.003370 -0.000028 0.000000 0.000000 0.000000
# 2 -0.003370 0.009048 -0.000028 0.000000 0.000000 0.000000
# 3 -0.000028 -0.000028 0.019816 0.000000 0.000000 0.000000
# 4 0.000000 0.000000 0.000000 0.061406 0.000000 0.000000
# 5 0.000000 0.000000 0.000000 0.000000 0.061406 0.000000
# 6 0.000000 0.000000 0.000000 0.000000 0.000000 0.024836
#
#
# Mechanical properties :
#
#
# Convention : Reuss Voigt Hill
#
# Bulk Modulus (GPa) = 32.19820 44.86173 38.52997
# Shear Modulus (GPa) = 24.65891 31.82174 28.24032
#
# Velocity S-wave (km/s) = 3.36453 3.82207 3.60058
# Velocity P-wave (km/s) = 5.46575 6.33025 5.91382
#
# Compressibility (1/GPa) = 0.03105764
#
# Stress axis : x y z
#
# Youngs Moduli (GPa) = 110.52565 110.52565 50.46349
#
# Poissons Ratio (x) = 0.37251 0.00143
# Poissons Ratio (y) = 0.37251 0.00143
# Poissons Ratio (z) = 0.00313 0.00313
#
# Static dielectric constant tensor:
#      x y z
#    x 1.774230 0.000000 0.000000 
#    y 0.000000 1.774230 0.000000 
#    z 0.000000 0.000000 1.937590 
# 
# From -- ./inp_files/1491.got.cif
#   From: 2010.05.17/outbox.cif.g08.bks.cpg/sg185_cif.got.tgz:1491.got - 2010.05.20 12:05:34.
