data_PCOD9585063
_publ_section_title
;
Structure prediction by ZEFSAII (Michael W. Deem and Ramdas Pophale) SiO2 
 PCOD9585063
Probable space group: P 6 M M
;
_chemical_formula_sum "Si O2"
_cell_formula_units_Z 96
_cell_length_a 18.233469
_cell_length_b 18.233469
_cell_length_c 20.490239
_cell_angle_alpha 90.000000
_cell_angle_beta 90.000000
_cell_angle_gamma 120.000000
_cell_volume 5899.514349
_symmetry_space_group_name_H-M "P 6 M M"
_symmetry_group_IT_number 183
_symmetry_cell_setting 'hexagonal'
loop_
_space_group_symop_operation_xyz
x,y,z
x-y,x,z
-y,x-y,z
-x,-y,z
-x+y,-x,z
y,-x+y,z
-x+y,y,z
x,x-y,z
-y,-x,z
y,x,z
x-y,-y,z
-x,-x+y,z
loop_
_atom_site_type_symbol
_atom_site_label
_atom_site_fract_x
_atom_site_fract_y
_atom_site_fract_z
Si Si1 0.332886 0.493728 0.762110
Si Si2 0.102589 0.633437 0.141485
Si Si3 0.265530 0.362533 0.408445
Si Si4 0.734472 0.637469 0.874527
Si Si5 0.493728 0.160843 0.520863
Si Si6 0.268480 0.365869 0.641487
Si Si7 0.902526 0.260144 0.255726
Si Si8 0.902526 0.642384 0.027246
O O1 0.259537 0.519073 0.760121
O O2 0.424586 0.575414 0.754932
O O3 0.321310 0.443413 0.829344
O O4 0.310300 0.425993 0.704302
O O5 0.136838 0.568419 0.141485
O O6 0.124906 0.690073 0.206054
O O7 0.124907 0.690074 0.076917
O O8 0.000000 0.577640 0.141484
O O9 0.167816 0.335632 0.422126
O O10 0.291743 0.291743 0.421859
O O11 0.321311 0.443414 0.453629
O O12 0.280642 0.383637 0.331497
O O13 0.832186 0.664371 0.860843
O O14 0.708260 0.708260 0.861112
O O15 0.719362 0.616367 0.951475
O O16 0.575414 0.150828 0.528043
O O17 0.519075 0.259538 0.522852
O O18 0.425992 0.115694 0.578671
O O19 0.169110 0.338219 0.641487
O O20 0.292241 0.292241 0.641486
O O21 0.838953 0.161048 0.246645
O O22 0.000000 0.290215 0.241821
O O23 0.838955 0.677909 0.036328
O O24 0.000000 0.709786 0.041151
#
# Coordination Sequence:
#
# PCOD9585063 Si02
#       8
#    12  12  12  12  12  12  12  12
#     4  10  20  33  49  70  97 127 157 189 228 274
#     4   9  17  28  43  64  88 114 146 185 225 264
#     4   9  18  31  47  68  93 122 155 192 233 274
#     4   9  18  31  47  68  93 122 155 192 233 274
#     4  10  20  33  49  70  97 127 157 189 228 274
#     4  10  21  35  51  72  97 125 156 192 233 273
#     4   9  17  30  48  69  93 121 154 190 229 274
#     4   9  17  30  48  69  93 121 154 190 229 274
#
# _framework density 16.272525999999999
#
# number of rings (size 3 to 8) (size 9 to 14) (size 15 to 20)
#    0.000    2.625    0.000    1.750    0.000    3.500 
#    0.000    3.750    0.000    2.625    0.000    3.500 
#    0.000    9.000    0.000    0.500    0.000    0.500 
#
# Total GULP energy -534820.901538 kJ/mol
# GULP energy per Si atom -5571.051058 kJ/mol
# Density = 1.623549 g / cm^3
# Si number density = 16.272526 Si / 1000 Ang^3
#
#
#
# Elastic Constant Matrix: (Units=GPa)
#
#
# Indices 1 2 3 4 5 6 
#
# 1 97.6172 71.7038 46.0836 0.0000 0.0000 0.0000
# 2 71.7038 97.6172 46.0836 0.0000 0.0000 0.0000
# 3 46.0836 46.0836 62.3594 0.0000 0.0000 0.0000
# 4 0.0000 0.0000 0.0000 19.0105 0.0000 0.0000
# 5 0.0000 0.0000 0.0000 0.0000 19.0105 0.0000
# 6 0.0000 0.0000 0.0000 0.0000 0.0000 12.9567
#
#
#
# Elastic Compliance Matrix: (Units=1/GPa)
#
#
# Indices 1 2 3 4 5 6 
#
# 1 0.024235 -0.014355 -0.007302 0.000000 0.000000 0.000000
# 2 -0.014355 0.024235 -0.007302 0.000000 0.000000 0.000000
# 3 -0.007302 -0.007302 0.026828 0.000000 0.000000 0.000000
# 4 0.000000 0.000000 0.000000 0.052602 0.000000 0.000000
# 5 0.000000 0.000000 0.000000 0.000000 0.052602 0.000000
# 6 0.000000 0.000000 0.000000 0.000000 0.000000 0.077180
#
#
# Mechanical properties :
#
#
# Convention : Reuss Voigt Hill
#
# Bulk Modulus (GPa) = 57.53010 65.03732 61.28371
# Shear Modulus (GPa) = 15.55724 16.44374 16.00049
#
# Velocity S-wave (km/s) = 3.09535 3.18232 3.13914
# Velocity P-wave (km/s) = 6.94304 7.31828 7.13313
#
# Compressibility (1/GPa) = 0.01738220
#
# Stress axis : x y z
#
# Youngs Moduli (GPa) = 41.26219 41.26219 37.27451
#
# Poissons Ratio (x) = 0.59231 0.27217
# Poissons Ratio (y) = 0.59231 0.27217
# Poissons Ratio (z) = 0.30128 0.30128
#
# Static dielectric constant tensor:
#      x y z
#    x 1.535420 0.000000 0.000000 
#    y 0.000000 1.535420 0.000000 
#    z 0.000000 0.000000 1.567050 
# 
# From -- ./inp_files/3153.got.cif
#   From: 2010.05.17/outbox.cif.g08.bks.cpg/sg183_2_cif.got.tgz:3153.got - 2010.05.20 12:02:58.
