data_PCOD9585028
_publ_section_title
;
Structure prediction by ZEFSAII (Michael W. Deem and Ramdas Pophale) SiO2 
 PCOD9585028
Probable space group: P 6 M M
;
_chemical_formula_sum "Si O2"
_cell_formula_units_Z 84
_cell_length_a 27.340498
_cell_length_b 27.340498
_cell_length_c 7.261768
_cell_angle_alpha 90.000000
_cell_angle_beta 90.000000
_cell_angle_gamma 120.000000
_cell_volume 4700.952287
_symmetry_space_group_name_H-M "P 6 M M"
_symmetry_group_IT_number 183
_symmetry_cell_setting 'hexagonal'
loop_
_space_group_symop_operation_xyz
x,y,z
x-y,x,z
-y,x-y,z
-x,-y,z
-x+y,-x,z
y,-x+y,z
-x+y,y,z
x,x-y,z
-y,-x,z
y,x,z
x-y,-y,z
-x,-x+y,z
loop_
_atom_site_type_symbol
_atom_site_label
_atom_site_fract_x
_atom_site_fract_y
_atom_site_fract_z
Si Si1 0.850553 0.369684 0.793700
Si Si2 0.932951 0.564350 0.525829
Si Si3 0.933119 0.754662 0.873692
Si Si4 0.108229 0.777961 0.209539
Si Si5 0.935548 0.672916 0.598000
Si Si6 0.777963 0.331666 0.443568
Si Si7 0.542298 0.862275 0.176453
O O1 0.840408 0.420204 0.852751
O O2 0.905355 0.393514 0.661935
O O3 0.801534 0.330969 0.647950
O O4 0.858568 0.341768 0.975680
O O5 0.910298 0.605756 0.603376
O O6 0.912360 0.549772 0.314910
O O7 0.000000 0.597600 0.531499
O O8 0.888712 0.777424 0.878159
O O9 0.913381 0.707186 0.713887
O O10 0.000000 0.800558 0.853922
O O11 0.922998 0.716487 0.054136
O O12 0.164484 0.835517 0.262973
O O13 0.068433 0.752606 0.384777
O O14 0.128350 0.733504 0.154055
O O15 0.000000 0.699890 0.661607
O O16 0.791314 0.395657 0.409270
O O17 0.711890 0.288111 0.435840
O O18 0.808775 0.311860 0.296121
#
# Coordination Sequence:
#
# PCOD9585028 Si02
#       7
#    12  12  12  12  12  12  12
#     4  10  21  36  52  71  99 133 169 212 260 310
#     4   9  19  34  52  75 102 134 171 209 252 308
#     4  10  20  33  51  76 106 139 174 212 252 296
#     4  10  19  30  48  75 103 131 164 202 247 301
#     4   9  17  31  50  71  98 130 162 200 246 295
#     4  10  21  37  56  76  99 130 172 223 277 332
#     4  10  20  35  53  76 105 136 169 211 265 321
#
# _framework density 17.868718999999999
#
# number of rings (size 3 to 8) (size 9 to 14) (size 15 to 20)
#    0.000    2.286    0.000    2.714    0.000    3.143 
#    0.000    3.571    0.000    1.857    0.000    0.000 
#    0.000    0.000    0.000    4.571    0.000    0.000 
#
# Total GULP energy -467726.687665 kJ/mol
# GULP energy per Si atom -5568.174853 kJ/mol
# Density = 1.782805 g / cm^3
# Si number density = 17.868719 Si / 1000 Ang^3
#
#
#
# Elastic Constant Matrix: (Units=GPa)
#
#
# Indices 1 2 3 4 5 6 
#
# 1 57.6380 22.8228 13.3286 0.0000 0.0000 0.0000
# 2 22.8228 57.6380 13.3286 0.0000 0.0000 0.0000
# 3 13.3286 13.3286 60.2286 0.0000 0.0000 0.0000
# 4 0.0000 0.0000 0.0000 2.3070 0.0000 0.0000
# 5 0.0000 0.0000 0.0000 0.0000 2.3070 0.0000
# 6 0.0000 0.0000 0.0000 0.0000 0.0000 17.4076
#
#
#
# Elastic Compliance Matrix: (Units=1/GPa)
#
#
# Indices 1 2 3 4 5 6 
#
# 1 0.021067 -0.007656 -0.002968 0.000000 0.000000 0.000000
# 2 -0.007656 0.021067 -0.002968 0.000000 0.000000 0.000000
# 3 -0.002968 -0.002968 0.017917 0.000000 0.000000 0.000000
# 4 0.000000 0.000000 0.000000 0.433458 0.000000 0.000000
# 5 0.000000 0.000000 0.000000 0.000000 0.433458 0.000000
# 6 0.000000 0.000000 0.000000 0.000000 0.000000 0.057446
#
#
# Mechanical properties :
#
#
# Convention : Reuss Voigt Hill
#
# Bulk Modulus (GPa) = 30.42435 30.49611 30.46023
# Shear Modulus (GPa) = 4.88972 12.80597 8.84784
#
# Velocity S-wave (km/s) = 1.65602 2.67997 2.22763
# Velocity P-wave (km/s) = 4.55193 5.16528 4.86828
#
# Compressibility (1/GPa) = 0.03286841
#
# Stress axis : x y z
#
# Youngs Moduli (GPa) = 47.46666 47.46666 55.81276
#
# Poissons Ratio (x) = 0.36339 0.16565
# Poissons Ratio (y) = 0.36339 0.16565
# Poissons Ratio (z) = 0.14088 0.14088
#
# Static dielectric constant tensor:
#      x y z
#    x 1.631800 0.000000 0.000000 
#    y 0.000000 1.631800 0.000000 
#    z 0.000000 0.000000 1.609240 
# 
# From -- ./inp_files/565.got.cif
#   From: 2010.05.17/outbox.cif.g08.bks.cpg/sg183_1_cif.got.tgz:565.got - 2010.05.20 12:02:58.
