data_PCOD9585099
_publ_section_title
;
Structure prediction by ZEFSAII (Michael W. Deem and Ramdas Pophale) SiO2 
 PCOD9585099
Probable space group: P 6 C C
;
_chemical_formula_sum "Si O2"
_cell_formula_units_Z 72
_cell_length_a 21.779211
_cell_length_b 21.779211
_cell_length_c 8.754021
_cell_angle_alpha 90.000000
_cell_angle_beta 90.000000
_cell_angle_gamma 120.000000
_cell_volume 3596.023330
_symmetry_space_group_name_H-M "P 6 C C"
_symmetry_group_IT_number 184
_symmetry_cell_setting 'hexagonal'
loop_
_space_group_symop_operation_xyz
x,y,z
x-y,x,z
-y,x-y,z
-x,-y,z
-x+y,-x,z
y,-x+y,z
-x+y,y,1/2+z
x,x-y,1/2+z
-y,-x,1/2+z
y,x,1/2+z
x-y,-y,1/2+z
-x,-x+y,1/2+z
loop_
_atom_site_type_symbol
_atom_site_label
_atom_site_fract_x
_atom_site_fract_y
_atom_site_fract_z
Si Si1 0.662765 0.710328 0.852240
Si Si2 0.097635 0.722674 0.688755
Si Si3 0.115336 0.950775 0.432969
Si Si4 0.910999 0.509072 0.317325
Si Si5 0.855066 0.119491 0.700982
Si Si6 0.465538 0.395658 0.679811
O O1 0.704484 0.669417 0.810291
O O2 0.714909 0.792861 0.822583
O O3 0.594854 0.680708 0.739308
O O4 0.634470 0.695914 0.023755
O O5 0.132616 0.677220 0.748356
O O6 0.142688 0.806866 0.672353
O O7 0.156088 0.928658 0.554789
O O8 0.134099 0.929534 0.270977
O O9 0.030797 0.897798 0.447483
O O10 0.921084 0.520562 0.499030
O O11 0.888956 0.429685 0.267866
O O12 0.987928 0.555878 0.234915
#
# Coordination Sequence:
#
# PCOD9585099 Si02
#       6
#    12  12  12  12  12  12
#     4  11  22  36  55  78 109 145 187 234 291 358
#     4  11  22  36  55  78 109 145 187 234 291 358
#     4  12  25  44  62  82 104 144 200 270 340 410
#     4  10  18  30  51  78 111 144 176 207 250 311
#     4  12  26  38  59  82 112 146 194 252 324 390
#     4  10  18  30  51  78 111 144 176 207 250 311
#
# _framework density 20.022117000000001
#
# number of rings (size 3 to 8) (size 9 to 14) (size 15 to 20)
#    0.000    1.000    1.667   10.167    4.667    0.000 
#    0.000    1.667    0.000    0.000    0.000    0.000 
#    1.667    0.000    2.000    0.000    1.333    0.000 
#
# Total GULP energy -402034.777476 kJ/mol
# GULP energy per Si atom -5583.816354 kJ/mol
# Density = 1.997655 g / cm^3
# Si number density = 20.022117 Si / 1000 Ang^3
#
#
#
# Elastic Constant Matrix: (Units=GPa)
#
#
# Indices 1 2 3 4 5 6 
#
# 1 72.5974 10.8743 -1.4980 0.0000 0.0000 0.0000
# 2 10.8743 72.5974 -1.4980 0.0000 0.0000 0.0000
# 3 -1.4980 -1.4980 104.4636 0.0000 0.0000 0.0000
# 4 0.0000 0.0000 0.0000 26.1074 0.0000 0.0000
# 5 0.0000 0.0000 0.0000 0.0000 26.1074 0.0000
# 6 0.0000 0.0000 0.0000 0.0000 0.0000 30.8616
#
#
#
# Elastic Compliance Matrix: (Units=1/GPa)
#
#
# Indices 1 2 3 4 5 6 
#
# 1 0.014094 -0.002108 0.000172 0.000000 0.000000 0.000000
# 2 -0.002108 0.014094 0.000172 0.000000 0.000000 0.000000
# 3 0.000172 0.000172 0.009578 0.000000 0.000000 0.000000
# 4 0.000000 0.000000 0.000000 0.038303 0.000000 0.000000
# 5 0.000000 0.000000 0.000000 0.000000 0.038303 0.000000
# 6 0.000000 0.000000 0.000000 0.000000 0.000000 0.032403
#
#
# Mechanical properties :
#
#
# Convention : Reuss Voigt Hill
#
# Bulk Modulus (GPa) = 29.20754 29.49055 29.34905
# Shear Modulus (GPa) = 30.91864 32.73397 31.82631
#
# Velocity S-wave (km/s) = 3.93393 4.04776 3.99125
# Velocity P-wave (km/s) = 5.93748 6.05036 5.99418
#
# Compressibility (1/GPa) = 0.03423773
#
# Stress axis : x y z
#
# Youngs Moduli (GPa) = 70.95306 70.95306 104.40986
#
# Poissons Ratio (x) = 0.14954 -0.01795
# Poissons Ratio (y) = 0.14954 -0.01795
# Poissons Ratio (z) = -0.01220 -0.01220
#
# Static dielectric constant tensor:
#      x y z
#    x 1.777280 0.000000 0.000000 
#    y 0.000000 1.777280 0.000000 
#    z 0.000000 0.000000 1.735100 
# 
# From -- ./inp_files/351.got.cif
#   From: 2010.05.17/outbox.cif.g08.bks.cpg/sg184_cif.got.tgz:351.got - 2010.05.20 12:04:40.
