data_PCOD9585434
_publ_section_title
;
Structure prediction by ZEFSAII (Michael W. Deem and Ramdas Pophale) SiO2 
 PCOD9585434
Probable space group: P -6 M 2
;
_chemical_formula_sum "Si O2"
_cell_formula_units_Z 72
_cell_length_a 24.588044
_cell_length_b 24.588044
_cell_length_c 8.181087
_cell_angle_alpha 90.000000
_cell_angle_beta 90.000000
_cell_angle_gamma 120.000000
_cell_volume 4283.409603
_symmetry_space_group_name_H-M "P -6 M 2"
_symmetry_group_IT_number 187
_symmetry_cell_setting 'hexagonal'
loop_
_space_group_symop_operation_xyz
x,y,z
-x+y,-x,-z
-y,x-y,z
x,y,-z
-x+y,-x,z
-y,x-y,-z
-y,-x,-z
-x+y,y,-z
x,x-y,-z
-x+y,y,z
x,x-y,z
-y,-x,z
loop_
_atom_site_type_symbol
_atom_site_label
_atom_site_fract_x
_atom_site_fract_y
_atom_site_fract_z
Si Si1 0.033054 0.188375 0.697150
Si Si2 0.488904 0.511097 0.687123
Si Si3 0.105094 0.332771 0.302625
Si Si4 0.817595 0.635189 0.200216
Si Si5 0.435259 0.327201 0.800082
Si Si6 0.220018 0.110009 0.194483
Si Si7 0.368873 0.406198 0.806033
Si Si8 0.558167 0.441834 0.810718
O O1 0.033554 0.188123 0.500000
O O2 0.084902 0.169803 0.751844
O O3 0.059536 0.260491 0.750165
O O4 0.962364 0.144918 0.753122
O O5 0.499610 0.500391 0.500000
O O6 0.415481 0.472868 0.724514
O O7 0.520100 0.479900 0.799599
O O8 0.103730 0.333499 0.500000
O O9 0.175165 0.350330 0.252255
O O10 0.080367 0.377060 0.237279
O O11 0.853125 0.597989 0.252425
O O12 0.853865 0.707730 0.256749
O O13 0.817947 0.635893 0.000000
O O14 0.393611 0.358746 0.751515
O O15 0.507073 0.373702 0.741878
O O16 0.437158 0.327842 0.000000
O O17 0.224214 0.112107 0.000000
O O18 0.376992 0.413203 0.000000
O O19 0.568047 0.431954 0.000000
#
# Coordination Sequence:
#
# PCOD9585434 Si02
#       8
#    12   6  12   6  12   6  12   6
#     4   9  19  36  53  67  88 123 161 195 242 303
#     4  10  18  28  44  66  91 119 151 185 223 266
#     4   9  18  32  49  69  94 123 156 192 230 280
#     4   9  16  25  39  64  93 119 147 183 237 291
#     4   8  14  24  39  59  86 118 149 183 224 275
#     4  11  21  31  47  71  94 115 151 205 255 299
#     4  10  18  29  45  67  95 124 154 188 230 278
#     4   8  14  26  42  61  84 113 149 187 227 270
#
# _framework density 16.80904
#
# number of rings (size 3 to 8) (size 9 to 14) (size 15 to 20)
#    0.000    2.833    0.000    4.500    0.000    2.667 
#    0.500    1.667    0.000    1.333    0.000    2.333 
#    0.833    0.000    1.500    0.000    1.500    0.000 
#
# Total GULP energy -401134.141005 kJ/mol
# GULP energy per Si atom -5571.307514 kJ/mol
# Density = 1.677078 g / cm^3
# Si number density = 16.809040 Si / 1000 Ang^3
#
#
#
# Elastic Constant Matrix: (Units=GPa)
#
#
# Indices 1 2 3 4 5 6 
#
# 1 136.3689 88.8504 16.7130 0.0000 0.0000 0.0000
# 2 88.8504 136.3689 16.7130 0.0000 0.0000 0.0000
# 3 16.7130 16.7130 19.5596 0.0000 0.0000 0.0000
# 4 0.0000 0.0000 0.0000 14.6712 0.0000 0.0000
# 5 0.0000 0.0000 0.0000 0.0000 14.6712 0.0000
# 6 0.0000 0.0000 0.0000 0.0000 0.0000 23.7592
#
#
#
# Elastic Compliance Matrix: (Units=1/GPa)
#
#
# Indices 1 2 3 4 5 6 
#
# 1 0.013065 -0.007980 -0.004345 0.000000 0.000000 0.000000
# 2 -0.007980 0.013065 -0.004345 0.000000 0.000000 0.000000
# 3 -0.004345 -0.004345 0.058551 0.000000 0.000000 0.000000
# 4 0.000000 0.000000 0.000000 0.068161 0.000000 0.000000
# 5 0.000000 0.000000 0.000000 0.000000 0.068161 0.000000
# 6 0.000000 0.000000 0.000000 0.000000 0.000000 0.042089
#
#
# Mechanical properties :
#
#
# Convention : Reuss Voigt Hill
#
# Bulk Modulus (GPa) = 19.47757 59.65002 39.56379
# Shear Modulus (GPa) = 15.94674 21.95506 18.95090
#
# Velocity S-wave (km/s) = 3.08344 3.61798 3.36135
# Velocity P-wave (km/s) = 4.92844 7.28128 6.21717
#
# Compressibility (1/GPa) = 0.05134112
#
# Stress axis : x y z
#
# Youngs Moduli (GPa) = 76.54211 76.54211 17.07917
#
# Poissons Ratio (x) = 0.61079 0.07421
# Poissons Ratio (y) = 0.61079 0.07421
# Poissons Ratio (z) = 0.33257 0.33257
#
# Static dielectric constant tensor:
#      x y z
#    x 1.570440 0.000000 0.000000 
#    y 0.000000 1.570440 0.000000 
#    z 0.000000 0.000000 1.602570 
# 
# From -- ./inp_files/1119.got.cif
#   From: 2010.05.17/outbox.cif.g08.bks.cpg/sg187_1_cif.got.tgz:1119.got - 2010.05.20 12:09:04.
