data_PCOD9585608
_publ_section_title
;
Structure prediction by ZEFSAII (Michael W. Deem and Ramdas Pophale) SiO2 
 PCOD9585608
Probable space group: P -6 M 2
;
_chemical_formula_sum "Si O2"
_cell_formula_units_Z 72
_cell_length_a 12.953295
_cell_length_b 12.953295
_cell_length_c 31.494235
_cell_angle_alpha 90.000000
_cell_angle_beta 90.000000
_cell_angle_gamma 120.000000
_cell_volume 4576.381360
_symmetry_space_group_name_H-M "P -6 M 2"
_symmetry_group_IT_number 187
_symmetry_cell_setting 'hexagonal'
loop_
_space_group_symop_operation_xyz
x,y,z
-x+y,-x,-z
-y,x-y,z
x,y,-z
-x+y,-x,z
-y,x-y,-z
-y,-x,-z
-x+y,y,-z
x,x-y,-z
-x+y,y,z
x,x-y,z
-y,-x,z
loop_
_atom_site_type_symbol
_atom_site_label
_atom_site_fract_x
_atom_site_fract_y
_atom_site_fract_z
Si Si1 0.666900 0.087850 0.671482
Si Si2 0.245219 0.245181 0.750579
Si Si3 0.910072 0.333629 0.075305
Si Si4 0.754593 0.755399 0.000000
Si Si5 0.422938 0.333398 0.826206
Si Si6 0.001152 0.753436 0.593561
Si Si7 0.001120 0.243709 0.500000
O O1 0.541010 0.082019 0.673670
O O2 0.775225 0.224776 0.671384
O O3 0.682007 0.026307 0.629285
O O4 0.690158 0.025374 0.711640
O O5 0.125563 0.251125 0.746851
O O6 0.317181 0.304459 0.793772
O O7 0.216522 0.108261 0.750165
O O8 0.915556 0.457778 0.066907
O O9 0.774566 0.225435 0.070289
O O10 0.943596 0.332275 0.124519
O O11 0.987198 0.309196 0.041705
O O12 0.755613 0.877807 0.000000
O O13 0.888364 0.776728 0.000000
O O14 0.452150 0.226075 0.821045
O O15 0.540972 0.459029 0.817318
O O16 0.887649 0.775298 0.593735
O O17 0.011480 0.710256 0.546084
O O18 0.122325 0.877676 0.602074
O O19 0.873819 0.126182 0.500000
O O20 0.104464 0.208927 0.500000
#
# Coordination Sequence:
#
# PCOD9585608 Si02
#       7
#    12  12  12   6  12  12   6
#     4  10  20  33  49  68  91 120 154 192 232 275
#     4  10  20  33  50  72  97 123 151 186 228 274
#     4   9  17  30  50  75  98 120 150 192 239 278
#     4  10  20  32  46  66  94 128 162 194 232 280
#     4   9  17  30  50  75 100 124 151 186 228 274
#     4   9  16  27  46  71  97 122 149 185 229 275
#     4   8  13  22  39  66  96 122 148 180 222 270
#
# _framework density 15.732955
#
# number of rings (size 3 to 8) (size 9 to 14) (size 15 to 20)
#    0.000    2.667    0.000    2.250    0.000    3.333 
#    0.000    4.583    0.000    9.333    0.000    1.167 
#    0.000    0.000    0.000    0.000    0.000    0.000 
#
# Total GULP energy -401166.320306 kJ/mol
# GULP energy per Si atom -5571.754449 kJ/mol
# Density = 1.569715 g / cm^3
# Si number density = 15.732955 Si / 1000 Ang^3
#
#
#
# Elastic Constant Matrix: (Units=GPa)
#
#
# Indices 1 2 3 4 5 6 
#
# 1 98.4350 63.9160 78.5271 0.0000 0.0000 0.0000
# 2 63.9160 98.4350 78.5271 0.0000 0.0000 0.0000
# 3 78.5271 78.5271 122.3732 0.0000 0.0000 0.0000
# 4 0.0000 0.0000 0.0000 20.7368 0.0000 0.0000
# 5 0.0000 0.0000 0.0000 0.0000 20.7368 0.0000
# 6 0.0000 0.0000 0.0000 0.0000 0.0000 17.2595
#
#
#
# Elastic Compliance Matrix: (Units=1/GPa)
#
#
# Indices 1 2 3 4 5 6 
#
# 1 0.022606 -0.006364 -0.010422 0.000000 0.000000 0.000000
# 2 -0.006364 0.022606 -0.010422 0.000000 0.000000 0.000000
# 3 -0.010422 -0.010422 0.021548 0.000000 0.000000 0.000000
# 4 0.000000 0.000000 0.000000 0.048224 0.000000 0.000000
# 5 0.000000 0.000000 0.000000 0.000000 0.048224 0.000000
# 6 0.000000 0.000000 0.000000 0.000000 0.000000 0.057939
#
#
# Mechanical properties :
#
#
# Convention : Reuss Voigt Hill
#
# Bulk Modulus (GPa) = 81.02467 84.57598 82.80032
# Shear Modulus (GPa) = 17.87777 18.29815 18.08796
#
# Velocity S-wave (km/s) = 3.37460 3.41405 3.39438
# Velocity P-wave (km/s) = 8.17286 8.33156 8.25259
#
# Compressibility (1/GPa) = 0.01234192
#
# Stress axis : x y z
#
# Youngs Moduli (GPa) = 44.23658 44.23658 46.40809
#
# Poissons Ratio (x) = 0.28151 0.48369
# Poissons Ratio (y) = 0.28151 0.48369
# Poissons Ratio (z) = 0.46105 0.46105
#
# Static dielectric constant tensor:
#      x y z
#    x 1.491390 0.000000 0.000000 
#    y 0.000000 1.491390 0.000000 
#    z 0.000000 0.000000 1.560760 
# 
# From -- ./inp_files/4581.got.cif
#   From: 2010.05.17/outbox.cif.g08.bks.cpg/sg187_3_cif.got.tgz:4581.got - 2010.05.20 12:09:04.
