data_PCOD9585504
_publ_section_title
;
Structure prediction by ZEFSAII (Michael W. Deem and Ramdas Pophale) SiO2 
 PCOD9585504
Probable space group: P -6 M 2
;
_chemical_formula_sum "Si O2"
_cell_formula_units_Z 66
_cell_length_a 17.398027
_cell_length_b 17.398027
_cell_length_c 15.537894
_cell_angle_alpha 90.000000
_cell_angle_beta 90.000000
_cell_angle_gamma 120.000000
_cell_volume 4073.078563
_symmetry_space_group_name_H-M "P -6 M 2"
_symmetry_group_IT_number 187
_symmetry_cell_setting 'hexagonal'
loop_
_space_group_symop_operation_xyz
x,y,z
-x+y,-x,-z
-y,x-y,z
x,y,-z
-x+y,-x,z
-y,x-y,-z
-y,-x,-z
-x+y,y,-z
x,x-y,-z
-x+y,y,z
x,x-y,z
-y,-x,z
loop_
_atom_site_type_symbol
_atom_site_label
_atom_site_fract_x
_atom_site_fract_y
_atom_site_fract_z
Si Si1 0.290695 0.235009 0.097837
Si Si2 0.435160 0.386663 0.324423
Si Si3 0.824967 0.826403 0.404203
Si Si4 0.843469 0.509545 0.151418
Si Si5 0.247294 0.320024 0.255355
Si Si6 0.479540 0.147103 0.500000
O O1 0.272698 0.136349 0.121244
O O2 0.397669 0.297723 0.102180
O O3 0.250750 0.273991 0.166486
O O4 0.260625 0.232667 0.000000
O O5 0.512875 0.487126 0.335132
O O6 0.466593 0.342890 0.250361
O O7 0.347467 0.383786 0.287519
O O8 0.429784 0.338601 0.414525
O O9 0.785747 0.796506 0.500000
O O10 0.901571 0.803141 0.391938
O O11 0.754419 0.787932 0.329277
O O12 0.864525 0.932263 0.402597
O O13 0.741067 0.482133 0.144159
O O14 0.858447 0.429224 0.124045
O O15 0.177448 0.354896 0.249392
O O16 0.579496 0.158992 0.500000
O O17 0.484874 0.242437 0.500000
#
# Coordination Sequence:
#
# PCOD9585504 Si02
#       6
#    12  12  12  12  12   6
#     4   9  18  32  48  67  95 128 159 196 242 287
#     4   9  19  33  46  65  95 129 161 199 247 289
#     4   9  17  28  43  65  94 124 151 181 221 269
#     4   9  16  27  44  67  97 132 168 199 229 270
#     4  10  20  33  50  71  91 117 159 204 244 288
#     4  10  19  30  47  72 104 140 174 198 219 256
#
# _framework density 16.203959999999999
#
# number of rings (size 3 to 8) (size 9 to 14) (size 15 to 20)
#    0.000    2.727    0.000    1.545    1.273    3.636 
#    0.000    1.818    0.000    1.818    0.000    0.000 
#    0.000    0.000    0.000    0.545    0.000    0.000 
#
# Total GULP energy -367615.185170 kJ/mol
# GULP energy per Si atom -5569.927048 kJ/mol
# Density = 1.616708 g / cm^3
# Si number density = 16.203960 Si / 1000 Ang^3
#
#
#
# Elastic Constant Matrix: (Units=GPa)
#
#
# Indices 1 2 3 4 5 6 
#
# 1 57.4926 19.9232 19.0815 0.0000 0.0000 0.0000
# 2 19.9232 57.4926 19.0815 0.0000 0.0000 0.0000
# 3 19.0815 19.0815 73.9171 0.0000 0.0000 0.0000
# 4 0.0000 0.0000 0.0000 14.3913 0.0000 0.0000
# 5 0.0000 0.0000 0.0000 0.0000 14.3913 0.0000
# 6 0.0000 0.0000 0.0000 0.0000 0.0000 18.7847
#
#
#
# Elastic Compliance Matrix: (Units=1/GPa)
#
#
# Indices 1 2 3 4 5 6 
#
# 1 0.020709 -0.005908 -0.003821 0.000000 0.000000 0.000000
# 2 -0.005908 0.020709 -0.003821 0.000000 0.000000 0.000000
# 3 -0.003821 -0.003821 0.015501 0.000000 0.000000 0.000000
# 4 0.000000 0.000000 0.000000 0.069487 0.000000 0.000000
# 5 0.000000 0.000000 0.000000 0.000000 0.069487 0.000000
# 6 0.000000 0.000000 0.000000 0.000000 0.000000 0.053235
#
#
# Mechanical properties :
#
#
# Convention : Reuss Voigt Hill
#
# Bulk Modulus (GPa) = 33.53486 33.89720 33.71603
# Shear Modulus (GPa) = 17.47231 18.23452 17.85342
#
# Velocity S-wave (km/s) = 3.28727 3.35821 3.32293
# Velocity P-wave (km/s) = 5.92863 6.00010 5.96447
#
# Compressibility (1/GPa) = 0.02981972
#
# Stress axis : x y z
#
# Youngs Moduli (GPa) = 48.28800 48.28800 64.51065
#
# Poissons Ratio (x) = 0.28530 0.24648
# Poissons Ratio (y) = 0.28530 0.24648
# Poissons Ratio (z) = 0.18450 0.18450
#
# Static dielectric constant tensor:
#      x y z
#    x 1.550990 0.000000 0.000000 
#    y 0.000000 1.550990 0.000000 
#    z 0.000000 0.000000 1.560820 
# 
# From -- ./inp_files/2449.got.cif
#   From: 2010.05.17/outbox.cif.g08.bks.cpg/sg187_2_cif.got.tgz:2449.got - 2010.05.20 12:09:04.
