data_PCOD9585241
_publ_section_title
;
Structure prediction by ZEFSAII (Michael W. Deem and Ramdas Pophale) SiO2 
 PCOD9585241
Probable space group: P 63 C M
;
_chemical_formula_sum "Si O2"
_cell_formula_units_Z 72
_cell_length_a 14.355129
_cell_length_b 14.355129
_cell_length_c 19.755609
_cell_angle_alpha 90.000000
_cell_angle_beta 90.000000
_cell_angle_gamma 120.000000
_cell_volume 3525.617985
_symmetry_space_group_name_H-M "P 63 C M"
_symmetry_group_IT_number 185
_symmetry_cell_setting 'hexagonal'
loop_
_space_group_symop_operation_xyz
x,y,z
x-y,x,1/2+z
-y,x-y,z
-x,-y,1/2+z
-x+y,-x,z
y,-x+y,1/2+z
-x+y,y,1/2+z
x,x-y,1/2+z
-y,-x,1/2+z
y,x,z
x-y,-y,z
-x,-x+y,z
loop_
_atom_site_type_symbol
_atom_site_label
_atom_site_fract_x
_atom_site_fract_y
_atom_site_fract_z
Si Si1 0.123463 0.780669 0.697420
Si Si2 0.276475 0.397990 0.087220
Si Si3 0.409306 0.876763 0.823666
Si Si4 0.407828 0.235857 0.852903
Si Si5 0.126006 0.870588 0.977082
Si Si6 0.433416 0.872152 0.171907
O O1 0.212457 0.878224 0.654715
O O2 0.148320 0.788260 0.776855
O O3 0.135080 0.681050 0.667980
O O4 0.000000 0.748894 0.687383
O O5 0.356179 0.356179 0.062917
O O6 0.351330 0.521169 0.112184
O O7 0.184049 0.354313 0.030712
O O8 0.298950 0.812745 0.862677
O O9 0.511626 0.875293 0.854850
O O10 0.391607 0.830217 0.746840
O O11 0.440263 0.000000 0.819167
O O12 0.312049 0.181608 0.905915
O O13 0.000000 0.828648 0.992910
O O14 0.195528 0.000000 0.977187
O O15 0.516966 0.000000 0.174167
#
# Coordination Sequence:
#
# PCOD9585241 Si02
#       6
#    12  12  12  12  12  12
#     4  10  19  34  59  88 118 154 201 250 311 376
#     4  10  20  37  58  83 117 157 205 256 311 369
#     4  10  19  34  57  86 116 149 192 242 297 357
#     4  11  21  37  60  87 121 159 200 251 308 372
#     4  11  24  42  62  86 120 165 212 260 315 375
#     4   8  16  32  53  80 111 142 181 239 299 359
#
# _framework density 20.421952000000001
#
# number of rings (size 3 to 8) (size 9 to 14) (size 15 to 20)
#    0.000    2.000    1.667    4.000    0.000    0.667 
#    4.000    0.000    0.000    0.333    0.000    0.000 
#    0.000    0.000    0.000    0.000    0.000    0.000 
#
# Total GULP energy -401271.060107 kJ/mol
# GULP energy per Si atom -5573.209168 kJ/mol
# Density = 2.037547 g / cm^3
# Si number density = 20.421952 Si / 1000 Ang^3
#
#
#
# Elastic Constant Matrix: (Units=GPa)
#
#
# Indices 1 2 3 4 5 6 
#
# 1 64.9857 21.8141 28.5836 0.0000 0.0000 0.0000
# 2 21.8141 64.9857 28.5836 0.0000 0.0000 0.0000
# 3 28.5836 28.5836 72.6591 0.0000 0.0000 0.0000
# 4 0.0000 0.0000 0.0000 25.6046 0.0000 0.0000
# 5 0.0000 0.0000 0.0000 0.0000 25.6046 0.0000
# 6 0.0000 0.0000 0.0000 0.0000 0.0000 21.5858
#
#
#
# Elastic Compliance Matrix: (Units=1/GPa)
#
#
# Indices 1 2 3 4 5 6 
#
# 1 0.019356 -0.003807 -0.006117 0.000000 0.000000 0.000000
# 2 -0.003807 0.019356 -0.006117 0.000000 0.000000 0.000000
# 3 -0.006117 -0.006117 0.018576 0.000000 0.000000 0.000000
# 4 0.000000 0.000000 0.000000 0.039055 0.000000 0.000000
# 5 0.000000 0.000000 0.000000 0.000000 0.039055 0.000000
# 6 0.000000 0.000000 0.000000 0.000000 0.000000 0.046327
#
#
# Mechanical properties :
#
#
# Convention : Reuss Voigt Hill
#
# Bulk Modulus (GPa) = 39.67231 40.06587 39.86909
# Shear Modulus (GPa) = 22.50116 22.80228 22.65172
#
# Velocity S-wave (km/s) = 3.32296 3.34512 3.33406
# Velocity P-wave (km/s) = 5.84732 5.88059 5.86398
#
# Compressibility (1/GPa) = 0.02520650
#
# Stress axis : x y z
#
# Youngs Moduli (GPa) = 51.66235 51.66235 53.83367
#
# Poissons Ratio (x) = 0.19668 0.32930
# Poissons Ratio (y) = 0.19668 0.32930
# Poissons Ratio (z) = 0.31602 0.31602
#
# Static dielectric constant tensor:
#      x y z
#    x 1.766030 0.000000 0.000000 
#    y 0.000000 1.766030 0.000000 
#    z 0.000000 0.000000 1.747010 
# 
# From -- ./inp_files/1708.got.cif
#   From: 2010.05.17/outbox.cif.g08.bks.cpg/sg185_cif.got.tgz:1708.got - 2010.05.20 12:05:34.
