data_PCOD9585459
_publ_section_title
;
Structure prediction by ZEFSAII (Michael W. Deem and Ramdas Pophale) SiO2 
 PCOD9585459
Probable space group: P -6 M 2
;
_chemical_formula_sum "Si O2"
_cell_formula_units_Z 96
_cell_length_a 18.196377
_cell_length_b 18.196377
_cell_length_c 19.960063
_cell_angle_alpha 90.000000
_cell_angle_beta 90.000000
_cell_angle_gamma 120.000000
_cell_volume 5723.509285
_symmetry_space_group_name_H-M "P -6 M 2"
_symmetry_group_IT_number 187
_symmetry_cell_setting 'hexagonal'
loop_
_space_group_symop_operation_xyz
x,y,z
-x+y,-x,-z
-y,x-y,z
x,y,-z
-x+y,-x,z
-y,x-y,-z
-y,-x,-z
-x+y,y,-z
x,x-y,-z
-x+y,y,z
x,x-y,z
-y,-x,z
loop_
_atom_site_type_symbol
_atom_site_label
_atom_site_fract_x
_atom_site_fract_y
_atom_site_fract_z
Si Si1 0.829923 0.832313 0.847829
Si Si2 0.666840 0.161556 0.830751
Si Si3 0.213998 0.264407 0.712431
Si Si4 0.168219 0.169932 0.573331
Si Si5 0.970735 0.396881 0.578675
Si Si6 0.893473 0.279130 0.300142
Si Si7 0.920195 0.258571 0.076880
Si Si8 0.165660 0.497992 0.418728
O O1 0.921619 0.843237 0.858609
O O2 0.809366 0.823544 0.768621
O O3 0.761851 0.747110 0.884888
O O4 0.826386 0.913193 0.873330
O O5 0.577981 0.155962 0.838791
O O6 0.743811 0.256190 0.845011
O O7 0.680683 0.139698 0.755176
O O8 0.678667 0.098991 0.880637
O O9 0.153069 0.306137 0.719157
O O10 0.202698 0.230304 0.636684
O O11 0.313829 0.301635 0.723277
O O12 0.199642 0.211583 0.500000
O O13 0.067447 0.134893 0.573753
O O14 0.186351 0.093176 0.579488
O O15 0.959347 0.373707 0.500000
O O16 0.961542 0.480771 0.585740
O O17 0.907353 0.322327 0.627355
O O18 0.069011 0.428759 0.598374
O O19 0.821928 0.178073 0.301392
O O20 0.831129 0.168872 0.077190
O O21 0.943635 0.283980 0.000000
O O22 0.167968 0.499440 0.500000
O O23 0.240991 0.481981 0.395490
O O24 0.181238 0.590619 0.397692
#
# Coordination Sequence:
#
# PCOD9585459 Si02
#       8
#    12  12  12  12  12  12  12  12
#     4  10  18  30  48  72 103 142 185 222 251 283
#     4  10  20  35  56  79 101 126 158 198 247 307
#     4  10  20  32  47  67  95 130 170 213 253 293
#     4   9  16  25  37  54  79 113 155 204 252 288
#     4   9  19  34  49  68  96 127 162 207 256 305
#     4  11  21  34  52  72  96 128 168 212 257 303
#     4   9  18  33  52  75 105 136 162 196 245 292
#     4   8  13  23  42  68  95 121 149 185 234 294
#
# _framework density 16.772928
#
# number of rings (size 3 to 8) (size 9 to 14) (size 15 to 20)
#    0.000    2.500    1.250    2.750    0.000    2.750 
#    0.000    1.250    0.000    2.000    0.000    0.000 
#    0.000    0.000    0.000    1.750    0.000    3.250 
#
# Total GULP energy -534647.280713 kJ/mol
# GULP energy per Si atom -5569.242507 kJ/mol
# Density = 1.673475 g / cm^3
# Si number density = 16.772928 Si / 1000 Ang^3
#
#
#
# Elastic Constant Matrix: (Units=GPa)
#
#
# Indices 1 2 3 4 5 6 
#
# 1 76.6921 38.8776 35.8592 0.0000 -0.0002 0.0000
# 2 38.8776 76.6921 35.8592 0.0000 0.0002 0.0000
# 3 35.8592 35.8592 82.8939 0.0000 0.0000 0.0000
# 4 0.0000 0.0000 0.0000 8.8015 0.0000 0.0002
# 5 -0.0002 0.0002 0.0000 0.0000 8.8015 0.0000
# 6 0.0000 0.0000 0.0000 0.0002 0.0000 18.9072
#
#
#
# Elastic Compliance Matrix: (Units=1/GPa)
#
#
# Indices 1 2 3 4 5 6 
#
# 1 0.019136 -0.007308 -0.005117 0.000000 0.000000 0.000000
# 2 -0.007308 0.019136 -0.005117 0.000000 0.000000 0.000000
# 3 -0.005117 -0.005117 0.016490 0.000000 0.000000 0.000000
# 4 0.000000 0.000000 0.000000 0.113617 0.000000 -0.000001
# 5 0.000000 0.000000 0.000000 0.000000 0.113617 0.000000
# 6 0.000000 0.000000 0.000000 -0.000001 0.000000 0.052890
#
#
# Mechanical properties :
#
#
# Convention : Reuss Voigt Hill
#
# Bulk Modulus (GPa) = 50.81368 50.83001 50.82184
# Shear Modulus (GPa) = 13.27915 15.68087 14.48001
#
# Velocity S-wave (km/s) = 2.81677 3.06092 2.94138
# Velocity P-wave (km/s) = 6.39842 6.54697 6.47312
#
# Compressibility (1/GPa) = 0.01967974
#
# Stress axis : x y z
#
# Youngs Moduli (GPa) = 52.25627 52.25627 60.64105
#
# Poissons Ratio (x) = 0.38191 0.31028
# Poissons Ratio (y) = 0.38191 0.31028
# Poissons Ratio (z) = 0.26738 0.26738
#
# Static dielectric constant tensor:
#      x y z
#    x 1.585690 0.000000 0.000000 
#    y 0.000000 1.585690 0.000000 
#    z 0.000000 0.000000 1.569090 
# 
# From -- ./inp_files/3728.got.cif
#   From: 2010.05.17/outbox.cif.g08.bks.cpg/sg187_2_cif.got.tgz:3728.got - 2010.05.20 12:09:04.
