data_PCOD9585772
_publ_section_title
;
Structure prediction by ZEFSAII (Michael W. Deem and Ramdas Pophale) SiO2 
 PCOD9585772
Probable space group: P -6 M 2
;
_chemical_formula_sum "Si O2"
_cell_formula_units_Z 38
_cell_length_a 17.567404
_cell_length_b 17.567404
_cell_length_c 7.628507
_cell_angle_alpha 90.000000
_cell_angle_beta 90.000000
_cell_angle_gamma 120.000000
_cell_volume 2038.850390
_symmetry_space_group_name_H-M "P -6 M 2"
_symmetry_group_IT_number 187
_symmetry_cell_setting 'hexagonal'
loop_
_space_group_symop_operation_xyz
x,y,z
-x+y,-x,-z
-y,x-y,z
x,y,-z
-x+y,-x,z
-y,x-y,-z
-y,-x,-z
-x+y,y,-z
x,x-y,-z
-x+y,y,z
x,x-y,z
-y,-x,z
loop_
_atom_site_type_symbol
_atom_site_label
_atom_site_fract_x
_atom_site_fract_y
_atom_site_fract_z
Si Si1 0.001141 0.825109 0.000000
Si Si2 0.951998 0.561532 0.291887
Si Si3 0.666667 0.333334 0.785223
Si Si4 0.466483 0.233242 0.208267
Si Si5 0.075728 0.751819 0.290525
O O1 0.023643 0.786061 0.170987
O O2 0.070926 0.929075 0.000000
O O3 0.902535 0.805069 0.000000
O O4 0.957932 0.556256 0.500000
O O5 0.940189 0.470095 0.217116
O O6 0.867732 0.573261 0.259519
O O7 0.038690 0.650884 0.236376
O O8 0.716635 0.433271 0.723922
O O9 0.666667 0.333334 0.000000
O O10 0.469439 0.234720 0.000000
O O11 0.059569 0.753883 0.500000
O O12 0.178539 0.821462 0.260560
#
# Coordination Sequence:
#
# PCOD9585772 Si02
#       5
#     6  12   2   6  12
#     4  10  21  36  55  78 104 136 174 216 261 310
#     4  10  21  35  52  76 104 139 179 216 259 312
#     4   9  18  33  43  65 109 153 175 215 253 294
#     4  11  21  33  49  73 109 145 181 215 255 302
#     4   9  20  38  56  76 105 138 173 218 267 313
#
# _framework density 18.637955000000002
#
# number of rings (size 3 to 8) (size 9 to 14) (size 15 to 20)
#    0.000    2.211    1.579    0.632    4.421    0.632 
#    0.000    0.000    0.000    2.526    0.000    4.421 
#    0.000    0.000    0.000    0.000    0.000    0.000 
#
# Total GULP energy -211796.353100 kJ/mol
# GULP energy per Si atom -5573.588239 kJ/mol
# Density = 1.859553 g / cm^3
# Si number density = 18.637955 Si / 1000 Ang^3
#
#
#
# Elastic Constant Matrix: (Units=GPa)
#
#
# Indices 1 2 3 4 5 6 
#
# 1 105.3375 63.5589 15.1969 0.0000 -0.0003 -0.0001
# 2 63.5589 105.3374 15.1969 0.0000 0.0003 0.0000
# 3 15.1969 15.1969 47.0211 0.0000 0.0000 0.0000
# 4 0.0000 0.0000 0.0000 12.7008 0.0000 0.0003
# 5 -0.0003 0.0003 0.0000 0.0000 12.7008 0.0000
# 6 -0.0001 0.0000 0.0000 0.0003 0.0000 20.8893
#
#
#
# Elastic Compliance Matrix: (Units=1/GPa)
#
#
# Indices 1 2 3 4 5 6 
#
# 1 0.015111 -0.008825 -0.002032 0.000000 0.000001 0.000000
# 2 -0.008825 0.015111 -0.002032 0.000000 -0.000001 0.000000
# 3 -0.002032 -0.002032 0.022580 0.000000 0.000000 0.000000
# 4 0.000000 0.000000 0.000000 0.078735 0.000000 -0.000001
# 5 0.000001 -0.000001 0.000000 0.000000 0.078735 0.000000
# 6 0.000000 0.000000 0.000000 -0.000001 0.000000 0.047871
#
#
# Mechanical properties :
#
#
# Convention : Reuss Voigt Hill
#
# Bulk Modulus (GPa) = 37.00107 49.51129 43.25618
# Shear Modulus (GPa) = 17.06895 20.17439 18.62167
#
# Velocity S-wave (km/s) = 3.02953 3.29361 3.16432
# Velocity P-wave (km/s) = 5.66860 6.40985 6.05059
#
# Compressibility (1/GPa) = 0.02702624
#
# Stress axis : x y z
#
# Youngs Moduli (GPa) = 66.17671 66.17666 44.28630
#
# Poissons Ratio (x) = 0.58399 0.08998
# Poissons Ratio (y) = 0.58399 0.08998
# Poissons Ratio (z) = 0.13445 0.13445
#
# Static dielectric constant tensor:
#      x y z
#    x 1.731220 0.000000 0.000000 
#    y 0.000000 1.731220 0.000000 
#    z 0.000000 0.000000 1.654740 
# 
# From -- ./inp_files/335.got.cif
#   From: 2010.05.17/outbox.cif.g08.bks.cpg/sg187_1_cif.got.tgz:335.got - 2010.05.20 12:09:04.
