data_PCOD9585270
_publ_section_title
;
Structure prediction by ZEFSAII (Michael W. Deem and Ramdas Pophale) SiO2 
 PCOD9585270
Probable space group: P 63 C M
;
_chemical_formula_sum "Si O2"
_cell_formula_units_Z 66
_cell_length_a 20.836009
_cell_length_b 20.836009
_cell_length_c 8.948792
_cell_angle_alpha 90.000000
_cell_angle_beta 90.000000
_cell_angle_gamma 120.000000
_cell_volume 3364.527777
_symmetry_space_group_name_H-M "P 63 C M"
_symmetry_group_IT_number 185
_symmetry_cell_setting 'hexagonal'
loop_
_space_group_symop_operation_xyz
x,y,z
x-y,x,1/2+z
-y,x-y,z
-x,-y,1/2+z
-x+y,-x,z
y,-x+y,1/2+z
-x+y,y,1/2+z
x,x-y,1/2+z
-y,-x,1/2+z
y,x,z
x-y,-y,z
-x,-x+y,z
loop_
_atom_site_type_symbol
_atom_site_label
_atom_site_fract_x
_atom_site_fract_y
_atom_site_fract_z
Si Si1 0.085736 0.000000 0.523571
Si Si2 0.214479 0.000000 0.693676
Si Si3 0.518635 0.912793 0.856090
Si Si4 0.912793 0.518635 0.191051
Si Si5 0.882601 0.246048 0.845732
Si Si6 0.882601 0.636554 0.701409
Si Si7 0.000000 0.214479 0.353465
O O1 0.137273 0.000000 0.661708
O O2 0.137273 0.000000 0.385433
O O3 0.000000 0.931172 0.523571
O O4 0.212059 0.931538 0.779303
O O5 0.241107 0.000000 0.523570
O O6 0.439861 0.879722 0.773570
O O7 0.580937 0.909158 0.757884
O O8 0.549194 0.000000 0.873938
O O9 0.513354 0.882068 0.023570
O O10 0.909158 0.580937 0.289257
O O11 0.000000 0.549194 0.173203
O O12 0.802806 0.197194 0.773571
O O13 0.882976 0.241979 0.023571
O O14 0.931538 0.719479 0.767838
#
# Coordination Sequence:
#
# PCOD9585270 Si02
#       7
#     6   6  12  12  12  12   6
#     4   8  20  46  74  94 118 166 228 302 354 448
#     4  10  21  41  68  95 126 159 223 287 372 413
#     4  10  20  36  62  94 134 170 209 256 319 397
#     4  10  20  36  62  94 134 170 209 256 319 397
#     4  12  24  40  63  95 132 174 222 283 349 418
#     4  12  24  40  63  95 132 174 222 283 349 418
#     4  10  21  41  68  95 126 159 223 287 372 413
#
# _framework density 19.616420999999999
#
# number of rings (size 3 to 8) (size 9 to 14) (size 15 to 20)
#    0.727    0.727    1.818    4.909    0.000    1.455 
#    3.273    0.000    0.000    5.091    0.000    5.091 
#    0.000    0.000    0.000    0.000    0.000    0.000 
#
# Total GULP energy -367819.428484 kJ/mol
# GULP energy per Si atom -5573.021644 kJ/mol
# Density = 1.957177 g / cm^3
# Si number density = 19.616421 Si / 1000 Ang^3
#
#
#
# Elastic Constant Matrix: (Units=GPa)
#
#
# Indices 1 2 3 4 5 6 
#
# 1 67.5793 68.3745 56.8810 0.0000 0.0000 0.0000
# 2 68.3745 67.5793 56.8810 0.0000 0.0000 0.0000
# 3 56.8810 56.8810 212.7750 0.0000 0.0000 0.0000
# 4 0.0000 0.0000 0.0000 8.4819 0.0000 0.0000
# 5 0.0000 0.0000 0.0000 0.0000 8.4819 0.0000
# 6 0.0000 0.0000 0.0000 0.0000 0.0000 -0.3976
#
#
#
# Elastic Compliance Matrix: (Units=1/GPa)
#
#
# Indices 1 2 3 4 5 6 
#
# 1 -0.624041 0.633516 -0.002533 0.000000 0.000000 0.000000
# 2 0.633516 -0.624041 -0.002533 0.000000 0.000000 0.000000
# 3 -0.002533 -0.002533 0.006054 0.000000 0.000000 0.000000
# 4 0.000000 0.000000 0.000000 0.117898 0.000000 0.000000
# 5 0.000000 0.000000 0.000000 0.000000 0.117898 0.000000
# 6 0.000000 0.000000 0.000000 0.000000 0.000000 -2.515113
#
#
# Mechanical properties :
#
#
# Convention : Reuss Voigt Hill
#
# Bulk Modulus (GPa) = 67.23961 79.13408 73.18684
# Shear Modulus (GPa) = -1.04750 14.36639 6.65945
#
# Velocity S-wave (km/s) = -0.73154 2.70916 1.84451
# Velocity P-wave (km/s) = 5.79983 7.08621 6.47505
#
# Compressibility (1/GPa) = 0.01487219
#
# Stress axis : x y z
#
# Youngs Moduli (GPa) = -1.60246 -1.60246 165.17861
#
# Poissons Ratio (x) = 1.01518 0.41839
# Poissons Ratio (y) = 1.01518 0.41839
# Poissons Ratio (z) = -0.00406 -0.00406
#
# Static dielectric constant tensor:
#      x y z
#    x 1.660980 0.000000 0.000000 
#    y 0.000000 1.660980 0.000000 
#    z 0.000000 0.000000 1.720530 
# 
# From -- ./inp_files/580.got.cif
#   From: 2010.05.17/outbox.cif.g08.bks.cpg/sg185_cif.got.tgz:580.got - 2010.05.20 12:05:34.
