data_PCOD9585354
_publ_section_title
;
Structure prediction by ZEFSAII (Michael W. Deem and Ramdas Pophale) SiO2 
 PCOD9585354
Probable space group: P 63 M C
;
_chemical_formula_sum "Si O2"
_cell_formula_units_Z 84
_cell_length_a 17.971440
_cell_length_b 17.971440
_cell_length_c 16.757231
_cell_angle_alpha 90.000000
_cell_angle_beta 90.000000
_cell_angle_gamma 120.000000
_cell_volume 4687.039815
_symmetry_space_group_name_H-M "P 63 M C"
_symmetry_group_IT_number 186
_symmetry_cell_setting 'hexagonal'
loop_
_space_group_symop_operation_xyz
x,y,z
x-y,x,1/2+z
-y,x-y,z
-x,-y,1/2+z
-x+y,-x,z
y,-x+y,1/2+z
-x+y,y,z
x,x-y,z
-y,-x,z
y,x,1/2+z
x-y,-y,1/2+z
-x,-x+y,1/2+z
loop_
_atom_site_type_symbol
_atom_site_label
_atom_site_fract_x
_atom_site_fract_y
_atom_site_fract_z
Si Si1 0.671684 0.920939 0.629250
Si Si2 0.373998 0.099293 0.379151
Si Si3 0.332863 0.491185 0.343966
Si Si4 0.157434 0.667093 0.035089
Si Si5 0.099293 0.374000 0.191028
Si Si6 0.158323 0.491185 0.726213
Si Si7 0.750746 0.079062 0.940929
O O1 0.693197 0.846599 0.652611
O O2 0.570959 0.880642 0.650116
O O3 0.687187 0.937224 0.535090
O O4 0.719892 0.008606 0.678460
O O5 0.354571 0.177286 0.375423
O O6 0.433052 0.114837 0.456899
O O7 0.430980 0.108976 0.301947
O O8 0.288712 0.008605 0.391718
O O9 0.257679 0.515357 0.335948
O O10 0.425106 0.574895 0.346982
O O11 0.322006 0.430982 0.268232
O O12 0.309683 0.429041 0.420063
O O13 0.150569 0.575285 0.035087
O O14 0.256920 0.743081 0.035089
O O15 0.114837 0.681783 0.113279
O O16 0.177288 0.354575 0.194755
O O17 0.257679 0.515358 0.734232
O O18 0.149788 0.574894 0.723198
O O19 0.846599 0.153402 0.917568
#
# Coordination Sequence:
#
# PCOD9585354 Si02
#       7
#    12  12  12  12  12  12  12
#     4  10  21  37  54  75 104 139 177 219 266 312
#     4  10  20  35  55  78 103 135 174 216 268 319
#     4  10  21  36  54  77 107 142 179 217 259 308
#     4  10  19  30  47  74 106 138 168 204 253 306
#     4  10  20  35  55  78 103 135 174 216 268 319
#     4  10  21  36  54  77 107 142 179 217 259 308
#     4  10  21  37  54  75 104 139 177 219 266 312
#
# _framework density 17.921758000000001
#
# number of rings (size 3 to 8) (size 9 to 14) (size 15 to 20)
#    0.000    2.000    1.429    2.143    0.000    4.000 
#    0.000    2.857    0.000    2.286    0.000    0.000 
#    0.000    6.857    0.000    0.000    0.000    0.000 
#
# Total GULP energy -468922.997037 kJ/mol
# GULP energy per Si atom -5582.416631 kJ/mol
# Density = 1.788097 g / cm^3
# Si number density = 17.921758 Si / 1000 Ang^3
#
#
#
# Elastic Constant Matrix: (Units=GPa)
#
#
# Indices 1 2 3 4 5 6 
#
# 1 74.6250 52.2916 -7.6647 0.0000 0.0000 0.0000
# 2 52.2916 74.6250 -7.6647 0.0000 0.0000 0.0000
# 3 -7.6647 -7.6647 16.9448 0.0000 0.0000 0.0000
# 4 0.0000 0.0000 0.0000 17.4631 0.0000 0.0000
# 5 0.0000 0.0000 0.0000 0.0000 17.4631 0.0000
# 6 0.0000 0.0000 0.0000 0.0000 0.0000 11.1667
#
#
#
# Elastic Compliance Matrix: (Units=1/GPa)
#
#
# Indices 1 2 3 4 5 6 
#
# 1 0.026555 -0.018221 0.003770 0.000000 0.000000 0.000000
# 2 -0.018221 0.026555 0.003770 0.000000 0.000000 0.000000
# 3 0.003770 0.003770 0.062426 0.000000 0.000000 0.000000
# 4 0.000000 0.000000 0.000000 0.057264 0.000000 0.000000
# 5 0.000000 0.000000 0.000000 0.000000 0.057264 0.000000
# 6 0.000000 0.000000 0.000000 0.000000 0.000000 0.089552
#
#
# Mechanical properties :
#
#
# Convention : Reuss Voigt Hill
#
# Bulk Modulus (GPa) = 10.61855 26.67991 18.64923
# Shear Modulus (GPa) = 13.42756 17.83408 15.63082
#
# Velocity S-wave (km/s) = 2.74018 3.15796 2.95646
# Velocity P-wave (km/s) = 3.99365 5.31188 4.69922
#
# Compressibility (1/GPa) = 0.09417481
#
# Stress axis : x y z
#
# Youngs Moduli (GPa) = 37.65732 37.65732 16.01905
#
# Poissons Ratio (x) = 0.68614 -0.06039
# Poissons Ratio (y) = 0.68614 -0.06039
# Poissons Ratio (z) = -0.14197 -0.14197
#
# Static dielectric constant tensor:
#      x y z
#    x 1.601740 0.000000 0.000000 
#    y 0.000000 1.601740 0.000000 
#    z 0.000000 0.000000 1.630130 
# 
# From -- ./inp_files/2571.got.cif
#   From: 2010.05.17/outbox.cif.g08.bks.cpg/sg186_2_cif.got.tgz:2571.got - 2010.05.20 12:07:08.
