data_PCOD9585931
_publ_section_title
;
Structure prediction by ZEFSAII (Michael W. Deem and Ramdas Pophale) SiO2 
 PCOD9585931
Probable space group: P -6 C 2
;
_chemical_formula_sum "Si O2"
_cell_formula_units_Z 52
_cell_length_a 15.881295
_cell_length_b 15.881295
_cell_length_c 15.520563
_cell_angle_alpha 90.000000
_cell_angle_beta 90.000000
_cell_angle_gamma 120.000000
_cell_volume 3390.079857
_symmetry_space_group_name_H-M "P -6 C 2"
_symmetry_group_IT_number 188
_symmetry_cell_setting 'hexagonal'
loop_
_space_group_symop_operation_xyz
x,y,z
-x+y,-x,1/2-z
-y,x-y,z
x,y,1/2-z
-x+y,-x,z
-y,x-y,1/2-z
-y,-x,-z
-x+y,y,-z
x,x-y,-z
-x+y,y,1/2+z
x,x-y,1/2+z
-y,-x,1/2+z
loop_
_atom_site_type_symbol
_atom_site_label
_atom_site_fract_x
_atom_site_fract_y
_atom_site_fract_z
Si Si1 0.666658 0.533337 0.250000
Si Si2 0.466663 0.133321 0.750000
Si Si3 0.018234 0.607553 0.099085
Si Si4 0.333334 0.666666 0.645030
Si Si5 0.018234 0.607553 0.900914
Si Si6 0.221564 0.778435 0.646170
O O1 0.768958 0.537916 0.250000
O O2 0.577891 0.422109 0.250000
O O3 0.650962 0.584279 0.166468
O O4 0.415721 0.066683 0.833533
O O5 0.111743 0.712797 0.114392
O O6 0.047354 0.523677 0.115439
O O7 0.986631 0.597831 1.000000
O O8 0.333334 0.666668 0.750000
O O9 0.277749 0.722249 0.616727
O O10 0.111743 0.712797 0.885608
O O11 0.220544 0.779456 0.750000
#
# Coordination Sequence:
#
# PCOD9585931 Si02
#       6
#     6   6  12   4  12  12
#     4  10  21  37  54  70  92 126 170 219 263 298
#     4  10  21  37  54  70  92 126 170 219 263 298
#     4  10  20  32  48  73 104 136 167 199 238 290
#     4   9  18  21  43  71 106 151 179 184 211 269
#     4  10  20  32  48  73 104 136 167 199 238 290
#     4  11  17  29  47  72 109 147 170 191 225 278
#
# _framework density 15.338872
#
# number of rings (size 3 to 8) (size 9 to 14) (size 15 to 20)
#    0.000    1.846    4.615    0.923    0.000    0.923 
#    0.000    0.000    0.000    2.769    0.000    0.000 
#    9.231    0.000    2.769    0.000    0.000    0.000 
#
# Total GULP energy -290124.954399 kJ/mol
# GULP energy per Si atom -5579.326046 kJ/mol
# Density = 1.530396 g / cm^3
# Si number density = 15.338872 Si / 1000 Ang^3
#
#
#
# Elastic Constant Matrix: (Units=GPa)
#
#
# Indices 1 2 3 4 5 6 
#
# 1 107.9576 52.0889 52.6256 0.0000 0.0000 0.0001
# 2 52.0889 107.9578 52.6257 0.0000 0.0000 0.0000
# 3 52.6256 52.6257 112.1601 0.0000 0.0000 0.0000
# 4 0.0000 0.0000 0.0000 10.0105 0.0000 0.0000
# 5 0.0000 0.0000 0.0000 0.0000 10.0105 0.0000
# 6 0.0001 0.0000 0.0000 0.0000 0.0000 27.9343
#
#
#
# Elastic Compliance Matrix: (Units=1/GPa)
#
#
# Indices 1 2 3 4 5 6 
#
# 1 0.013468 -0.004431 -0.004240 0.000000 0.000000 0.000000
# 2 -0.004431 0.013468 -0.004240 0.000000 0.000000 0.000000
# 3 -0.004240 -0.004240 0.012895 0.000000 0.000000 0.000000
# 4 0.000000 0.000000 0.000000 0.099895 0.000000 0.000000
# 5 0.000000 0.000000 0.000000 0.000000 0.099895 0.000000
# 6 0.000000 0.000000 0.000000 0.000000 0.000000 0.035798
#
#
# Mechanical properties :
#
#
# Convention : Reuss Voigt Hill
#
# Bulk Modulus (GPa) = 71.38863 71.41733 71.40298
# Shear Modulus (GPa) = 16.34467 20.97341 18.65904
#
# Velocity S-wave (km/s) = 3.26785 3.70176 3.49155
# Velocity P-wave (km/s) = 7.80260 8.05801 7.93133
#
# Compressibility (1/GPa) = 0.01400783
#
# Stress axis : x y z
#
# Youngs Moduli (GPa) = 74.25120 74.25137 77.55193
#
# Poissons Ratio (x) = 0.32903 0.32881
# Poissons Ratio (y) = 0.32903 0.32881
# Poissons Ratio (z) = 0.31482 0.31482
#
# Static dielectric constant tensor:
#      x y z
#    x 1.488420 0.000000 0.000000 
#    y 0.000000 1.488420 0.000000 
#    z 0.000000 0.000000 1.532210 
# 
# From -- ./inp_files/2206.got.cif
#   From: 2010.05.17/outbox.cif.g08.bks.cpg/sg188_2_cif.got.tgz:2206.got - 2010.05.20 12:11:46.
