data_PCOD9585735
_publ_section_title
;
Structure prediction by ZEFSAII (Michael W. Deem and Ramdas Pophale) SiO2 
 PCOD9585735
Probable space group: P -6 M 2
;
_chemical_formula_sum "Si O2"
_cell_formula_units_Z 84
_cell_length_a 19.326147
_cell_length_b 19.326147
_cell_length_c 14.120246
_cell_angle_alpha 90.000000
_cell_angle_beta 90.000000
_cell_angle_gamma 120.000000
_cell_volume 4567.341151
_symmetry_space_group_name_H-M "P -6 M 2"
_symmetry_group_IT_number 187
_symmetry_cell_setting 'hexagonal'
loop_
_space_group_symop_operation_xyz
x,y,z
-x+y,-x,-z
-y,x-y,z
x,y,-z
-x+y,-x,z
-y,x-y,-z
-y,-x,-z
-x+y,y,-z
x,x-y,-z
-x+y,y,z
x,x-y,z
-y,-x,z
loop_
_atom_site_type_symbol
_atom_site_label
_atom_site_fract_x
_atom_site_fract_y
_atom_site_fract_z
Si Si1 0.820001 0.487211 0.386535
Si Si2 0.159804 0.158669 0.189548
Si Si3 0.490508 0.667957 0.113807
Si Si4 0.373263 0.363002 0.607333
Si Si5 0.005349 0.423103 0.194617
Si Si6 0.750765 0.087896 0.113386
Si Si7 0.776046 0.807950 0.604955
O O1 0.809472 0.475793 0.500000
O O2 0.738661 0.477322 0.346081
O O3 0.838299 0.419150 0.350323
O O4 0.894399 0.575037 0.376312
O O5 0.086800 0.173600 0.166006
O O6 0.245136 0.218854 0.142730
O O7 0.173449 0.169156 0.303249
O O8 0.139075 0.069538 0.162631
O O9 0.506583 0.753292 0.149385
O O10 0.403478 0.596523 0.144970
O O11 0.553853 0.642174 0.143767
O O12 0.489205 0.669626 0.000000
O O13 0.390951 0.395949 0.500000
O O14 0.401842 0.424056 0.693402
O O15 0.280245 0.299258 0.614660
O O16 0.984401 0.492201 0.171784
O O17 0.939792 0.334101 0.162678
O O18 0.823763 0.176238 0.140275
O O19 0.741312 0.086257 0.000000
O O20 0.811992 0.812881 0.500000
O O21 0.749736 0.874868 0.606377
#
# Coordination Sequence:
#
# PCOD9585735 Si02
#       7
#    12  12  12  12  12  12  12
#     4   9  17  29  46  69  98 133 173 217 265 314
#     4  10  20  35  56  83 114 148 187 232 280 332
#     4   9  18  33  55  84 115 142 169 209 268 333
#     4  10  20  34  52  76 108 145 184 227 271 321
#     4  11  22  36  57  85 113 142 181 229 274 322
#     4  10  22  40  59  80 110 148 186 226 279 338
#     4   9  18  33  53  77 107 146 190 233 274 321
#
# _framework density 18.391444
#
# number of rings (size 3 to 8) (size 9 to 14) (size 15 to 20)
#    0.000    2.286    1.429    1.286    0.000    5.714 
#    0.000    1.429    0.000    2.000    0.000    0.000 
#    0.000    1.143    0.000    0.000    0.000    0.000 
#
# Total GULP energy -468113.383618 kJ/mol
# GULP energy per Si atom -5572.778376 kJ/mol
# Density = 1.834958 g / cm^3
# Si number density = 18.391444 Si / 1000 Ang^3
#
#
#
# Elastic Constant Matrix: (Units=GPa)
#
#
# Indices 1 2 3 4 5 6 
#
# 1 87.7419 63.3098 24.5701 0.0000 -0.0002 0.0000
# 2 63.3098 87.7419 24.5701 0.0000 0.0002 0.0000
# 3 24.5701 24.5701 53.8745 0.0000 0.0000 0.0000
# 4 0.0000 0.0000 0.0000 15.5856 0.0000 0.0002
# 5 -0.0002 0.0002 0.0000 0.0000 15.5856 0.0000
# 6 0.0000 0.0000 0.0000 0.0002 0.0000 12.2160
#
#
#
# Elastic Compliance Matrix: (Units=1/GPa)
#
#
# Indices 1 2 3 4 5 6 
#
# 1 0.024352 -0.016578 -0.003545 0.000000 0.000000 0.000000
# 2 -0.016578 0.024352 -0.003545 0.000000 0.000000 0.000000
# 3 -0.003545 -0.003545 0.021795 0.000000 0.000000 0.000000
# 4 0.000000 0.000000 0.000000 0.064162 0.000000 -0.000001
# 5 0.000000 0.000000 0.000000 0.000000 0.064162 0.000000
# 6 0.000000 0.000000 0.000000 -0.000001 0.000000 0.081860
#
#
# Mechanical properties :
#
#
# Convention : Reuss Voigt Hill
#
# Bulk Modulus (GPa) = 43.17496 50.47315 46.82405
# Shear Modulus (GPa) = 14.89251 16.47134 15.68193
#
# Velocity S-wave (km/s) = 2.84870 2.99590 2.92323
# Velocity P-wave (km/s) = 5.86060 6.28257 6.07525
#
# Compressibility (1/GPa) = 0.02316158
#
# Stress axis : x y z
#
# Youngs Moduli (GPa) = 41.06492 41.06492 45.88131
#
# Poissons Ratio (x) = 0.68078 0.16266
# Poissons Ratio (y) = 0.68078 0.16266
# Poissons Ratio (z) = 0.14559 0.14559
#
# Static dielectric constant tensor:
#      x y z
#    x 1.633460 0.000000 0.000000 
#    y 0.000000 1.633460 0.000000 
#    z 0.000000 0.000000 1.666710 
# 
# From -- ./inp_files/2608.got.cif
#   From: 2010.05.17/outbox.cif.g08.bks.cpg/sg187_2_cif.got.tgz:2608.got - 2010.05.20 12:09:04.
