data_PCOD9585987
_publ_section_title
;
Structure prediction by ZEFSAII (Michael W. Deem and Ramdas Pophale) SiO2 
 PCOD9585987
Probable space group: P -6 C 2
;
_chemical_formula_sum "Si O2"
_cell_formula_units_Z 40
_cell_length_a 11.307553
_cell_length_b 11.307553
_cell_length_c 15.551723
_cell_angle_alpha 90.000000
_cell_angle_beta 90.000000
_cell_angle_gamma 120.000000
_cell_volume 1722.052581
_symmetry_space_group_name_H-M "P -6 C 2"
_symmetry_group_IT_number 188
_symmetry_cell_setting 'hexagonal'
loop_
_space_group_symop_operation_xyz
x,y,z
-x+y,-x,1/2-z
-y,x-y,z
x,y,1/2-z
-x+y,-x,z
-y,x-y,1/2-z
-y,-x,-z
-x+y,y,-z
x,x-y,-z
-x+y,y,1/2+z
x,x-y,1/2+z
-y,-x,1/2+z
loop_
_atom_site_type_symbol
_atom_site_label
_atom_site_fract_x
_atom_site_fract_y
_atom_site_fract_z
Si Si1 0.111033 0.716392 0.346744
Si Si2 0.666667 0.333334 0.646487
Si Si3 0.067465 0.453737 0.084930
Si Si4 0.360796 0.179184 0.854614
O O1 0.146887 0.772814 0.250000
O O2 0.244664 0.792216 0.404523
O O3 0.065177 0.556658 0.344416
O O4 0.980584 0.728141 0.376792
O O5 0.666667 0.333334 0.750000
O O6 0.709246 0.484241 0.619074
O O7 0.954291 0.296435 0.101459
O O8 0.051062 0.525531 0.000000
O O9 0.354020 0.188590 0.750000
#
# Coordination Sequence:
#
# PCOD9585987 Si02
#       4
#    12   4  12  12
#     4  11  23  42  69  97 134 188 246 304 360 433
#     4   9  15  33  64  95 124 162 229 302 346 408
#     4  12  25  42  65 101 146 187 235 297 375 449
#     4  10  20  39  68 100 134 179 243 306 357 426
#
# _framework density 23.228095
#
# number of rings (size 3 to 8) (size 9 to 14) (size 15 to 20)
#    0.000    1.200    3.000    4.200    0.000    1.200 
#    1.800    0.000    0.000    0.000    0.000    0.000 
#    0.000    0.000    0.000    0.000    0.000    0.000 
#
# Total GULP energy -223396.186991 kJ/mol
# GULP energy per Si atom -5584.904675 kJ/mol
# Density = 2.317523 g / cm^3
# Si number density = 23.228095 Si / 1000 Ang^3
#
#
#
# Elastic Constant Matrix: (Units=GPa)
#
#
# Indices 1 2 3 4 5 6 
#
# 1 100.0244 12.7809 28.5426 0.0000 -0.0001 0.0003
# 2 12.7809 100.0259 28.5426 -0.0001 0.0000 0.0003
# 3 28.5426 28.5426 106.2534 0.0000 0.0000 0.0000
# 4 0.0000 -0.0001 0.0000 23.9358 0.0000 0.0000
# 5 -0.0001 0.0000 0.0000 0.0000 23.9358 0.0000
# 6 0.0003 0.0003 0.0000 0.0000 0.0000 43.6220
#
#
#
# Elastic Compliance Matrix: (Units=1/GPa)
#
#
# Indices 1 2 3 4 5 6 
#
# 1 0.010861 -0.000601 -0.002756 0.000000 0.000000 0.000000
# 2 -0.000601 0.010861 -0.002756 0.000000 0.000000 0.000000
# 3 -0.002756 -0.002756 0.010892 0.000000 0.000000 0.000000
# 4 0.000000 0.000000 0.000000 0.041778 0.000000 0.000000
# 5 0.000000 0.000000 0.000000 0.000000 0.041778 0.000000
# 6 0.000000 0.000000 0.000000 0.000000 0.000000 0.022924
#
#
# Mechanical properties :
#
#
# Convention : Reuss Voigt Hill
#
# Bulk Modulus (GPa) = 49.05062 49.55956 49.30509
# Shear Modulus (GPa) = 31.62219 34.06123 32.84171
#
# Velocity S-wave (km/s) = 3.69369 3.83349 3.76424
# Velocity P-wave (km/s) = 6.27327 6.40129 6.33760
#
# Compressibility (1/GPa) = 0.02038710
#
# Stress axis : x y z
#
# Youngs Moduli (GPa) = 92.07397 92.07537 91.80948
#
# Poissons Ratio (x) = 0.05537 0.25303
# Poissons Ratio (y) = 0.05537 0.25302
# Poissons Ratio (z) = 0.25375 0.25375
#
# Static dielectric constant tensor:
#      x y z
#    x 1.880500 0.000000 0.000000 
#    y 0.000000 1.880500 0.000000 
#    z 0.000000 0.000000 1.997380 
# 
# From -- ./inp_files/2859.got.cif
#   From: 2010.05.17/outbox.cif.g08.bks.cpg/sg188_2_cif.got.tgz:2859.got - 2010.05.20 12:11:46.
