data_PCOD9585022
_publ_section_title
;
Structure prediction by ZEFSAII (Michael W. Deem and Ramdas Pophale) SiO2 
 PCOD9585022
Probable space group: P 6 M M
;
_chemical_formula_sum "Si O2"
_cell_formula_units_Z 96
_cell_length_a 18.285118
_cell_length_b 18.285118
_cell_length_c 20.484069
_cell_angle_alpha 90.000000
_cell_angle_beta 90.000000
_cell_angle_gamma 120.000000
_cell_volume 5931.197648
_symmetry_space_group_name_H-M "P 6 M M"
_symmetry_group_IT_number 183
_symmetry_cell_setting 'hexagonal'
loop_
_space_group_symop_operation_xyz
x,y,z
x-y,x,z
-y,x-y,z
-x,-y,z
-x+y,-x,z
y,-x+y,z
-x+y,y,z
x,x-y,z
-y,-x,z
y,x,z
x-y,-y,z
-x,-x+y,z
loop_
_atom_site_type_symbol
_atom_site_label
_atom_site_fract_x
_atom_site_fract_y
_atom_site_fract_z
Si Si1 0.094312 0.358252 0.089390
Si Si2 0.332354 0.497872 0.981147
Si Si3 0.365262 0.100647 0.712737
Si Si4 0.100541 0.633439 0.836618
Si Si5 0.834482 0.332354 0.197632
Si Si6 0.532899 0.633439 0.342161
Si Si7 0.899353 0.634737 0.466042
Si Si8 0.532217 0.634123 0.589390
O O1 0.166576 0.333151 0.089390
O O2 0.110565 0.417996 0.151978
O O3 0.000000 0.282060 0.089390
O O4 0.110566 0.417997 0.026802
O O5 0.262468 0.524936 0.994343
O O6 0.425503 0.574498 0.995207
O O7 0.329143 0.474957 0.905020
O O8 0.329103 0.164552 0.709224
O O9 0.417588 0.116841 0.779670
O O10 0.431478 0.122731 0.653561
O O11 0.297858 0.000000 0.708834
O O12 0.122291 0.561146 0.815406
O O13 0.000000 0.584241 0.849129
O O14 0.851006 0.425503 0.183573
O O15 0.737532 0.262468 0.184435
O O16 0.854184 0.329142 0.273760
O O17 0.438856 0.561145 0.363373
O O18 0.584242 0.584242 0.329648
O O19 0.582413 0.699252 0.399109
O O20 0.835448 0.670896 0.469556
O O21 0.877270 0.568521 0.525218
O O22 0.000000 0.702142 0.469946
O O23 0.432270 0.567731 0.589390
O O24 0.577396 0.577396 0.589390
#
# Coordination Sequence:
#
# PCOD9585022 Si02
#       8
#    12  12  12  12  12  12  12  12
#     4  10  21  35  51  70  91 117 150 190 233 275
#     4  10  19  30  45  67  97 130 161 190 221 260
#     4  10  19  31  48  69  93 122 158 197 235 276
#     4   9  17  29  46  67  90 119 156 196 235 275
#     4  10  19  30  45  67  97 130 161 190 221 260
#     4   9  17  29  46  67  90 119 156 196 235 275
#     4  10  19  31  48  69  93 122 158 197 235 276
#     4   9  17  30  49  70  90 114 144 179 221 270
#
# _framework density 16.185600999999998
#
# number of rings (size 3 to 8) (size 9 to 14) (size 15 to 20)
#    0.000    2.375    0.000    3.250    0.000    5.000 
#    0.000    1.250    0.000    8.875    0.000    0.000 
#    0.000    3.000    0.000    8.000    0.000    0.000 
#
# Total GULP energy -535227.696645 kJ/mol
# GULP energy per Si atom -5575.288507 kJ/mol
# Density = 1.614876 g / cm^3
# Si number density = 16.185601 Si / 1000 Ang^3
#
#
#
# Elastic Constant Matrix: (Units=GPa)
#
#
# Indices 1 2 3 4 5 6 
#
# 1 85.5976 53.2010 34.0753 0.0000 0.0000 0.0000
# 2 53.2010 85.5976 34.0753 0.0000 0.0000 0.0000
# 3 34.0753 34.0753 60.3319 0.0000 0.0000 0.0000
# 4 0.0000 0.0000 0.0000 15.3953 0.0000 0.0000
# 5 0.0000 0.0000 0.0000 0.0000 15.3953 0.0000
# 6 0.0000 0.0000 0.0000 0.0000 0.0000 16.1983
#
#
#
# Elastic Compliance Matrix: (Units=1/GPa)
#
#
# Indices 1 2 3 4 5 6 
#
# 1 0.020418 -0.010449 -0.005631 0.000000 0.000000 0.000000
# 2 -0.010449 0.020418 -0.005631 0.000000 0.000000 0.000000
# 3 -0.005631 -0.005631 0.022935 0.000000 0.000000 0.000000
# 4 0.000000 0.000000 0.000000 0.064955 0.000000 0.000000
# 5 0.000000 0.000000 0.000000 0.000000 0.064955 0.000000
# 6 0.000000 0.000000 0.000000 0.000000 0.000000 0.061735
#
#
# Mechanical properties :
#
#
# Convention : Reuss Voigt Hill
#
# Bulk Modulus (GPa) = 49.13667 52.69225 50.91446
# Shear Modulus (GPa) = 16.36014 16.74283 16.55148
#
# Velocity S-wave (km/s) = 3.18273 3.21974 3.20129
# Velocity P-wave (km/s) = 6.62801 6.81528 6.72230
#
# Compressibility (1/GPa) = 0.02035140
#
# Stress axis : x y z
#
# Youngs Moduli (GPa) = 48.97546 48.97546 43.60077
#
# Poissons Ratio (x) = 0.51175 0.24550
# Poissons Ratio (y) = 0.51175 0.24550
# Poissons Ratio (z) = 0.27577 0.27577
#
# Static dielectric constant tensor:
#      x y z
#    x 1.537410 0.000000 0.000000 
#    y 0.000000 1.537410 0.000000 
#    z 0.000000 0.000000 1.547880 
# 
# From -- ./inp_files/3118.got.cif
#   From: 2010.05.17/outbox.cif.g08.bks.cpg/sg183_2_cif.got.tgz:3118.got - 2010.05.20 12:02:58.
