data_PCOD9585915
_publ_section_title
;
Structure prediction by ZEFSAII (Michael W. Deem and Ramdas Pophale) SiO2 
 PCOD9585915
Probable space group: P -6 C 2
;
_chemical_formula_sum "Si O2"
_cell_formula_units_Z 84
_cell_length_a 18.254475
_cell_length_b 18.254475
_cell_length_c 14.514813
_cell_angle_alpha 90.000000
_cell_angle_beta 90.000000
_cell_angle_gamma 120.000000
_cell_volume 4188.714604
_symmetry_space_group_name_H-M "P -6 C 2"
_symmetry_group_IT_number 188
_symmetry_cell_setting 'hexagonal'
loop_
_space_group_symop_operation_xyz
x,y,z
-x+y,-x,1/2-z
-y,x-y,z
x,y,1/2-z
-x+y,-x,z
-y,x-y,1/2-z
-y,-x,-z
-x+y,y,-z
x,x-y,-z
-x+y,y,1/2+z
x,x-y,1/2+z
-y,-x,1/2+z
loop_
_atom_site_type_symbol
_atom_site_label
_atom_site_fract_x
_atom_site_fract_y
_atom_site_fract_z
Si Si1 0.910956 0.104193 0.250000
Si Si2 0.465607 0.598010 0.862378
Si Si3 0.795945 0.088693 0.926227
Si Si4 0.104776 0.310246 0.412201
Si Si5 0.930603 0.435579 0.637060
Si Si6 0.219842 0.494224 0.357145
Si Si7 0.090918 0.191772 0.750000
Si Si8 0.681162 0.519929 0.022863
O O1 0.905225 0.155722 0.165647
O O2 0.004363 0.115528 0.250000
O O3 0.841286 0.007278 0.250000
O O4 0.466398 0.596935 0.750000
O O5 0.512255 0.544290 0.885931
O O6 0.368226 0.554339 0.895364
O O7 0.505524 0.696091 0.893022
O O8 0.746157 0.139412 0.927842
O O9 0.728765 0.991387 0.942612
O O10 0.869663 0.130338 0.000000
O O11 0.160105 0.320210 0.500000
O O12 0.141415 0.400524 0.364984
O O13 0.111021 0.247793 0.339114
O O14 0.921657 0.427508 0.750000
O O15 0.888786 0.350109 0.575091
O O16 0.877914 0.477331 0.591021
O O17 0.239210 0.518907 0.250000
O O18 0.737850 0.475700 0.000000
#
# Coordination Sequence:
#
# PCOD9585915 Si02
#       8
#     6  12  12  12  12  12   6  12
#     4  10  21  38  64  88 122 174 204 270 316 381
#     4   9  19  35  61  92 129 178 220 264 315 369
#     4  10  22  40  59  92 125 164 213 255 323 382
#     4  11  22  35  59  88 123 164 207 263 314 364
#     4  10  22  42  68  96 129 167 215 265 335 393
#     4  10  19  36  57  89 127 170 218 262 307 368
#     4  10  21  40  58  90 122 154 218 256 318 379
#     4  10  23  43  65  92 126 160 206 265 324 405
#
# _framework density 20.053884
#
# number of rings (size 3 to 8) (size 9 to 14) (size 15 to 20)
#    0.000    2.000    0.714    2.143    3.000    1.714 
#    7.286    0.000    0.000    4.571    0.000    0.000 
#    0.000    0.000    0.000    0.000    0.000    0.000 
#
# Total GULP energy -468146.551120 kJ/mol
# GULP energy per Si atom -5573.173228 kJ/mol
# Density = 2.000824 g / cm^3
# Si number density = 20.053884 Si / 1000 Ang^3
#
#
#
# Elastic Constant Matrix: (Units=GPa)
#
#
# Indices 1 2 3 4 5 6 
#
# 1 103.9908 43.6604 8.5007 -0.0008 0.0000 0.0000
# 2 43.6604 103.9908 8.5007 0.0008 0.0000 0.0000
# 3 8.5007 8.5007 69.7281 0.0000 0.0000 0.0000
# 4 -0.0008 0.0008 0.0000 7.5382 0.0000 0.0000
# 5 0.0000 0.0000 0.0000 0.0000 7.5382 -0.0008
# 6 0.0000 0.0000 0.0000 0.0000 -0.0008 30.1652
#
#
#
# Elastic Compliance Matrix: (Units=1/GPa)
#
#
# Indices 1 2 3 4 5 6 
#
# 1 0.011722 -0.004853 -0.000837 0.000002 0.000000 0.000000
# 2 -0.004853 0.011722 -0.000837 -0.000002 0.000000 0.000000
# 3 -0.000837 -0.000837 0.014546 0.000000 0.000000 0.000000
# 4 0.000002 -0.000002 0.000000 0.132658 0.000000 0.000000
# 5 0.000000 0.000000 0.000000 0.000000 0.132658 0.000004
# 6 0.000000 0.000000 0.000000 0.000000 0.000004 0.033151
#
#
# Mechanical properties :
#
#
# Convention : Reuss Voigt Hill
#
# Bulk Modulus (GPa) = 40.10562 44.33705 42.22134
# Shear Modulus (GPa) = 13.97332 23.51817 18.74575
#
# Velocity S-wave (km/s) = 2.64254 3.42826 3.06072
# Velocity P-wave (km/s) = 5.41784 6.15041 5.79571
#
# Compressibility (1/GPa) = 0.02493416
#
# Stress axis : x y z
#
# Youngs Moduli (GPa) = 85.30773 85.30773 68.74930
#
# Poissons Ratio (x) = 0.41401 0.05757
# Poissons Ratio (y) = 0.41401 0.05757
# Poissons Ratio (z) = 0.07144 0.07144
#
# Static dielectric constant tensor:
#      x y z
#    x 1.723580 0.000000 0.000000 
#    y 0.000000 1.723580 0.000000 
#    z 0.000000 0.000000 1.902020 
# 
# From -- ./inp_files/2637.got.cif
#   From: 2010.05.17/outbox.cif.g08.bks.cpg/sg188_2_cif.got.tgz:2637.got - 2010.05.20 12:11:46.
