data_PCOD9585223
_publ_section_title
;
Structure prediction by ZEFSAII (Michael W. Deem and Ramdas Pophale) SiO2 
 PCOD9585223
Probable space group: P 63 C M
;
_chemical_formula_sum "Si O2"
_cell_formula_units_Z 72
_cell_length_a 15.574909
_cell_length_b 15.574909
_cell_length_c 17.933008
_cell_angle_alpha 90.000000
_cell_angle_beta 90.000000
_cell_angle_gamma 120.000000
_cell_volume 3767.339938
_symmetry_space_group_name_H-M "P 63 C M"
_symmetry_group_IT_number 185
_symmetry_cell_setting 'hexagonal'
loop_
_space_group_symop_operation_xyz
x,y,z
x-y,x,1/2+z
-y,x-y,z
-x,-y,1/2+z
-x+y,-x,z
y,-x+y,1/2+z
-x+y,y,1/2+z
x,x-y,1/2+z
-y,-x,1/2+z
y,x,z
x-y,-y,z
-x,-x+y,z
loop_
_atom_site_type_symbol
_atom_site_label
_atom_site_fract_x
_atom_site_fract_y
_atom_site_fract_z
Si Si1 0.421176 0.885139 0.111090
Si Si2 0.487277 0.602812 0.840116
Si Si3 0.280453 0.394354 0.063050
Si Si4 0.356135 0.246816 0.234684
Si Si5 0.119346 0.674922 0.761348
Si Si6 0.114805 0.714667 0.477341
O O1 0.488254 0.841380 0.079731
O O2 0.350723 0.845084 0.183291
O O3 0.354877 0.887139 0.044211
O O4 0.501069 0.000000 0.130145
O O5 0.532182 0.532182 0.860567
O O6 0.541337 0.658491 0.763554
O O7 0.372385 0.529567 0.824288
O O8 0.530070 0.683305 0.904779
O O9 0.346940 0.346940 0.037430
O O10 0.239320 0.352202 0.145548
O O11 0.193081 0.369534 0.005534
O O12 0.271431 0.271431 0.260122
O O13 0.366300 0.156893 0.266576
O O14 0.000000 0.614668 0.761213
O O15 0.000000 0.686623 0.465379
#
# Coordination Sequence:
#
# PCOD9585223 Si02
#       6
#    12  12  12  12  12  12
#     4   9  17  31  51  75 103 138 182 231 278 333
#     4   9  19  35  52  74 109 148 185 234 289 340
#     4  10  19  33  55  80 110 149 191 236 289 352
#     4  10  19  33  54  80 110 144 186 234 286 346
#     4  10  18  33  57  80 107 146 190 231 283 355
#     4  10  20  35  55  79 113 151 188 238 295 346
#
# _framework density 19.111629000000001
#
# number of rings (size 3 to 8) (size 9 to 14) (size 15 to 20)
#    0.000    2.333    3.333    0.000    0.000    1.333 
#    2.000    4.167    0.000    0.667    0.000    0.000 
#    0.000    0.000    0.000    0.000    0.000    0.000 
#
# Total GULP energy -400973.170400 kJ/mol
# GULP energy per Si atom -5569.071811 kJ/mol
# Density = 1.906813 g / cm^3
# Si number density = 19.111629 Si / 1000 Ang^3
#
#
#
# Elastic Constant Matrix: (Units=GPa)
#
#
# Indices 1 2 3 4 5 6 
#
# 1 83.9656 34.4083 30.0446 0.0000 0.0000 0.0000
# 2 34.4083 83.9656 30.0446 0.0000 0.0000 0.0000
# 3 30.0446 30.0446 70.5613 0.0000 0.0000 0.0000
# 4 0.0000 0.0000 0.0000 24.0928 0.0000 0.0000
# 5 0.0000 0.0000 0.0000 0.0000 24.0928 0.0000
# 6 0.0000 0.0000 0.0000 0.0000 0.0000 24.7787
#
#
#
# Elastic Compliance Matrix: (Units=1/GPa)
#
#
# Indices 1 2 3 4 5 6 
#
# 1 0.015478 -0.004701 -0.004589 0.000000 0.000000 0.000000
# 2 -0.004701 0.015478 -0.004589 0.000000 0.000000 0.000000
# 3 -0.004589 -0.004589 0.018080 0.000000 0.000000 0.000000
# 4 0.000000 0.000000 0.000000 0.041506 0.000000 0.000000
# 5 0.000000 0.000000 0.000000 0.000000 0.041506 0.000000
# 6 0.000000 0.000000 0.000000 0.000000 0.000000 0.040357
#
#
# Mechanical properties :
#
#
# Convention : Reuss Voigt Hill
#
# Bulk Modulus (GPa) = 46.99506 47.49863 47.24684
# Shear Modulus (GPa) = 24.12482 24.19251 24.15867
#
# Velocity S-wave (km/s) = 3.55676 3.56174 3.55925
# Velocity P-wave (km/s) = 6.44286 6.46698 6.45494
#
# Compressibility (1/GPa) = 0.02127883
#
# Stress axis : x y z
#
# Youngs Moduli (GPa) = 64.60807 64.60807 55.30999
#
# Poissons Ratio (x) = 0.30370 0.25381
# Poissons Ratio (y) = 0.30370 0.25381
# Poissons Ratio (z) = 0.29648 0.29648
#
# Static dielectric constant tensor:
#      x y z
#    x 1.697720 0.000000 0.000000 
#    y 0.000000 1.697720 0.000000 
#    z 0.000000 0.000000 1.726850 
# 
# From -- ./inp_files/1701.got.cif
#   From: 2010.05.17/outbox.cif.g08.bks.cpg/sg185_cif.got.tgz:1701.got - 2010.05.20 12:05:34.
