data_PCOD9585918
_publ_section_title
;
Structure prediction by ZEFSAII (Michael W. Deem and Ramdas Pophale) SiO2 
 PCOD9585918
Probable space group: P -6 C 2
;
_chemical_formula_sum "Si O2"
_cell_formula_units_Z 48
_cell_length_a 12.747025
_cell_length_b 12.747025
_cell_length_c 14.311312
_cell_angle_alpha 90.000000
_cell_angle_beta 90.000000
_cell_angle_gamma 120.000000
_cell_volume 2013.852955
_symmetry_space_group_name_H-M "P -6 C 2"
_symmetry_group_IT_number 188
_symmetry_cell_setting 'hexagonal'
loop_
_space_group_symop_operation_xyz
x,y,z
-x+y,-x,1/2-z
-y,x-y,z
x,y,1/2-z
-x+y,-x,z
-y,x-y,1/2-z
-y,-x,-z
-x+y,y,-z
x,x-y,-z
-x+y,y,1/2+z
x,x-y,1/2+z
-y,-x,1/2+z
loop_
_atom_site_type_symbol
_atom_site_label
_atom_site_fract_x
_atom_site_fract_y
_atom_site_fract_z
Si Si1 0.666668 0.333335 0.636421
Si Si2 0.924566 0.531594 0.365018
Si Si3 0.000000 0.000000 0.110170
Si Si4 0.084794 0.421572 0.356381
Si Si5 0.193778 0.268284 0.141107
Si Si6 0.333335 0.666667 0.611881
O O1 0.666667 0.333334 0.750000
O O2 0.543599 0.214929 0.607015
O O3 0.927796 0.534125 0.250000
O O4 0.990844 0.458003 0.396806
O O5 0.997348 0.670617 0.397308
O O6 0.117628 0.123895 0.139968
O O7 0.000000 0.000000 0.000000
O O8 0.041699 0.381539 0.250000
O O9 0.112834 0.322465 0.400271
O O10 0.213845 0.546065 0.355761
O O11 0.210736 0.307081 0.250000
O O12 0.333334 0.666667 0.500000
#
# Coordination Sequence:
#
# PCOD9585918 Si02
#       6
#     4  12   4  12  12   4
#     4   9  18  30  51  87 121 140 175 231 301 359
#     4   9  18  32  56  88 117 146 181 239 299 347
#     4  12  28  44  58  81 124 167 202 246 301 368
#     4  10  19  36  60  87 119 152 197 251 296 345
#     4  10  21  38  64  90 115 152 202 249 294 353
#     4  12  22  32  52  87 127 161 193 237 298 365
#
# _framework density 23.834909
#
# number of rings (size 3 to 8) (size 9 to 14) (size 15 to 20)
#    0.000    2.000    2.500    1.500    3.500    1.000 
#    0.000    0.000    0.000    0.000    0.000    1.750 
#    0.000    0.000    0.000    0.000    0.000    0.000 
#
# Total GULP energy -268368.603731 kJ/mol
# GULP energy per Si atom -5591.012578 kJ/mol
# Density = 2.378066 g / cm^3
# Si number density = 23.834909 Si / 1000 Ang^3
#
#
#
# Elastic Constant Matrix: (Units=GPa)
#
#
# Indices 1 2 3 4 5 6 
#
# 1 123.3825 75.0022 2.8297 -0.0001 -0.0001 -0.0003
# 2 75.0022 123.3822 2.8296 0.0000 0.0000 -0.0004
# 3 2.8297 2.8296 78.2440 -0.0011 0.0056 -0.0001
# 4 -0.0001 0.0000 -0.0011 153.1667 0.0192 0.0000
# 5 -0.0001 0.0000 0.0056 0.0192 152.9473 0.0000
# 6 -0.0003 -0.0004 -0.0001 0.0000 0.0000 24.1903
#
#
#
# Elastic Compliance Matrix: (Units=1/GPa)
#
#
# Indices 1 2 3 4 5 6 
#
# 1 0.012858 -0.007812 -0.000182 0.000000 0.000000 0.000000
# 2 -0.007812 0.012858 -0.000182 0.000000 0.000000 0.000000
# 3 -0.000182 -0.000182 0.012794 0.000000 0.000000 0.000000
# 4 0.000000 0.000000 0.000000 0.006529 -0.000001 0.000000
# 5 0.000000 0.000000 0.000000 -0.000001 0.006538 0.000000
# 6 0.000000 0.000000 0.000000 0.000000 0.000000 0.041339
#
#
# Mechanical properties :
#
#
# Convention : Reuss Voigt Hill
#
# Bulk Modulus (GPa) = 45.13523 54.03686 49.58605
# Shear Modulus (GPa) = 42.86181 82.35069 62.60625
#
# Velocity S-wave (km/s) = 4.24521 5.88434 5.13066
# Velocity P-wave (km/s) = 6.55796 8.29987 7.47979
#
# Compressibility (1/GPa) = 0.02215564
#
# Stress axis : x y z
#
# Youngs Moduli (GPa) = 77.77406 77.77389 78.16328
#
# Poissons Ratio (x) = 0.60756 0.01426
# Poissons Ratio (y) = 0.60756 0.01426
# Poissons Ratio (z) = 0.01419 0.01419
#
# Static dielectric constant tensor:
#      x y z
#    x 1.867200 0.000000 0.000000 
#    y 0.000000 1.867200 0.000000 
#    z 0.000000 0.000000 1.943680 
# 
# From -- ./inp_files/3602.got.cif
#   From: 2010.05.17/outbox.cif.g08.bks.cpg/sg188_2_cif.got.tgz:3602.got - 2010.05.20 12:11:46.
