data_PCOD9585189
_publ_section_title
;
Structure prediction by ZEFSAII (Michael W. Deem and Ramdas Pophale) SiO2 
 PCOD9585189
Probable space group: P 6 C C
;
_chemical_formula_sum "Si O2"
_cell_formula_units_Z 60
_cell_length_a 14.583344
_cell_length_b 14.583344
_cell_length_c 13.669219
_cell_angle_alpha 90.000000
_cell_angle_beta 90.000000
_cell_angle_gamma 120.000000
_cell_volume 2517.610689
_symmetry_space_group_name_H-M "P 6 C C"
_symmetry_group_IT_number 184
_symmetry_cell_setting 'hexagonal'
loop_
_space_group_symop_operation_xyz
x,y,z
x-y,x,z
-y,x-y,z
-x,-y,z
-x+y,-x,z
y,-x+y,z
-x+y,y,1/2+z
x,x-y,1/2+z
-y,-x,1/2+z
y,x,1/2+z
x-y,-y,1/2+z
-x,-x+y,1/2+z
loop_
_atom_site_type_symbol
_atom_site_label
_atom_site_fract_x
_atom_site_fract_y
_atom_site_fract_z
Si Si1 0.118741 0.519864 0.183010
Si Si2 0.923941 0.374942 0.901193
Si Si3 0.190661 0.457878 0.600317
Si Si4 0.051675 0.228519 0.639264
Si Si5 0.217466 0.016929 0.904890
O O1 0.127547 0.497994 0.296425
O O2 0.156115 0.455029 0.113357
O O3 0.196515 0.641665 0.157984
O O4 0.000000 0.500000 0.165409
O O5 0.984613 0.309323 0.884568
O O6 0.000000 0.500000 0.925206
O O7 0.843777 0.311087 0.990072
O O8 0.097880 0.352562 0.651501
O O9 0.142139 0.204741 0.674980
O O10 0.032498 0.215031 0.521994
O O11 0.212128 0.119353 0.870743
#
# Coordination Sequence:
#
# PCOD9585189 Si02
#       5
#    12  12  12  12  12
#     4  11  25  44  68 101 139 184 240 298 363 439
#     4  10  24  43  68 102 145 188 237 298 363 436
#     4  11  23  42  67  97 135 181 234 291 354 424
#     4   9  17  32  59  94 132 171 214 265 328 402
#     4   9  18  35  63 100 138 180 226 280 347 421
#
# _framework density 23.832118999999999
#
# number of rings (size 3 to 8) (size 9 to 14) (size 15 to 20)
#    0.000    2.000    0.000    2.600    0.000   12.800 
#    0.000    0.000    0.000    2.000    0.000    2.800 
#    0.000    0.000    0.000    0.000    0.000    0.400 
#
# Total GULP energy -335399.622315 kJ/mol
# GULP energy per Si atom -5589.993705 kJ/mol
# Density = 2.377788 g / cm^3
# Si number density = 23.832119 Si / 1000 Ang^3
#
#
#
# Elastic Constant Matrix: (Units=GPa)
#
#
# Indices 1 2 3 4 5 6 
#
# 1 144.2521 76.1033 54.7768 0.0000 0.0000 0.0000
# 2 76.1033 144.2521 54.7768 0.0000 0.0000 0.0000
# 3 54.7768 54.7768 148.0452 0.0000 0.0000 0.0000
# 4 0.0000 0.0000 0.0000 -1.1169 0.0000 0.0000
# 5 0.0000 0.0000 0.0000 0.0000 -1.1169 0.0000
# 6 0.0000 0.0000 0.0000 0.0000 0.0000 34.0744
#
#
#
# Elastic Compliance Matrix: (Units=1/GPa)
#
#
# Indices 1 2 3 4 5 6 
#
# 1 0.010117 -0.004556 -0.002058 0.000000 0.000000 0.000000
# 2 -0.004556 0.010117 -0.002058 0.000000 0.000000 0.000000
# 3 -0.002058 -0.002058 0.008277 0.000000 0.000000 0.000000
# 4 0.000000 0.000000 0.000000 -0.895374 0.000000 0.000000
# 5 0.000000 0.000000 0.000000 0.000000 -0.895374 0.000000
# 6 0.000000 0.000000 0.000000 0.000000 0.000000 0.029348
#
#
# Mechanical properties :
#
#
# Convention : Reuss Voigt Hill
#
# Bulk Modulus (GPa) = 89.53286 89.76261 89.64773
# Shear Modulus (GPa) = -2.92086 23.09431 10.08672
#
# Velocity S-wave (km/s) = -1.10827 3.11632 2.05951
# Velocity P-wave (km/s) = 6.00100 7.12004 6.58434
#
# Compressibility (1/GPa) = 0.01116908
#
# Stress axis : x y z
#
# Youngs Moduli (GPa) = 98.83928 98.83928 120.81198
#
# Poissons Ratio (x) = 0.45035 0.24858
# Poissons Ratio (y) = 0.45035 0.24858
# Poissons Ratio (z) = 0.20337 0.20337
#
# Static dielectric constant tensor:
#      x y z
#    x 1.946390 0.000000 0.000000 
#    y 0.000000 1.946390 0.000000 
#    z 0.000000 0.000000 1.937380 
# 
# From -- ./inp_files/808.got.cif
#   From: 2010.05.17/outbox.cif.g08.bks.cpg/sg184_cif.got.tgz:808.got - 2010.05.20 12:04:40.
