data_PCOD9585782
_publ_section_title
;
Structure prediction by ZEFSAII (Michael W. Deem and Ramdas Pophale) SiO2 
 PCOD9585782
Probable space group: P -6 M 2
;
_chemical_formula_sum "Si O2"
_cell_formula_units_Z 60
_cell_length_a 21.687427
_cell_length_b 21.687427
_cell_length_c 8.577362
_cell_angle_alpha 90.000000
_cell_angle_beta 90.000000
_cell_angle_gamma 120.000000
_cell_volume 3493.819237
_symmetry_space_group_name_H-M "P -6 M 2"
_symmetry_group_IT_number 187
_symmetry_cell_setting 'hexagonal'
loop_
_space_group_symop_operation_xyz
x,y,z
-x+y,-x,-z
-y,x-y,z
x,y,-z
-x+y,-x,z
-y,x-y,-z
-y,-x,-z
-x+y,y,-z
x,x-y,-z
-x+y,y,z
x,x-y,z
-y,-x,z
loop_
_atom_site_type_symbol
_atom_site_label
_atom_site_fract_x
_atom_site_fract_y
_atom_site_fract_z
Si Si1 0.540526 0.081051 0.314797
Si Si2 0.214471 0.293327 0.310366
Si Si3 0.700072 0.160420 0.186431
Si Si4 0.299668 0.840088 0.688258
Si Si5 0.918661 0.219573 0.687987
Si Si6 0.459551 0.540450 0.185222
O O1 0.537752 0.075503 0.500000
O O2 0.622277 0.125248 0.259779
O O3 0.500074 0.000148 0.249611
O O4 0.212673 0.290828 0.500000
O O5 0.135282 0.270563 0.256101
O O6 0.264775 0.376238 0.269316
O O7 0.248076 0.246373 0.257146
O O8 0.758639 0.241362 0.235431
O O9 0.734354 0.112477 0.235811
O O10 0.693618 0.160251 0.000000
O O11 0.305317 0.840768 0.500000
O O12 0.241013 0.758988 0.734218
O O13 0.377837 0.875243 0.758409
O O14 0.919602 0.229224 0.500000
O O15 0.862492 0.137509 0.721634
O O16 0.461790 0.538211 0.000000
#
# Coordination Sequence:
#
# PCOD9585782 Si02
#       6
#     6  12  12  12  12   6
#     4  12  24  38  58  80 106 140 182 224 260 312
#     4   8  14  26  46  70  95 125 163 207 249 289
#     4  10  21  37  55  77 106 136 167 210 267 321
#     4   9  18  34  54  74  97 131 177 221 263 313
#     4   9  16  27  47  74 101 131 168 208 250 302
#     4  12  24  36  54  80 110 140 174 220 278 332
#
# _framework density 17.173183000000002
#
# number of rings (size 3 to 8) (size 9 to 14) (size 15 to 20)
#    0.000    2.400    0.000    4.800    0.000    3.200 
#    1.200    0.000    0.000    2.200    0.000    2.800 
#    0.000    0.000    0.000    0.000    0.000    0.200 
#
# Total GULP energy -334601.611361 kJ/mol
# GULP energy per Si atom -5576.693523 kJ/mol
# Density = 1.713410 g / cm^3
# Si number density = 17.173183 Si / 1000 Ang^3
#
#
#
# Elastic Constant Matrix: (Units=GPa)
#
#
# Indices 1 2 3 4 5 6 
#
# 1 152.3819 108.8630 48.3469 0.0000 -0.0004 0.0000
# 2 108.8630 152.3819 48.3469 0.0000 0.0004 0.0000
# 3 48.3469 48.3469 50.8722 0.0000 0.0000 0.0000
# 4 0.0000 0.0000 0.0000 10.7494 0.0000 0.0004
# 5 -0.0004 0.0004 0.0000 0.0000 10.7494 0.0000
# 6 0.0000 0.0000 0.0000 0.0004 0.0000 21.7595
#
#
#
# Elastic Compliance Matrix: (Units=1/GPa)
#
#
# Indices 1 2 3 4 5 6 
#
# 1 0.014442 -0.008537 -0.005612 0.000000 0.000001 0.000000
# 2 -0.008537 0.014442 -0.005612 0.000000 -0.000001 0.000000
# 3 -0.005612 -0.005612 0.030323 0.000000 0.000000 0.000000
# 4 0.000000 0.000000 0.000000 0.093029 0.000000 -0.000002
# 5 0.000001 -0.000001 0.000000 0.000000 0.093029 0.000000
# 6 0.000000 0.000000 0.000000 -0.000002 0.000000 0.045957
#
#
# Mechanical properties :
#
#
# Convention : Reuss Voigt Hill
#
# Bulk Modulus (GPa) = 50.79702 85.19439 67.99571
# Shear Modulus (GPa) = 14.82342 18.65694 16.74018
#
# Velocity S-wave (km/s) = 2.94117 3.29963 3.12554
# Velocity P-wave (km/s) = 6.41696 8.01458 7.25985
#
# Compressibility (1/GPa) = 0.01968619
#
# Stress axis : x y z
#
# Youngs Moduli (GPa) = 69.24399 69.24399 32.97773
#
# Poissons Ratio (x) = 0.59112 0.18506
# Poissons Ratio (y) = 0.59112 0.18506
# Poissons Ratio (z) = 0.38858 0.38858
#
# Static dielectric constant tensor:
#      x y z
#    x 1.575420 0.000000 0.000000 
#    y 0.000000 1.575420 0.000000 
#    z 0.000000 0.000000 1.582120 
# 
# From -- ./inp_files/667.got.cif
#   From: 2010.05.17/outbox.cif.g08.bks.cpg/sg187_1_cif.got.tgz:667.got - 2010.05.20 12:09:04.
