data_PCOD9585059
_publ_section_title
;
Structure prediction by ZEFSAII (Michael W. Deem and Ramdas Pophale) SiO2 
 PCOD9585059
Probable space group: P 6 M M
;
_chemical_formula_sum "Si O2"
_cell_formula_units_Z 72
_cell_length_a 18.403760
_cell_length_b 18.403760
_cell_length_c 15.440837
_cell_angle_alpha 90.000000
_cell_angle_beta 90.000000
_cell_angle_gamma 120.000000
_cell_volume 4529.127975
_symmetry_space_group_name_H-M "P 6 M M"
_symmetry_group_IT_number 183
_symmetry_cell_setting 'hexagonal'
loop_
_space_group_symop_operation_xyz
x,y,z
x-y,x,z
-y,x-y,z
-x,-y,z
-x+y,-x,z
y,-x+y,z
-x+y,y,z
x,x-y,z
-y,-x,z
y,x,z
x-y,-y,z
-x,-x+y,z
loop_
_atom_site_type_symbol
_atom_site_label
_atom_site_fract_x
_atom_site_fract_y
_atom_site_fract_z
Si Si1 0.531455 0.632732 0.958400
Si Si2 0.161694 0.495707 0.469291
Si Si3 0.907072 0.647598 0.605467
Si Si4 0.902498 0.640407 0.806424
Si Si5 0.333528 0.495621 0.268927
Si Si6 0.735229 0.637226 0.119094
O O1 0.432497 0.567504 0.964962
O O2 0.576776 0.576776 0.959966
O O3 0.562100 0.684613 0.869517
O O4 0.572768 0.695446 0.038581
O O5 0.256561 0.513121 0.477444
O O6 0.158678 0.579339 0.486838
O O7 0.107403 0.423803 0.537474
O O8 0.136337 0.471429 0.369067
O O9 0.835300 0.670599 0.589439
O O10 0.897526 0.617085 0.705094
O O11 0.000000 0.724511 0.596433
O O12 0.835897 0.671793 0.820487
O O13 0.000000 0.708426 0.824811
O O14 0.259319 0.518637 0.261951
O O15 0.423239 0.576762 0.248409
O O16 0.308151 0.419015 0.204091
O O17 0.834179 0.668358 0.122429
O O18 0.707263 0.707263 0.110451
#
# Coordination Sequence:
#
# PCOD9585059 Si02
#       6
#    12  12  12  12  12  12
#     4   9  17  29  46  68  92 117 145 177 213 255
#     4   9  17  29  45  66  93 123 152 181 217 264
#     4   9  18  31  46  65  89 117 150 189 232 274
#     4   9  17  30  48  68  90 118 152 189 229 272
#     4   9  17  29  46  68  94 123 152 182 218 263
#     4  10  20  33  49  69  93 121 153 189 229 271
#
# _framework density 15.897099000000001
#
# number of rings (size 3 to 8) (size 9 to 14) (size 15 to 20)
#    0.000    2.833    0.000    1.333    0.000    4.000 
#    0.000    3.333    0.000    4.167    0.000    2.333 
#    0.000    4.000    0.000    8.500    0.000    4.333 
#
# Total GULP energy -400955.812650 kJ/mol
# GULP energy per Si atom -5568.830731 kJ/mol
# Density = 1.586092 g / cm^3
# Si number density = 15.897099 Si / 1000 Ang^3
#
#
#
# Elastic Constant Matrix: (Units=GPa)
#
#
# Indices 1 2 3 4 5 6 
#
# 1 71.7106 54.5529 45.3965 0.0000 0.0000 0.0000
# 2 54.5529 71.7106 45.3965 0.0000 0.0000 0.0000
# 3 45.3965 45.3965 66.9496 0.0000 0.0000 0.0000
# 4 0.0000 0.0000 0.0000 21.3698 0.0000 0.0000
# 5 0.0000 0.0000 0.0000 0.0000 21.3698 0.0000
# 6 0.0000 0.0000 0.0000 0.0000 0.0000 8.5789
#
#
#
# Elastic Compliance Matrix: (Units=1/GPa)
#
#
# Indices 1 2 3 4 5 6 
#
# 1 0.036869 -0.021413 -0.010480 0.000000 0.000000 0.000000
# 2 -0.021413 0.036869 -0.010480 0.000000 0.000000 0.000000
# 3 -0.010480 -0.010480 0.029149 0.000000 0.000000 0.000000
# 4 0.000000 0.000000 0.000000 0.046795 0.000000 0.000000
# 5 0.000000 0.000000 0.000000 0.000000 0.046795 0.000000
# 6 0.000000 0.000000 0.000000 0.000000 0.000000 0.116566
#
#
# Mechanical properties :
#
#
# Convention : Reuss Voigt Hill
#
# Bulk Modulus (GPa) = 55.12584 55.67362 55.39973
# Shear Modulus (GPa) = 12.38117 14.59868 13.48993
#
# Velocity S-wave (km/s) = 2.79378 3.03367 2.91620
# Velocity P-wave (km/s) = 6.72004 6.88245 6.80173
#
# Compressibility (1/GPa) = 0.01814031
#
# Stress axis : x y z
#
# Youngs Moduli (GPa) = 27.12270 27.12270 34.30600
#
# Poissons Ratio (x) = 0.58079 0.35954
# Poissons Ratio (y) = 0.58079 0.35954
# Poissons Ratio (z) = 0.28425 0.28425
#
# Static dielectric constant tensor:
#      x y z
#    x 1.522450 0.000000 0.000000 
#    y 0.000000 1.522450 0.000000 
#    z 0.000000 0.000000 1.549560 
# 
# From -- ./inp_files/2513.got.cif
#   From: 2010.05.17/outbox.cif.g08.bks.cpg/sg183_2_cif.got.tgz:2513.got - 2010.05.20 12:02:58.
