data_PCOD9585155
_publ_section_title
;
Structure prediction by ZEFSAII (Michael W. Deem and Ramdas Pophale) SiO2 
 PCOD9585155
Probable space group: P 6 C C
;
_chemical_formula_sum "Si O2"
_cell_formula_units_Z 68
_cell_length_a 12.621021
_cell_length_b 12.621021
_cell_length_c 26.038718
_cell_angle_alpha 90.000000
_cell_angle_beta 90.000000
_cell_angle_gamma 120.000000
_cell_volume 3592.023825
_symmetry_space_group_name_H-M "P 6 C C"
_symmetry_group_IT_number 184
_symmetry_cell_setting 'hexagonal'
loop_
_space_group_symop_operation_xyz
x,y,z
x-y,x,z
-y,x-y,z
-x,-y,z
-x+y,-x,z
y,-x+y,z
-x+y,y,1/2+z
x,x-y,1/2+z
-y,-x,1/2+z
y,x,1/2+z
x-y,-y,1/2+z
-x,-x+y,1/2+z
loop_
_atom_site_type_symbol
_atom_site_label
_atom_site_fract_x
_atom_site_fract_y
_atom_site_fract_z
Si Si1 0.666667 0.333334 0.317217
Si Si2 0.746016 0.000000 0.756110
Si Si3 0.211770 0.932649 0.948182
Si Si4 0.355621 0.919168 0.160800
Si Si5 0.333334 0.666667 0.195005
Si Si6 0.563547 0.644379 0.851420
Si Si7 0.067352 0.788231 0.564039
O O1 0.666668 0.333334 0.256111
O O2 0.675884 0.459366 0.335274
O O3 0.757555 0.878778 0.756110
O O4 0.663786 0.983420 0.706033
O O5 0.680367 0.016581 0.806187
O O6 0.284834 0.912243 0.903234
O O7 0.068843 0.835194 0.943152
O O8 0.250261 0.920303 0.006110
O O9 0.324119 0.783483 0.176948
O O10 0.284833 0.912241 0.108987
O O11 0.500000 0.000000 0.152625
O O12 0.500000 0.500000 0.859595
O O13 0.931158 0.766352 0.569068
#
# Coordination Sequence:
#
# PCOD9585155 Si02
#       7
#     4  12  12  12   4  12  12
#     4  12  24  42  64  89 124 168 210 249 310 383
#     4  12  24  40  62  90 122 156 200 256 316 376
#     4  10  21  39  63  90 121 158 202 254 313 376
#     4  12  24  40  62  89 122 162 207 255 308 373
#     4  12  24  42  64  89 124 168 210 249 310 383
#     4  12  24  40  62  89 122 162 207 255 308 373
#     4  10  21  39  63  90 121 158 202 254 313 376
#
# _framework density 18.930833
#
# number of rings (size 3 to 8) (size 9 to 14) (size 15 to 20)
#    0.000    0.706    0.000   10.588    0.000    2.118 
#    0.000    5.294    0.000    0.000    0.000    0.000 
#    0.000    0.000    0.000    0.000    0.000    0.000 
#
# Total GULP energy -380503.126412 kJ/mol
# GULP energy per Si atom -5595.634212 kJ/mol
# Density = 1.888775 g / cm^3
# Si number density = 18.930833 Si / 1000 Ang^3
#
#
#
# Elastic Constant Matrix: (Units=GPa)
#
#
# Indices 1 2 3 4 5 6 
#
# 1 110.7045 84.7081 102.4926 -0.0001 0.0014 0.0132
# 2 84.7081 110.7078 102.4922 0.0001 -0.0013 -0.0133
# 3 102.4926 102.4922 210.6588 0.0000 0.0000 -0.0013
# 4 -0.0001 0.0001 0.0000 39.7484 0.0000 0.0014
# 5 0.0014 -0.0013 0.0000 0.0000 39.7483 0.0001
# 6 0.0132 -0.0133 -0.0013 0.0014 0.0001 12.9623
#
#
#
# Elastic Compliance Matrix: (Units=1/GPa)
#
#
# Indices 1 2 3 4 5 6 
#
# 1 0.024459 -0.014007 -0.005085 0.000000 -0.000001 -0.000040
# 2 -0.014007 0.024457 -0.005084 0.000000 0.000001 0.000039
# 3 -0.005085 -0.005084 0.009695 0.000000 0.000000 0.000001
# 4 0.000000 0.000000 0.000000 0.025158 0.000000 -0.000003
# 5 -0.000001 0.000001 0.000000 0.000000 0.025158 0.000000
# 6 -0.000040 0.000039 0.000001 -0.000003 0.000000 0.077147
#
#
# Mechanical properties :
#
#
# Convention : Reuss Voigt Hill
#
# Bulk Modulus (GPa) = 97.48565 112.38411 104.93488
# Shear Modulus (GPa) = 21.02201 27.98369 24.50285
#
# Velocity S-wave (km/s) = 3.33598 3.84892 3.60159
# Velocity P-wave (km/s) = 8.15143 8.90206 8.53500
#
# Compressibility (1/GPa) = 0.01025792
#
# Stress axis : x y z
#
# Youngs Moduli (GPa) = 40.88542 40.88787 103.14681
#
# Poissons Ratio (x) = 0.57270 0.52453
# Poissons Ratio (y) = 0.57267 0.52445
# Poissons Ratio (z) = 0.20791 0.20789
#
# Static dielectric constant tensor:
#      x y z
#    x 1.638710 0.000000 0.000000 
#    y 0.000000 1.638710 0.000000 
#    z 0.000000 0.000000 1.642490 
# 
# From -- ./inp_files/1400.got.cif
#   From: 2010.05.17/outbox.cif.g08.bks.cpg/sg184_cif.got.tgz:1400.got - 2010.05.20 12:04:40.
