data_PCOD9585231
_publ_section_title
;
Structure prediction by ZEFSAII (Michael W. Deem and Ramdas Pophale) SiO2 
 PCOD9585231
Probable space group: P 63 C M
;
_chemical_formula_sum "Si O2"
_cell_formula_units_Z 48
_cell_length_a 25.307087
_cell_length_b 25.307087
_cell_length_c 5.376762
_cell_angle_alpha 90.000000
_cell_angle_beta 90.000000
_cell_angle_gamma 120.000000
_cell_volume 2982.193099
_symmetry_space_group_name_H-M "P 63 C M"
_symmetry_group_IT_number 185
_symmetry_cell_setting 'hexagonal'
loop_
_space_group_symop_operation_xyz
x,y,z
x-y,x,1/2+z
-y,x-y,z
-x,-y,1/2+z
-x+y,-x,z
y,-x+y,1/2+z
-x+y,y,1/2+z
x,x-y,1/2+z
-y,-x,1/2+z
y,x,z
x-y,-y,z
-x,-x+y,z
loop_
_atom_site_type_symbol
_atom_site_label
_atom_site_fract_x
_atom_site_fract_y
_atom_site_fract_z
Si Si1 0.415909 0.484484 0.626010
Si Si2 0.451625 0.193200 0.698051
Si Si3 0.413018 0.345812 0.124985
Si Si4 0.577791 0.384117 0.131033
O O1 0.474867 0.474867 0.640044
O O2 0.380888 0.450100 0.374960
O O3 0.425509 0.552485 0.617135
O O4 0.376457 0.450965 0.871344
O O5 0.449193 0.233727 0.474113
O O6 0.401236 0.123138 0.650111
O O7 0.514552 0.191877 0.668679
O O8 0.355460 0.355460 0.114146
O O9 0.618761 0.394330 0.370094
#
# Coordination Sequence:
#
# PCOD9585231 Si02
#       4
#    12  12  12  12
#     4  10  19  32  54  83 103 115 142 192 256 296
#     4  12  24  37  53  74  97 130 154 189 243 294
#     4  10  20  36  56  80 100 120 151 195 242 292
#     4  12  21  35  54  71  96 123 153 190 236 282
#
# _framework density 16.095538000000001
#
# number of rings (size 3 to 8) (size 9 to 14) (size 15 to 20)
#    0.000    1.000    5.000    3.000    0.000    2.000 
#    0.000    0.000    0.000   10.000    0.000    0.000 
#    0.000    0.000    0.000    0.000    0.000    0.000 
#
# Total GULP energy -267993.068719 kJ/mol
# GULP energy per Si atom -5583.188932 kJ/mol
# Density = 1.605890 g / cm^3
# Si number density = 16.095538 Si / 1000 Ang^3
#
#
#
# Elastic Constant Matrix: (Units=GPa)
#
#
# Indices 1 2 3 4 5 6 
#
# 1 28.9134 1.1290 -10.9466 0.0000 0.0000 0.0000
# 2 1.1290 28.9134 -10.9466 0.0000 0.0000 0.0000
# 3 -10.9466 -10.9466 98.4142 0.0000 0.0000 0.0000
# 4 0.0000 0.0000 0.0000 16.1542 0.0000 0.0000
# 5 0.0000 0.0000 0.0000 0.0000 16.1542 0.0000
# 6 0.0000 0.0000 0.0000 0.0000 0.0000 13.8922
#
#
#
# Elastic Compliance Matrix: (Units=1/GPa)
#
#
# Indices 1 2 3 4 5 6 
#
# 1 0.036107 0.000116 0.004029 0.000000 0.000000 0.000000
# 2 0.000116 0.036107 0.004029 0.000000 0.000000 0.000000
# 3 0.004029 0.004029 0.011057 0.000000 0.000000 0.000000
# 4 0.000000 0.000000 0.000000 0.061903 0.000000 0.000000
# 5 0.000000 0.000000 0.000000 0.000000 0.061903 0.000000
# 6 0.000000 0.000000 0.000000 0.000000 0.000000 0.071983
#
#
# Mechanical properties :
#
#
# Convention : Reuss Voigt Hill
#
# Bulk Modulus (GPa) = 10.03831 12.74583 11.39207
# Shear Modulus (GPa) = 16.89648 21.04048 18.96848
#
# Velocity S-wave (km/s) = 3.24352 3.61948 3.43664
# Velocity P-wave (km/s) = 4.50305 5.04019 4.77917
#
# Compressibility (1/GPa) = 0.09961837
#
# Stress axis : x y z
#
# Youngs Moduli (GPa) = 27.69556 27.69556 90.43684
#
# Poissons Ratio (x) = -0.00320 -0.36437
# Poissons Ratio (y) = -0.00320 -0.36437
# Poissons Ratio (z) = -0.11159 -0.11159
#
# Static dielectric constant tensor:
#      x y z
#    x 1.579900 0.000000 0.000000 
#    y 0.000000 1.579900 0.000000 
#    z 0.000000 0.000000 1.639420 
# 
# From -- ./inp_files/114.got.cif
#   From: 2010.05.17/outbox.cif.g08.bks.cpg/sg185_cif.got.tgz:114.got - 2010.05.20 12:05:34.
