data_PCOD9585617
_publ_section_title
;
Structure prediction by ZEFSAII (Michael W. Deem and Ramdas Pophale) SiO2 
 PCOD9585617
Probable space group: P -6 M 2
;
_chemical_formula_sum "Si O2"
_cell_formula_units_Z 72
_cell_length_a 12.746917
_cell_length_b 12.746917
_cell_length_c 31.483398
_cell_angle_alpha 90.000000
_cell_angle_beta 90.000000
_cell_angle_gamma 120.000000
_cell_volume 4430.191987
_symmetry_space_group_name_H-M "P -6 M 2"
_symmetry_group_IT_number 187
_symmetry_cell_setting 'hexagonal'
loop_
_space_group_symop_operation_xyz
x,y,z
-x+y,-x,-z
-y,x-y,z
x,y,-z
-x+y,-x,z
-y,x-y,-z
-y,-x,-z
-x+y,y,-z
x,x-y,-z
-x+y,y,z
x,x-y,z
-y,-x,z
loop_
_atom_site_type_symbol
_atom_site_label
_atom_site_fract_x
_atom_site_fract_y
_atom_site_fract_z
Si Si1 0.916266 0.582396 0.164139
Si Si2 0.916897 0.333997 0.000000
Si Si3 0.582815 0.916775 0.917794
Si Si4 0.084846 0.416771 0.500000
Si Si5 0.333130 0.417595 0.245518
Si Si6 0.417926 0.333194 0.578385
Si Si7 0.666482 0.582101 0.324525
O O1 0.794831 0.589662 0.162139
O O2 0.885226 0.442613 0.163233
O O3 0.004045 0.647224 0.124247
O O4 0.991413 0.640465 0.207070
O O5 0.998807 0.354184 0.041413
O O6 0.794881 0.205120 0.000000
O O7 0.885951 0.442976 0.000000
O O8 0.442931 0.885861 0.918124
O O9 0.589694 0.794847 0.918643
O O10 0.212551 0.425101 0.500000
O O11 0.099936 0.549968 0.500000
O O12 0.009856 0.350637 0.457825
O O13 0.206158 0.412315 0.240609
O O14 0.443572 0.556429 0.244904
O O15 0.342812 0.359270 0.289631
O O16 0.417975 0.208988 0.572384
O O17 0.554358 0.445643 0.574055
O O18 0.379045 0.336330 0.626909
O O19 0.793633 0.587265 0.317436
O O20 0.556608 0.443393 0.320480
#
# Coordination Sequence:
#
# PCOD9585617 Si02
#       7
#    12   6  12   6  12  12  12
#     4  10  20  34  54  78 102 128 160 203 252 298
#     4  10  20  34  54  78 104 134 168 210 256 298
#     4  10  20  34  54  78 104 134 167 205 247 293
#     4  10  20  32  46  66  94 128 162 194 232 280
#     4  10  20  33  50  72  99 131 165 201 239 282
#     4   9  17  30  50  75  98 120 150 193 245 292
#     4   9  17  30  50  75 100 124 152 192 242 292
#
# _framework density 16.252116999999998
#
# number of rings (size 3 to 8) (size 9 to 14) (size 15 to 20)
#    0.000    2.333    0.000    3.000    0.000    2.000 
#    0.000    6.667    0.000   14.667    0.000    0.000 
#    0.000    0.000    0.000    0.000    0.000    0.000 
#
# Total GULP energy -401675.900877 kJ/mol
# GULP energy per Si atom -5578.831957 kJ/mol
# Density = 1.621513 g / cm^3
# Si number density = 16.252117 Si / 1000 Ang^3
#
#
#
# Elastic Constant Matrix: (Units=GPa)
#
#
# Indices 1 2 3 4 5 6 
#
# 1 110.3645 72.8027 73.7053 0.0000 -0.0001 0.0000
# 2 72.8027 110.3645 73.7053 0.0000 0.0001 0.0000
# 3 73.7053 73.7053 136.5631 0.0000 0.0000 0.0000
# 4 0.0000 0.0000 0.0000 15.5164 0.0000 0.0001
# 5 -0.0001 0.0001 0.0000 0.0000 15.5164 0.0000
# 6 0.0000 0.0000 0.0000 0.0001 0.0000 18.7809
#
#
#
# Elastic Compliance Matrix: (Units=1/GPa)
#
#
# Indices 1 2 3 4 5 6 
#
# 1 0.018137 -0.008485 -0.005209 0.000000 0.000000 0.000000
# 2 -0.008485 0.018137 -0.005209 0.000000 0.000000 0.000000
# 3 -0.005209 -0.005209 0.012946 0.000000 0.000000 0.000000
# 4 0.000000 0.000000 0.000000 0.064448 0.000000 0.000000
# 5 0.000000 0.000000 0.000000 0.000000 0.064448 0.000000
# 6 0.000000 0.000000 0.000000 0.000000 0.000000 0.053246
#
#
# Mechanical properties :
#
#
# Convention : Reuss Voigt Hill
#
# Bulk Modulus (GPa) = 87.62461 88.63542 88.13002
# Shear Modulus (GPa) = 18.31678 19.10132 18.70905
#
# Velocity S-wave (km/s) = 3.36078 3.43200 3.39658
# Velocity P-wave (km/s) = 8.31220 8.38815 8.35026
#
# Compressibility (1/GPa) = 0.01141232
#
# Stress axis : x y z
#
# Youngs Moduli (GPa) = 55.13492 55.13492 77.24597
#
# Poissons Ratio (x) = 0.46785 0.40239
# Poissons Ratio (y) = 0.46785 0.40239
# Poissons Ratio (z) = 0.28721 0.28721
#
# Static dielectric constant tensor:
#      x y z
#    x 1.509650 0.000000 0.000000 
#    y 0.000000 1.509650 0.000000 
#    z 0.000000 0.000000 1.559560 
# 
# From -- ./inp_files/4537.got.cif
#   From: 2010.05.17/outbox.cif.g08.bks.cpg/sg187_3_cif.got.tgz:4537.got - 2010.05.20 12:09:04.
