data_PCOD9585741
_publ_section_title
;
Structure prediction by ZEFSAII (Michael W. Deem and Ramdas Pophale) SiO2 
 PCOD9585741
Probable space group: P -6 M 2
;
_chemical_formula_sum "Si O2"
_cell_formula_units_Z 84
_cell_length_a 18.929111
_cell_length_b 18.929111
_cell_length_c 14.537708
_cell_angle_alpha 90.000000
_cell_angle_beta 90.000000
_cell_angle_gamma 120.000000
_cell_volume 4511.147310
_symmetry_space_group_name_H-M "P -6 M 2"
_symmetry_group_IT_number 187
_symmetry_cell_setting 'hexagonal'
loop_
_space_group_symop_operation_xyz
x,y,z
-x+y,-x,-z
-y,x-y,z
x,y,-z
-x+y,-x,z
-y,x-y,-z
-y,-x,-z
-x+y,y,-z
x,x-y,-z
-x+y,y,z
x,x-y,z
-y,-x,z
loop_
_atom_site_type_symbol
_atom_site_label
_atom_site_fract_x
_atom_site_fract_y
_atom_site_fract_z
Si Si1 0.334740 0.502552 0.776080
Si Si2 0.745739 0.794905 0.652547
Si Si3 0.361155 0.263160 0.897804
Si Si4 0.865949 0.134052 0.608821
Si Si5 0.083917 0.757619 0.856818
Si Si6 0.582181 0.642839 0.604188
Si Si7 0.900281 0.369808 0.725795
Si Si8 0.767993 0.535986 0.390636
O O1 0.259925 0.519849 0.778884
O O2 0.419445 0.580556 0.804361
O O3 0.307123 0.422114 0.838755
O O4 0.344651 0.477724 0.671998
O O5 0.771641 0.885821 0.622397
O O6 0.815283 0.771560 0.647358
O O7 0.713221 0.782260 0.756100
O O8 0.666639 0.728161 0.598773
O O9 0.338095 0.169048 0.882968
O O10 0.286018 0.280602 0.900147
O O11 0.417026 0.316045 0.812437
O O12 0.400407 0.286509 0.000000
O O13 0.872439 0.127562 0.500000
O O14 0.817281 0.182720 0.623186
O O15 0.160111 0.839890 0.897159
O O16 0.553462 0.615734 0.500000
O O17 0.604311 0.582763 0.660138
O O18 0.903169 0.451585 0.758593
O O19 0.822176 0.316538 0.661611
O O20 0.759992 0.519984 0.500000
#
# Coordination Sequence:
#
# PCOD9585741 Si02
#       8
#    12  12  12   6  12  12  12   6
#     4  10  20  34  53  80 117 160 204 249 300 351
#     4  10  20  34  54  79 111 153 197 242 293 348
#     4  11  23  41  68  96 121 155 195 238 296 360
#     4  11  20  32  52  77 111 157 201 244 290 341
#     4   9  19  36  60  89 118 151 193 244 296 348
#     4  11  21  34  56  83 112 153 206 251 291 345
#     4  12  24  40  62  87 120 154 192 253 305 350
#     4  11  22  40  63  89 119 159 204 242 293 357
#
# _framework density 18.620540999999999
#
# number of rings (size 3 to 8) (size 9 to 14) (size 15 to 20)
#    0.000    1.429    5.000    2.714    1.000    4.571 
#    0.857    0.000    0.000    1.143    0.000    0.000 
#    0.000    1.143    0.000    0.000    0.000    0.000 
#
# Total GULP energy -468666.997319 kJ/mol
# GULP energy per Si atom -5579.369016 kJ/mol
# Density = 1.857816 g / cm^3
# Si number density = 18.620541 Si / 1000 Ang^3
#
#
#
# Elastic Constant Matrix: (Units=GPa)
#
#
# Indices 1 2 3 4 5 6 
#
# 1 88.7494 49.6199 25.7423 0.0000 0.0012 0.0000
# 2 49.6199 88.7494 25.7423 0.0000 -0.0012 0.0000
# 3 25.7423 25.7423 94.0705 0.0000 0.0000 0.0000
# 4 0.0000 0.0000 0.0000 -9.8591 0.0000 -0.0012
# 5 0.0012 -0.0012 0.0000 0.0000 -9.8591 0.0000
# 6 0.0000 0.0000 0.0000 -0.0012 0.0000 19.5648
#
#
#
# Elastic Compliance Matrix: (Units=1/GPa)
#
#
# Indices 1 2 3 4 5 6 
#
# 1 0.016801 -0.008755 -0.002202 0.000000 0.000003 0.000000
# 2 -0.008755 0.016801 -0.002202 0.000000 -0.000003 0.000000
# 3 -0.002202 -0.002202 0.011835 0.000000 0.000000 0.000000
# 4 0.000000 0.000000 0.000000 -0.101429 0.000000 -0.000006
# 5 0.000003 -0.000003 0.000000 0.000000 -0.101429 0.000000
# 6 0.000000 0.000000 0.000000 -0.000006 0.000000 0.051112
#
#
# Mechanical properties :
#
#
# Convention : Reuss Voigt Hill
#
# Bulk Modulus (GPa) = 52.29972 52.64203 52.47087
# Shear Modulus (GPa) = -67.91814 11.33365 -28.29225
#
# Velocity S-wave (km/s) = -6.04599 2.46979 -3.90219
# Velocity P-wave (km/s) = 4.53769 6.03866 2.81734
#
# Compressibility (1/GPa) = 0.01912056
#
# Stress axis : x y z
#
# Youngs Moduli (GPa) = 59.51947 59.51947 84.49230
#
# Poissons Ratio (x) = 0.52109 0.18604
# Poissons Ratio (y) = 0.52109 0.18604
# Poissons Ratio (z) = 0.13105 0.13105
#
# Static dielectric constant tensor:
#      x y z
#    x 1.638520 0.000000 0.000000 
#    y 0.000000 1.638520 0.000000 
#    z 0.000000 0.000000 1.663640 
# 
# From -- ./inp_files/2672.got.cif
#   From: 2010.05.17/outbox.cif.g08.bks.cpg/sg187_2_cif.got.tgz:2672.got - 2010.05.20 12:09:04.
