data_PCOD9585391
_publ_section_title
;
Structure prediction by ZEFSAII (Michael W. Deem and Ramdas Pophale) SiO2 
 PCOD9585391
Probable space group: P 63 M C
;
_chemical_formula_sum "Si O2"
_cell_formula_units_Z 64
_cell_length_a 14.731982
_cell_length_b 14.731982
_cell_length_c 19.096444
_cell_angle_alpha 90.000000
_cell_angle_beta 90.000000
_cell_angle_gamma 120.000000
_cell_volume 3589.264755
_symmetry_space_group_name_H-M "P 63 M C"
_symmetry_group_IT_number 186
_symmetry_cell_setting 'hexagonal'
loop_
_space_group_symop_operation_xyz
x,y,z
x-y,x,1/2+z
-y,x-y,z
-x,-y,1/2+z
-x+y,-x,z
y,-x+y,1/2+z
-x+y,y,z
x,x-y,z
-y,-x,z
y,x,1/2+z
x-y,-y,1/2+z
-x,-x+y,1/2+z
loop_
_atom_site_type_symbol
_atom_site_label
_atom_site_fract_x
_atom_site_fract_y
_atom_site_fract_z
Si Si1 0.000000 0.000000 0.002674
Si Si2 0.238120 0.119060 0.495561
Si Si3 0.049605 0.316470 0.410771
Si Si4 0.667471 0.538222 0.039695
Si Si5 0.000000 0.000000 0.170821
Si Si6 0.121753 0.878248 0.165348
Si Si7 0.548743 0.883008 0.815202
Si Si8 0.334687 0.063007 0.177393
O O1 0.058165 0.116329 0.978373
O O2 0.000000 0.000000 0.086474
O O3 0.273221 0.228978 0.458802
O O4 0.249400 0.124700 0.579904
O O5 0.146325 0.292650 0.394382
O O6 0.102344 0.416395 0.461823
O O7 0.982894 0.332074 0.349669
O O8 0.748033 0.496066 0.051433
O O9 0.550194 0.449807 0.050561
O O10 0.699492 0.627516 0.097922
O O11 0.877971 0.938986 0.189751
O O12 0.052474 0.760269 0.191123
O O13 0.439515 0.879029 0.833054
O O14 0.545544 0.772772 0.833010
O O15 0.571321 0.900313 0.731989
O O16 0.295508 0.147754 0.184897
#
# Coordination Sequence:
#
# PCOD9585391 Si02
#       8
#     2   6  12  12   2   6  12  12
#     4   9  18  24  51  79 125 163 171 205 269 349
#     4  11  18  32  53  85 121 152 181 218 276 350
#     4  11  22  36  57  87 118 150 190 236 287 345
#     4  10  20  35  55  79 107 141 187 240 290 336
#     4   9  18  24  51  79 125 157 177 211 272 364
#     4  11  18  32  53  85 119 152 183 224 285 355
#     4  11  24  42  61  83 115 156 200 245 294 347
#     4  10  21  34  54  83 111 144 188 234 284 342
#
# _framework density 17.830949
#
# number of rings (size 3 to 8) (size 9 to 14) (size 15 to 20)
#    0.000    1.500    4.688    1.500    1.312    0.000 
#    0.000    1.875    0.000    0.375    0.000    0.000 
#    3.750    0.000    0.000    0.000    0.000    0.000 
#
# Total GULP energy -356305.678179 kJ/mol
# GULP energy per Si atom -5567.276222 kJ/mol
# Density = 1.779037 g / cm^3
# Si number density = 17.830949 Si / 1000 Ang^3
#
#
#
# Elastic Constant Matrix: (Units=GPa)
#
#
# Indices 1 2 3 4 5 6 
#
# 1 78.2340 33.2841 13.8674 0.0000 0.0000 0.0000
# 2 33.2841 78.2340 13.8674 0.0000 0.0000 0.0000
# 3 13.8674 13.8674 51.7864 0.0000 0.0000 0.0000
# 4 0.0000 0.0000 0.0000 19.3687 0.0000 0.0000
# 5 0.0000 0.0000 0.0000 0.0000 19.3687 0.0000
# 6 0.0000 0.0000 0.0000 0.0000 0.0000 22.4749
#
#
#
# Elastic Compliance Matrix: (Units=1/GPa)
#
#
# Indices 1 2 3 4 5 6 
#
# 1 0.015927 -0.006320 -0.002573 0.000000 0.000000 0.000000
# 2 -0.006320 0.015927 -0.002573 0.000000 0.000000 0.000000
# 3 -0.002573 -0.002573 0.020688 0.000000 0.000000 0.000000
# 4 0.000000 0.000000 0.000000 0.051630 0.000000 0.000000
# 5 0.000000 0.000000 0.000000 0.000000 0.051630 0.000000
# 6 0.000000 0.000000 0.000000 0.000000 0.000000 0.044494
#
#
# Mechanical properties :
#
#
# Convention : Reuss Voigt Hill
#
# Bulk Modulus (GPa) = 33.77061 36.69912 35.23486
# Shear Modulus (GPa) = 21.45038 22.05816 21.75427
#
# Velocity S-wave (km/s) = 3.47217 3.52102 3.49668
# Velocity P-wave (km/s) = 5.92073 6.09561 6.00881
#
# Compressibility (1/GPa) = 0.02961155
#
# Stress axis : x y z
#
# Youngs Moduli (GPa) = 62.78650 62.78650 48.33756
#
# Poissons Ratio (x) = 0.39681 0.12435
# Poissons Ratio (y) = 0.39681 0.12435
# Poissons Ratio (z) = 0.16152 0.16152
#
# Static dielectric constant tensor:
#      x y z
#    x 1.628760 0.000000 0.000000 
#    y 0.000000 1.628760 0.000000 
#    z 0.000000 0.000000 1.609670 
# 
# From -- ./inp_files/2947.got.cif
#   From: 2010.05.17/outbox.cif.g08.bks.cpg/sg186_2_cif.got.tgz:2947.got - 2010.05.20 12:07:08.
