data_PCOD9585674
_publ_section_title
;
Structure prediction by ZEFSAII (Michael W. Deem and Ramdas Pophale) SiO2 
 PCOD9585674
Probable space group: P -6 M 2
;
_chemical_formula_sum "Si O2"
_cell_formula_units_Z 54
_cell_length_a 12.763411
_cell_length_b 12.763411
_cell_length_c 23.474049
_cell_angle_alpha 90.000000
_cell_angle_beta 90.000000
_cell_angle_gamma 120.000000
_cell_volume 3311.708839
_symmetry_space_group_name_H-M "P -6 M 2"
_symmetry_group_IT_number 187
_symmetry_cell_setting 'hexagonal'
loop_
_space_group_symop_operation_xyz
x,y,z
-x+y,-x,-z
-y,x-y,z
x,y,-z
-x+y,-x,z
-y,x-y,-z
-y,-x,-z
-x+y,y,-z
x,x-y,-z
-x+y,y,z
x,x-y,z
-y,-x,z
loop_
_atom_site_type_symbol
_atom_site_label
_atom_site_fract_x
_atom_site_fract_y
_atom_site_fract_z
Si Si1 0.915655 0.581660 0.171112
Si Si2 0.667371 0.085049 0.500000
Si Si3 0.751840 0.000123 0.935028
Si Si4 0.750547 0.999759 0.609571
Si Si5 0.084424 0.666936 0.280320
O O1 0.790269 0.580537 0.179379
O O2 0.893214 0.446607 0.167866
O O3 0.975163 0.653334 0.112864
O O4 0.004728 0.646628 0.224035
O O5 0.775170 0.224831 0.500000
O O6 0.537969 0.075939 0.500000
O O7 0.687889 0.024046 0.555691
O O8 0.890147 0.109854 0.930670
O O9 0.746685 0.873343 0.925854
O O10 0.711531 0.002240 0.000000
O O11 0.761826 0.880913 0.600085
O O12 0.669782 0.976661 0.665712
O O13 0.882287 0.117714 0.616564
O O14 0.091548 0.545774 0.289488
O O15 0.217313 0.782688 0.273269
#
# Coordination Sequence:
#
# PCOD9585674 Si02
#       5
#    12   6  12  12  12
#     4  10  20  33  49  70  97 129 164 201 242 289
#     4  10  20  34  52  74 100 130 164 200 238 282
#     4   9  17  30  49  72  96 122 154 194 240 288
#     4  10  20  34  53  76 102 131 163 201 245 293
#     4  10  20  34  52  73  98 129 165 205 248 294
#
# _framework density 16.305783000000002
#
# number of rings (size 3 to 8) (size 9 to 14) (size 15 to 20)
#    0.000    2.222    0.000    3.333    0.000    1.333 
#    0.000    1.111    0.000   19.111    0.000    0.000 
#    0.000    0.000    0.000    0.000    0.000    0.000 
#
# Total GULP energy -301304.620411 kJ/mol
# GULP energy per Si atom -5579.715193 kJ/mol
# Density = 1.626867 g / cm^3
# Si number density = 16.305783 Si / 1000 Ang^3
#
#
#
# Elastic Constant Matrix: (Units=GPa)
#
#
# Indices 1 2 3 4 5 6 
#
# 1 122.8715 83.3626 91.9639 0.0000 0.0000 0.0000
# 2 83.3626 122.8715 91.9639 0.0000 0.0000 0.0000
# 3 91.9639 91.9639 139.4350 0.0000 0.0000 0.0000
# 4 0.0000 0.0000 0.0000 26.4711 0.0000 0.0000
# 5 0.0000 0.0000 0.0000 0.0000 26.4711 0.0000
# 6 0.0000 0.0000 0.0000 0.0000 0.0000 19.7544
#
#
#
# Elastic Compliance Matrix: (Units=1/GPa)
#
#
# Indices 1 2 3 4 5 6 
#
# 1 0.018543 -0.006768 -0.007766 0.000000 0.000000 0.000000
# 2 -0.006768 0.018543 -0.007766 0.000000 0.000000 0.000000
# 3 -0.007766 -0.007766 0.017416 0.000000 0.000000 0.000000
# 4 0.000000 0.000000 0.000000 0.037777 0.000000 0.000000
# 5 0.000000 0.000000 0.000000 0.000000 0.037777 0.000000
# 6 0.000000 0.000000 0.000000 0.000000 0.000000 0.050622
#
#
# Mechanical properties :
#
#
# Convention : Reuss Voigt Hill
#
# Bulk Modulus (GPa) = 100.99521 102.19544 101.59533
# Shear Modulus (GPa) = 21.87432 22.39852 22.13642
#
# Velocity S-wave (km/s) = 3.66663 3.71031 3.68853
# Velocity P-wave (km/s) = 8.94418 9.00919 8.97675
#
# Compressibility (1/GPa) = 0.00990146
#
# Stress axis : x y z
#
# Youngs Moduli (GPa) = 53.92893 53.92893 57.41795
#
# Poissons Ratio (x) = 0.36498 0.44592
# Poissons Ratio (y) = 0.36498 0.44592
# Poissons Ratio (z) = 0.41882 0.41882
#
# Static dielectric constant tensor:
#      x y z
#    x 1.516290 0.000000 0.000000 
#    y 0.000000 1.516290 0.000000 
#    z 0.000000 0.000000 1.532720 
# 
# From -- ./inp_files/3446.got.cif
#   From: 2010.05.17/outbox.cif.g08.bks.cpg/sg187_2_cif.got.tgz:3446.got - 2010.05.20 12:09:04.
