data_PCOD9585572
_publ_section_title
;
Structure prediction by ZEFSAII (Michael W. Deem and Ramdas Pophale) SiO2 
 PCOD9585572
Probable space group: P -6 M 2
;
_chemical_formula_sum "Si O2"
_cell_formula_units_Z 66
_cell_length_a 16.884647
_cell_length_b 16.884647
_cell_length_c 13.517583
_cell_angle_alpha 90.000000
_cell_angle_beta 90.000000
_cell_angle_gamma 120.000000
_cell_volume 3337.441389
_symmetry_space_group_name_H-M "P -6 M 2"
_symmetry_group_IT_number 187
_symmetry_cell_setting 'hexagonal'
loop_
_space_group_symop_operation_xyz
x,y,z
-x+y,-x,-z
-y,x-y,z
x,y,-z
-x+y,-x,z
-y,x-y,-z
-y,-x,-z
-x+y,y,-z
x,x-y,-z
-x+y,y,z
x,x-y,z
-y,-x,z
loop_
_atom_site_type_symbol
_atom_site_label
_atom_site_fract_x
_atom_site_fract_y
_atom_site_fract_z
Si Si1 0.708634 0.766082 0.309545
Si Si2 0.893341 0.296456 0.392691
Si Si3 0.517027 0.665922 0.000000
Si Si4 0.851528 0.336063 0.817441
Si Si5 0.766148 0.045443 0.891013
Si Si6 0.150006 0.484457 0.782421
O O1 0.731881 0.865941 0.344434
O O2 0.731787 0.702327 0.375818
O O3 0.749852 0.770650 0.200468
O O4 0.599504 0.706005 0.291764
O O5 0.906762 0.341755 0.500000
O O6 0.796012 0.203989 0.392670
O O7 0.889415 0.348766 0.295328
O O8 0.547973 0.652659 0.891916
O O9 0.408484 0.591517 0.000000
O O10 0.536475 0.768238 0.000000
O O11 0.861174 0.430587 0.853701
O O12 0.745499 0.254501 0.818017
O O13 0.907040 0.295993 0.875103
O O14 0.869684 0.130317 0.886664
O O15 0.748697 0.002584 0.000000
O O16 0.256583 0.513166 0.793411
O O17 0.140396 0.570198 0.752335
#
# Coordination Sequence:
#
# PCOD9585572 Si02
#       6
#    12  12   6  12  12  12
#     4  10  20  31  50  78  99 120 158 207 252 292
#     4   9  19  37  57  73  95 128 159 193 248 314
#     4   8  13  22  36  54  81 120 162 198 228 260
#     4   9  17  30  49  75 104 134 170 209 246 282
#     4   9  19  35  51  67  96 138 174 200 239 296
#     4   9  17  28  42  63  95 133 169 200 234 272
#
# _framework density 19.775628999999999
#
# number of rings (size 3 to 8) (size 9 to 14) (size 15 to 20)
#    0.000    2.909    0.000    2.091    1.273    5.818 
#    0.000    0.000    0.000    5.091    0.000    0.000 
#    0.000    1.455    0.000    0.000    0.000    0.000 
#
# Total GULP energy -367904.748613 kJ/mol
# GULP energy per Si atom -5574.314373 kJ/mol
# Density = 1.973062 g / cm^3
# Si number density = 19.775629 Si / 1000 Ang^3
#
#
#
# Elastic Constant Matrix: (Units=GPa)
#
#
# Indices 1 2 3 4 5 6 
#
# 1 34.2538 7.0343 -13.1086 0.0000 -0.0005 0.0000
# 2 7.0343 34.2538 -13.1086 0.0000 0.0005 0.0000
# 3 -13.1086 -13.1086 38.6570 0.0000 0.0000 0.0000
# 4 0.0000 0.0000 0.0000 5.0659 0.0000 0.0005
# 5 -0.0005 0.0005 0.0000 0.0000 5.0659 0.0000
# 6 0.0000 0.0000 0.0000 0.0005 0.0000 13.6097
#
#
#
# Elastic Compliance Matrix: (Units=1/GPa)
#
#
# Indices 1 2 3 4 5 6 
#
# 1 0.033802 -0.002936 0.010467 0.000000 0.000004 0.000000
# 2 -0.002936 0.033802 0.010467 0.000000 -0.000004 0.000000
# 3 0.010467 0.010467 0.032967 0.000000 0.000000 0.000000
# 4 0.000000 0.000000 0.000000 0.197398 0.000000 -0.000008
# 5 0.000004 -0.000004 0.000000 0.000000 0.197398 0.000000
# 6 0.000000 0.000000 0.000000 -0.000008 0.000000 0.073477
#
#
# Mechanical properties :
#
#
# Convention : Reuss Voigt Hill
#
# Bulk Modulus (GPa) = 7.32242 7.64430 7.48336
# Shear Modulus (GPa) = 8.64495 13.17147 10.90821
#
# Velocity S-wave (km/s) = 2.09309 2.58359 2.35116
# Velocity P-wave (km/s) = 3.09065 3.57404 3.34110
#
# Compressibility (1/GPa) = 0.13656690
#
# Stress axis : x y z
#
# Youngs Moduli (GPa) = 29.58373 29.58373 30.33323
#
# Poissons Ratio (x) = 0.08686 -0.31749
# Poissons Ratio (y) = 0.08686 -0.31749
# Poissons Ratio (z) = -0.30965 -0.30965
#
# Static dielectric constant tensor:
#      x y z
#    x 1.704660 0.000000 0.000000 
#    y 0.000000 1.704660 0.000000 
#    z 0.000000 0.000000 1.750200 
# 
# From -- ./inp_files/2473.got.cif
#   From: 2010.05.17/outbox.cif.g08.bks.cpg/sg187_2_cif.got.tgz:2473.got - 2010.05.20 12:09:04.
