data_PCOD9585290
_publ_section_title
;
Structure prediction by ZEFSAII (Michael W. Deem and Ramdas Pophale) SiO2 
 PCOD9585290
Probable space group: P 63 C M
;
_chemical_formula_sum "Si O2"
_cell_formula_units_Z 60
_cell_length_a 14.790287
_cell_length_b 14.790287
_cell_length_c 18.421966
_cell_angle_alpha 90.000000
_cell_angle_beta 90.000000
_cell_angle_gamma 120.000000
_cell_volume 3489.954870
_symmetry_space_group_name_H-M "P 63 C M"
_symmetry_group_IT_number 185
_symmetry_cell_setting 'hexagonal'
loop_
_space_group_symop_operation_xyz
x,y,z
x-y,x,1/2+z
-y,x-y,z
-x,-y,1/2+z
-x+y,-x,z
y,-x+y,1/2+z
-x+y,y,1/2+z
x,x-y,1/2+z
-y,-x,1/2+z
y,x,z
x-y,-y,z
-x,-x+y,z
loop_
_atom_site_type_symbol
_atom_site_label
_atom_site_fract_x
_atom_site_fract_y
_atom_site_fract_z
Si Si1 0.878430 0.452400 0.986420
Si Si2 0.790425 0.545641 0.237057
Si Si3 0.244785 0.790425 0.901626
Si Si4 0.125010 0.248975 0.319342
Si Si5 0.547600 0.121570 0.152263
O O1 0.863301 0.351515 0.943127
O O2 0.814157 0.497496 0.945593
O O3 0.000000 0.538470 0.987489
O O4 0.842684 0.421342 0.069342
O O5 0.770351 0.501623 0.319342
O O6 0.841734 0.669592 0.251618
O O7 0.863301 0.511787 0.195557
O O8 0.683339 0.497496 0.193090
O O9 0.172142 0.841735 0.887066
O O10 0.172977 0.172977 0.319341
O O11 0.000000 0.186858 0.319342
O O12 0.461530 0.000000 0.151195
#
# Coordination Sequence:
#
# PCOD9585290 Si02
#       5
#    12  12  12  12  12
#     4  11  22  37  57  83 117 151 186 227 279 344
#     4  10  22  35  58  82 117 152 184 232 277 344
#     4  10  22  35  58  82 117 152 184 232 277 344
#     4  10  21  36  58  82 110 144 191 244 288 328
#     4  11  22  37  57  83 117 151 186 227 279 344
#
# _framework density 17.192198000000001
#
# number of rings (size 3 to 8) (size 9 to 14) (size 15 to 20)
#    1.200    0.400    0.000    5.800    0.000    1.600 
#    0.000    0.000    0.000    0.000    0.000    0.000 
#    0.000   19.200    0.000    0.000    0.000    0.000 
#
# Total GULP energy -334470.925970 kJ/mol
# GULP energy per Si atom -5574.515433 kJ/mol
# Density = 1.715307 g / cm^3
# Si number density = 17.192198 Si / 1000 Ang^3
#
#
#
# Elastic Constant Matrix: (Units=GPa)
#
#
# Indices 1 2 3 4 5 6 
#
# 1 79.4318 14.7698 25.1719 0.0000 0.0000 0.0000
# 2 14.7698 79.4318 25.1719 0.0000 0.0000 0.0000
# 3 25.1719 25.1719 127.4996 0.0000 0.0000 0.0000
# 4 0.0000 0.0000 0.0000 16.8923 0.0000 0.0000
# 5 0.0000 0.0000 0.0000 0.0000 16.8923 0.0000
# 6 0.0000 0.0000 0.0000 0.0000 0.0000 32.3310
#
#
#
# Elastic Compliance Matrix: (Units=1/GPa)
#
#
# Indices 1 2 3 4 5 6 
#
# 1 0.013666 -0.001799 -0.002343 0.000000 0.000000 0.000000
# 2 -0.001799 0.013666 -0.002343 0.000000 0.000000 0.000000
# 3 -0.002343 -0.002343 0.008768 0.000000 0.000000 0.000000
# 4 0.000000 0.000000 0.000000 0.059198 0.000000 0.000000
# 5 0.000000 0.000000 0.000000 0.000000 0.059198 0.000000
# 6 0.000000 0.000000 0.000000 0.000000 0.000000 0.030930
#
#
# Mechanical properties :
#
#
# Convention : Reuss Voigt Hill
#
# Bulk Modulus (GPa) = 43.23076 46.28781 44.75929
# Shear Modulus (GPa) = 24.25913 27.97311 26.11612
#
# Velocity S-wave (km/s) = 3.76048 4.03809 3.90175
# Velocity P-wave (km/s) = 6.63740 6.98024 6.81098
#
# Compressibility (1/GPa) = 0.02313168
#
# Stress axis : x y z
#
# Youngs Moduli (GPa) = 73.17238 73.17238 114.04707
#
# Poissons Ratio (x) = 0.13161 0.26721
# Poissons Ratio (y) = 0.13161 0.26721
# Poissons Ratio (z) = 0.17144 0.17144
#
# Static dielectric constant tensor:
#      x y z
#    x 1.564180 0.000000 0.000000 
#    y 0.000000 1.564180 0.000000 
#    z 0.000000 0.000000 1.575140 
# 
# From -- ./inp_files/1894.got.cif
#   From: 2010.05.17/outbox.cif.g08.bks.cpg/sg185_cif.got.tgz:1894.got - 2010.05.20 12:05:34.
