data_PCOD9585311
_publ_section_title
;
Structure prediction by ZEFSAII (Michael W. Deem and Ramdas Pophale) SiO2 
 PCOD9585311
Probable space group: P 63 C M
;
_chemical_formula_sum "Si O2"
_cell_formula_units_Z 72
_cell_length_a 22.705108
_cell_length_b 22.705108
_cell_length_c 8.868073
_cell_angle_alpha 90.000000
_cell_angle_beta 90.000000
_cell_angle_gamma 120.000000
_cell_volume 3959.196303
_symmetry_space_group_name_H-M "P 63 C M"
_symmetry_group_IT_number 185
_symmetry_cell_setting 'hexagonal'
loop_
_space_group_symop_operation_xyz
x,y,z
x-y,x,1/2+z
-y,x-y,z
-x,-y,1/2+z
-x+y,-x,z
y,-x+y,1/2+z
-x+y,y,1/2+z
x,x-y,1/2+z
-y,-x,1/2+z
y,x,z
x-y,-y,z
-x,-x+y,z
loop_
_atom_site_type_symbol
_atom_site_label
_atom_site_fract_x
_atom_site_fract_y
_atom_site_fract_z
Si Si1 0.667293 0.208307 0.158340
Si Si2 0.795151 0.076891 0.660411
Si Si3 0.076891 0.281738 0.797978
Si Si4 0.921192 0.342308 0.799180
Si Si5 0.791693 0.332709 0.300040
Si Si6 0.657691 0.578882 0.159202
O O1 0.646529 0.132281 0.207091
O O2 0.740358 0.259644 0.229188
O O3 0.612817 0.225631 0.229191
O O4 0.669259 0.215309 0.979190
O O5 0.800661 0.078824 0.479195
O O6 0.864256 0.135742 0.729196
O O7 0.731667 0.088163 0.696248
O O8 0.772167 0.000000 0.710000
O O9 0.088161 0.356493 0.762138
O O10 0.000000 0.227829 0.748390
O O11 0.000000 0.396622 0.769476
O O12 0.909310 0.343519 0.979191
O O13 0.867721 0.353475 0.251289
O O14 0.603378 0.603378 0.188905
#
# Coordination Sequence:
#
# PCOD9585311 Si02
#       6
#    12  12  12  12  12  12
#     4  12  25  41  60  82 110 144 185 228 272 322
#     4   9  18  32  51  77 108 140 175 217 264 314
#     4   9  18  32  51  77 108 140 175 217 264 314
#     4   9  19  37  59  84 114 144 176 219 271 324
#     4  12  25  41  60  82 110 144 185 228 272 322
#     4   9  19  37  59  84 114 144 176 219 271 324
#
# _framework density 18.185509
#
# number of rings (size 3 to 8) (size 9 to 14) (size 15 to 20)
#    0.000    2.000    0.000    6.333    0.000    6.000 
#    0.000    3.333    0.000    0.333    0.000    0.000 
#    0.000    0.000    0.000    0.000    0.000    0.000 
#
# Total GULP energy -402222.635250 kJ/mol
# GULP energy per Si atom -5586.425490 kJ/mol
# Density = 1.814412 g / cm^3
# Si number density = 18.185509 Si / 1000 Ang^3
#
#
#
# Elastic Constant Matrix: (Units=GPa)
#
#
# Indices 1 2 3 4 5 6 
#
# 1 58.6222 15.0719 40.1679 0.0000 0.0000 0.0000
# 2 15.0719 58.6222 40.1679 0.0000 0.0000 0.0000
# 3 40.1679 40.1679 87.3725 0.0000 0.0000 0.0000
# 4 0.0000 0.0000 0.0000 27.3154 0.0000 0.0000
# 5 0.0000 0.0000 0.0000 0.0000 27.3154 0.0000
# 6 0.0000 0.0000 0.0000 0.0000 0.0000 21.7751
#
#
#
# Elastic Compliance Matrix: (Units=1/GPa)
#
#
# Indices 1 2 3 4 5 6 
#
# 1 0.025082 0.002120 -0.012506 0.000000 0.000000 0.000000
# 2 0.002120 0.025082 -0.012506 0.000000 0.000000 0.000000
# 3 -0.012506 -0.012506 0.022944 0.000000 0.000000 0.000000
# 4 0.000000 0.000000 0.000000 0.036609 0.000000 0.000000
# 5 0.000000 0.000000 0.000000 0.000000 0.036609 0.000000
# 6 0.000000 0.000000 0.000000 0.000000 0.000000 0.045924
#
#
# Mechanical properties :
#
#
# Convention : Reuss Voigt Hill
#
# Bulk Modulus (GPa) = 36.59575 43.93694 40.26634
# Shear Modulus (GPa) = 20.23123 22.56181 21.39652
#
# Velocity S-wave (km/s) = 3.33902 3.52610 3.43384
# Velocity P-wave (km/s) = 5.91884 6.38676 6.15725
#
# Compressibility (1/GPa) = 0.02732558
#
# Stress axis : x y z
#
# Youngs Moduli (GPa) = 39.86875 39.86875 43.58441
#
# Poissons Ratio (x) = -0.08453 0.54506
# Poissons Ratio (y) = -0.08453 0.54506
# Poissons Ratio (z) = 0.49860 0.49860
#
# Static dielectric constant tensor:
#      x y z
#    x 1.618610 0.000000 0.000000 
#    y 0.000000 1.618610 0.000000 
#    z 0.000000 0.000000 1.603460 
# 
# From -- ./inp_files/634.got.cif
#   From: 2010.05.17/outbox.cif.g08.bks.cpg/sg185_cif.got.tgz:634.got - 2010.05.20 12:05:34.
