data_PCOD9585394
_publ_section_title
;
Structure prediction by ZEFSAII (Michael W. Deem and Ramdas Pophale) SiO2 
 PCOD9585394
Probable space group: P 63 M C
;
_chemical_formula_sum "Si O2"
_cell_formula_units_Z 84
_cell_length_a 17.735555
_cell_length_b 17.735555
_cell_length_c 14.492645
_cell_angle_alpha 90.000000
_cell_angle_beta 90.000000
_cell_angle_gamma 120.000000
_cell_volume 3947.915538
_symmetry_space_group_name_H-M "P 63 M C"
_symmetry_group_IT_number 186
_symmetry_cell_setting 'hexagonal'
loop_
_space_group_symop_operation_xyz
x,y,z
x-y,x,1/2+z
-y,x-y,z
-x,-y,1/2+z
-x+y,-x,z
y,-x+y,1/2+z
-x+y,y,z
x,x-y,z
-y,-x,z
y,x,1/2+z
x-y,-y,1/2+z
-x,-x+y,1/2+z
loop_
_atom_site_type_symbol
_atom_site_label
_atom_site_fract_x
_atom_site_fract_y
_atom_site_fract_z
Si Si1 0.630733 0.903486 0.363110
Si Si2 0.667618 0.163425 0.553122
Si Si3 0.964127 0.392017 0.042637
Si Si4 0.502923 0.332814 0.332359
Si Si5 0.999120 0.828854 0.644129
Si Si6 0.169403 0.998963 0.922461
Si Si7 0.314028 0.961999 0.724088
O O1 0.607117 0.803558 0.355813
O O2 0.588654 0.922301 0.452457
O O3 0.735110 0.960370 0.380155
O O4 0.616885 0.945252 0.270266
O O5 0.585138 0.170275 0.590325
O O6 0.759897 0.240104 0.588991
O O7 0.667394 0.175152 0.442699
O O8 0.647146 0.064844 0.558929
O O9 0.963425 0.481713 0.033055
O O10 0.924895 0.343805 0.138472
O O11 0.532157 0.266079 0.296640
O O12 0.568831 0.431170 0.301594
O O13 0.404288 0.297955 0.304161
O O14 0.904583 0.809165 0.676420
O O15 0.995268 0.816415 0.533298
O O16 0.029374 0.766467 0.688956
O O17 0.071457 0.928544 0.662074
O O18 0.138246 0.069123 0.905893
O O19 0.096216 0.903785 0.890269
#
# Coordination Sequence:
#
# PCOD9585394 Si02
#       7
#    12  12  12  12  12  12  12
#     4  11  24  42  62  89 127 170 213 260 319 382
#     4   9  18  34  58  88 119 150 184 231 296 368
#     4  11  24  42  65  90 120 160 207 259 319 382
#     4  10  20  35  58  88 121 153 189 240 306 376
#     4  10  20  35  56  84 122 166 212 257 303 355
#     4   9  18  34  57  86 122 166 211 252 291 341
#     4  12  23  38  60  91 122 163 212 265 315 374
#
# _framework density 21.277049999999999
#
# number of rings (size 3 to 8) (size 9 to 14) (size 15 to 20)
#    0.000    1.714    2.857    1.857    0.000    6.286 
#    0.000    0.000    0.000    2.000    0.000    1.000 
#    0.000    0.000    0.000    0.000    0.000    0.000 
#
# Total GULP energy -468996.213301 kJ/mol
# GULP energy per Si atom -5583.288254 kJ/mol
# Density = 2.122862 g / cm^3
# Si number density = 21.277050 Si / 1000 Ang^3
#
#
#
# Elastic Constant Matrix: (Units=GPa)
#
#
# Indices 1 2 3 4 5 6 
#
# 1 51.9847 9.2313 1.1233 0.0000 0.0000 0.0000
# 2 9.2313 51.9847 1.1233 0.0000 0.0000 0.0000
# 3 1.1233 1.1233 70.6794 0.0000 0.0000 0.0000
# 4 0.0000 0.0000 0.0000 8.1094 0.0000 0.0000
# 5 0.0000 0.0000 0.0000 0.0000 8.1094 0.0000
# 6 0.0000 0.0000 0.0000 0.0000 0.0000 21.3767
#
#
#
# Elastic Compliance Matrix: (Units=1/GPa)
#
#
# Indices 1 2 3 4 5 6 
#
# 1 0.019868 -0.003522 -0.000260 0.000000 0.000000 0.000000
# 2 -0.003522 0.019868 -0.000260 0.000000 0.000000 0.000000
# 3 -0.000260 -0.000260 0.014157 0.000000 0.000000 0.000000
# 4 0.000000 0.000000 0.000000 0.123313 0.000000 0.000000
# 5 0.000000 0.000000 0.000000 0.000000 0.123313 0.000000
# 6 0.000000 0.000000 0.000000 0.000000 0.000000 0.046780
#
#
# Mechanical properties :
#
#
# Convention : Reuss Voigt Hill
#
# Bulk Modulus (GPa) = 21.83033 21.95607 21.89320
# Shear Modulus (GPa) = 13.48979 18.39719 15.94349
#
# Velocity S-wave (km/s) = 2.52068 2.94368 2.74036
# Velocity P-wave (km/s) = 4.33060 4.67923 4.50829
#
# Compressibility (1/GPa) = 0.04580782
#
# Stress axis : x y z
#
# Youngs Moduli (GPa) = 50.33340 50.33340 70.63816
#
# Poissons Ratio (x) = 0.17729 0.01835
# Poissons Ratio (y) = 0.17729 0.01835
# Poissons Ratio (z) = 0.01307 0.01307
#
# Static dielectric constant tensor:
#      x y z
#    x 1.790090 0.000000 0.000000 
#    y 0.000000 1.790090 0.000000 
#    z 0.000000 0.000000 1.817400 
# 
# From -- ./inp_files/2547.got.cif
#   From: 2010.05.17/outbox.cif.g08.bks.cpg/sg186_2_cif.got.tgz:2547.got - 2010.05.20 12:07:08.
