data_PCOD9585771
_publ_section_title
;
Structure prediction by ZEFSAII (Michael W. Deem and Ramdas Pophale) SiO2 
 PCOD9585771
Probable space group: P -6 M 2
;
_chemical_formula_sum "Si O2"
_cell_formula_units_Z 66
_cell_length_a 22.639483
_cell_length_b 22.639483
_cell_length_c 7.855108
_cell_angle_alpha 90.000000
_cell_angle_beta 90.000000
_cell_angle_gamma 120.000000
_cell_volume 3486.709798
_symmetry_space_group_name_H-M "P -6 M 2"
_symmetry_group_IT_number 187
_symmetry_cell_setting 'hexagonal'
loop_
_space_group_symop_operation_xyz
x,y,z
-x+y,-x,-z
-y,x-y,z
x,y,-z
-x+y,-x,z
-y,x-y,-z
-y,-x,-z
-x+y,y,-z
x,x-y,-z
-x+y,y,z
x,x-y,z
-y,-x,z
loop_
_atom_site_type_symbol
_atom_site_label
_atom_site_fract_x
_atom_site_fract_y
_atom_site_fract_z
Si Si1 0.056059 0.409726 0.195536
Si Si2 0.466309 0.666785 0.702833
Si Si3 0.999209 0.864528 0.793944
Si Si4 0.808028 0.475278 0.500000
Si Si5 0.075930 0.287844 0.701170
Si Si6 0.615388 0.526665 0.198561
O O1 0.124862 0.470850 0.271727
O O2 0.060150 0.341292 0.210389
O O3 0.983556 0.395592 0.264336
O O4 0.056001 0.428727 0.000000
O O5 0.457840 0.667789 0.500000
O O6 0.479225 0.739613 0.770009
O O7 0.396674 0.603327 0.772616
O O8 0.927068 0.854135 0.735689
O O9 0.019171 0.809703 0.730926
O O10 0.998830 0.863106 0.000000
O O11 0.061198 0.938803 0.741368
O O12 0.736093 0.472186 0.500000
O O13 0.798623 0.399312 0.500000
O O14 0.851826 0.512872 0.668871
O O15 0.082221 0.302425 0.500000
O O16 0.147434 0.294868 0.761293
O O17 0.541840 0.458161 0.198117
O O18 0.639737 0.539600 0.000000
#
# Coordination Sequence:
#
# PCOD9585771 Si02
#       6
#    12  12  12   6  12  12
#     4  11  22  36  56  80 107 144 191 235 278 333
#     4  10  21  36  55  80 112 149 189 234 285 339
#     4   9  17  31  52  76 101 131 169 215 269 328
#     4  10  21  38  64  94 123 154 188 228 280 340
#     4  10  21  35  51  74 105 139 180 229 278 331
#     4   9  20  38  59  87 121 153 190 237 283 332
#
# _framework density 18.929020000000001
#
# number of rings (size 3 to 8) (size 9 to 14) (size 15 to 20)
#    0.000    2.182    0.000    2.636    2.545    6.909 
#    0.000    0.909    0.000    4.364    0.000    0.000 
#    0.000    0.000    0.000    0.000    0.000    0.000 
#
# Total GULP energy -368312.872520 kJ/mol
# GULP energy per Si atom -5580.498068 kJ/mol
# Density = 1.888594 g / cm^3
# Si number density = 18.929020 Si / 1000 Ang^3
#
#
#
# Elastic Constant Matrix: (Units=GPa)
#
#
# Indices 1 2 3 4 5 6 
#
# 1 109.4863 58.3268 29.6172 0.0000 -0.0032 0.0000
# 2 58.3268 109.4863 29.6172 0.0000 0.0032 0.0000
# 3 29.6172 29.6172 50.3593 0.0000 0.0000 0.0000
# 4 0.0000 0.0000 0.0000 -53.0694 0.0000 0.0032
# 5 -0.0032 0.0032 0.0000 0.0000 -53.0694 0.0000
# 6 0.0000 0.0000 0.0000 0.0032 0.0000 25.5798
#
#
#
# Elastic Compliance Matrix: (Units=1/GPa)
#
#
# Indices 1 2 3 4 5 6 
#
# 1 0.013533 -0.006013 -0.004423 0.000000 -0.000001 0.000000
# 2 -0.006013 0.013533 -0.004423 0.000000 0.000001 0.000000
# 3 -0.004423 -0.004423 0.025060 0.000000 0.000000 0.000000
# 4 0.000000 0.000000 0.000000 -0.018843 0.000000 0.000002
# 5 -0.000001 0.000001 0.000000 0.000000 -0.018843 0.000000
# 6 0.000000 0.000000 0.000000 0.000002 0.000000 0.039093
#
#
# Mechanical properties :
#
#
# Convention : Reuss Voigt Hill
#
# Bulk Modulus (GPa) = 44.62522 56.05047 50.33785
# Shear Modulus (GPa) = 55.11440 -5.99375 24.56033
#
# Velocity S-wave (km/s) = 5.40181 -1.78138 3.60598
# Velocity P-wave (km/s) = 7.90774 5.04421 6.63236
#
# Compressibility (1/GPa) = 0.02240885
#
# Stress axis : x y z
#
# Youngs Moduli (GPa) = 73.89112 73.89112 39.90501
#
# Poissons Ratio (x) = 0.44433 0.17649
# Poissons Ratio (y) = 0.44433 0.17649
# Poissons Ratio (z) = 0.32680 0.32680
#
# Static dielectric constant tensor:
#      x y z
#    x 1.641660 0.000000 0.000000 
#    y 0.000000 1.641660 0.000000 
#    z 0.000000 0.000000 1.696310 
# 
# From -- ./inp_files/737.got.cif
#   From: 2010.05.17/outbox.cif.g08.bks.cpg/sg187_1_cif.got.tgz:737.got - 2010.05.20 12:09:04.
