data_PCOD9585534
_publ_section_title
;
Structure prediction by ZEFSAII (Michael W. Deem and Ramdas Pophale) SiO2 
 PCOD9585534
Probable space group: P -6 M 2
;
_chemical_formula_sum "Si O2"
_cell_formula_units_Z 72
_cell_length_a 24.659676
_cell_length_b 24.659676
_cell_length_c 8.023618
_cell_angle_alpha 90.000000
_cell_angle_beta 90.000000
_cell_angle_gamma 120.000000
_cell_volume 4225.475695
_symmetry_space_group_name_H-M "P -6 M 2"
_symmetry_group_IT_number 187
_symmetry_cell_setting 'hexagonal'
loop_
_space_group_symop_operation_xyz
x,y,z
-x+y,-x,-z
-y,x-y,z
x,y,-z
-x+y,-x,z
-y,x-y,-z
-y,-x,-z
-x+y,y,-z
x,x-y,-z
-x+y,y,z
x,x-y,z
-y,-x,z
loop_
_atom_site_type_symbol
_atom_site_label
_atom_site_fract_x
_atom_site_fract_y
_atom_site_fract_z
Si Si1 0.819102 0.180899 0.307779
Si Si2 0.153536 0.967614 0.201384
Si Si3 0.675823 0.563478 0.801641
Si Si4 0.105311 0.774929 0.298874
Si Si5 0.890530 0.781060 0.198259
Si Si6 0.553103 0.446898 0.202894
Si Si7 0.480854 0.519147 0.695747
Si Si8 0.366431 0.966769 0.297003
O O1 0.827262 0.172738 0.500000
O O2 0.851264 0.254616 0.269688
O O3 0.853007 0.146993 0.219864
O O4 0.083043 0.916958 0.258431
O O5 0.196919 0.938728 0.250401
O O6 0.185108 0.038498 0.265293
O O7 0.151817 0.969164 0.000000
O O8 0.625846 0.491598 0.748818
O O9 0.643434 0.604652 0.757438
O O10 0.681759 0.562836 0.000000
O O11 0.107073 0.773208 0.500000
O O12 0.174883 0.825118 0.239257
O O13 0.075423 0.704283 0.237837
O O14 0.895937 0.791873 0.000000
O O15 0.518455 0.481546 0.280970
O O16 0.550204 0.449797 0.000000
O O17 0.473149 0.526852 0.500000
O O18 0.529539 0.587270 0.764569
O O19 0.367214 0.966962 0.500000
#
# Coordination Sequence:
#
# PCOD9585534 Si02
#       8
#     6  12  12  12   6   6   6  12
#     4  12  24  34  46  69  97 124 156 191 230 272
#     4   9  18  32  47  64  85 111 145 185 230 279
#     4  10  19  32  49  69  92 118 147 181 222 269
#     4   9  17  28  42  60  84 114 146 178 214 260
#     4  10  20  34  50  68  91 119 152 194 242 290
#     4   8  16  30  48  67  87 112 140 169 208 258
#     4   8  14  24  40  62  87 111 136 170 208 250
#     4   9  16  27  43  64  89 115 145 178 218 263
#
# _framework density 17.039501000000001
#
# number of rings (size 3 to 8) (size 9 to 14) (size 15 to 20)
#    0.000    2.667    0.000    2.250    0.000    4.667 
#    0.500    0.000    0.000    0.333    0.000    1.167 
#    0.833    0.000    2.500    0.000    0.000    0.000 
#
# Total GULP energy -400980.029264 kJ/mol
# GULP energy per Si atom -5569.167073 kJ/mol
# Density = 1.700072 g / cm^3
# Si number density = 17.039501 Si / 1000 Ang^3
#
#
#
# Elastic Constant Matrix: (Units=GPa)
#
#
# Indices 1 2 3 4 5 6 
#
# 1 114.0098 70.7686 -4.3941 0.0000 0.0005 0.0000
# 2 70.7686 114.0098 -4.3941 0.0000 -0.0005 0.0000
# 3 -4.3941 -4.3941 9.6967 0.0000 0.0000 0.0000
# 4 0.0000 0.0000 0.0000 3.8276 0.0000 -0.0005
# 5 0.0005 -0.0005 0.0000 0.0000 3.8276 0.0000
# 6 0.0000 0.0000 0.0000 -0.0005 0.0000 21.6206
#
#
#
# Elastic Compliance Matrix: (Units=1/GPa)
#
#
# Indices 1 2 3 4 5 6 
#
# 1 0.014329 -0.008798 0.002506 0.000000 -0.000003 0.000000
# 2 -0.008798 0.014329 0.002506 0.000000 0.000003 0.000000
# 3 0.002506 0.002506 0.105399 0.000000 0.000000 0.000000
# 4 0.000000 0.000000 0.000000 0.261259 0.000000 0.000006
# 5 -0.000003 0.000003 0.000000 0.000000 0.261259 0.000000
# 6 0.000000 0.000000 0.000000 0.000006 0.000000 0.046252
#
#
# Mechanical properties :
#
#
# Convention : Reuss Voigt Hill
#
# Bulk Modulus (GPa) = 7.90596 40.18637 24.04617
# Shear Modulus (GPa) = 6.64400 17.57088 12.10744
#
# Velocity S-wave (km/s) = 1.97677 3.21469 2.66851
# Velocity P-wave (km/s) = 3.14007 6.11673 4.86181
#
# Compressibility (1/GPa) = 0.12648679
#
# Stress axis : x y z
#
# Youngs Moduli (GPa) = 69.79047 69.79047 9.48776
#
# Poissons Ratio (x) = 0.61398 -0.02378
# Poissons Ratio (y) = 0.61398 -0.02378
# Poissons Ratio (z) = -0.17492 -0.17492
#
# Static dielectric constant tensor:
#      x y z
#    x 1.594190 0.000000 0.000000 
#    y 0.000000 1.594190 0.000000 
#    z 0.000000 0.000000 1.604050 
# 
# From -- ./inp_files/1131.got.cif
#   From: 2010.05.17/outbox.cif.g08.bks.cpg/sg187_1_cif.got.tgz:1131.got - 2010.05.20 12:09:04.
