data_PCOD9585144
_publ_section_title
;
Structure prediction by ZEFSAII (Michael W. Deem and Ramdas Pophale) SiO2 
 PCOD9585144
Probable space group: P 6 C C
;
_chemical_formula_sum "Si O2"
_cell_formula_units_Z 66
_cell_length_a 19.028499
_cell_length_b 19.028499
_cell_length_c 9.234033
_cell_angle_alpha 90.000000
_cell_angle_beta 90.000000
_cell_angle_gamma 120.000000
_cell_volume 2895.550325
_symmetry_space_group_name_H-M "P 6 C C"
_symmetry_group_IT_number 184
_symmetry_cell_setting 'hexagonal'
loop_
_space_group_symop_operation_xyz
x,y,z
x-y,x,z
-y,x-y,z
-x,-y,z
-x+y,-x,z
y,-x+y,z
-x+y,y,1/2+z
x,x-y,1/2+z
-y,-x,1/2+z
y,x,1/2+z
x-y,-y,1/2+z
-x,-x+y,1/2+z
loop_
_atom_site_type_symbol
_atom_site_label
_atom_site_fract_x
_atom_site_fract_y
_atom_site_fract_z
Si Si1 0.483051 0.891544 0.429630
Si Si2 0.308574 0.875670 0.463716
Si Si3 0.500000 0.000000 0.180486
Si Si4 0.828288 0.251069 0.286889
Si Si5 0.981794 0.256632 0.434134
Si Si6 0.816066 0.852874 0.197110
O O1 0.390965 0.873423 0.436353
O O2 0.521612 0.948743 0.288984
O O3 0.515668 0.941379 0.577809
O O4 0.505863 0.824175 0.391558
O O5 0.250467 0.831460 0.329297
O O6 0.272034 0.833773 0.618257
O O7 0.313456 0.962430 0.472694
O O8 0.907191 0.246579 0.337179
O O9 0.034840 0.225748 0.347076
O O10 0.950717 0.199649 0.574240
O O11 0.894889 0.841588 0.186104
#
# Coordination Sequence:
#
# PCOD9585144 Si02
#       6
#    12  12   6  12  12  12
#     4  11  24  44  70 108 142 182 232 294 354 436
#     4  12  28  47  74 107 142 191 238 295 363 431
#     4  10  20  40  72  98 138 178 228 282 350 406
#     4  12  28  47  74 107 142 191 238 295 363 431
#     4  12  26  45  69 104 146 182 242 308 360 416
#     4  12  25  45  70 101 143 196 246 300 356 425
#
# _framework density 22.793593999999999
#
# number of rings (size 3 to 8) (size 9 to 14) (size 15 to 20)
#    0.000    0.364    3.636    5.636    5.091    0.000 
#    1.091    1.818    0.000    0.000    0.000    0.000 
#    0.000    0.000    0.000    0.000    0.000    0.000 
#
# Total GULP energy -369320.876441 kJ/mol
# GULP energy per Si atom -5595.770855 kJ/mol
# Density = 2.274172 g / cm^3
# Si number density = 22.793594 Si / 1000 Ang^3
#
#
#
# Elastic Constant Matrix: (Units=GPa)
#
#
# Indices 1 2 3 4 5 6 
#
# 1 89.5122 29.9898 5.9179 0.0000 0.0000 0.0000
# 2 29.9898 89.5122 5.9179 0.0000 0.0000 0.0000
# 3 5.9179 5.9179 109.8046 0.0000 0.0000 0.0000
# 4 0.0000 0.0000 0.0000 25.5172 0.0000 0.0000
# 5 0.0000 0.0000 0.0000 0.0000 25.5172 0.0000
# 6 0.0000 0.0000 0.0000 0.0000 0.0000 29.7612
#
#
#
# Elastic Compliance Matrix: (Units=1/GPa)
#
#
# Indices 1 2 3 4 5 6 
#
# 1 0.012607 -0.004194 -0.000453 0.000000 0.000000 0.000000
# 2 -0.004194 0.012607 -0.000453 0.000000 0.000000 0.000000
# 3 -0.000453 -0.000453 0.009156 0.000000 0.000000 0.000000
# 4 0.000000 0.000000 0.000000 0.039189 0.000000 0.000000
# 5 0.000000 0.000000 0.000000 0.000000 0.039189 0.000000
# 6 0.000000 0.000000 0.000000 0.000000 0.000000 0.033601
#
#
# Mechanical properties :
#
#
# Convention : Reuss Voigt Hill
#
# Bulk Modulus (GPa) = 41.37665 41.38671 41.38168
# Shear Modulus (GPa) = 30.37562 32.62603 31.50083
#
# Velocity S-wave (km/s) = 3.65449 3.78745 3.72156
# Velocity P-wave (km/s) = 5.99994 6.10925 6.05484
#
# Compressibility (1/GPa) = 0.02416822
#
# Stress axis : x y z
#
# Youngs Moduli (GPa) = 79.32308 79.32308 109.21850
#
# Poissons Ratio (x) = 0.33266 0.04952
# Poissons Ratio (y) = 0.33266 0.04952
# Poissons Ratio (z) = 0.03597 0.03597
#
# Static dielectric constant tensor:
#      x y z
#    x 1.894310 0.000000 0.000000 
#    y 0.000000 1.894310 0.000000 
#    z 0.000000 0.000000 1.826820 
# 
# From -- ./inp_files/301.got.cif
#   From: 2010.05.17/outbox.cif.g08.bks.cpg/sg184_cif.got.tgz:301.got - 2010.05.20 12:04:40.
