data_PCOD9585597
_publ_section_title
;
Structure prediction by ZEFSAII (Michael W. Deem and Ramdas Pophale) SiO2 
 PCOD9585597
Probable space group: P -6 M 2
;
_chemical_formula_sum "Si O2"
_cell_formula_units_Z 66
_cell_length_a 13.537688
_cell_length_b 13.537688
_cell_length_c 27.879279
_cell_angle_alpha 90.000000
_cell_angle_beta 90.000000
_cell_angle_gamma 120.000000
_cell_volume 4424.876678
_symmetry_space_group_name_H-M "P -6 M 2"
_symmetry_group_IT_number 187
_symmetry_cell_setting 'hexagonal'
loop_
_space_group_symop_operation_xyz
x,y,z
-x+y,-x,-z
-y,x-y,z
x,y,-z
-x+y,-x,z
-y,x-y,-z
-y,-x,-z
-x+y,y,-z
x,x-y,-z
-x+y,y,z
x,x-y,z
-y,-x,z
loop_
_atom_site_type_symbol
_atom_site_label
_atom_site_fract_x
_atom_site_fract_y
_atom_site_fract_z
Si Si1 0.333585 0.432989 0.871064
Si Si2 0.232547 0.000213 0.575693
Si Si3 0.566578 0.666314 0.760178
Si Si4 0.233658 0.233259 0.055720
Si Si5 0.570663 0.903494 0.500000
Si Si6 0.999000 0.768149 0.310963
O O1 0.228475 0.456950 0.876746
O O2 0.452144 0.547857 0.879478
O O3 0.331006 0.397334 0.815583
O O4 0.311073 0.333826 0.908006
O O5 0.243638 0.121819 0.563078
O O6 0.311372 0.965935 0.545122
O O7 0.256484 0.001366 0.632398
O O8 0.102237 0.897763 0.567407
O O9 0.543124 0.771562 0.754570
O O10 0.451642 0.548359 0.751981
O O11 0.664157 0.687432 0.722691
O O12 0.104746 0.209491 0.061697
O O13 0.237763 0.118882 0.064850
O O14 0.265363 0.266709 0.000000
O O15 0.454548 0.909095 0.500000
O O16 0.543975 0.771988 0.500000
O O17 0.103841 0.896160 0.303326
O O18 0.880943 0.761885 0.299212
#
# Coordination Sequence:
#
# PCOD9585597 Si02
#       6
#    12  12  12  12   6  12
#     4   9  17  29  45  65  89 116 146 181 220 259
#     4   9  17  30  49  71  92 115 145 183 224 263
#     4   9  17  29  45  65  89 118 150 182 216 256
#     4   9  17  29  45  65  89 116 144 175 214 262
#     4  10  20  32  46  66  94 124 150 178 216 262
#     4   9  17  29  46  69  95 119 143 176 221 267
#
# _framework density 14.91567
#
# number of rings (size 3 to 8) (size 9 to 14) (size 15 to 20)
#    0.000    2.909    0.000    1.273    0.000    5.455 
#    0.000    0.909    0.000    7.636    0.000    0.000 
#    0.000    0.000    0.000    0.000    0.000    0.000 
#
# Total GULP energy -367659.932508 kJ/mol
# GULP energy per Si atom -5570.605038 kJ/mol
# Density = 1.488172 g / cm^3
# Si number density = 14.915670 Si / 1000 Ang^3
#
#
#
# Elastic Constant Matrix: (Units=GPa)
#
#
# Indices 1 2 3 4 5 6 
#
# 1 101.2186 59.9703 74.2972 0.0000 0.0000 0.0000
# 2 59.9703 101.2186 74.2972 0.0000 0.0000 0.0000
# 3 74.2972 74.2972 93.5911 0.0000 0.0000 0.0000
# 4 0.0000 0.0000 0.0000 25.4496 0.0000 0.0000
# 5 0.0000 0.0000 0.0000 0.0000 25.4496 0.0000
# 6 0.0000 0.0000 0.0000 0.0000 0.0000 20.6241
#
#
#
# Elastic Compliance Matrix: (Units=1/GPa)
#
#
# Indices 1 2 3 4 5 6 
#
# 1 0.023688 -0.000555 -0.018364 0.000000 0.000000 0.000000
# 2 -0.000555 0.023688 -0.018364 0.000000 0.000000 0.000000
# 3 -0.018364 -0.018364 0.039842 0.000000 0.000000 0.000000
# 4 0.000000 0.000000 0.000000 0.039293 0.000000 0.000000
# 5 0.000000 0.000000 0.000000 0.000000 0.039293 0.000000
# 6 0.000000 0.000000 0.000000 0.000000 0.000000 0.048487
#
#
# Mechanical properties :
#
#
# Convention : Reuss Voigt Hill
#
# Bulk Modulus (GPa) = 79.04489 79.23976 79.14233
# Shear Modulus (GPa) = 17.06034 20.13556 18.59795
#
# Velocity S-wave (km/s) = 3.38566 3.67817 3.53494
# Velocity P-wave (km/s) = 8.27002 8.44269 8.35680
#
# Compressibility (1/GPa) = 0.01265104
#
# Stress axis : x y z
#
# Youngs Moduli (GPa) = 42.21470 42.21470 25.09915
#
# Poissons Ratio (x) = 0.02343 0.46093
# Poissons Ratio (y) = 0.02343 0.46093
# Poissons Ratio (z) = 0.77525 0.77525
#
# Static dielectric constant tensor:
#      x y z
#    x 1.467080 0.000000 0.000000 
#    y 0.000000 1.467080 0.000000 
#    z 0.000000 0.000000 1.508270 
# 
# From -- ./inp_files/4468.got.cif
#   From: 2010.05.17/outbox.cif.g08.bks.cpg/sg187_3_cif.got.tgz:4468.got - 2010.05.20 12:09:04.
