data_PCOD9585763
_publ_section_title
;
Structure prediction by ZEFSAII (Michael W. Deem and Ramdas Pophale) SiO2 
 PCOD9585763
Probable space group: P -6 M 2
;
_chemical_formula_sum "Si O2"
_cell_formula_units_Z 84
_cell_length_a 17.671849
_cell_length_b 17.671849
_cell_length_c 15.032810
_cell_angle_alpha 90.000000
_cell_angle_beta 90.000000
_cell_angle_gamma 120.000000
_cell_volume 4065.694892
_symmetry_space_group_name_H-M "P -6 M 2"
_symmetry_group_IT_number 187
_symmetry_cell_setting 'hexagonal'
loop_
_space_group_symop_operation_xyz
x,y,z
-x+y,-x,-z
-y,x-y,z
x,y,-z
-x+y,-x,z
-y,x-y,-z
-y,-x,-z
-x+y,y,-z
x,x-y,-z
-x+y,y,z
x,x-y,z
-y,-x,z
loop_
_atom_site_type_symbol
_atom_site_label
_atom_site_fract_x
_atom_site_fract_y
_atom_site_fract_z
Si Si1 0.492586 0.156786 0.766968
Si Si2 0.508511 0.666996 0.859194
Si Si3 0.958368 0.361940 0.402049
Si Si4 0.976201 0.655407 0.102348
Si Si5 0.159980 0.492998 0.356388
Si Si6 0.218952 0.020660 0.403539
Si Si7 0.822055 0.825892 0.205180
O O1 0.591025 0.182050 0.788871
O O2 0.484011 0.242006 0.752411
O O3 0.463629 0.096218 0.678990
O O4 0.427074 0.097162 0.844125
O O5 0.515312 0.757656 0.887924
O O6 0.416180 0.583821 0.885094
O O7 0.588507 0.656306 0.892086
O O8 0.512203 0.668464 0.751186
O O9 0.934004 0.378287 0.500000
O O10 0.941843 0.263976 0.399808
O O11 0.062706 0.425356 0.389651
O O12 0.989706 0.742065 0.151364
O O13 0.951803 0.654220 0.000000
O O14 0.237881 0.475762 0.385513
O O15 0.180905 0.590453 0.381158
O O16 0.190556 0.974782 0.500000
O O17 0.198630 0.099315 0.405434
O O18 0.185023 0.976580 0.308484
O O19 0.915489 0.830978 0.202487
O O20 0.828291 0.914146 0.170122
#
# Coordination Sequence:
#
# PCOD9585763 Si02
#       7
#    12  12  12  12  12  12  12
#     4  12  26  47  72 100 131 165 207 263 330 397
#     4  10  20  37  63  97 135 173 215 265 321 379
#     4  11  22  38  65  97 131 171 217 264 314 377
#     4  12  26  45  70  96 126 169 221 272 323 387
#     4  10  20  36  58  88 128 176 225 271 316 367
#     4   9  18  35  61  93 128 166 209 259 316 378
#     4  11  23  41  65  96 132 172 219 274 334 393
#
# _framework density 20.660675000000001
#
# number of rings (size 3 to 8) (size 9 to 14) (size 15 to 20)
#    0.000    1.286    2.857    2.714    0.000    8.857 
#    0.000    1.429    0.000    5.143    0.000    0.000 
#    0.000    0.000    0.000    0.000    0.000    0.000 
#
# Total GULP energy -469436.396888 kJ/mol
# GULP energy per Si atom -5588.528534 kJ/mol
# Density = 2.061365 g / cm^3
# Si number density = 20.660675 Si / 1000 Ang^3
#
#
#
# Elastic Constant Matrix: (Units=GPa)
#
#
# Indices 1 2 3 4 5 6 
#
# 1 88.7058 61.3822 49.0015 0.0000 -0.0008 0.0000
# 2 61.3822 88.7058 49.0015 0.0000 0.0008 0.0000
# 3 49.0015 49.0015 139.4343 0.0000 0.0000 0.0000
# 4 0.0000 0.0000 0.0000 -8.6732 0.0000 0.0008
# 5 -0.0008 0.0008 0.0000 0.0000 -8.6732 0.0000
# 6 0.0000 0.0000 0.0000 0.0008 0.0000 13.6618
#
#
#
# Elastic Compliance Matrix: (Units=1/GPa)
#
#
# Indices 1 2 3 4 5 6 
#
# 1 0.022623 -0.013976 -0.003039 0.000000 -0.000003 0.000000
# 2 -0.013976 0.022623 -0.003039 0.000000 0.000003 0.000000
# 3 -0.003039 -0.003039 0.009308 0.000000 0.000000 0.000000
# 4 0.000000 0.000000 0.000000 -0.115297 0.000000 0.000007
# 5 -0.000003 0.000003 0.000000 0.000000 -0.115297 0.000000
# 6 0.000000 0.000000 0.000000 0.000007 0.000000 0.073197
#
#
# Mechanical properties :
#
#
# Convention : Reuss Voigt Hill
#
# Bulk Modulus (GPa) = 69.22119 70.62403 69.92261
# Shear Modulus (GPa) = -86.32277 9.76044 -38.28117
#
# Velocity S-wave (km/s) = -6.47085 2.17587 -4.30915
# Velocity P-wave (km/s) = 4.71727 6.36943 3.02630
#
# Compressibility (1/GPa) = 0.01444644
#
# Stress axis : x y z
#
# Youngs Moduli (GPa) = 44.20333 44.20333 107.43781
#
# Poissons Ratio (x) = 0.61777 0.32649
# Poissons Ratio (y) = 0.61777 0.32649
# Poissons Ratio (z) = 0.13433 0.13433
#
# Static dielectric constant tensor:
#      x y z
#    x 1.730040 0.000000 0.000000 
#    y 0.000000 1.730040 0.000000 
#    z 0.000000 0.000000 1.755310 
# 
# From -- ./inp_files/2621.got.cif
#   From: 2010.05.17/outbox.cif.g08.bks.cpg/sg187_2_cif.got.tgz:2621.got - 2010.05.20 12:09:04.
