data_PCOD9585304
_publ_section_title
;
Structure prediction by ZEFSAII (Michael W. Deem and Ramdas Pophale) SiO2 
 PCOD9585304
Probable space group: P 63 C M
;
_chemical_formula_sum "Si O2"
_cell_formula_units_Z 72
_cell_length_a 23.971634
_cell_length_b 23.971634
_cell_length_c 8.683940
_cell_angle_alpha 90.000000
_cell_angle_beta 90.000000
_cell_angle_gamma 120.000000
_cell_volume 4321.581645
_symmetry_space_group_name_H-M "P 63 C M"
_symmetry_group_IT_number 185
_symmetry_cell_setting 'hexagonal'
loop_
_space_group_symop_operation_xyz
x,y,z
x-y,x,1/2+z
-y,x-y,z
-x,-y,1/2+z
-x+y,-x,z
y,-x+y,1/2+z
-x+y,y,1/2+z
x,x-y,1/2+z
-y,-x,1/2+z
y,x,z
x-y,-y,z
-x,-x+y,z
loop_
_atom_site_type_symbol
_atom_site_label
_atom_site_fract_x
_atom_site_fract_y
_atom_site_fract_z
Si Si1 0.072082 0.774930 0.154810
Si Si2 0.579437 0.654449 0.779998
Si Si3 0.769045 0.456455 0.618972
Si Si4 0.398083 0.138682 0.063469
Si Si5 0.864148 0.676163 0.849700
Si Si6 0.440764 0.798254 0.268477
O O1 0.085472 0.715059 0.175594
O O2 0.120516 0.833405 0.261094
O O3 0.000000 0.747683 0.207326
O O4 0.082722 0.795598 0.977712
O O5 0.598757 0.598757 0.763186
O O6 0.505967 0.637863 0.748758
O O7 0.596361 0.684305 0.953053
O O8 0.812873 0.532664 0.631050
O O9 0.697684 0.440250 0.663250
O O10 0.796653 0.421591 0.726942
O O11 0.775884 0.439519 0.443499
O O12 0.352204 0.113292 0.211177
O O13 0.375946 0.178723 0.952036
#
# Coordination Sequence:
#
# PCOD9585304 Si02
#       6
#    12  12  12  12  12  12
#     4   9  17  29  47  71  99 132 167 201 242 291
#     4   9  19  35  52  71  97 129 162 201 249 299
#     4  11  21  34  50  70  92 121 156 200 252 296
#     4   9  17  30  50  69  93 124 159 193 236 296
#     4   9  16  29  49  73  98 128 160 197 237 286
#     4  11  22  35  52  72  97 122 158 206 251 302
#
# _framework density 16.660567
#
# number of rings (size 3 to 8) (size 9 to 14) (size 15 to 20)
#    0.000    2.333    0.000    5.333    0.000    2.000 
#    0.000    5.833    0.000    0.000    0.000    0.000 
#    0.000    0.000    0.000    5.000    0.000    0.000 
#
# Total GULP energy -401037.045214 kJ/mol
# GULP energy per Si atom -5569.958961 kJ/mol
# Density = 1.662265 g / cm^3
# Si number density = 16.660567 Si / 1000 Ang^3
#
#
#
# Elastic Constant Matrix: (Units=GPa)
#
#
# Indices 1 2 3 4 5 6 
#
# 1 29.5277 18.7923 6.8274 0.0000 0.0000 0.0000
# 2 18.7923 29.5277 6.8274 0.0000 0.0000 0.0000
# 3 6.8274 6.8274 59.4223 0.0000 0.0000 0.0000
# 4 0.0000 0.0000 0.0000 4.9233 0.0000 0.0000
# 5 0.0000 0.0000 0.0000 0.0000 4.9233 0.0000
# 6 0.0000 0.0000 0.0000 0.0000 0.0000 5.3677
#
#
#
# Elastic Compliance Matrix: (Units=1/GPa)
#
#
# Indices 1 2 3 4 5 6 
#
# 1 0.057270 -0.035880 -0.002458 0.000000 0.000000 0.000000
# 2 -0.035880 0.057270 -0.002458 0.000000 0.000000 0.000000
# 3 -0.002458 -0.002458 0.017393 0.000000 0.000000 0.000000
# 4 0.000000 0.000000 0.000000 0.203116 0.000000 0.000000
# 5 0.000000 0.000000 0.000000 0.000000 0.203116 0.000000
# 6 0.000000 0.000000 0.000000 0.000000 0.000000 0.186300
#
#
# Mechanical properties :
#
#
# Convention : Reuss Voigt Hill
#
# Bulk Modulus (GPa) = 19.86385 20.37465 20.11925
# Shear Modulus (GPa) = 6.07654 8.77823 7.42738
#
# Velocity S-wave (km/s) = 1.91185 2.29789 2.11370
# Velocity P-wave (km/s) = 4.10148 4.39275 4.24961
#
# Compressibility (1/GPa) = 0.05034272
#
# Stress axis : x y z
#
# Youngs Moduli (GPa) = 17.46118 17.46118 57.49291
#
# Poissons Ratio (x) = 0.62651 0.14130
# Poissons Ratio (y) = 0.62651 0.14130
# Poissons Ratio (z) = 0.04291 0.04291
#
# Static dielectric constant tensor:
#      x y z
#    x 1.566660 0.000000 0.000000 
#    y 0.000000 1.566660 0.000000 
#    z 0.000000 0.000000 1.583120 
# 
# From -- ./inp_files/612.got.cif
#   From: 2010.05.17/outbox.cif.g08.bks.cpg/sg185_cif.got.tgz:612.got - 2010.05.20 12:05:34.
