data_PCOD9585453
_publ_section_title
;
Structure prediction by ZEFSAII (Michael W. Deem and Ramdas Pophale) SiO2 
 PCOD9585453
Probable space group: P -6 M 2
;
_chemical_formula_sum "Si O2"
_cell_formula_units_Z 84
_cell_length_a 17.705600
_cell_length_b 17.705600
_cell_length_c 15.870731
_cell_angle_alpha 90.000000
_cell_angle_beta 90.000000
_cell_angle_gamma 120.000000
_cell_volume 4308.725822
_symmetry_space_group_name_H-M "P -6 M 2"
_symmetry_group_IT_number 187
_symmetry_cell_setting 'hexagonal'
loop_
_space_group_symop_operation_xyz
x,y,z
-x+y,-x,-z
-y,x-y,z
x,y,-z
-x+y,-x,z
-y,x-y,-z
-y,-x,-z
-x+y,y,-z
x,x-y,-z
-x+y,y,z
x,x-y,z
-y,-x,z
loop_
_atom_site_type_symbol
_atom_site_label
_atom_site_fract_x
_atom_site_fract_y
_atom_site_fract_z
Si Si1 0.824274 0.823483 0.230896
Si Si2 0.990847 0.408879 0.357232
Si Si3 0.841952 0.509786 0.779777
Si Si4 0.226744 0.951222 0.591737
Si Si5 0.331675 0.050288 0.098377
Si Si6 0.304240 0.444125 0.090543
Si Si7 0.493135 0.665787 0.730118
O O1 0.814186 0.907093 0.210667
O O2 0.778947 0.787830 0.322364
O O3 0.780781 0.749243 0.158888
O O4 0.924738 0.849476 0.237300
O O5 0.986390 0.493195 0.393722
O O6 0.904275 0.352755 0.301914
O O7 0.018215 0.348125 0.409116
O O8 0.073109 0.450767 0.294532
O O9 0.744704 0.489409 0.761239
O O10 0.844683 0.422342 0.801209
O O11 0.879867 0.580275 0.855103
O O12 0.209413 0.979983 0.500000
O O13 0.152631 0.847370 0.596100
O O14 0.333113 0.960156 0.098026
O O15 0.323990 0.070534 0.000000
O O16 0.198841 0.397682 0.093180
O O17 0.334440 0.506140 0.169512
O O18 0.332192 0.487793 0.000000
O O19 0.528092 0.764046 0.701831
O O20 0.396701 0.603300 0.696615
#
# Coordination Sequence:
#
# PCOD9585453 Si02
#       7
#    12  12  12  12  12  12  12
#     4  11  23  40  61  88 125 165 204 246 293 350
#     4  10  20  35  58  86 115 151 200 249 299 360
#     4  11  23  40  60  85 116 153 197 251 314 376
#     4  10  21  38  62  92 125 161 199 244 300 358
#     4  11  22  37  61  88 116 154 203 251 297 353
#     4   9  17  29  46  70 102 141 185 234 284 330
#     4  10  18  29  46  72 106 145 186 232 284 343
#
# _framework density 19.495322999999999
#
# number of rings (size 3 to 8) (size 9 to 14) (size 15 to 20)
#    0.000    1.714    2.857    1.714    0.000    5.429 
#    0.000    1.429    0.000    3.714    0.000    0.000 
#    0.000    1.143    0.000    0.000    0.000    0.000 
#
# Total GULP energy -467651.421567 kJ/mol
# GULP energy per Si atom -5567.278828 kJ/mol
# Density = 1.945095 g / cm^3
# Si number density = 19.495323 Si / 1000 Ang^3
#
#
#
# Elastic Constant Matrix: (Units=GPa)
#
#
# Indices 1 2 3 4 5 6 
#
# 1 93.6013 49.8749 37.9768 0.0000 0.0001 0.0000
# 2 49.8749 93.6013 37.9768 0.0000 -0.0001 0.0000
# 3 37.9768 37.9768 108.8278 0.0000 0.0000 0.0000
# 4 0.0000 0.0000 0.0000 8.5998 0.0000 -0.0001
# 5 0.0001 -0.0001 0.0000 0.0000 8.5998 0.0000
# 6 0.0000 0.0000 0.0000 -0.0001 0.0000 21.8632
#
#
#
# Elastic Compliance Matrix: (Units=1/GPa)
#
#
# Indices 1 2 3 4 5 6 
#
# 1 0.015709 -0.007160 -0.002983 0.000000 0.000000 0.000000
# 2 -0.007160 0.015709 -0.002983 0.000000 0.000000 0.000000
# 3 -0.002983 -0.002983 0.011271 0.000000 0.000000 0.000000
# 4 0.000000 0.000000 0.000000 0.116282 0.000000 0.000000
# 5 0.000000 0.000000 0.000000 0.000000 0.116282 0.000000
# 6 0.000000 0.000000 0.000000 0.000000 0.000000 0.045739
#
#
# Mechanical properties :
#
#
# Convention : Reuss Voigt Hill
#
# Bulk Modulus (GPa) = 60.84240 60.85417 60.84829
# Shear Modulus (GPa) = 14.17533 19.15934 16.66734
#
# Velocity S-wave (km/s) = 2.69943 3.13831 2.92711
# Velocity P-wave (km/s) = 6.40253 6.66442 6.53479
#
# Compressibility (1/GPa) = 0.01643591
#
# Stress axis : x y z
#
# Youngs Moduli (GPa) = 63.65662 63.65662 88.72361
#
# Poissons Ratio (x) = 0.45579 0.26469
# Poissons Ratio (y) = 0.45579 0.26469
# Poissons Ratio (z) = 0.18991 0.18991
#
# Static dielectric constant tensor:
#      x y z
#    x 1.693210 0.000000 0.000000 
#    y 0.000000 1.693210 0.000000 
#    z 0.000000 0.000000 1.694970 
# 
# From -- ./inp_files/2593.got.cif
#   From: 2010.05.17/outbox.cif.g08.bks.cpg/sg187_2_cif.got.tgz:2593.got - 2010.05.20 12:09:04.
