data_PCOD9585654
_publ_section_title
;
Structure prediction by ZEFSAII (Michael W. Deem and Ramdas Pophale) SiO2 
 PCOD9585654
Probable space group: P -6 M 2
;
_chemical_formula_sum "Si O2"
_cell_formula_units_Z 54
_cell_length_a 12.885162
_cell_length_b 12.885162
_cell_length_c 23.761877
_cell_angle_alpha 90.000000
_cell_angle_beta 90.000000
_cell_angle_gamma 120.000000
_cell_volume 3416.576438
_symmetry_space_group_name_H-M "P -6 M 2"
_symmetry_group_IT_number 187
_symmetry_cell_setting 'hexagonal'
loop_
_space_group_symop_operation_xyz
x,y,z
-x+y,-x,-z
-y,x-y,z
x,y,-z
-x+y,-x,z
-y,x-y,-z
-y,-x,-z
-x+y,y,-z
x,x-y,-z
-x+y,y,z
x,x-y,z
-y,-x,z
loop_
_atom_site_type_symbol
_atom_site_label
_atom_site_fract_x
_atom_site_fract_y
_atom_site_fract_z
Si Si1 0.420563 0.333197 0.166263
Si Si2 0.333402 0.913341 0.271853
Si Si3 0.420671 0.088202 0.500000
Si Si4 0.578064 0.911201 0.934572
Si Si5 0.914796 0.332385 0.376226
O O1 0.414997 0.207499 0.171680
O O2 0.557898 0.442103 0.166695
O O3 0.355713 0.358291 0.217970
O O4 0.361396 0.344548 0.108623
O O5 0.442738 0.885476 0.272493
O O6 0.207557 0.792444 0.269128
O O7 0.347361 0.990031 0.327706
O O8 0.541766 0.083532 0.500000
O O9 0.451099 0.225550 0.500000
O O10 0.363580 0.039184 0.561084
O O11 0.441075 0.882149 0.927580
O O12 0.585604 0.792802 0.922586
O O13 0.610578 0.944578 0.000000
O O14 0.893320 0.446660 0.375689
O O15 0.789427 0.210574 0.366276
#
# Coordination Sequence:
#
# PCOD9585654 Si02
#       5
#    12  12   6  12  12
#     4  10  20  33  50  72  97 123 151 187 233 283
#     4  10  20  33  49  68  91 120 154 192 232 275
#     4   8  13  22  39  66  96 122 148 180 222 270
#     4   9  17  30  50  75 100 126 157 193 229 264
#     4   9  16  27  46  71  97 122 149 185 229 275
#
# _framework density 15.805296
#
# number of rings (size 3 to 8) (size 9 to 14) (size 15 to 20)
#    0.000    2.667    0.000    2.333    0.000    3.111 
#    0.000    5.000    0.000    9.333    0.000    1.556 
#    0.000    0.000    0.000    0.000    0.000    0.000 
#
# Total GULP energy -300830.000906 kJ/mol
# GULP energy per Si atom -5570.925943 kJ/mol
# Density = 1.576932 g / cm^3
# Si number density = 15.805296 Si / 1000 Ang^3
#
#
#
# Elastic Constant Matrix: (Units=GPa)
#
#
# Indices 1 2 3 4 5 6 
#
# 1 93.5786 63.5275 73.8907 0.0000 -0.0002 0.0000
# 2 63.5275 93.5786 73.8907 0.0000 0.0002 0.0000
# 3 73.8907 73.8907 121.7444 0.0000 0.0000 0.0000
# 4 0.0000 0.0000 0.0000 18.9118 0.0000 0.0002
# 5 -0.0002 0.0002 0.0000 0.0000 18.9118 0.0000
# 6 0.0000 0.0000 0.0000 0.0002 0.0000 15.0256
#
#
#
# Elastic Compliance Matrix: (Units=1/GPa)
#
#
# Indices 1 2 3 4 5 6 
#
# 1 0.024055 -0.009221 -0.009003 0.000000 0.000000 0.000000
# 2 -0.009221 0.024055 -0.009003 0.000000 0.000000 0.000000
# 3 -0.009003 -0.009003 0.019143 0.000000 0.000000 0.000000
# 4 0.000000 0.000000 0.000000 0.052877 0.000000 -0.000001
# 5 0.000000 0.000000 0.000000 0.000000 0.052877 0.000000
# 6 0.000000 0.000000 0.000000 -0.000001 0.000000 0.066553
#
#
# Mechanical properties :
#
#
# Convention : Reuss Voigt Hill
#
# Bulk Modulus (GPa) = 78.13916 81.27994 79.70955
# Shear Modulus (GPa) = 16.76267 17.07603 16.91935
#
# Velocity S-wave (km/s) = 3.26018 3.29051 3.27538
# Velocity P-wave (km/s) = 7.98233 8.12244 8.05269
#
# Compressibility (1/GPa) = 0.01279768
#
# Stress axis : x y z
#
# Youngs Moduli (GPa) = 41.57087 41.57087 52.23943
#
# Poissons Ratio (x) = 0.38334 0.47032
# Poissons Ratio (y) = 0.38334 0.47032
# Poissons Ratio (z) = 0.37427 0.37427
#
# Static dielectric constant tensor:
#      x y z
#    x 1.493250 0.000000 0.000000 
#    y 0.000000 1.493250 0.000000 
#    z 0.000000 0.000000 1.567440 
# 
# From -- ./inp_files/3847.got.cif
#   From: 2010.05.17/outbox.cif.g08.bks.cpg/sg187_2_cif.got.tgz:3847.got - 2010.05.20 12:09:04.
