data_PCOD9585787
_publ_section_title
;
Structure prediction by ZEFSAII (Michael W. Deem and Ramdas Pophale) SiO2 
 PCOD9585787
Probable space group: P -6 M 2
;
_chemical_formula_sum "Si O2"
_cell_formula_units_Z 84
_cell_length_a 17.629306
_cell_length_b 17.629306
_cell_length_c 16.061909
_cell_angle_alpha 90.000000
_cell_angle_beta 90.000000
_cell_angle_gamma 120.000000
_cell_volume 4323.129299
_symmetry_space_group_name_H-M "P -6 M 2"
_symmetry_group_IT_number 187
_symmetry_cell_setting 'hexagonal'
loop_
_space_group_symop_operation_xyz
x,y,z
-x+y,-x,-z
-y,x-y,z
x,y,-z
-x+y,-x,z
-y,x-y,-z
-y,-x,-z
-x+y,y,-z
x,x-y,-z
-x+y,y,z
x,x-y,z
-y,-x,z
loop_
_atom_site_type_symbol
_atom_site_label
_atom_site_fract_x
_atom_site_fract_y
_atom_site_fract_z
Si Si1 0.175899 0.998863 0.158786
Si Si2 0.608667 0.038734 0.761090
Si Si3 0.330462 0.486733 0.228793
Si Si4 0.907456 0.633694 0.908737
Si Si5 0.905560 0.630065 0.406105
Si Si6 0.507014 0.837925 0.586417
Si Si7 0.825914 0.826998 0.358690
O O1 0.093092 0.906909 0.134381
O O2 0.157650 0.078825 0.142465
O O3 0.265897 0.022146 0.114480
O O4 0.187925 0.997512 0.258920
O O5 0.522225 0.044449 0.748337
O O6 0.671635 0.099630 0.833095
O O7 0.658640 0.062821 0.672261
O O8 0.573626 0.941725 0.802747
O O9 0.241113 0.482225 0.198248
O O10 0.411757 0.588244 0.228341
O O11 0.312354 0.450901 0.324288
O O12 0.816522 0.633043 0.912358
O O13 0.926197 0.610073 0.000000
O O14 0.909755 0.598518 0.500000
O O15 0.806389 0.612777 0.392967
O O16 0.967263 0.735016 0.402830
O O17 0.558465 0.871688 0.500000
O O18 0.430573 0.861145 0.586547
O O19 0.465995 0.732998 0.584859
O O20 0.927242 0.854483 0.371999
O O21 0.808558 0.904279 0.384160
#
# Coordination Sequence:
#
# PCOD9585787 Si02
#       7
#    12  12  12  12  12  12  12
#     4   9  16  28  50  82 121 161 198 232 265 308
#     4  11  23  38  58  85 112 140 180 230 286 342
#     4   9  18  31  48  71 103 145 189 230 270 312
#     4  10  21  39  63  87 112 145 181 219 275 346
#     4  10  21  38  59  81 110 151 192 228 276 340
#     4   8  12  19  33  54  82 119 165 214 259 299
#     4   9  16  28  49  79 117 160 203 241 272 308
#
# _framework density 19.430368999999999
#
# number of rings (size 3 to 8) (size 9 to 14) (size 15 to 20)
#    0.000    2.571    1.429    1.000    0.000    5.714 
#    0.000    1.429    0.000    4.000    0.000    0.000 
#    0.000    1.143    0.000    0.000    0.000    0.000 
#
# Total GULP energy -467671.191108 kJ/mol
# GULP energy per Si atom -5567.514180 kJ/mol
# Density = 1.938614 g / cm^3
# Si number density = 19.430369 Si / 1000 Ang^3
#
#
#
# Elastic Constant Matrix: (Units=GPa)
#
#
# Indices 1 2 3 4 5 6 
#
# 1 63.1420 39.9503 33.3499 0.0000 0.0003 0.0000
# 2 39.9503 63.1420 33.3499 0.0000 -0.0003 0.0000
# 3 33.3499 33.3499 72.6298 0.0000 0.0000 0.0000
# 4 0.0000 0.0000 0.0000 3.7922 0.0000 -0.0003
# 5 0.0003 -0.0003 0.0000 0.0000 3.7922 0.0000
# 6 0.0000 0.0000 0.0000 -0.0003 0.0000 11.5958
#
#
#
# Elastic Compliance Matrix: (Units=1/GPa)
#
#
# Indices 1 2 3 4 5 6 
#
# 1 0.028459 -0.014660 -0.006337 0.000000 -0.000003 0.000000
# 2 -0.014660 0.028459 -0.006337 0.000000 0.000003 0.000000
# 3 -0.006337 -0.006337 0.019588 0.000000 0.000000 0.000000
# 4 0.000000 0.000000 0.000000 0.263699 0.000000 0.000006
# 5 -0.000003 0.000003 0.000000 0.000000 0.263699 0.000000
# 6 0.000000 0.000000 0.000000 0.000006 0.000000 0.086238
#
#
# Mechanical properties :
#
#
# Convention : Reuss Voigt Hill
#
# Bulk Modulus (GPa) = 45.78546 45.80157 45.79351
# Shear Modulus (GPa) = 6.64816 9.98695 8.31756
#
# Velocity S-wave (km/s) = 1.85174 2.26959 2.07123
# Velocity P-wave (km/s) = 5.30914 5.52190 5.41656
#
# Compressibility (1/GPa) = 0.02184100
#
# Stress axis : x y z
#
# Youngs Moduli (GPa) = 35.13786 35.13786 51.05269
#
# Poissons Ratio (x) = 0.51511 0.32350
# Poissons Ratio (y) = 0.51511 0.32350
# Poissons Ratio (z) = 0.22265 0.22265
#
# Static dielectric constant tensor:
#      x y z
#    x 1.694380 0.000000 0.000000 
#    y 0.000000 1.694380 0.000000 
#    z 0.000000 0.000000 1.738360 
# 
# From -- ./inp_files/2610.got.cif
#   From: 2010.05.17/outbox.cif.g08.bks.cpg/sg187_2_cif.got.tgz:2610.got - 2010.05.20 12:09:04.
