data_PCOD9585224
_publ_section_title
;
Structure prediction by ZEFSAII (Michael W. Deem and Ramdas Pophale) SiO2 
 PCOD9585224
Probable space group: P 63 C M
;
_chemical_formula_sum "Si O2"
_cell_formula_units_Z 72
_cell_length_a 23.328727
_cell_length_b 23.328727
_cell_length_c 8.958111
_cell_angle_alpha 90.000000
_cell_angle_beta 90.000000
_cell_angle_gamma 120.000000
_cell_volume 4222.106199
_symmetry_space_group_name_H-M "P 63 C M"
_symmetry_group_IT_number 185
_symmetry_cell_setting 'hexagonal'
loop_
_space_group_symop_operation_xyz
x,y,z
x-y,x,1/2+z
-y,x-y,z
-x,-y,1/2+z
-x+y,-x,z
y,-x+y,1/2+z
-x+y,y,1/2+z
x,x-y,1/2+z
-y,-x,1/2+z
y,x,z
x-y,-y,z
-x,-x+y,z
loop_
_atom_site_type_symbol
_atom_site_label
_atom_site_fract_x
_atom_site_fract_y
_atom_site_fract_z
Si Si1 0.390169 0.270135 0.295790
Si Si2 0.733877 0.805435 0.608890
Si Si3 0.316298 0.196532 0.790421
Si Si4 0.655020 0.452724 0.109195
Si Si5 0.538048 0.215145 0.753122
Si Si6 0.668887 0.074435 0.615116
O O1 0.332725 0.255745 0.179390
O O2 0.370201 0.194809 0.342939
O O3 0.462661 0.304844 0.226316
O O4 0.390578 0.309023 0.442005
O O5 0.794398 0.794398 0.649242
O O6 0.723937 0.803882 0.433133
O O7 0.730621 0.867395 0.678660
O O8 0.355425 0.266636 0.710110
O O9 0.589599 0.388113 0.165264
O O10 0.716555 0.455230 0.196203
O O11 0.652455 0.519546 0.141425
O O12 0.666135 0.450123 0.931436
O O13 0.610815 0.000000 0.644748
#
# Coordination Sequence:
#
# PCOD9585224 Si02
#       6
#    12  12  12  12  12  12
#     4   9  19  35  55  78 106 146 182 224 278 333
#     4  10  19  31  52  81 110 148 188 224 269 329
#     4  10  18  34  52  81 112 147 185 223 273 332
#     4  11  23  38  57  83 104 142 188 230 303 321
#     4  11  22  37  58  77 108 138 181 247 276 355
#     4  11  21  37  59  82 114 149 187 228 276 340
#
# _framework density 17.053100000000001
#
# number of rings (size 3 to 8) (size 9 to 14) (size 15 to 20)
#    1.000    0.667    3.333    2.333    2.333    1.333 
#    0.000    4.167    0.000    0.000    0.000    0.000 
#    0.000    0.000    0.000   19.000    0.000    0.000 
#
# Total GULP energy -401199.706245 kJ/mol
# GULP energy per Si atom -5572.218142 kJ/mol
# Density = 1.701429 g / cm^3
# Si number density = 17.053100 Si / 1000 Ang^3
#
#
#
# Elastic Constant Matrix: (Units=GPa)
#
#
# Indices 1 2 3 4 5 6 
#
# 1 65.0378 50.1266 22.1314 0.0000 0.0000 0.0000
# 2 50.1266 65.0378 22.1314 0.0000 0.0000 0.0000
# 3 22.1314 22.1314 50.8495 0.0000 0.0000 0.0000
# 4 0.0000 0.0000 0.0000 4.9932 0.0000 0.0000
# 5 0.0000 0.0000 0.0000 0.0000 4.9932 0.0000
# 6 0.0000 0.0000 0.0000 0.0000 0.0000 7.4556
#
#
#
# Elastic Compliance Matrix: (Units=1/GPa)
#
#
# Indices 1 2 3 4 5 6 
#
# 1 0.038746 -0.028318 -0.004538 0.000000 0.000000 0.000000
# 2 -0.028318 0.038746 -0.004538 0.000000 0.000000 0.000000
# 3 -0.004538 -0.004538 0.023616 0.000000 0.000000 0.000000
# 4 0.000000 0.000000 0.000000 0.200272 0.000000 0.000000
# 5 0.000000 0.000000 0.000000 0.000000 0.200272 0.000000
# 6 0.000000 0.000000 0.000000 0.000000 0.000000 0.134127
#
#
# Mechanical properties :
#
#
# Convention : Reuss Voigt Hill
#
# Bulk Modulus (GPa) = 37.99701 41.07820 39.53761
# Shear Modulus (GPa) = 6.95081 9.25746 8.10414
#
# Velocity S-wave (km/s) = 2.02110 2.33247 2.18234
# Velocity P-wave (km/s) = 5.27033 5.60309 5.43925
#
# Compressibility (1/GPa) = 0.02631786
#
# Stress axis : x y z
#
# Youngs Moduli (GPa) = 25.80941 25.80941 42.34344
#
# Poissons Ratio (x) = 0.73087 0.19217
# Poissons Ratio (y) = 0.73087 0.19217
# Poissons Ratio (z) = 0.11713 0.11713
#
# Static dielectric constant tensor:
#      x y z
#    x 1.579530 0.000000 0.000000 
#    y 0.000000 1.579530 0.000000 
#    z 0.000000 0.000000 1.575180 
# 
# From -- ./inp_files/609.got.cif
#   From: 2010.05.17/outbox.cif.g08.bks.cpg/sg185_cif.got.tgz:609.got - 2010.05.20 12:05:34.
