data_PCOD9585788
_publ_section_title
;
Structure prediction by ZEFSAII (Michael W. Deem and Ramdas Pophale) SiO2 
 PCOD9585788
Probable space group: P -6 M 2
;
_chemical_formula_sum "Si O2"
_cell_formula_units_Z 66
_cell_length_a 22.936474
_cell_length_b 22.936474
_cell_length_c 7.453844
_cell_angle_alpha 90.000000
_cell_angle_beta 90.000000
_cell_angle_gamma 120.000000
_cell_volume 3395.973097
_symmetry_space_group_name_H-M "P -6 M 2"
_symmetry_group_IT_number 187
_symmetry_cell_setting 'hexagonal'
loop_
_space_group_symop_operation_xyz
x,y,z
-x+y,-x,-z
-y,x-y,z
x,y,-z
-x+y,-x,z
-y,x-y,-z
-y,-x,-z
-x+y,y,-z
x,x-y,-z
-x+y,y,z
x,x-y,z
-y,-x,z
loop_
_atom_site_type_symbol
_atom_site_label
_atom_site_fract_x
_atom_site_fract_y
_atom_site_fract_z
Si Si1 0.927409 0.319416 0.280560
Si Si2 0.201557 0.667490 0.215329
Si Si3 0.139596 0.140074 0.000000
Si Si4 0.944864 0.194995 0.707673
Si Si5 0.666647 0.199517 0.718962
Si Si6 0.540716 0.949339 0.286384
O O1 0.925693 0.317759 0.500000
O O2 0.935541 0.256467 0.226194
O O3 0.859882 0.319367 0.223790
O O4 0.991901 0.388539 0.219234
O O5 0.207914 0.603957 0.282388
O O6 0.262204 0.737797 0.282588
O O7 0.126416 0.651011 0.256179
O O8 0.207049 0.667716 0.000000
O O9 0.186409 0.178582 0.829324
O O10 0.128340 0.064170 0.000000
O O11 0.069379 0.138757 0.000000
O O12 0.967207 0.207285 0.500000
O O13 0.871565 0.128436 0.713908
O O14 0.665728 0.198693 0.500000
O O15 0.594485 0.188969 0.776482
O O16 0.728080 0.271921 0.773732
O O17 0.541737 0.958953 0.500000
O O18 0.476811 0.953621 0.213935
#
# Coordination Sequence:
#
# PCOD9585788 Si02
#       6
#    12  12   6  12  12  12
#     4   9  16  28  46  67  95 135 177 212 253 306
#     4   9  17  30  47  65  85 112 147 191 244 300
#     4  10  21  38  60  86 113 140 170 212 264 318
#     4   9  18  34  56  81 109 142 180 219 258 306
#     4   9  15  22  36  63  99 135 172 216 263 308
#     4   9  17  29  45  66  93 125 162 204 249 299
#
# _framework density 19.434781000000001
#
# number of rings (size 3 to 8) (size 9 to 14) (size 15 to 20)
#    0.000    2.909    0.000    1.545    0.000    6.545 
#    1.636    0.909    0.000    5.455    0.000    0.000 
#    0.000    0.000    0.000    1.818    0.364    4.727 
#
# Total GULP energy -368258.614805 kJ/mol
# GULP energy per Si atom -5579.675982 kJ/mol
# Density = 1.939055 g / cm^3
# Si number density = 19.434781 Si / 1000 Ang^3
#
#
#
# Elastic Constant Matrix: (Units=GPa)
#
#
# Indices 1 2 3 4 5 6 
#
# 1 137.7468 78.4283 29.6467 0.0000 -0.0044 0.0000
# 2 78.4283 137.7468 29.6467 0.0000 0.0044 0.0000
# 3 29.6467 29.6467 71.6609 0.0000 0.0000 0.0000
# 4 0.0000 0.0000 0.0000 29.4072 0.0000 0.0044
# 5 -0.0044 0.0044 0.0000 0.0000 29.4072 0.0000
# 6 0.0000 0.0000 0.0000 0.0044 0.0000 29.6593
#
#
#
# Elastic Compliance Matrix: (Units=1/GPa)
#
#
# Indices 1 2 3 4 5 6 
#
# 1 0.011038 -0.005820 -0.002159 0.000000 0.000003 0.000000
# 2 -0.005820 0.011038 -0.002159 0.000000 -0.000003 0.000000
# 3 -0.002159 -0.002159 0.015741 0.000000 0.000000 0.000000
# 4 0.000000 0.000000 0.000000 0.034005 0.000000 -0.000005
# 5 0.000003 -0.000003 0.000000 0.000000 0.034005 0.000000
# 6 0.000000 0.000000 0.000000 -0.000005 0.000000 0.033716
#
#
# Mechanical properties :
#
#
# Convention : Reuss Voigt Hill
#
# Bulk Modulus (GPa) = 57.00655 69.17754 63.09204
# Shear Modulus (GPa) = 30.18122 31.65694 30.91908
#
# Velocity S-wave (km/s) = 3.94502 4.04032 3.99295
# Velocity P-wave (km/s) = 7.08144 7.57876 7.33432
#
# Compressibility (1/GPa) = 0.01754184
#
# Stress axis : x y z
#
# Youngs Moduli (GPa) = 90.59561 90.59561 63.52933
#
# Poissons Ratio (x) = 0.52727 0.13714
# Poissons Ratio (y) = 0.52727 0.13714
# Poissons Ratio (z) = 0.19557 0.19557
#
# Static dielectric constant tensor:
#      x y z
#    x 1.650840 0.000000 0.000000 
#    y 0.000000 1.650840 0.000000 
#    z 0.000000 0.000000 1.755730 
# 
# From -- ./inp_files/771.got.cif
#   From: 2010.05.17/outbox.cif.g08.bks.cpg/sg187_1_cif.got.tgz:771.got - 2010.05.20 12:09:04.
