data_PCOD9585992
_publ_section_title
;
Structure prediction by ZEFSAII (Michael W. Deem and Ramdas Pophale) SiO2 
 PCOD9585992
Probable space group: P -6 C 2
;
_chemical_formula_sum "Si O2"
_cell_formula_units_Z 66
_cell_length_a 20.341916
_cell_length_b 20.341916
_cell_length_c 10.012428
_cell_angle_alpha 90.000000
_cell_angle_beta 90.000000
_cell_angle_gamma 120.000000
_cell_volume 3588.010877
_symmetry_space_group_name_H-M "P -6 C 2"
_symmetry_group_IT_number 188
_symmetry_cell_setting 'hexagonal'
loop_
_space_group_symop_operation_xyz
x,y,z
-x+y,-x,1/2-z
-y,x-y,z
x,y,1/2-z
-x+y,-x,z
-y,x-y,1/2-z
-y,-x,-z
-x+y,y,-z
x,x-y,-z
-x+y,y,1/2+z
x,x-y,1/2+z
-y,-x,1/2+z
loop_
_atom_site_type_symbol
_atom_site_label
_atom_site_fract_x
_atom_site_fract_y
_atom_site_fract_z
Si Si1 0.461733 0.797542 0.411980
Si Si2 0.347045 0.066728 0.094343
Si Si3 0.766390 0.233611 0.000000
Si Si4 0.695116 0.429833 0.750000
Si Si5 0.126203 0.873798 0.000000
Si Si6 0.635902 0.930247 0.099241
Si Si7 0.964590 0.821602 0.897586
O O1 0.441884 0.782063 0.250000
O O2 0.411498 0.822995 0.500000
O O3 0.452369 0.726185 0.500000
O O4 0.549870 0.862541 0.416217
O O5 0.353674 0.052617 0.250000
O O6 0.267629 0.066155 0.077623
O O7 0.414277 0.148308 0.051832
O O8 0.339085 0.998002 0.004693
O O9 0.765670 0.285373 0.880561
O O10 0.746618 0.389185 0.750000
O O11 0.102501 0.795368 0.075447
O O12 0.141513 0.945257 0.089675
O O13 0.646519 0.960072 0.250000
O O14 0.942536 0.831069 0.750000
O O15 0.925446 0.850892 0.000000
#
# Coordination Sequence:
#
# PCOD9585992 Si02
#       7
#    12  12   6   6   6  12  12
#     4  11  23  41  64  93 125 167 208 255 307 368
#     4  10  22  37  59  95 123 160 202 256 309 373
#     4  12  20  40  68  91 124 162 204 251 320 360
#     4  10  24  42  64  92 122 158 206 254 298 380
#     4  10  20  40  62  91 118 162 214 257 310 362
#     4  10  22  39  65  92 122 160 210 258 315 368
#     4  10  21  36  57  87 125 157 204 254 303 359
#
# _framework density 18.394593
#
# number of rings (size 3 to 8) (size 9 to 14) (size 15 to 20)
#    0.182    1.455    2.727    1.818    1.273    5.818 
#    0.545    1.818    0.000    0.000    0.000    0.000 
#    0.000    0.000    0.000    0.000    0.000    0.000 
#
# Total GULP energy -368096.480611 kJ/mol
# GULP energy per Si atom -5577.219403 kJ/mol
# Density = 1.835273 g / cm^3
# Si number density = 18.394593 Si / 1000 Ang^3
#
#
#
# Elastic Constant Matrix: (Units=GPa)
#
#
# Indices 1 2 3 4 5 6 
#
# 1 70.9232 24.3316 40.8869 0.0002 0.0000 0.0000
# 2 24.3316 70.9232 40.8869 -0.0002 0.0000 0.0000
# 3 40.8869 40.8869 125.4238 0.0000 0.0000 0.0000
# 4 0.0002 -0.0002 0.0000 22.7233 0.0000 0.0000
# 5 0.0000 0.0000 0.0000 0.0000 22.7233 0.0002
# 6 0.0000 0.0000 0.0000 0.0000 0.0002 23.2958
#
#
#
# Elastic Compliance Matrix: (Units=1/GPa)
#
#
# Indices 1 2 3 4 5 6 
#
# 1 0.018020 -0.003443 -0.004752 0.000000 0.000000 0.000000
# 2 -0.003443 0.018020 -0.004752 0.000000 0.000000 0.000000
# 3 -0.004752 -0.004752 0.011071 0.000000 0.000000 0.000000
# 4 0.000000 0.000000 0.000000 0.044008 0.000000 0.000000
# 5 0.000000 0.000000 0.000000 0.000000 0.044008 0.000000
# 6 0.000000 0.000000 0.000000 0.000000 0.000000 0.042926
#
#
# Mechanical properties :
#
#
# Convention : Reuss Voigt Hill
#
# Bulk Modulus (GPa) = 47.12961 53.27564 50.20262
# Shear Modulus (GPa) = 23.69435 24.49279 24.09357
#
# Velocity S-wave (km/s) = 3.59293 3.65296 3.62307
# Velocity P-wave (km/s) = 6.54899 6.84235 6.69727
#
# Compressibility (1/GPa) = 0.02121809
#
# Stress axis : x y z
#
# Youngs Moduli (GPa) = 55.49250 55.49250 90.32354
#
# Poissons Ratio (x) = 0.19104 0.42924
# Poissons Ratio (y) = 0.19104 0.42924
# Poissons Ratio (z) = 0.26371 0.26371
#
# Static dielectric constant tensor:
#      x y z
#    x 1.619850 0.000000 0.000000 
#    y 0.000000 1.619850 0.000000 
#    z 0.000000 0.000000 1.634180 
# 
# From -- ./inp_files/819.got.cif
#   From: 2010.05.17/outbox.cif.g08.bks.cpg/sg188_1_cif.got.tgz:819.got - 2010.05.20 12:11:46.
