data_PCOD9585891
_publ_section_title
;
Structure prediction by ZEFSAII (Michael W. Deem and Ramdas Pophale) SiO2 
 PCOD9585891
Probable space group: P -6 C 2
;
_chemical_formula_sum "Si O2"
_cell_formula_units_Z 96
_cell_length_a 18.807354
_cell_length_b 18.807354
_cell_length_c 14.763411
_cell_angle_alpha 90.000000
_cell_angle_beta 90.000000
_cell_angle_gamma 120.000000
_cell_volume 4522.439235
_symmetry_space_group_name_H-M "P -6 C 2"
_symmetry_group_IT_number 188
_symmetry_cell_setting 'hexagonal'
loop_
_space_group_symop_operation_xyz
x,y,z
-x+y,-x,1/2-z
-y,x-y,z
x,y,1/2-z
-x+y,-x,z
-y,x-y,1/2-z
-y,-x,-z
-x+y,y,-z
x,x-y,-z
-x+y,y,1/2+z
x,x-y,1/2+z
-y,-x,1/2+z
loop_
_atom_site_type_symbol
_atom_site_label
_atom_site_fract_x
_atom_site_fract_y
_atom_site_fract_z
Si Si1 0.543762 0.636616 0.357210
Si Si2 0.198635 0.377685 0.138908
Si Si3 0.080063 0.190213 0.638897
Si Si4 0.377050 0.187922 0.890731
Si Si5 0.893776 0.077562 0.857173
Si Si6 0.465961 0.375290 0.393827
Si Si7 0.383224 0.897871 0.641140
Si Si8 0.472862 0.372813 0.889680
O O1 0.534620 0.644476 0.250000
O O2 0.592337 0.728708 0.392737
O O3 0.452631 0.574396 0.393879
O O4 0.594705 0.589804 0.368630
O O5 0.198653 0.376231 0.250000
O O6 0.167740 0.284505 0.110119
O O7 0.290212 0.443453 0.108979
O O8 0.079372 0.190782 0.750000
O O9 0.139649 0.155752 0.609028
O O10 0.986802 0.130931 0.607495
O O11 0.281795 0.152849 0.868413
O O12 0.414625 0.131857 0.858697
O O13 0.434277 0.280420 0.856358
O O14 0.380499 0.190250 0.000000
O O15 0.902034 0.069484 0.750000
O O16 0.416070 0.422824 0.379075
O O17 0.476212 0.369732 0.501386
O O18 0.557523 0.437155 0.357267
O O19 0.381492 0.889207 0.750000
#
# Coordination Sequence:
#
# PCOD9585891 Si02
#       8
#    12  12  12  12  12  12  12  12
#     4   9  17  30  48  69  92 121 156 192 232 280
#     4   9  16  27  43  67  95 119 146 188 232 271
#     4   9  17  28  45  69  95 121 157 196 228 270
#     4  10  20  33  49  73  99 123 158 202 244 292
#     4  10  19  32  51  73  97 131 167 200 238 281
#     4   9  18  33  50  68  93 124 155 193 240 286
#     4   9  17  30  48  69  92 121 156 192 232 280
#     4   9  18  33  50  68  93 124 155 193 240 286
#
# _framework density 21.227482999999999
#
# number of rings (size 3 to 8) (size 9 to 14) (size 15 to 20)
#    0.000    2.750    0.000    1.750    0.000    4.000 
#    1.500    1.250    0.000    4.500    0.000    0.000 
#    0.000    0.000    0.000    0.000    0.000    0.000 
#
# Total GULP energy -535825.846659 kJ/mol
# GULP energy per Si atom -5581.519236 kJ/mol
# Density = 2.117917 g / cm^3
# Si number density = 21.227483 Si / 1000 Ang^3
#
#
#
# Elastic Constant Matrix: (Units=GPa)
#
#
# Indices 1 2 3 4 5 6 
#
# 1 72.8417 15.0292 -32.3049 0.0001 0.0000 0.0000
# 2 15.0292 72.8417 -32.3049 -0.0001 0.0000 0.0000
# 3 -32.3049 -32.3049 54.5770 0.0000 0.0000 0.0000
# 4 0.0001 -0.0001 0.0000 16.7009 0.0000 0.0000
# 5 0.0000 0.0000 0.0000 0.0000 16.7009 0.0001
# 6 0.0000 0.0000 0.0000 0.0000 0.0001 28.9063
#
#
#
# Elastic Compliance Matrix: (Units=1/GPa)
#
#
# Indices 1 2 3 4 5 6 
#
# 1 0.018724 0.001426 0.011927 0.000000 0.000000 0.000000
# 2 0.001426 0.018724 0.011927 0.000000 0.000000 0.000000
# 3 0.011927 0.011927 0.032442 0.000000 0.000000 0.000000
# 4 0.000000 0.000000 0.000000 0.059877 0.000000 0.000000
# 5 0.000000 0.000000 0.000000 0.000000 0.059877 0.000000
# 6 0.000000 0.000000 0.000000 0.000000 0.000000 0.034595
#
#
# Mechanical properties :
#
#
# Convention : Reuss Voigt Hill
#
# Bulk Modulus (GPa) = 8.30213 11.23327 9.76770
# Shear Modulus (GPa) = 23.38331 29.11767 26.25049
#
# Velocity S-wave (km/s) = 3.32257 3.70766 3.52039
# Velocity P-wave (km/s) = 4.31727 4.86131 4.59735
#
# Compressibility (1/GPa) = 0.12045104
#
# Stress axis : x y z
#
# Youngs Moduli (GPa) = 53.40828 53.40828 30.82388
#
# Poissons Ratio (x) = -0.07618 -0.36764
# Poissons Ratio (y) = -0.07618 -0.36764
# Poissons Ratio (z) = -0.63701 -0.63701
#
# Static dielectric constant tensor:
#      x y z
#    x 1.739380 0.000000 0.000000 
#    y 0.000000 1.739380 0.000000 
#    z 0.000000 0.000000 1.818010 
# 
# From -- ./inp_files/3876.got.cif
#   From: 2010.05.17/outbox.cif.g08.bks.cpg/sg188_2_cif.got.tgz:3876.got - 2010.05.20 12:11:46.
