data_PCOD9585029
_publ_section_title
;
Structure prediction by ZEFSAII (Michael W. Deem and Ramdas Pophale) SiO2 
 PCOD9585029
Probable space group: P 6 M M
;
_chemical_formula_sum "Si O2"
_cell_formula_units_Z 72
_cell_length_a 26.607581
_cell_length_b 26.607581
_cell_length_c 7.701399
_cell_angle_alpha 90.000000
_cell_angle_beta 90.000000
_cell_angle_gamma 120.000000
_cell_volume 4721.837553
_symmetry_space_group_name_H-M "P 6 M M"
_symmetry_group_IT_number 183
_symmetry_cell_setting 'hexagonal'
loop_
_space_group_symop_operation_xyz
x,y,z
x-y,x,z
-y,x-y,z
-x,-y,z
-x+y,-x,z
y,-x+y,z
-x+y,y,z
x,x-y,z
-y,-x,z
y,x,z
x-y,-y,z
-x,-x+y,z
loop_
_atom_site_type_symbol
_atom_site_label
_atom_site_fract_x
_atom_site_fract_y
_atom_site_fract_z
Si Si1 0.262116 0.329988 0.065150
Si Si2 0.712273 0.167956 0.564995
Si Si3 0.786642 0.453072 0.864308
Si Si4 0.832044 0.544315 0.163622
Si Si5 0.248647 0.067653 0.364306
Si Si6 0.670013 0.737885 0.663465
O O1 0.310059 0.310059 0.084724
O O2 0.286489 0.396684 0.113451
O O3 0.211050 0.289640 0.197189
O O4 0.243023 0.320834 0.864308
O O5 0.778052 0.221949 0.583508
O O6 0.674212 0.181756 0.696248
O O7 0.695221 0.165606 0.364309
O O8 0.713511 0.110194 0.615163
O O9 0.720953 0.441906 0.864310
O O10 0.787012 0.393506 0.864303
O O11 0.818245 0.492454 0.032372
O O12 0.778049 0.556098 0.145106
O O13 0.226489 0.113245 0.364303
O O14 0.289638 0.078590 0.531429
O O15 0.200069 0.000000 0.364306
O O16 0.689942 0.689942 0.643890
#
# Coordination Sequence:
#
# PCOD9585029 Si02
#       6
#    12  12  12  12  12  12
#     4  10  19  30  48  76 105 133 162 199 245 295
#     4  10  19  31  50  74  97 126 163 202 244 294
#     4  10  21  36  53  73  97 127 162 203 249 293
#     4  10  19  31  50  74  97 126 163 202 244 294
#     4  10  20  32  48  73 105 137 169 207 251 293
#     4  10  19  30  48  76 105 133 162 199 245 295
#
# _framework density 15.248301
#
# number of rings (size 3 to 8) (size 9 to 14) (size 15 to 20)
#    0.000    2.000    3.333    1.167    0.000    2.667 
#    0.000    0.000    0.000    4.167    0.000    2.333 
#    0.000    0.000    0.000    8.333    0.000    0.000 
#
# Total GULP energy -401618.536315 kJ/mol
# GULP energy per Si atom -5578.035227 kJ/mol
# Density = 1.521359 g / cm^3
# Si number density = 15.248301 Si / 1000 Ang^3
#
#
#
# Elastic Constant Matrix: (Units=GPa)
#
#
# Indices 1 2 3 4 5 6 
#
# 1 95.8479 57.8942 56.4964 0.0000 0.0000 0.0000
# 2 57.8942 95.8479 56.4964 0.0000 0.0000 0.0000
# 3 56.4964 56.4964 137.7940 0.0000 0.0000 0.0000
# 4 0.0000 0.0000 0.0000 17.2293 0.0000 0.0000
# 5 0.0000 0.0000 0.0000 0.0000 17.2293 0.0000
# 6 0.0000 0.0000 0.0000 0.0000 0.0000 18.9769
#
#
#
# Elastic Compliance Matrix: (Units=1/GPa)
#
#
# Indices 1 2 3 4 5 6 
#
# 1 0.017829 -0.008519 -0.003817 0.000000 0.000000 0.000000
# 2 -0.008519 0.017829 -0.003817 0.000000 0.000000 0.000000
# 3 -0.003817 -0.003817 0.010387 0.000000 0.000000 0.000000
# 4 0.000000 0.000000 0.000000 0.058041 0.000000 0.000000
# 5 0.000000 0.000000 0.000000 0.000000 0.058041 0.000000
# 6 0.000000 0.000000 0.000000 0.000000 0.000000 0.052696
#
#
# Mechanical properties :
#
#
# Convention : Reuss Voigt Hill
#
# Bulk Modulus (GPa) = 72.78806 74.58487 73.68647
# Shear Modulus (GPa) = 19.86431 21.26062 20.56246
#
# Velocity S-wave (km/s) = 3.61324 3.73808 3.67619
# Velocity P-wave (km/s) = 8.07751 8.22500 8.15159
#
# Compressibility (1/GPa) = 0.01373852
#
# Stress axis : x y z
#
# Youngs Moduli (GPa) = 56.08903 56.08903 96.27195
#
# Poissons Ratio (x) = 0.47783 0.36748
# Poissons Ratio (y) = 0.47783 0.36748
# Poissons Ratio (z) = 0.21409 0.21409
#
# Static dielectric constant tensor:
#      x y z
#    x 1.482950 0.000000 0.000000 
#    y 0.000000 1.482950 0.000000 
#    z 0.000000 0.000000 1.527930 
# 
# From -- ./inp_files/1198.got.cif
#   From: 2010.05.17/outbox.cif.g08.bks.cpg/sg183_1_cif.got.tgz:1198.got - 2010.05.20 12:02:58.
