data_PCOD9585639
_publ_section_title
;
Structure prediction by ZEFSAII (Michael W. Deem and Ramdas Pophale) SiO2 
 PCOD9585639
Probable space group: P -6 M 2
;
_chemical_formula_sum "Si O2"
_cell_formula_units_Z 66
_cell_length_a 12.844153
_cell_length_b 12.844153
_cell_length_c 28.971890
_cell_angle_alpha 90.000000
_cell_angle_beta 90.000000
_cell_angle_gamma 120.000000
_cell_volume 4139.218952
_symmetry_space_group_name_H-M "P -6 M 2"
_symmetry_group_IT_number 187
_symmetry_cell_setting 'hexagonal'
loop_
_space_group_symop_operation_xyz
x,y,z
-x+y,-x,-z
-y,x-y,z
x,y,-z
-x+y,-x,z
-y,x-y,-z
-y,-x,-z
-x+y,y,-z
x,x-y,-z
-x+y,y,z
x,x-y,z
-y,-x,z
loop_
_atom_site_type_symbol
_atom_site_label
_atom_site_fract_x
_atom_site_fract_y
_atom_site_fract_z
Si Si1 0.913130 0.333258 0.863167
Si Si2 0.916253 0.582237 0.601290
Si Si3 0.580675 0.913966 0.224285
Si Si4 0.333234 0.420639 0.053453
Si Si5 0.247339 0.247972 0.312182
Si Si6 0.419919 0.333989 0.500000
O O1 0.883912 0.441956 0.864034
O O2 0.793232 0.206769 0.858314
O O3 0.003050 0.360409 0.820443
O O4 0.983865 0.342908 0.910268
O O5 0.780007 0.560014 0.601280
O O6 0.913775 0.456888 0.608770
O O7 0.971143 0.630454 0.550070
O O8 0.985106 0.675635 0.641889
O O9 0.451042 0.902083 0.231359
O O10 0.567790 0.783895 0.217374
O O11 0.665240 0.974299 0.268559
O O12 0.207320 0.414640 0.062400
O O13 0.442287 0.557714 0.059073
O O14 0.335067 0.386772 0.000000
O O15 0.114001 0.228002 0.316616
O O16 0.243713 0.121857 0.305712
O O17 0.556682 0.443319 0.500000
O O18 0.418383 0.209192 0.500000
#
# Coordination Sequence:
#
# PCOD9585639 Si02
#       6
#    12  12  12  12  12   6
#     4  10  20  33  49  70  97 128 159 190 227 274
#     4   9  16  27  45  69  94 118 147 187 236 284
#     4  10  20  34  53  75  96 118 148 191 241 287
#     4   9  17  30  50  75 100 126 158 199 245 287
#     4  10  20  33  48  66  92 127 163 194 224 266
#     4   8  13  22  39  64  92 118 144 180 230 284
#
# _framework density 15.945036
#
# number of rings (size 3 to 8) (size 9 to 14) (size 15 to 20)
#    0.000    2.545    0.000    2.636    0.000    2.545 
#    0.000    2.273    0.000   11.273    0.000    1.273 
#    0.000    0.000    0.000    0.000    0.000    0.000 
#
# Total GULP energy -367794.348655 kJ/mol
# GULP energy per Si atom -5572.641646 kJ/mol
# Density = 1.590874 g / cm^3
# Si number density = 15.945036 Si / 1000 Ang^3
#
#
#
# Elastic Constant Matrix: (Units=GPa)
#
#
# Indices 1 2 3 4 5 6 
#
# 1 97.2766 65.3250 79.0247 0.0000 0.0000 0.0000
# 2 65.3250 97.2766 79.0247 0.0000 0.0000 0.0000
# 3 79.0247 79.0247 127.8612 0.0000 0.0000 0.0000
# 4 0.0000 0.0000 0.0000 23.6312 0.0000 0.0000
# 5 0.0000 0.0000 0.0000 0.0000 23.6312 0.0000
# 6 0.0000 0.0000 0.0000 0.0000 0.0000 15.9758
#
#
#
# Elastic Compliance Matrix: (Units=1/GPa)
#
#
# Indices 1 2 3 4 5 6 
#
# 1 0.023351 -0.007947 -0.009520 0.000000 0.000000 0.000000
# 2 -0.007947 0.023351 -0.009520 0.000000 0.000000 0.000000
# 3 -0.009520 -0.009520 0.019589 0.000000 0.000000 0.000000
# 4 0.000000 0.000000 0.000000 0.042317 0.000000 0.000000
# 5 0.000000 0.000000 0.000000 0.000000 0.042317 0.000000
# 6 0.000000 0.000000 0.000000 0.000000 0.000000 0.062595
#
#
# Mechanical properties :
#
#
# Convention : Reuss Voigt Hill
#
# Bulk Modulus (GPa) = 81.19947 85.46257 83.33102
# Shear Modulus (GPa) = 18.40952 19.25031 18.82992
#
# Velocity S-wave (km/s) = 3.40157 3.47838 3.44019
# Velocity P-wave (km/s) = 8.15247 8.35744 8.25559
#
# Compressibility (1/GPa) = 0.01231535
#
# Stress axis : x y z
#
# Youngs Moduli (GPa) = 42.82556 42.82556 51.04901
#
# Poissons Ratio (x) = 0.34033 0.48600
# Poissons Ratio (y) = 0.34033 0.48600
# Poissons Ratio (z) = 0.40771 0.40771
#
# Static dielectric constant tensor:
#      x y z
#    x 1.502130 0.000000 0.000000 
#    y 0.000000 1.502130 0.000000 
#    z 0.000000 0.000000 1.552260 
# 
# From -- ./inp_files/4422.got.cif
#   From: 2010.05.17/outbox.cif.g08.bks.cpg/sg187_3_cif.got.tgz:4422.got - 2010.05.20 12:09:04.
