data_PCOD9585680
_publ_section_title
;
Structure prediction by ZEFSAII (Michael W. Deem and Ramdas Pophale) SiO2 
 PCOD9585680
Probable space group: P -6 M 2
;
_chemical_formula_sum "Si O2"
_cell_formula_units_Z 66
_cell_length_a 12.711675
_cell_length_b 12.711675
_cell_length_c 28.790641
_cell_angle_alpha 90.000000
_cell_angle_beta 90.000000
_cell_angle_gamma 120.000000
_cell_volume 4028.909641
_symmetry_space_group_name_H-M "P -6 M 2"
_symmetry_group_IT_number 187
_symmetry_cell_setting 'hexagonal'
loop_
_space_group_symop_operation_xyz
x,y,z
-x+y,-x,-z
-y,x-y,z
x,y,-z
-x+y,-x,z
-y,x-y,-z
-y,-x,-z
-x+y,y,-z
x,x-y,-z
-x+y,y,z
x,x-y,z
-y,-x,z
loop_
_atom_site_type_symbol
_atom_site_label
_atom_site_fract_x
_atom_site_fract_y
_atom_site_fract_z
Si Si1 0.916667 0.334054 0.000000
Si Si2 0.249536 0.249400 0.447152
Si Si3 0.916660 0.334045 0.640100
Si Si4 0.000573 0.750597 0.180449
Si Si5 0.082790 0.666707 0.090173
Si Si6 0.082814 0.666620 0.729840
O O1 0.998338 0.354594 0.045465
O O2 0.795952 0.204049 0.000000
O O3 0.884584 0.442292 0.000000
O O4 0.293100 0.290569 0.500000
O O5 0.126876 0.253751 0.440055
O O6 0.346964 0.323195 0.407672
O O7 0.221473 0.110737 0.443693
O O8 0.893511 0.446756 0.637958
O O9 0.791173 0.208828 0.646661
O O10 0.006247 0.357829 0.683163
O O11 0.109361 0.890640 0.180759
O O12 0.022878 0.689173 0.135478
O O13 0.017892 0.689168 0.226475
O O14 0.871099 0.742197 0.179217
O O15 0.096145 0.548073 0.096239
O O16 0.214191 0.785810 0.083518
O O17 0.091146 0.545573 0.736949
O O18 0.216179 0.783822 0.725884
#
# Coordination Sequence:
#
# PCOD9585680 Si02
#       6
#     6  12  12  12  12  12
#     4  10  20  34  52  74 102 136 172 210 252 300
#     4   9  17  30  49  72  96 122 155 198 247 295
#     4  10  20  33  49  70  98 132 167 202 241 288
#     4  10  20  34  52  74 101 132 165 202 245 294
#     4  10  20  34  54  78 104 134 168 209 253 297
#     4  10  20  34  53  75  99 128 163 205 250 295
#
# _framework density 16.381602999999998
#
# number of rings (size 3 to 8) (size 9 to 14) (size 15 to 20)
#    0.000    2.182    0.000    3.455    0.000    1.091 
#    0.000    2.727    0.000   14.909    0.000    0.000 
#    0.000    0.000    0.000    0.000    0.000    0.000 
#
# Total GULP energy -368311.151519 kJ/mol
# GULP energy per Si atom -5580.471993 kJ/mol
# Density = 1.634432 g / cm^3
# Si number density = 16.381603 Si / 1000 Ang^3
#
#
#
# Elastic Constant Matrix: (Units=GPa)
#
#
# Indices 1 2 3 4 5 6 
#
# 1 123.7888 85.2372 89.7242 0.0000 0.0000 0.0000
# 2 85.2372 123.7888 89.7242 0.0000 0.0000 0.0000
# 3 89.7242 89.7242 148.9611 0.0000 0.0000 0.0000
# 4 0.0000 0.0000 0.0000 24.3872 0.0000 0.0000
# 5 0.0000 0.0000 0.0000 0.0000 24.3872 0.0000
# 6 0.0000 0.0000 0.0000 0.0000 0.0000 19.2758
#
#
#
# Elastic Compliance Matrix: (Units=1/GPa)
#
#
# Indices 1 2 3 4 5 6 
#
# 1 0.017923 -0.008016 -0.005967 0.000000 0.000000 0.000000
# 2 -0.008016 0.017923 -0.005967 0.000000 0.000000 0.000000
# 3 -0.005967 -0.005967 0.013902 0.000000 0.000000 0.000000
# 4 0.000000 0.000000 0.000000 0.041005 0.000000 0.000000
# 5 0.000000 0.000000 0.000000 0.000000 0.041005 0.000000
# 6 0.000000 0.000000 0.000000 0.000000 0.000000 0.051879
#
#
# Mechanical properties :
#
#
# Convention : Reuss Voigt Hill
#
# Bulk Modulus (GPa) = 101.55852 102.87890 102.21871
# Shear Modulus (GPa) = 22.04386 22.40026 22.22206
#
# Velocity S-wave (km/s) = 3.67229 3.70185 3.68710
# Velocity P-wave (km/s) = 8.95047 9.01163 8.98110
#
# Compressibility (1/GPa) = 0.00984654
#
# Stress axis : x y z
#
# Youngs Moduli (GPa) = 55.79375 55.79375 71.93308
#
# Poissons Ratio (x) = 0.44725 0.42925
# Poissons Ratio (y) = 0.44725 0.42925
# Poissons Ratio (z) = 0.33294 0.33294
#
# Static dielectric constant tensor:
#      x y z
#    x 1.517710 0.000000 0.000000 
#    y 0.000000 1.517710 0.000000 
#    z 0.000000 0.000000 1.538330 
# 
# From -- ./inp_files/4413.got.cif
#   From: 2010.05.17/outbox.cif.g08.bks.cpg/sg187_3_cif.got.tgz:4413.got - 2010.05.20 12:09:04.
