data_PCOD9585978
_publ_section_title
;
Structure prediction by ZEFSAII (Michael W. Deem and Ramdas Pophale) SiO2 
 PCOD9585978
Probable space group: P -6 C 2
;
_chemical_formula_sum "Si O2"
_cell_formula_units_Z 66
_cell_length_a 11.930302
_cell_length_b 11.930302
_cell_length_c 26.891729
_cell_angle_alpha 90.000000
_cell_angle_beta 90.000000
_cell_angle_gamma 120.000000
_cell_volume 3314.761092
_symmetry_space_group_name_H-M "P -6 C 2"
_symmetry_group_IT_number 188
_symmetry_cell_setting 'hexagonal'
loop_
_space_group_symop_operation_xyz
x,y,z
-x+y,-x,1/2-z
-y,x-y,z
x,y,1/2-z
-x+y,-x,z
-y,x-y,1/2-z
-y,-x,-z
-x+y,y,-z
x,x-y,-z
-x+y,y,1/2+z
x,x-y,1/2+z
-y,-x,1/2+z
loop_
_atom_site_type_symbol
_atom_site_label
_atom_site_fract_x
_atom_site_fract_y
_atom_site_fract_z
Si Si1 0.132322 0.161517 0.750000
Si Si2 0.244009 0.000043 0.985066
Si Si3 0.381812 0.446080 0.192317
Si Si4 0.103078 0.724553 0.833445
Si Si5 0.687216 0.589967 0.605094
Si Si6 0.932985 0.352977 0.076337
O O1 0.203377 0.252752 0.797648
O O2 0.130356 0.023968 0.750000
O O3 0.369609 0.049296 0.020222
O O4 0.143850 0.856151 0.000000
O O5 0.190514 0.095257 0.000000
O O6 0.280654 0.018748 0.927433
O O7 0.352232 0.417398 0.250000
O O8 0.512677 0.584059 0.187111
O O9 0.258331 0.444375 0.167106
O O10 0.396387 0.337730 0.162455
O O11 0.036383 0.692567 0.887481
O O12 0.547125 0.489692 0.583290
O O13 0.791808 0.546668 0.595429
#
# Coordination Sequence:
#
# PCOD9585978 Si02
#       6
#     6  12  12  12  12  12
#     4  10  24  38  58  88 126 164 200 254 308 372
#     4  10  20  38  59  85 115 149 190 243 303 365
#     4  11  21  37  60  85 119 161 209 255 299 363
#     4  11  22  39  60  90 120 165 211 257 311 362
#     4  10  22  37  60  84 116 156 193 247 299 362
#     4  10  22  38  61  87 120 154 203 249 304 372
#
# _framework density 19.910938000000002
#
# number of rings (size 3 to 8) (size 9 to 14) (size 15 to 20)
#    0.182    1.455    1.818    2.545    2.545    0.000 
#    0.000    1.818    0.000    5.091    0.000    0.000 
#    0.000    0.000    0.000    0.000    0.000    0.000 
#
# Total GULP energy -368326.876466 kJ/mol
# GULP energy per Si atom -5580.710249 kJ/mol
# Density = 1.986562 g / cm^3
# Si number density = 19.910938 Si / 1000 Ang^3
#
#
#
# Elastic Constant Matrix: (Units=GPa)
#
#
# Indices 1 2 3 4 5 6 
#
# 1 67.0560 17.6682 11.6435 0.0001 0.0000 0.0000
# 2 17.6682 67.0560 11.6435 -0.0001 0.0000 0.0000
# 3 11.6435 11.6435 60.8006 0.0000 0.0000 0.0000
# 4 0.0001 -0.0001 0.0000 8.2136 0.0000 0.0000
# 5 0.0000 0.0000 0.0000 0.0000 8.2136 0.0001
# 6 0.0000 0.0000 0.0000 0.0000 0.0001 24.6939
#
#
#
# Elastic Compliance Matrix: (Units=1/GPa)
#
#
# Indices 1 2 3 4 5 6 
#
# 1 0.016353 -0.003895 -0.002386 0.000000 0.000000 0.000000
# 2 -0.003895 0.016353 -0.002386 0.000000 0.000000 0.000000
# 3 -0.002386 -0.002386 0.017361 0.000000 0.000000 0.000000
# 4 0.000000 0.000000 0.000000 0.121749 0.000000 0.000000
# 5 0.000000 0.000000 0.000000 0.000000 0.121749 -0.000001
# 6 0.000000 0.000000 0.000000 0.000000 -0.000001 0.040496
#
#
# Mechanical properties :
#
#
# Convention : Reuss Voigt Hill
#
# Bulk Modulus (GPa) = 30.54835 30.75812 30.65324
# Shear Modulus (GPa) = 13.80049 18.48805 16.14427
#
# Velocity S-wave (km/s) = 2.63556 3.05050 2.85059
# Velocity P-wave (km/s) = 4.96360 5.28098 5.12475
#
# Compressibility (1/GPa) = 0.03273499
#
# Stress axis : x y z
#
# Youngs Moduli (GPa) = 61.14951 61.14951 57.60032
#
# Poissons Ratio (x) = 0.23815 0.13743
# Poissons Ratio (y) = 0.23815 0.13743
# Poissons Ratio (z) = 0.14590 0.14590
#
# Static dielectric constant tensor:
#      x y z
#    x 1.711550 0.000000 0.000000 
#    y 0.000000 1.711550 0.000000 
#    z 0.000000 0.000000 1.698410 
# 
# From -- ./inp_files/4480.got.cif
#   From: 2010.05.17/outbox.cif.g08.bks.cpg/sg188_3_cif.got.tgz:4480.got - 2010.05.20 12:11:46.
