data_PCOD9585427
_publ_section_title
;
Structure prediction by ZEFSAII (Michael W. Deem and Ramdas Pophale) SiO2 
 PCOD9585427
Probable space group: P -6 M 2
;
_chemical_formula_sum "Si O2"
_cell_formula_units_Z 66
_cell_length_a 17.702070
_cell_length_b 17.702070
_cell_length_c 18.053075
_cell_angle_alpha 90.000000
_cell_angle_beta 90.000000
_cell_angle_gamma 120.000000
_cell_volume 4899.253659
_symmetry_space_group_name_H-M "P -6 M 2"
_symmetry_group_IT_number 187
_symmetry_cell_setting 'hexagonal'
loop_
_space_group_symop_operation_xyz
x,y,z
-x+y,-x,-z
-y,x-y,z
x,y,-z
-x+y,-x,z
-y,x-y,-z
-y,-x,-z
-x+y,y,-z
x,x-y,-z
-x+y,y,z
x,x-y,z
-y,-x,z
loop_
_atom_site_type_symbol
_atom_site_label
_atom_site_fract_x
_atom_site_fract_y
_atom_site_fract_z
Si Si1 0.093634 0.730802 0.139170
Si Si2 0.511742 0.666956 0.414095
Si Si3 0.394314 0.967924 0.278510
Si Si4 0.844631 0.333008 0.220997
Si Si5 0.906816 0.637689 0.914442
Si Si6 0.507781 0.667877 0.000000
O O1 0.169666 0.830335 0.146646
O O2 0.079269 0.677147 0.214544
O O3 0.122011 0.688812 0.073011
O O4 0.999260 0.713916 0.114472
O O5 0.537217 0.668392 0.500000
O O6 0.517278 0.758639 0.397086
O O7 0.411705 0.588296 0.407230
O O8 0.566851 0.644690 0.356715
O O9 0.478723 0.957445 0.262964
O O10 0.430943 0.071683 0.273355
O O11 0.826392 0.413196 0.221551
O O12 0.757879 0.242122 0.239097
O O13 0.877408 0.322210 0.139758
O O14 0.830822 0.661644 0.909403
O O15 0.914133 0.617372 0.000000
O O16 0.429684 0.570317 0.000000
O O17 0.473448 0.736724 0.000000
#
# Coordination Sequence:
#
# PCOD9585427 Si02
#       6
#    12  12  12  12  12   6
#     4  10  18  28  42  59  77 104 140 169 196 236
#     4   9  16  26  41  61  85 111 137 165 198 236
#     4   9  17  28  41  60  83 108 136 168 204 240
#     4   9  17  28  42  59  79 104 135 169 207 248
#     4   9  17  29  41  56  77 101 129 168 214 251
#     4  10  19  28  37  52  76 106 136 164 191 218
#
# _framework density 13.471439999999999
#
# number of rings (size 3 to 8) (size 9 to 14) (size 15 to 20)
#    0.000    2.727    0.909    1.545    0.000    1.818 
#    0.000    0.000    0.000    7.818    0.000    0.000 
#    0.000    1.455    0.000    0.000    0.000    5.636 
#
# Total GULP energy -367427.836350 kJ/mol
# GULP energy per Si atom -5567.088430 kJ/mol
# Density = 1.344078 g / cm^3
# Si number density = 13.471440 Si / 1000 Ang^3
#
#
#
# Elastic Constant Matrix: (Units=GPa)
#
#
# Indices 1 2 3 4 5 6 
#
# 1 79.7868 47.0287 48.7463 0.0000 -0.0003 0.0000
# 2 47.0287 79.7868 48.7463 0.0000 0.0003 0.0000
# 3 48.7463 48.7463 85.2496 0.0000 0.0000 0.0000
# 4 0.0000 0.0000 0.0000 18.3652 0.0000 0.0003
# 5 -0.0003 0.0003 0.0000 0.0000 18.3652 0.0000
# 6 0.0000 0.0000 0.0000 0.0003 0.0000 16.3791
#
#
#
# Elastic Compliance Matrix: (Units=1/GPa)
#
#
# Indices 1 2 3 4 5 6 
#
# 1 0.022299 -0.008228 -0.008046 0.000000 0.000000 0.000000
# 2 -0.008228 0.022299 -0.008046 0.000000 0.000000 0.000000
# 3 -0.008046 -0.008046 0.020932 0.000000 0.000000 0.000000
# 4 0.000000 0.000000 0.000000 0.054451 0.000000 -0.000001
# 5 0.000000 0.000000 0.000000 0.000000 0.054451 0.000000
# 6 0.000000 0.000000 0.000000 -0.000001 0.000000 0.061054
#
#
# Mechanical properties :
#
#
# Convention : Reuss Voigt Hill
#
# Bulk Modulus (GPa) = 59.20648 59.31844 59.26246
# Shear Modulus (GPa) = 17.25601 17.30867 17.28234
#
# Velocity S-wave (km/s) = 3.58290 3.58836 3.58563
# Velocity P-wave (km/s) = 7.82056 7.82922 7.82490
#
# Compressibility (1/GPa) = 0.01689004
#
# Stress axis : x y z
#
# Youngs Moduli (GPa) = 44.84532 44.84532 47.77457
#
# Poissons Ratio (x) = 0.36898 0.38439
# Poissons Ratio (y) = 0.36898 0.38439
# Poissons Ratio (z) = 0.36082 0.36082
#
# Static dielectric constant tensor:
#      x y z
#    x 1.434430 0.000000 0.000000 
#    y 0.000000 1.434430 0.000000 
#    z 0.000000 0.000000 1.435740 
# 
# From -- ./inp_files/2439.got.cif
#   From: 2010.05.17/outbox.cif.g08.bks.cpg/sg187_2_cif.got.tgz:2439.got - 2010.05.20 12:09:04.
