data_PCOD9585098
_publ_section_title
;
Structure prediction by ZEFSAII (Michael W. Deem and Ramdas Pophale) SiO2 
 PCOD9585098
Probable space group: P 6 C C
;
_chemical_formula_sum "Si O2"
_cell_formula_units_Z 84
_cell_length_a 33.532799
_cell_length_b 33.532799
_cell_length_c 5.276277
_cell_angle_alpha 90.000000
_cell_angle_beta 90.000000
_cell_angle_gamma 120.000000
_cell_volume 5138.044138
_symmetry_space_group_name_H-M "P 6 C C"
_symmetry_group_IT_number 184
_symmetry_cell_setting 'hexagonal'
loop_
_space_group_symop_operation_xyz
x,y,z
x-y,x,z
-y,x-y,z
-x,-y,z
-x+y,-x,z
y,-x+y,z
-x+y,y,1/2+z
x,x-y,1/2+z
-y,-x,1/2+z
y,x,1/2+z
x-y,-y,1/2+z
-x,-x+y,1/2+z
loop_
_atom_site_type_symbol
_atom_site_label
_atom_site_fract_x
_atom_site_fract_y
_atom_site_fract_z
Si Si1 0.748034 0.290571 0.121930
Si Si2 0.290564 0.413695 0.535776
Si Si3 0.973867 0.597938 0.902032
Si Si4 0.650566 0.838622 0.533135
Si Si5 0.492442 0.558661 0.816538
Si Si6 0.437663 0.611764 0.830087
Si Si7 0.262823 0.820665 0.529874
O O1 0.709223 0.270779 0.340960
O O2 0.789048 0.337603 0.236921
O O3 0.772070 0.259904 0.065912
O O4 0.332722 0.405373 0.503698
O O5 0.241624 0.366175 0.553535
O O6 0.286768 0.436949 0.279047
O O7 0.290966 0.442350 0.782162
O O8 0.963803 0.545695 0.884493
O O9 0.988180 0.615590 0.614739
O O10 0.675765 0.834780 0.776355
O O11 0.602855 0.788095 0.514405
O O12 0.477469 0.535909 0.539616
O O13 0.477322 0.597873 0.815782
O O14 0.399588 0.579779 0.619567
#
# Coordination Sequence:
#
# PCOD9585098 Si02
#       7
#    12  12  12  12  12  12  12
#     4  12  22  33  54  82 103 117 133 162 205 252
#     4  10  19  32  47  64  94 123 139 165 204 243
#     4  12  25  37  50  69  92 121 155 183 211 254
#     4   8  14  25  42  65  88 108 129 155 195 246
#     4  10  22  39  57  72  84 110 146 187 230 243
#     4  10  22  40  58  74  96 120 149 180 208 251
#     4  10  18  30  50  76  97 112 133 167 213 261
#
# _framework density 16.348634000000001
#
# number of rings (size 3 to 8) (size 9 to 14) (size 15 to 20)
#    0.000    1.714    0.000    6.857    0.000    5.143 
#    0.000    0.000    0.000    5.714    0.000    0.000 
#    0.000    0.000    0.000    0.000    0.000    0.000 
#
# Total GULP energy -468685.231022 kJ/mol
# GULP energy per Si atom -5579.586084 kJ/mol
# Density = 1.631142 g / cm^3
# Si number density = 16.348634 Si / 1000 Ang^3
#
#
#
# Elastic Constant Matrix: (Units=GPa)
#
#
# Indices 1 2 3 4 5 6 
#
# 1 30.9918 1.6606 11.6734 0.0000 0.0000 0.0000
# 2 1.6606 30.9918 11.6734 0.0000 0.0000 0.0000
# 3 11.6734 11.6734 129.1687 0.0000 0.0000 0.0000
# 4 0.0000 0.0000 0.0000 18.1195 0.0000 0.0000
# 5 0.0000 0.0000 0.0000 0.0000 18.1195 0.0000
# 6 0.0000 0.0000 0.0000 0.0000 0.0000 14.6656
#
#
#
# Elastic Compliance Matrix: (Units=1/GPa)
#
#
# Indices 1 2 3 4 5 6 
#
# 1 0.033417 -0.000676 -0.002959 0.000000 0.000000 0.000000
# 2 -0.000676 0.033417 -0.002959 0.000000 0.000000 0.000000
# 3 -0.002959 -0.002959 0.008277 0.000000 0.000000 0.000000
# 4 0.000000 0.000000 0.000000 0.055189 0.000000 0.000000
# 5 0.000000 0.000000 0.000000 0.000000 0.055189 0.000000
# 6 0.000000 0.000000 0.000000 0.000000 0.000000 0.068187
#
#
# Mechanical properties :
#
#
# Convention : Reuss Voigt Hill
#
# Bulk Modulus (GPa) = 16.14897 26.79636 21.47267
# Shear Modulus (GPa) = 17.39098 21.25725 19.32412
#
# Velocity S-wave (km/s) = 3.26507 3.60980 3.44176
# Velocity P-wave (km/s) = 4.91055 5.81381 5.38117
#
# Compressibility (1/GPa) = 0.06192344
#
# Stress axis : x y z
#
# Youngs Moduli (GPa) = 29.92457 29.92457 120.82200
#
# Poissons Ratio (x) = 0.02023 0.35751
# Poissons Ratio (y) = 0.02023 0.35751
# Poissons Ratio (z) = 0.08855 0.08855
#
# Static dielectric constant tensor:
#      x y z
#    x 1.552440 0.000000 0.000000 
#    y 0.000000 1.552440 0.000000 
#    z 0.000000 0.000000 1.652890 
# 
# From -- ./inp_files/39.got.cif
#   From: 2010.05.17/outbox.cif.g08.bks.cpg/sg184_cif.got.tgz:39.got - 2010.05.20 12:04:40.
