data_PCOD9585820
_publ_section_title
;
Structure prediction by ZEFSAII (Michael W. Deem and Ramdas Pophale) SiO2 
 PCOD9585820
Probable space group: P -6 M 2
;
_chemical_formula_sum "Si O2"
_cell_formula_units_Z 84
_cell_length_a 24.730017
_cell_length_b 24.730017
_cell_length_c 7.521308
_cell_angle_alpha 90.000000
_cell_angle_beta 90.000000
_cell_angle_gamma 120.000000
_cell_volume 3983.573504
_symmetry_space_group_name_H-M "P -6 M 2"
_symmetry_group_IT_number 187
_symmetry_cell_setting 'hexagonal'
loop_
_space_group_symop_operation_xyz
x,y,z
-x+y,-x,-z
-y,x-y,z
x,y,-z
-x+y,-x,z
-y,x-y,-z
-y,-x,-z
-x+y,y,-z
x,x-y,-z
-x+y,y,z
x,x-y,z
-y,-x,z
loop_
_atom_site_type_symbol
_atom_site_label
_atom_site_fract_x
_atom_site_fract_y
_atom_site_fract_z
Si Si1 0.999233 0.876987 0.285354
Si Si2 0.401301 0.261232 0.210172
Si Si3 0.526598 0.932033 0.210172
Si Si4 0.544421 0.210320 0.714647
Si Si5 1.000000 0.333333 0.219219
Si Si6 0.193264 0.265366 0.789828
Si Si7 0.332566 0.788913 0.714646
O O1 0.998488 0.877784 0.500000
O O2 0.054953 0.945047 0.226795
O O3 0.020389 0.827829 0.231421
O O4 0.932288 0.864576 0.221917
O O5 0.392906 0.196453 0.285526
O O6 0.474108 0.312946 0.231422
O O7 0.358116 0.287467 0.279961
O O8 0.388963 0.251565 0.000000
O O9 0.470214 0.940428 0.285526
O O10 0.596019 0.975218 0.279961
O O11 0.505505 0.859226 0.231420
O O12 0.529269 0.944372 0.000000
O O13 0.545964 0.211117 0.500000
O O14 0.598955 0.197910 0.778085
O O15 0.556760 0.278380 0.773203
O O16 0.045866 0.308551 0.279961
O O17 1.000000 0.333333 0.000000
O O18 0.136881 0.273762 0.714474
O O19 0.195936 0.277705 0.000000
O O20 0.331821 0.787372 0.500000
O O21 0.388287 0.776574 0.773204
O O22 0.265622 0.734379 0.778082
#
# Coordination Sequence:
#
# PCOD9585820 Si02
#       7
#    12  12  12  12  12  12  12
#     4   9  17  30  48  70  97 128 159 192 234 282
#     4   9  18  32  49  70  95 123 158 197 233 274
#     4   9  18  32  49  70  95 123 158 197 233 274
#     4   9  17  30  48  70  97 128 159 192 234 282
#     4   9  18  33  52  71  94 126 157 188 235 288
#     4   9  18  32  49  70  95 123 158 197 233 274
#     4   9  17  30  48  70  97 128 159 192 234 282
#
# _framework density 21.086596
#
# number of rings (size 3 to 8) (size 9 to 14) (size 15 to 20)
#    0.000    3.000    0.000    0.429    0.000    4.286 
#    0.000    6.429    0.000    7.714    0.000    0.000 
#    0.000    0.000    0.000    0.000    0.000    0.000 
#
# Total GULP energy -468668.004331 kJ/mol
# GULP energy per Si atom -5579.381004 kJ/mol
# Density = 2.103860 g / cm^3
# Si number density = 21.086596 Si / 1000 Ang^3
#
#
#
# Elastic Constant Matrix: (Units=GPa)
#
#
# Indices 1 2 3 4 5 6 
#
# 1 129.4124 97.2485 3.8443 0.0000 -0.0048 0.0000
# 2 97.2485 129.4124 3.8443 0.0000 0.0048 0.0000
# 3 3.8443 3.8443 54.1647 0.0000 0.0000 0.0000
# 4 0.0000 0.0000 0.0000 160.6967 0.0000 0.0048
# 5 -0.0048 0.0048 0.0000 0.0000 160.6967 0.0000
# 6 0.0000 0.0000 0.0000 0.0048 0.0000 16.0820
#
#
#
# Elastic Compliance Matrix: (Units=1/GPa)
#
#
# Indices 1 2 3 4 5 6 
#
# 1 0.017757 -0.013334 -0.000314 0.000000 0.000001 0.000000
# 2 -0.013334 0.017757 -0.000314 0.000000 -0.000001 0.000000
# 3 -0.000314 -0.000314 0.018507 0.000000 0.000000 0.000000
# 4 0.000000 0.000000 0.000000 0.006223 0.000000 -0.000002
# 5 0.000001 -0.000001 0.000000 0.000000 0.006223 0.000000
# 6 0.000000 0.000000 0.000000 -0.000002 0.000000 0.062181
#
#
# Mechanical properties :
#
#
# Convention : Reuss Voigt Hill
#
# Bulk Modulus (GPa) = 38.31966 58.09597 48.20781
# Shear Modulus (GPa) = 30.25358 81.36523 55.80940
#
# Velocity S-wave (km/s) = 3.79189 6.21852 5.15017
# Velocity P-wave (km/s) = 6.11418 8.89781 7.63394
#
# Compressibility (1/GPa) = 0.02609626
#
# Stress axis : x y z
#
# Youngs Moduli (GPa) = 56.31703 56.31703 54.03432
#
# Poissons Ratio (x) = 0.75094 0.01696
# Poissons Ratio (y) = 0.75094 0.01696
# Poissons Ratio (z) = 0.01768 0.01768
#
# Static dielectric constant tensor:
#      x y z
#    x 1.737840 0.000000 0.000000 
#    y 0.000000 1.737840 0.000000 
#    z 0.000000 0.000000 1.802650 
# 
# From -- ./inp_files/1861.got.cif
#   From: 2010.05.17/outbox.cif.g08.bks.cpg/sg187_1_cif.got.tgz:1861.got - 2010.05.20 12:09:04.
