data_PCOD9585552
_publ_section_title
;
Structure prediction by ZEFSAII (Michael W. Deem and Ramdas Pophale) SiO2 
 PCOD9585552
Probable space group: P -6 M 2
;
_chemical_formula_sum "Si O2"
_cell_formula_units_Z 84
_cell_length_a 17.425425
_cell_length_b 17.425425
_cell_length_c 18.432264
_cell_angle_alpha 90.000000
_cell_angle_beta 90.000000
_cell_angle_gamma 120.000000
_cell_volume 4847.034067
_symmetry_space_group_name_H-M "P -6 M 2"
_symmetry_group_IT_number 187
_symmetry_cell_setting 'hexagonal'
loop_
_space_group_symop_operation_xyz
x,y,z
-x+y,-x,-z
-y,x-y,z
x,y,-z
-x+y,-x,z
-y,x-y,-z
-y,-x,-z
-x+y,y,-z
x,x-y,-z
-x+y,y,z
x,x-y,z
-y,-x,z
loop_
_atom_site_type_symbol
_atom_site_label
_atom_site_fract_x
_atom_site_fract_y
_atom_site_fract_z
Si Si1 0.391655 0.431996 0.144862
Si Si2 0.511308 0.665703 0.000000
Si Si3 0.817690 0.817302 0.678724
Si Si4 0.741082 0.081092 0.214810
Si Si5 0.334793 0.485411 0.706268
Si Si6 0.849018 0.333726 0.340776
Si Si7 0.266853 0.919875 0.417997
Si Si8 0.484388 0.150630 0.500000
O O1 0.496463 0.503538 0.145597
O O2 0.352683 0.449394 0.072333
O O3 0.366359 0.330934 0.152693
O O4 0.351788 0.452503 0.216887
O O5 0.407052 0.592949 0.000000
O O6 0.525759 0.762880 0.000000
O O7 0.912635 0.825269 0.667741
O O8 0.773555 0.755882 0.749386
O O9 0.750837 0.765292 0.612838
O O10 0.824691 0.912346 0.685966
O O11 0.828239 0.171762 0.193354
O O12 0.693073 0.104640 0.279246
O O13 0.243621 0.487241 0.709631
O O14 0.417453 0.582548 0.692795
O O15 0.326797 0.419746 0.641533
O O16 0.853680 0.426840 0.326124
O O17 0.746663 0.253337 0.343311
O O18 0.890421 0.339444 0.420820
O O19 0.301591 0.939999 0.500000
O O20 0.176246 0.823755 0.419862
O O21 0.586003 0.172006 0.500000
O O22 0.480666 0.240333 0.500000
#
# Coordination Sequence:
#
# PCOD9585552 Si02
#       8
#    12   6  12  12  12  12  12   6
#     4  10  20  35  55  81 113 146 178 215 263 316
#     4  10  21  36  59  90 122 150 176 208 249 304
#     4  10  20  35  54  74  96 127 171 226 284 337
#     4  10  20  34  52  76 104 136 175 220 268 318
#     4  10  19  32  52  77 108 145 182 217 256 311
#     4   9  16  27  44  68 100 138 179 221 264 313
#     4   9  18  33  51  72 100 134 173 221 272 315
#     4   8  13  22  38  62  93 130 172 216 260 304
#
# _framework density 17.330185
#
# number of rings (size 3 to 8) (size 9 to 14) (size 15 to 20)
#    0.000    2.429    1.429    1.429    0.000    2.286 
#    1.286    1.786    0.000    2.000    0.000    0.000 
#    0.000    0.000    0.000    0.000    0.000    1.571 
#
# Total GULP energy -468696.685779 kJ/mol
# GULP energy per Si atom -5579.722450 kJ/mol
# Density = 1.729074 g / cm^3
# Si number density = 17.330185 Si / 1000 Ang^3
#
#
#
# Elastic Constant Matrix: (Units=GPa)
#
#
# Indices 1 2 3 4 5 6 
#
# 1 79.4734 35.4269 39.5980 0.0000 0.0000 0.0000
# 2 35.4269 79.4734 39.5980 0.0000 0.0000 0.0000
# 3 39.5980 39.5980 90.7814 0.0000 0.0000 0.0000
# 4 0.0000 0.0000 0.0000 17.8659 0.0000 0.0000
# 5 0.0000 0.0000 0.0000 0.0000 17.8659 0.0000
# 6 0.0000 0.0000 0.0000 0.0000 0.0000 22.0233
#
#
#
# Elastic Compliance Matrix: (Units=1/GPa)
#
#
# Indices 1 2 3 4 5 6 
#
# 1 0.017574 -0.005129 -0.005428 0.000000 0.000000 0.000000
# 2 -0.005129 0.017574 -0.005428 0.000000 0.000000 0.000000
# 3 -0.005428 -0.005428 0.015751 0.000000 0.000000 0.000000
# 4 0.000000 0.000000 0.000000 0.055973 0.000000 0.000000
# 5 0.000000 0.000000 0.000000 0.000000 0.055973 0.000000
# 6 0.000000 0.000000 0.000000 0.000000 0.000000 0.045407
#
#
# Mechanical properties :
#
#
# Convention : Reuss Voigt Hill
#
# Bulk Modulus (GPa) = 52.83369 53.21932 53.02650
# Shear Modulus (GPa) = 20.28140 20.55804 20.41972
#
# Velocity S-wave (km/s) = 3.42467 3.44794 3.43632
# Velocity P-wave (km/s) = 6.79636 6.82838 6.81239
#
# Compressibility (1/GPa) = 0.01892732
#
# Stress axis : x y z
#
# Youngs Moduli (GPa) = 56.90239 56.90239 63.48817
#
# Poissons Ratio (x) = 0.29187 0.34463
# Poissons Ratio (y) = 0.29187 0.34463
# Poissons Ratio (z) = 0.30888 0.30888
#
# Static dielectric constant tensor:
#      x y z
#    x 1.596800 0.000000 0.000000 
#    y 0.000000 1.596800 0.000000 
#    z 0.000000 0.000000 1.572240 
# 
# From -- ./inp_files/2662.got.cif
#   From: 2010.05.17/outbox.cif.g08.bks.cpg/sg187_2_cif.got.tgz:2662.got - 2010.05.20 12:09:04.
