data_PCOD9585419
_publ_section_title
;
Structure prediction by ZEFSAII (Michael W. Deem and Ramdas Pophale) SiO2 
 PCOD9585419
Probable space group: P -6 M 2
;
_chemical_formula_sum "Si O2"
_cell_formula_units_Z 90
_cell_length_a 17.507429
_cell_length_b 17.507429
_cell_length_c 20.002344
_cell_angle_alpha 90.000000
_cell_angle_beta 90.000000
_cell_angle_gamma 120.000000
_cell_volume 5309.532350
_symmetry_space_group_name_H-M "P -6 M 2"
_symmetry_group_IT_number 187
_symmetry_cell_setting 'hexagonal'
loop_
_space_group_symop_operation_xyz
x,y,z
-x+y,-x,-z
-y,x-y,z
x,y,-z
-x+y,-x,z
-y,x-y,-z
-y,-x,-z
-x+y,y,-z
x,x-y,-z
-x+y,y,z
x,x-y,z
-y,-x,z
loop_
_atom_site_type_symbol
_atom_site_label
_atom_site_fract_x
_atom_site_fract_y
_atom_site_fract_z
Si Si1 0.585205 0.999507 0.119474
Si Si2 0.836257 0.333046 0.219256
Si Si3 0.000088 0.179080 0.213308
Si Si4 0.153301 0.665707 0.771261
Si Si5 0.390362 0.435303 0.366946
Si Si6 0.334833 0.252478 0.320180
Si Si7 0.277790 0.050419 0.926662
Si Si8 0.160840 0.664975 0.500000
O O1 0.493996 0.987991 0.089400
O O2 0.558568 0.916019 0.168248
O O3 0.624307 0.085412 0.166464
O O4 0.669637 0.020963 0.075297
O O5 0.818771 0.409386 0.244532
O O6 0.747341 0.252660 0.190056
O O7 0.870513 0.294054 0.276182
O O8 0.922965 0.077036 0.218099
O O9 0.974911 0.230510 0.268157
O O10 0.992249 0.210159 0.138690
O O11 0.095376 0.190752 0.224532
O O12 0.181826 0.590913 0.773882
O O13 0.237169 0.762832 0.775457
O O14 0.101905 0.649576 0.700882
O O15 0.496265 0.503736 0.361758
O O16 0.354736 0.331453 0.369647
O O17 0.358665 0.462244 0.433039
O O18 0.319110 0.159555 0.348240
O O19 0.311850 0.155925 0.919715
O O20 0.233730 0.024941 0.000000
O O21 0.234755 0.765246 0.500000
O O22 0.202434 0.601217 0.500000
#
# Coordination Sequence:
#
# PCOD9585419 Si02
#       8
#    12  12  12  12  12  12  12   6
#     4  10  19  31  48  70  97 126 158 200 244 289
#     4  10  17  28  46  70  98 125 155 192 237 289
#     4  10  20  34  51  72  96 125 158 198 248 300
#     4  10  19  31  49  72  99 130 164 204 249 295
#     4  10  19  33  50  73 103 135 168 205 246 290
#     4  10  19  32  52  74 100 129 159 202 251 294
#     4  10  20  34  50  68  93 125 159 196 243 296
#     4  10  21  34  51  74 106 142 174 204 241 288
#
# _framework density 16.950645000000002
#
# number of rings (size 3 to 8) (size 9 to 14) (size 15 to 20)
#    0.000    2.000    2.667    1.667    0.000    3.200 
#    0.000    1.667    0.000    1.333    0.000    0.000 
#    0.000    1.067    0.000    0.000    0.000    0.000 
#
# Total GULP energy -501366.577405 kJ/mol
# GULP energy per Si atom -5570.739749 kJ/mol
# Density = 1.691206 g / cm^3
# Si number density = 16.950645 Si / 1000 Ang^3
#
#
#
# Elastic Constant Matrix: (Units=GPa)
#
#
# Indices 1 2 3 4 5 6 
#
# 1 95.5164 51.6572 25.5338 0.0000 0.0000 0.0000
# 2 51.6572 95.5164 25.5338 0.0000 0.0000 0.0000
# 3 25.5338 25.5338 46.3420 0.0000 0.0000 0.0000
# 4 0.0000 0.0000 0.0000 12.0298 0.0000 0.0000
# 5 0.0000 0.0000 0.0000 0.0000 12.0298 0.0000
# 6 0.0000 0.0000 0.0000 0.0000 0.0000 21.9296
#
#
#
# Elastic Compliance Matrix: (Units=1/GPa)
#
#
# Indices 1 2 3 4 5 6 
#
# 1 0.015601 -0.007200 -0.004629 0.000000 0.000000 0.000000
# 2 -0.007200 0.015601 -0.004629 0.000000 0.000000 0.000000
# 3 -0.004629 -0.004629 0.026679 0.000000 0.000000 0.000000
# 4 0.000000 0.000000 0.000000 0.083127 0.000000 0.000000
# 5 0.000000 0.000000 0.000000 0.000000 0.083127 0.000000
# 6 0.000000 0.000000 0.000000 0.000000 0.000000 0.045600
#
#
# Mechanical properties :
#
#
# Convention : Reuss Voigt Hill
#
# Bulk Modulus (GPa) = 40.05425 49.20270 44.62848
# Shear Modulus (GPa) = 16.07867 18.17452 17.12659
#
# Velocity S-wave (km/s) = 3.08321 3.27800 3.18210
# Velocity P-wave (km/s) = 6.02960 6.58917 6.31559
#
# Compressibility (1/GPa) = 0.02496614
#
# Stress axis : x y z
#
# Youngs Moduli (GPa) = 64.10046 64.10046 37.48202
#
# Poissons Ratio (x) = 0.46150 0.17349
# Poissons Ratio (y) = 0.46150 0.17349
# Poissons Ratio (z) = 0.29670 0.29670
#
# Static dielectric constant tensor:
#      x y z
#    x 1.599270 0.000000 0.000000 
#    y 0.000000 1.599270 0.000000 
#    z 0.000000 0.000000 1.549110 
# 
# From -- ./inp_files/3275.got.cif
#   From: 2010.05.17/outbox.cif.g08.bks.cpg/sg187_2_cif.got.tgz:3275.got - 2010.05.20 12:09:04.
