data_PCOD9585199
_publ_section_title
;
Structure prediction by ZEFSAII (Michael W. Deem and Ramdas Pophale) SiO2 
 PCOD9585199
Probable space group: P 6 C C
;
_chemical_formula_sum "Si O2"
_cell_formula_units_Z 56
_cell_length_a 13.278265
_cell_length_b 13.278265
_cell_length_c 17.912003
_cell_angle_alpha 90.000000
_cell_angle_beta 90.000000
_cell_angle_gamma 120.000000
_cell_volume 2735.000743
_symmetry_space_group_name_H-M "P 6 C C"
_symmetry_group_IT_number 184
_symmetry_cell_setting 'hexagonal'
loop_
_space_group_symop_operation_xyz
x,y,z
x-y,x,z
-y,x-y,z
-x,-y,z
-x+y,-x,z
y,-x+y,z
-x+y,y,1/2+z
x,x-y,1/2+z
-y,-x,1/2+z
y,x,1/2+z
x-y,-y,1/2+z
-x,-x+y,1/2+z
loop_
_atom_site_type_symbol
_atom_site_label
_atom_site_fract_x
_atom_site_fract_y
_atom_site_fract_z
Si Si1 0.594833 0.804833 0.037600
Si Si2 0.090784 0.630400 0.791125
Si Si3 0.611852 0.625456 0.946114
Si Si4 0.333335 0.666668 0.038036
Si Si5 0.333333 0.666666 0.855816
Si Si6 0.095679 0.273571 0.186182
O O1 0.463201 0.753198 0.065838
O O2 0.677305 0.804316 0.101863
O O3 0.583466 0.723847 0.967801
O O4 0.639567 0.929430 0.002660
O O5 0.023187 0.645763 0.861338
O O6 0.206545 0.635720 0.824469
O O7 0.121598 0.735731 0.735383
O O8 0.000000 0.500000 0.760668
O O9 0.500000 0.500000 0.959887
O O10 0.333334 0.666667 0.946615
O O11 0.178749 0.218564 0.199468
#
# Coordination Sequence:
#
# PCOD9585199 Si02
#       6
#    12  12  12   4   4  12
#     4  12  23  41  67 100 137 181 229 290 349 424
#     4  11  25  43  71 103 143 183 227 292 357 432
#     4  11  23  41  69 103 136 178 228 284 355 423
#     4  12  21  37  71 103 141 172 227 286 354 430
#     4  12  21  43  68 103 138 181 227 283 357 421
#     4  12  28  48  68  96 139 190 240 295 356 419
#
# _framework density 20.475314999999998
#
# number of rings (size 3 to 8) (size 9 to 14) (size 15 to 20)
#    0.000    0.429    6.429    2.786    3.000    4.286 
#    0.000    0.000    0.000    0.000    0.000    0.000 
#    0.000    0.000    0.000    0.000    0.000    0.000 
#
# Total GULP energy -313002.593550 kJ/mol
# GULP energy per Si atom -5589.332028 kJ/mol
# Density = 2.042871 g / cm^3
# Si number density = 20.475315 Si / 1000 Ang^3
#
#
#
# Elastic Constant Matrix: (Units=GPa)
#
#
# Indices 1 2 3 4 5 6 
#
# 1 63.1515 33.0254 27.8923 -0.0001 0.0000 0.0004
# 2 33.0254 63.1522 27.8920 0.0001 0.0002 0.0000
# 3 27.8923 27.8920 67.7924 0.0000 0.0001 -0.0002
# 4 -0.0001 0.0001 0.0000 34.9207 0.0001 -0.0001
# 5 0.0000 0.0002 0.0001 0.0001 34.9207 0.0001
# 6 0.0004 0.0000 -0.0002 -0.0001 0.0001 15.0629
#
#
#
# Elastic Compliance Matrix: (Units=1/GPa)
#
#
# Indices 1 2 3 4 5 6 
#
# 1 0.023425 -0.009769 -0.005619 0.000000 0.000000 -0.000001
# 2 -0.009769 0.023425 -0.005619 0.000000 0.000000 0.000000
# 3 -0.005619 -0.005619 0.019374 0.000000 0.000000 0.000000
# 4 0.000000 0.000000 0.000000 0.028636 0.000000 0.000000
# 5 0.000000 0.000000 0.000000 0.000000 0.028636 0.000000
# 6 -0.000001 0.000000 0.000000 0.000000 0.000000 0.066388
#
#
# Mechanical properties :
#
#
# Convention : Reuss Voigt Hill
#
# Bulk Modulus (GPa) = 41.30127 41.30172 41.30149
# Shear Modulus (GPa) = 20.83613 23.99995 22.41804
#
# Velocity S-wave (km/s) = 3.19348 3.42737 3.31249
# Velocity P-wave (km/s) = 5.81488 5.98980 5.90299
#
# Compressibility (1/GPa) = 0.02421233
#
# Stress axis : x y z
#
# Youngs Moduli (GPa) = 42.68920 42.68995 51.61448
#
# Poissons Ratio (x) = 0.41702 0.29001
# Poissons Ratio (y) = 0.41701 0.29000
# Poissons Ratio (z) = 0.23986 0.23986
#
# Static dielectric constant tensor:
#      x y z
#    x 1.668370 0.000000 0.000000 
#    y 0.000000 1.668370 0.000000 
#    z 0.000000 0.000000 1.722440 
# 
# From -- ./inp_files/835.got.cif
#   From: 2010.05.17/outbox.cif.g08.bks.cpg/sg184_cif.got.tgz:835.got - 2010.05.20 12:04:40.
