data_PCOD9585953
_publ_section_title
;
Structure prediction by ZEFSAII (Michael W. Deem and Ramdas Pophale) SiO2 
 PCOD9585953
Probable space group: P -6 C 2
;
_chemical_formula_sum "Si O2"
_cell_formula_units_Z 84
_cell_length_a 16.426044
_cell_length_b 16.426044
_cell_length_c 15.235710
_cell_angle_alpha 90.000000
_cell_angle_beta 90.000000
_cell_angle_gamma 120.000000
_cell_volume 3560.076194
_symmetry_space_group_name_H-M "P -6 C 2"
_symmetry_group_IT_number 188
_symmetry_cell_setting 'hexagonal'
loop_
_space_group_symop_operation_xyz
x,y,z
-x+y,-x,1/2-z
-y,x-y,z
x,y,1/2-z
-x+y,-x,z
-y,x-y,1/2-z
-y,-x,-z
-x+y,y,-z
x,x-y,-z
-x+y,y,1/2+z
x,x-y,1/2+z
-y,-x,1/2+z
loop_
_atom_site_type_symbol
_atom_site_label
_atom_site_fract_x
_atom_site_fract_y
_atom_site_fract_z
Si Si1 0.625651 0.715978 0.346206
Si Si2 0.083148 0.700890 0.031883
Si Si3 0.175123 0.200044 0.356333
Si Si4 0.483625 0.564089 0.843601
Si Si5 0.974006 0.162661 0.148144
Si Si6 0.442255 0.134875 0.011415
Si Si7 0.559746 0.417337 0.149362
O O1 0.628861 0.759620 0.250000
O O2 0.618776 0.752341 0.441527
O O3 0.529305 0.617399 0.346494
O O4 0.729749 0.726478 0.351143
O O5 0.121757 0.639593 0.079320
O O6 0.058781 0.758459 0.101293
O O7 0.976715 0.621843 0.000254
O O8 0.181316 0.208385 0.250000
O O9 0.068654 0.167294 0.385950
O O10 0.201944 0.122792 0.387404
O O11 0.492525 0.611975 0.750000
O O12 0.550584 0.518405 0.843231
O O13 0.970860 0.136264 0.250000
O O14 0.498079 0.149621 0.102882
O O15 0.391244 0.195622 0.000000
O O16 0.515924 0.174682 0.928872
O O17 0.575087 0.394912 0.250000
#
# Coordination Sequence:
#
# PCOD9585953 Si02
#       7
#    12  12  12  12  12  12  12
#     4  10  20  34  54  78 108 147 193 236 289 364
#     4  11  21  32  55  83 112 146 189 246 309 361
#     4  10  21  38  60  86 122 161 209 265 317 374
#     4   9  17  33  55  80 107 135 178 238 300 360
#     4   9  20  38  58  84 118 164 210 258 316 371
#     4  10  21  33  48  73 103 134 179 235 286 348
#     4   9  18  35  52  66  92 134 175 222 287 352
#
# _framework density 23.595001
#
# number of rings (size 3 to 8) (size 9 to 14) (size 15 to 20)
#    0.000    2.286    1.429    1.143    2.000    2.857 
#    3.429    0.000    0.000    1.714    0.000    0.000 
#    2.857    0.000    6.000    0.000    4.571    0.000 
#
# Total GULP energy -467956.872890 kJ/mol
# GULP energy per Si atom -5570.915153 kJ/mol
# Density = 2.354130 g / cm^3
# Si number density = 23.595001 Si / 1000 Ang^3
#
#
#
# Elastic Constant Matrix: (Units=GPa)
#
#
# Indices 1 2 3 4 5 6 
#
# 1 58.2470 31.8415 42.5322 -0.0001 0.0000 0.0000
# 2 31.8415 58.2470 42.5322 0.0001 0.0000 0.0000
# 3 42.5322 42.5322 185.4117 0.0000 0.0000 0.0000
# 4 -0.0001 0.0001 0.0000 19.8344 0.0000 0.0000
# 5 0.0000 0.0000 0.0000 0.0000 19.8344 -0.0001
# 6 0.0000 0.0000 0.0000 0.0000 -0.0001 13.2027
#
#
#
# Elastic Compliance Matrix: (Units=1/GPa)
#
#
# Indices 1 2 3 4 5 6 
#
# 1 0.026020 -0.011851 -0.003250 0.000000 0.000000 0.000000
# 2 -0.011851 0.026020 -0.003250 0.000000 0.000000 0.000000
# 3 -0.003250 -0.003250 0.006885 0.000000 0.000000 0.000000
# 4 0.000000 0.000000 0.000000 0.050418 0.000000 0.000000
# 5 0.000000 0.000000 0.000000 0.000000 0.050418 0.000000
# 6 0.000000 0.000000 0.000000 0.000000 0.000000 0.075742
#
#
# Mechanical properties :
#
#
# Convention : Reuss Voigt Hill
#
# Bulk Modulus (GPa) = 45.00086 59.52419 52.26252
# Shear Modulus (GPa) = 17.88193 22.90761 20.39477
#
# Velocity S-wave (km/s) = 2.75593 3.11925 2.94320
# Velocity P-wave (km/s) = 5.40745 6.18508 5.80929
#
# Compressibility (1/GPa) = 0.02222180
#
# Stress axis : x y z
#
# Youngs Moduli (GPa) = 38.43185 38.43185 145.25139
#
# Poissons Ratio (x) = 0.45545 0.47212
# Poissons Ratio (y) = 0.45545 0.47212
# Poissons Ratio (z) = 0.12492 0.12492
#
# Static dielectric constant tensor:
#      x y z
#    x 1.917720 0.000000 0.000000 
#    y 0.000000 1.917720 0.000000 
#    z 0.000000 0.000000 1.971900 
# 
# From -- ./inp_files/2616.got.cif
#   From: 2010.05.17/outbox.cif.g08.bks.cpg/sg188_2_cif.got.tgz:2616.got - 2010.05.20 12:11:46.
