data_PCOD9585314
_publ_section_title
;
Structure prediction by ZEFSAII (Michael W. Deem and Ramdas Pophale) SiO2 
 PCOD9585314
Probable space group: P 63 C M
;
_chemical_formula_sum "Si O2"
_cell_formula_units_Z 60
_cell_length_a 15.000000
_cell_length_b 15.000000
_cell_length_c 15.000000
_cell_angle_alpha 90.000000
_cell_angle_beta 90.000000
_cell_angle_gamma 120.000000
_cell_volume 2922.835738
_symmetry_space_group_name_H-M "P 63 C M"
_symmetry_group_IT_number 185
_symmetry_cell_setting 'hexagonal'
loop_
_space_group_symop_operation_xyz
x,y,z
x-y,x,1/2+z
-y,x-y,z
-x,-y,1/2+z
-x+y,-x,z
y,-x+y,1/2+z
-x+y,y,1/2+z
x,x-y,1/2+z
-y,-x,1/2+z
y,x,z
x-y,-y,z
-x,-x+y,z
loop_
_atom_site_type_symbol
_atom_site_label
_atom_site_fract_x
_atom_site_fract_y
_atom_site_fract_z
Si Si1 0.887535 0.774228 0.847520
Si Si2 0.397837 0.519528 0.959090
Si Si3 0.882133 0.115843 0.631259
Si Si4 0.272111 0.812900 0.857873
Si Si5 0.124326 0.440344 0.650795
O O1 0.861065 0.861065 0.875593
O O2 0.889969 0.774280 0.739366
O O3 0.794370 0.663319 0.871791
O O4 0.000000 0.801157 0.879813
O O5 0.435496 0.435496 0.950023
O O6 0.302053 0.497502 0.894911
O O7 0.488095 0.627468 0.920383
O O8 0.367995 0.515928 0.065006
O O9 0.851882 0.203541 0.615699
O O10 0.000000 0.160196 0.600532
O O11 0.806443 0.000000 0.598401
O O12 0.301355 0.824316 0.750369
O O13 0.000000 0.382322 0.666432
#
# Coordination Sequence:
#
# PCOD9585314 Si02
#       5
#    12  12  12  12  12
#     4   9  16  29  54  88 124 160 199 246 304 371
#     4  11  24  42  65  94 128 168 215 267 321 376
#     4   8  13  24  46  78 117 161 205 250 303 363
#     4  11  22  40  64  91 123 167 216 263 317 375
#     4   9  20  39  61  89 128 166 208 266 319 373
#
# _framework density 20.528009999999998
#
# number of rings (size 3 to 8) (size 9 to 14) (size 15 to 20)
#    0.000    2.400    0.000    4.400    0.000    4.000 
#    0.000    3.000    0.000    0.000    0.000    2.800 
#    0.000    0.000    0.000    0.000    0.000    2.200 
#
# Total GULP energy -334773.383832 kJ/mol
# GULP energy per Si atom -5579.556397 kJ/mol
# Density = 2.048129 g / cm^3
# Si number density = 20.528010 Si / 1000 Ang^3
#
#
#
# Elastic Constant Matrix: (Units=GPa)
#
#
# Indices 1 2 3 4 5 6 
#
# 1 92.9719 41.9775 49.1744 0.0000 0.0000 0.0000
# 2 41.9775 92.9719 49.1744 0.0000 0.0000 0.0000
# 3 49.1744 49.1744 130.8303 0.0000 0.0000 0.0000
# 4 0.0000 0.0000 0.0000 25.9805 0.0000 0.0000
# 5 0.0000 0.0000 0.0000 0.0000 25.9805 0.0000
# 6 0.0000 0.0000 0.0000 0.0000 0.0000 25.4972
#
#
#
# Elastic Compliance Matrix: (Units=1/GPa)
#
#
# Indices 1 2 3 4 5 6 
#
# 1 0.014908 -0.004702 -0.003836 0.000000 0.000000 0.000000
# 2 -0.004702 0.014908 -0.003836 0.000000 0.000000 0.000000
# 3 -0.003836 -0.003836 0.010527 0.000000 0.000000 0.000000
# 4 0.000000 0.000000 0.000000 0.038490 0.000000 0.000000
# 5 0.000000 0.000000 0.000000 0.000000 0.038490 0.000000
# 6 0.000000 0.000000 0.000000 0.000000 0.000000 0.039220
#
#
# Mechanical properties :
#
#
# Convention : Reuss Voigt Hill
#
# Bulk Modulus (GPa) = 64.12422 66.38075 65.25248
# Shear Modulus (GPa) = 26.81106 27.25481 27.03293
#
# Velocity S-wave (km/s) = 3.61788 3.64770 3.63282
# Velocity P-wave (km/s) = 6.98265 7.08151 7.03225
#
# Compressibility (1/GPa) = 0.01559473
#
# Stress axis : x y z
#
# Youngs Moduli (GPa) = 67.07858 67.07858 94.99282
#
# Poissons Ratio (x) = 0.31541 0.36439
# Poissons Ratio (y) = 0.31541 0.36439
# Poissons Ratio (z) = 0.25731 0.25731
#
# Static dielectric constant tensor:
#      x y z
#    x 1.749850 0.000000 0.000000 
#    y 0.000000 1.749850 0.000000 
#    z 0.000000 0.000000 1.748260 
# 
# From -- ./inp_files/1345.got.cif
#   From: 2010.05.17/outbox.ucp.g08.bks.cvg/sg185_cif.got.tgz:1345.got - 2010.06.11 15:21:21.
