data_PCOD9585130
_publ_section_title
;
Structure prediction by ZEFSAII (Michael W. Deem and Ramdas Pophale) SiO2 
 PCOD9585130
Probable space group: P 6 C C
;
_chemical_formula_sum "Si O2"
_cell_formula_units_Z 56
_cell_length_a 13.931735
_cell_length_b 13.931735
_cell_length_c 14.713969
_cell_angle_alpha 90.000000
_cell_angle_beta 90.000000
_cell_angle_gamma 120.000000
_cell_volume 2473.266291
_symmetry_space_group_name_H-M "P 6 C C"
_symmetry_group_IT_number 184
_symmetry_cell_setting 'hexagonal'
loop_
_space_group_symop_operation_xyz
x,y,z
x-y,x,z
-y,x-y,z
-x,-y,z
-x+y,-x,z
y,-x+y,z
-x+y,y,1/2+z
x,x-y,1/2+z
-y,-x,1/2+z
y,x,1/2+z
x-y,-y,1/2+z
-x,-x+y,1/2+z
loop_
_atom_site_type_symbol
_atom_site_label
_atom_site_fract_x
_atom_site_fract_y
_atom_site_fract_z
Si Si1 0.161668 0.240825 0.887280
Si Si2 0.377945 0.473725 0.923245
Si Si3 0.622052 0.095783 0.643846
Si Si4 0.759165 0.920847 0.179846
Si Si5 0.666667 0.333334 0.922888
Si Si6 0.666667 0.333334 0.644192
O O1 0.206912 0.164269 0.929678
O O2 0.268981 0.362513 0.891168
O O3 0.113234 0.226516 0.783568
O O4 0.500000 0.500000 0.894385
O O5 0.375621 0.467239 0.033546
O O6 0.365025 0.576655 0.893968
O O7 0.731015 0.093542 0.675933
O O8 0.634960 0.211628 0.673116
O O9 0.500000 0.000000 0.672708
O O10 0.793075 0.835728 0.137463
O O11 0.666668 0.333334 0.033540
#
# Coordination Sequence:
#
# PCOD9585130 Si02
#       6
#    12  12  12  12   4   4
#     4  10  21  38  58  82 114 154 198 247 303 363
#     4  10  20  36  59  85 115 151 193 245 307 375
#     4  10  20  36  59  85 115 151 193 245 307 375
#     4  10  21  38  58  82 114 154 198 247 303 363
#     4   9  18  33  52  77 109 144 178 221 289 360
#     4   9  18  33  52  77 109 144 178 221 289 360
#
# _framework density 22.642125
#
# number of rings (size 3 to 8) (size 9 to 14) (size 15 to 20)
#    0.000    2.143    0.000    3.000    0.000    6.857 
#    0.000   15.000    0.000    2.571    0.000    0.000 
#    0.000    0.000    0.000    0.000    0.000    0.000 
#
# Total GULP energy -311927.517126 kJ/mol
# GULP energy per Si atom -5570.134234 kJ/mol
# Density = 2.259059 g / cm^3
# Si number density = 22.642125 Si / 1000 Ang^3
#
#
#
# Elastic Constant Matrix: (Units=GPa)
#
#
# Indices 1 2 3 4 5 6 
#
# 1 253.9074 168.2885 11.2350 0.0000 -0.0002 -0.0001
# 2 168.2885 253.9066 11.2352 0.0000 0.0001 -0.0001
# 3 11.2350 11.2352 82.1801 0.0000 0.0001 0.0000
# 4 0.0000 0.0000 0.0000 8.5347 0.0000 -0.0001
# 5 -0.0002 0.0001 0.0001 0.0000 8.5348 0.0000
# 6 -0.0001 -0.0001 0.0000 -0.0001 0.0000 42.8092
#
#
#
# Elastic Compliance Matrix: (Units=1/GPa)
#
#
# Indices 1 2 3 4 5 6 
#
# 1 0.007033 -0.004647 -0.000326 0.000000 0.000000 0.000000
# 2 -0.004647 0.007033 -0.000326 0.000000 0.000000 0.000000
# 3 -0.000326 -0.000326 0.012258 0.000000 0.000000 0.000000
# 4 0.000000 0.000000 0.000000 0.117169 0.000001 0.000000
# 5 0.000000 0.000000 0.000000 0.000001 0.117167 0.000000
# 6 0.000000 0.000000 0.000000 0.000000 0.000000 0.023359
#
#
# Mechanical properties :
#
#
# Convention : Reuss Voigt Hill
#
# Bulk Modulus (GPa) = 63.59426 107.94573 85.77000
# Shear Modulus (GPa) = 16.67451 38.59143 27.63297
#
# Velocity S-wave (km/s) = 2.71668 4.13293 3.49725
# Velocity P-wave (km/s) = 6.16345 8.39958 7.36686
#
# Compressibility (1/GPa) = 0.01572469
#
# Stress axis : x y z
#
# Youngs Moduli (GPa) = 142.19053 142.19006 81.58219
#
# Poissons Ratio (x) = 0.66074 0.02661
# Poissons Ratio (y) = 0.66074 0.02661
# Poissons Ratio (z) = 0.04638 0.04638
#
# Static dielectric constant tensor:
#      x y z
#    x 1.851860 0.000000 0.000000 
#    y 0.000000 1.851860 0.000000 
#    z 0.000000 0.000000 2.897830 
# 
# From -- ./inp_files/1312.got.cif
#   From: 2010.05.17/outbox.cif.g08.bks.cpg/sg184_cif.got.tgz:1312.got - 2010.05.20 12:04:40.
