data_PCOD9585748
_publ_section_title
;
Structure prediction by ZEFSAII (Michael W. Deem and Ramdas Pophale) SiO2 
 PCOD9585748
Probable space group: P -6 M 2
;
_chemical_formula_sum "Si O2"
_cell_formula_units_Z 90
_cell_length_a 18.346629
_cell_length_b 18.346629
_cell_length_c 17.918251
_cell_angle_alpha 90.000000
_cell_angle_beta 90.000000
_cell_angle_gamma 120.000000
_cell_volume 5223.225855
_symmetry_space_group_name_H-M "P -6 M 2"
_symmetry_group_IT_number 187
_symmetry_cell_setting 'hexagonal'
loop_
_space_group_symop_operation_xyz
x,y,z
-x+y,-x,-z
-y,x-y,z
x,y,-z
-x+y,-x,z
-y,x-y,-z
-y,-x,-z
-x+y,y,-z
x,x-y,-z
-x+y,y,z
x,x-y,z
-y,-x,z
loop_
_atom_site_type_symbol
_atom_site_label
_atom_site_fract_x
_atom_site_fract_y
_atom_site_fract_z
Si Si1 0.589972 0.015499 0.343945
Si Si2 0.424219 0.012322 0.834620
Si Si3 0.824951 0.825325 0.284867
Si Si4 0.768678 0.058200 0.858677
Si Si5 0.935251 0.696206 0.414126
Si Si6 0.332152 0.499649 0.588774
Si Si7 0.173759 0.174153 0.000000
Si Si8 0.165446 0.498465 0.087463
O O1 0.519357 0.038713 0.368665
O O2 0.594379 0.019975 0.254723
O O3 0.680624 0.066712 0.381401
O O4 0.554446 0.919126 0.368468
O O5 0.518855 0.037710 0.859417
O O6 0.377414 0.060114 0.864433
O O7 0.365674 0.916114 0.861359
O O8 0.824710 0.912355 0.278547
O O9 0.775527 0.761432 0.217015
O O10 0.782332 0.775251 0.360990
O O11 0.920680 0.841360 0.282414
O O12 0.848313 0.151688 0.858680
O O13 0.780420 0.009286 0.927468
O O14 0.963854 0.709776 0.500000
O O15 0.843073 0.686146 0.410989
O O16 0.329688 0.482768 0.500000
O O17 0.241697 0.483393 0.612709
O O18 0.402745 0.597256 0.599493
O O19 0.086749 0.173498 0.000000
O O20 0.157662 0.078831 0.000000
O O21 0.241691 0.483381 0.107116
O O22 0.194117 0.597059 0.093340
O O23 0.143028 0.475133 0.000000
#
# Coordination Sequence:
#
# PCOD9585748 Si02
#       8
#    12  12  12  12  12  12   6  12
#     4  10  20  35  54  75 101 133 172 218 267 322
#     4  10  21  36  53  77 105 137 176 221 271 318
#     4  10  20  35  55  79 108 145 184 224 269 322
#     4  10  21  38  58  81 110 145 183 224 276 332
#     4  10  21  37  56  78 104 136 175 220 273 328
#     4   9  17  29  45  66  94 129 167 205 246 294
#     4  10  21  36  57  86 120 154 190 230 275 324
#     4   9  18  32  50  72 102 141 183 222 260 304
#
# _framework density 17.230730999999999
#
# number of rings (size 3 to 8) (size 9 to 14) (size 15 to 20)
#    0.000    2.267    1.333    1.267    0.933    4.267 
#    0.000    1.333    0.000    2.933    0.000    0.000 
#    0.000    0.000    0.000    0.000    0.000    0.000 
#
# Total GULP energy -502019.260694 kJ/mol
# GULP energy per Si atom -5577.991785 kJ/mol
# Density = 1.719151 g / cm^3
# Si number density = 17.230731 Si / 1000 Ang^3
#
#
#
# Elastic Constant Matrix: (Units=GPa)
#
#
# Indices 1 2 3 4 5 6 
#
# 1 64.9307 45.5687 31.1321 0.0000 0.0000 0.0000
# 2 45.5687 64.9307 31.1321 0.0000 0.0000 0.0000
# 3 31.1321 31.1321 76.6805 0.0000 0.0000 0.0000
# 4 0.0000 0.0000 0.0000 22.7500 0.0000 0.0000
# 5 0.0000 0.0000 0.0000 0.0000 22.7500 0.0000
# 6 0.0000 0.0000 0.0000 0.0000 0.0000 9.6810
#
#
#
# Elastic Compliance Matrix: (Units=1/GPa)
#
#
# Indices 1 2 3 4 5 6 
#
# 1 0.031691 -0.019957 -0.004764 0.000000 0.000000 0.000000
# 2 -0.019957 0.031691 -0.004764 0.000000 0.000000 0.000000
# 3 -0.004764 -0.004764 0.016910 0.000000 0.000000 0.000000
# 4 0.000000 0.000000 0.000000 0.043956 0.000000 0.000000
# 5 0.000000 0.000000 0.000000 0.000000 0.043956 0.000000
# 6 0.000000 0.000000 0.000000 0.000000 0.000000 0.103295
#
#
# Mechanical properties :
#
#
# Convention : Reuss Voigt Hill
#
# Bulk Modulus (GPa) = 46.90045 46.91197 46.90621
# Shear Modulus (GPa) = 14.81154 17.61682 16.21418
#
# Velocity S-wave (km/s) = 2.93507 3.20098 3.07091
# Velocity P-wave (km/s) = 6.22610 6.39895 6.31312
#
# Compressibility (1/GPa) = 0.02132176
#
# Stress axis : x y z
#
# Youngs Moduli (GPa) = 31.55487 31.55487 59.13820
#
# Poissons Ratio (x) = 0.62973 0.28174
# Poissons Ratio (y) = 0.62973 0.28174
# Poissons Ratio (z) = 0.15033 0.15033
#
# Static dielectric constant tensor:
#      x y z
#    x 1.576720 0.000000 0.000000 
#    y 0.000000 1.576720 0.000000 
#    z 0.000000 0.000000 1.591450 
# 
# From -- ./inp_files/3227.got.cif
#   From: 2010.05.17/outbox.cif.g08.bks.cpg/sg187_2_cif.got.tgz:3227.got - 2010.05.20 12:09:04.
