data_PCOD9585666
_publ_section_title
;
Structure prediction by ZEFSAII (Michael W. Deem and Ramdas Pophale) SiO2 
 PCOD9585666
Probable space group: P -6 M 2
;
_chemical_formula_sum "Si O2"
_cell_formula_units_Z 66
_cell_length_a 12.874350
_cell_length_b 12.874350
_cell_length_c 28.919053
_cell_angle_alpha 90.000000
_cell_angle_beta 90.000000
_cell_angle_gamma 120.000000
_cell_volume 4151.120325
_symmetry_space_group_name_H-M "P -6 M 2"
_symmetry_group_IT_number 187
_symmetry_cell_setting 'hexagonal'
loop_
_space_group_symop_operation_xyz
x,y,z
-x+y,-x,-z
-y,x-y,z
x,y,-z
-x+y,-x,z
-y,x-y,-z
-y,-x,-z
-x+y,y,-z
x,x-y,-z
-x+y,y,z
x,x-y,z
-y,-x,z
loop_
_atom_site_type_symbol
_atom_site_label
_atom_site_fract_x
_atom_site_fract_y
_atom_site_fract_z
Si Si1 0.913509 0.579519 0.134430
Si Si2 0.333699 0.420664 0.324198
Si Si3 0.913590 0.580647 0.239566
Si Si4 0.247159 0.999611 0.948509
Si Si5 0.914112 0.333534 0.587855
Si Si6 0.753946 0.001123 0.500000
O O1 0.779974 0.559947 0.130734
O O2 0.909422 0.454711 0.128766
O O3 0.954657 0.623123 0.186937
O O4 0.990256 0.669037 0.093863
O O5 0.205978 0.411956 0.328777
O O6 0.440907 0.559094 0.323165
O O7 0.345284 0.359357 0.277407
O O8 0.363158 0.359380 0.366954
O O9 0.791765 0.583529 0.248257
O O10 0.887050 0.443525 0.242488
O O11 0.228646 0.114323 0.945241
O O12 0.298512 0.004302 0.000000
O O13 0.120774 0.879227 0.945414
O O14 0.902905 0.451453 0.579349
O O15 0.783053 0.216948 0.594319
O O16 0.976099 0.306319 0.544825
O O17 0.742728 0.871364 0.500000
O O18 0.893292 0.106709 0.500000
#
# Coordination Sequence:
#
# PCOD9585666 Si02
#       6
#    12  12  12  12  12   6
#     4   9  17  29  46  69  95 121 149 184 230 281
#     4  10  20  33  49  69  95 127 161 197 236 279
#     4   9  17  30  49  71  94 121 153 191 233 277
#     4   9  17  29  45  64  86 115 152 192 231 271
#     4  10  20  34  54  78 102 128 160 202 247 287
#     4  10  20  34  52  74 102 136 170 200 234 282
#
# _framework density 15.899323000000001
#
# number of rings (size 3 to 8) (size 9 to 14) (size 15 to 20)
#    0.000    2.545    0.000    2.364    0.000    3.273 
#    0.000    2.727    0.000    8.000    0.000    0.000 
#    0.000    0.000    0.000    0.000    0.000    0.000 
#
# Total GULP energy -367894.815335 kJ/mol
# GULP energy per Si atom -5574.163869 kJ/mol
# Density = 1.586314 g / cm^3
# Si number density = 15.899323 Si / 1000 Ang^3
#
#
#
# Elastic Constant Matrix: (Units=GPa)
#
#
# Indices 1 2 3 4 5 6 
#
# 1 95.2215 58.9362 73.0524 0.0000 0.0000 0.0000
# 2 58.9362 95.2215 73.0524 0.0000 0.0000 0.0000
# 3 73.0524 73.0524 138.8650 0.0000 0.0000 0.0000
# 4 0.0000 0.0000 0.0000 22.9273 0.0000 0.0000
# 5 0.0000 0.0000 0.0000 0.0000 22.9273 0.0000
# 6 0.0000 0.0000 0.0000 0.0000 0.0000 18.1427
#
#
#
# Elastic Compliance Matrix: (Units=1/GPa)
#
#
# Indices 1 2 3 4 5 6 
#
# 1 0.020248 -0.007311 -0.006806 0.000000 0.000000 0.000000
# 2 -0.007311 0.020248 -0.006806 0.000000 0.000000 0.000000
# 3 -0.006806 -0.006806 0.014362 0.000000 0.000000 0.000000
# 4 0.000000 0.000000 0.000000 0.043616 0.000000 0.000000
# 5 0.000000 0.000000 0.000000 0.000000 0.043616 0.000000
# 6 0.000000 0.000000 0.000000 0.000000 0.000000 0.055119
#
#
# Mechanical properties :
#
#
# Convention : Reuss Voigt Hill
#
# Bulk Modulus (GPa) = 76.84670 82.15446 79.50058
# Shear Modulus (GPa) = 20.54293 21.08390 20.81342
#
# Velocity S-wave (km/s) = 3.59843 3.64550 3.62204
# Velocity P-wave (km/s) = 8.10575 8.33687 8.22212
#
# Compressibility (1/GPa) = 0.01301292
#
# Stress axis : x y z
#
# Youngs Moduli (GPa) = 49.38692 49.38692 69.62868
#
# Poissons Ratio (x) = 0.36107 0.47388
# Poissons Ratio (y) = 0.36107 0.47388
# Poissons Ratio (z) = 0.33612 0.33612
#
# Static dielectric constant tensor:
#      x y z
#    x 1.499660 0.000000 0.000000 
#    y 0.000000 1.499660 0.000000 
#    z 0.000000 0.000000 1.547810 
# 
# From -- ./inp_files/4458.got.cif
#   From: 2010.05.17/outbox.cif.g08.bks.cpg/sg187_3_cif.got.tgz:4458.got - 2010.05.20 12:09:04.
