data_PCOD9585797
_publ_section_title
;
Structure prediction by ZEFSAII (Michael W. Deem and Ramdas Pophale) SiO2 
 PCOD9585797
Probable space group: P -6 M 2
;
_chemical_formula_sum "Si O2"
_cell_formula_units_Z 62
_cell_length_a 21.969816
_cell_length_b 21.969816
_cell_length_c 7.824788
_cell_angle_alpha 90.000000
_cell_angle_beta 90.000000
_cell_angle_gamma 120.000000
_cell_volume 3270.815528
_symmetry_space_group_name_H-M "P -6 M 2"
_symmetry_group_IT_number 187
_symmetry_cell_setting 'hexagonal'
loop_
_space_group_symop_operation_xyz
x,y,z
-x+y,-x,-z
-y,x-y,z
x,y,-z
-x+y,-x,z
-y,x-y,-z
-y,-x,-z
-x+y,y,-z
x,x-y,-z
-x+y,y,z
x,x-y,z
-y,-x,z
loop_
_atom_site_type_symbol
_atom_site_label
_atom_site_fract_x
_atom_site_fract_y
_atom_site_fract_z
Si Si1 0.550299 0.963402 0.293497
Si Si2 0.666667 0.333334 0.290190
Si Si3 0.987809 0.228759 0.696201
Si Si4 0.997838 0.139341 0.000000
Si Si5 0.747646 0.252355 0.295785
Si Si6 0.698328 0.603796 0.800048
Si Si7 0.619442 0.877625 0.707125
O O1 0.546313 0.959235 0.500000
O O2 0.479383 0.958765 0.228390
O O3 0.566374 0.903139 0.231011
O O4 0.619216 0.036850 0.249529
O O5 0.666667 0.333334 0.500000
O O6 0.707372 0.292629 0.233631
O O7 0.992201 0.209535 0.500000
O O8 0.926407 0.248807 0.709377
O O9 0.059132 0.301770 0.740359
O O10 0.982244 0.172982 0.833838
O O11 0.943291 0.056710 0.000000
O O12 0.077522 0.155043 0.000000
O O13 0.746201 0.253800 0.500000
O O14 0.828443 0.287816 0.239840
O O15 0.708258 0.619423 0.000000
O O16 0.613694 0.872795 0.500000
O O17 0.608574 0.804287 0.773298
#
# Coordination Sequence:
#
# PCOD9585797 Si02
#       7
#    12   2  12   6   6  12  12
#     4   9  18  32  51  77 112 154 195 236 293 358
#     4   9  24  45  61  83 115 171 229 257 304 385
#     4  10  21  40  64  92 120 153 197 252 311 358
#     4  12  27  44  64  90 125 163 201 241 289 361
#     4  11  23  41  63  85 115 157 207 254 303 369
#     4  11  22  37  58  89 117 148 192 252 310 359
#     4   8  14  28  53  81 108 143 190 240 292 350
#
# _framework density 18.955517
#
# number of rings (size 3 to 8) (size 9 to 14) (size 15 to 20)
#    0.000    2.129    0.968    3.871    2.710    1.935 
#    0.000    1.452    0.000    1.548    0.000    2.710 
#    0.000    0.000    0.000    0.581    0.000    3.097 
#
# Total GULP energy -346166.636771 kJ/mol
# GULP energy per Si atom -5583.332851 kJ/mol
# Density = 1.891237 g / cm^3
# Si number density = 18.955517 Si / 1000 Ang^3
#
#
#
# Elastic Constant Matrix: (Units=GPa)
#
#
# Indices 1 2 3 4 5 6 
#
# 1 122.8294 70.5992 15.4961 0.0000 -0.0007 0.0000
# 2 70.5992 122.8295 15.4961 -0.0001 0.0007 0.0000
# 3 15.4961 15.4961 70.0536 0.0000 0.0000 0.0000
# 4 0.0000 -0.0001 0.0000 -9.3758 0.0000 0.0006
# 5 -0.0007 0.0007 0.0000 0.0000 -9.3758 0.0000
# 6 0.0000 0.0000 0.0000 0.0006 0.0000 26.1151
#
#
#
# Elastic Compliance Matrix: (Units=1/GPa)
#
#
# Indices 1 2 3 4 5 6 
#
# 1 0.012253 -0.006893 -0.001186 0.000000 -0.000001 0.000000
# 2 -0.006893 0.012253 -0.001186 0.000000 0.000001 0.000000
# 3 -0.001186 -0.001186 0.014799 0.000000 0.000000 0.000000
# 4 0.000000 0.000000 0.000000 -0.106658 0.000000 0.000002
# 5 -0.000001 0.000001 0.000000 0.000000 -0.106658 0.000000
# 6 0.000000 0.000000 0.000000 0.000002 0.000000 0.038292
#
#
# Mechanical properties :
#
#
# Convention : Reuss Voigt Hill
#
# Bulk Modulus (GPa) = 48.13127 57.65505 52.89316
# Shear Modulus (GPa) = -45.34558 15.74744 -14.79907
#
# Velocity S-wave (km/s) = -4.89633 2.88541 -2.79718
# Velocity P-wave (km/s) = 2.55315 6.44847 4.18714
#
# Compressibility (1/GPa) = 0.02077651
#
# Stress axis : x y z
#
# Youngs Moduli (GPa) = 81.61324 81.61327 67.57067
#
# Poissons Ratio (x) = 0.56257 0.08011
# Poissons Ratio (y) = 0.56257 0.08011
# Poissons Ratio (z) = 0.09676 0.09676
#
# Static dielectric constant tensor:
#      x y z
#    x 1.654450 0.000000 0.000000 
#    y 0.000000 1.654450 0.000000 
#    z 0.000000 0.000000 1.670490 
# 
# From -- ./inp_files/724.got.cif
#   From: 2010.05.17/outbox.cif.g08.bks.cpg/sg187_1_cif.got.tgz:724.got - 2010.05.20 12:09:04.
