data_PCOD9585874
_publ_section_title
;
Structure prediction by ZEFSAII (Michael W. Deem and Ramdas Pophale) SiO2 
 PCOD9585874
Probable space group: P -6 C 2
;
_chemical_formula_sum "Si O2"
_cell_formula_units_Z 72
_cell_length_a 24.053727
_cell_length_b 24.053727
_cell_length_c 8.662289
_cell_angle_alpha 90.000000
_cell_angle_beta 90.000000
_cell_angle_gamma 120.000000
_cell_volume 4340.383021
_symmetry_space_group_name_H-M "P -6 C 2"
_symmetry_group_IT_number 188
_symmetry_cell_setting 'hexagonal'
loop_
_space_group_symop_operation_xyz
x,y,z
-x+y,-x,1/2-z
-y,x-y,z
x,y,1/2-z
-x+y,-x,z
-y,x-y,1/2-z
-y,-x,-z
-x+y,y,-z
x,x-y,-z
-x+y,y,1/2+z
x,x-y,1/2+z
-y,-x,1/2+z
loop_
_atom_site_type_symbol
_atom_site_label
_atom_site_fract_x
_atom_site_fract_y
_atom_site_fract_z
Si Si1 0.404361 0.471683 0.564309
Si Si2 0.734732 0.804683 0.934947
Si Si3 0.876487 0.000962 0.434802
Si Si4 0.791182 0.332521 0.565395
Si Si5 0.924251 0.399352 0.435305
Si Si6 0.261782 0.862716 0.065032
O O1 0.407327 0.476374 0.750000
O O2 0.461912 0.538089 0.500000
O O3 0.418270 0.413734 0.524136
O O4 0.332932 0.452734 0.514651
O O5 0.727886 0.802259 0.750000
O O6 0.805245 0.816836 0.974001
O O7 0.737101 0.868551 0.000000
O O8 0.669957 0.749295 0.009204
O O9 0.880999 0.999943 0.250000
O O10 0.933373 0.066628 0.500000
O O11 0.882536 0.941268 0.500000
O O12 0.789226 0.333879 0.750000
O O13 0.732335 0.267666 0.500000
O O14 0.785675 0.392838 0.500000
O O15 0.859874 0.342664 0.509534
O O16 0.917386 0.396268 0.250000
O O17 0.925502 0.462751 0.500000
O O18 0.258095 0.859663 0.250000
O O19 0.203849 0.796152 0.000000
#
# Coordination Sequence:
#
# PCOD9585874 Si02
#       6
#    12  12  12  12  12  12
#     4   9  19  33  52  77 103 127 155 188 226 269
#     4   9  17  29  45  66  90 121 158 197 237 280
#     4  10  19  29  42  61  88 120 158 200 246 292
#     4  11  20  30  43  63  90 122 159 201 246 292
#     4   9  16  29  46  66  91 120 154 194 235 278
#     4  10  19  32  51  77 103 128 155 188 227 269
#
# _framework density 16.588397000000001
#
# number of rings (size 3 to 8) (size 9 to 14) (size 15 to 20)
#    0.000    2.333    0.000    5.833    0.000    4.000 
#    0.000    0.000    0.000    1.333    0.000    2.333 
#    0.000    0.000    0.000    0.000    0.000    0.000 
#
# Total GULP energy -400997.415205 kJ/mol
# GULP energy per Si atom -5569.408545 kJ/mol
# Density = 1.655064 g / cm^3
# Si number density = 16.588397 Si / 1000 Ang^3
#
#
#
# Elastic Constant Matrix: (Units=GPa)
#
#
# Indices 1 2 3 4 5 6 
#
# 1 103.6781 58.6149 35.5091 0.0000 0.0000 0.0000
# 2 58.6149 103.6781 35.5091 0.0000 0.0000 0.0000
# 3 35.5091 35.5091 77.0168 0.0000 0.0000 0.0000
# 4 0.0000 0.0000 0.0000 10.4122 0.0000 0.0000
# 5 0.0000 0.0000 0.0000 0.0000 10.4122 0.0000
# 6 0.0000 0.0000 0.0000 0.0000 0.0000 22.5316
#
#
#
# Elastic Compliance Matrix: (Units=1/GPa)
#
#
# Indices 1 2 3 4 5 6 
#
# 1 0.014955 -0.007236 -0.003559 0.000000 0.000000 0.000000
# 2 -0.007236 0.014955 -0.003559 0.000000 0.000000 0.000000
# 3 -0.003559 -0.003559 0.016266 0.000000 0.000000 0.000000
# 4 0.000000 0.000000 0.000000 0.096041 0.000000 0.000000
# 5 0.000000 0.000000 0.000000 0.000000 0.096041 0.000000
# 6 0.000000 0.000000 0.000000 0.000000 0.000000 0.044382
#
#
# Mechanical properties :
#
#
# Convention : Reuss Voigt Hill
#
# Bulk Modulus (GPa) = 57.24643 60.40433 58.82538
# Shear Modulus (GPa) = 15.76436 18.98720 17.37578
#
# Velocity S-wave (km/s) = 3.08608 3.38687 3.23997
# Velocity P-wave (km/s) = 6.87629 7.19633 7.03813
#
# Compressibility (1/GPa) = 0.01746834
#
# Stress axis : x y z
#
# Youngs Moduli (GPa) = 66.86708 66.86708 61.47831
#
# Poissons Ratio (x) = 0.48385 0.21880
# Poissons Ratio (y) = 0.48385 0.21880
# Poissons Ratio (z) = 0.23797 0.23797
#
# Static dielectric constant tensor:
#      x y z
#    x 1.562970 0.000000 0.000000 
#    y 0.000000 1.562970 0.000000 
#    z 0.000000 0.000000 1.536940 
# 
# From -- ./inp_files/1018.got.cif
#   From: 2010.05.17/outbox.cif.g08.bks.cpg/sg188_1_cif.got.tgz:1018.got - 2010.05.20 12:11:46.
