data_PCOD9585688
_publ_section_title
;
Structure prediction by ZEFSAII (Michael W. Deem and Ramdas Pophale) SiO2 
 PCOD9585688
Probable space group: P -6 M 2
;
_chemical_formula_sum "Si O2"
_cell_formula_units_Z 60
_cell_length_a 12.925801
_cell_length_b 12.925801
_cell_length_c 26.611774
_cell_angle_alpha 90.000000
_cell_angle_beta 90.000000
_cell_angle_gamma 120.000000
_cell_volume 3850.520050
_symmetry_space_group_name_H-M "P -6 M 2"
_symmetry_group_IT_number 187
_symmetry_cell_setting 'hexagonal'
loop_
_space_group_symop_operation_xyz
x,y,z
-x+y,-x,-z
-y,x-y,z
x,y,-z
-x+y,-x,z
-y,x-y,-z
-y,-x,-z
-x+y,y,-z
x,x-y,-z
-x+y,y,z
x,x-y,z
-y,-x,z
loop_
_atom_site_type_symbol
_atom_site_label
_atom_site_fract_x
_atom_site_fract_y
_atom_site_fract_z
Si Si1 0.913858 0.581114 0.890381
Si Si2 0.246024 0.246244 0.405672
Si Si3 0.580041 0.912656 0.500000
Si Si4 0.333735 0.421279 0.685689
Si Si5 0.913843 0.580238 0.000000
Si Si6 0.088321 0.667160 0.199449
O O1 0.786985 0.573969 0.887060
O O2 0.896836 0.448418 0.888191
O O3 0.995893 0.651987 0.843599
O O4 0.969201 0.634087 0.945613
O O5 0.108537 0.217074 0.406755
O O6 0.311775 0.337827 0.451335
O O7 0.304167 0.318120 0.354356
O O8 0.252547 0.126274 0.410083
O O9 0.460069 0.920137 0.500000
O O10 0.549029 0.774515 0.500000
O O11 0.224727 0.449454 0.682432
O O12 0.458661 0.541340 0.675198
O O13 0.335979 0.382622 0.743150
O O14 0.784537 0.569073 0.000000
O O15 0.898160 0.449080 0.000000
O O16 0.110018 0.555009 0.194879
O O17 0.211156 0.788845 0.192589
#
# Coordination Sequence:
#
# PCOD9585688 Si02
#       6
#    12  12   6  12   6  12
#     4   9  16  26  42  63  86 111 141 180 224 268
#     4  10  20  33  50  71  96 125 154 185 222 267
#     4  10  20  34  54  78 100 122 152 194 236 266
#     4   9  17  30  49  70  90 115 150 192 232 266
#     4   8  13  22  37  58  82 108 140 178 220 262
#     4   9  17  29  45  65  89 118 150 183 221 266
#
# _framework density 15.582312
#
# number of rings (size 3 to 8) (size 9 to 14) (size 15 to 20)
#    0.000    2.800    0.000    1.900    0.000    4.000 
#    0.000    3.500    0.000    6.000    0.000    1.400 
#    0.000    0.000    0.000    0.000    0.000    0.000 
#
# Total GULP energy -334074.093179 kJ/mol
# GULP energy per Si atom -5567.901553 kJ/mol
# Density = 1.554685 g / cm^3
# Si number density = 15.582312 Si / 1000 Ang^3
#
#
#
# Elastic Constant Matrix: (Units=GPa)
#
#
# Indices 1 2 3 4 5 6 
#
# 1 76.3491 45.5786 67.7860 0.0000 0.0001 0.0000
# 2 45.5786 76.3491 67.7860 0.0000 -0.0001 0.0000
# 3 67.7860 67.7860 148.0082 0.0000 0.0000 0.0000
# 4 0.0000 0.0000 0.0000 22.5174 0.0000 -0.0001
# 5 0.0001 -0.0001 0.0000 0.0000 22.5174 0.0000
# 6 0.0000 0.0000 0.0000 -0.0001 0.0000 15.3852
#
#
#
# Elastic Compliance Matrix: (Units=1/GPa)
#
#
# Indices 1 2 3 4 5 6 
#
# 1 0.024605 -0.007893 -0.007654 0.000000 0.000000 0.000000
# 2 -0.007893 0.024605 -0.007654 0.000000 0.000000 0.000000
# 3 -0.007654 -0.007654 0.013767 0.000000 0.000000 0.000000
# 4 0.000000 0.000000 0.000000 0.044410 0.000000 0.000000
# 5 0.000000 0.000000 0.000000 0.000000 0.044410 0.000000
# 6 0.000000 0.000000 0.000000 0.000000 0.000000 0.064997
#
#
# Mechanical properties :
#
#
# Convention : Reuss Voigt Hill
#
# Bulk Modulus (GPa) = 60.32979 73.66753 66.99866
# Shear Modulus (GPa) = 18.60655 20.05441 19.33048
#
# Velocity S-wave (km/s) = 3.45930 3.59137 3.52595
# Velocity P-wave (km/s) = 7.39977 8.03593 7.72440
#
# Compressibility (1/GPa) = 0.01657556
#
# Stress axis : x y z
#
# Youngs Moduli (GPa) = 40.64162 40.64162 72.63659
#
# Poissons Ratio (x) = 0.32080 0.55595
# Poissons Ratio (y) = 0.32080 0.55595
# Poissons Ratio (z) = 0.31107 0.31107
#
# Static dielectric constant tensor:
#      x y z
#    x 1.487230 0.000000 0.000000 
#    y 0.000000 1.487230 0.000000 
#    z 0.000000 0.000000 1.563670 
# 
# From -- ./inp_files/4169.got.cif
#   From: 2010.05.17/outbox.cif.g08.bks.cpg/sg187_3_cif.got.tgz:4169.got - 2010.05.20 12:09:04.
