data_PCOD9585065
_publ_section_title
;
Structure prediction by ZEFSAII (Michael W. Deem and Ramdas Pophale) SiO2 
 PCOD9585065
Probable space group: P 6 M M
;
_chemical_formula_sum "Si O2"
_cell_formula_units_Z 96
_cell_length_a 18.077079
_cell_length_b 18.077079
_cell_length_c 20.815764
_cell_angle_alpha 90.000000
_cell_angle_beta 90.000000
_cell_angle_gamma 120.000000
_cell_volume 5890.870817
_symmetry_space_group_name_H-M "P 6 M M"
_symmetry_group_IT_number 183
_symmetry_cell_setting 'hexagonal'
loop_
_space_group_symop_operation_xyz
x,y,z
x-y,x,z
-y,x-y,z
-x,-y,z
-x+y,-x,z
y,-x+y,z
-x+y,y,z
x,x-y,z
-y,-x,z
y,x,z
x-y,-y,z
-x,-x+y,z
loop_
_atom_site_type_symbol
_atom_site_label
_atom_site_fract_x
_atom_site_fract_y
_atom_site_fract_z
Si Si1 0.269789 0.902896 0.047010
Si Si2 0.666889 0.158706 0.165253
Si Si3 0.366262 0.268378 0.568204
Si Si4 0.492714 0.332945 0.683435
Si Si5 0.667546 0.508369 0.926085
Si Si6 0.729808 0.097850 0.804218
Si Si7 0.491707 0.333671 0.311526
Si Si8 0.093797 0.357244 0.420486
O O1 0.170226 0.829775 0.044741
O O2 0.309177 0.890051 0.112760
O O3 0.291627 0.000000 0.041481
O O4 0.315657 0.881778 0.989039
O O5 0.575528 0.151055 0.153030
O O6 0.741913 0.258088 0.161424
O O7 0.667562 0.129286 0.238319
O O8 0.338257 0.169129 0.579071
O O9 0.293989 0.293989 0.579768
O O10 0.444132 0.321978 0.616361
O O11 0.392308 0.287460 0.493281
O O12 0.518782 0.259391 0.685716
O O13 0.574540 0.425461 0.691238
O O14 0.424227 0.309922 0.740138
O O15 0.740853 0.481706 0.925797
O O16 0.574423 0.425578 0.925221
O O17 0.685717 0.568476 0.864335
O O18 0.829870 0.170131 0.805820
O O19 0.706629 0.000000 0.806427
O O20 0.508535 0.254268 0.316909
O O21 0.578587 0.421414 0.320337
O O22 0.424902 0.319868 0.366583
O O23 0.167241 0.334482 0.409515
O O24 0.000000 0.277236 0.416586
#
# Coordination Sequence:
#
# PCOD9585065 Si02
#       8
#    12  12  12  12  12  12  12  12
#     4  10  21  35  50  69  93 122 155 193 237 280
#     4   9  17  29  46  68  95 126 157 187 220 262
#     4   9  18  32  49  68  90 118 151 188 231 277
#     4  10  20  33  49  70  97 128 160 192 226 265
#     4  10  20  33  50  73 102 134 164 192 224 266
#     4  10  21  35  51  72  97 126 159 197 241 283
#     4   9  17  29  45  66  93 125 158 189 221 260
#     4   9  18  32  48  66  89 117 150 188 232 279
#
# _framework density 16.296403000000002
#
# number of rings (size 3 to 8) (size 9 to 14) (size 15 to 20)
#    0.000    2.500    0.000    2.000    0.000    5.500 
#    0.000    5.000    0.000    2.000    0.000    1.750 
#    0.000    6.000    0.000    6.375    0.000    3.750 
#
# Total GULP energy -535257.207901 kJ/mol
# GULP energy per Si atom -5575.595916 kJ/mol
# Density = 1.625931 g / cm^3
# Si number density = 16.296403 Si / 1000 Ang^3
#
#
#
# Elastic Constant Matrix: (Units=GPa)
#
#
# Indices 1 2 3 4 5 6 
#
# 1 80.0041 76.9611 46.8295 0.0000 0.0000 0.0000
# 2 76.9611 80.0041 46.8295 0.0000 0.0000 0.0000
# 3 46.8295 46.8295 88.4451 0.0000 0.0000 0.0000
# 4 0.0000 0.0000 0.0000 15.7674 0.0000 0.0000
# 5 0.0000 0.0000 0.0000 0.0000 15.7674 0.0000
# 6 0.0000 0.0000 0.0000 0.0000 0.0000 1.5215
#
#
#
# Elastic Compliance Matrix: (Units=1/GPa)
#
#
# Indices 1 2 3 4 5 6 
#
# 1 0.168970 -0.159657 -0.004931 0.000000 0.000000 0.000000
# 2 -0.159657 0.168970 -0.004931 0.000000 0.000000 0.000000
# 3 -0.004931 -0.004931 0.016528 0.000000 0.000000 0.000000
# 4 0.000000 0.000000 0.000000 0.063422 0.000000 0.000000
# 5 0.000000 0.000000 0.000000 0.000000 0.063422 0.000000
# 6 0.000000 0.000000 0.000000 0.000000 0.000000 0.657254
#
#
# Mechanical properties :
#
#
# Convention : Reuss Voigt Hill
#
# Bulk Modulus (GPa) = 64.80799 65.52147 65.16473
# Shear Modulus (GPa) = 3.37212 11.80014 7.58613
#
# Velocity S-wave (km/s) = 1.44005 2.69382 2.15991
# Velocity P-wave (km/s) = 6.52837 7.06887 6.80399
#
# Compressibility (1/GPa) = 0.01543020
#
# Stress axis : x y z
#
# Youngs Moduli (GPa) = 5.91821 5.91821 60.50261
#
# Poissons Ratio (x) = 0.94488 0.29834
# Poissons Ratio (y) = 0.94488 0.29834
# Poissons Ratio (z) = 0.02918 0.02918
#
# Static dielectric constant tensor:
#      x y z
#    x 1.528420 0.000000 0.000000 
#    y 0.000000 1.528420 0.000000 
#    z 0.000000 0.000000 1.566260 
# 
# From -- ./inp_files/2988.got.cif
#   From: 2010.05.17/outbox.cif.g08.bks.cpg/sg183_2_cif.got.tgz:2988.got - 2010.05.20 12:02:58.
