data_PCOD9585557
_publ_section_title
;
Structure prediction by ZEFSAII (Michael W. Deem and Ramdas Pophale) SiO2 
 PCOD9585557
Probable space group: P -6 M 2
;
_chemical_formula_sum "Si O2"
_cell_formula_units_Z 96
_cell_length_a 17.533082
_cell_length_b 17.533082
_cell_length_c 19.518851
_cell_angle_alpha 90.000000
_cell_angle_beta 90.000000
_cell_angle_gamma 120.000000
_cell_volume 5196.386053
_symmetry_space_group_name_H-M "P -6 M 2"
_symmetry_group_IT_number 187
_symmetry_cell_setting 'hexagonal'
loop_
_space_group_symop_operation_xyz
x,y,z
-x+y,-x,-z
-y,x-y,z
x,y,-z
-x+y,-x,z
-y,x-y,-z
-y,-x,-z
-x+y,y,-z
x,x-y,-z
-x+y,y,z
x,x-y,z
-y,-x,z
loop_
_atom_site_type_symbol
_atom_site_label
_atom_site_fract_x
_atom_site_fract_y
_atom_site_fract_z
Si Si1 0.665934 0.162791 0.727331
Si Si2 0.152798 0.665965 0.353990
Si Si3 0.241867 0.940951 0.422046
Si Si4 0.281429 0.899418 0.785160
Si Si5 0.999652 0.171266 0.082034
Si Si6 0.839431 0.333355 0.892697
Si Si7 0.940441 0.235483 0.294868
Si Si8 0.027882 0.662195 0.075865
O O1 0.568529 0.137057 0.705540
O O2 0.735028 0.264973 0.713090
O O3 0.666278 0.152634 0.809895
O O4 0.705544 0.106181 0.696439
O O5 0.146241 0.573121 0.367487
O O6 0.253234 0.746767 0.360416
O O7 0.093460 0.690632 0.402134
O O8 0.120646 0.670953 0.277079
O O9 0.255303 0.972656 0.500000
O O10 0.145589 0.854412 0.415803
O O11 0.251484 0.011390 0.365691
O O12 0.185113 0.814888 0.792314
O O13 0.272845 0.983409 0.760970
O O14 0.332753 0.917901 0.856753
O O15 0.907707 0.092294 0.109423
O O16 0.011063 0.267190 0.087474
O O17 0.084228 0.168456 0.110325
O O18 0.999085 0.157845 0.000000
O O19 0.814187 0.407094 0.910561
O O20 0.763014 0.236986 0.913697
O O21 0.933753 0.359360 0.922104
O O22 0.862280 0.137721 0.276341
O O23 0.067715 0.671677 0.000000
#
# Coordination Sequence:
#
# PCOD9585557 Si02
#       8
#    12  12  12  12  12  12  12  12
#     4   9  17  30  50  76 105 138 175 216 259 305
#     4   9  18  33  56  83 109 138 173 213 259 314
#     4   9  19  36  55  79 114 150 178 209 256 310
#     4  10  21  37  54  74 102 139 176 219 277 331
#     4   9  17  29  46  67  90 118 154 199 252 310
#     4  10  20  35  53  74 101 134 171 212 260 315
#     4  10  19  32  54  82 108 140 182 224 264 307
#     4  11  22  35  51  72 100 134 176 225 273 326
#
# _framework density 18.474378999999999
#
# number of rings (size 3 to 8) (size 9 to 14) (size 15 to 20)
#    0.000    2.375    1.250    2.375    0.000    6.750 
#    0.000    0.000    0.000    3.500    0.000    0.000 
#    0.000    2.000    0.000    0.000    0.000    0.000 
#
# Total GULP energy -535459.325041 kJ/mol
# GULP energy per Si atom -5577.701303 kJ/mol
# Density = 1.843233 g / cm^3
# Si number density = 18.474379 Si / 1000 Ang^3
#
#
#
# Elastic Constant Matrix: (Units=GPa)
#
#
# Indices 1 2 3 4 5 6 
#
# 1 35.0441 8.1013 2.8797 0.0000 -0.0009 0.0000
# 2 8.1013 35.0441 2.8797 0.0000 0.0009 0.0000
# 3 2.8797 2.8797 79.2905 0.0000 0.0000 0.0000
# 4 0.0000 0.0000 0.0000 8.6952 0.0000 0.0009
# 5 -0.0009 0.0009 0.0000 0.0000 8.6952 0.0000
# 6 0.0000 0.0000 0.0000 0.0009 0.0000 13.4714
#
#
#
# Elastic Compliance Matrix: (Units=1/GPa)
#
#
# Indices 1 2 3 4 5 6 
#
# 1 0.030203 -0.006913 -0.000846 0.000000 0.000004 0.000000
# 2 -0.006913 0.030203 -0.000846 0.000000 -0.000004 0.000000
# 3 -0.000846 -0.000846 0.012673 0.000000 0.000000 0.000000
# 4 0.000000 0.000000 0.000000 0.115007 0.000000 -0.000008
# 5 0.000004 -0.000004 0.000000 0.000000 0.115007 0.000000
# 6 0.000000 0.000000 0.000000 -0.000008 0.000000 0.074231
#
#
# Mechanical properties :
#
#
# Convention : Reuss Voigt Hill
#
# Bulk Modulus (GPa) = 17.89855 19.67781 18.78818
# Shear Modulus (GPa) = 12.10197 15.20689 13.65443
#
# Velocity S-wave (km/s) = 2.56221 2.87214 2.72159
# Velocity P-wave (km/s) = 4.29681 4.65548 4.47973
#
# Compressibility (1/GPa) = 0.05587046
#
# Stress axis : x y z
#
# Youngs Moduli (GPa) = 33.10933 33.10933 78.90613
#
# Poissons Ratio (x) = 0.22887 0.06674
# Poissons Ratio (y) = 0.22887 0.06674
# Poissons Ratio (z) = 0.02801 0.02801
#
# Static dielectric constant tensor:
#      x y z
#    x 1.634580 0.000000 0.000000 
#    y 0.000000 1.634580 0.000000 
#    z 0.000000 0.000000 1.663850 
# 
# From -- ./inp_files/3776.got.cif
#   From: 2010.05.17/outbox.cif.g08.bks.cpg/sg187_2_cif.got.tgz:3776.got - 2010.05.20 12:09:04.
