data_PCOD9585183
_publ_section_title
;
Structure prediction by ZEFSAII (Michael W. Deem and Ramdas Pophale) SiO2 
 PCOD9585183
Probable space group: P 6 C C
;
_chemical_formula_sum "Si O2"
_cell_formula_units_Z 72
_cell_length_a 14.057643
_cell_length_b 14.057643
_cell_length_c 19.168060
_cell_angle_alpha 90.000000
_cell_angle_beta 90.000000
_cell_angle_gamma 120.000000
_cell_volume 3280.452940
_symmetry_space_group_name_H-M "P 6 C C"
_symmetry_group_IT_number 184
_symmetry_cell_setting 'hexagonal'
loop_
_space_group_symop_operation_xyz
x,y,z
x-y,x,z
-y,x-y,z
-x,-y,z
-x+y,-x,z
y,-x+y,z
-x+y,y,1/2+z
x,x-y,1/2+z
-y,-x,1/2+z
y,x,1/2+z
x-y,-y,1/2+z
-x,-x+y,1/2+z
loop_
_atom_site_type_symbol
_atom_site_label
_atom_site_fract_x
_atom_site_fract_y
_atom_site_fract_z
Si Si1 0.987879 0.769126 0.651840
Si Si2 0.218753 0.987879 0.485096
Si Si3 0.811482 0.405741 0.318468
Si Si4 0.933162 0.383823 0.450669
Si Si5 0.549339 0.933162 0.686267
Si Si6 0.531116 0.226582 0.568468
O O1 0.883089 0.782909 0.665742
O O2 0.984366 0.743765 0.568468
O O3 0.993743 0.673722 0.694966
O O4 0.217091 0.100181 0.471194
O O5 0.320021 0.993743 0.441970
O O6 0.725321 0.450643 0.318468
O O7 0.885096 0.415499 0.384277
O O8 0.885096 0.469597 0.252659
O O9 0.832844 0.299724 0.499418
O O10 0.000000 0.500000 0.488940
O O11 0.533120 0.832844 0.637518
O O12 0.500000 0.000000 0.647996
O O13 0.644353 0.222273 0.568468
#
# Coordination Sequence:
#
# PCOD9585183 Si02
#       6
#    12  12  12  12  12  12
#     4  10  23  40  67 100 142 182 228 280 341 409
#     4  10  23  40  67 100 142 182 228 280 341 409
#     4  10  25  44  64  86 134 172 213 272 348 410
#     4  12  24  39  65  99 129 173 227 277 345 409
#     4  12  24  39  65  99 129 173 227 277 345 409
#     4  10  23  36  64  90 135 167 214 269 342 407
#
# _framework density 21.948188999999999
#
# number of rings (size 3 to 8) (size 9 to 14) (size 15 to 20)
#    0.667    0.667    1.667    3.333    9.333    1.333 
#    0.000    0.000    0.000    0.000    0.000    0.000 
#    0.000    0.000    0.000    0.000    0.000    0.000 
#
# Total GULP energy -401668.601812 kJ/mol
# GULP energy per Si atom -5578.730581 kJ/mol
# Density = 2.189823 g / cm^3
# Si number density = 21.948189 Si / 1000 Ang^3
#
#
#
# Elastic Constant Matrix: (Units=GPa)
#
#
# Indices 1 2 3 4 5 6 
#
# 1 122.9433 38.8607 20.5970 0.0000 0.0000 0.0000
# 2 38.8607 122.9433 20.5970 0.0000 0.0000 0.0000
# 3 20.5970 20.5970 89.3033 0.0000 0.0000 0.0000
# 4 0.0000 0.0000 0.0000 12.2296 0.0000 0.0000
# 5 0.0000 0.0000 0.0000 0.0000 12.2296 0.0000
# 6 0.0000 0.0000 0.0000 0.0000 0.0000 42.0413
#
#
#
# Elastic Compliance Matrix: (Units=1/GPa)
#
#
# Indices 1 2 3 4 5 6 
#
# 1 0.009229 -0.002664 -0.001514 0.000000 0.000000 0.000000
# 2 -0.002664 0.009229 -0.001514 0.000000 0.000000 0.000000
# 3 -0.001514 -0.001514 0.011896 0.000000 0.000000 0.000000
# 4 0.000000 0.000000 0.000000 0.081769 0.000000 0.000000
# 5 0.000000 0.000000 0.000000 0.000000 0.081769 0.000000
# 6 0.000000 0.000000 0.000000 0.000000 0.000000 0.023786
#
#
# Mechanical properties :
#
#
# Convention : Reuss Voigt Hill
#
# Bulk Modulus (GPa) = 52.71304 55.03325 53.87315
# Shear Modulus (GPa) = 21.24160 30.30912 25.77536
#
# Velocity S-wave (km/s) = 3.11433 3.72013 3.43063
# Velocity P-wave (km/s) = 6.08287 6.60160 6.34753
#
# Compressibility (1/GPa) = 0.01897064
#
# Stress axis : x y z
#
# Youngs Moduli (GPa) = 108.34867 108.34867 84.05944
#
# Poissons Ratio (x) = 0.28860 0.12730
# Poissons Ratio (y) = 0.28860 0.12730
# Poissons Ratio (z) = 0.16408 0.16408
#
# Static dielectric constant tensor:
#      x y z
#    x 1.900350 0.000000 0.000000 
#    y 0.000000 1.900350 0.000000 
#    z 0.000000 0.000000 1.837740 
# 
# From -- ./inp_files/1098.got.cif
#   From: 2010.05.17/outbox.cif.g08.bks.cpg/sg184_cif.got.tgz:1098.got - 2010.05.20 12:04:40.
