data_PCOD9585271
_publ_section_title
;
Structure prediction by ZEFSAII (Michael W. Deem and Ramdas Pophale) SiO2 
 PCOD9585271
Probable space group: P 63 C M
;
_chemical_formula_sum "Si O2"
_cell_formula_units_Z 72
_cell_length_a 22.757911
_cell_length_b 22.757911
_cell_length_c 9.529413
_cell_angle_alpha 90.000000
_cell_angle_beta 90.000000
_cell_angle_gamma 120.000000
_cell_volume 4274.266241
_symmetry_space_group_name_H-M "P 63 C M"
_symmetry_group_IT_number 185
_symmetry_cell_setting 'hexagonal'
loop_
_space_group_symop_operation_xyz
x,y,z
x-y,x,1/2+z
-y,x-y,z
-x,-y,1/2+z
-x+y,-x,z
y,-x+y,1/2+z
-x+y,y,1/2+z
x,x-y,1/2+z
-y,-x,1/2+z
y,x,z
x-y,-y,z
-x,-x+y,z
loop_
_atom_site_type_symbol
_atom_site_label
_atom_site_fract_x
_atom_site_fract_y
_atom_site_fract_z
Si Si1 0.250564 0.421846 0.203880
Si Si2 0.868200 0.358009 0.917314
Si Si3 0.000000 0.472096 0.070494
Si Si4 0.560502 0.287271 0.588654
Si Si5 0.583791 0.583791 0.371214
Si Si6 0.573119 0.211378 0.350079
Si Si7 0.863118 0.587446 0.889563
O O1 0.307487 0.429134 0.315336
O O2 0.279706 0.501656 0.170629
O O3 0.177340 0.390653 0.280486
O O4 0.249951 0.392401 0.050110
O O5 0.932816 0.406070 0.011016
O O6 0.847389 0.408498 0.841846
O O7 0.798480 0.313166 0.004900
O O8 0.000000 0.539353 0.007671
O O9 0.000000 0.460797 0.237710
O O10 0.597290 0.260627 0.483808
O O11 0.596339 0.340863 0.711988
O O12 0.597754 0.660566 0.364619
O O13 0.493575 0.179034 0.370651
#
# Coordination Sequence:
#
# PCOD9585271 Si02
#       7
#    12  12   6  12   6  12  12
#     4  10  20  38  58  73  97 132 173 208 268 334
#     4  12  23  36  57  72 103 131 172 217 278 347
#     4  12  28  36  54  80 112 140 174 228 300 355
#     4  10  20  37  49  67  86 124 157 209 250 322
#     4  12  26  40  58  82 116 138 180 232 302 351
#     4  10  21  34  53  66  93 122 166 205 265 320
#     4  10  21  39  59  75 101 136 171 218 272 340
#
# _framework density 16.844995999999998
#
# number of rings (size 3 to 8) (size 9 to 14) (size 15 to 20)
#    0.000    1.333    6.667    2.000    7.000    0.000 
#    1.000    1.667    0.000    0.000    0.000    0.000 
#    0.000    0.000    0.000    0.000    0.000    0.000 
#
# Total GULP energy -401307.279127 kJ/mol
# GULP energy per Si atom -5573.712210 kJ/mol
# Density = 1.680666 g / cm^3
# Si number density = 16.844996 Si / 1000 Ang^3
#
#
#
# Elastic Constant Matrix: (Units=GPa)
#
#
# Indices 1 2 3 4 5 6 
#
# 1 48.2288 22.7698 26.4286 0.0000 0.0000 0.0000
# 2 22.7698 48.2288 26.4286 0.0000 0.0000 0.0000
# 3 26.4286 26.4286 124.2541 0.0000 0.0000 0.0000
# 4 0.0000 0.0000 0.0000 17.2454 0.0000 0.0000
# 5 0.0000 0.0000 0.0000 0.0000 17.2454 0.0000
# 6 0.0000 0.0000 0.0000 0.0000 0.0000 12.7295
#
#
#
# Elastic Compliance Matrix: (Units=1/GPa)
#
#
# Indices 1 2 3 4 5 6 
#
# 1 0.028007 -0.011272 -0.003559 0.000000 0.000000 0.000000
# 2 -0.011272 0.028007 -0.003559 0.000000 0.000000 0.000000
# 3 -0.003559 -0.003559 0.009562 0.000000 0.000000 0.000000
# 4 0.000000 0.000000 0.000000 0.057987 0.000000 0.000000
# 5 0.000000 0.000000 0.000000 0.000000 0.057987 0.000000
# 6 0.000000 0.000000 0.000000 0.000000 0.000000 0.078558
#
#
# Mechanical properties :
#
#
# Convention : Reuss Voigt Hill
#
# Bulk Modulus (GPa) = 34.72957 41.32949 38.02953
# Shear Modulus (GPa) = 16.31394 19.11637 17.71515
#
# Velocity S-wave (km/s) = 3.11541 3.37239 3.24644
# Velocity P-wave (km/s) = 5.79680 6.30496 6.05621
#
# Compressibility (1/GPa) = 0.02879391
#
# Stress axis : x y z
#
# Youngs Moduli (GPa) = 35.70564 35.70564 104.57855
#
# Poissons Ratio (x) = 0.40248 0.37224
# Poissons Ratio (y) = 0.40248 0.37224
# Poissons Ratio (z) = 0.12709 0.12709
#
# Static dielectric constant tensor:
#      x y z
#    x 1.613270 0.000000 0.000000 
#    y 0.000000 1.613270 0.000000 
#    z 0.000000 0.000000 1.714710 
# 
# From -- ./inp_files/650.got.cif
#   From: 2010.05.17/outbox.cif.g08.bks.cpg/sg185_cif.got.tgz:650.got - 2010.05.20 12:05:34.
