data_PCOD9585074
_publ_section_title
;
Structure prediction by ZEFSAII (Michael W. Deem and Ramdas Pophale) SiO2 
 PCOD9585074
Probable space group: P 6 M M
;
_chemical_formula_sum "Si O2"
_cell_formula_units_Z 72
_cell_length_a 24.561281
_cell_length_b 24.561281
_cell_length_c 7.501862
_cell_angle_alpha 90.000000
_cell_angle_beta 90.000000
_cell_angle_gamma 120.000000
_cell_volume 3919.238838
_symmetry_space_group_name_H-M "P 6 M M"
_symmetry_group_IT_number 183
_symmetry_cell_setting 'hexagonal'
loop_
_space_group_symop_operation_xyz
x,y,z
x-y,x,z
-y,x-y,z
-x,-y,z
-x+y,-x,z
y,-x+y,z
-x+y,y,z
x,x-y,z
-y,-x,z
y,x,z
x-y,-y,z
-x,-x+y,z
loop_
_atom_site_type_symbol
_atom_site_label
_atom_site_fract_x
_atom_site_fract_y
_atom_site_fract_z
Si Si1 0.452298 0.666904 0.120240
Si Si2 0.715438 0.072148 0.909240
Si Si3 0.504897 0.616177 0.826365
Si Si4 0.305338 0.821516 0.492958
Si Si5 0.925515 0.282861 0.312692
Si Si6 0.803532 0.729557 0.612155
O O1 0.473921 0.736961 0.057930
O O2 0.378548 0.621453 0.094070
O O3 0.468735 0.670050 0.327262
O O4 0.485284 0.636755 0.007322
O O5 0.732707 0.099237 0.109224
O O6 0.695093 0.000000 0.934390
O O7 0.654022 0.073704 0.839271
O O8 0.769083 0.095335 0.759830
O O9 0.459244 0.540757 0.810162
O O10 0.490805 0.649080 0.661288
O O11 0.235224 0.764777 0.536717
O O12 0.303448 0.882217 0.419245
O O13 0.921060 0.224436 0.421596
O O14 0.000000 0.336126 0.313695
O O15 0.877355 0.754710 0.621190
O O16 0.779716 0.779716 0.639247
#
# Coordination Sequence:
#
# PCOD9585074 Si02
#       6
#    12  12  12  12  12  12
#     4  10  21  36  52  71  96 130 173 223 276 329
#     4  10  21  37  55  79 111 145 185 228 273 326
#     4  11  22  35  52  75 105 138 181 229 278 338
#     4  11  21  34  54  78 102 134 177 224 276 333
#     4  10  20  35  55  81 112 142 179 227 278 331
#     4  10  21  37  60  89 121 154 189 231 277 329
#
# _framework density 18.370915
#
# number of rings (size 3 to 8) (size 9 to 14) (size 15 to 20)
#    0.000    1.667    3.333    1.667    0.000    2.333 
#    0.000    0.000    0.000    7.000    0.000    0.000 
#    0.000    0.000    0.000    8.333    0.000    0.000 
#
# Total GULP energy -401166.840576 kJ/mol
# GULP energy per Si atom -5571.761675 kJ/mol
# Density = 1.832910 g / cm^3
# Si number density = 18.370915 Si / 1000 Ang^3
#
#
#
# Elastic Constant Matrix: (Units=GPa)
#
#
# Indices 1 2 3 4 5 6 
#
# 1 60.9769 34.4589 13.8670 0.0000 0.0000 0.0000
# 2 34.4589 60.9769 13.8670 0.0000 0.0000 0.0000
# 3 13.8670 13.8670 90.7169 0.0000 0.0000 0.0000
# 4 0.0000 0.0000 0.0000 17.1886 0.0000 0.0000
# 5 0.0000 0.0000 0.0000 0.0000 17.1886 0.0000
# 6 0.0000 0.0000 0.0000 0.0000 0.0000 13.2590
#
#
#
# Elastic Compliance Matrix: (Units=1/GPa)
#
#
# Indices 1 2 3 4 5 6 
#
# 1 0.024338 -0.013372 -0.001676 0.000000 0.000000 0.000000
# 2 -0.013372 0.024338 -0.001676 0.000000 0.000000 0.000000
# 3 -0.001676 -0.001676 0.011536 0.000000 0.000000 0.000000
# 4 0.000000 0.000000 0.000000 0.058178 0.000000 0.000000
# 5 0.000000 0.000000 0.000000 0.000000 0.058178 0.000000
# 6 0.000000 0.000000 0.000000 0.000000 0.000000 0.075421
#
#
# Mechanical properties :
#
#
# Convention : Reuss Voigt Hill
#
# Bulk Modulus (GPa) = 37.36671 37.45071 37.40871
# Shear Modulus (GPa) = 16.98609 19.55907 18.27258
#
# Velocity S-wave (km/s) = 3.04405 3.26648 3.15722
# Velocity P-wave (km/s) = 5.72183 5.88699 5.80499
#
# Compressibility (1/GPa) = 0.02676179
#
# Stress axis : x y z
#
# Youngs Moduli (GPa) = 41.08832 41.08832 86.68710
#
# Poissons Ratio (x) = 0.54945 0.14530
# Poissons Ratio (y) = 0.54945 0.14530
# Poissons Ratio (z) = 0.06887 0.06887
#
# Static dielectric constant tensor:
#      x y z
#    x 1.642560 0.000000 0.000000 
#    y 0.000000 1.642560 0.000000 
#    z 0.000000 0.000000 1.666830 
# 
# From -- ./inp_files/1145.got.cif
#   From: 2010.05.17/outbox.cif.g08.bks.cpg/sg183_1_cif.got.tgz:1145.got - 2010.05.20 12:02:58.
