data_PCOD9585054
_publ_section_title
;
Structure prediction by ZEFSAII (Michael W. Deem and Ramdas Pophale) SiO2 
 PCOD9585054
Probable space group: P 6 M M
;
_chemical_formula_sum "Si O2"
_cell_formula_units_Z 84
_cell_length_a 30.927506
_cell_length_b 30.927506
_cell_length_c 5.335118
_cell_angle_alpha 90.000000
_cell_angle_beta 90.000000
_cell_angle_gamma 120.000000
_cell_volume 4419.411697
_symmetry_space_group_name_H-M "P 6 M M"
_symmetry_group_IT_number 183
_symmetry_cell_setting 'hexagonal'
loop_
_space_group_symop_operation_xyz
x,y,z
x-y,x,z
-y,x-y,z
-x,-y,z
-x+y,-x,z
y,-x+y,z
-x+y,y,z
x,x-y,z
-y,-x,z
y,x,z
x-y,-y,z
-x,-x+y,z
loop_
_atom_site_type_symbol
_atom_site_label
_atom_site_fract_x
_atom_site_fract_y
_atom_site_fract_z
Si Si1 0.519543 0.806329 0.937880
Si Si2 0.135767 0.519211 0.625174
Si Si3 0.058908 0.647752 0.496905
Si Si4 0.428953 0.761784 0.317844
Si Si5 0.615895 0.901453 0.004152
Si Si6 0.844994 0.786829 0.497311
Si Si7 0.269614 0.210842 0.996842
O O1 0.521179 0.760590 0.793539
O O2 0.507124 0.847197 0.827463
O O3 0.574698 0.843028 0.040505
O O4 0.473215 0.778651 0.122302
O O5 0.121684 0.560842 0.704995
O O6 0.091152 0.471874 0.485172
O O7 0.188740 0.549578 0.483770
O O8 0.077300 0.684369 0.740765
O O9 0.000000 0.610011 0.520779
O O10 0.070183 0.679513 0.242122
O O11 0.376029 0.752058 0.211968
O O12 0.420998 0.710499 0.440508
O O13 0.671066 0.909780 0.999748
O O14 0.903572 0.807143 0.497571
O O15 0.828475 0.828475 0.499253
O O16 0.821172 0.753393 0.745556
O O17 0.821335 0.754064 0.247063
O O18 0.252629 0.252629 0.995424
#
# Coordination Sequence:
#
# PCOD9585054 Si02
#       7
#    12  12  12  12  12  12  12
#     4  10  21  36  55  80 111 148 186 232 291 351
#     4  10  21  37  56  78 110 146 185 237 292 343
#     4  11  22  38  60  85 113 151 195 237 288 348
#     4  10  19  34  55  79 106 139 181 228 281 342
#     4  11  22  39  59  85 117 155 192 238 288 343
#     4  10  21  37  58  85 119 157 199 246 297 346
#     4  10  20  35  57  84 116 156 198 243 290 344
#
# _framework density 19.007055000000001
#
# number of rings (size 3 to 8) (size 9 to 14) (size 15 to 20)
#    0.000    1.714    1.429    3.571    0.000    2.571 
#    0.000    0.000    0.000    6.429    0.000    0.000 
#    0.000    3.429    0.000    0.000    0.000    0.571 
#
# Total GULP energy -467627.197276 kJ/mol
# GULP energy per Si atom -5566.990444 kJ/mol
# Density = 1.896379 g / cm^3
# Si number density = 19.007055 Si / 1000 Ang^3
#
#
#
# Elastic Constant Matrix: (Units=GPa)
#
#
# Indices 1 2 3 4 5 6 
#
# 1 120.4598 70.2123 28.9104 0.0000 0.0000 0.0000
# 2 70.2123 120.4598 28.9104 0.0000 0.0000 0.0000
# 3 28.9104 28.9104 87.7977 0.0000 0.0000 0.0000
# 4 0.0000 0.0000 0.0000 -535.0614 0.0000 0.0000
# 5 0.0000 0.0000 0.0000 0.0000 -535.0614 0.0000
# 6 0.0000 0.0000 0.0000 0.0000 0.0000 25.1237
#
#
#
# Elastic Compliance Matrix: (Units=1/GPa)
#
#
# Indices 1 2 3 4 5 6 
#
# 1 0.012864 -0.007038 -0.001919 0.000000 0.000000 0.000000
# 2 -0.007038 0.012864 -0.001919 0.000000 0.000000 0.000000
# 3 -0.001919 -0.001919 0.012653 0.000000 0.000000 0.000000
# 4 0.000000 0.000000 0.000000 -0.001869 0.000000 0.000000
# 5 0.000000 0.000000 0.000000 0.000000 -0.001869 0.000000
# 6 0.000000 0.000000 0.000000 0.000000 0.000000 0.039803
#
#
# Mechanical properties :
#
#
# Convention : Reuss Voigt Hill
#
# Bulk Modulus (GPa) = 60.12524 64.97593 62.55059
# Shear Modulus (GPa) = 49.14508 -195.62087 -73.23790
#
# Velocity S-wave (km/s) = 5.09042 -10.15596 -6.21415
# Velocity P-wave (km/s) = 8.13951 10.16196 4.30196
#
# Compressibility (1/GPa) = 0.01663195
#
# Stress axis : x y z
#
# Youngs Moduli (GPa) = 77.73662 77.73662 79.03070
#
# Poissons Ratio (x) = 0.54708 0.15162
# Poissons Ratio (y) = 0.54708 0.15162
# Poissons Ratio (z) = 0.14914 0.14914
#
# Static dielectric constant tensor:
#      x y z
#    x 1.723000 0.000000 0.000000 
#    y 0.000000 1.723000 0.000000 
#    z 0.000000 0.000000 1.721050 
# 
# From -- ./inp_files/554.got.cif
#   From: 2010.05.17/outbox.cif.g08.bks.cpg/sg183_1_cif.got.tgz:554.got - 2010.05.20 12:02:58.
