data_PCOD9585825
_publ_section_title
;
Structure prediction by ZEFSAII (Michael W. Deem and Ramdas Pophale) SiO2 
 PCOD9585825
Probable space group: P -6 M 2
;
_chemical_formula_sum "Si O2"
_cell_formula_units_Z 96
_cell_length_a 18.000000
_cell_length_b 18.000000
_cell_length_c 21.000000
_cell_angle_alpha 90.000000
_cell_angle_beta 90.000000
_cell_angle_gamma 120.000000
_cell_volume 5892.436847
_symmetry_space_group_name_H-M "P -6 M 2"
_symmetry_group_IT_number 187
_symmetry_cell_setting 'hexagonal'
loop_
_space_group_symop_operation_xyz
x,y,z
-x+y,-x,-z
-y,x-y,z
x,y,-z
-x+y,-x,z
-y,x-y,-z
-y,-x,-z
-x+y,y,-z
x,x-y,-z
-x+y,y,z
x,x-y,z
-y,-x,z
loop_
_atom_site_type_symbol
_atom_site_label
_atom_site_fract_x
_atom_site_fract_y
_atom_site_fract_z
Si Si1 0.000098 0.172185 0.364122
Si Si2 0.621352 0.899063 0.193850
Si Si3 0.158856 0.668032 0.319783
Si Si4 0.509392 0.666917 0.071578
Si Si5 0.891489 0.529266 0.430735
Si Si6 0.763672 0.067783 0.245406
Si Si7 0.833036 0.500890 0.709054
Si Si8 0.060461 0.711696 0.571765
O O1 0.914914 0.085087 0.386600
O O2 0.969612 0.207373 0.304453
O O3 0.076590 0.153179 0.347550
O O4 0.040806 0.253499 0.411463
O O5 0.638023 0.819012 0.196897
O O6 0.559907 0.885636 0.254463
O O7 0.573533 0.892760 0.128335
O O8 0.708415 0.988389 0.199959
O O9 0.147561 0.573781 0.328706
O O10 0.259187 0.740813 0.315284
O O11 0.118087 0.697502 0.376462
O O12 0.489374 0.744687 0.076691
O O13 0.422366 0.577635 0.078742
O O14 0.543534 0.670955 0.000000
O O15 0.848825 0.517051 0.500000
O O16 0.929121 0.464561 0.429605
O O17 0.835505 0.506479 0.367831
O O18 0.968248 0.625437 0.426225
O O19 0.850230 0.149771 0.220149
O O20 0.701234 0.103665 0.267752
O O21 0.737860 0.475720 0.730860
O O22 0.856400 0.428200 0.727181
O O23 0.094802 0.721560 0.500000
#
# Coordination Sequence:
#
# PCOD9585825 Si02
#       8
#    12  12  12  12  12  12  12  12
#     4  11  22  38  56  75  96 120 155 204 266 330
#     4  10  19  33  54  78 105 137 172 214 259 303
#     4  11  22  35  51  73 102 137 176 214 252 295
#     4   9  17  29  48  78 117 156 187 212 243 288
#     4   9  17  29  46  67  88 113 150 194 239 291
#     4  10  20  34  53  75  99 128 166 210 257 307
#     4  10  19  31  46  67  93 122 154 193 242 295
#     4  11  22  36  54  71  93 125 164 210 260 310
#
# _framework density 16.292071
#
# number of rings (size 3 to 8) (size 9 to 14) (size 15 to 20)
#    0.000    1.875    2.500    2.000    0.000    4.750 
#    0.000    2.500    0.000    2.875    0.000    0.000 
#    0.000    0.000    0.000    0.000    0.000    0.000 
#
# Total GULP energy -535174.287663 kJ/mol
# GULP energy per Si atom -5574.732163 kJ/mol
# Density = 1.625499 g / cm^3
# Si number density = 16.292071 Si / 1000 Ang^3
#
#
#
# Elastic Constant Matrix: (Units=GPa)
#
#
# Indices 1 2 3 4 5 6 
#
# 1 91.6595 47.9583 39.6160 0.0000 0.0000 0.0000
# 2 47.9583 91.6595 39.6160 0.0000 0.0000 0.0000
# 3 39.6160 39.6160 95.2595 0.0000 0.0000 0.0000
# 4 0.0000 0.0000 0.0000 16.5234 0.0000 0.0000
# 5 0.0000 0.0000 0.0000 0.0000 16.5234 0.0000
# 6 0.0000 0.0000 0.0000 0.0000 0.0000 21.8506
#
#
#
# Elastic Compliance Matrix: (Units=1/GPa)
#
#
# Indices 1 2 3 4 5 6 
#
# 1 0.016129 -0.006754 -0.003899 0.000000 0.000000 0.000000
# 2 -0.006754 0.016129 -0.003899 0.000000 0.000000 0.000000
# 3 -0.003899 -0.003899 0.013740 0.000000 0.000000 0.000000
# 4 0.000000 0.000000 0.000000 0.060520 0.000000 0.000000
# 5 0.000000 0.000000 0.000000 0.000000 0.060520 0.000000
# 6 0.000000 0.000000 0.000000 0.000000 0.000000 0.045765
#
#
# Mechanical properties :
#
#
# Convention : Reuss Voigt Hill
#
# Bulk Modulus (GPa) = 59.18857 59.21768 59.20312
# Shear Modulus (GPa) = 20.19886 21.07202 20.63544
#
# Velocity S-wave (km/s) = 3.52489 3.60028 3.56279
# Velocity P-wave (km/s) = 7.27840 7.32865 7.30357
#
# Compressibility (1/GPa) = 0.01689515
#
# Stress axis : x y z
#
# Youngs Moduli (GPa) = 62.00091 62.00091 72.77774
#
# Poissons Ratio (x) = 0.41874 0.28375
# Poissons Ratio (y) = 0.41874 0.28375
# Poissons Ratio (z) = 0.24173 0.24173
#
# Static dielectric constant tensor:
#      x y z
#    x 1.558640 0.000000 0.000000 
#    y 0.000000 1.558640 0.000000 
#    z 0.000000 0.000000 1.543450 
# 
# From -- ./inp_files/3775.got.cif
#   From: 2010.05.17/outbox.ucp.g08.bks.cvg/sg187_2_cif.got.tgz:3775.got - 2010.06.11 15:21:44.
