data_PCOD9585425
_publ_section_title
;
Structure prediction by ZEFSAII (Michael W. Deem and Ramdas Pophale) SiO2 
 PCOD9585425
Probable space group: P -6 M 2
;
_chemical_formula_sum "Si O2"
_cell_formula_units_Z 38
_cell_length_a 20.344248
_cell_length_b 20.344248
_cell_length_c 8.066489
_cell_angle_alpha 90.000000
_cell_angle_beta 90.000000
_cell_angle_gamma 120.000000
_cell_volume 2891.335312
_symmetry_space_group_name_H-M "P -6 M 2"
_symmetry_group_IT_number 187
_symmetry_cell_setting 'hexagonal'
loop_
_space_group_symop_operation_xyz
x,y,z
-x+y,-x,-z
-y,x-y,z
x,y,-z
-x+y,-x,z
-y,x-y,-z
-y,-x,-z
-x+y,y,-z
x,x-y,-z
-x+y,y,z
x,x-y,z
-y,-x,z
loop_
_atom_site_type_symbol
_atom_site_label
_atom_site_fract_x
_atom_site_fract_y
_atom_site_fract_z
Si Si1 0.874816 0.590121 0.816143
Si Si2 0.087109 0.174218 0.801190
Si Si3 0.509738 0.334575 0.500000
Si Si4 0.243576 0.197931 0.697341
Si Si5 0.000000 0.000000 0.798002
O O1 0.794265 0.588529 0.814931
O O2 0.868704 0.536830 0.664321
O O3 0.935988 0.677798 0.781498
O O4 0.885149 0.566633 0.000000
O O5 0.172839 0.208563 0.740269
O O6 0.043319 0.086638 0.741911
O O7 0.087375 0.174749 0.000000
O O8 0.592353 0.407648 0.500000
O O9 0.514970 0.257485 0.500000
O O10 0.255607 0.203007 0.500000
O O11 0.226518 0.113259 0.749451
O O12 0.000000 0.000000 0.000000
#
# Coordination Sequence:
#
# PCOD9585425 Si02
#       5
#    12   6   6  12   2
#     4   9  17  30  46  61  80 107 135 163 200 248
#     4  11  19  27  37  53  77 107 145 186 225 251
#     4  10  19  32  48  67  86 102 124 160 208 257
#     4  10  18  28  40  55  76 106 143 179 214 247
#     4   9  18  27  31  47  79 105 139 191 232 253
#
# _framework density 13.142716
#
# number of rings (size 3 to 8) (size 9 to 14) (size 15 to 20)
#    0.000    2.211    3.158    1.579    0.000    1.895 
#    0.000    0.000    0.000    1.895    0.000    0.000 
#    0.000    0.000    0.000    0.000    0.000    0.000 
#
# Total GULP energy -211790.841413 kJ/mol
# GULP energy per Si atom -5573.443195 kJ/mol
# Density = 1.311280 g / cm^3
# Si number density = 13.142716 Si / 1000 Ang^3
#
#
#
# Elastic Constant Matrix: (Units=GPa)
#
#
# Indices 1 2 3 4 5 6 
#
# 1 53.4361 18.8553 30.3719 0.0000 0.0000 0.0000
# 2 18.8553 53.4361 30.3719 0.0000 0.0000 0.0000
# 3 30.3719 30.3719 95.7749 0.0000 0.0000 0.0000
# 4 0.0000 0.0000 0.0000 9.5506 0.0000 0.0000
# 5 0.0000 0.0000 0.0000 0.0000 9.5506 0.0000
# 6 0.0000 0.0000 0.0000 0.0000 0.0000 17.2904
#
#
#
# Elastic Compliance Matrix: (Units=1/GPa)
#
#
# Indices 1 2 3 4 5 6 
#
# 1 0.023888 -0.005030 -0.005980 0.000000 0.000000 0.000000
# 2 -0.005030 0.023888 -0.005980 0.000000 0.000000 0.000000
# 3 -0.005980 -0.005980 0.014234 0.000000 0.000000 0.000000
# 4 0.000000 0.000000 0.000000 0.104705 0.000000 0.000000
# 5 0.000000 0.000000 0.000000 0.000000 0.104705 0.000000
# 6 0.000000 0.000000 0.000000 0.000000 0.000000 0.057835
#
#
# Mechanical properties :
#
#
# Convention : Reuss Voigt Hill
#
# Bulk Modulus (GPa) = 35.67734 40.20506 37.94120
# Shear Modulus (GPa) = 13.41996 15.48153 14.45074
#
# Velocity S-wave (km/s) = 3.19892 3.43586 3.31951
# Velocity P-wave (km/s) = 6.39134 6.81159 6.60480
#
# Compressibility (1/GPa) = 0.02802900
#
# Stress axis : x y z
#
# Youngs Moduli (GPa) = 41.86242 41.86242 70.25446
#
# Poissons Ratio (x) = 0.21057 0.42013
# Poissons Ratio (y) = 0.21057 0.42013
# Poissons Ratio (z) = 0.25034 0.25034
#
# Static dielectric constant tensor:
#      x y z
#    x 1.408590 0.000000 0.000000 
#    y 0.000000 1.408590 0.000000 
#    z 0.000000 0.000000 1.466670 
# 
# From -- ./inp_files/331.got.cif
#   From: 2010.05.17/outbox.cif.g08.bks.cpg/sg187_1_cif.got.tgz:331.got - 2010.05.20 12:09:04.
