data_PCOD9585826
_publ_section_title
;
Structure prediction by ZEFSAII (Michael W. Deem and Ramdas Pophale) SiO2 
 PCOD9585826
Probable space group: P -6 M 2
;
_chemical_formula_sum "Si O2"
_cell_formula_units_Z 90
_cell_length_a 18.000000
_cell_length_b 18.000000
_cell_length_c 18.000000
_cell_angle_alpha 90.000000
_cell_angle_beta 90.000000
_cell_angle_gamma 120.000000
_cell_volume 5050.660155
_symmetry_space_group_name_H-M "P -6 M 2"
_symmetry_group_IT_number 187
_symmetry_cell_setting 'hexagonal'
loop_
_space_group_symop_operation_xyz
x,y,z
-x+y,-x,-z
-y,x-y,z
x,y,-z
-x+y,-x,z
-y,x-y,-z
-y,-x,-z
-x+y,y,-z
x,x-y,-z
-x+y,y,z
x,x-y,z
-y,-x,z
loop_
_atom_site_type_symbol
_atom_site_label
_atom_site_fract_x
_atom_site_fract_y
_atom_site_fract_z
Si Si1 0.610604 0.988672 0.083906
Si Si2 0.838428 0.333446 0.164609
Si Si3 0.001873 0.167109 0.244184
Si Si4 0.157168 0.665492 0.794190
Si Si5 0.389188 0.436217 0.353410
Si Si6 0.359931 0.263996 0.300761
Si Si7 0.224514 0.029152 0.918318
Si Si8 0.159239 0.665913 0.500000
O O1 0.551769 0.912960 0.140333
O O2 0.626902 0.081691 0.108007
O O3 0.705649 0.000873 0.085774
O O4 0.577523 0.967643 0.000000
O O5 0.820290 0.410145 0.184913
O O6 0.750962 0.249039 0.138579
O O7 0.873951 0.302646 0.233724
O O8 0.095086 0.190171 0.272630
O O9 0.963893 0.227050 0.270086
O O10 0.005025 0.172627 0.154578
O O11 0.929753 0.070248 0.264466
O O12 0.183438 0.591719 0.790038
O O13 0.240764 0.759237 0.803563
O O14 0.105800 0.658259 0.718385
O O15 0.488065 0.511936 0.346965
O O16 0.380536 0.343442 0.352999
O O17 0.350853 0.453168 0.427038
O O18 0.364346 0.182173 0.331441
O O19 0.265145 0.132573 0.913756
O O20 0.182860 0.003600 0.000000
O O21 0.241005 0.758996 0.500000
O O22 0.187429 0.593715 0.500000
#
# Coordination Sequence:
#
# PCOD9585826 Si02
#       8
#    12  12  12  12  12  12  12   6
#     4  11  22  36  55  76 104 141 184 234 285 335
#     4  11  21  36  56  80 108 140 181 231 289 349
#     4  10  19  31  47  70  98 132 173 221 274 324
#     4  11  23  39  58  79 107 146 191 236 282 334
#     4  10  20  37  60  88 119 151 186 228 281 339
#     4  10  20  35  56  81 111 147 187 231 278 327
#     4   9  17  30  47  67  92 124 164 213 272 331
#     4  10  21  36  59  92 130 162 190 228 281 340
#
# _framework density 17.819452999999999
#
# number of rings (size 3 to 8) (size 9 to 14) (size 15 to 20)
#    0.000    1.733    2.667    2.067    0.000    5.067 
#    0.000    3.000    0.000    2.667    0.000    0.000 
#    0.000    0.000    0.000    0.000    0.000    0.000 
#
# Total GULP energy -502100.677143 kJ/mol
# GULP energy per Si atom -5578.896413 kJ/mol
# Density = 1.777889 g / cm^3
# Si number density = 17.819453 Si / 1000 Ang^3
#
#
#
# Elastic Constant Matrix: (Units=GPa)
#
#
# Indices 1 2 3 4 5 6 
#
# 1 109.9360 63.3975 38.0495 0.0000 0.0004 0.0000
# 2 63.3975 109.9360 38.0495 0.0000 -0.0004 0.0000
# 3 38.0495 38.0495 68.2903 0.0000 0.0000 0.0000
# 4 0.0000 0.0000 0.0000 10.3078 0.0000 -0.0004
# 5 0.0004 -0.0004 0.0000 0.0000 10.3078 0.0000
# 6 0.0000 0.0000 0.0000 -0.0004 0.0000 23.2692
#
#
#
# Elastic Compliance Matrix: (Units=1/GPa)
#
#
# Indices 1 2 3 4 5 6 
#
# 1 0.014563 -0.006925 -0.004255 0.000000 -0.000001 0.000000
# 2 -0.006925 0.014563 -0.004255 0.000000 0.000001 0.000000
# 3 -0.004255 -0.004255 0.019385 0.000000 0.000000 0.000000
# 4 0.000000 0.000000 0.000000 0.097014 0.000000 0.000002
# 5 -0.000001 0.000001 0.000000 0.000000 0.097014 0.000000
# 6 0.000000 0.000000 0.000000 0.000002 0.000000 0.042975
#
#
# Mechanical properties :
#
#
# Convention : Reuss Voigt Hill
#
# Bulk Modulus (GPa) = 56.69342 63.01725 59.85533
# Shear Modulus (GPa) = 15.51517 18.68801 17.10159
#
# Velocity S-wave (km/s) = 2.95394 3.24194 3.10129
# Velocity P-wave (km/s) = 6.59689 7.03240 6.81812
#
# Compressibility (1/GPa) = 0.01763873
#
# Stress axis : x y z
#
# Youngs Moduli (GPa) = 68.66937 68.66937 51.58533
#
# Poissons Ratio (x) = 0.47554 0.21952
# Poissons Ratio (y) = 0.47554 0.21952
# Poissons Ratio (z) = 0.29222 0.29222
#
# Static dielectric constant tensor:
#      x y z
#    x 1.618720 0.000000 0.000000 
#    y 0.000000 1.618720 0.000000 
#    z 0.000000 0.000000 1.599670 
# 
# From -- ./inp_files/3276.got.cif
#   From: 2010.05.17/outbox.ucp.g08.bks.cvg/sg187_2_cif.got.tgz:3276.got - 2010.06.11 15:21:44.
