data_PCOD9585263
_publ_section_title
;
Structure prediction by ZEFSAII (Michael W. Deem and Ramdas Pophale) SiO2 
 PCOD9585263
Probable space group: P 63 C M
;
_chemical_formula_sum "Si O2"
_cell_formula_units_Z 64
_cell_length_a 15.116627
_cell_length_b 15.116627
_cell_length_c 13.935685
_cell_angle_alpha 90.000000
_cell_angle_beta 90.000000
_cell_angle_gamma 120.000000
_cell_volume 2757.837971
_symmetry_space_group_name_H-M "P 63 C M"
_symmetry_group_IT_number 185
_symmetry_cell_setting 'hexagonal'
loop_
_space_group_symop_operation_xyz
x,y,z
x-y,x,1/2+z
-y,x-y,z
-x,-y,1/2+z
-x+y,-x,z
y,-x+y,1/2+z
-x+y,y,1/2+z
x,x-y,1/2+z
-y,-x,1/2+z
y,x,z
x-y,-y,z
-x,-x+y,z
loop_
_atom_site_type_symbol
_atom_site_label
_atom_site_fract_x
_atom_site_fract_y
_atom_site_fract_z
Si Si1 0.787927 0.787927 0.827840
Si Si2 0.568016 0.829907 0.322690
Si Si3 0.000000 0.000000 0.801787
Si Si4 0.511671 0.399322 0.823475
Si Si5 0.000000 0.000000 0.078925
Si Si6 0.431984 0.261891 0.558022
Si Si7 0.212073 0.000000 0.052872
Si Si8 0.600678 0.488329 0.557238
O O1 0.784742 0.685350 0.790238
O O2 0.894872 0.894872 0.825258
O O3 0.768060 0.768060 0.940356
O O4 0.517487 0.712862 0.291863
O O5 0.492317 0.871059 0.293706
O O6 0.568513 0.829305 0.440356
O O7 0.000000 0.000000 0.690356
O O8 0.425196 0.425196 0.795050
O O9 0.514842 0.398807 0.940356
O O10 0.894872 0.894872 0.055455
O O11 0.314651 0.215258 0.590474
O O12 0.507683 0.378742 0.587006
O O13 0.482513 0.195375 0.588849
O O14 0.574804 0.574804 0.585662
#
# Coordination Sequence:
#
# PCOD9585263 Si02
#       8
#     6  12   2  12   2  12   6  12
#     4  10  20  36  57  80 103 134 181 228 259 304
#     4   9  16  26  43  71 107 141 171 209 258 312
#     4  12  28  44  55  72 100 140 181 222 277 326
#     4   9  15  23  36  61 100 138 165 195 251 310
#     4  12  28  44  55  72 100 140 181 222 277 326
#     4   9  16  26  43  71 107 141 171 209 258 312
#     4  10  20  36  57  80 103 134 181 228 259 304
#     4   9  15  23  36  61 100 138 165 195 251 310
#
# _framework density 23.206583999999999
#
# number of rings (size 3 to 8) (size 9 to 14) (size 15 to 20)
#    0.000    2.625    1.875    1.312    2.625    3.000 
#    0.000    0.000    0.000    0.000    0.000    5.250 
#    0.000    0.000    0.000    0.000    0.000    0.000 
#
# Total GULP energy -357566.969902 kJ/mol
# GULP energy per Si atom -5586.983905 kJ/mol
# Density = 2.315376 g / cm^3
# Si number density = 23.206584 Si / 1000 Ang^3
#
#
#
# Elastic Constant Matrix: (Units=GPa)
#
#
# Indices 1 2 3 4 5 6 
#
# 1 171.4921 89.4631 5.2554 0.0000 0.0000 0.0000
# 2 89.4631 171.4921 5.2554 0.0000 0.0000 0.0000
# 3 5.2554 5.2554 66.5605 0.0000 0.0000 0.0000
# 4 0.0000 0.0000 0.0000 0.2111 0.0000 0.0000
# 5 0.0000 0.0000 0.0000 0.0000 0.2111 0.0000
# 6 0.0000 0.0000 0.0000 0.0000 0.0000 41.0145
#
#
#
# Elastic Compliance Matrix: (Units=1/GPa)
#
#
# Indices 1 2 3 4 5 6 
#
# 1 0.008018 -0.004173 -0.000304 0.000000 0.000000 0.000000
# 2 -0.004173 0.008018 -0.000304 0.000000 0.000000 0.000000
# 3 -0.000304 -0.000304 0.015072 0.000000 0.000000 0.000000
# 4 0.000000 0.000000 0.000000 4.736276 0.000000 0.000000
# 5 0.000000 0.000000 0.000000 0.000000 4.736276 0.000000
# 6 0.000000 0.000000 0.000000 0.000000 0.000000 0.024382
#
#
# Mechanical properties :
#
#
# Convention : Reuss Voigt Hill
#
# Bulk Modulus (GPa) = 46.41161 67.72139 57.06650
# Shear Modulus (GPa) = 0.52385 28.92540 14.72462
#
# Velocity S-wave (km/s) = 0.47563 3.53431 2.52166
# Velocity P-wave (km/s) = 4.51047 6.77499 5.75521
#
# Compressibility (1/GPa) = 0.02154633
#
# Stress axis : x y z
#
# Youngs Moduli (GPa) = 124.72624 124.72624 66.34879
#
# Poissons Ratio (x) = 0.52051 0.02014
# Poissons Ratio (y) = 0.52051 0.02014
# Poissons Ratio (z) = 0.03786 0.03786
#
# Static dielectric constant tensor:
#      x y z
#    x 1.716440 0.000000 0.000000 
#    y 0.000000 1.716440 0.000000 
#    z 0.000000 0.000000 1.962500 
# 
# From -- ./inp_files/1685.got.cif
#   From: 2010.05.17/outbox.cif.g08.bks.cpg/sg185_cif.got.tgz:1685.got - 2010.05.20 12:05:34.
