data_PCOD9585315
_publ_section_title
;
Structure prediction by ZEFSAII (Michael W. Deem and Ramdas Pophale) SiO2 
 PCOD9585315
Probable space group: P 63 M C
;
_chemical_formula_sum "Si O2"
_cell_formula_units_Z 48
_cell_length_a 26.473352
_cell_length_b 26.473352
_cell_length_c 5.448422
_cell_angle_alpha 90.000000
_cell_angle_beta 90.000000
_cell_angle_gamma 120.000000
_cell_volume 3306.886111
_symmetry_space_group_name_H-M "P 63 M C"
_symmetry_group_IT_number 186
_symmetry_cell_setting 'hexagonal'
loop_
_space_group_symop_operation_xyz
x,y,z
x-y,x,1/2+z
-y,x-y,z
-x,-y,1/2+z
-x+y,-x,z
y,-x+y,1/2+z
-x+y,y,z
x,x-y,z
-y,-x,z
y,x,1/2+z
x-y,-y,1/2+z
-x,-x+y,1/2+z
loop_
_atom_site_type_symbol
_atom_site_label
_atom_site_fract_x
_atom_site_fract_y
_atom_site_fract_z
Si Si1 0.738555 0.062119 0.757150
Si Si2 0.808896 0.964564 0.257196
Si Si3 0.071259 0.701671 0.757150
Si Si4 0.424701 0.961600 0.757199
O O1 0.791739 0.049791 0.757191
O O2 0.737391 0.093309 0.507817
O O3 0.678718 0.998721 0.757135
O O4 0.737380 0.093311 0.006460
O O5 0.810632 0.905316 0.257198
O O6 0.837249 0.000000 0.507196
O O7 0.077775 0.644780 0.757190
O O8 0.467144 0.934287 0.757197
O O9 0.440686 0.000001 0.507201
#
# Coordination Sequence:
#
# PCOD9585315 Si02
#       4
#    12  12  12  12
#     4  10  16  27  44  61  78 101 129 153 198 233
#     4  12  23  38  55  74  90 102 123 160 209 277
#     4  10  14  25  41  55  84 105 133 165 186 221
#     4  10  16  20  29  50  76 110 139 162 188 205
#
# _framework density 14.515165
#
# number of rings (size 3 to 8) (size 9 to 14) (size 15 to 20)
#    0.000    1.500   10.000    0.750    0.000    0.000 
#    0.000    0.000    0.000    5.000    0.000    0.000 
#    0.000    0.000    0.000    0.000    0.000    0.000 
#
# Total GULP energy -267202.618816 kJ/mol
# GULP energy per Si atom -5566.721225 kJ/mol
# Density = 1.448213 g / cm^3
# Si number density = 14.515165 Si / 1000 Ang^3
#
#
#
# Elastic Constant Matrix: (Units=GPa)
#
#
# Indices 1 2 3 4 5 6 
#
# 1 -2202.6551 2298.6146 29.6090 0.0000 0.0000 0.0002
# 2 2298.6146-2202.6551 29.6090 0.0000 0.0000 -0.0002
# 3 29.6090 29.6090 165.3972 0.0000 0.0000 0.0000
# 4 0.0000 0.0000 0.0000 11.9286 0.0000 0.0000
# 5 0.0000 0.0000 0.0000 0.0000 11.9286 0.0000
# 6 0.0002 -0.0002 0.0000 0.0000 0.0000-2250.6351
#
#
#
# Elastic Compliance Matrix: (Units=1/GPa)
#
#
# Indices 1 2 3 4 5 6 
#
# 1 0.005747 0.005969 -0.002097 0.000000 0.000000 0.000000
# 2 0.005969 0.005747 -0.002097 0.000000 0.000000 0.000000
# 3 -0.002097 -0.002097 0.006797 0.000000 0.000000 0.000000
# 4 0.000000 0.000000 0.000000 0.083832 0.000000 0.000000
# 5 0.000000 0.000000 0.000000 0.000000 0.083832 0.000000
# 6 0.000000 0.000000 0.000000 0.000000 0.000000 -0.000444
#
#
# Mechanical properties :
#
#
# Convention : Reuss Voigt Hill
#
# Bulk Modulus (GPa) = 45.79056 52.86136 49.32596
# Shear Modulus (GPa) = 26.42137 -885.20528 -429.39196
#
# Velocity S-wave (km/s) = 4.27108 -24.72190 -17.21816
# Velocity P-wave (km/s) = 7.47917 27.89981 19.00607
#
# Compressibility (1/GPa) = 0.02183856
#
# Stress axis : x y z
#
# Youngs Moduli (GPa) = 174.01686 174.01686 147.12510
#
# Poissons Ratio (x) = -1.03866 0.30856
# Poissons Ratio (y) = -1.03866 0.30856
# Poissons Ratio (z) = 0.36496 0.36496
#
# Static dielectric constant tensor:
#      x y z
#    x 1.465290 0.000000 0.000000 
#    y 0.000000 1.465290 0.000000 
#    z 0.000000 0.000000 1.576360 
# 
# From -- ./inp_files/247.got.cif
#   From: 2010.05.17/outbox.cif.g08.bks.cpg/sg186_1_cif.got.tgz:247.got - 2010.05.20 12:07:08.
