data_PCOD9585226
_publ_section_title
;
Structure prediction by ZEFSAII (Michael W. Deem and Ramdas Pophale) SiO2 
 PCOD9585226
Probable space group: P 63 C M
;
_chemical_formula_sum "Si O2"
_cell_formula_units_Z 42
_cell_length_a 13.656831
_cell_length_b 13.656831
_cell_length_c 14.014180
_cell_angle_alpha 90.000000
_cell_angle_beta 90.000000
_cell_angle_gamma 120.000000
_cell_volume 2263.592224
_symmetry_space_group_name_H-M "P 63 C M"
_symmetry_group_IT_number 185
_symmetry_cell_setting 'hexagonal'
loop_
_space_group_symop_operation_xyz
x,y,z
x-y,x,1/2+z
-y,x-y,z
-x,-y,1/2+z
-x+y,-x,z
y,-x+y,1/2+z
-x+y,y,1/2+z
x,x-y,1/2+z
-y,-x,1/2+z
y,x,z
x-y,-y,z
-x,-x+y,z
loop_
_atom_site_type_symbol
_atom_site_label
_atom_site_fract_x
_atom_site_fract_y
_atom_site_fract_z
Si Si1 0.124209 0.000000 0.926811
Si Si2 0.000000 0.801693 0.213309
Si Si3 0.575622 0.000000 0.269617
Si Si4 0.000000 0.558911 0.586021
Si Si5 0.373732 0.811057 0.925878
Si Si6 0.778848 0.778848 0.115009
O O1 0.147121 0.000000 0.816500
O O2 0.000000 0.894014 0.947892
O O3 0.212157 0.000000 0.999841
O O4 0.000000 0.688200 0.238865
O O5 0.888717 0.779983 0.156846
O O6 0.605207 0.109348 0.334799
O O7 0.516772 0.000000 0.171730
O O8 0.890373 0.491805 0.517876
O O9 0.000000 0.664960 0.635045
O O10 0.248206 0.699880 0.925640
#
# Coordination Sequence:
#
# PCOD9585226 Si02
#       6
#     6   6   6   6  12   6
#     4  10  18  38  62  88 136 166 192 266 318 394
#     4  12  24  41  66 100 130 169 219 266 338 405
#     4  11  26  43  66 107 129 173 238 273 329 407
#     4  11  26  43  66 107 129 173 238 273 329 407
#     4   9  23  46  70  88 138 178 220 282 340 382
#     4  12  24  41  66 100 130 169 219 266 338 405
#
# _framework density 18.554577999999999
#
# number of rings (size 3 to 8) (size 9 to 14) (size 15 to 20)
#    0.857    0.571    2.857    2.000    8.000    0.000 
#    0.000    0.000    0.000    0.000    0.000    0.000 
#    0.000    0.000    0.000    0.000    0.000    0.000 
#
# Total GULP energy -234237.022971 kJ/mol
# GULP energy per Si atom -5577.071975 kJ/mol
# Density = 1.851235 g / cm^3
# Si number density = 18.554578 Si / 1000 Ang^3
#
#
#
# Elastic Constant Matrix: (Units=GPa)
#
#
# Indices 1 2 3 4 5 6 
#
# 1 124.9025 67.1908 47.3182 0.0000 0.0000 0.0000
# 2 67.1908 124.9025 47.3182 0.0000 0.0000 0.0000
# 3 47.3182 47.3182 112.8752 0.0000 0.0000 0.0000
# 4 0.0000 0.0000 0.0000 -53.3491 0.0000 0.0000
# 5 0.0000 0.0000 0.0000 0.0000 -53.3491 0.0000
# 6 0.0000 0.0000 0.0000 0.0000 0.0000 28.8558
#
#
#
# Elastic Compliance Matrix: (Units=1/GPa)
#
#
# Indices 1 2 3 4 5 6 
#
# 1 0.011944 -0.005383 -0.002750 0.000000 0.000000 0.000000
# 2 -0.005383 0.011944 -0.002750 0.000000 0.000000 0.000000
# 3 -0.002750 -0.002750 0.011165 0.000000 0.000000 0.000000
# 4 0.000000 0.000000 0.000000 -0.018744 0.000000 0.000000
# 5 0.000000 0.000000 0.000000 0.000000 -0.018744 0.000000
# 6 0.000000 0.000000 0.000000 0.000000 0.000000 0.034655
#
#
# Mechanical properties :
#
#
# Convention : Reuss Voigt Hill
#
# Bulk Modulus (GPa) = 75.27009 76.25942 75.76476
# Shear Modulus (GPa) = 85.59261 -2.17828 41.70716
#
# Velocity S-wave (km/s) = 6.79929 -1.08468 4.74625
# Velocity P-wave (km/s) = 10.11412 6.29449 8.42366
#
# Compressibility (1/GPa) = 0.01328549
#
# Stress axis : x y z
#
# Youngs Moduli (GPa) = 83.72300 83.72300 89.56350
#
# Poissons Ratio (x) = 0.45071 0.24633
# Poissons Ratio (y) = 0.45071 0.24633
# Poissons Ratio (z) = 0.23027 0.23027
#
# Static dielectric constant tensor:
#      x y z
#    x 1.713750 0.000000 0.000000 
#    y 0.000000 1.713750 0.000000 
#    z 0.000000 0.000000 1.601580 
# 
# From -- ./inp_files/843.got.cif
#   From: 2010.05.17/outbox.cif.g08.bks.cpg/sg185_cif.got.tgz:843.got - 2010.05.20 12:05:34.
