data_PCOD9585403
_publ_section_title
;
Structure prediction by ZEFSAII (Michael W. Deem and Ramdas Pophale) SiO2 
 PCOD9585403
Probable space group: P 63 M C
;
_chemical_formula_sum "Si O2"
_cell_formula_units_Z 36
_cell_length_a 20.813678
_cell_length_b 20.813678
_cell_length_c 5.093587
_cell_angle_alpha 90.000000
_cell_angle_beta 90.000000
_cell_angle_gamma 120.000000
_cell_volume 1910.961877
_symmetry_space_group_name_H-M "P 63 M C"
_symmetry_group_IT_number 186
_symmetry_cell_setting 'hexagonal'
loop_
_space_group_symop_operation_xyz
x,y,z
x-y,x,1/2+z
-y,x-y,z
-x,-y,1/2+z
-x+y,-x,z
y,-x+y,1/2+z
-x+y,y,z
x,x-y,z
-y,-x,z
y,x,1/2+z
x-y,-y,1/2+z
-x,-x+y,1/2+z
loop_
_atom_site_type_symbol
_atom_site_label
_atom_site_fract_x
_atom_site_fract_y
_atom_site_fract_z
Si Si1 0.257384 0.204711 0.924410
Si Si2 0.048138 0.401291 0.357048
Si Si3 0.238973 0.619487 0.997827
Si Si4 0.426965 0.573036 0.497594
O O1 0.245955 0.122978 0.905862
O O2 0.218674 0.225285 0.691340
O O3 0.345099 0.266053 0.905731
O O4 0.100401 0.486221 0.430878
O O5 0.978399 0.371187 0.556638
O O6 0.293037 0.586073 0.946689
O O7 0.215072 0.607536 0.298692
O O8 0.171530 0.585765 0.798100
#
# Coordination Sequence:
#
# PCOD9585403 Si02
#       4
#    12  12   6   6
#     4  10  21  38  60  87 119 152 191 238 294 356
#     4  10  21  36  56  88 118 144 190 240 289 353
#     4  10  24  39  50  74 110 144 198 246 282 332
#     4  12  20  37  62  78 110 162 192 244 302 342
#
# _framework density 18.838681999999999
#
# number of rings (size 3 to 8) (size 9 to 14) (size 15 to 20)
#    0.333    1.333    0.000    5.000    0.000    2.667 
#    0.000    0.000    0.000    6.667    0.000    0.000 
#    0.000    0.000    0.000    0.000    0.000    0.000 
#
# Total GULP energy -200927.852797 kJ/mol
# GULP energy per Si atom -5581.329244 kJ/mol
# Density = 1.879580 g / cm^3
# Si number density = 18.838682 Si / 1000 Ang^3
#
#
#
# Elastic Constant Matrix: (Units=GPa)
#
#
# Indices 1 2 3 4 5 6 
#
# 1 73.3845 49.3797 -4.6780 0.0000 0.0000 0.0000
# 2 49.3797 73.3845 -4.6780 0.0000 0.0000 0.0000
# 3 -4.6780 -4.6780 64.1446 0.0000 0.0000 0.0000
# 4 0.0000 0.0000 0.0000 22.1111 0.0000 0.0000
# 5 0.0000 0.0000 0.0000 0.0000 22.1111 0.0000
# 6 0.0000 0.0000 0.0000 0.0000 0.0000 12.0024
#
#
#
# Elastic Compliance Matrix: (Units=1/GPa)
#
#
# Indices 1 2 3 4 5 6 
#
# 1 0.024925 -0.016734 0.000597 0.000000 0.000000 0.000000
# 2 -0.016734 0.024925 0.000597 0.000000 0.000000 0.000000
# 3 0.000597 0.000597 0.015677 0.000000 0.000000 0.000000
# 4 0.000000 0.000000 0.000000 0.045226 0.000000 0.000000
# 5 0.000000 0.000000 0.000000 0.000000 0.045226 0.000000
# 6 0.000000 0.000000 0.000000 0.000000 0.000000 0.083317
#
#
# Mechanical properties :
#
#
# Convention : Reuss Voigt Hill
#
# Bulk Modulus (GPa) = 29.02854 32.32900 30.67877
# Shear Modulus (GPa) = 17.73955 22.63758 20.18857
#
# Velocity S-wave (km/s) = 3.07197 3.47025 3.27717
# Velocity P-wave (km/s) = 5.29388 5.76672 5.53535
#
# Compressibility (1/GPa) = 0.03444886
#
# Stress axis : x y z
#
# Youngs Moduli (GPa) = 40.12069 40.12069 63.78811
#
# Poissons Ratio (x) = 0.67136 -0.03811
# Poissons Ratio (y) = 0.67136 -0.03811
# Poissons Ratio (z) = -0.02397 -0.02397
#
# Static dielectric constant tensor:
#      x y z
#    x 1.638250 0.000000 0.000000 
#    y 0.000000 1.638250 0.000000 
#    z 0.000000 0.000000 1.641580 
# 
# From -- ./inp_files/166.got.cif
#   From: 2010.05.17/outbox.cif.g08.bks.cpg/sg186_1_cif.got.tgz:166.got - 2010.05.20 12:07:08.
