data_PCOD9585546
_publ_section_title
;
Structure prediction by ZEFSAII (Michael W. Deem and Ramdas Pophale) SiO2 
 PCOD9585546
Probable space group: P -6 M 2
;
_chemical_formula_sum "Si O2"
_cell_formula_units_Z 60
_cell_length_a 23.543472
_cell_length_b 23.543472
_cell_length_c 7.828425
_cell_angle_alpha 90.000000
_cell_angle_beta 90.000000
_cell_angle_gamma 120.000000
_cell_volume 3757.907153
_symmetry_space_group_name_H-M "P -6 M 2"
_symmetry_group_IT_number 187
_symmetry_cell_setting 'hexagonal'
loop_
_space_group_symop_operation_xyz
x,y,z
-x+y,-x,-z
-y,x-y,z
x,y,-z
-x+y,-x,z
-y,x-y,-z
-y,-x,-z
-x+y,y,-z
x,x-y,-z
-x+y,y,z
x,x-y,z
-y,-x,z
loop_
_atom_site_type_symbol
_atom_site_label
_atom_site_fract_x
_atom_site_fract_y
_atom_site_fract_z
Si Si1 0.481853 0.091239 0.199102
Si Si2 0.822198 0.515636 0.500000
Si Si3 0.129569 0.740614 0.298527
Si Si4 0.328573 0.017495 0.806838
Si Si5 0.772850 0.098429 0.500000
Si Si6 0.203627 0.537838 0.793252
O O1 0.532218 0.064436 0.225313
O O2 0.501595 0.150444 0.331274
O O3 0.405074 0.039468 0.228731
O O4 0.487861 0.111759 0.000000
O O5 0.745062 0.490123 0.500000
O O6 0.858625 0.595008 0.500000
O O7 0.120926 0.746381 0.500000
O O8 0.189797 0.810204 0.236516
O O9 0.153772 0.688180 0.272639
O O10 0.060387 0.715376 0.209844
O O11 0.307925 0.053640 0.667785
O O12 0.325879 0.038441 0.000000
O O13 0.849839 0.150162 0.500000
O O14 0.276481 0.552961 0.744694
O O15 0.191245 0.595623 0.734507
O O16 0.200515 0.535688 0.000000
#
# Coordination Sequence:
#
# PCOD9585546 Si02
#       6
#    12   6  12  12   6  12
#     4   9  18  31  47  69  95 122 156 200 246 290
#     4   9  17  29  47  68  88 115 148 182 226 283
#     4  10  20  33  47  66  95 130 170 211 251 301
#     4  10  19  32  51  73  98 129 163 198 241 289
#     4   9  18  33  50  72  99 119 145 184 226 277
#     4   9  17  29  44  61  83 117 166 224 279 322
#
# _framework density 15.966333000000001
#
# number of rings (size 3 to 8) (size 9 to 14) (size 15 to 20)
#    0.000    2.600    1.000    1.100    0.000    4.000 
#    0.000    6.000    0.000    2.800    0.000    0.000 
#    0.000    0.000    0.000    2.400    0.000    5.200 
#
# Total GULP energy -334364.440558 kJ/mol
# GULP energy per Si atom -5572.740676 kJ/mol
# Density = 1.592999 g / cm^3
# Si number density = 15.966333 Si / 1000 Ang^3
#
#
#
# Elastic Constant Matrix: (Units=GPa)
#
#
# Indices 1 2 3 4 5 6 
#
# 1 68.0028 46.5428 35.8740 0.0000 0.0002 0.0000
# 2 46.5428 68.0028 35.8740 0.0000 -0.0002 0.0000
# 3 35.8740 35.8740 71.1316 0.0000 0.0000 0.0000
# 4 0.0000 0.0000 0.0000 13.9191 0.0000 -0.0002
# 5 0.0002 -0.0002 0.0000 0.0000 13.9191 0.0000
# 6 0.0000 0.0000 0.0000 -0.0002 0.0000 10.7300
#
#
#
# Elastic Compliance Matrix: (Units=1/GPa)
#
#
# Indices 1 2 3 4 5 6 
#
# 1 0.029680 -0.016918 -0.006436 0.000000 -0.000001 0.000000
# 2 -0.016918 0.029680 -0.006436 0.000000 0.000001 0.000000
# 3 -0.006436 -0.006436 0.020550 0.000000 0.000000 0.000000
# 4 0.000000 0.000000 0.000000 0.071843 0.000000 0.000001
# 5 -0.000001 0.000001 0.000000 0.000000 0.071843 0.000000
# 6 0.000000 0.000000 0.000000 0.000001 0.000000 0.093197
#
#
# Mechanical properties :
#
#
# Convention : Reuss Voigt Hill
#
# Bulk Modulus (GPa) = 49.19059 49.30209 49.24634
# Shear Modulus (GPa) = 13.04968 13.63676 13.34322
#
# Velocity S-wave (km/s) = 2.86199 2.92566 2.89400
# Velocity P-wave (km/s) = 6.46507 6.50834 6.48674
#
# Compressibility (1/GPa) = 0.02032909
#
# Stress axis : x y z
#
# Youngs Moduli (GPa) = 33.69283 33.69283 48.66121
#
# Poissons Ratio (x) = 0.57003 0.31318
# Poissons Ratio (y) = 0.57003 0.31318
# Poissons Ratio (z) = 0.21685 0.21685
#
# Static dielectric constant tensor:
#      x y z
#    x 1.518740 0.000000 0.000000 
#    y 0.000000 1.518740 0.000000 
#    z 0.000000 0.000000 1.570590 
# 
# From -- ./inp_files/705.got.cif
#   From: 2010.05.17/outbox.cif.g08.bks.cpg/sg187_1_cif.got.tgz:705.got - 2010.05.20 12:09:04.
