data_PCOD9585309
_publ_section_title
;
Structure prediction by ZEFSAII (Michael W. Deem and Ramdas Pophale) SiO2 
 PCOD9585309
Probable space group: P 63 C M
;
_chemical_formula_sum "Si O2"
_cell_formula_units_Z 36
_cell_length_a 18.678540
_cell_length_b 18.678540
_cell_length_c 5.373412
_cell_angle_alpha 90.000000
_cell_angle_beta 90.000000
_cell_angle_gamma 120.000000
_cell_volume 1623.553582
_symmetry_space_group_name_H-M "P 63 C M"
_symmetry_group_IT_number 185
_symmetry_cell_setting 'hexagonal'
loop_
_space_group_symop_operation_xyz
x,y,z
x-y,x,1/2+z
-y,x-y,z
-x,-y,1/2+z
-x+y,-x,z
y,-x+y,1/2+z
-x+y,y,1/2+z
x,x-y,1/2+z
-y,-x,1/2+z
y,x,z
x-y,-y,z
-x,-x+y,z
loop_
_atom_site_type_symbol
_atom_site_label
_atom_site_fract_x
_atom_site_fract_y
_atom_site_fract_z
Si Si1 0.654257 0.093925 0.997350
Si Si2 0.098051 0.809789 0.788715
Si Si3 0.617018 0.425826 0.814997
O O1 0.729759 0.109085 0.825075
O O2 0.588876 0.112749 0.858782
O O3 0.611716 0.000000 0.086789
O O4 0.677087 0.158507 0.224457
O O5 0.133950 0.855753 0.528483
O O6 0.000000 0.775277 0.801604
O O7 0.598017 0.365139 0.581750
#
# Coordination Sequence:
#
# PCOD9585309 Si02
#       3
#    12  12  12
#     4   9  18  30  51  81 117 150 178 220 280 347
#     4  11  25  42  63  87 120 156 199 262 336 405
#     4   8  17  26  46  78 118 148 172 202 254 326
#
# _framework density 22.173584999999999
#
# number of rings (size 3 to 8) (size 9 to 14) (size 15 to 20)
#    2.000    0.667    0.000    2.000    4.667    0.000 
#    0.000    0.000    0.000    6.667    0.000    0.000 
#   33.333    0.000    0.000    0.000    0.000    0.000 
#
# Total GULP energy -200414.297883 kJ/mol
# GULP energy per Si atom -5567.063830 kJ/mol
# Density = 2.212312 g / cm^3
# Si number density = 22.173585 Si / 1000 Ang^3
#
#
#
# Elastic Constant Matrix: (Units=GPa)
#
#
# Indices 1 2 3 4 5 6 
#
# 1 68.0238 5.0450 -15.7885 0.0000 0.0000 0.0000
# 2 5.0450 68.0238 -15.7885 0.0000 0.0000 0.0000
# 3 -15.7885 -15.7885 110.4528 0.0000 0.0000 0.0000
# 4 0.0000 0.0000 0.0000 2.3752 0.0000 0.0000
# 5 0.0000 0.0000 0.0000 0.0000 2.3752 0.0000
# 6 0.0000 0.0000 0.0000 0.0000 0.0000 31.4894
#
#
#
# Elastic Compliance Matrix: (Units=1/GPa)
#
#
# Indices 1 2 3 4 5 6 
#
# 1 0.015233 -0.000646 0.002085 0.000000 0.000000 0.000000
# 2 -0.000646 0.015233 0.002085 0.000000 0.000000 0.000000
# 3 0.002085 0.002085 0.009650 0.000000 0.000000 0.000000
# 4 0.000000 0.000000 0.000000 0.421025 0.000000 0.000000
# 5 0.000000 0.000000 0.000000 0.000000 0.421025 0.000000
# 6 0.000000 0.000000 0.000000 0.000000 0.000000 0.031757
#
#
# Mechanical properties :
#
#
# Convention : Reuss Voigt Hill
#
# Bulk Modulus (GPa) = 21.20275 21.49295 21.34785
# Shear Modulus (GPa) = 5.41950 25.45008 15.43479
#
# Velocity S-wave (km/s) = 1.56506 3.39154 2.64121
# Velocity P-wave (km/s) = 3.58453 5.00508 4.35314
#
# Compressibility (1/GPa) = 0.04716369
#
# Stress axis : x y z
#
# Youngs Moduli (GPa) = 65.64870 65.64870 103.62976
#
# Poissons Ratio (x) = 0.04240 -0.21608
# Poissons Ratio (y) = 0.04240 -0.21608
# Poissons Ratio (z) = -0.13688 -0.13688
#
# Static dielectric constant tensor:
#      x y z
#    x 1.828610 0.000000 0.000000 
#    y 0.000000 1.828610 0.000000 
#    z 0.000000 0.000000 1.934440 
# 
# From -- ./inp_files/52.got.cif
#   From: 2010.05.17/outbox.cif.g08.bks.cpg/sg185_cif.got.tgz:52.got - 2010.05.20 12:05:34.
