data_PCOD9585113
_publ_section_title
;
Structure prediction by ZEFSAII (Michael W. Deem and Ramdas Pophale) SiO2 
 PCOD9585113
Probable space group: P 6 C C
;
_chemical_formula_sum "Si O2"
_cell_formula_units_Z 48
_cell_length_a 16.846776
_cell_length_b 16.846776
_cell_length_c 8.835347
_cell_angle_alpha 90.000000
_cell_angle_beta 90.000000
_cell_angle_gamma 120.000000
_cell_volume 2171.640064
_symmetry_space_group_name_H-M "P 6 C C"
_symmetry_group_IT_number 184
_symmetry_cell_setting 'hexagonal'
loop_
_space_group_symop_operation_xyz
x,y,z
x-y,x,z
-y,x-y,z
-x,-y,z
-x+y,-x,z
y,-x+y,z
-x+y,y,1/2+z
x,x-y,1/2+z
-y,-x,1/2+z
y,x,1/2+z
x-y,-y,1/2+z
-x,-x+y,1/2+z
loop_
_atom_site_type_symbol
_atom_site_label
_atom_site_fract_x
_atom_site_fract_y
_atom_site_fract_z
Si Si1 0.390449 0.259307 0.951790
Si Si2 0.870568 0.531531 0.417029
Si Si3 0.570021 0.343521 0.126819
Si Si4 0.370343 0.019352 0.174472
O O1 0.398166 0.167939 0.951558
O O2 0.493588 0.334577 0.010233
O O3 0.365754 0.272177 0.782576
O O4 0.331320 0.283205 0.068709
O O5 0.797882 0.454896 0.301743
O O6 0.953937 0.576658 0.296793
O O7 0.926568 0.540427 0.569649
O O8 0.577607 0.251799 0.100232
#
# Coordination Sequence:
#
# PCOD9585113 Si02
#       4
#    12  12  12  12
#     4  10  19  36  61  84 118 151 197 248 295 356
#     4  10  19  36  61  84 118 151 197 248 295 356
#     4   9  21  38  57  81 102 149 202 258 297 341
#     4   9  19  34  59  88 111 157 189 240 308 354
#
# _framework density 22.103109
#
# number of rings (size 3 to 8) (size 9 to 14) (size 15 to 20)
#    0.500    2.000    0.000    3.000    0.000    2.000 
#    0.000    2.500    0.000  105.000    0.000    0.000 
#    0.000    0.000    0.000  693.000    0.000    0.000 
#
# Total GULP energy -267324.139994 kJ/mol
# GULP energy per Si atom -5569.252917 kJ/mol
# Density = 2.205280 g / cm^3
# Si number density = 22.103109 Si / 1000 Ang^3
#
#
#
# Elastic Constant Matrix: (Units=GPa)
#
#
# Indices 1 2 3 4 5 6 
#
# 1 68.7597 34.5057 26.6800 0.0000 0.0000 0.0000
# 2 34.5057 68.7597 26.6800 0.0000 0.0000 0.0000
# 3 26.6800 26.6800 163.6875 0.0000 0.0000 0.0000
# 4 0.0000 0.0000 0.0000 41.3187 0.0000 0.0000
# 5 0.0000 0.0000 0.0000 0.0000 41.3187 0.0000
# 6 0.0000 0.0000 0.0000 0.0000 0.0000 17.1270
#
#
#
# Elastic Compliance Matrix: (Units=1/GPa)
#
#
# Indices 1 2 3 4 5 6 
#
# 1 0.019884 -0.009310 -0.001724 0.000000 0.000000 0.000000
# 2 -0.009310 0.019884 -0.001724 0.000000 0.000000 0.000000
# 3 -0.001724 -0.001724 0.006671 0.000000 0.000000 0.000000
# 4 0.000000 0.000000 0.000000 0.024202 0.000000 0.000000
# 5 0.000000 0.000000 0.000000 0.000000 0.024202 0.000000
# 6 0.000000 0.000000 0.000000 0.000000 0.000000 0.058387
#
#
# Mechanical properties :
#
#
# Convention : Reuss Voigt Hill
#
# Bulk Modulus (GPa) = 47.78830 52.99314 50.39072
# Shear Modulus (GPa) = 26.92234 34.17562 30.54898
#
# Velocity S-wave (km/s) = 3.49382 3.93643 3.72171
# Velocity P-wave (km/s) = 6.15981 6.68492 6.42773
#
# Compressibility (1/GPa) = 0.02092562
#
# Stress axis : x y z
#
# Youngs Moduli (GPa) = 50.29163 50.29163 149.90124
#
# Poissons Ratio (x) = 0.46820 0.25836
# Poissons Ratio (y) = 0.46820 0.25836
# Poissons Ratio (z) = 0.08668 0.08668
#
# Static dielectric constant tensor:
#      x y z
#    x 1.998760 0.000000 0.000000 
#    y 0.000000 1.998760 0.000000 
#    z 0.000000 0.000000 2.001460 
# 
# From -- ./inp_files/254.got.cif
#   From: 2010.05.17/outbox.cif.g08.bks.cpg/sg184_cif.got.tgz:254.got - 2010.05.20 12:04:40.
