data_PCOD9585916
_publ_section_title
;
Structure prediction by ZEFSAII (Michael W. Deem and Ramdas Pophale) SiO2 
 PCOD9585916
Probable space group: P -6 C 2
;
_chemical_formula_sum "Si O2"
_cell_formula_units_Z 58
_cell_length_a 14.454350
_cell_length_b 14.454350
_cell_length_c 15.240634
_cell_angle_alpha 90.000000
_cell_angle_beta 90.000000
_cell_angle_gamma 120.000000
_cell_volume 2757.597004
_symmetry_space_group_name_H-M "P -6 C 2"
_symmetry_group_IT_number 188
_symmetry_cell_setting 'hexagonal'
loop_
_space_group_symop_operation_xyz
x,y,z
-x+y,-x,1/2-z
-y,x-y,z
x,y,1/2-z
-x+y,-x,z
-y,x-y,1/2-z
-y,-x,-z
-x+y,y,-z
x,x-y,-z
-x+y,y,1/2+z
x,x-y,1/2+z
-y,-x,1/2+z
loop_
_atom_site_type_symbol
_atom_site_label
_atom_site_fract_x
_atom_site_fract_y
_atom_site_fract_z
Si Si1 0.435379 0.231047 0.152244
Si Si2 0.666668 0.333334 0.395161
Si Si3 0.237470 0.314356 0.931794
Si Si4 0.858802 0.141199 0.500000
Si Si5 0.080105 0.513503 0.750000
Si Si6 0.177909 0.770229 0.750000
Si Si7 0.566893 0.522453 0.089799
O O1 0.397247 0.231364 0.250000
O O2 0.557450 0.323266 0.139704
O O3 0.358209 0.223964 0.074868
O O4 0.447783 0.126738 0.136212
O O5 0.666668 0.333334 0.500000
O O6 0.208904 0.333252 0.834461
O O7 0.360544 0.405977 0.943049
O O8 0.165645 0.331289 0.000000
O O9 0.225169 0.198344 0.952531
O O10 0.143600 0.643958 0.750000
O O11 0.156837 0.463134 0.750000
O O12 0.005973 0.480709 0.837155
O O13 0.543516 0.456485 0.000000
#
# Coordination Sequence:
#
# PCOD9585916 Si02
#       7
#    12   4  12   6   6   6  12
#     4  11  22  39  58  86 123 164 206 254 309 377
#     4  12  22  38  52  82 128 163 202 251 292 373
#     4  10  22  42  60  92 124 168 217 283 334 392
#     4  10  24  40  66  86 120 168 212 274 326 390
#     4  10  19  36  58  94 124 172 200 263 317 399
#     4  10  21  38  66  94 138 164 220 265 335 405
#     4  10  20  35  61  87 125 163 208 255 323 394
#
# _framework density 21.032803000000001
#
# number of rings (size 3 to 8) (size 9 to 14) (size 15 to 20)
#    0.000    1.655    2.069    2.690    7.241    0.000 
#    2.483    0.000    0.000    6.621    0.000    0.000 
#    0.000    0.000    0.000    0.000    0.000    0.000 
#
# Total GULP energy -324069.537347 kJ/mol
# GULP energy per Si atom -5587.405816 kJ/mol
# Density = 2.098493 g / cm^3
# Si number density = 21.032803 Si / 1000 Ang^3
#
#
#
# Elastic Constant Matrix: (Units=GPa)
#
#
# Indices 1 2 3 4 5 6 
#
# 1 83.9361 21.0805 47.9021 0.0000 0.0000 0.0000
# 2 21.0805 83.9360 47.9020 -0.0002 0.0000 0.0001
# 3 47.9021 47.9020 187.5973 0.0000 0.0000 0.0000
# 4 0.0000 -0.0002 0.0000 36.2543 0.0000 0.0000
# 5 0.0000 0.0000 0.0000 0.0000 36.2542 0.0000
# 6 0.0000 0.0001 0.0000 0.0000 0.0000 31.4279
#
#
#
# Elastic Compliance Matrix: (Units=1/GPa)
#
#
# Indices 1 2 3 4 5 6 
#
# 1 0.014162 -0.001748 -0.003170 0.000000 0.000000 0.000000
# 2 -0.001748 0.014162 -0.003170 0.000000 0.000000 0.000000
# 3 -0.003170 -0.003170 0.006949 0.000000 0.000000 0.000000
# 4 0.000000 0.000000 0.000000 0.027583 0.000000 0.000000
# 5 0.000000 0.000000 0.000000 0.000000 0.027583 0.000000
# 6 0.000000 0.000000 0.000000 0.000000 0.000000 0.031819
#
#
# Mechanical properties :
#
#
# Convention : Reuss Voigt Hill
#
# Bulk Modulus (GPa) = 52.36122 65.47093 58.91608
# Shear Modulus (GPa) = 34.53067 36.69293 35.61180
#
# Velocity S-wave (km/s) = 4.05625 4.18132 4.11926
# Velocity P-wave (km/s) = 6.84738 7.38288 7.12016
#
# Compressibility (1/GPa) = 0.01909810
#
# Stress axis : x y z
#
# Youngs Moduli (GPa) = 70.61250 70.61243 143.89737
#
# Poissons Ratio (x) = 0.12341 0.45614
# Poissons Ratio (y) = 0.12341 0.45614
# Poissons Ratio (z) = 0.22383 0.22383
#
# Static dielectric constant tensor:
#      x y z
#    x 1.810760 0.000000 0.000000 
#    y 0.000000 1.810750 0.000000 
#    z 0.000000 0.000000 1.758180 
# 
# From -- ./inp_files/2346.got.cif
#   From: 2010.05.17/outbox.cif.g08.bks.cpg/sg188_2_cif.got.tgz:2346.got - 2010.05.20 12:11:46.
