data_PCOD9585442
_publ_section_title
;
Structure prediction by ZEFSAII (Michael W. Deem and Ramdas Pophale) SiO2 
 PCOD9585442
Probable space group: P -6 M 2
;
_chemical_formula_sum "Si O2"
_cell_formula_units_Z 96
_cell_length_a 17.686839
_cell_length_b 17.686839
_cell_length_c 25.941376
_cell_angle_alpha 90.000000
_cell_angle_beta 90.000000
_cell_angle_gamma 120.000000
_cell_volume 7027.875920
_symmetry_space_group_name_H-M "P -6 M 2"
_symmetry_group_IT_number 187
_symmetry_cell_setting 'hexagonal'
loop_
_space_group_symop_operation_xyz
x,y,z
-x+y,-x,-z
-y,x-y,z
x,y,-z
-x+y,-x,z
-y,x-y,-z
-y,-x,-z
-x+y,y,-z
x,x-y,-z
-x+y,y,z
x,x-y,z
-y,-x,z
loop_
_atom_site_type_symbol
_atom_site_label
_atom_site_fract_x
_atom_site_fract_y
_atom_site_fract_z
Si Si1 0.843030 0.508898 0.226090
Si Si2 0.001390 0.820222 0.347511
Si Si3 0.299679 0.057931 0.441267
Si Si4 0.840027 0.334223 0.437123
Si Si5 0.180807 0.181925 0.847598
Si Si6 0.942171 0.701357 0.749289
Si Si7 0.842670 0.334032 0.898592
Si Si8 0.756597 0.696844 0.058173
O O1 0.747773 0.495546 0.239672
O O2 0.849773 0.424887 0.241200
O O3 0.917191 0.600954 0.248589
O O4 0.849836 0.517073 0.163653
O O5 0.087052 0.912949 0.341064
O O6 0.915183 0.830365 0.346618
O O7 0.000765 0.774580 0.401219
O O8 0.990310 0.754959 0.301336
O O9 0.285321 0.024874 0.500000
O O10 0.301864 0.150932 0.442574
O O11 0.397049 0.084812 0.422857
O O12 0.838563 0.333442 0.500000
O O13 0.852091 0.426046 0.419675
O O14 0.746483 0.253518 0.420379
O O15 0.087714 0.175427 0.843247
O O16 0.243563 0.234544 0.799889
O O17 0.230817 0.229179 0.900028
O O18 0.170189 0.085095 0.846888
O O19 0.848257 0.696513 0.750242
O O20 0.850800 0.425400 0.913813
O O21 0.746827 0.253174 0.912106
O O22 0.913605 0.313893 0.923497
O O23 0.848247 0.696493 0.058318
O O24 0.739824 0.714466 0.000000
#
# Coordination Sequence:
#
# PCOD9585442 Si02
#       8
#    12  12  12  12  12  12  12  12
#     4   9  15  25  42  63  86 113 142 166 188 224
#     4  10  19  30  44  60  78 103 137 175 210 245
#     4   8  15  27  40  56  81 110 137 167 206 245
#     4   8  12  19  34  56  81 110 143 173 196 223
#     4  10  18  29  43  58  75 100 136 175 211 246
#     4   9  17  29  43  60  82 105 130 165 208 241
#     4   9  15  24  39  59  82 110 142 170 193 225
#     4   9  17  28  39  53  78 108 135 167 207 243
#
# _framework density 13.659888
#
# number of rings (size 3 to 8) (size 9 to 14) (size 15 to 20)
#    0.000    3.000    1.250    1.750    0.000    2.250 
#    0.000    1.875    0.000    2.250    0.000    1.750 
#    0.000    0.000    0.000   10.500    0.000   13.000 
#
# Total GULP energy -534448.081474 kJ/mol
# GULP energy per Si atom -5567.167515 kJ/mol
# Density = 1.362880 g / cm^3
# Si number density = 13.659888 Si / 1000 Ang^3
#
#
#
# Elastic Constant Matrix: (Units=GPa)
#
#
# Indices 1 2 3 4 5 6 
#
# 1 76.6651 34.9677 37.4594 0.0000 -0.0001 0.0000
# 2 34.9677 76.6651 37.4594 0.0000 0.0001 0.0000
# 3 37.4594 37.4594 60.4966 0.0000 0.0000 0.0000
# 4 0.0000 0.0000 0.0000 11.1115 0.0000 0.0001
# 5 -0.0001 0.0001 0.0000 0.0000 11.1115 0.0000
# 6 0.0000 0.0000 0.0000 0.0001 0.0000 20.8487
#
#
#
# Elastic Compliance Matrix: (Units=1/GPa)
#
#
# Indices 1 2 3 4 5 6 
#
# 1 0.019655 -0.004328 -0.009491 0.000000 0.000000 0.000000
# 2 -0.004328 0.019655 -0.009491 0.000000 0.000000 0.000000
# 3 -0.009491 -0.009491 0.028283 0.000000 0.000000 0.000000
# 4 0.000000 0.000000 0.000000 0.089997 0.000000 -0.000001
# 5 0.000000 0.000000 0.000000 0.000000 0.089997 0.000000
# 6 0.000000 0.000000 0.000000 -0.000001 0.000000 0.047965
#
#
# Mechanical properties :
#
#
# Convention : Reuss Voigt Hill
#
# Bulk Modulus (GPa) = 47.67567 48.17777 47.92672
# Shear Modulus (GPa) = 14.32009 15.54371 14.93190
#
# Velocity S-wave (km/s) = 3.24131 3.37695 3.30982
# Velocity P-wave (km/s) = 6.99899 7.10993 7.05468
#
# Compressibility (1/GPa) = 0.02097506
#
# Stress axis : x y z
#
# Youngs Moduli (GPa) = 50.87824 50.87824 35.35700
#
# Poissons Ratio (x) = 0.22018 0.33556
# Poissons Ratio (y) = 0.22018 0.33556
# Poissons Ratio (z) = 0.48286 0.48286
#
# Static dielectric constant tensor:
#      x y z
#    x 1.431330 0.000000 0.000000 
#    y 0.000000 1.431330 0.000000 
#    z 0.000000 0.000000 1.476650 
# 
# From -- ./inp_files/4092.got.cif
#   From: 2010.05.17/outbox.cif.g08.bks.cpg/sg187_3_cif.got.tgz:4092.got - 2010.05.20 12:09:04.
