data_PCOD9585316
_publ_section_title
;
Structure prediction by ZEFSAII (Michael W. Deem and Ramdas Pophale) SiO2 
 PCOD9585316
Probable space group: P 63 M C
;
_chemical_formula_sum "Si O2"
_cell_formula_units_Z 60
_cell_length_a 23.313937
_cell_length_b 23.313937
_cell_length_c 8.526090
_cell_angle_alpha 90.000000
_cell_angle_beta 90.000000
_cell_angle_gamma 120.000000
_cell_volume 4013.393856
_symmetry_space_group_name_H-M "P 63 M C"
_symmetry_group_IT_number 186
_symmetry_cell_setting 'hexagonal'
loop_
_space_group_symop_operation_xyz
x,y,z
x-y,x,1/2+z
-y,x-y,z
-x,-y,1/2+z
-x+y,-x,z
y,-x+y,1/2+z
-x+y,y,z
x,x-y,z
-y,-x,z
y,x,1/2+z
x-y,-y,1/2+z
-x,-x+y,1/2+z
loop_
_atom_site_type_symbol
_atom_site_label
_atom_site_fract_x
_atom_site_fract_y
_atom_site_fract_z
Si Si1 0.709270 0.028185 0.109600
Si Si2 0.488082 0.976164 0.934296
Si Si3 0.166075 0.702480 0.177563
Si Si4 0.315548 0.092913 0.806915
Si Si5 0.928674 0.341162 0.394488
Si Si6 0.448670 0.551331 0.260429
O O1 0.697214 0.070575 0.240123
O O2 0.718199 0.972422 0.199706
O O3 0.766408 0.071044 0.987295
O O4 0.642444 0.986904 0.005827
O O5 0.532095 0.948113 0.858217
O O6 0.527527 0.055053 0.911122
O O7 0.474132 0.948264 0.111761
O O8 0.243181 0.756820 0.182563
O O9 0.127161 0.732789 0.272062
O O10 0.145649 0.630353 0.243595
O O11 0.136961 0.692379 0.000652
O O12 0.295709 0.147855 0.769839
#
# Coordination Sequence:
#
# PCOD9585316 Si02
#       6
#    12   6  12  12  12   6
#     4   9  16  27  41  62  85 111 139 166 206 249
#     4  10  16  24  40  62  80 100 132 180 232 254
#     4   9  18  30  41  58  83 112 145 177 217 264
#     4   9  17  29  44  61  87 115 140 170 205 250
#     4   9  16  25  40  59  84 108 135 178 218 258
#     4  10  18  28  44  62  82 104 136 184 226 262
#
# _framework density 14.94994
#
# number of rings (size 3 to 8) (size 9 to 14) (size 15 to 20)
#    0.000    2.800    0.000    4.800    0.000    0.800 
#    0.600    3.000    0.000    0.000    0.000    0.000 
#    0.000    0.000    0.000    6.000    0.000    0.000 
#
# Total GULP energy -334194.324551 kJ/mol
# GULP energy per Si atom -5569.905409 kJ/mol
# Density = 1.491591 g / cm^3
# Si number density = 14.949940 Si / 1000 Ang^3
#
#
#
# Elastic Constant Matrix: (Units=GPa)
#
#
# Indices 1 2 3 4 5 6 
#
# 1 63.7478 33.4056 21.0303 0.0000 0.0000 0.0000
# 2 33.4056 63.7478 21.0303 0.0000 0.0000 0.0000
# 3 21.0303 21.0303 58.9566 0.0000 0.0000 0.0000
# 4 0.0000 0.0000 0.0000 11.6844 0.0000 0.0000
# 5 0.0000 0.0000 0.0000 0.0000 11.6844 0.0000
# 6 0.0000 0.0000 0.0000 0.0000 0.0000 15.1711
#
#
#
# Elastic Compliance Matrix: (Units=1/GPa)
#
#
# Indices 1 2 3 4 5 6 
#
# 1 0.022565 -0.010392 -0.004342 0.000000 0.000000 0.000000
# 2 -0.010392 0.022565 -0.004342 0.000000 0.000000 0.000000
# 3 -0.004342 -0.004342 0.020059 0.000000 0.000000 0.000000
# 4 0.000000 0.000000 0.000000 0.085584 0.000000 0.000000
# 5 0.000000 0.000000 0.000000 0.000000 0.085584 0.000000
# 6 0.000000 0.000000 0.000000 0.000000 0.000000 0.065915
#
#
# Mechanical properties :
#
#
# Convention : Reuss Voigt Hill
#
# Bulk Modulus (GPa) = 36.98709 37.48719 37.23714
# Shear Modulus (GPa) = 14.30872 15.10707 14.70789
#
# Velocity S-wave (km/s) = 3.09707 3.18230 3.13998
# Velocity P-wave (km/s) = 6.13054 6.21549 6.17316
#
# Compressibility (1/GPa) = 0.02703646
#
# Stress axis : x y z
#
# Youngs Moduli (GPa) = 44.31623 44.31623 49.85197
#
# Poissons Ratio (x) = 0.46054 0.21647
# Poissons Ratio (y) = 0.46054 0.21647
# Poissons Ratio (z) = 0.19243 0.19243
#
# Static dielectric constant tensor:
#      x y z
#    x 1.487630 0.000000 0.000000 
#    y 0.000000 1.487630 0.000000 
#    z 0.000000 0.000000 1.519800 
# 
# From -- ./inp_files/1001.got.cif
#   From: 2010.05.17/outbox.cif.g08.bks.cpg/sg186_1_cif.got.tgz:1001.got - 2010.05.20 12:07:08.
