data_PCOD9585866
_publ_section_title
;
Structure prediction by ZEFSAII (Michael W. Deem and Ramdas Pophale) SiO2 
 PCOD9585866
Probable space group: P -6 C 2
;
_chemical_formula_sum "Si O2"
_cell_formula_units_Z 96
_cell_length_a 17.569166
_cell_length_b 17.569166
_cell_length_c 25.958337
_cell_angle_alpha 90.000000
_cell_angle_beta 90.000000
_cell_angle_gamma 120.000000
_cell_volume 6939.206162
_symmetry_space_group_name_H-M "P -6 C 2"
_symmetry_group_IT_number 188
_symmetry_cell_setting 'hexagonal'
loop_
_space_group_symop_operation_xyz
x,y,z
-x+y,-x,1/2-z
-y,x-y,z
x,y,1/2-z
-x+y,-x,z
-y,x-y,1/2-z
-y,-x,-z
-x+y,y,-z
x,x-y,-z
-x+y,y,1/2+z
x,x-y,1/2+z
-y,-x,1/2+z
loop_
_atom_site_type_symbol
_atom_site_label
_atom_site_fract_x
_atom_site_fract_y
_atom_site_fract_z
Si Si1 0.827968 0.998815 0.643919
Si Si2 0.167660 0.164651 0.311864
Si Si3 0.149656 0.485291 0.902521
Si Si4 0.828422 0.000760 0.979795
Si Si5 0.636376 0.912498 0.191859
Si Si6 0.091781 0.367805 0.000527
Si Si7 0.270655 0.360234 0.808704
Si Si8 0.151272 0.484844 0.099096
O O1 0.825844 0.997915 0.582198
O O2 0.906371 0.089711 0.665134
O O3 0.843647 0.920321 0.663525
O O4 0.734374 0.977429 0.667233
O O5 0.156187 0.155597 0.250000
O O6 0.246904 0.263410 0.322282
O O7 0.100794 0.434508 0.850534
O O8 0.097344 0.423673 0.950715
O O9 0.246619 0.494976 0.902350
O O10 0.157863 0.579614 0.906490
O O11 0.908936 0.091065 0.000000
O O12 0.840050 0.920025 0.000000
O O13 0.733576 0.983408 0.998957
O O14 0.616718 0.928641 0.250000
O O15 0.637788 0.820786 0.192620
O O16 0.181820 0.363640 0.000000
O O17 0.097088 0.420271 0.052190
O O18 0.302122 0.369089 0.750000
O O19 0.331860 0.437429 0.847524
#
# Coordination Sequence:
#
# PCOD9585866 Si02
#       8
#    12  12  12  12  12  12  12  12
#     4  11  19  30  45  61  88 119 156 189 220 256
#     4  10  19  29  44  64  87 117 156 190 216 253
#     4  10  19  29  50  62  89 112 151 189 227 268
#     4  11  22  32  44  65  92 123 155 186 217 253
#     4   8  17  30  43  62  87 117 145 179 225 267
#     4   9  19  32  46  62  87 118 147 183 226 263
#     4   9  17  30  45  61  87 117 147 182 226 268
#     4  10  18  32  44  69  83 114 149 191 226 263
#
# _framework density 13.834436
#
# number of rings (size 3 to 8) (size 9 to 14) (size 15 to 20)
#    0.000    2.250    1.250    3.625    7.000    0.500 
#    0.000    1.250    0.000    1.500    0.000    0.000 
#    0.000    0.000    0.000   10.500    0.000   12.000 
#
# Total GULP energy -535153.060147 kJ/mol
# GULP energy per Si atom -5574.511043 kJ/mol
# Density = 1.380295 g / cm^3
# Si number density = 13.834436 Si / 1000 Ang^3
#
#
#
# Elastic Constant Matrix: (Units=GPa)
#
#
# Indices 1 2 3 4 5 6 
#
# 1 78.1383 37.5611 46.1328 0.0000 0.0000 0.0000
# 2 37.5611 78.1383 46.1328 0.0000 0.0000 0.0000
# 3 46.1328 46.1328 112.6962 0.0000 0.0000 0.0000
# 4 0.0000 0.0000 0.0000 14.5809 0.0000 0.0000
# 5 0.0000 0.0000 0.0000 0.0000 14.5809 0.0000
# 6 0.0000 0.0000 0.0000 0.0000 0.0000 20.2886
#
#
#
# Elastic Compliance Matrix: (Units=1/GPa)
#
#
# Indices 1 2 3 4 5 6 
#
# 1 0.018738 -0.005906 -0.005253 0.000000 0.000000 0.000000
# 2 -0.005906 0.018738 -0.005253 0.000000 0.000000 0.000000
# 3 -0.005253 -0.005253 0.013174 0.000000 0.000000 0.000000
# 4 0.000000 0.000000 0.000000 0.068583 0.000000 0.000000
# 5 0.000000 0.000000 0.000000 0.000000 0.068583 0.000000
# 6 0.000000 0.000000 0.000000 0.000000 0.000000 0.049289
#
#
# Mechanical properties :
#
#
# Convention : Reuss Voigt Hill
#
# Bulk Modulus (GPa) = 56.09593 58.73624 57.41609
# Shear Modulus (GPa) = 18.12443 19.16649 18.64546
#
# Velocity S-wave (km/s) = 3.62345 3.72616 3.67516
# Velocity P-wave (km/s) = 7.62509 7.81416 7.72020
#
# Compressibility (1/GPa) = 0.01782661
#
# Stress axis : x y z
#
# Youngs Moduli (GPa) = 53.36685 53.36685 75.90719
#
# Poissons Ratio (x) = 0.31520 0.39873
# Poissons Ratio (y) = 0.31520 0.39873
# Poissons Ratio (z) = 0.28033 0.28033
#
# Static dielectric constant tensor:
#      x y z
#    x 1.434910 0.000000 0.000000 
#    y 0.000000 1.434910 0.000000 
#    z 0.000000 0.000000 1.476480 
# 
# From -- ./inp_files/3887.got.cif
#   From: 2010.05.17/outbox.cif.g08.bks.cpg/sg188_2_cif.got.tgz:3887.got - 2010.05.20 12:11:46.
