data_PCOD9585249
_publ_section_title
;
Structure prediction by ZEFSAII (Michael W. Deem and Ramdas Pophale) SiO2 
 PCOD9585249
Probable space group: P 63 C M
;
_chemical_formula_sum "Si O2"
_cell_formula_units_Z 96
_cell_length_a 24.031535
_cell_length_b 24.031535
_cell_length_c 10.427132
_cell_angle_alpha 90.000000
_cell_angle_beta 90.000000
_cell_angle_gamma 120.000000
_cell_volume 5215.050606
_symmetry_space_group_name_H-M "P 63 C M"
_symmetry_group_IT_number 185
_symmetry_cell_setting 'hexagonal'
loop_
_space_group_symop_operation_xyz
x,y,z
x-y,x,1/2+z
-y,x-y,z
-x,-y,1/2+z
-x+y,-x,z
y,-x+y,1/2+z
-x+y,y,1/2+z
x,x-y,1/2+z
-y,-x,1/2+z
y,x,z
x-y,-y,z
-x,-x+y,z
loop_
_atom_site_type_symbol
_atom_site_label
_atom_site_fract_x
_atom_site_fract_y
_atom_site_fract_z
Si Si1 0.070964 0.798951 0.289060
Si Si2 0.711142 0.558011 0.388066
Si Si3 0.569840 0.074994 0.977528
Si Si4 0.284595 0.362181 0.637858
Si Si5 0.848556 0.584554 0.380092
Si Si6 0.747922 0.680511 0.510382
Si Si7 0.400345 0.926405 0.768117
Si Si8 0.929422 0.756402 0.760734
O O1 0.123696 0.783109 0.344843
O O2 0.066560 0.779219 0.141892
O O3 0.100881 0.874797 0.284091
O O4 0.000000 0.757752 0.348396
O O5 0.638660 0.507977 0.426024
O O6 0.705494 0.595588 0.264468
O O7 0.771044 0.546108 0.372086
O O8 0.736332 0.610079 0.502077
O O9 0.571653 0.082268 0.132594
O O10 0.550842 0.000000 0.955111
O O11 0.517359 0.080896 0.891942
O O12 0.333572 0.333572 0.630593
O O13 0.288364 0.406319 0.519074
O O14 0.213183 0.299268 0.654839
O O15 0.878888 0.553845 0.286556
O O16 0.681654 0.681654 0.499346
O O17 0.790653 0.722029 0.392303
O O18 0.415605 0.000000 0.768097
O O19 0.000000 0.813951 0.733439
#
# Coordination Sequence:
#
# PCOD9585249 Si02
#       8
#    12  12  12  12  12  12  12  12
#     4  11  20  31  49  74 106 144 185 232 289 345
#     4  11  21  33  59  82 115 151 194 234 288 350
#     4  10  22  41  63  86 114 154 199 238 287 353
#     4  10  20  33  51  79 116 154 189 235 293 349
#     4  12  23  34  54  87 121 148 187 240 294 348
#     4   9  17  31  49  71 103 140 180 223 278 340
#     4  10  23  41  61  86 119 156 194 239 288 349
#     4   9  18  32  46  67 101 141 183 229 279 340
#
# _framework density 18.408259000000001
#
# number of rings (size 3 to 8) (size 9 to 14) (size 15 to 20)
#    0.000    1.750    2.500    4.500    3.500    2.000 
#    0.000    0.000    0.000    0.750    0.000    0.000 
#    0.000    0.000    0.000    0.000    0.000    0.000 
#
# Total GULP energy -534813.213684 kJ/mol
# GULP energy per Si atom -5570.970976 kJ/mol
# Density = 1.836636 g / cm^3
# Si number density = 18.408259 Si / 1000 Ang^3
#
#
#
# Elastic Constant Matrix: (Units=GPa)
#
#
# Indices 1 2 3 4 5 6 
#
# 1 66.9996 22.5229 15.4901 0.0000 0.0000 0.0000
# 2 22.5229 66.9996 15.4901 0.0000 0.0000 0.0000
# 3 15.4901 15.4901 78.6701 0.0000 0.0000 0.0000
# 4 0.0000 0.0000 0.0000 8.4166 0.0000 0.0000
# 5 0.0000 0.0000 0.0000 0.0000 8.4166 0.0000
# 6 0.0000 0.0000 0.0000 0.0000 0.0000 22.2384
#
#
#
# Elastic Compliance Matrix: (Units=1/GPa)
#
#
# Indices 1 2 3 4 5 6 
#
# 1 0.017235 -0.005248 -0.002360 0.000000 0.000000 0.000000
# 2 -0.005248 0.017235 -0.002360 0.000000 0.000000 0.000000
# 3 -0.002360 -0.002360 0.013641 0.000000 0.000000 0.000000
# 4 0.000000 0.000000 0.000000 0.118812 0.000000 0.000000
# 5 0.000000 0.000000 0.000000 0.000000 0.118812 0.000000
# 6 0.000000 0.000000 0.000000 0.000000 0.000000 0.044967
#
#
# Mechanical properties :
#
#
# Convention : Reuss Voigt Hill
#
# Bulk Modulus (GPa) = 35.49368 35.51953 35.50661
# Shear Modulus (GPa) = 13.88765 18.42541 16.15653
#
# Velocity S-wave (km/s) = 2.74966 3.16718 2.96578
# Velocity P-wave (km/s) = 5.42255 5.71945 5.57298
#
# Compressibility (1/GPa) = 0.02817403
#
# Stress axis : x y z
#
# Youngs Moduli (GPa) = 58.02005 58.02005 73.30961
#
# Poissons Ratio (x) = 0.30450 0.17303
# Poissons Ratio (y) = 0.30450 0.17303
# Poissons Ratio (z) = 0.13694 0.13694
#
# Static dielectric constant tensor:
#      x y z
#    x 1.694680 0.000000 0.000000 
#    y 0.000000 1.694680 0.000000 
#    z 0.000000 0.000000 1.694720 
# 
# From -- ./inp_files/1081.got.cif
#   From: 2010.05.17/outbox.cif.g08.bks.cpg/sg185_cif.got.tgz:1081.got - 2010.05.20 12:05:34.
