data_PCOD9585986
_publ_section_title
;
Structure prediction by ZEFSAII (Michael W. Deem and Ramdas Pophale) SiO2 
 PCOD9585986
Probable space group: P -6 C 2
;
_chemical_formula_sum "Si O2"
_cell_formula_units_Z 58
_cell_length_a 14.992917
_cell_length_b 14.992917
_cell_length_c 14.578226
_cell_angle_alpha 90.000000
_cell_angle_beta 90.000000
_cell_angle_gamma 120.000000
_cell_volume 2837.968586
_symmetry_space_group_name_H-M "P -6 C 2"
_symmetry_group_IT_number 188
_symmetry_cell_setting 'hexagonal'
loop_
_space_group_symop_operation_xyz
x,y,z
-x+y,-x,1/2-z
-y,x-y,z
x,y,1/2-z
-x+y,-x,z
-y,x-y,1/2-z
-y,-x,-z
-x+y,y,-z
x,x-y,-z
-x+y,y,1/2+z
x,x-y,1/2+z
-y,-x,1/2+z
loop_
_atom_site_type_symbol
_atom_site_label
_atom_site_fract_x
_atom_site_fract_y
_atom_site_fract_z
Si Si1 0.178500 0.170096 0.557304
Si Si2 0.308745 0.408651 0.910799
Si Si3 0.959482 0.600928 0.250000
Si Si4 0.267322 0.159782 0.750000
Si Si5 0.962298 0.559309 0.750000
Si Si6 0.143821 0.674525 0.114674
Si Si7 0.333334 0.666668 0.111434
O O1 0.073743 0.147486 0.500000
O O2 0.252428 0.290943 0.557024
O O3 0.191652 0.141383 0.662653
O O4 0.223366 0.111683 0.500000
O O5 0.399300 0.431670 0.841066
O O6 0.217320 0.421083 0.867170
O O7 0.339982 0.468151 0.006190
O O8 0.904313 0.670650 0.250000
O O9 0.907532 0.474041 0.250000
O O10 0.037028 0.635363 0.164144
O O11 0.366390 0.277717 0.750000
O O12 0.218741 0.631585 0.143465
O O13 0.333334 0.666667 0.000000
#
# Coordination Sequence:
#
# PCOD9585986 Si02
#       7
#    12  12   6   6   6  12   4
#     4  11  22  41  65  96 133 176 225 281 346 399
#     4  10  20  39  60  91 128 171 210 269 316 412
#     4  12  25  41  64  93 123 177 224 272 330 395
#     4  10  26  44  66  98 134 167 235 286 333 429
#     4  10  23  41  62  89 123 164 219 274 339 378
#     4  11  22  35  60  88 134 169 215 249 329 388
#     4  12  21  34  56  94 135 177 208 262 308 397
#
# _framework density 20.437154
#
# number of rings (size 3 to 8) (size 9 to 14) (size 15 to 20)
#    0.000    1.241    4.138    3.310    0.000    1.655 
#    0.621    0.000    0.000    0.000    0.000    0.000 
#    0.000    0.000    0.000    0.000    0.000    0.000 
#
# Total GULP energy -322960.452830 kJ/mol
# GULP energy per Si atom -5568.283669 kJ/mol
# Density = 2.039064 g / cm^3
# Si number density = 20.437154 Si / 1000 Ang^3
#
#
#
# Elastic Constant Matrix: (Units=GPa)
#
#
# Indices 1 2 3 4 5 6 
#
# 1 106.6001 45.1248 34.8807 -0.0002 0.0000 -0.0001
# 2 45.1248 106.6007 34.8807 0.0001 -0.0002 0.0000
# 3 34.8807 34.8807 135.2966 0.0000 0.0001 0.0000
# 4 -0.0002 0.0001 0.0000 17.7377 -0.0002 0.0001
# 5 0.0000 -0.0002 0.0001 -0.0002 17.7377 0.0000
# 6 -0.0001 0.0000 0.0000 0.0001 0.0000 30.7379
#
#
#
# Elastic Compliance Matrix: (Units=1/GPa)
#
#
# Indices 1 2 3 4 5 6 
#
# 1 0.011872 -0.004395 -0.001928 0.000000 0.000000 0.000000
# 2 -0.004395 0.011872 -0.001928 0.000000 0.000000 0.000000
# 3 -0.001928 -0.001928 0.008385 0.000000 0.000000 0.000000
# 4 0.000000 0.000000 0.000000 0.056377 0.000001 0.000000
# 5 0.000000 0.000000 0.000000 0.000001 0.056377 0.000000
# 6 0.000000 0.000000 0.000000 0.000000 0.000000 0.032533
#
#
# Mechanical properties :
#
#
# Convention : Reuss Voigt Hill
#
# Bulk Modulus (GPa) = 63.98467 64.25223 64.11845
# Shear Modulus (GPa) = 25.10972 28.81672 26.96322
#
# Velocity S-wave (km/s) = 3.50899 3.75909 3.63619
# Velocity P-wave (km/s) = 6.91327 7.09565 7.00505
#
# Compressibility (1/GPa) = 0.01562874
#
# Stress axis : x y z
#
# Youngs Moduli (GPa) = 84.23218 84.23268 119.25887
#
# Poissons Ratio (x) = 0.37018 0.22990
# Poissons Ratio (y) = 0.37018 0.22989
# Poissons Ratio (z) = 0.16237 0.16237
#
# Static dielectric constant tensor:
#      x y z
#    x 1.768170 0.000000 0.000000 
#    y 0.000000 1.768160 0.000000 
#    z 0.000000 0.000000 1.888280 
# 
# From -- ./inp_files/2357.got.cif
#   From: 2010.05.17/outbox.cif.g08.bks.cpg/sg188_2_cif.got.tgz:2357.got - 2010.05.20 12:11:46.
