data_PCOD9585463
_publ_section_title
;
Structure prediction by ZEFSAII (Michael W. Deem and Ramdas Pophale) SiO2 
 PCOD9585463
Probable space group: P -6 M 2
;
_chemical_formula_sum "Si O2"
_cell_formula_units_Z 60
_cell_length_a 22.125584
_cell_length_b 22.125584
_cell_length_c 8.168455
_cell_angle_alpha 90.000000
_cell_angle_beta 90.000000
_cell_angle_gamma 120.000000
_cell_volume 3463.060173
_symmetry_space_group_name_H-M "P -6 M 2"
_symmetry_group_IT_number 187
_symmetry_cell_setting 'hexagonal'
loop_
_space_group_symop_operation_xyz
x,y,z
-x+y,-x,-z
-y,x-y,z
x,y,-z
-x+y,-x,z
-y,x-y,-z
-y,-x,-z
-x+y,y,-z
x,x-y,-z
-x+y,y,z
x,x-y,z
-y,-x,z
loop_
_atom_site_type_symbol
_atom_site_label
_atom_site_fract_x
_atom_site_fract_y
_atom_site_fract_z
Si Si1 0.582383 0.164765 0.188202
Si Si2 0.445685 0.289731 0.799579
Si Si3 0.138492 0.000933 0.197963
Si Si4 0.505769 0.494232 0.312147
Si Si5 0.004567 0.376173 0.805663
Si Si6 0.706442 0.922045 0.694962
O O1 0.657193 0.182555 0.257848
O O2 0.540091 0.080181 0.197443
O O3 0.594366 0.188731 0.000000
O O4 0.422750 0.211375 0.748633
O O5 0.397512 0.322095 0.748741
O O6 0.446796 0.291192 0.000000
O O7 0.061583 0.938417 0.245661
O O8 0.192993 0.978981 0.261033
O O9 0.150313 0.075157 0.254619
O O10 0.141329 0.002089 0.000000
O O11 0.517632 0.482369 0.500000
O O12 0.549522 0.575995 0.275316
O O13 0.054103 0.345253 0.765644
O O14 0.002166 0.383682 0.000000
O O15 0.699357 0.917952 0.500000
O O16 0.695448 0.847724 0.756409
#
# Coordination Sequence:
#
# PCOD9585463 Si02
#       6
#     6  12  12   6  12  12
#     4   8  14  26  42  60  86 120 158 200 242 284
#     4   8  14  25  41  63  90 118 154 202 247 282
#     4   9  17  30  48  68  91 125 172 221 263 302
#     4  10  18  30  50  72  94 120 152 190 234 282
#     4  10  19  32  51  72  96 126 160 199 242 290
#     4  10  21  35  49  69  99 130 160 200 251 303
#
# _framework density 17.325717000000001
#
# number of rings (size 3 to 8) (size 9 to 14) (size 15 to 20)
#    0.000    2.800    0.000    3.500    0.000    3.200 
#    0.600    2.000    0.000   15.600    0.000    0.000 
#    1.000    0.000    1.800    0.000    1.800    0.000 
#
# Total GULP energy -334257.432957 kJ/mol
# GULP energy per Si atom -5570.957216 kJ/mol
# Density = 1.728628 g / cm^3
# Si number density = 17.325717 Si / 1000 Ang^3
#
#
#
# Elastic Constant Matrix: (Units=GPa)
#
#
# Indices 1 2 3 4 5 6 
#
# 1 88.9201 65.0529 14.6018 0.0000 -0.0001 0.0000
# 2 65.0529 88.9201 14.6018 0.0000 0.0001 0.0000
# 3 14.6018 14.6018 27.6092 0.0000 0.0000 0.0000
# 4 0.0000 0.0000 0.0000 9.5330 0.0000 0.0001
# 5 -0.0001 0.0001 0.0000 0.0000 9.5330 0.0000
# 6 0.0000 0.0000 0.0000 0.0001 0.0000 11.9336
#
#
#
# Elastic Compliance Matrix: (Units=1/GPa)
#
#
# Indices 1 2 3 4 5 6 
#
# 1 0.024559 -0.017340 -0.003818 0.000000 0.000000 0.000000
# 2 -0.017340 0.024559 -0.003818 0.000000 0.000000 0.000000
# 3 -0.003818 -0.003818 0.040258 0.000000 0.000000 0.000000
# 4 0.000000 0.000000 0.000000 0.104899 0.000000 -0.000001
# 5 0.000000 0.000000 0.000000 0.000000 0.104899 0.000000
# 6 0.000000 0.000000 0.000000 -0.000001 0.000000 0.083797
#
#
# Mechanical properties :
#
#
# Convention : Reuss Voigt Hill
#
# Bulk Modulus (GPa) = 25.36503 43.77361 34.56932
# Shear Modulus (GPa) = 11.20922 13.61280 12.41101
#
# Velocity S-wave (km/s) = 2.54632 2.80607 2.67935
# Velocity P-wave (km/s) = 4.82876 5.98487 5.43763
#
# Compressibility (1/GPa) = 0.03942436
#
# Stress axis : x y z
#
# Youngs Moduli (GPa) = 40.71899 40.71899 24.83968
#
# Poissons Ratio (x) = 0.70606 0.09483
# Poissons Ratio (y) = 0.70606 0.09483
# Poissons Ratio (z) = 0.15546 0.15546
#
# Static dielectric constant tensor:
#      x y z
#    x 1.596800 0.000000 0.000000 
#    y 0.000000 1.596800 0.000000 
#    z 0.000000 0.000000 1.624030 
# 
# From -- ./inp_files/701.got.cif
#   From: 2010.05.17/outbox.cif.g08.bks.cpg/sg187_1_cif.got.tgz:701.got - 2010.05.20 12:09:04.
