data_PCOD9585686
_publ_section_title
;
Structure prediction by ZEFSAII (Michael W. Deem and Ramdas Pophale) SiO2 
 PCOD9585686
Probable space group: P -6 M 2
;
_chemical_formula_sum "Si O2"
_cell_formula_units_Z 84
_cell_length_a 18.634664
_cell_length_b 18.634664
_cell_length_c 14.356321
_cell_angle_alpha 90.000000
_cell_angle_beta 90.000000
_cell_angle_gamma 120.000000
_cell_volume 4317.346693
_symmetry_space_group_name_H-M "P -6 M 2"
_symmetry_group_IT_number 187
_symmetry_cell_setting 'hexagonal'
loop_
_space_group_symop_operation_xyz
x,y,z
-x+y,-x,-z
-y,x-y,z
x,y,-z
-x+y,-x,z
-y,x-y,-z
-y,-x,-z
-x+y,y,-z
x,x-y,-z
-x+y,y,z
x,x-y,z
-y,-x,z
loop_
_atom_site_type_symbol
_atom_site_label
_atom_site_fract_x
_atom_site_fract_y
_atom_site_fract_z
Si Si1 0.333133 0.496307 0.238401
Si Si2 0.442579 0.139962 0.103375
Si Si3 0.657538 0.705638 0.891956
Si Si4 0.999438 0.160661 0.886745
Si Si5 0.508890 0.335363 0.695094
Si Si6 0.265679 0.365271 0.610906
Si Si7 0.916187 0.242247 0.387676
O O1 0.258321 0.516643 0.237362
O O2 0.421439 0.578562 0.224636
O O3 0.312449 0.423991 0.163332
O O4 0.327608 0.449043 0.334935
O O5 0.406129 0.203065 0.107902
O O6 0.499991 0.162607 0.193160
O O7 0.373002 0.044564 0.111266
O O8 0.480982 0.152574 0.000000
O O9 0.744683 0.780588 0.855821
O O10 0.647929 0.722203 0.000000
O O11 0.908227 0.091773 0.853994
O O12 0.066739 0.133477 0.864435
O O13 0.994679 0.163544 0.000000
O O14 0.537421 0.268711 0.674148
O O15 0.574787 0.425214 0.659781
O O16 0.418120 0.297965 0.652463
O O17 0.278343 0.376333 0.500000
O O18 0.174235 0.348470 0.632725
O O19 0.276215 0.287999 0.640016
O O20 0.913620 0.243256 0.500000
O O21 0.852004 0.147997 0.357482
#
# Coordination Sequence:
#
# PCOD9585686 Si02
#       7
#    12  12  12  12  12  12  12
#     4  11  24  41  59  79 104 135 173 220 275 330
#     4   9  18  32  49  71 100 134 174 221 270 314
#     4  10  20  34  53  76 104 140 180 218 257 308
#     4   9  16  27  46  73 105 140 177 217 260 306
#     4  10  20  33  49  71 101 138 179 221 264 309
#     4   9  19  37  61  87 112 138 170 211 261 314
#     4   9  18  33  54  81 112 144 175 207 248 301
#
# _framework density 19.456394
#
# number of rings (size 3 to 8) (size 9 to 14) (size 15 to 20)
#    0.000    2.429    0.000    2.143    0.000    6.571 
#    0.000    3.571    0.000    3.714    0.000    2.000 
#    0.000    0.000    0.000    0.000    0.000    0.000 
#
# Total GULP energy -468543.422466 kJ/mol
# GULP energy per Si atom -5577.897887 kJ/mol
# Density = 1.941211 g / cm^3
# Si number density = 19.456394 Si / 1000 Ang^3
#
#
#
# Elastic Constant Matrix: (Units=GPa)
#
#
# Indices 1 2 3 4 5 6 
#
# 1 97.4893 80.5899 31.1014 0.0000 -0.0007 0.0000
# 2 80.5899 97.4893 31.1014 0.0000 0.0007 0.0000
# 3 31.1014 31.1014 43.1724 0.0000 0.0000 0.0000
# 4 0.0000 0.0000 0.0000 14.8266 0.0000 0.0007
# 5 -0.0007 0.0007 0.0000 0.0000 14.8266 0.0000
# 6 0.0000 0.0000 0.0000 0.0007 0.0000 8.4497
#
#
#
# Elastic Compliance Matrix: (Units=1/GPa)
#
#
# Indices 1 2 3 4 5 6 
#
# 1 0.033339 -0.025835 -0.005406 0.000000 0.000003 0.000000
# 2 -0.025835 0.033339 -0.005406 0.000000 -0.000003 0.000000
# 3 -0.005406 -0.005406 0.030951 0.000000 0.000000 0.000000
# 4 0.000000 0.000000 0.000000 0.067446 0.000000 -0.000006
# 5 0.000003 -0.000003 0.000000 0.000000 0.067446 0.000000
# 6 0.000000 0.000000 0.000000 -0.000006 0.000000 0.118348
#
#
# Mechanical properties :
#
#
# Convention : Reuss Voigt Hill
#
# Bulk Modulus (GPa) = 41.09111 58.19294 49.64203
# Shear Modulus (GPa) = 11.56673 13.97779 12.77226
#
# Velocity S-wave (km/s) = 2.44087 2.68324 2.56492
# Velocity P-wave (km/s) = 5.39530 6.29079 5.86017
#
# Compressibility (1/GPa) = 0.02433616
#
# Stress axis : x y z
#
# Youngs Moduli (GPa) = 29.99508 29.99508 32.30868
#
# Poissons Ratio (x) = 0.77493 0.17465
# Poissons Ratio (y) = 0.77493 0.17465
# Poissons Ratio (z) = 0.16214 0.16214
#
# Static dielectric constant tensor:
#      x y z
#    x 1.679050 0.000000 0.000000 
#    y 0.000000 1.679050 0.000000 
#    z 0.000000 0.000000 1.713860 
# 
# From -- ./inp_files/2603.got.cif
#   From: 2010.05.17/outbox.cif.g08.bks.cpg/sg187_2_cif.got.tgz:2603.got - 2010.05.20 12:09:04.
