data_PCOD9585382
_publ_section_title
;
Structure prediction by ZEFSAII (Michael W. Deem and Ramdas Pophale) SiO2 
 PCOD9585382
Probable space group: P 63 M C
;
_chemical_formula_sum "Si O2"
_cell_formula_units_Z 48
_cell_length_a 17.010970
_cell_length_b 17.010970
_cell_length_c 8.567719
_cell_angle_alpha 90.000000
_cell_angle_beta 90.000000
_cell_angle_gamma 120.000000
_cell_volume 2147.108560
_symmetry_space_group_name_H-M "P 63 M C"
_symmetry_group_IT_number 186
_symmetry_cell_setting 'hexagonal'
loop_
_space_group_symop_operation_xyz
x,y,z
x-y,x,1/2+z
-y,x-y,z
-x,-y,1/2+z
-x+y,-x,z
y,-x+y,1/2+z
-x+y,y,z
x,x-y,z
-y,-x,z
y,x,1/2+z
x-y,-y,1/2+z
-x,-x+y,1/2+z
loop_
_atom_site_type_symbol
_atom_site_label
_atom_site_fract_x
_atom_site_fract_y
_atom_site_fract_z
Si Si1 0.926422 0.679157 0.243720
Si Si2 0.003864 0.819546 0.473710
Si Si3 0.482188 0.146958 0.664359
Si Si4 0.608810 0.576164 0.987968
O O1 0.824204 0.648408 0.286317
O O2 0.987278 0.726637 0.393941
O O3 0.926367 0.605376 0.131248
O O4 0.077440 0.639096 0.017604
O O5 0.912283 0.824566 0.471751
O O6 0.032334 0.805411 0.644159
O O7 0.088692 0.911309 0.409763
O O8 0.588723 0.177445 0.667293
O O9 0.466739 0.233370 0.661350
O O10 0.438526 0.085332 0.821750
O O11 0.523847 0.476154 0.021001
#
# Coordination Sequence:
#
# PCOD9585382 Si02
#       4
#    12  12  12  12
#     4  10  20  33  50  74 104 138 177 224 276 328
#     4  10  20  33  50  73 104 142 181 218 260 316
#     4  10  21  39  63  90 122 161 205 253 309 374
#     4  10  21  37  59  85 114 153 199 251 311 368
#
# _framework density 22.355646
#
# number of rings (size 3 to 8) (size 9 to 14) (size 15 to 20)
#    0.000    2.000    0.000    3.500    0.000    4.000 
#    0.000    5.000    0.000    0.500    0.000    3.500 
#    0.000    0.000    0.000    1.000    0.000    0.000 
#
# Total GULP energy -267315.143768 kJ/mol
# GULP energy per Si atom -5569.065495 kJ/mol
# Density = 2.230476 g / cm^3
# Si number density = 22.355646 Si / 1000 Ang^3
#
#
#
# Elastic Constant Matrix: (Units=GPa)
#
#
# Indices 1 2 3 4 5 6 
#
# 1 110.4460 45.4786 20.5131 0.0000 0.0000 0.0000
# 2 45.4786 110.4460 20.5131 0.0000 0.0000 0.0000
# 3 20.5131 20.5131 59.5678 0.0000 0.0000 0.0000
# 4 0.0000 0.0000 0.0000 33.4736 0.0000 0.0000
# 5 0.0000 0.0000 0.0000 0.0000 33.4736 0.0000
# 6 0.0000 0.0000 0.0000 0.0000 0.0000 32.4837
#
#
#
# Elastic Compliance Matrix: (Units=1/GPa)
#
#
# Indices 1 2 3 4 5 6 
#
# 1 0.011222 -0.004170 -0.002429 0.000000 0.000000 0.000000
# 2 -0.004170 0.011222 -0.002429 0.000000 0.000000 0.000000
# 3 -0.002429 -0.002429 0.018460 0.000000 0.000000 0.000000
# 4 0.000000 0.000000 0.000000 0.029874 0.000000 0.000000
# 5 0.000000 0.000000 0.000000 0.000000 0.029874 0.000000
# 6 0.000000 0.000000 0.000000 0.000000 0.000000 0.030785
#
#
# Mechanical properties :
#
#
# Convention : Reuss Voigt Hill
#
# Bulk Modulus (GPa) = 43.76253 50.38547 47.07400
# Shear Modulus (GPa) = 31.82497 32.81652 32.32075
#
# Velocity S-wave (km/s) = 3.77712 3.83551 3.80643
# Velocity P-wave (km/s) = 6.21613 6.49630 6.35776
#
# Compressibility (1/GPa) = 0.02285060
#
# Stress axis : x y z
#
# Youngs Moduli (GPa) = 89.10796 89.10796 54.17052
#
# Poissons Ratio (x) = 0.37158 0.13156
# Poissons Ratio (y) = 0.37158 0.13156
# Poissons Ratio (z) = 0.21641 0.21641
#
# Static dielectric constant tensor:
#      x y z
#    x 1.913190 0.000000 0.000000 
#    y 0.000000 1.913190 0.000000 
#    z 0.000000 0.000000 1.884270 
# 
# From -- ./inp_files/1557.got.cif
#   From: 2010.05.17/outbox.cif.g08.bks.cpg/sg186_1_cif.got.tgz:1557.got - 2010.05.20 12:07:08.
