data_PCOD9585163
_publ_section_title
;
Structure prediction by ZEFSAII (Michael W. Deem and Ramdas Pophale) SiO2 
 PCOD9585163
Probable space group: P 6 C C
;
_chemical_formula_sum "Si O2"
_cell_formula_units_Z 60
_cell_length_a 13.689542
_cell_length_b 13.689542
_cell_length_c 13.714939
_cell_angle_alpha 90.000000
_cell_angle_beta 90.000000
_cell_angle_gamma 120.000000
_cell_volume 2225.883085
_symmetry_space_group_name_H-M "P 6 C C"
_symmetry_group_IT_number 184
_symmetry_cell_setting 'hexagonal'
loop_
_space_group_symop_operation_xyz
x,y,z
x-y,x,z
-y,x-y,z
-x,-y,z
-x+y,-x,z
y,-x+y,z
-x+y,y,1/2+z
x,x-y,1/2+z
-y,-x,1/2+z
y,x,1/2+z
x-y,-y,1/2+z
-x,-x+y,1/2+z
loop_
_atom_site_type_symbol
_atom_site_label
_atom_site_fract_x
_atom_site_fract_y
_atom_site_fract_z
Si Si1 0.940582 0.187376 0.184110
Si Si2 0.129406 0.594782 0.805934
Si Si3 0.249898 0.478422 0.175726
Si Si4 0.889800 0.505958 0.002505
Si Si5 0.750085 0.801098 0.919457
O O1 0.891679 0.264894 0.147118
O O2 0.946295 0.196320 0.301458
O O3 0.062653 0.215511 0.151918
O O4 0.200812 0.561621 0.734688
O O5 0.154037 0.712539 0.760919
O O6 0.160705 0.587627 0.916742
O O7 0.000000 0.500000 0.798661
O O8 0.200942 0.511958 0.084153
O O9 0.927009 0.628401 0.955490
O O10 0.000000 0.500000 0.037856
O O11 0.849569 0.775777 0.948917
#
# Coordination Sequence:
#
# PCOD9585163 Si02
#       5
#    12  12  12  12  12
#     4  10  21  40  71 109 151 195 245 309 387 480
#     4  11  26  47  74 106 153 204 263 336 413 487
#     4  12  25  46  73 109 146 204 266 328 400 482
#     4  11  27  46  75 115 160 211 274 337 409 491
#     4  10  22  43  74 115 155 206 257 326 406 496
#
# _framework density 26.955591999999999
#
# number of rings (size 3 to 8) (size 9 to 14) (size 15 to 20)
#    0.000    1.200    2.000    2.600    8.400    8.000 
#    0.000    0.000    0.000    4.400    0.000    0.000 
#    0.000    0.000    0.000    0.000    0.000    0.000 
#
# Total GULP energy -336568.980119 kJ/mol
# GULP energy per Si atom -5609.483002 kJ/mol
# Density = 2.689424 g / cm^3
# Si number density = 26.955592 Si / 1000 Ang^3
#
#
#
# Elastic Constant Matrix: (Units=GPa)
#
#
# Indices 1 2 3 4 5 6 
#
# 1 118.6914 27.6236 44.9886 0.0000 0.0000 0.0000
# 2 27.6236 118.6914 44.9886 0.0000 0.0000 0.0000
# 3 44.9886 44.9886 160.8082 0.0000 0.0000 0.0000
# 4 0.0000 0.0000 0.0000 47.8815 0.0000 0.0000
# 5 0.0000 0.0000 0.0000 0.0000 47.8815 0.0000
# 6 0.0000 0.0000 0.0000 0.0000 0.0000 45.5339
#
#
#
# Elastic Compliance Matrix: (Units=1/GPa)
#
#
# Indices 1 2 3 4 5 6 
#
# 1 0.009618 -0.001363 -0.002309 0.000000 0.000000 0.000000
# 2 -0.001363 0.009618 -0.002309 0.000000 0.000000 0.000000
# 3 -0.002309 -0.002309 0.007511 0.000000 0.000000 0.000000
# 4 0.000000 0.000000 0.000000 0.020885 0.000000 0.000000
# 5 0.000000 0.000000 0.000000 0.000000 0.020885 0.000000
# 6 0.000000 0.000000 0.000000 0.000000 0.000000 0.021962
#
#
# Mechanical properties :
#
#
# Convention : Reuss Voigt Hill
#
# Bulk Modulus (GPa) = 67.64671 70.37693 69.01182
# Shear Modulus (GPa) = 46.56839 46.96540 46.76690
#
# Velocity S-wave (km/s) = 4.16095 4.17865 4.16980
# Velocity P-wave (km/s) = 6.94512 7.03183 6.98861
#
# Compressibility (1/GPa) = 0.01478268
#
# Stress axis : x y z
#
# Youngs Moduli (GPa) = 103.97402 103.97402 133.14219
#
# Poissons Ratio (x) = 0.14172 0.30748
# Poissons Ratio (y) = 0.14172 0.30748
# Poissons Ratio (z) = 0.24012 0.24012
#
# Static dielectric constant tensor:
#      x y z
#    x 2.109550 0.000000 0.000000 
#    y 0.000000 2.109550 0.000000 
#    z 0.000000 0.000000 2.118890 
# 
# From -- ./inp_files/806.got.cif
#   From: 2010.05.17/outbox.cif.g08.bks.cpg/sg184_cif.got.tgz:806.got - 2010.05.20 12:04:40.
