data_PCOD9585625
_publ_section_title
;
Structure prediction by ZEFSAII (Michael W. Deem and Ramdas Pophale) SiO2 
 PCOD9585625
Probable space group: P -6 M 2
;
_chemical_formula_sum "Si O2"
_cell_formula_units_Z 72
_cell_length_a 23.418919
_cell_length_b 23.418919
_cell_length_c 7.574520
_cell_angle_alpha 90.000000
_cell_angle_beta 90.000000
_cell_angle_gamma 120.000000
_cell_volume 3597.654365
_symmetry_space_group_name_H-M "P -6 M 2"
_symmetry_group_IT_number 187
_symmetry_cell_setting 'hexagonal'
loop_
_space_group_symop_operation_xyz
x,y,z
-x+y,-x,-z
-y,x-y,z
x,y,-z
-x+y,-x,z
-y,x-y,-z
-y,-x,-z
-x+y,y,-z
x,x-y,-z
-x+y,y,z
x,x-y,z
-y,-x,z
loop_
_atom_site_type_symbol
_atom_site_label
_atom_site_fract_x
_atom_site_fract_y
_atom_site_fract_z
Si Si1 0.535950 0.202800 0.283847
Si Si2 0.203184 0.666630 0.212469
Si Si3 0.793290 0.076613 0.785358
Si Si4 0.733882 0.930081 0.207276
Si Si5 0.658161 0.587682 0.706778
Si Si6 0.324429 0.399229 0.290126
O O1 0.533694 0.202088 0.500000
O O2 0.607280 0.214560 0.233129
O O3 0.525414 0.262707 0.226423
O O4 0.478462 0.131661 0.219694
O O5 0.204601 0.602301 0.278133
O O6 0.265796 0.734205 0.278091
O O7 0.134920 0.663786 0.253936
O O8 0.208291 0.667035 0.000000
O O9 0.863307 0.136694 0.729324
O O10 0.733473 0.086892 0.724144
O O11 0.776434 0.004291 0.720956
O O12 0.791533 0.075490 0.000000
O O13 0.742838 0.871419 0.284499
O O14 0.657836 0.911933 0.220381
O O15 0.749869 0.934558 0.000000
O O16 0.640893 0.574389 0.500000
O O17 0.614934 0.618654 0.780610
O O18 0.321549 0.389361 0.500000
#
# Coordination Sequence:
#
# PCOD9585625 Si02
#       6
#    12  12  12  12  12  12
#     4   9  16  26  42  64  89 117 150 187 223 260
#     4  10  21  37  55  72  92 122 159 194 228 273
#     4   9  17  29  46  68  93 120 152 191 231 271
#     4   9  17  30  48  68  92 124 158 190 229 280
#     4   9  18  31  47  68  94 123 152 185 229 279
#     4  10  20  32  48  72  98 122 151 191 238 282
#
# _framework density 20.013041000000001
#
# number of rings (size 3 to 8) (size 9 to 14) (size 15 to 20)
#    0.000    2.667    0.000    1.833    0.000    6.667 
#    0.000    1.667    0.000    1.833    0.000    2.333 
#    0.000    1.333    0.000    8.333    0.000    8.667 
#
# Total GULP energy -401748.839104 kJ/mol
# GULP energy per Si atom -5579.844988 kJ/mol
# Density = 1.996749 g / cm^3
# Si number density = 20.013041 Si / 1000 Ang^3
#
#
#
# Elastic Constant Matrix: (Units=GPa)
#
#
# Indices 1 2 3 4 5 6 
#
# 1 115.5217 81.5370 -12.4166 0.0000 -0.0022 0.0000
# 2 81.5370 115.5217 -12.4166 0.0000 0.0022 0.0000
# 3 -12.4166 -12.4166 42.1909 0.0000 0.0000 0.0000
# 4 0.0000 0.0000 0.0000 27.7356 0.0000 0.0022
# 5 -0.0022 0.0022 0.0000 0.0000 27.7356 0.0000
# 6 0.0000 0.0000 0.0000 0.0022 0.0000 16.9924
#
#
#
# Elastic Compliance Matrix: (Units=1/GPa)
#
#
# Indices 1 2 3 4 5 6 
#
# 1 0.017348 -0.012077 0.001551 0.000000 0.000002 0.000000
# 2 -0.012077 0.017348 0.001551 0.000000 -0.000002 0.000000
# 3 0.001551 0.001551 0.024615 0.000000 0.000000 0.000000
# 4 0.000000 0.000000 0.000000 0.036055 0.000000 -0.000005
# 5 0.000002 -0.000002 0.000000 0.000000 0.036055 0.000000
# 6 0.000000 0.000000 0.000000 -0.000005 0.000000 0.058850
#
#
# Mechanical properties :
#
#
# Convention : Reuss Voigt Hill
#
# Bulk Modulus (GPa) = 24.17871 42.96021 33.56946
# Shear Modulus (GPa) = 22.52187 28.92808 25.72497
#
# Velocity S-wave (km/s) = 3.35828 3.80605 3.58915
# Velocity P-wave (km/s) = 5.21009 6.38963 5.82977
#
# Compressibility (1/GPa) = 0.04135869
#
# Stress axis : x y z
#
# Youngs Moduli (GPa) = 57.64516 57.64516 40.62617
#
# Poissons Ratio (x) = 0.69621 -0.06301
# Poissons Ratio (y) = 0.69621 -0.06301
# Poissons Ratio (z) = -0.08941 -0.08941
#
# Static dielectric constant tensor:
#      x y z
#    x 1.692940 0.000000 0.000000 
#    y 0.000000 1.692940 0.000000 
#    z 0.000000 0.000000 1.798380 
# 
# From -- ./inp_files/1008.got.cif
#   From: 2010.05.17/outbox.cif.g08.bks.cpg/sg187_1_cif.got.tgz:1008.got - 2010.05.20 12:09:04.
