data_PCOD9585049
_publ_section_title
;
Structure prediction by ZEFSAII (Michael W. Deem and Ramdas Pophale) SiO2 
 PCOD9585049
Probable space group: P 6 M M
;
_chemical_formula_sum "Si O2"
_cell_formula_units_Z 84
_cell_length_a 30.854625
_cell_length_b 30.854625
_cell_length_c 5.333005
_cell_angle_alpha 90.000000
_cell_angle_beta 90.000000
_cell_angle_gamma 120.000000
_cell_volume 4396.865366
_symmetry_space_group_name_H-M "P 6 M M"
_symmetry_group_IT_number 183
_symmetry_cell_setting 'hexagonal'
loop_
_space_group_symop_operation_xyz
x,y,z
x-y,x,z
-y,x-y,z
-x,-y,z
-x+y,-x,z
y,-x+y,z
-x+y,y,z
x,x-y,z
-y,-x,z
y,x,z
x-y,-y,z
-x,-x+y,z
loop_
_atom_site_type_symbol
_atom_site_label
_atom_site_fract_x
_atom_site_fract_y
_atom_site_fract_z
Si Si1 0.522767 0.808435 0.973010
Si Si2 0.137472 0.520484 0.660397
Si Si3 0.058172 0.643252 0.510789
Si Si4 0.429149 0.762381 0.339583
Si Si5 0.616804 0.906953 0.017669
Si Si6 0.843074 0.786762 0.521283
Si Si7 0.278745 0.190205 0.021206
O O1 0.523825 0.761913 0.833179
O O2 0.508489 0.847628 0.857232
O O3 0.578800 0.847140 0.060707
O O4 0.476892 0.781191 0.162783
O O5 0.123524 0.561762 0.749035
O O6 0.093273 0.475438 0.505753
O O7 0.190919 0.551281 0.523803
O O8 0.074997 0.681024 0.750144
O O9 0.000000 0.603040 0.540603
O O10 0.066708 0.673052 0.251607
O O11 0.377766 0.755531 0.221234
O O12 0.418355 0.709178 0.449852
O O13 0.672880 0.917420 0.019821
O O14 0.901045 0.802090 0.521140
O O15 0.831852 0.831852 0.519925
O O16 0.818866 0.753888 0.771145
O O17 0.818750 0.753419 0.272794
O O18 0.293839 0.146920 0.019677
#
# Coordination Sequence:
#
# PCOD9585049 Si02
#       7
#    12  12  12  12  12  12  12
#     4  10  20  35  56  82 112 149 187 230 287 349
#     4  10  21  38  57  77 108 146 188 237 290 346
#     4  11  24  40  58  84 112 147 196 243 291 346
#     4  10  19  33  54  81 109 140 179 226 280 341
#     4  11  22  39  59  85 118 154 190 239 290 346
#     4  10  21  37  58  85 119 157 200 244 293 348
#     4  10  21  36  56  86 118 155 198 239 287 350
#
# _framework density 19.104520000000001
#
# number of rings (size 3 to 8) (size 9 to 14) (size 15 to 20)
#    0.000    1.714    1.429    3.143    0.000    3.714 
#    0.000    1.429    0.000    6.429    0.000    0.000 
#    0.000    3.429    0.000    0.000    0.000    0.571 
#
# Total GULP energy -467683.862973 kJ/mol
# GULP energy per Si atom -5567.665035 kJ/mol
# Density = 1.906104 g / cm^3
# Si number density = 19.104520 Si / 1000 Ang^3
#
#
#
# Elastic Constant Matrix: (Units=GPa)
#
#
# Indices 1 2 3 4 5 6 
#
# 1 95.9059 69.6369 21.1146 0.0000 0.0000 0.0000
# 2 69.6369 95.9059 21.1146 0.0000 0.0000 0.0000
# 3 21.1146 21.1146 81.7181 0.0000 0.0000 0.0000
# 4 0.0000 0.0000 0.0000 -65.5411 0.0000 0.0000
# 5 0.0000 0.0000 0.0000 0.0000 -65.5411 0.0000
# 6 0.0000 0.0000 0.0000 0.0000 0.0000 13.1345
#
#
#
# Elastic Compliance Matrix: (Units=1/GPa)
#
#
# Indices 1 2 3 4 5 6 
#
# 1 0.022267 -0.015800 -0.001671 0.000000 0.000000 0.000000
# 2 -0.015800 0.022267 -0.001671 0.000000 0.000000 0.000000
# 3 -0.001671 -0.001671 0.013101 0.000000 0.000000 0.000000
# 4 0.000000 0.000000 0.000000 -0.015258 0.000000 0.000000
# 5 0.000000 0.000000 0.000000 0.000000 -0.015258 0.000000
# 6 0.000000 0.000000 0.000000 0.000000 0.000000 0.076135
#
#
# Mechanical properties :
#
#
# Convention : Reuss Voigt Hill
#
# Bulk Modulus (GPa) = 51.67739 55.25133 53.46436
# Shear Modulus (GPa) = 33.78608 -12.81195 10.48707
#
# Velocity S-wave (km/s) = 4.20990 -2.59245 2.34547
# Velocity P-wave (km/s) = 7.12317 4.47463 5.94819
#
# Compressibility (1/GPa) = 0.01935082
#
# Stress axis : x y z
#
# Youngs Moduli (GPa) = 44.90894 44.90894 76.33191
#
# Poissons Ratio (x) = 0.70957 0.12755
# Poissons Ratio (y) = 0.70957 0.12755
# Poissons Ratio (z) = 0.07504 0.07504
#
# Static dielectric constant tensor:
#      x y z
#    x 1.716680 0.000000 0.000000 
#    y 0.000000 1.716680 0.000000 
#    z 0.000000 0.000000 1.715470 
# 
# From -- ./inp_files/555.got.cif
#   From: 2010.05.17/outbox.cif.g08.bks.cpg/sg183_1_cif.got.tgz:555.got - 2010.05.20 12:02:58.
