data_PCOD9585225
_publ_section_title
;
Structure prediction by ZEFSAII (Michael W. Deem and Ramdas Pophale) SiO2 
 PCOD9585225
Probable space group: P 63 C M
;
_chemical_formula_sum "Si O2"
_cell_formula_units_Z 84
_cell_length_a 13.502103
_cell_length_b 13.502103
_cell_length_c 28.187454
_cell_angle_alpha 90.000000
_cell_angle_beta 90.000000
_cell_angle_gamma 120.000000
_cell_volume 4450.300279
_symmetry_space_group_name_H-M "P 63 C M"
_symmetry_group_IT_number 185
_symmetry_cell_setting 'hexagonal'
loop_
_space_group_symop_operation_xyz
x,y,z
x-y,x,1/2+z
-y,x-y,z
-x,-y,1/2+z
-x+y,-x,z
y,-x+y,1/2+z
-x+y,y,1/2+z
x,x-y,1/2+z
-y,-x,1/2+z
y,x,z
x-y,-y,z
-x,-x+y,z
loop_
_atom_site_type_symbol
_atom_site_label
_atom_site_fract_x
_atom_site_fract_y
_atom_site_fract_z
Si Si1 0.127128 0.561652 0.079770
Si Si2 0.474837 0.136655 0.280295
Si Si3 0.453571 0.136620 0.833853
Si Si4 0.337231 0.475422 0.672862
Si Si5 0.868620 0.135131 0.119985
Si Si6 0.723942 0.241231 0.437468
Si Si7 0.797993 0.212750 0.532951
O O1 0.169305 0.574525 0.133941
O O2 0.121196 0.662266 0.054001
O O3 0.198432 0.521253 0.049321
O O4 0.000000 0.454181 0.080529
O O5 0.582459 0.157215 0.312757
O O6 0.418938 0.208195 0.300599
O O7 0.512351 0.177588 0.226249
O O8 0.388727 0.000000 0.280884
O O9 0.469881 0.192090 0.885837
O O10 0.368870 0.000000 0.834279
O O11 0.408234 0.408234 0.676536
O O12 0.214957 0.381740 0.650466
O O13 0.863653 0.168661 0.064941
O O14 0.000000 0.176287 0.131958
O O15 0.786785 0.000000 0.127182
O O16 0.788560 0.379886 0.443081
O O17 0.780358 0.198776 0.476905
#
# Coordination Sequence:
#
# PCOD9585225 Si02
#       7
#    12  12  12  12  12  12  12
#     4  10  19  32  49  75 107 137 171 212 270 329
#     4  10  20  38  58  83 119 153 194 246 294 352
#     4  11  22  36  60  86 115 154 193 240 303 362
#     4   8  18  34  54  78 109 145 182 232 284 329
#     4  10  21  37  55  78 111 153 196 235 274 327
#     4  10  18  36  57  79 112 141 184 235 284 345
#     4  11  19  33  53  79 106 141 176 226 275 332
#
# _framework density 18.875131
#
# number of rings (size 3 to 8) (size 9 to 14) (size 15 to 20)
#    0.286    1.714    2.857    2.429    0.000    4.000 
#    0.000    2.857    0.000    0.286    0.000    0.000 
#    0.000    0.000    0.000    0.000    0.000    0.000 
#
# Total GULP energy -467687.904716 kJ/mol
# GULP energy per Si atom -5567.713151 kJ/mol
# Density = 1.883217 g / cm^3
# Si number density = 18.875131 Si / 1000 Ang^3
#
#
#
# Elastic Constant Matrix: (Units=GPa)
#
#
# Indices 1 2 3 4 5 6 
#
# 1 65.7386 21.4845 25.7192 0.0000 0.0000 0.0000
# 2 21.4845 65.7386 25.7192 0.0000 0.0000 0.0000
# 3 25.7192 25.7192 153.1091 0.0000 0.0000 0.0000
# 4 0.0000 0.0000 0.0000 16.8785 0.0000 0.0000
# 5 0.0000 0.0000 0.0000 0.0000 16.8785 0.0000
# 6 0.0000 0.0000 0.0000 0.0000 0.0000 22.1271
#
#
#
# Elastic Compliance Matrix: (Units=1/GPa)
#
#
# Indices 1 2 3 4 5 6 
#
# 1 0.017661 -0.004936 -0.002138 0.000000 0.000000 0.000000
# 2 -0.004936 0.017661 -0.002138 0.000000 0.000000 0.000000
# 3 -0.002138 -0.002138 0.007249 0.000000 0.000000 0.000000
# 4 0.000000 0.000000 0.000000 0.059247 0.000000 0.000000
# 5 0.000000 0.000000 0.000000 0.000000 0.059247 0.000000
# 6 0.000000 0.000000 0.000000 0.000000 0.000000 0.045194
#
#
# Mechanical properties :
#
#
# Convention : Reuss Voigt Hill
#
# Bulk Modulus (GPa) = 41.40799 47.82577 44.61688
# Shear Modulus (GPa) = 21.48402 25.28769 23.38586
#
# Velocity S-wave (km/s) = 3.37741 3.66421 3.52373
# Velocity P-wave (km/s) = 6.09874 6.57989 6.34388
#
# Compressibility (1/GPa) = 0.02414993
#
# Stress axis : x y z
#
# Youngs Moduli (GPa) = 56.62153 56.62153 137.94162
#
# Poissons Ratio (x) = 0.27946 0.29487
# Poissons Ratio (y) = 0.27946 0.29487
# Poissons Ratio (z) = 0.12104 0.12104
#
# Static dielectric constant tensor:
#      x y z
#    x 1.664360 0.000000 0.000000 
#    y 0.000000 1.664360 0.000000 
#    z 0.000000 0.000000 1.697980 
# 
# From -- ./inp_files/2155.got.cif
#   From: 2010.05.17/outbox.cif.g08.bks.cpg/sg185_cif.got.tgz:2155.got - 2010.05.20 12:05:34.
