data_PCOD9585845
_publ_section_title
;
Structure prediction by ZEFSAII (Michael W. Deem and Ramdas Pophale) SiO2 
 PCOD9585845
Probable space group: P -6 C 2
;
_chemical_formula_sum "Si O2"
_cell_formula_units_Z 64
_cell_length_a 16.390319
_cell_length_b 16.390319
_cell_length_c 16.371303
_cell_angle_alpha 90.000000
_cell_angle_beta 90.000000
_cell_angle_gamma 120.000000
_cell_volume 3808.804579
_symmetry_space_group_name_H-M "P -6 C 2"
_symmetry_group_IT_number 188
_symmetry_cell_setting 'hexagonal'
loop_
_space_group_symop_operation_xyz
x,y,z
-x+y,-x,1/2-z
-y,x-y,z
x,y,1/2-z
-x+y,-x,z
-y,x-y,1/2-z
-y,-x,-z
-x+y,y,-z
x,x-y,-z
-x+y,y,1/2+z
x,x-y,1/2+z
-y,-x,1/2+z
loop_
_atom_site_type_symbol
_atom_site_label
_atom_site_fract_x
_atom_site_fract_y
_atom_site_fract_z
Si Si1 0.119622 0.904327 0.150324
Si Si2 0.724666 0.020742 0.154821
Si Si3 0.816876 0.723323 0.416545
Si Si4 0.701566 0.197485 0.919053
Si Si5 0.000000 0.000000 0.348337
Si Si6 0.630464 0.136383 0.155593
O O1 0.127947 0.907220 0.250000
O O2 0.045306 0.937802 0.126470
O O3 0.072499 0.795759 0.122250
O O4 0.214890 0.986335 0.111259
O O5 0.701471 0.003698 0.250000
O O6 0.832244 0.106885 0.147207
O O7 0.659251 0.061048 0.121578
O O8 0.877357 0.754713 0.500000
O O9 0.738076 0.614526 0.427113
O O10 0.763530 0.272527 0.849276
O O11 0.592751 0.147650 0.897080
O O12 0.737480 0.262521 0.000000
O O13 0.000000 0.000000 0.250000
O O14 0.600441 0.115228 0.250000
#
# Coordination Sequence:
#
# PCOD9585845 Si02
#       6
#    12  12  12  12   4  12
#     4  10  17  29  46  64  90 126 161 190 233 286
#     4   9  18  31  45  63  89 121 155 196 238 283
#     4  10  20  30  43  67  94 121 157 197 237 287
#     4  10  20  33  47  65  93 126 155 193 250 300
#     4   9  15  24  43  62  82 120 157 179 220 276
#     4  10  19  31  48  68  89 116 159 205 240 283
#
# _framework density 16.803170999999999
#
# number of rings (size 3 to 8) (size 9 to 14) (size 15 to 20)
#    0.000    2.250    1.875    2.062    0.000    3.000 
#    0.000    0.000    0.000    0.000    0.000    0.000 
#    1.875    0.000    1.125    0.000   15.375    0.000 
#
# Total GULP energy -356554.638253 kJ/mol
# GULP energy per Si atom -5571.166223 kJ/mol
# Density = 1.676493 g / cm^3
# Si number density = 16.803171 Si / 1000 Ang^3
#
#
#
# Elastic Constant Matrix: (Units=GPa)
#
#
# Indices 1 2 3 4 5 6 
#
# 1 107.3102 54.4654 32.1139 0.0000 0.0000 0.0000
# 2 54.4654 107.3102 32.1139 0.0000 0.0000 0.0000
# 3 32.1139 32.1139 48.1195 0.0000 0.0000 0.0000
# 4 0.0000 0.0000 0.0000 20.2709 0.0000 0.0000
# 5 0.0000 0.0000 0.0000 0.0000 20.2709 0.0000
# 6 0.0000 0.0000 0.0000 0.0000 0.0000 26.4224
#
#
#
# Elastic Compliance Matrix: (Units=1/GPa)
#
#
# Indices 1 2 3 4 5 6 
#
# 1 0.013666 -0.005257 -0.005612 0.000000 0.000000 0.000000
# 2 -0.005257 0.013666 -0.005612 0.000000 0.000000 0.000000
# 3 -0.005612 -0.005612 0.028273 0.000000 0.000000 0.000000
# 4 0.000000 0.000000 0.000000 0.049332 0.000000 0.000000
# 5 0.000000 0.000000 0.000000 0.000000 0.049332 0.000000
# 6 0.000000 0.000000 0.000000 0.000000 0.000000 0.037847
#
#
# Mechanical properties :
#
#
# Convention : Reuss Voigt Hill
#
# Bulk Modulus (GPa) = 44.16484 55.56958 49.86721
# Shear Modulus (GPa) = 21.49368 22.99598 22.24483
#
# Velocity S-wave (km/s) = 3.58039 3.70341 3.64242
# Velocity P-wave (km/s) = 6.59037 7.17145 6.88704
#
# Compressibility (1/GPa) = 0.02264245
#
# Stress axis : x y z
#
# Youngs Moduli (GPa) = 73.17175 73.17175 35.36970
#
# Poissons Ratio (x) = 0.38465 0.19851
# Poissons Ratio (y) = 0.38465 0.19851
# Poissons Ratio (z) = 0.41067 0.41067
#
# Static dielectric constant tensor:
#      x y z
#    x 1.583040 0.000000 0.000000 
#    y 0.000000 1.583040 0.000000 
#    z 0.000000 0.000000 1.652310 
# 
# From -- ./inp_files/3086.got.cif
#   From: 2010.05.17/outbox.cif.g08.bks.cpg/sg188_2_cif.got.tgz:3086.got - 2010.05.20 12:11:46.
