data_PCOD9585850
_publ_section_title
;
Structure prediction by ZEFSAII (Michael W. Deem and Ramdas Pophale) SiO2 
 PCOD9585850
Probable space group: P -6 C 2
;
_chemical_formula_sum "Si O2"
_cell_formula_units_Z 42
_cell_length_a 11.039373
_cell_length_b 11.039373
_cell_length_c 16.710732
_cell_angle_alpha 90.000000
_cell_angle_beta 90.000000
_cell_angle_gamma 120.000000
_cell_volume 1763.660227
_symmetry_space_group_name_H-M "P -6 C 2"
_symmetry_group_IT_number 188
_symmetry_cell_setting 'hexagonal'
loop_
_space_group_symop_operation_xyz
x,y,z
-x+y,-x,1/2-z
-y,x-y,z
x,y,1/2-z
-x+y,-x,z
-y,x-y,1/2-z
-y,-x,-z
-x+y,y,-z
x,x-y,-z
-x+y,y,1/2+z
x,x-y,1/2+z
-y,-x,1/2+z
loop_
_atom_site_type_symbol
_atom_site_label
_atom_site_fract_x
_atom_site_fract_y
_atom_site_fract_z
Si Si1 0.120251 0.761347 0.662106
Si Si2 0.354399 0.189855 0.592082
Si Si3 0.927957 0.454331 0.840226
Si Si4 0.515869 0.757935 0.500000
O O1 0.175762 0.822035 0.750000
O O2 0.201683 0.808537 0.579438
O O3 0.970401 0.751031 0.644450
O O4 0.077691 0.596260 0.665007
O O5 0.312634 0.156317 0.500000
O O6 0.396761 0.085144 0.631411
O O7 0.495415 0.342488 0.600034
O O8 0.869845 0.435256 0.750000
O O9 0.408925 0.817849 0.500000
#
# Coordination Sequence:
#
# PCOD9585850 Si02
#       4
#    12  12  12   6
#     4   9  21  37  53  79 114 154 203 250 299 362
#     4  10  18  26  49  77 121 151 181 219 291 365
#     4   9  17  29  46  74 115 159 185 216 280 362
#     4  10  24  38  60  70 104 156 224 268 308 332
#
# _framework density 23.814111
#
# number of rings (size 3 to 8) (size 9 to 14) (size 15 to 20)
#    2.000    0.571    0.000    3.143    4.000    1.143 
#    0.000    0.000    0.000    0.000    0.000    0.000 
#    1.429    0.000    0.000    1.143    0.000    0.000 
#
# Total GULP energy -233868.743186 kJ/mol
# GULP energy per Si atom -5568.303409 kJ/mol
# Density = 2.375991 g / cm^3
# Si number density = 23.814111 Si / 1000 Ang^3
#
#
#
# Elastic Constant Matrix: (Units=GPa)
#
#
# Indices 1 2 3 4 5 6 
#
# 1 34.5619 24.7922 30.9531 0.0001 0.0000 0.0000
# 2 24.7922 34.5619 30.9531 -0.0001 0.0000 0.0000
# 3 30.9531 30.9531 205.0705 0.0000 0.0000 0.0000
# 4 0.0001 -0.0001 0.0000 28.1056 0.0000 0.0000
# 5 0.0000 0.0000 0.0000 0.0000 28.1056 0.0001
# 6 0.0000 0.0000 0.0000 0.0000 0.0001 4.8849
#
#
#
# Elastic Compliance Matrix: (Units=1/GPa)
#
#
# Indices 1 2 3 4 5 6 
#
# 1 0.061176 -0.041180 -0.003018 0.000000 0.000000 0.000000
# 2 -0.041180 0.061176 -0.003018 0.000000 0.000000 0.000000
# 3 -0.003018 -0.003018 0.005787 0.000000 0.000000 0.000000
# 4 0.000000 0.000000 0.000000 0.035580 0.000000 0.000000
# 5 0.000000 0.000000 0.000000 0.000000 0.035580 -0.000001
# 6 0.000000 0.000000 0.000000 0.000000 -0.000001 0.204713
#
#
# Mechanical properties :
#
#
# Convention : Reuss Voigt Hill
#
# Bulk Modulus (GPa) = 29.66762 49.73235 39.69998
# Shear Modulus (GPa) = 9.81003 24.71894 17.26448
#
# Velocity S-wave (km/s) = 2.03184 3.22529 2.69545
# Velocity P-wave (km/s) = 4.24141 5.89906 5.13753
#
# Compressibility (1/GPa) = 0.03370679
#
# Stress axis : x y z
#
# Youngs Moduli (GPa) = 16.34620 16.34620 172.78641
#
# Poissons Ratio (x) = 0.67314 0.52150
# Poissons Ratio (y) = 0.67314 0.52150
# Poissons Ratio (z) = 0.04934 0.04934
#
# Static dielectric constant tensor:
#      x y z
#    x 2.036500 0.000000 0.000000 
#    y 0.000000 2.036500 0.000000 
#    z 0.000000 0.000000 1.855090 
# 
# From -- ./inp_files/2925.got.cif
#   From: 2010.05.17/outbox.cif.g08.bks.cpg/sg188_2_cif.got.tgz:2925.got - 2010.05.20 12:11:46.
