data_PCOD9585609
_publ_section_title
;
Structure prediction by ZEFSAII (Michael W. Deem and Ramdas Pophale) SiO2 
 PCOD9585609
Probable space group: P -6 M 2
;
_chemical_formula_sum "Si O2"
_cell_formula_units_Z 66
_cell_length_a 13.053310
_cell_length_b 13.053310
_cell_length_c 28.215069
_cell_angle_alpha 90.000000
_cell_angle_beta 90.000000
_cell_angle_gamma 120.000000
_cell_volume 4163.447115
_symmetry_space_group_name_H-M "P -6 M 2"
_symmetry_group_IT_number 187
_symmetry_cell_setting 'hexagonal'
loop_
_space_group_symop_operation_xyz
x,y,z
-x+y,-x,-z
-y,x-y,z
x,y,-z
-x+y,-x,z
-y,x-y,-z
-y,-x,-z
-x+y,y,-z
x,x-y,-z
-x+y,y,z
x,x-y,z
-y,-x,z
loop_
_atom_site_type_symbol
_atom_site_label
_atom_site_fract_x
_atom_site_fract_y
_atom_site_fract_z
Si Si1 0.573894 0.907266 0.692696
Si Si2 0.243344 0.000190 0.776213
Si Si3 0.423568 0.333188 0.137028
Si Si4 0.574501 0.666312 0.417367
Si Si5 0.243644 0.243090 0.500000
Si Si6 0.240275 0.999540 0.055740
O O1 0.459547 0.919094 0.703338
O O2 0.541010 0.770505 0.697126
O O3 0.607667 0.941100 0.637703
O O4 0.680135 0.980096 0.728862
O O5 0.224332 0.112166 0.771566
O O6 0.334074 0.027859 0.819339
O O7 0.119163 0.880838 0.784994
O O8 0.452960 0.226480 0.136438
O O9 0.541446 0.458555 0.141101
O O10 0.350148 0.320508 0.089341
O O11 0.546946 0.773473 0.423110
O O12 0.457334 0.542667 0.427474
O O13 0.678212 0.693029 0.453792
O O14 0.244831 0.122416 0.500000
O O15 0.109952 0.219903 0.500000
O O16 0.125119 0.874882 0.067423
O O17 0.211731 0.105866 0.063153
O O18 0.267025 0.999389 0.000000
#
# Coordination Sequence:
#
# PCOD9585609 Si02
#       6
#    12  12  12  12   6  12
#     4   9  17  30  49  73  99 125 153 187 230 279
#     4  10  20  33  50  72  97 125 157 194 235 278
#     4  10  20  33  49  69  94 125 160 197 236 278
#     4   9  17  30  50  74  96 119 151 194 239 278
#     4  10  20  32  46  66  94 128 162 194 232 280
#     4   9  17  30  50  75 100 126 157 194 235 278
#
# _framework density 15.852249
#
# number of rings (size 3 to 8) (size 9 to 14) (size 15 to 20)
#    0.000    2.545    0.000    2.364    0.000    3.273 
#    0.000    2.727    0.000    9.091    0.000    0.000 
#    0.000    0.000    0.000    0.000    0.000    0.000 
#
# Total GULP energy -368027.617816 kJ/mol
# GULP energy per Si atom -5576.176028 kJ/mol
# Density = 1.581617 g / cm^3
# Si number density = 15.852249 Si / 1000 Ang^3
#
#
#
# Elastic Constant Matrix: (Units=GPa)
#
#
# Indices 1 2 3 4 5 6 
#
# 1 120.4348 79.2490 76.6677 0.0000 -0.0002 0.0000
# 2 79.2490 120.4348 76.6677 0.0000 0.0002 0.0000
# 3 76.6677 76.6677 89.8226 0.0000 0.0000 0.0000
# 4 0.0000 0.0000 0.0000 22.8907 0.0000 0.0002
# 5 -0.0002 0.0002 0.0000 0.0000 22.8907 0.0000
# 6 0.0000 0.0000 0.0000 0.0002 0.0000 20.5929
#
#
#
# Elastic Compliance Matrix: (Units=1/GPa)
#
#
# Indices 1 2 3 4 5 6 
#
# 1 0.019407 -0.004873 -0.012405 0.000000 0.000000 0.000000
# 2 -0.004873 0.019407 -0.012405 0.000000 0.000000 0.000000
# 3 -0.012405 -0.012405 0.032310 0.000000 0.000000 0.000000
# 4 0.000000 0.000000 0.000000 0.043686 0.000000 0.000000
# 5 0.000000 0.000000 0.000000 0.000000 0.043686 0.000000
# 6 0.000000 0.000000 0.000000 0.000000 0.000000 0.048560
#
#
# Mechanical properties :
#
#
# Convention : Reuss Voigt Hill
#
# Bulk Modulus (GPa) = 85.05918 88.42901 86.74409
# Shear Modulus (GPa) = 18.49504 19.81538 19.15521
#
# Velocity S-wave (km/s) = 3.41943 3.53938 3.47992
# Velocity P-wave (km/s) = 8.32850 8.52099 8.42530
#
# Compressibility (1/GPa) = 0.01175652
#
# Stress axis : x y z
#
# Youngs Moduli (GPa) = 51.52770 51.52770 30.95007
#
# Poissons Ratio (x) = 0.25110 0.38395
# Poissons Ratio (y) = 0.25110 0.38395
# Poissons Ratio (z) = 0.63922 0.63922
#
# Static dielectric constant tensor:
#      x y z
#    x 1.499720 0.000000 0.000000 
#    y 0.000000 1.499720 0.000000 
#    z 0.000000 0.000000 1.537830 
# 
# From -- ./inp_files/4391.got.cif
#   From: 2010.05.17/outbox.cif.g08.bks.cpg/sg187_3_cif.got.tgz:4391.got - 2010.05.20 12:09:04.
