data_PCOD9585282
_publ_section_title
;
Structure prediction by ZEFSAII (Michael W. Deem and Ramdas Pophale) SiO2 
 PCOD9585282
Probable space group: P 63 C M
;
_chemical_formula_sum "Si O2"
_cell_formula_units_Z 52
_cell_length_a 14.023029
_cell_length_b 14.023029
_cell_length_c 14.275720
_cell_angle_alpha 90.000000
_cell_angle_beta 90.000000
_cell_angle_gamma 120.000000
_cell_volume 2431.153146
_symmetry_space_group_name_H-M "P 63 C M"
_symmetry_group_IT_number 185
_symmetry_cell_setting 'hexagonal'
loop_
_space_group_symop_operation_xyz
x,y,z
x-y,x,1/2+z
-y,x-y,z
-x,-y,1/2+z
-x+y,-x,z
y,-x+y,1/2+z
-x+y,y,1/2+z
x,x-y,1/2+z
-y,-x,1/2+z
y,x,z
x-y,-y,z
-x,-x+y,z
loop_
_atom_site_type_symbol
_atom_site_label
_atom_site_fract_x
_atom_site_fract_y
_atom_site_fract_z
Si Si1 0.000000 0.000000 0.603146
Si Si2 0.000000 0.000000 0.327521
Si Si3 0.455260 0.786650 0.375065
Si Si4 0.398952 0.184637 0.039314
Si Si5 0.825895 0.825895 0.964522
Si Si6 0.000000 0.424023 0.539551
Si Si7 0.000000 0.385354 0.162510
Si Si8 0.000000 0.487535 0.829724
O O1 0.000000 0.000000 0.715265
O O2 0.895453 0.000000 0.555616
O O3 0.105473 0.105473 0.374497
O O4 0.333619 0.769043 0.355535
O O5 0.496278 0.803662 0.481711
O O6 0.527835 0.894546 0.316714
O O7 0.411984 0.303770 0.052451
O O8 0.382982 0.108526 0.128869
O O9 0.293212 0.108403 0.973943
O O10 0.000000 0.512234 0.610349
O O11 0.000000 0.473848 0.436767
O O12 0.000000 0.418203 0.268230
#
# Coordination Sequence:
#
# PCOD9585282 Si02
#       8
#     2   2  12  12   6   6   6   6
#     4  10  20  43  58  89 133 157 215 277 325 410
#     4  10  20  43  64  92 118 175 215 265 358 392
#     4  10  20  39  66  91 127 174 219 273 329 404
#     4  11  20  43  65  90 132 172 224 279 338 403
#     4   9  21  39  62  89 124 164 213 281 329 394
#     4  12  21  42  70  87 127 191 217 266 363 400
#     4  11  26  41  62 103 137 170 227 292 329 411
#     4  12  22  40  66  96 131 175 225 271 344 403
#
# _framework density 21.389025
#
# number of rings (size 3 to 8) (size 9 to 14) (size 15 to 20)
#    0.462    0.923    4.615    2.077    0.000    1.846 
#    9.692    2.308    0.000    0.000    0.000    0.000 
#    0.000    0.000    0.000    0.000    0.000    0.000 
#
# Total GULP energy -289670.718185 kJ/mol
# GULP energy per Si atom -5570.590734 kJ/mol
# Density = 2.134034 g / cm^3
# Si number density = 21.389025 Si / 1000 Ang^3
#
#
#
# Elastic Constant Matrix: (Units=GPa)
#
#
# Indices 1 2 3 4 5 6 
#
# 1 101.2908 46.0657 12.3253 0.0000 0.0000 0.0000
# 2 46.0657 101.2908 12.3253 0.0000 0.0000 0.0000
# 3 12.3253 12.3253 69.2235 0.0000 0.0000 0.0000
# 4 0.0000 0.0000 0.0000 17.9617 0.0000 0.0000
# 5 0.0000 0.0000 0.0000 0.0000 17.9617 0.0000
# 6 0.0000 0.0000 0.0000 0.0000 0.0000 27.6125
#
#
#
# Elastic Compliance Matrix: (Units=1/GPa)
#
#
# Indices 1 2 3 4 5 6 
#
# 1 0.012551 -0.005557 -0.001245 0.000000 0.000000 0.000000
# 2 -0.005557 0.012551 -0.001245 0.000000 0.000000 0.000000
# 3 -0.001245 -0.001245 0.014889 0.000000 0.000000 0.000000
# 4 0.000000 0.000000 0.000000 0.055674 0.000000 0.000000
# 5 0.000000 0.000000 0.000000 0.000000 0.055674 0.000000
# 6 0.000000 0.000000 0.000000 0.000000 0.000000 0.036215
#
#
# Mechanical properties :
#
#
# Convention : Reuss Voigt Hill
#
# Bulk Modulus (GPa) = 41.84616 45.91533 43.88075
# Shear Modulus (GPa) = 23.62778 26.11312 24.87045
#
# Velocity S-wave (km/s) = 3.32726 3.49788 3.41364
# Velocity P-wave (km/s) = 5.86239 6.15036 6.00810
#
# Compressibility (1/GPa) = 0.02389705
#
# Stress axis : x y z
#
# Youngs Moduli (GPa) = 79.67395 79.67395 67.16168
#
# Poissons Ratio (x) = 0.44271 0.08364
# Poissons Ratio (y) = 0.44271 0.08364
# Poissons Ratio (z) = 0.09923 0.09923
#
# Static dielectric constant tensor:
#      x y z
#    x 1.806820 0.000000 0.000000 
#    y 0.000000 1.806820 0.000000 
#    z 0.000000 0.000000 1.744750 
# 
# From -- ./inp_files/1334.got.cif
#   From: 2010.05.17/outbox.cif.g08.bks.cpg/sg185_cif.got.tgz:1334.got - 2010.05.20 12:05:34.
