data_PCOD9585160
_publ_section_title
;
Structure prediction by ZEFSAII (Michael W. Deem and Ramdas Pophale) SiO2 
 PCOD9585160
Probable space group: P 6 C C
;
_chemical_formula_sum "Si O2"
_cell_formula_units_Z 42
_cell_length_a 14.166840
_cell_length_b 14.166840
_cell_length_c 11.037721
_cell_angle_alpha 90.000000
_cell_angle_beta 90.000000
_cell_angle_gamma 120.000000
_cell_volume 1918.474460
_symmetry_space_group_name_H-M "P 6 C C"
_symmetry_group_IT_number 184
_symmetry_cell_setting 'hexagonal'
loop_
_space_group_symop_operation_xyz
x,y,z
x-y,x,z
-y,x-y,z
-x,-y,z
-x+y,-x,z
y,-x+y,z
-x+y,y,1/2+z
x,x-y,1/2+z
-y,-x,1/2+z
y,x,1/2+z
x-y,-y,1/2+z
-x,-x+y,1/2+z
loop_
_atom_site_type_symbol
_atom_site_label
_atom_site_fract_x
_atom_site_fract_y
_atom_site_fract_z
Si Si1 0.185064 0.714379 0.998870
Si Si2 0.470685 0.185064 0.265466
Si Si3 0.870509 0.741017 0.382169
Si Si4 0.000000 0.500000 0.882168
O O1 0.261711 0.738291 0.882168
O O2 0.075462 0.603390 0.965900
O O3 0.225329 0.710328 0.132168
O O4 0.075461 0.603390 0.298436
O O5 0.346471 0.162431 0.273113
O O6 0.346471 0.162431 0.991223
O O7 0.813752 0.813752 0.382169
#
# Coordination Sequence:
#
# PCOD9585160 Si02
#       4
#    12  12  12   6
#     4  10  23  43  69 102 141 183 234 296 360 425
#     4  10  23  43  69 102 141 183 234 296 360 425
#     4  10  21  40  67 102 143 184 231 286 354 428
#     4  12  22  44  78 104 136 196 248 306 360 430
#
# _framework density 21.892393999999999
#
# number of rings (size 3 to 8) (size 9 to 14) (size 15 to 20)
#    1.714    0.000    2.857    1.143    0.000   11.429 
#    1.714    0.000    0.000    3.429    0.000    0.000 
#    0.000    0.000    0.000    0.000    0.000    0.000 
#
# Total GULP energy -233989.277875 kJ/mol
# GULP energy per Si atom -5571.173283 kJ/mol
# Density = 2.184257 g / cm^3
# Si number density = 21.892394 Si / 1000 Ang^3
#
#
#
# Elastic Constant Matrix: (Units=GPa)
#
#
# Indices 1 2 3 4 5 6 
#
# 1 141.7446 43.2906 43.9764 0.0000 0.0000 0.0000
# 2 43.2906 141.7446 43.9764 0.0000 0.0000 0.0000
# 3 43.9764 43.9764 225.8924 0.0000 0.0000 0.0000
# 4 0.0000 0.0000 0.0000 29.1509 0.0000 0.0000
# 5 0.0000 0.0000 0.0000 0.0000 29.1509 0.0000
# 6 0.0000 0.0000 0.0000 0.0000 0.0000 49.2270
#
#
#
# Elastic Compliance Matrix: (Units=1/GPa)
#
#
# Indices 1 2 3 4 5 6 
#
# 1 0.008056 -0.002101 -0.001159 0.000000 0.000000 0.000000
# 2 -0.002101 0.008056 -0.001159 0.000000 0.000000 0.000000
# 3 -0.001159 -0.001159 0.004878 0.000000 0.000000 0.000000
# 4 0.000000 0.000000 0.000000 0.034304 0.000000 0.000000
# 5 0.000000 0.000000 0.000000 0.000000 0.034304 0.000000
# 6 0.000000 0.000000 0.000000 0.000000 0.000000 0.020314
#
#
# Mechanical properties :
#
#
# Convention : Reuss Voigt Hill
#
# Bulk Modulus (GPa) = 82.29337 85.76316 84.02827
# Shear Modulus (GPa) = 40.71563 46.71501 43.71532
#
# Velocity S-wave (km/s) = 4.31723 4.62437 4.47343
# Velocity P-wave (km/s) = 7.90714 8.23243 8.07142
#
# Compressibility (1/GPa) = 0.01215165
#
# Stress axis : x y z
#
# Youngs Moduli (GPa) = 124.12725 124.12725 204.98913
#
# Poissons Ratio (x) = 0.26076 0.23767
# Poissons Ratio (y) = 0.26076 0.23767
# Poissons Ratio (z) = 0.14391 0.14391
#
# Static dielectric constant tensor:
#      x y z
#    x 1.814720 0.000000 0.000000 
#    y 0.000000 1.814720 0.000000 
#    z 0.000000 0.000000 1.851840 
# 
# From -- ./inp_files/171.got.cif
#   From: 2010.05.17/outbox.cif.g08.bks.cpg/sg184_cif.got.tgz:171.got - 2010.05.20 12:04:40.
