data_PCOD9585956
_publ_section_title
;
Structure prediction by ZEFSAII (Michael W. Deem and Ramdas Pophale) SiO2 
 PCOD9585956
Probable space group: P -6 C 2
;
_chemical_formula_sum "Si O2"
_cell_formula_units_Z 72
_cell_length_a 24.642000
_cell_length_b 24.642000
_cell_length_c 8.692359
_cell_angle_alpha 90.000000
_cell_angle_beta 90.000000
_cell_angle_gamma 120.000000
_cell_volume 4571.094427
_symmetry_space_group_name_H-M "P -6 C 2"
_symmetry_group_IT_number 188
_symmetry_cell_setting 'hexagonal'
loop_
_space_group_symop_operation_xyz
x,y,z
-x+y,-x,1/2-z
-y,x-y,z
x,y,1/2-z
-x+y,-x,z
-y,x-y,1/2-z
-y,-x,-z
-x+y,y,-z
x,x-y,-z
-x+y,y,1/2+z
x,x-y,1/2+z
-y,-x,1/2+z
loop_
_atom_site_type_symbol
_atom_site_label
_atom_site_fract_x
_atom_site_fract_y
_atom_site_fract_z
Si Si1 0.402626 0.923113 0.565316
Si Si2 0.451309 0.784063 0.565159
Si Si3 0.187397 0.037007 0.072798
Si Si4 0.658568 0.992039 0.936621
Si Si5 0.885707 0.225452 0.425451
Si Si6 0.731007 0.806621 0.566755
O O1 0.403011 0.920724 0.750000
O O2 0.470991 0.941982 0.500000
O O3 0.356954 0.853584 0.498410
O O4 0.376766 0.967082 0.505027
O O5 0.450499 0.784125 0.750000
O O6 0.382837 0.765674 0.500000
O O7 0.469558 0.734779 0.500000
O O8 0.167231 0.021769 0.250000
O O9 0.263569 0.077632 0.072747
O O10 0.165059 0.082530 0.000000
O O11 0.172187 0.974851 0.980214
O O12 0.657487 0.991215 0.750000
O O13 0.707649 0.062897 0.991545
O O14 0.687245 0.949077 0.993129
O O15 0.874925 0.235478 0.250000
O O16 0.818886 0.181115 0.500000
O O17 0.724595 0.802470 0.750000
O O18 0.715153 0.857577 0.500000
#
# Coordination Sequence:
#
# PCOD9585956 Si02
#       6
#    12  12  12  12  12  12
#     4  11  22  37  54  73  95 126 163 201 244 297
#     4  11  21  35  52  71  92 117 152 200 254 308
#     4   9  16  28  45  66  89 117 150 186 226 275
#     4  10  20  35  51  71  97 127 160 198 239 286
#     4   8  15  26  44  68  95 120 146 178 216 258
#     4  11  21  33  48  69  95 125 159 201 249 298
#
# _framework density 15.751151999999999
#
# number of rings (size 3 to 8) (size 9 to 14) (size 15 to 20)
#    0.000    2.000    0.000    7.667    0.000    5.333 
#    0.000    3.333    0.000    0.333    0.000    2.333 
#    0.000    0.000    0.000    0.500    0.000    8.000 
#
# Total GULP energy -401591.090469 kJ/mol
# GULP energy per Si atom -5577.654034 kJ/mol
# Density = 1.571530 g / cm^3
# Si number density = 15.751152 Si / 1000 Ang^3
#
#
#
# Elastic Constant Matrix: (Units=GPa)
#
#
# Indices 1 2 3 4 5 6 
#
# 1 86.7729 70.1571 44.6892 0.0006 0.0000 0.0000
# 2 70.1571 86.7729 44.6892 -0.0006 0.0000 0.0000
# 3 44.6892 44.6892 132.3478 0.0000 0.0000 0.0000
# 4 0.0006 -0.0006 0.0000 21.7818 0.0000 0.0000
# 5 0.0000 0.0000 0.0000 0.0000 21.7818 0.0006
# 6 0.0000 0.0000 0.0000 0.0000 0.0006 8.3079
#
#
#
# Elastic Compliance Matrix: (Units=1/GPa)
#
#
# Indices 1 2 3 4 5 6 
#
# 1 0.034037 -0.026147 -0.002664 -0.000002 0.000000 0.000000
# 2 -0.026147 0.034037 -0.002664 0.000002 0.000000 0.000000
# 3 -0.002664 -0.002664 0.009355 0.000000 0.000000 0.000000
# 4 -0.000002 0.000002 0.000000 0.045910 0.000000 0.000000
# 5 0.000000 0.000000 0.000000 0.000000 0.045910 -0.000003
# 6 0.000000 0.000000 0.000000 0.000000 -0.000003 0.120367
#
#
# Mechanical properties :
#
#
# Convention : Reuss Voigt Hill
#
# Bulk Modulus (GPa) = 69.07061 69.44053 69.25557
# Shear Modulus (GPa) = 13.99028 20.13151 17.06090
#
# Velocity S-wave (km/s) = 2.98351 3.57893 3.29470
# Velocity P-wave (km/s) = 7.47093 7.82688 7.65097
#
# Compressibility (1/GPa) = 0.01447794
#
# Stress axis : x y z
#
# Youngs Moduli (GPa) = 29.38019 29.38019 106.89538
#
# Poissons Ratio (x) = 0.76820 0.28477
# Poissons Ratio (y) = 0.76820 0.28477
# Poissons Ratio (z) = 0.07827 0.07827
#
# Static dielectric constant tensor:
#      x y z
#    x 1.525570 0.000000 0.000000 
#    y 0.000000 1.525570 0.000000 
#    z 0.000000 0.000000 1.531870 
# 
# From -- ./inp_files/1004.got.cif
#   From: 2010.05.17/outbox.cif.g08.bks.cpg/sg188_1_cif.got.tgz:1004.got - 2010.05.20 12:11:46.
