data_PCOD9585637
_publ_section_title
;
Structure prediction by ZEFSAII (Michael W. Deem and Ramdas Pophale) SiO2 
 PCOD9585637
Probable space group: P -6 M 2
;
_chemical_formula_sum "Si O2"
_cell_formula_units_Z 72
_cell_length_a 12.713124
_cell_length_b 12.713124
_cell_length_c 31.696948
_cell_angle_alpha 90.000000
_cell_angle_beta 90.000000
_cell_angle_gamma 120.000000
_cell_volume 4436.624213
_symmetry_space_group_name_H-M "P -6 M 2"
_symmetry_group_IT_number 187
_symmetry_cell_setting 'hexagonal'
loop_
_space_group_symop_operation_xyz
x,y,z
-x+y,-x,-z
-y,x-y,z
x,y,-z
-x+y,-x,z
-y,x-y,-z
-y,-x,-z
-x+y,y,-z
x,x-y,-z
-x+y,y,z
x,x-y,z
-y,-x,z
loop_
_atom_site_type_symbol
_atom_site_label
_atom_site_fract_x
_atom_site_fract_y
_atom_site_fract_z
Si Si1 0.583116 0.666526 0.172669
Si Si2 0.250039 0.000163 0.254337
Si Si3 0.999719 0.250281 0.000000
Si Si4 0.750107 0.999424 0.500000
Si Si5 0.333567 0.416492 0.418341
Si Si6 0.666623 0.583345 0.663742
Si Si7 0.252581 0.000558 0.092517
O O1 0.556251 0.778126 0.171450
O O2 0.460180 0.539821 0.175789
O O3 0.668615 0.689998 0.213037
O O4 0.656848 0.676206 0.130217
O O5 0.235507 0.117754 0.248560
O O6 0.334252 0.023794 0.295049
O O7 0.119602 0.880398 0.260436
O O8 0.996574 0.303180 0.045777
O O9 0.122017 0.244033 0.000000
O O10 0.885149 0.114852 0.000000
O O11 0.871158 0.128842 0.500000
O O12 0.781429 0.890715 0.500000
O O13 0.669033 0.979654 0.458633
O O14 0.214825 0.429650 0.413212
O O15 0.452553 0.547448 0.424914
O O16 0.356046 0.358007 0.376795
O O17 0.786303 0.572607 0.657206
O O18 0.548549 0.451452 0.669637
O O19 0.248402 0.124201 0.098041
O O20 0.115498 0.884503 0.093710
#
# Coordination Sequence:
#
# PCOD9585637 Si02
#       7
#    12  12   6   6  12  12  12
#     4  10  20  33  48  66  91 124 160 195 231 275
#     4  10  20  34  53  76 100 124 153 194 244 294
#     4   8  13  22  39  66  96 122 148 182 230 284
#     4  10  20  34  52  74 100 130 164 202 246 296
#     4  10  20  34  53  76 102 132 167 208 252 295
#     4  10  20  34  52  74 102 136 171 204 238 281
#     4   9  16  27  46  71  97 122 150 189 237 286
#
# _framework density 16.228555
#
# number of rings (size 3 to 8) (size 9 to 14) (size 15 to 20)
#    0.000    2.333    0.000    3.250    0.000    1.333 
#    0.000    2.917    0.000   16.667    0.000    1.167 
#    0.000    0.000    0.000    0.000    0.000    0.000 
#
# Total GULP energy -401478.117815 kJ/mol
# GULP energy per Si atom -5576.084970 kJ/mol
# Density = 1.619162 g / cm^3
# Si number density = 16.228555 Si / 1000 Ang^3
#
#
#
# Elastic Constant Matrix: (Units=GPa)
#
#
# Indices 1 2 3 4 5 6 
#
# 1 113.5981 78.5673 93.1225 0.0000 0.0003 0.0000
# 2 78.5673 113.5981 93.1225 0.0000 -0.0003 0.0000
# 3 93.1225 93.1225 161.0420 0.0000 0.0000 0.0000
# 4 0.0000 0.0000 0.0000 21.5775 0.0000 -0.0003
# 5 0.0003 -0.0003 0.0000 0.0000 21.5775 0.0000
# 6 0.0000 0.0000 0.0000 -0.0003 0.0000 17.5154
#
#
#
# Elastic Compliance Matrix: (Units=1/GPa)
#
#
# Indices 1 2 3 4 5 6 
#
# 1 0.020192 -0.008354 -0.006846 0.000000 0.000000 0.000000
# 2 -0.008354 0.020192 -0.006846 0.000000 0.000000 0.000000
# 3 -0.006846 -0.006846 0.014127 0.000000 0.000000 0.000000
# 4 0.000000 0.000000 0.000000 0.046345 0.000000 0.000001
# 5 0.000000 0.000000 0.000000 0.000000 0.046345 0.000000
# 6 0.000000 0.000000 0.000000 0.000001 0.000000 0.057093
#
#
# Mechanical properties :
#
#
# Convention : Reuss Voigt Hill
#
# Bulk Modulus (GPa) = 95.95905 101.98475 98.97190
# Shear Modulus (GPa) = 19.85251 20.36247 20.10749
#
# Velocity S-wave (km/s) = 3.50138 3.54606 3.52379
# Velocity P-wave (km/s) = 8.69507 8.93002 8.81333
#
# Compressibility (1/GPa) = 0.01042111
#
# Stress axis : x y z
#
# Youngs Moduli (GPa) = 49.52344 49.52344 70.78846
#
# Poissons Ratio (x) = 0.41371 0.48460
# Poissons Ratio (y) = 0.41371 0.48460
# Poissons Ratio (z) = 0.33902 0.33902
#
# Static dielectric constant tensor:
#      x y z
#    x 1.509890 0.000000 0.000000 
#    y 0.000000 1.509890 0.000000 
#    z 0.000000 0.000000 1.552930 
# 
# From -- ./inp_files/4590.got.cif
#   From: 2010.05.17/outbox.cif.g08.bks.cpg/sg187_3_cif.got.tgz:4590.got - 2010.05.20 12:09:04.
