data_PCOD9585041
_publ_section_title
;
Structure prediction by ZEFSAII (Michael W. Deem and Ramdas Pophale) SiO2 
 PCOD9585041
Probable space group: P 6 M M
;
_chemical_formula_sum "Si O2"
_cell_formula_units_Z 36
_cell_length_a 20.898073
_cell_length_b 20.898073
_cell_length_c 5.325124
_cell_angle_alpha 90.000000
_cell_angle_beta 90.000000
_cell_angle_gamma 120.000000
_cell_volume 2014.062024
_symmetry_space_group_name_H-M "P 6 M M"
_symmetry_group_IT_number 183
_symmetry_cell_setting 'hexagonal'
loop_
_space_group_symop_operation_xyz
x,y,z
x-y,x,z
-y,x-y,z
-x,-y,z
-x+y,-x,z
y,-x+y,z
-x+y,y,z
x,x-y,z
-y,-x,z
y,x,z
x-y,-y,z
-x,-x+y,z
loop_
_atom_site_type_symbol
_atom_site_label
_atom_site_fract_x
_atom_site_fract_y
_atom_site_fract_z
Si Si1 0.088526 0.177052 0.692530
Si Si2 0.690138 0.601710 0.192533
Si Si3 0.909631 0.529138 0.692533
Si Si4 0.861216 0.138785 0.192530
O O1 0.127138 0.127138 0.692531
O O2 0.113729 0.227458 0.442258
O O3 0.113729 0.227458 0.942801
O O4 0.638579 0.638579 0.192534
O O5 0.669097 0.553074 0.443573
O O6 0.773412 0.668154 0.192532
O O7 0.669097 0.553073 0.941495
O O8 0.888130 0.444065 0.692532
O O9 0.000000 0.575626 0.692534
#
# Coordination Sequence:
#
# PCOD9585041 Si02
#       4
#     6  12  12   6
#     4  12  25  42  60  78 104 148 208 262 310 362
#     4  10  19  32  50  75 108 140 172 215 270 332
#     4   9  17  30  50  75 104 133 164 200 250 316
#     4  12  24  38  57  82 114 146 186 240 308 364
#
# _framework density 17.874324999999999
#
# number of rings (size 3 to 8) (size 9 to 14) (size 15 to 20)
#    0.000    1.667    0.000    6.167    0.000    6.667 
#    0.000    1.667    0.000    0.000    0.000    0.000 
#   33.333    0.000    0.000    0.000    0.000    0.000 
#
# Total GULP energy -201004.759589 kJ/mol
# GULP energy per Si atom -5583.465544 kJ/mol
# Density = 1.783364 g / cm^3
# Si number density = 17.874325 Si / 1000 Ang^3
#
#
#
# Elastic Constant Matrix: (Units=GPa)
#
#
# Indices 1 2 3 4 5 6 
#
# 1 107.7636 40.0263 87.4035 0.0000 0.0000 0.0000
# 2 40.0263 107.7636 87.4035 0.0000 0.0000 0.0000
# 3 87.4035 87.4035 228.1392 0.0000 0.0000 0.0000
# 4 0.0000 0.0000 0.0000 22.1484 0.0000 0.0000
# 5 0.0000 0.0000 0.0000 0.0000 22.1484 0.0000
# 6 0.0000 0.0000 0.0000 0.0000 0.0000 33.8687
#
#
#
# Elastic Compliance Matrix: (Units=1/GPa)
#
#
# Indices 1 2 3 4 5 6 
#
# 1 0.013568 -0.001195 -0.004740 0.000000 0.000000 0.000000
# 2 -0.001195 0.013568 -0.004740 0.000000 0.000000 0.000000
# 3 -0.004740 -0.004740 0.008016 0.000000 0.000000 0.000000
# 4 0.000000 0.000000 0.000000 0.045150 0.000000 0.000000
# 5 0.000000 0.000000 0.000000 0.000000 0.045150 0.000000
# 6 0.000000 0.000000 0.000000 0.000000 0.000000 0.029526
#
#
# Mechanical properties :
#
#
# Convention : Reuss Voigt Hill
#
# Bulk Modulus (GPa) = 72.46062 97.03700 84.74881
# Shear Modulus (GPa) = 27.63514 30.88863 29.26189
#
# Velocity S-wave (km/s) = 3.93629 4.16155 4.05049
# Velocity P-wave (km/s) = 7.82854 8.80328 8.33018
#
# Compressibility (1/GPa) = 0.01380060
#
# Stress axis : x y z
#
# Youngs Moduli (GPa) = 73.70205 73.70205 124.75766
#
# Poissons Ratio (x) = 0.08806 0.59140
# Poissons Ratio (y) = 0.08806 0.59140
# Poissons Ratio (z) = 0.34938 0.34938
#
# Static dielectric constant tensor:
#      x y z
#    x 2.013400 0.000000 0.000000 
#    y 0.000000 2.013400 0.000000 
#    z 0.000000 0.000000 1.622540 
# 
# From -- ./inp_files/145.got.cif
#   From: 2010.05.17/outbox.cif.g08.bks.cpg/sg183_1_cif.got.tgz:145.got - 2010.05.20 12:02:58.
