data_PCOD9585564
_publ_section_title
;
Structure prediction by ZEFSAII (Michael W. Deem and Ramdas Pophale) SiO2 
 PCOD9585564
Probable space group: P -6 M 2
;
_chemical_formula_sum "Si O2"
_cell_formula_units_Z 54
_cell_length_a 18.751254
_cell_length_b 18.751254
_cell_length_c 11.635475
_cell_angle_alpha 90.000000
_cell_angle_beta 90.000000
_cell_angle_gamma 120.000000
_cell_volume 3543.034510
_symmetry_space_group_name_H-M "P -6 M 2"
_symmetry_group_IT_number 187
_symmetry_cell_setting 'hexagonal'
loop_
_space_group_symop_operation_xyz
x,y,z
-x+y,-x,-z
-y,x-y,z
x,y,-z
-x+y,-x,z
-y,x-y,-z
-y,-x,-z
-x+y,y,-z
x,x-y,-z
-x+y,y,z
x,x-y,z
-y,-x,z
loop_
_atom_site_type_symbol
_atom_site_label
_atom_site_fract_x
_atom_site_fract_y
_atom_site_fract_z
Si Si1 0.192024 0.384048 0.637334
Si Si2 0.904766 0.809531 0.640103
Si Si3 0.370005 0.903140 0.250868
Si Si4 0.807635 0.903818 0.639903
Si Si5 0.919287 0.540420 0.363237
Si Si6 0.380918 0.190459 0.360752
Si Si7 0.334803 0.499625 0.000000
O O1 0.191672 0.383343 0.500000
O O2 0.147041 0.431828 0.682749
O O3 0.144030 0.288060 0.676167
O O4 0.904782 0.809564 0.500000
O O5 0.856208 0.856673 0.676082
O O6 0.857122 0.714243 0.677762
O O7 0.438117 0.876233 0.277572
O O8 0.411331 0.997181 0.291307
O O9 0.350867 0.887833 0.115542
O O10 0.807604 0.903802 0.500000
O O11 0.938254 0.559118 0.500000
O O12 0.886965 0.443483 0.349559
O O13 0.856848 0.570949 0.327490
O O14 0.378638 0.189319 0.500000
O O15 0.403450 0.596551 0.000000
O O16 0.244154 0.488307 0.000000
#
# Coordination Sequence:
#
# PCOD9585564 Si02
#       7
#     6   6  12   6  12   6   6
#     4  11  20  30  45  68  97 129 163 195 240 292
#     4   9  15  24  37  56  85 118 156 187 224 269
#     4  10  20  33  49  67  93 126 162 202 245 286
#     4   9  17  26  40  63  91 124 155 195 231 273
#     4   9  17  30  47  69  97 127 160 198 242 291
#     4   9  16  27  44  66  93 130 159 188 234 290
#     4  10  19  34  52  69  88 120 164 210 248 283
#
# _framework density 15.241172000000001
#
# number of rings (size 3 to 8) (size 9 to 14) (size 15 to 20)
#    0.000    2.444    1.111    2.333    0.000    5.778 
#    1.333    0.000    0.000    0.667    0.000    0.000 
#    0.000    0.889    0.000    0.111    0.000    0.444 
#
# Total GULP energy -300825.197403 kJ/mol
# GULP energy per Si atom -5570.836989 kJ/mol
# Density = 1.520648 g / cm^3
# Si number density = 15.241172 Si / 1000 Ang^3
#
#
#
# Elastic Constant Matrix: (Units=GPa)
#
#
# Indices 1 2 3 4 5 6 
#
# 1 135.8855 99.4732 40.7280 0.0000 -0.0002 0.0000
# 2 99.4732 135.8855 40.7280 0.0000 0.0002 0.0000
# 3 40.7280 40.7280 48.4211 0.0000 0.0000 0.0000
# 4 0.0000 0.0000 0.0000 4.6604 0.0000 0.0002
# 5 -0.0002 0.0002 0.0000 0.0000 4.6604 0.0000
# 6 0.0000 0.0000 0.0000 0.0002 0.0000 18.2062
#
#
#
# Elastic Compliance Matrix: (Units=1/GPa)
#
#
# Indices 1 2 3 4 5 6 
#
# 1 0.016728 -0.010735 -0.005041 0.000000 0.000001 0.000000
# 2 -0.010735 0.016728 -0.005041 0.000000 -0.000001 0.000000
# 3 -0.005041 -0.005041 0.029133 0.000000 0.000000 0.000000
# 4 0.000000 0.000000 0.000000 0.214572 0.000000 -0.000003
# 5 0.000001 -0.000001 0.000000 0.000000 0.214572 0.000000
# 6 0.000000 0.000000 0.000000 -0.000003 0.000000 0.054926
#
#
# Mechanical properties :
#
#
# Convention : Reuss Voigt Hill
#
# Bulk Modulus (GPa) = 47.72192 75.78339 61.75266
# Shear Modulus (GPa) = 8.39940 14.78960 11.59450
#
# Velocity S-wave (km/s) = 2.35010 3.11846 2.76114
# Velocity P-wave (km/s) = 6.22440 7.92446 7.12532
#
# Compressibility (1/GPa) = 0.02095473
#
# Stress axis : x y z
#
# Youngs Moduli (GPa) = 59.77849 59.77849 34.32543
#
# Poissons Ratio (x) = 0.64171 0.17305
# Poissons Ratio (y) = 0.64171 0.17305
# Poissons Ratio (z) = 0.30136 0.30136
#
# Static dielectric constant tensor:
#      x y z
#    x 1.505970 0.000000 0.000000 
#    y 0.000000 1.505970 0.000000 
#    z 0.000000 0.000000 1.479600 
# 
# From -- ./inp_files/1614.got.cif
#   From: 2010.05.17/outbox.cif.g08.bks.cpg/sg187_1_cif.got.tgz:1614.got - 2010.05.20 12:09:04.
