data_PCOD9585266
_publ_section_title
;
Structure prediction by ZEFSAII (Michael W. Deem and Ramdas Pophale) SiO2 
 PCOD9585266
Probable space group: P 63 C M
;
_chemical_formula_sum "Si O2"
_cell_formula_units_Z 96
_cell_length_a 14.652330
_cell_length_b 14.652330
_cell_length_c 23.534802
_cell_angle_alpha 90.000000
_cell_angle_beta 90.000000
_cell_angle_gamma 120.000000
_cell_volume 4375.770773
_symmetry_space_group_name_H-M "P 63 C M"
_symmetry_group_IT_number 185
_symmetry_cell_setting 'hexagonal'
loop_
_space_group_symop_operation_xyz
x,y,z
x-y,x,1/2+z
-y,x-y,z
-x,-y,1/2+z
-x+y,-x,z
y,-x+y,1/2+z
-x+y,y,1/2+z
x,x-y,1/2+z
-y,-x,1/2+z
y,x,z
x-y,-y,z
-x,-x+y,z
loop_
_atom_site_type_symbol
_atom_site_label
_atom_site_fract_x
_atom_site_fract_y
_atom_site_fract_z
Si Si1 0.115673 0.494217 0.830810
Si Si2 0.122204 0.452081 0.700108
Si Si3 0.122248 0.662737 0.662296
Si Si4 0.544864 0.833685 0.865292
Si Si5 0.714469 0.170261 0.532178
Si Si6 0.115102 0.229126 0.490328
Si Si7 0.117263 0.616804 0.990761
Si Si8 0.229204 0.114221 0.853014
O O1 0.121100 0.454850 0.768480
O O2 0.131696 0.610149 0.826875
O O3 0.211997 0.503364 0.866695
O O4 0.000000 0.418248 0.856079
O O5 0.142059 0.567366 0.680905
O O6 0.221219 0.437503 0.682167
O O7 0.000000 0.366999 0.681948
O O8 0.129602 0.669110 0.594036
O O9 0.000000 0.624490 0.679091
O O10 0.540637 0.872873 0.928619
O O11 0.659594 0.874040 0.839648
O O12 0.791304 0.128064 0.513373
O O13 0.617171 0.134728 0.489761
O O14 0.790503 0.296085 0.529375
O O15 0.135825 0.135825 0.508050
O O16 0.118866 0.232296 0.421844
O O17 0.000000 0.204138 0.508249
O O18 0.000000 0.576416 0.012748
O O19 0.137437 0.137437 0.835933
O O20 0.203457 0.000000 0.832336
#
# Coordination Sequence:
#
# PCOD9585266 Si02
#       8
#    12  12  12  12  12  12  12  12
#     4  11  24  42  65  93 123 159 202 256 319 382
#     4  10  23  44  70  97 128 163 205 266 338 398
#     4  11  23  42  69 100 127 166 215 267 326 389
#     4  12  23  39  61  88 124 164 209 256 305 365
#     4  12  24  40  60  88 128 167 212 255 305 368
#     4  10  20  36  57  83 117 163 213 260 303 351
#     4  12  25  41  59  87 127 173 214 252 301 361
#     4  10  20  36  57  84 118 163 212 258 301 350
#
# _framework density 21.938991000000001
#
# number of rings (size 3 to 8) (size 9 to 14) (size 15 to 20)
#    0.000    1.000    1.250    6.250    0.000    3.000 
#    0.000    1.250    0.000    0.250    0.000    0.000 
#    0.000    0.000    0.000    0.000    0.000    0.000 
#
# Total GULP energy -536600.439395 kJ/mol
# GULP energy per Si atom -5589.587910 kJ/mol
# Density = 2.188906 g / cm^3
# Si number density = 21.938991 Si / 1000 Ang^3
#
#
#
# Elastic Constant Matrix: (Units=GPa)
#
#
# Indices 1 2 3 4 5 6 
#
# 1 140.5474 74.8042 13.2487 0.0000 0.0000 0.0000
# 2 74.8042 140.5474 13.2487 0.0000 0.0000 0.0000
# 3 13.2487 13.2487 30.0165 0.0000 0.0000 0.0000
# 4 0.0000 0.0000 0.0000 8.0006 0.0000 0.0000
# 5 0.0000 0.0000 0.0000 0.0000 8.0006 0.0000
# 6 0.0000 0.0000 0.0000 0.0000 0.0000 32.8716
#
#
#
# Elastic Compliance Matrix: (Units=1/GPa)
#
#
# Indices 1 2 3 4 5 6 
#
# 1 0.010060 -0.005150 -0.002167 0.000000 0.000000 0.000000
# 2 -0.005150 0.010060 -0.002167 0.000000 0.000000 0.000000
# 3 -0.002167 -0.002167 0.035228 0.000000 0.000000 0.000000
# 4 0.000000 0.000000 0.000000 0.124991 0.000000 0.000000
# 5 0.000000 0.000000 0.000000 0.000000 0.124991 0.000000
# 6 0.000000 0.000000 0.000000 0.000000 0.000000 0.030421
#
#
# Mechanical properties :
#
#
# Convention : Reuss Voigt Hill
#
# Bulk Modulus (GPa) = 27.48799 57.07936 42.28368
# Shear Modulus (GPa) = 13.62960 23.76187 18.69574
#
# Velocity S-wave (km/s) = 2.49519 3.29460 2.92236
# Velocity P-wave (km/s) = 4.56703 6.36760 5.54094
#
# Compressibility (1/GPa) = 0.03637952
#
# Stress axis : x y z
#
# Youngs Moduli (GPa) = 99.39896 99.39896 28.38640
#
# Poissons Ratio (x) = 0.51193 0.06152
# Poissons Ratio (y) = 0.51193 0.06152
# Poissons Ratio (z) = 0.21542 0.21542
#
# Static dielectric constant tensor:
#      x y z
#    x 1.857230 0.000000 0.000000 
#    y 0.000000 1.857230 0.000000 
#    z 0.000000 0.000000 1.774160 
# 
# From -- ./inp_files/2169.got.cif
#   From: 2010.05.17/outbox.cif.g08.bks.cpg/sg185_cif.got.tgz:2169.got - 2010.05.20 12:05:34.
