data_PCOD9585843
_publ_section_title
;
Structure prediction by ZEFSAII (Michael W. Deem and Ramdas Pophale) SiO2 
 PCOD9585843
Probable space group: P -6 C 2
;
_chemical_formula_sum "Si O2"
_cell_formula_units_Z 48
_cell_length_a 19.569821
_cell_length_b 19.569821
_cell_length_c 8.671781
_cell_angle_alpha 90.000000
_cell_angle_beta 90.000000
_cell_angle_gamma 120.000000
_cell_volume 2876.157336
_symmetry_space_group_name_H-M "P -6 C 2"
_symmetry_group_IT_number 188
_symmetry_cell_setting 'hexagonal'
loop_
_space_group_symop_operation_xyz
x,y,z
-x+y,-x,1/2-z
-y,x-y,z
x,y,1/2-z
-x+y,-x,z
-y,x-y,1/2-z
-y,-x,-z
-x+y,y,-z
x,x-y,-z
-x+y,y,1/2+z
x,x-y,1/2+z
-y,-x,1/2+z
loop_
_atom_site_type_symbol
_atom_site_label
_atom_site_fract_x
_atom_site_fract_y
_atom_site_fract_z
Si Si1 0.141887 0.424204 0.565827
Si Si2 0.342086 0.243503 0.934812
Si Si3 0.053917 0.808386 0.935162
Si Si4 0.428576 0.001827 0.435377
O O1 0.143721 0.425906 0.750000
O O2 0.230322 0.460644 0.500000
O O3 0.096984 0.333746 0.505220
O O4 0.085691 0.455310 0.501251
O O5 0.345704 0.243034 0.750000
O O6 0.250481 0.213488 0.977185
O O7 0.393993 0.335227 0.983498
O O8 0.367842 0.183921 0.000000
O O9 0.061293 0.810287 0.750000
O O10 0.103078 0.896922 0.000000
O O11 0.427324 0.998304 0.250000
O O12 0.514902 0.029803 0.500000
#
# Coordination Sequence:
#
# PCOD9585843 Si02
#       4
#    12  12  12  12
#     4  10  17  27  45  69  95 124 153 188 231 281
#     4   9  19  32  48  71  99 127 164 208 252 301
#     4   9  16  27  43  67  94 120 151 190 232 284
#     4  10  20  34  50  73 100 129 167 212 257 306
#
# _framework density 16.688934
#
# number of rings (size 3 to 8) (size 9 to 14) (size 15 to 20)
#    0.000    2.500    0.000    6.750    0.000    6.000 
#    0.000    0.000    0.000    1.500    0.000    3.500 
#    0.000    0.000    0.000    0.000    0.000    0.000 
#
# Total GULP energy -267211.959126 kJ/mol
# GULP energy per Si atom -5566.915815 kJ/mol
# Density = 1.665095 g / cm^3
# Si number density = 16.688934 Si / 1000 Ang^3
#
#
#
# Elastic Constant Matrix: (Units=GPa)
#
#
# Indices 1 2 3 4 5 6 
#
# 1 88.4555 48.8603 27.7099 -0.0002 0.0000 0.0000
# 2 48.8603 88.4555 27.7099 0.0002 0.0000 0.0000
# 3 27.7099 27.7099 73.2735 0.0000 0.0000 0.0000
# 4 -0.0002 0.0002 0.0000 24.7441 0.0000 0.0000
# 5 0.0000 0.0000 0.0000 0.0000 24.7441 -0.0002
# 6 0.0000 0.0000 0.0000 0.0000 -0.0002 19.7976
#
#
#
# Elastic Compliance Matrix: (Units=1/GPa)
#
#
# Indices 1 2 3 4 5 6 
#
# 1 0.016925 -0.008331 -0.003250 0.000000 0.000000 0.000000
# 2 -0.008331 0.016925 -0.003250 0.000000 0.000000 0.000000
# 3 -0.003250 -0.003250 0.016106 0.000000 0.000000 0.000000
# 4 0.000000 0.000000 0.000000 0.040414 0.000000 0.000000
# 5 0.000000 0.000000 0.000000 0.000000 0.040414 0.000000
# 6 0.000000 0.000000 0.000000 0.000000 0.000000 0.050511
#
#
# Mechanical properties :
#
#
# Convention : Reuss Voigt Hill
#
# Bulk Modulus (GPa) = 49.27625 50.97164 50.12395
# Shear Modulus (GPa) = 22.96524 23.58410 23.27467
#
# Velocity S-wave (km/s) = 3.71357 3.76328 3.73851
# Velocity P-wave (km/s) = 6.92661 7.03502 6.98102
#
# Compressibility (1/GPa) = 0.02029375
#
# Stress axis : x y z
#
# Youngs Moduli (GPa) = 59.08457 59.08457 62.08998
#
# Poissons Ratio (x) = 0.49222 0.20180
# Poissons Ratio (y) = 0.49222 0.20180
# Poissons Ratio (z) = 0.19203 0.19203
#
# Static dielectric constant tensor:
#      x y z
#    x 1.599690 0.000000 0.000000 
#    y 0.000000 1.599690 0.000000 
#    z 0.000000 0.000000 1.556200 
# 
# From -- ./inp_files/368.got.cif
#   From: 2010.05.17/outbox.cif.g08.bks.cpg/sg188_1_cif.got.tgz:368.got - 2010.05.20 12:11:46.
