data_PCOD9585244
_publ_section_title
;
Structure prediction by ZEFSAII (Michael W. Deem and Ramdas Pophale) SiO2 
 PCOD9585244
Probable space group: P 63 C M
;
_chemical_formula_sum "Si O2"
_cell_formula_units_Z 84
_cell_length_a 30.098944
_cell_length_b 30.098944
_cell_length_c 5.587762
_cell_angle_alpha 90.000000
_cell_angle_beta 90.000000
_cell_angle_gamma 120.000000
_cell_volume 4384.005088
_symmetry_space_group_name_H-M "P 63 C M"
_symmetry_group_IT_number 185
_symmetry_cell_setting 'hexagonal'
loop_
_space_group_symop_operation_xyz
x,y,z
x-y,x,1/2+z
-y,x-y,z
-x,-y,1/2+z
-x+y,-x,z
y,-x+y,1/2+z
-x+y,y,1/2+z
x,x-y,1/2+z
-y,-x,1/2+z
y,x,z
x-y,-y,z
-x,-x+y,z
loop_
_atom_site_type_symbol
_atom_site_label
_atom_site_fract_x
_atom_site_fract_y
_atom_site_fract_z
Si Si1 0.524563 0.083214 0.488040
Si Si2 0.270463 0.944338 0.763828
Si Si3 0.647321 0.588674 0.454377
Si Si4 0.729780 0.214032 0.402244
Si Si5 0.127863 0.740488 0.630292
Si Si6 0.201176 0.618005 0.452650
Si Si7 0.144067 0.308698 0.653053
O O1 0.536318 0.061203 0.726162
O O2 0.468764 0.075740 0.523940
O O3 0.569968 0.142756 0.469973
O O4 0.321547 0.945794 0.675315
O O5 0.222433 0.901344 0.621766
O O6 0.278178 0.000000 0.737580
O O7 0.262595 0.923780 0.031164
O O8 0.616919 0.616919 0.347014
O O9 0.692066 0.586660 0.304085
O O10 0.753989 0.240532 0.145275
O O11 0.731206 0.161518 0.434040
O O12 0.671693 0.202688 0.419763
O O13 0.161193 0.800620 0.696697
O O14 0.224602 0.616473 0.711101
O O15 0.147005 0.281995 0.411535
#
# Coordination Sequence:
#
# PCOD9585244 Si02
#       7
#    12  12  12  12  12  12  12
#     4  10  23  41  59  83 108 155 186 231 272 347
#     4  10  22  37  56  85 120 157 192 238 296 347
#     4  11  24  39  62  87 119 158 195 241 293 352
#     4  12  26  40  66  99 119 145 192 245 298 362
#     4  11  22  37  59  87 122 153 190 244 294 350
#     4  10  21  40  63  85 116 147 180 224 285 350
#     4  10  19  36  55  80 115 151 187 233 285 336
#
# _framework density 19.160561999999999
#
# number of rings (size 3 to 8) (size 9 to 14) (size 15 to 20)
#    0.000    1.429    1.429    4.714    8.000    0.571 
#    0.000    0.000    0.000    5.714    0.000    0.000 
#    0.000    0.000    0.000    0.000    0.000    0.000 
#
# Total GULP energy -467967.869686 kJ/mol
# GULP energy per Si atom -5571.046068 kJ/mol
# Density = 1.911695 g / cm^3
# Si number density = 19.160562 Si / 1000 Ang^3
#
#
#
# Elastic Constant Matrix: (Units=GPa)
#
#
# Indices 1 2 3 4 5 6 
#
# 1 107.4823 7.8137 13.1407 0.0000 0.0000 0.0000
# 2 7.8137 107.4823 13.1407 0.0000 0.0000 0.0000
# 3 13.1407 13.1407 115.7295 0.0000 0.0000 0.0000
# 4 0.0000 0.0000 0.0000 -28.9043 0.0000 0.0000
# 5 0.0000 0.0000 0.0000 0.0000 -28.9043 0.0000
# 6 0.0000 0.0000 0.0000 0.0000 0.0000 49.8343
#
#
#
# Elastic Compliance Matrix: (Units=1/GPa)
#
#
# Indices 1 2 3 4 5 6 
#
# 1 0.009469 -0.000565 -0.001011 0.000000 0.000000 0.000000
# 2 -0.000565 0.009469 -0.001011 0.000000 0.000000 0.000000
# 3 -0.001011 -0.001011 0.008870 0.000000 0.000000 0.000000
# 4 0.000000 0.000000 0.000000 -0.034597 0.000000 0.000000
# 5 0.000000 0.000000 0.000000 0.000000 -0.034597 0.000000
# 6 0.000000 0.000000 0.000000 0.000000 0.000000 0.020067
#
#
# Mechanical properties :
#
#
# Convention : Reuss Voigt Hill
#
# Bulk Modulus (GPa) = 44.18126 44.32044 44.25085
# Shear Modulus (GPa) = -581.27068 18.17842 -281.54613
#
# Velocity S-wave (km/s) = -17.43637 3.08351 -12.13505
# Velocity P-wave (km/s) = 19.55149 5.98821 13.16059
#
# Compressibility (1/GPa) = 0.02263403
#
# Stress axis : x y z
#
# Youngs Moduli (GPa) = 105.61314 105.61314 112.73410
#
# Poissons Ratio (x) = 0.05964 0.11397
# Poissons Ratio (y) = 0.05964 0.11397
# Poissons Ratio (z) = 0.10677 0.10677
#
# Static dielectric constant tensor:
#      x y z
#    x 1.678880 0.000000 0.000000 
#    y 0.000000 1.678880 0.000000 
#    z 0.000000 0.000000 1.807940 
# 
# From -- ./inp_files/171.got.cif
#   From: 2010.05.17/outbox.cif.g08.bks.cpg/sg185_cif.got.tgz:171.got - 2010.05.20 12:05:34.
