data_PCOD9585824
_publ_section_title
;
Structure prediction by ZEFSAII (Michael W. Deem and Ramdas Pophale) SiO2 
 PCOD9585824
Probable space group: P -6 M 2
;
_chemical_formula_sum "Si O2"
_cell_formula_units_Z 90
_cell_length_a 18.000000
_cell_length_b 18.000000
_cell_length_c 18.000000
_cell_angle_alpha 90.000000
_cell_angle_beta 90.000000
_cell_angle_gamma 120.000000
_cell_volume 5050.660155
_symmetry_space_group_name_H-M "P -6 M 2"
_symmetry_group_IT_number 187
_symmetry_cell_setting 'hexagonal'
loop_
_space_group_symop_operation_xyz
x,y,z
-x+y,-x,-z
-y,x-y,z
x,y,-z
-x+y,-x,z
-y,x-y,-z
-y,-x,-z
-x+y,y,-z
x,x-y,-z
-x+y,y,z
x,x-y,z
-y,-x,z
loop_
_atom_site_type_symbol
_atom_site_label
_atom_site_fract_x
_atom_site_fract_y
_atom_site_fract_z
Si Si1 0.312095 0.244675 0.126930
Si Si2 0.169494 0.999552 0.398815
Si Si3 0.168673 0.998684 0.778084
Si Si4 0.352858 0.334992 0.415391
Si Si5 0.838257 0.505201 0.685104
Si Si6 0.332878 0.836750 0.409696
Si Si7 0.495278 0.334101 0.135487
Si Si8 0.174101 0.173774 0.000000
O O1 0.327743 0.163872 0.133346
O O2 0.263998 0.244875 0.201403
O O3 0.405015 0.320434 0.106252
O O4 0.237054 0.219045 0.068585
O O5 0.088813 0.911188 0.423834
O O6 0.163917 0.998252 0.309798
O O7 0.259305 0.007601 0.418394
O O8 0.164529 0.082265 0.422713
O O9 0.090589 0.909412 0.806755
O O10 0.157535 0.078768 0.804884
O O11 0.388323 0.352406 0.500000
O O12 0.412936 0.320408 0.359498
O O13 0.343824 0.415688 0.389627
O O14 0.744044 0.488087 0.666620
O O15 0.848103 0.424052 0.665176
O O16 0.846500 0.515097 0.774609
O O17 0.331233 0.834041 0.500000
O O18 0.414663 0.829325 0.385595
O O19 0.243759 0.756242 0.383652
O O20 0.508882 0.254441 0.114371
O O21 0.577552 0.422449 0.114058
O O22 0.091418 0.182836 0.000000
O O23 0.149168 0.074584 0.000000
#
# Coordination Sequence:
#
# PCOD9585824 Si02
#       8
#    12  12  12  12  12  12  12   6
#     4   9  17  28  43  66  96 128 161 195 228 264
#     4  10  20  33  48  65  86 116 157 203 246 286
#     4   9  16  27  44  65  89 118 154 195 236 276
#     4  11  22  34  47  65  91 121 151 187 237 297
#     4  10  20  34  52  72  93 119 154 196 241 290
#     4   9  17  30  48  67  85 106 135 173 218 271
#     4   9  17  31  51  72  93 120 157 200 243 285
#     4  10  19  30  45  68 102 142 176 200 225 264
#
# _framework density 17.819452999999999
#
# number of rings (size 3 to 8) (size 9 to 14) (size 15 to 20)
#    0.000    2.400    0.000    3.133    0.000    7.467 
#    0.000    1.667    0.000    1.600    0.000    0.933 
#    0.000    0.000    0.000    5.600    0.000    2.133 
#
# Total GULP energy -501577.401033 kJ/mol
# GULP energy per Si atom -5573.082234 kJ/mol
# Density = 1.777889 g / cm^3
# Si number density = 17.819453 Si / 1000 Ang^3
#
#
#
# Elastic Constant Matrix: (Units=GPa)
#
#
# Indices 1 2 3 4 5 6 
#
# 1 96.0079 29.5237 7.1630 0.0000 0.0002 0.0000
# 2 29.5237 96.0079 7.1630 0.0000 -0.0002 0.0000
# 3 7.1630 7.1630 22.3889 0.0000 0.0000 0.0000
# 4 0.0000 0.0000 0.0000 29.7938 0.0000 -0.0002
# 5 0.0002 -0.0002 0.0000 0.0000 29.7938 0.0000
# 6 0.0000 0.0000 0.0000 -0.0002 0.0000 33.2421
#
#
#
# Elastic Compliance Matrix: (Units=1/GPa)
#
#
# Indices 1 2 3 4 5 6 
#
# 1 0.011655 -0.003387 -0.002645 0.000000 0.000000 0.000000
# 2 -0.003387 0.011655 -0.002645 0.000000 0.000000 0.000000
# 3 -0.002645 -0.002645 0.046358 0.000000 0.000000 0.000000
# 4 0.000000 0.000000 0.000000 0.033564 0.000000 0.000000
# 5 0.000000 0.000000 0.000000 0.000000 0.033564 0.000000
# 6 0.000000 0.000000 0.000000 0.000000 0.000000 0.030082
#
#
# Mechanical properties :
#
#
# Convention : Reuss Voigt Hill
#
# Bulk Modulus (GPa) = 19.11584 33.56714 26.34149
# Shear Modulus (GPa) = 24.79312 29.93626 27.36469
#
# Velocity S-wave (km/s) = 3.73413 4.10320 3.92301
# Velocity P-wave (km/s) = 5.41687 6.42857 5.94428
#
# Compressibility (1/GPa) = 0.05231264
#
# Stress axis : x y z
#
# Youngs Moduli (GPa) = 85.80309 85.80309 21.57145
#
# Poissons Ratio (x) = 0.29058 0.05706
# Poissons Ratio (y) = 0.29058 0.05706
# Poissons Ratio (z) = 0.22697 0.22697
#
# Static dielectric constant tensor:
#      x y z
#    x 1.601360 0.000000 0.000000 
#    y 0.000000 1.601360 0.000000 
#    z 0.000000 0.000000 1.727810 
# 
# From -- ./inp_files/3270.got.cif
#   From: 2010.05.17/outbox.ucp.g08.bks.cvg/sg187_2_cif.got.tgz:3270.got - 2010.06.11 15:21:44.
