data_PCOD9585675
_publ_section_title
;
Structure prediction by ZEFSAII (Michael W. Deem and Ramdas Pophale) SiO2 
 PCOD9585675
Probable space group: P -6 M 2
;
_chemical_formula_sum "Si O2"
_cell_formula_units_Z 54
_cell_length_a 12.776245
_cell_length_b 12.776245
_cell_length_c 23.380730
_cell_angle_alpha 90.000000
_cell_angle_beta 90.000000
_cell_angle_gamma 120.000000
_cell_volume 3305.180342
_symmetry_space_group_name_H-M "P -6 M 2"
_symmetry_group_IT_number 187
_symmetry_cell_setting 'hexagonal'
loop_
_space_group_symop_operation_xyz
x,y,z
-x+y,-x,-z
-y,x-y,z
x,y,-z
-x+y,-x,z
-y,x-y,-z
-y,-x,-z
-x+y,y,-z
x,x-y,-z
-x+y,y,z
x,x-y,z
-y,-x,z
loop_
_atom_site_type_symbol
_atom_site_label
_atom_site_fract_x
_atom_site_fract_y
_atom_site_fract_z
Si Si1 0.667008 0.582474 0.390236
Si Si2 0.248369 0.248165 0.279970
Si Si3 0.333495 0.914426 0.170667
Si Si4 0.084583 0.418650 0.500000
Si Si5 0.752313 0.752305 0.065917
O O1 0.785349 0.570697 0.400205
O O2 0.548895 0.451106 0.382986
O O3 0.691355 0.663635 0.333918
O O4 0.642273 0.645242 0.444127
O O5 0.119961 0.239922 0.290019
O O6 0.306040 0.328704 0.223613
O O7 0.231447 0.115724 0.271852
O O8 0.460342 0.920683 0.177148
O O9 0.224088 0.775913 0.169428
O O10 0.325004 0.975693 0.112036
O O11 0.204689 0.409377 0.500000
O O12 0.116727 0.558364 0.500000
O O13 0.873685 0.747370 0.076060
O O14 0.779985 0.889993 0.072460
O O15 0.714084 0.716606 0.000000
#
# Coordination Sequence:
#
# PCOD9585675 Si02
#       5
#    12  12  12   6  12
#     4  10  20  34  53  76 103 135 169 204 242 289
#     4  10  20  34  53  76 101 129 162 203 250 297
#     4  10  20  33  49  70  97 129 164 201 242 289
#     4  10  20  34  52  74 100 130 166 208 252 294
#     4   9  17  30  50  75 100 126 158 199 246 293
#
# _framework density 16.337989
#
# number of rings (size 3 to 8) (size 9 to 14) (size 15 to 20)
#    0.000    2.222    0.000    3.333    0.000    1.333 
#    0.000    3.333    0.000   16.444    0.000    0.000 
#    0.000    0.000    0.000    0.000    0.000    0.000 
#
# Total GULP energy -301343.842414 kJ/mol
# GULP energy per Si atom -5580.441526 kJ/mol
# Density = 1.630080 g / cm^3
# Si number density = 16.337989 Si / 1000 Ang^3
#
#
#
# Elastic Constant Matrix: (Units=GPa)
#
#
# Indices 1 2 3 4 5 6 
#
# 1 128.1473 89.4357 83.2670 0.0000 0.0001 0.0000
# 2 89.4357 128.1473 83.2670 0.0000 -0.0001 0.0000
# 3 83.2670 83.2670 115.0190 0.0000 0.0000 0.0000
# 4 0.0000 0.0000 0.0000 23.2957 0.0000 -0.0001
# 5 0.0001 -0.0001 0.0000 0.0000 23.2957 0.0000
# 6 0.0000 0.0000 0.0000 -0.0001 0.0000 19.3558
#
#
#
# Elastic Compliance Matrix: (Units=1/GPa)
#
#
# Indices 1 2 3 4 5 6 
#
# 1 0.018069 -0.007763 -0.007462 0.000000 0.000000 0.000000
# 2 -0.007763 0.018069 -0.007462 0.000000 0.000000 0.000000
# 3 -0.007462 -0.007462 0.019498 0.000000 0.000000 0.000000
# 4 0.000000 0.000000 0.000000 0.042926 0.000000 0.000000
# 5 0.000000 0.000000 0.000000 0.000000 0.042926 0.000000
# 6 0.000000 0.000000 0.000000 0.000000 0.000000 0.051664
#
#
# Mechanical properties :
#
#
# Convention : Reuss Voigt Hill
#
# Bulk Modulus (GPa) = 97.41682 98.13919 97.77800
# Shear Modulus (GPa) = 20.66570 20.87904 20.77237
#
# Velocity S-wave (km/s) = 3.56038 3.57871 3.56956
# Velocity P-wave (km/s) = 8.75541 8.79061 8.77302
#
# Compressibility (1/GPa) = 0.01026517
#
# Stress axis : x y z
#
# Youngs Moduli (GPa) = 55.34190 55.34190 51.28800
#
# Poissons Ratio (x) = 0.42960 0.38269
# Poissons Ratio (y) = 0.42960 0.38269
# Poissons Ratio (z) = 0.41294 0.41294
#
# Static dielectric constant tensor:
#      x y z
#    x 1.516210 0.000000 0.000000 
#    y 0.000000 1.516210 0.000000 
#    z 0.000000 0.000000 1.539990 
# 
# From -- ./inp_files/3457.got.cif
#   From: 2010.05.17/outbox.cif.g08.bks.cpg/sg187_2_cif.got.tgz:3457.got - 2010.05.20 12:09:04.
