data_PCOD9585828
_publ_section_title
;
Structure prediction by ZEFSAII (Michael W. Deem and Ramdas Pophale) SiO2 
 PCOD9585828
Probable space group: P -6 M 2
;
_chemical_formula_sum "Si O2"
_cell_formula_units_Z 72
_cell_length_a 24.000000
_cell_length_b 24.000000
_cell_length_c 9.000000
_cell_angle_alpha 90.000000
_cell_angle_beta 90.000000
_cell_angle_gamma 120.000000
_cell_volume 4489.475693
_symmetry_space_group_name_H-M "P -6 M 2"
_symmetry_group_IT_number 187
_symmetry_cell_setting 'hexagonal'
loop_
_space_group_symop_operation_xyz
x,y,z
-x+y,-x,-z
-y,x-y,z
x,y,-z
-x+y,-x,z
-y,x-y,-z
-y,-x,-z
-x+y,y,-z
x,x-y,-z
-x+y,y,z
x,x-y,z
-y,-x,z
loop_
_atom_site_type_symbol
_atom_site_label
_atom_site_fract_x
_atom_site_fract_y
_atom_site_fract_z
Si Si1 0.066857 0.469695 0.320820
Si Si2 0.997921 0.745760 0.679486
Si Si3 0.390325 0.129177 0.320524
Si Si4 0.130646 0.999974 0.179374
Si Si5 0.127563 0.743171 0.319531
Si Si6 0.601905 0.527117 0.821498
O O1 0.058173 0.461853 0.500000
O O2 0.088438 0.544219 0.286920
O O3 0.113787 0.442083 0.276861
O O4 0.997205 0.426714 0.245119
O O5 0.998358 0.750460 0.500000
O O6 0.933523 0.678705 0.719936
O O7 0.997082 0.806764 0.749064
O O8 0.063678 0.746364 0.723875
O O9 0.396099 0.128474 0.500000
O O10 0.392071 0.196036 0.280608
O O11 0.445749 0.118638 0.247053
O O12 0.126422 0.063211 0.220351
O O13 0.135855 0.999702 0.000000
O O14 0.065486 0.934515 0.222336
O O15 0.129671 0.745180 0.500000
O O16 0.194364 0.805637 0.267952
O O17 0.547036 0.452964 0.786438
O O18 0.606289 0.533363 0.000000
#
# Coordination Sequence:
#
# PCOD9585828 Si02
#       6
#    12  12  12  12  12  12
#     4   9  16  29  50  72  96 130 170 207 244 291
#     4  10  19  33  51  72  97 127 162 205 256 301
#     4  10  20  34  53  77 104 133 166 204 244 291
#     4  10  21  36  51  66  88 123 166 209 253 302
#     4   9  16  27  46  72 100 129 163 203 247 294
#     4  10  20  33  51  76 104 131 161 202 248 292
#
# _framework density 16.037507000000002
#
# number of rings (size 3 to 8) (size 9 to 14) (size 15 to 20)
#    0.000    2.333    1.667    1.667    0.000    4.667 
#    0.000    0.000    0.000    2.167    0.000    2.333 
#    0.000    0.000    0.000    0.000    0.000    0.167 
#
# Total GULP energy -401443.742803 kJ/mol
# GULP energy per Si atom -5575.607539 kJ/mol
# Density = 1.600101 g / cm^3
# Si number density = 16.037507 Si / 1000 Ang^3
#
#
#
# Elastic Constant Matrix: (Units=GPa)
#
#
# Indices 1 2 3 4 5 6 
#
# 1 157.9141 92.4697 30.5324 0.0000 -0.0001 0.0000
# 2 92.4697 157.9141 30.5324 0.0000 0.0001 0.0000
# 3 30.5324 30.5324 19.5217 0.0000 0.0000 0.0000
# 4 0.0000 0.0000 0.0000 23.3836 0.0000 0.0001
# 5 -0.0001 0.0001 0.0000 0.0000 23.3836 0.0000
# 6 0.0000 0.0000 0.0000 0.0001 0.0000 32.7222
#
#
#
# Elastic Compliance Matrix: (Units=1/GPa)
#
#
# Indices 1 2 3 4 5 6 
#
# 1 0.010868 -0.004412 -0.010098 0.000000 0.000000 0.000000
# 2 -0.004412 0.010868 -0.010098 0.000000 0.000000 0.000000
# 3 -0.010098 -0.010098 0.082814 0.000000 0.000000 0.000000
# 4 0.000000 0.000000 0.000000 0.042765 0.000000 0.000000
# 5 0.000000 0.000000 0.000000 0.000000 0.042765 0.000000
# 6 0.000000 0.000000 0.000000 0.000000 0.000000 0.030560
#
#
# Mechanical properties :
#
#
# Convention : Reuss Voigt Hill
#
# Bulk Modulus (GPa) = 18.07237 71.37991 44.72614
# Shear Modulus (GPa) = 17.34289 28.01890 22.68089
#
# Velocity S-wave (km/s) = 3.29203 4.18435 3.76472
# Velocity P-wave (km/s) = 5.07377 8.24317 6.84445
#
# Compressibility (1/GPa) = 0.05533307
#
# Stress axis : x y z
#
# Youngs Moduli (GPa) = 92.00951 92.00951 12.07531
#
# Poissons Ratio (x) = 0.40592 0.12194
# Poissons Ratio (y) = 0.40592 0.12194
# Poissons Ratio (z) = 0.92916 0.92916
#
# Static dielectric constant tensor:
#      x y z
#    x 1.535720 0.000000 0.000000 
#    y 0.000000 1.535720 0.000000 
#    z 0.000000 0.000000 1.532900 
# 
# From -- ./inp_files/937.got.cif
#   From: 2010.05.17/outbox.ucp.g08.bks.cvg/sg187_1_cif.got.tgz:937.got - 2010.06.11 15:21:44.
