data_PCOD9585995
_publ_section_title
;
Structure prediction by ZEFSAII (Michael W. Deem and Ramdas Pophale) SiO2 
 PCOD9585995
Probable space group: P -6 C 2
;
_chemical_formula_sum "Si O2"
_cell_formula_units_Z 42
_cell_length_a 8.337492
_cell_length_b 8.337492
_cell_length_c 32.638515
_cell_angle_alpha 90.000000
_cell_angle_beta 90.000000
_cell_angle_gamma 120.000000
_cell_volume 1964.861228
_symmetry_space_group_name_H-M "P -6 C 2"
_symmetry_group_IT_number 188
_symmetry_cell_setting 'hexagonal'
loop_
_space_group_symop_operation_xyz
x,y,z
-x+y,-x,1/2-z
-y,x-y,z
x,y,1/2-z
-x+y,-x,z
-y,x-y,1/2-z
-y,-x,-z
-x+y,y,-z
x,x-y,-z
-x+y,y,1/2+z
x,x-y,1/2+z
-y,-x,1/2+z
loop_
_atom_site_type_symbol
_atom_site_label
_atom_site_fract_x
_atom_site_fract_y
_atom_site_fract_z
Si Si1 0.429220 0.266859 0.250000
Si Si2 0.976506 0.302230 0.662158
Si Si3 0.912092 0.478071 0.955082
Si Si4 0.634923 0.981807 0.628188
O O1 0.613557 0.473514 0.250000
O O2 0.313658 0.241817 0.290937
O O3 0.929351 0.463478 0.653762
O O4 0.188645 0.389264 0.649254
O O5 0.851364 0.131013 0.632598
O O6 0.746377 0.529205 0.952249
O O7 0.039283 0.589717 0.917224
O O8 0.998546 0.499273 0.000000
#
# Coordination Sequence:
#
# PCOD9585995 Si02
#       4
#     6  12  12  12
#     4  10  20  42  68  88 122 178 230 278 342 396
#     4  12  24  39  68  93 133 177 223 283 337 412
#     4   8  15  33  68  93 123 176 220 264 328 400
#     4  12  22  42  62 103 132 178 225 277 349 405
#
# _framework density 21.375554999999999
#
# number of rings (size 3 to 8) (size 9 to 14) (size 15 to 20)
#    0.857    0.571    5.714    1.714    0.000    2.286 
#    0.000    1.429    0.000    0.000    0.000    0.000 
#    0.000    0.000    0.000    0.000    0.000    0.000 
#
# Total GULP energy -233873.659035 kJ/mol
# GULP energy per Si atom -5568.420453 kJ/mol
# Density = 2.132690 g / cm^3
# Si number density = 21.375555 Si / 1000 Ang^3
#
#
#
# Elastic Constant Matrix: (Units=GPa)
#
#
# Indices 1 2 3 4 5 6 
#
# 1 54.5348 5.0284 20.9492 0.0000 0.0000 0.0000
# 2 5.0284 54.5348 20.9492 0.0000 0.0000 0.0000
# 3 20.9492 20.9492 203.5351 0.0000 0.0000 0.0000
# 4 0.0000 0.0000 0.0000 24.2560 0.0000 0.0000
# 5 0.0000 0.0000 0.0000 0.0000 24.2560 0.0000
# 6 0.0000 0.0000 0.0000 0.0000 0.0000 24.7532
#
#
#
# Elastic Compliance Matrix: (Units=1/GPa)
#
#
# Indices 1 2 3 4 5 6 
#
# 1 0.019149 -0.001050 -0.001863 0.000000 0.000000 0.000000
# 2 -0.001050 0.019149 -0.001863 0.000000 0.000000 0.000000
# 3 -0.001863 -0.001863 0.005297 0.000000 0.000000 0.000000
# 4 0.000000 0.000000 0.000000 0.041227 0.000000 0.000000
# 5 0.000000 0.000000 0.000000 0.000000 0.041227 0.000000
# 6 0.000000 0.000000 0.000000 0.000000 0.000000 0.040399
#
#
# Mechanical properties :
#
#
# Convention : Reuss Voigt Hill
#
# Bulk Modulus (GPa) = 29.37406 45.16202 37.26804
# Shear Modulus (GPa) = 26.68839 32.36492 29.52666
#
# Velocity S-wave (km/s) = 3.53731 3.89538 3.72065
# Velocity P-wave (km/s) = 5.51862 6.43473 5.99420
#
# Compressibility (1/GPa) = 0.03404364
#
# Stress axis : x y z
#
# Youngs Moduli (GPa) = 52.22110 52.22110 188.79888
#
# Poissons Ratio (x) = 0.05483 0.35171
# Poissons Ratio (y) = 0.05483 0.35171
# Poissons Ratio (z) = 0.09728 0.09728
#
# Static dielectric constant tensor:
#      x y z
#    x 1.801080 0.000000 0.000000 
#    y 0.000000 1.801080 0.000000 
#    z 0.000000 0.000000 1.823840 
# 
# From -- ./inp_files/4399.got.cif
#   From: 2010.05.17/outbox.cif.g08.bks.cpg/sg188_3_cif.got.tgz:4399.got - 2010.05.20 12:11:46.
