data_PCOD9585388
_publ_section_title
;
Structure prediction by ZEFSAII (Michael W. Deem and Ramdas Pophale) SiO2 
 PCOD9585388
Probable space group: P 63 M C
;
_chemical_formula_sum "Si O2"
_cell_formula_units_Z 96
_cell_length_a 17.474428
_cell_length_b 17.474428
_cell_length_c 20.210834
_cell_angle_alpha 90.000000
_cell_angle_beta 90.000000
_cell_angle_gamma 120.000000
_cell_volume 5344.668876
_symmetry_space_group_name_H-M "P 63 M C"
_symmetry_group_IT_number 186
_symmetry_cell_setting 'hexagonal'
loop_
_space_group_symop_operation_xyz
x,y,z
x-y,x,1/2+z
-y,x-y,z
-x,-y,1/2+z
-x+y,-x,z
y,-x+y,1/2+z
-x+y,y,z
x,x-y,z
-y,-x,z
y,x,1/2+z
x-y,-y,1/2+z
-x,-x+y,1/2+z
loop_
_atom_site_type_symbol
_atom_site_label
_atom_site_fract_x
_atom_site_fract_y
_atom_site_fract_z
Si Si1 0.665998 0.508830 0.559130
Si Si2 0.233719 0.944348 0.400134
Si Si3 0.749095 0.069443 0.151060
Si Si4 0.582235 0.594477 0.328192
Si Si5 0.702911 0.940952 0.027270
Si Si6 0.156792 0.490279 0.213714
Si Si7 0.001526 0.179801 0.265135
Si Si8 0.150780 0.484590 0.737538
O O1 0.739182 0.478364 0.555845
O O2 0.570552 0.429449 0.540840
O O3 0.702341 0.597259 0.516940
O O4 0.664803 0.533150 0.636745
O O5 0.156631 0.843370 0.410062
O O6 0.328605 0.956190 0.381635
O O7 0.244904 0.003115 0.463826
O O8 0.206543 0.980700 0.336353
O O9 0.841345 0.158656 0.137640
O O10 0.766131 0.021812 0.212919
O O11 0.681564 0.100956 0.175786
O O12 0.724393 0.006316 0.088666
O O13 0.491004 0.508996 0.350037
O O14 0.558471 0.635375 0.264516
O O15 0.646143 0.559601 0.300703
O O16 0.721167 0.860584 0.041548
O O17 0.236082 0.472163 0.229507
O O18 0.188719 0.594360 0.218651
O O19 0.918325 0.081676 0.268231
O O20 0.089389 0.178777 0.244478
O O21 0.244298 0.488596 0.745916
O O22 0.161162 0.580581 0.728090
#
# Coordination Sequence:
#
# PCOD9585388 Si02
#       8
#    12  12  12  12  12  12  12  12
#     4   9  18  31  51  78 110 145 181 226 279 338
#     4  11  23  38  57  81 112 150 189 234 285 341
#     4  10  20  36  58  83 111 145 183 232 283 329
#     4  10  20  34  54  81 111 146 189 237 282 333
#     4  11  23  37  55  80 111 148 189 230 280 338
#     4   9  16  28  49  80 115 146 179 222 281 343
#     4  10  20  35  57  82 109 141 180 227 281 340
#     4  10  20  35  57  85 117 151 188 232 281 332
#
# _framework density 17.961822000000002
#
# number of rings (size 3 to 8) (size 9 to 14) (size 15 to 20)
#    0.000    2.000    1.250    2.750    0.000    3.500 
#    0.000    0.000    0.000    3.750    0.000    4.375 
#    0.000    0.000    0.000    0.000    0.000    0.000 
#
# Total GULP energy -535905.924217 kJ/mol
# GULP energy per Si atom -5582.353377 kJ/mol
# Density = 1.792094 g / cm^3
# Si number density = 17.961822 Si / 1000 Ang^3
#
#
#
# Elastic Constant Matrix: (Units=GPa)
#
#
# Indices 1 2 3 4 5 6 
#
# 1 94.6113 45.9378 27.0438 0.0000 0.0000 0.0000
# 2 45.9378 94.6113 27.0438 0.0000 0.0000 0.0000
# 3 27.0438 27.0438 31.1127 0.0000 0.0000 0.0000
# 4 0.0000 0.0000 0.0000 22.4927 0.0000 0.0000
# 5 0.0000 0.0000 0.0000 0.0000 22.4927 0.0000
# 6 0.0000 0.0000 0.0000 0.0000 0.0000 24.3367
#
#
#
# Elastic Compliance Matrix: (Units=1/GPa)
#
#
# Indices 1 2 3 4 5 6 
#
# 1 0.015618 -0.004927 -0.009293 0.000000 0.000000 0.000000
# 2 -0.004927 0.015618 -0.009293 0.000000 0.000000 0.000000
# 3 -0.009293 -0.009293 0.048297 0.000000 0.000000 0.000000
# 4 0.000000 0.000000 0.000000 0.044459 0.000000 0.000000
# 5 0.000000 0.000000 0.000000 0.000000 0.044459 0.000000
# 6 0.000000 0.000000 0.000000 0.000000 0.000000 0.041090
#
#
# Mechanical properties :
#
#
# Convention : Reuss Voigt Hill
#
# Bulk Modulus (GPa) = 30.76264 46.70958 38.73611
# Shear Modulus (GPa) = 18.69841 21.88508 20.29175
#
# Velocity S-wave (km/s) = 3.22997 3.49438 3.36477
# Velocity P-wave (km/s) = 5.57442 6.50709 6.05873
#
# Compressibility (1/GPa) = 0.03250696
#
# Stress axis : x y z
#
# Youngs Moduli (GPa) = 64.02811 64.02811 20.70535
#
# Poissons Ratio (x) = 0.31546 0.19242
# Poissons Ratio (y) = 0.31546 0.19242
# Poissons Ratio (z) = 0.59502 0.59502
#
# Static dielectric constant tensor:
#      x y z
#    x 1.617720 0.000000 0.000000 
#    y 0.000000 1.617720 0.000000 
#    z 0.000000 0.000000 1.596390 
# 
# From -- ./inp_files/3543.got.cif
#   From: 2010.05.17/outbox.cif.g08.bks.cpg/sg186_2_cif.got.tgz:3543.got - 2010.05.20 12:07:08.
