data_PCOD9585114
_publ_section_title
;
Structure prediction by ZEFSAII (Michael W. Deem and Ramdas Pophale) SiO2 
 PCOD9585114
Probable space group: P 6 C C
;
_chemical_formula_sum "Si O2"
_cell_formula_units_Z 50
_cell_length_a 9.559232
_cell_length_b 9.559232
_cell_length_c 29.156570
_cell_angle_alpha 90.000000
_cell_angle_beta 90.000000
_cell_angle_gamma 120.000000
_cell_volume 2307.347823
_symmetry_space_group_name_H-M "P 6 C C"
_symmetry_group_IT_number 184
_symmetry_cell_setting 'hexagonal'
loop_
_space_group_symop_operation_xyz
x,y,z
x-y,x,z
-y,x-y,z
-x,-y,z
-x+y,-x,z
y,-x+y,z
-x+y,y,1/2+z
x,x-y,1/2+z
-y,-x,1/2+z
y,x,1/2+z
x-y,-y,1/2+z
-x,-x+y,1/2+z
loop_
_atom_site_type_symbol
_atom_site_label
_atom_site_fract_x
_atom_site_fract_y
_atom_site_fract_z
Si Si1 0.623531 0.736917 0.708200
Si Si2 0.272042 0.903059 0.610523
Si Si3 0.258660 0.378065 0.308215
Si Si4 0.333335 0.666668 0.368840
Si Si5 0.000000 0.500000 0.026665
Si Si6 0.333334 0.666666 0.477931
O O1 0.768546 0.697555 0.708050
O O2 0.536940 0.669584 0.659265
O O3 0.540982 0.681382 0.757584
O O4 0.356766 0.900945 0.563869
O O5 0.083876 0.779251 0.610154
O O6 0.302229 0.236752 0.311270
O O7 0.335136 0.512601 0.347071
O O8 0.333334 0.666667 0.423056
O O9 0.152166 0.531107 0.995056
#
# Coordination Sequence:
#
# PCOD9585114 Si02
#       6
#    12  12  12   4   6   4
#     4   8  15  30  55  89 126 168 208 250 314 387
#     4  10  19  36  61  94 131 172 213 265 326 399
#     4  10  21  41  66  97 131 173 219 270 322 400
#     4  12  27  45  64  95 133 171 219 288 358 389
#     4  12  24  46  66  96 126 172 226 280 346 400
#     4  12  30  48  73  92 127 180 234 294 346 401
#
# _framework density 21.669903000000001
#
# number of rings (size 3 to 8) (size 9 to 14) (size 15 to 20)
#    0.000    1.920    2.400    1.440    3.360    3.840 
#   12.960    0.000    0.000    0.000    0.000    0.000 
#    0.000    0.000    0.000    0.000    0.000    0.000 
#
# Total GULP energy -278820.546860 kJ/mol
# GULP energy per Si atom -5576.410937 kJ/mol
# Density = 2.162058 g / cm^3
# Si number density = 21.669903 Si / 1000 Ang^3
#
#
#
# Elastic Constant Matrix: (Units=GPa)
#
#
# Indices 1 2 3 4 5 6 
#
# 1 97.0890 20.4473 44.3662 0.0000 -0.0001 0.0001
# 2 20.4473 97.0899 44.3666 -0.0001 -0.0001 0.0002
# 3 44.3662 44.3666 220.7929 -0.0003 0.0000 0.0001
# 4 0.0000 -0.0001 -0.0003 33.3617 0.0001 0.0000
# 5 -0.0001 -0.0001 0.0000 0.0001 33.3612 0.0000
# 6 0.0001 0.0002 0.0001 0.0000 0.0000 38.3213
#
#
#
# Elastic Compliance Matrix: (Units=1/GPa)
#
#
# Indices 1 2 3 4 5 6 
#
# 1 0.011539 -0.001509 -0.002015 0.000000 0.000000 0.000000
# 2 -0.001509 0.011538 -0.002015 0.000000 0.000000 0.000000
# 3 -0.002015 -0.002015 0.005339 0.000000 0.000000 0.000000
# 4 0.000000 0.000000 0.000000 0.029974 0.000000 0.000000
# 5 0.000000 0.000000 0.000000 0.000000 0.029975 0.000000
# 6 0.000000 0.000000 0.000000 0.000000 0.000000 0.026095
#
#
# Mechanical properties :
#
#
# Convention : Reuss Voigt Hill
#
# Bulk Modulus (GPa) = 57.68144 70.37021 64.02582
# Shear Modulus (GPa) = 38.07523 41.39498 39.73511
#
# Velocity S-wave (km/s) = 4.19627 4.37538 4.28676
# Velocity P-wave (km/s) = 7.08197 7.62034 7.35608
#
# Compressibility (1/GPa) = 0.01733660
#
# Stress axis : x y z
#
# Youngs Moduli (GPa) = 86.66582 86.66653 187.29909
#
# Poissons Ratio (x) = 0.13079 0.37747
# Poissons Ratio (y) = 0.13079 0.37747
# Poissons Ratio (z) = 0.17466 0.17466
#
# Static dielectric constant tensor:
#      x y z
#    x 1.798340 0.000000 0.000000 
#    y 0.000000 1.798340 0.000000 
#    z 0.000000 0.000000 1.827500 
# 
# From -- ./inp_files/1195.got.cif
#   From: 2010.05.17/outbox.cif.g08.bks.cpg/sg184_cif.got.tgz:1195.got - 2010.05.20 12:04:40.
