data_PCOD9585895
_publ_section_title
;
Structure prediction by ZEFSAII (Michael W. Deem and Ramdas Pophale) SiO2 
 PCOD9585895
Probable space group: P -6 C 2
;
_chemical_formula_sum "Si O2"
_cell_formula_units_Z 76
_cell_length_a 17.779132
_cell_length_b 17.779132
_cell_length_c 14.226175
_cell_angle_alpha 90.000000
_cell_angle_beta 90.000000
_cell_angle_gamma 120.000000
_cell_volume 3894.393997
_symmetry_space_group_name_H-M "P -6 C 2"
_symmetry_group_IT_number 188
_symmetry_cell_setting 'hexagonal'
loop_
_space_group_symop_operation_xyz
x,y,z
-x+y,-x,1/2-z
-y,x-y,z
x,y,1/2-z
-x+y,-x,z
-y,x-y,1/2-z
-y,-x,-z
-x+y,y,-z
x,x-y,-z
-x+y,y,1/2+z
x,x-y,1/2+z
-y,-x,1/2+z
loop_
_atom_site_type_symbol
_atom_site_label
_atom_site_fract_x
_atom_site_fract_y
_atom_site_fract_z
Si Si1 0.850400 0.795526 0.250000
Si Si2 0.600821 0.650498 0.364797
Si Si3 0.142181 0.590709 0.142681
Si Si4 0.077838 0.123461 0.250000
Si Si5 0.780962 0.096353 0.936175
Si Si6 0.333333 0.666667 0.888621
Si Si7 0.777667 0.956510 0.427760
Si Si8 0.226760 0.404730 0.138648
O O1 0.793390 0.842259 0.250000
O O2 0.832444 0.735785 0.159270
O O3 0.934184 0.902587 0.250000
O O4 0.605280 0.649251 0.250000
O O5 0.503746 0.577649 0.395294
O O6 0.679845 0.641140 0.406332
O O7 0.608044 0.742284 0.394569
O O8 0.114469 0.591328 0.250000
O O9 0.236820 0.598620 0.144697
O O10 0.164130 0.682330 0.097691
O O11 0.130786 0.153529 0.153348
O O12 0.816317 0.183684 0.000000
O O13 0.795224 0.037820 0.011365
O O14 0.333334 0.666667 0.000000
O O15 0.783355 0.891678 0.500000
O O16 0.683330 0.910372 0.381742
O O17 0.228325 0.420970 0.250000
#
# Coordination Sequence:
#
# PCOD9585895 Si02
#       8
#     6  12  12   6  12   4  12  12
#     4  12  23  38  56  79 102 132 194 248 306 371
#     4  10  19  34  57  80 109 152 197 255 310 368
#     4  10  20  35  54  76 112 154 200 250 310 366
#     4  12  23  38  54  79 106 138 186 254 306 357
#     4  12  24  38  57  79 105 147 199 252 302 371
#     4  12  22  29  43  75 118 149 199 267 307 344
#     4  12  22  35  57  76 107 146 189 241 300 353
#     4  10  19  32  54  80 105 148 198 240 295 361
#
# _framework density 19.515229999999999
#
# number of rings (size 3 to 8) (size 9 to 14) (size 15 to 20)
#    0.000    0.947    7.895    0.632    0.000    1.895 
#    0.000    0.000    0.000    0.000    0.000    0.000 
#    0.000    0.000    0.000    3.789    0.000   23.368 
#
# Total GULP energy -423470.056664 kJ/mol
# GULP energy per Si atom -5571.974430 kJ/mol
# Density = 1.947081 g / cm^3
# Si number density = 19.515230 Si / 1000 Ang^3
#
#
#
# Elastic Constant Matrix: (Units=GPa)
#
#
# Indices 1 2 3 4 5 6 
#
# 1 88.5277 40.5850 25.4895 -0.0001 0.0000 0.0000
# 2 40.5850 88.5278 25.4896 0.0002 0.0000 0.0000
# 3 25.4895 25.4896 98.5238 0.0000 0.0000 0.0000
# 4 -0.0001 0.0002 0.0000 26.0796 0.0000 0.0000
# 5 0.0000 0.0000 0.0000 0.0000 26.0795 -0.0002
# 6 0.0000 0.0000 0.0000 0.0000 -0.0002 23.9714
#
#
#
# Elastic Compliance Matrix: (Units=1/GPa)
#
#
# Indices 1 2 3 4 5 6 
#
# 1 0.014742 -0.006116 -0.002232 0.000000 0.000000 0.000000
# 2 -0.006116 0.014742 -0.002232 0.000000 0.000000 0.000000
# 3 -0.002232 -0.002232 0.011305 0.000000 0.000000 0.000000
# 4 0.000000 0.000000 0.000000 0.038344 0.000000 0.000000
# 5 0.000000 0.000000 0.000000 0.000000 0.038344 0.000000
# 6 0.000000 0.000000 0.000000 0.000000 0.000000 0.041716
#
#
# Mechanical properties :
#
#
# Convention : Reuss Voigt Hill
#
# Bulk Modulus (GPa) = 50.94174 50.96751 50.95462
# Shear Modulus (GPa) = 26.75280 27.49378 27.12329
#
# Velocity S-wave (km/s) = 3.70654 3.75752 3.73212
# Velocity P-wave (km/s) = 6.66920 6.70811 6.68868
#
# Compressibility (1/GPa) = 0.01963027
#
# Stress axis : x y z
#
# Youngs Moduli (GPa) = 67.83207 67.83212 88.45945
#
# Poissons Ratio (x) = 0.41486 0.19742
# Poissons Ratio (y) = 0.41486 0.19742
# Poissons Ratio (z) = 0.15139 0.15139
#
# Static dielectric constant tensor:
#      x y z
#    x 1.782870 0.000000 0.000000 
#    y 0.000000 1.782870 0.000000 
#    z 0.000000 0.000000 1.709260 
# 
# From -- ./inp_files/2582.got.cif
#   From: 2010.05.17/outbox.cif.g08.bks.cpg/sg188_2_cif.got.tgz:2582.got - 2010.05.20 12:11:46.
