data_PCOD9585774
_publ_section_title
;
Structure prediction by ZEFSAII (Michael W. Deem and Ramdas Pophale) SiO2 
 PCOD9585774
Probable space group: P -6 M 2
;
_chemical_formula_sum "Si O2"
_cell_formula_units_Z 72
_cell_length_a 23.536971
_cell_length_b 23.536971
_cell_length_c 7.359365
_cell_angle_alpha 90.000000
_cell_angle_beta 90.000000
_cell_angle_gamma 120.000000
_cell_volume 3530.791881
_symmetry_space_group_name_H-M "P -6 M 2"
_symmetry_group_IT_number 187
_symmetry_cell_setting 'hexagonal'
loop_
_space_group_symop_operation_xyz
x,y,z
-x+y,-x,-z
-y,x-y,z
x,y,-z
-x+y,-x,z
-y,x-y,-z
-y,-x,-z
-x+y,y,-z
x,x-y,-z
-x+y,y,z
x,x-y,z
-y,-x,z
loop_
_atom_site_type_symbol
_atom_site_label
_atom_site_fract_x
_atom_site_fract_y
_atom_site_fract_z
Si Si1 0.536291 0.202894 0.278120
Si Si2 0.205078 0.666700 0.216141
Si Si3 0.797848 0.073787 0.721155
Si Si4 0.725269 0.926744 0.278318
Si Si5 0.665858 0.592736 0.721282
Si Si6 0.331712 0.404666 0.282569
O O1 0.535624 0.202700 0.500000
O O2 0.605669 0.211337 0.221974
O O3 0.528274 0.264137 0.220861
O O4 0.475956 0.133304 0.217921
O O5 0.208414 0.604207 0.288834
O O6 0.264156 0.735845 0.287013
O O7 0.133989 0.658911 0.242021
O O8 0.214077 0.667393 0.000000
O O9 0.798977 0.074443 0.500000
O O10 0.866896 0.133105 0.783915
O O11 0.737128 0.084027 0.773075
O O12 0.778273 0.000430 0.777746
O O13 0.725093 0.926002 0.500000
O O14 0.736481 0.868241 0.217042
O O15 0.654098 0.914968 0.220253
O O16 0.664336 0.590796 0.500000
O O17 0.612690 0.613214 0.781143
O O18 0.330940 0.399381 0.500000
#
# Coordination Sequence:
#
# PCOD9585774 Si02
#       6
#    12  12  12  12  12  12
#     4   9  15  21  29  43  69 107 145 175 205 247
#     4  10  21  36  51  65  84 112 142 169 200 242
#     4   8  12  18  29  45  67  97 131 164 199 242
#     4   8  13  21  34  53  77 103 131 167 210 248
#     4   8  14  23  35  53  76 101 130 168 212 249
#     4   9  17  29  46  67  87 108 137 173 212 251
#
# _framework density 20.392026000000001
#
# number of rings (size 3 to 8) (size 9 to 14) (size 15 to 20)
#    0.000    3.333    0.000    3.333    0.000    5.333 
#    0.000    1.667    0.000    1.333    0.000    2.333 
#    0.000   16.667    0.000    0.333    0.000    2.833 
#
# Total GULP energy -401706.114724 kJ/mol
# GULP energy per Si atom -5579.251593 kJ/mol
# Density = 2.034561 g / cm^3
# Si number density = 20.392026 Si / 1000 Ang^3
#
#
#
# Elastic Constant Matrix: (Units=GPa)
#
#
# Indices 1 2 3 4 5 6 
#
# 1 168.9269 126.3218 3.9422 0.0000 -0.0007 0.0000
# 2 126.3218 168.9269 3.9422 0.0000 0.0007 0.0000
# 3 3.9422 3.9422 72.9755 0.0000 0.0000 0.0000
# 4 0.0000 0.0000 0.0000 5.2355 0.0000 0.0007
# 5 -0.0007 0.0007 0.0000 0.0000 5.2355 0.0000
# 6 0.0000 0.0000 0.0000 0.0007 0.0000 21.3026
#
#
#
# Elastic Compliance Matrix: (Units=1/GPa)
#
#
# Indices 1 2 3 4 5 6 
#
# 1 0.013432 -0.010040 -0.000183 0.000000 0.000003 0.000000
# 2 -0.010040 0.013432 -0.000183 0.000000 -0.000003 0.000000
# 3 -0.000183 -0.000183 0.013723 0.000000 0.000000 0.000000
# 4 0.000000 0.000000 0.000000 0.191004 0.000000 -0.000007
# 5 0.000003 -0.000003 0.000000 0.000000 0.191004 0.000000
# 6 0.000000 0.000000 0.000000 -0.000007 0.000000 0.046943
#
#
# Mechanical properties :
#
#
# Convention : Reuss Voigt Hill
#
# Bulk Modulus (GPa) = 50.57191 75.47133 63.02162
# Shear Modulus (GPa) = 10.06158 24.79626 17.42892
#
# Velocity S-wave (km/s) = 2.22369 3.49087 2.92668
# Velocity P-wave (km/s) = 5.60774 7.30334 6.51097
#
# Compressibility (1/GPa) = 0.01977382
#
# Stress axis : x y z
#
# Youngs Moduli (GPa) = 74.45125 74.45125 72.87025
#
# Poissons Ratio (x) = 0.74747 0.01335
# Poissons Ratio (y) = 0.74747 0.01335
# Poissons Ratio (z) = 0.01364 0.01364
#
# Static dielectric constant tensor:
#      x y z
#    x 1.698520 0.000000 0.000000 
#    y 0.000000 1.698520 0.000000 
#    z 0.000000 0.000000 1.815850 
# 
# From -- ./inp_files/1006.got.cif
#   From: 2010.05.17/outbox.cif.g08.bks.cpg/sg187_1_cif.got.tgz:1006.got - 2010.05.20 12:09:04.
