data_PCOD9585115
_publ_section_title
;
Structure prediction by ZEFSAII (Michael W. Deem and Ramdas Pophale) SiO2 
 PCOD9585115
Probable space group: P 6 C C
;
_chemical_formula_sum "Si O2"
_cell_formula_units_Z 48
_cell_length_a 23.490421
_cell_length_b 23.490421
_cell_length_c 5.274990
_cell_angle_alpha 90.000000
_cell_angle_beta 90.000000
_cell_angle_gamma 120.000000
_cell_volume 2520.773781
_symmetry_space_group_name_H-M "P 6 C C"
_symmetry_group_IT_number 184
_symmetry_cell_setting 'hexagonal'
loop_
_space_group_symop_operation_xyz
x,y,z
x-y,x,z
-y,x-y,z
-x,-y,z
-x+y,-x,z
y,-x+y,z
-x+y,y,1/2+z
x,x-y,1/2+z
-y,-x,1/2+z
y,x,1/2+z
x-y,-y,1/2+z
-x,-x+y,1/2+z
loop_
_atom_site_type_symbol
_atom_site_label
_atom_site_fract_x
_atom_site_fract_y
_atom_site_fract_z
Si Si1 0.611421 0.782579 0.137160
Si Si2 0.461980 0.709331 0.731328
Si Si3 0.585861 0.482792 0.292446
Si Si4 0.631188 0.962358 0.398652
O O1 0.638835 0.799842 0.421924
O O2 0.534468 0.760236 0.181478
O O3 0.621744 0.727626 0.003679
O O4 0.429455 0.701463 0.458197
O O5 0.470751 0.647995 0.803202
O O6 0.533271 0.437948 0.503107
O O7 0.609093 0.556757 0.372966
O O8 0.672986 0.014810 0.615823
#
# Coordination Sequence:
#
# PCOD9585115 Si02
#       4
#    12  12  12  12
#     4  10  19  36  64  80  98 143 187 210 261 333
#     4  10  19  36  64  76  93 127 191 211 257 329
#     4  12  25  38  57  83 106 146 176 223 282 356
#     4  12  25  38  57  87 117 138 176 230 284 343
#
# _framework density 19.041774
#
# number of rings (size 3 to 8) (size 9 to 14) (size 15 to 20)
#    0.000    1.000    5.000    4.500    7.000    3.000 
#    0.000    0.000    0.000   10.000    0.000    0.000 
#    0.000    0.000    0.000    0.000    0.000    0.000 
#
# Total GULP energy -267843.226241 kJ/mol
# GULP energy per Si atom -5580.067213 kJ/mol
# Density = 1.899843 g / cm^3
# Si number density = 19.041774 Si / 1000 Ang^3
#
#
#
# Elastic Constant Matrix: (Units=GPa)
#
#
# Indices 1 2 3 4 5 6 
#
# 1 50.2654 15.1370 17.3020 0.0000 0.0000 0.0000
# 2 15.1370 50.2654 17.3020 0.0000 0.0000 0.0000
# 3 17.3020 17.3020 159.1369 0.0000 0.0000 0.0000
# 4 0.0000 0.0000 0.0000 25.1020 0.0000 0.0000
# 5 0.0000 0.0000 0.0000 0.0000 25.1020 0.0000
# 6 0.0000 0.0000 0.0000 0.0000 0.0000 17.5642
#
#
#
# Elastic Compliance Matrix: (Units=1/GPa)
#
#
# Indices 1 2 3 4 5 6 
#
# 1 0.022345 -0.006122 -0.001764 0.000000 0.000000 0.000000
# 2 -0.006122 0.022345 -0.001764 0.000000 0.000000 0.000000
# 3 -0.001764 -0.001764 0.006667 0.000000 0.000000 0.000000
# 4 0.000000 0.000000 0.000000 0.039837 0.000000 0.000000
# 5 0.000000 0.000000 0.000000 0.000000 0.039837 0.000000
# 6 0.000000 0.000000 0.000000 0.000000 0.000000 0.056934
#
#
# Mechanical properties :
#
#
# Convention : Reuss Voigt Hill
#
# Bulk Modulus (GPa) = 31.19305 39.90555 35.54930
# Shear Modulus (GPa) = 22.94084 27.54875 25.24480
#
# Velocity S-wave (km/s) = 3.47474 3.80775 3.64505
# Velocity P-wave (km/s) = 5.70222 6.35093 6.03530
#
# Compressibility (1/GPa) = 0.03205843
#
# Stress axis : x y z
#
# Youngs Moduli (GPa) = 44.75252 44.75252 149.98248
#
# Poissons Ratio (x) = 0.27397 0.26455
# Poissons Ratio (y) = 0.27397 0.26455
# Poissons Ratio (z) = 0.07894 0.07894
#
# Static dielectric constant tensor:
#      x y z
#    x 1.718420 0.000000 0.000000 
#    y 0.000000 1.718420 0.000000 
#    z 0.000000 0.000000 1.815570 
# 
# From -- ./inp_files/25.got.cif
#   From: 2010.05.17/outbox.cif.g08.bks.cpg/sg184_cif.got.tgz:25.got - 2010.05.20 12:04:40.
