data_PCOD9585909
_publ_section_title
;
Structure prediction by ZEFSAII (Michael W. Deem and Ramdas Pophale) SiO2 
 PCOD9585909
Probable space group: P -6 C 2
;
_chemical_formula_sum "Si O2"
_cell_formula_units_Z 64
_cell_length_a 14.880223
_cell_length_b 14.880223
_cell_length_c 14.188801
_cell_angle_alpha 90.000000
_cell_angle_beta 90.000000
_cell_angle_gamma 120.000000
_cell_volume 2720.791166
_symmetry_space_group_name_H-M "P -6 C 2"
_symmetry_group_IT_number 188
_symmetry_cell_setting 'hexagonal'
loop_
_space_group_symop_operation_xyz
x,y,z
-x+y,-x,1/2-z
-y,x-y,z
x,y,1/2-z
-x+y,-x,z
-y,x-y,1/2-z
-y,-x,-z
-x+y,y,-z
x,x-y,-z
-x+y,y,1/2+z
x,x-y,1/2+z
-y,-x,1/2+z
loop_
_atom_site_type_symbol
_atom_site_label
_atom_site_fract_x
_atom_site_fract_y
_atom_site_fract_z
Si Si1 0.209692 0.749074 0.396887
Si Si2 0.770388 0.835780 0.635283
Si Si3 0.665267 0.128437 0.858844
Si Si4 0.089677 0.520955 0.111537
Si Si5 0.666667 0.333335 0.366211
Si Si6 0.932420 0.168457 0.365328
O O1 0.253168 0.746833 0.500000
O O2 0.114247 0.769264 0.404221
O O3 0.310243 0.850757 0.358397
O O4 0.162898 0.637271 0.351140
O O5 0.762261 0.830265 0.750000
O O6 0.845741 0.793007 0.607057
O O7 0.810930 0.954383 0.606896
O O8 0.697581 0.153565 0.750000
O O9 0.668547 0.230567 0.897702
O O10 0.744414 0.094004 0.900468
O O11 0.549873 0.029215 0.859847
O O12 0.083216 0.541608 0.000000
O O13 0.666667 0.333334 0.250000
O O14 0.934449 0.171375 0.250000
#
# Coordination Sequence:
#
# PCOD9585909 Si02
#       6
#    12  12  12  12   4  12
#     4  10  21  37  57  81 111 146 186 231 286 343
#     4  10  19  34  57  85 112 145 184 226 279 341
#     4  10  20  37  58  83 113 149 190 237 283 338
#     4  10  21  38  59  81 112 149 189 231 286 347
#     4   9  21  36  55  80 112 150 190 230 286 342
#     4   9  18  32  55  84 114 144 180 227 280 337
#
# _framework density 23.522570999999999
#
# number of rings (size 3 to 8) (size 9 to 14) (size 15 to 20)
#    0.000    2.250    1.875    0.750    2.625    3.750 
#    0.000    1.875    0.000    2.250    0.000    0.000 
#    0.000    0.000    0.000    0.000    0.000    0.000 
#
# Total GULP energy -357488.623326 kJ/mol
# GULP energy per Si atom -5585.759739 kJ/mol
# Density = 2.346903 g / cm^3
# Si number density = 23.522571 Si / 1000 Ang^3
#
#
#
# Elastic Constant Matrix: (Units=GPa)
#
#
# Indices 1 2 3 4 5 6 
#
# 1 153.0787 68.4843 -2.1558 0.0000 -0.0002 0.0000
# 2 68.4843 153.0786 -2.1559 -0.0005 0.0003 -0.0002
# 3 -2.1558 -2.1559 75.8192 0.0003 0.0002 0.0000
# 4 0.0000 -0.0005 0.0003 -48.4080 0.0024 -0.0002
# 5 -0.0002 0.0003 0.0002 0.0024 -48.4111 0.0009
# 6 0.0000 -0.0002 0.0000 -0.0002 0.0009 42.2970
#
#
#
# Elastic Compliance Matrix: (Units=1/GPa)
#
#
# Indices 1 2 3 4 5 6 
#
# 1 0.008169 -0.003653 0.000128 0.000000 0.000000 0.000000
# 2 -0.003653 0.008169 0.000128 0.000000 0.000000 0.000000
# 3 0.000128 0.000128 0.013197 0.000000 0.000000 0.000000
# 4 0.000000 0.000000 0.000000 -0.020658 -0.000001 0.000000
# 5 0.000000 0.000000 0.000000 -0.000001 -0.020656 0.000000
# 6 0.000000 0.000000 0.000000 0.000000 0.000000 0.023642
#
#
# Mechanical properties :
#
#
# Convention : Reuss Voigt Hill
#
# Bulk Modulus (GPa) = 43.97155 56.70241 50.33698
# Shear Modulus (GPa) = 190.59251 10.28253 100.43752
#
# Velocity S-wave (km/s) = 9.01117 2.09304 6.54149
# Velocity P-wave (km/s) = 11.26953 5.47713 8.86006
#
# Compressibility (1/GPa) = 0.02274198
#
# Stress axis : x y z
#
# Youngs Moduli (GPa) = 122.42145 122.42139 75.77723
#
# Poissons Ratio (x) = 0.44716 -0.00973
# Poissons Ratio (y) = 0.44716 -0.00973
# Poissons Ratio (z) = -0.01572 -0.01572
#
# Static dielectric constant tensor:
#      x y z
#    x 1.853420 0.000000 0.000000 
#    y 0.000000 1.853420 0.000000 
#    z 0.000000 0.000000 2.021710 
# 
# From -- ./inp_files/3090.got.cif
#   From: 2010.05.17/outbox.cif.g08.bks.cpg/sg188_2_cif.got.tgz:3090.got - 2010.05.20 12:11:46.
