data_PCOD9585157
_publ_section_title
;
Structure prediction by ZEFSAII (Michael W. Deem and Ramdas Pophale) SiO2 
 PCOD9585157
Probable space group: P 6 C C
;
_chemical_formula_sum "Si O2"
_cell_formula_units_Z 72
_cell_length_a 13.668191
_cell_length_b 13.668191
_cell_length_c 19.524270
_cell_angle_alpha 90.000000
_cell_angle_beta 90.000000
_cell_angle_gamma 120.000000
_cell_volume 3158.839169
_symmetry_space_group_name_H-M "P 6 C C"
_symmetry_group_IT_number 184
_symmetry_cell_setting 'hexagonal'
loop_
_space_group_symop_operation_xyz
x,y,z
x-y,x,z
-y,x-y,z
-x,-y,z
-x+y,-x,z
y,-x+y,z
-x+y,y,1/2+z
x,x-y,1/2+z
-y,-x,1/2+z
y,x,1/2+z
x-y,-y,1/2+z
-x,-x+y,1/2+z
loop_
_atom_site_type_symbol
_atom_site_label
_atom_site_fract_x
_atom_site_fract_y
_atom_site_fract_z
Si Si1 0.000000 0.500000 0.554030
Si Si2 0.557968 0.371039 0.940376
Si Si3 0.722099 0.613065 0.144620
Si Si4 0.000000 0.500000 0.826722
Si Si5 0.733719 0.876218 0.014845
Si Si6 0.386935 0.277901 0.236132
Si Si7 0.733719 0.876218 0.865907
O O1 0.099457 0.593279 0.504703
O O2 0.062420 0.456956 0.604679
O O3 0.552332 0.249075 0.940376
O O4 0.506178 0.406721 0.876049
O O5 0.702257 0.702257 0.190376
O O6 0.777758 0.555516 0.190376
O O7 0.810424 0.662372 0.082475
O O8 0.937580 0.394535 0.776074
O O9 0.805245 0.814642 0.016848
O O10 0.675887 0.848343 0.940376
O O11 0.337628 0.189576 0.298278
O O12 0.805245 0.814642 0.863905
#
# Coordination Sequence:
#
# PCOD9585157 Si02
#       7
#     6  12  12   6  12  12  12
#     4  11  27  48  76 110 156 212 268 346 422 502
#     4   9  24  48  80 116 152 204 284 349 418 503
#     4  12  26  45  72 106 152 200 263 330 412 492
#     4  11  27  48  76 110 156 212 268 346 422 502
#     4  10  21  39  66 102 142 186 236 305 385 474
#     4  12  26  45  72 106 152 200 263 330 412 492
#     4  10  21  39  66 102 142 186 236 305 385 474
#
# _framework density 22.793182999999999
#
# number of rings (size 3 to 8) (size 9 to 14) (size 15 to 20)
#    0.333    1.000    3.333    0.833    9.333    1.333 
#    0.000    0.000    0.000    0.000    0.000    0.000 
#    0.000    0.000    0.000    0.000    0.000    0.000 
#
# Total GULP energy -401676.708395 kJ/mol
# GULP energy per Si atom -5578.843172 kJ/mol
# Density = 2.274130 g / cm^3
# Si number density = 22.793183 Si / 1000 Ang^3
#
#
#
# Elastic Constant Matrix: (Units=GPa)
#
#
# Indices 1 2 3 4 5 6 
#
# 1 87.9097 14.0182 42.8424 0.0000 0.0000 0.0000
# 2 14.0182 87.9097 42.8424 0.0000 0.0000 0.0000
# 3 42.8424 42.8424 173.7347 0.0000 0.0000 0.0000
# 4 0.0000 0.0000 0.0000 31.8302 0.0000 0.0000
# 5 0.0000 0.0000 0.0000 0.0000 31.8302 0.0000
# 6 0.0000 0.0000 0.0000 0.0000 0.0000 36.9458
#
#
#
# Elastic Compliance Matrix: (Units=1/GPa)
#
#
# Indices 1 2 3 4 5 6 
#
# 1 0.012955 -0.000578 -0.003052 0.000000 0.000000 0.000000
# 2 -0.000578 0.012955 -0.003052 0.000000 0.000000 0.000000
# 3 -0.003052 -0.003052 0.007261 0.000000 0.000000 0.000000
# 4 0.000000 0.000000 0.000000 0.031417 0.000000 0.000000
# 5 0.000000 0.000000 0.000000 0.000000 0.031417 0.000000
# 6 0.000000 0.000000 0.000000 0.000000 0.000000 0.027067
#
#
# Mechanical properties :
#
#
# Convention : Reuss Voigt Hill
#
# Bulk Modulus (GPa) = 50.48944 60.99555 55.74249
# Shear Modulus (GPa) = 34.95577 36.77800 35.86688
#
# Velocity S-wave (km/s) = 3.92038 4.02126 3.97114
# Velocity P-wave (km/s) = 6.53389 6.95552 6.74800
#
# Compressibility (1/GPa) = 0.01980612
#
# Stress axis : x y z
#
# Youngs Moduli (GPa) = 77.19072 77.19072 137.71967
#
# Poissons Ratio (x) = 0.04465 0.42032
# Poissons Ratio (y) = 0.04465 0.42032
# Poissons Ratio (z) = 0.23559 0.23559
#
# Static dielectric constant tensor:
#      x y z
#    x 1.965950 0.000000 0.000000 
#    y 0.000000 1.965950 0.000000 
#    z 0.000000 0.000000 1.887310 
# 
# From -- ./inp_files/1106.got.cif
#   From: 2010.05.17/outbox.cif.g08.bks.cpg/sg184_cif.got.tgz:1106.got - 2010.05.20 12:04:40.
