data_PCOD9585858
_publ_section_title
;
Structure prediction by ZEFSAII (Michael W. Deem and Ramdas Pophale) SiO2 
 PCOD9585858
Probable space group: P -6 C 2
;
_chemical_formula_sum "Si O2"
_cell_formula_units_Z 56
_cell_length_a 14.675786
_cell_length_b 14.675786
_cell_length_c 13.967603
_cell_angle_alpha 90.000000
_cell_angle_beta 90.000000
_cell_angle_gamma 120.000000
_cell_volume 2605.285096
_symmetry_space_group_name_H-M "P -6 C 2"
_symmetry_group_IT_number 188
_symmetry_cell_setting 'hexagonal'
loop_
_space_group_symop_operation_xyz
x,y,z
-x+y,-x,1/2-z
-y,x-y,z
x,y,1/2-z
-x+y,-x,z
-y,x-y,1/2-z
-y,-x,-z
-x+y,y,-z
x,x-y,-z
-x+y,y,1/2+z
x,x-y,1/2+z
-y,-x,1/2+z
loop_
_atom_site_type_symbol
_atom_site_label
_atom_site_fract_x
_atom_site_fract_y
_atom_site_fract_z
Si Si1 0.892888 0.763394 0.358294
Si Si2 0.463136 0.560813 0.866018
Si Si3 0.666625 0.984309 0.632470
Si Si4 0.226110 0.329704 0.367236
Si Si5 0.000000 0.000000 0.386699
Si Si6 0.333335 0.666668 0.365461
O O1 0.888220 0.724825 0.250000
O O2 0.776800 0.693645 0.400157
O O3 0.999597 0.775451 0.400676
O O4 0.916087 0.883220 0.354181
O O5 0.467040 0.560525 0.750000
O O6 0.421601 0.441289 0.896627
O O7 0.571865 0.661689 0.895977
O O8 0.372474 0.587274 0.893906
O O9 0.669622 0.985467 0.750000
O O10 0.662949 0.875780 0.603053
O O11 0.222170 0.328998 0.250000
O O12 0.000000 0.000000 0.500000
O O13 0.333334 0.666668 0.250000
#
# Coordination Sequence:
#
# PCOD9585858 Si02
#       6
#    12  12  12  12   4   4
#     4  10  18  30  45  62  90 124 152 175 218 282
#     4   9  14  20  31  56  86 107 137 174 214 251
#     4   9  15  22  37  58  82 116 147 176 213 259
#     4   9  15  22  37  58  82 116 147 176 213 259
#     4  12  22  29  43  69  94 116 148 195 232 260
#     4   9  12  15  27  45  75 105 121 158 208 249
#
# _framework density 21.494769000000002
#
# number of rings (size 3 to 8) (size 9 to 14) (size 15 to 20)
#    0.000    2.571    4.286    0.643    0.000    0.000 
#    0.000    0.000    0.000    0.857    0.000    7.500 
#    0.000    0.000    0.000    0.000    0.000    0.000 
#
# Total GULP energy -312652.459676 kJ/mol
# GULP energy per Si atom -5583.079637 kJ/mol
# Density = 2.144585 g / cm^3
# Si number density = 21.494769 Si / 1000 Ang^3
#
#
#
# Elastic Constant Matrix: (Units=GPa)
#
#
# Indices 1 2 3 4 5 6 
#
# 1 104.8871 51.6854 -17.6399 0.0000 0.0000 -0.0001
# 2 51.6854 104.8865 -17.6404 0.0001 -0.0001 -0.0003
# 3 -17.6399 -17.6404 83.2969 -0.0001 0.0000 -0.0001
# 4 0.0000 0.0001 -0.0001 -9.5774 0.0000 0.0000
# 5 0.0000 -0.0001 0.0000 0.0000 -9.5774 0.0000
# 6 -0.0001 -0.0003 -0.0001 0.0000 0.0000 26.6002
#
#
#
# Elastic Compliance Matrix: (Units=1/GPa)
#
#
# Indices 1 2 3 4 5 6 
#
# 1 0.012752 -0.006045 0.001420 0.000000 0.000000 0.000000
# 2 -0.006045 0.012752 0.001420 0.000000 0.000000 0.000000
# 3 0.001420 0.001420 0.012607 0.000000 0.000000 0.000000
# 4 0.000000 0.000000 0.000000 -0.104412 0.000000 0.000000
# 5 0.000000 0.000000 0.000000 0.000000 -0.104412 0.000000
# 6 0.000000 0.000000 0.000000 0.000000 0.000000 0.037594
#
#
# Mechanical properties :
#
#
# Convention : Reuss Voigt Hill
#
# Bulk Modulus (GPa) = 31.54378 36.20896 33.87637
# Shear Modulus (GPa) = -43.04960 19.93342 -11.55809
#
# Velocity S-wave (km/s) = -4.48011 3.04856 -2.32139
# Velocity P-wave (km/s) = 3.47202 5.41052 2.93418
#
# Compressibility (1/GPa) = 0.03170197
#
# Stress axis : x y z
#
# Youngs Moduli (GPa) = 78.42131 78.42064 79.32202
#
# Poissons Ratio (x) = 0.47404 -0.11266
# Poissons Ratio (y) = 0.47404 -0.11267
# Poissons Ratio (z) = -0.11138 -0.11139
#
# Static dielectric constant tensor:
#      x y z
#    x 1.766190 0.000000 0.000000 
#    y 0.000000 1.766190 0.000000 
#    z 0.000000 0.000000 1.877130 
# 
# From -- ./inp_files/3019.got.cif
#   From: 2010.05.17/outbox.cif.g08.bks.cpg/sg188_2_cif.got.tgz:3019.got - 2010.05.20 12:11:46.
