data_PCOD9585736
_publ_section_title
;
Structure prediction by ZEFSAII (Michael W. Deem and Ramdas Pophale) SiO2 
 PCOD9585736
Probable space group: P -6 M 2
;
_chemical_formula_sum "Si O2"
_cell_formula_units_Z 60
_cell_length_a 12.611834
_cell_length_b 12.611834
_cell_length_c 26.255336
_cell_angle_alpha 90.000000
_cell_angle_beta 90.000000
_cell_angle_gamma 120.000000
_cell_volume 3616.635191
_symmetry_space_group_name_H-M "P -6 M 2"
_symmetry_group_IT_number 187
_symmetry_cell_setting 'hexagonal'
loop_
_space_group_symop_operation_xyz
x,y,z
-x+y,-x,-z
-y,x-y,z
x,y,-z
-x+y,-x,z
-y,x-y,-z
-y,-x,-z
-x+y,y,-z
x,x-y,-z
-x+y,y,z
x,x-y,z
-y,-x,z
loop_
_atom_site_type_symbol
_atom_site_label
_atom_site_fract_x
_atom_site_fract_y
_atom_site_fract_z
Si Si1 0.000475 0.252010 0.400283
Si Si2 0.585342 0.918984 0.899986
Si Si3 0.414940 0.081173 0.000000
Si Si4 0.918739 0.584941 0.199681
Si Si5 0.333124 0.918838 0.500000
Si Si6 0.333336 0.918965 0.299987
O O1 0.110683 0.221365 0.401570
O O2 0.018540 0.334067 0.449873
O O3 0.020454 0.331600 0.349680
O O4 0.870719 0.129282 0.400350
O O5 0.444724 0.889447 0.899683
O O6 0.590566 0.795283 0.900615
O O7 0.647955 0.998537 0.849707
O O8 0.647324 0.000424 0.949907
O O9 0.555858 0.111716 0.000000
O O10 0.408671 0.204336 0.000000
O O11 0.795905 0.591810 0.199386
O O12 0.888242 0.444121 0.198246
O O13 0.997702 0.644206 0.250456
O O14 0.221514 0.778487 0.500000
O O15 0.461648 0.923296 0.500000
O O16 0.452874 0.905748 0.306819
O O17 0.213554 0.786446 0.292996
#
# Coordination Sequence:
#
# PCOD9585736 Si02
#       6
#    12  12   6  12   6  12
#     4  10  20  34  53  76 103 135 170 208 250 299
#     4  10  20  34  54  78 104 134 168 210 256 302
#     4  10  20  34  54  78 104 134 168 208 252 300
#     4  10  20  34  53  76 103 135 170 209 252 300
#     4  10  20  34  54  78 104 134 168 210 256 302
#     4  10  20  34  54  78 104 134 168 210 256 302
#
# _framework density 16.590005999999999
#
# number of rings (size 3 to 8) (size 9 to 14) (size 15 to 20)
#    0.000    2.000    0.000    4.000    0.000    0.000 
#    0.000    8.000    0.000   17.600    0.000    0.000 
#    0.000    0.000    0.000    0.000    0.000    0.000 
#
# Total GULP energy -335049.944464 kJ/mol
# GULP energy per Si atom -5584.165741 kJ/mol
# Density = 1.655225 g / cm^3
# Si number density = 16.590006 Si / 1000 Ang^3
#
#
#
# Elastic Constant Matrix: (Units=GPa)
#
#
# Indices 1 2 3 4 5 6 
#
# 1 151.3604 113.6563 100.0690 0.0000 0.0000 0.0000
# 2 113.6563 151.3604 100.0690 0.0000 0.0000 0.0000
# 3 100.0690 100.0690 180.2993 0.0000 0.0000 0.0000
# 4 0.0000 0.0000 0.0000 13.0387 0.0000 0.0000
# 5 0.0000 0.0000 0.0000 0.0000 13.0387 0.0000
# 6 0.0000 0.0000 0.0000 0.0000 0.0000 18.8521
#
#
#
# Elastic Compliance Matrix: (Units=1/GPa)
#
#
# Indices 1 2 3 4 5 6 
#
# 1 0.016509 -0.010013 -0.003605 0.000000 0.000000 0.000000
# 2 -0.010013 0.016509 -0.003605 0.000000 0.000000 0.000000
# 3 -0.003605 -0.003605 0.009549 0.000000 0.000000 0.000000
# 4 0.000000 0.000000 0.000000 0.076695 0.000000 0.000000
# 5 0.000000 0.000000 0.000000 0.000000 0.076695 0.000000
# 6 0.000000 0.000000 0.000000 0.000000 0.000000 0.053045
#
#
# Mechanical properties :
#
#
# Convention : Reuss Voigt Hill
#
# Bulk Modulus (GPa) = 123.16856 123.40097 123.28476
# Shear Modulus (GPa) = 17.47299 20.26760 18.87029
#
# Velocity S-wave (km/s) = 3.24886 3.49904 3.37627
# Velocity P-wave (km/s) = 9.40624 9.53250 9.46958
#
# Compressibility (1/GPa) = 0.00811896
#
# Stress axis : x y z
#
# Youngs Moduli (GPa) = 60.57218 60.57218 104.72820
#
# Poissons Ratio (x) = 0.60651 0.37759
# Poissons Ratio (y) = 0.60651 0.37759
# Poissons Ratio (z) = 0.21839 0.21839
#
# Static dielectric constant tensor:
#      x y z
#    x 1.522530 0.000000 0.000000 
#    y 0.000000 1.522530 0.000000 
#    z 0.000000 0.000000 1.547930 
# 
# From -- ./inp_files/4182.got.cif
#   From: 2010.05.17/outbox.cif.g08.bks.cpg/sg187_3_cif.got.tgz:4182.got - 2010.05.20 12:09:04.
