data_PCOD9585535
_publ_section_title
;
Structure prediction by ZEFSAII (Michael W. Deem and Ramdas Pophale) SiO2 
 PCOD9585535
Probable space group: P -6 M 2
;
_chemical_formula_sum "Si O2"
_cell_formula_units_Z 96
_cell_length_a 17.860517
_cell_length_b 17.860517
_cell_length_c 21.189838
_cell_angle_alpha 90.000000
_cell_angle_beta 90.000000
_cell_angle_gamma 120.000000
_cell_volume 5853.913762
_symmetry_space_group_name_H-M "P -6 M 2"
_symmetry_group_IT_number 187
_symmetry_cell_setting 'hexagonal'
loop_
_space_group_symop_operation_xyz
x,y,z
-x+y,-x,-z
-y,x-y,z
x,y,-z
-x+y,-x,z
-y,x-y,-z
-y,-x,-z
-x+y,y,-z
x,x-y,-z
-x+y,y,z
x,x-y,z
-y,-x,z
loop_
_atom_site_type_symbol
_atom_site_label
_atom_site_fract_x
_atom_site_fract_y
_atom_site_fract_z
Si Si1 0.667568 0.509616 0.119773
Si Si2 0.169944 0.998944 0.575094
Si Si3 0.032101 0.427281 0.928586
Si Si4 0.270249 0.904978 0.810717
Si Si5 0.388247 0.955849 0.569269
Si Si6 0.735388 0.641551 0.231418
Si Si7 0.363074 0.267102 0.378192
Si Si8 0.331890 0.842630 0.689765
O O1 0.756525 0.513050 0.100418
O O2 0.588223 0.411777 0.121466
O O3 0.636608 0.564941 0.078304
O O4 0.684585 0.556598 0.187886
O O5 0.185401 0.996354 0.500000
O O6 0.140206 0.070103 0.583261
O O7 0.260181 0.035566 0.610490
O O8 0.094845 0.905156 0.595328
O O9 0.046260 0.523130 0.917652
O O10 0.080791 0.404111 0.875364
O O11 0.058619 0.422255 0.000000
O O12 0.171742 0.828259 0.816373
O O13 0.312793 0.879368 0.753257
O O14 0.287272 0.999432 0.791769
O O15 0.347178 0.925406 0.500000
O O16 0.477666 0.955332 0.569495
O O17 0.334147 0.896929 0.628136
O O18 0.405453 0.051764 0.581515
O O19 0.836159 0.672317 0.224986
O O20 0.711835 0.618965 0.304416
O O21 0.385365 0.192683 0.395490
O O22 0.423774 0.847548 0.694570
O O23 0.255280 0.744721 0.682203
#
# Coordination Sequence:
#
# PCOD9585535 Si02
#       8
#    12  12  12  12  12  12  12  12
#     4   9  17  29  48  74 104 135 168 201 239 287
#     4   9  17  28  43  64  90 119 149 185 234 294
#     4   9  18  32  49  72 105 140 169 201 244 291
#     4  10  19  32  53  77  99 130 171 212 250 291
#     4  10  21  35  50  70  96 126 162 206 254 300
#     4   9  18  32  48  70  98 129 161 203 254 300
#     4  10  19  32  50  70  93 123 161 203 250 300
#     4  10  20  34  52  74  99 129 165 206 251 300
#
# _framework density 16.399284000000002
#
# number of rings (size 3 to 8) (size 9 to 14) (size 15 to 20)
#    0.000    2.500    1.250    1.125    0.000    4.000 
#    0.000    0.000    0.000    2.250    0.000    0.000 
#    0.000    0.000    0.000    0.375    0.000    0.500 
#
# Total GULP energy -534960.111940 kJ/mol
# GULP energy per Si atom -5572.501166 kJ/mol
# Density = 1.636196 g / cm^3
# Si number density = 16.399284 Si / 1000 Ang^3
#
#
#
# Elastic Constant Matrix: (Units=GPa)
#
#
# Indices 1 2 3 4 5 6 
#
# 1 50.5742 17.5958 22.2663 0.0000 -0.0003 0.0000
# 2 17.5958 50.5742 22.2663 0.0000 0.0003 0.0000
# 3 22.2663 22.2663 86.4740 0.0000 0.0000 0.0000
# 4 0.0000 0.0000 0.0000 14.2045 0.0000 0.0003
# 5 -0.0003 0.0003 0.0000 0.0000 14.2045 0.0000
# 6 0.0000 0.0000 0.0000 0.0003 0.0000 16.4892
#
#
#
# Elastic Compliance Matrix: (Units=1/GPa)
#
#
# Indices 1 2 3 4 5 6 
#
# 1 0.023979 -0.006344 -0.004541 0.000000 0.000001 0.000000
# 2 -0.006344 0.023979 -0.004541 0.000000 -0.000001 0.000000
# 3 -0.004541 -0.004541 0.013903 0.000000 0.000000 0.000000
# 4 0.000000 0.000000 0.000000 0.070400 0.000000 -0.000001
# 5 0.000001 -0.000001 0.000000 0.000000 0.070400 0.000000
# 6 0.000000 0.000000 0.000000 -0.000001 0.000000 0.060646
#
#
# Mechanical properties :
#
#
# Convention : Reuss Voigt Hill
#
# Bulk Modulus (GPa) = 32.24773 34.65325 33.45049
# Shear Modulus (GPa) = 16.42061 17.34591 16.88326
#
# Velocity S-wave (km/s) = 3.16777 3.25579 3.21208
# Velocity P-wave (km/s) = 5.75208 5.94226 5.84794
#
# Compressibility (1/GPa) = 0.03100993
#
# Stress axis : x y z
#
# Youngs Moduli (GPa) = 41.70266 41.70266 71.92831
#
# Poissons Ratio (x) = 0.26455 0.32663
# Poissons Ratio (y) = 0.26455 0.32663
# Poissons Ratio (z) = 0.18937 0.18937
#
# Static dielectric constant tensor:
#      x y z
#    x 1.544240 0.000000 0.000000 
#    y 0.000000 1.544240 0.000000 
#    z 0.000000 0.000000 1.560730 
# 
# From -- ./inp_files/3744.got.cif
#   From: 2010.05.17/outbox.cif.g08.bks.cpg/sg187_2_cif.got.tgz:3744.got - 2010.05.20 12:09:04.
