data_PCOD9585575
_publ_section_title
;
Structure prediction by ZEFSAII (Michael W. Deem and Ramdas Pophale) SiO2 
 PCOD9585575
Probable space group: P -6 M 2
;
_chemical_formula_sum "Si O2"
_cell_formula_units_Z 66
_cell_length_a 13.201708
_cell_length_b 13.201708
_cell_length_c 28.877124
_cell_angle_alpha 90.000000
_cell_angle_beta 90.000000
_cell_angle_gamma 120.000000
_cell_volume 4358.577923
_symmetry_space_group_name_H-M "P -6 M 2"
_symmetry_group_IT_number 187
_symmetry_cell_setting 'hexagonal'
loop_
_space_group_symop_operation_xyz
x,y,z
-x+y,-x,-z
-y,x-y,z
x,y,-z
-x+y,-x,z
-y,x-y,-z
-y,-x,-z
-x+y,y,-z
x,x-y,-z
-x+y,y,z
x,x-y,z
-y,-x,z
loop_
_atom_site_type_symbol
_atom_site_label
_atom_site_fract_x
_atom_site_fract_y
_atom_site_fract_z
Si Si1 0.425055 0.333420 0.683720
Si Si2 0.093712 0.427028 0.763295
Si Si3 0.425846 0.333162 0.947658
Si Si4 0.572972 0.905734 0.129359
Si Si5 0.092055 0.668128 0.397682
Si Si6 0.331931 0.902702 0.500000
O O1 0.420386 0.210193 0.682917
O O2 0.558995 0.441006 0.683835
O O3 0.362812 0.350968 0.728659
O O4 0.362283 0.353969 0.639653
O O5 0.209801 0.419601 0.753542
O O6 0.122345 0.561173 0.757695
O O7 0.059450 0.393777 0.816980
O O8 0.427482 0.213741 0.942877
O O9 0.557066 0.442935 0.943400
O O10 0.350868 0.347986 0.907721
O O11 0.385129 0.338144 0.000000
O O12 0.442217 0.884433 0.123715
O O13 0.573329 0.786665 0.121382
O O14 0.114214 0.557107 0.397748
O O15 0.213023 0.786978 0.386919
O O16 0.053164 0.681154 0.449753
O O17 0.234472 0.765529 0.500000
O O18 0.459413 0.918825 0.500000
#
# Coordination Sequence:
#
# PCOD9585575 Si02
#       6
#    12  12  12  12  12   6
#     4  10  20  32  45  62  88 121 153 183 215 254
#     4   9  17  30  49  71  92 113 139 176 222 269
#     4   9  17  29  45  65  89 118 152 188 222 253
#     4   9  17  29  46  69  95 119 141 170 215 270
#     4   9  16  27  46  71  95 116 140 176 222 268
#     4   8  13  22  39  66  96 118 136 166 216 270
#
# _framework density 15.142552999999999
#
# number of rings (size 3 to 8) (size 9 to 14) (size 15 to 20)
#    0.000    2.909    0.000    1.545    0.000    4.727 
#    0.000    2.273    0.000    6.545    0.000    1.273 
#    0.000    0.000    0.000    0.000    0.000    0.000 
#
# Total GULP energy -367418.989806 kJ/mol
# GULP energy per Si atom -5566.954391 kJ/mol
# Density = 1.510809 g / cm^3
# Si number density = 15.142553 Si / 1000 Ang^3
#
#
#
# Elastic Constant Matrix: (Units=GPa)
#
#
# Indices 1 2 3 4 5 6 
#
# 1 82.0457 44.6899 74.0326 0.0000 0.0000 0.0000
# 2 44.6899 82.0457 74.0326 0.0000 0.0000 0.0000
# 3 74.0326 74.0326 128.2469 0.0000 0.0000 0.0000
# 4 0.0000 0.0000 0.0000 19.8253 0.0000 0.0000
# 5 0.0000 0.0000 0.0000 0.0000 19.8253 0.0000
# 6 0.0000 0.0000 0.0000 0.0000 0.0000 18.6779
#
#
#
# Elastic Compliance Matrix: (Units=1/GPa)
#
#
# Indices 1 2 3 4 5 6 
#
# 1 0.025502 -0.001267 -0.013990 0.000000 0.000000 0.000000
# 2 -0.001267 0.025502 -0.013990 0.000000 0.000000 0.000000
# 3 -0.013990 -0.013990 0.023949 0.000000 0.000000 0.000000
# 4 0.000000 0.000000 0.000000 0.050441 0.000000 0.000000
# 5 0.000000 0.000000 0.000000 0.000000 0.050441 0.000000
# 6 0.000000 0.000000 0.000000 0.000000 0.000000 0.053539
#
#
# Mechanical properties :
#
#
# Convention : Reuss Voigt Hill
#
# Bulk Modulus (GPa) = 60.75607 75.31650 68.03629
# Shear Modulus (GPa) = 17.04415 18.30459 17.67437
#
# Velocity S-wave (km/s) = 3.35861 3.48058 3.42014
# Velocity P-wave (km/s) = 7.43304 8.12397 7.78617
#
# Compressibility (1/GPa) = 0.01645926
#
# Stress axis : x y z
#
# Youngs Moduli (GPa) = 39.21209 39.21209 41.75457
#
# Poissons Ratio (x) = 0.04969 0.58415
# Poissons Ratio (y) = 0.04969 0.58415
# Poissons Ratio (z) = 0.54858 0.54858
#
# Static dielectric constant tensor:
#      x y z
#    x 1.471410 0.000000 0.000000 
#    y 0.000000 1.471410 0.000000 
#    z 0.000000 0.000000 1.542890 
# 
# From -- ./inp_files/4474.got.cif
#   From: 2010.05.17/outbox.cif.g08.bks.cpg/sg187_3_cif.got.tgz:4474.got - 2010.05.20 12:09:04.
