data_PCOD9585109
_publ_section_title
;
Structure prediction by ZEFSAII (Michael W. Deem and Ramdas Pophale) SiO2 
 PCOD9585109
Probable space group: P 6 C C
;
_chemical_formula_sum "Si O2"
_cell_formula_units_Z 66
_cell_length_a 10.446189
_cell_length_b 10.446189
_cell_length_c 30.805298
_cell_angle_alpha 90.000000
_cell_angle_beta 90.000000
_cell_angle_gamma 120.000000
_cell_volume 2911.198403
_symmetry_space_group_name_H-M "P 6 C C"
_symmetry_group_IT_number 184
_symmetry_cell_setting 'hexagonal'
loop_
_space_group_symop_operation_xyz
x,y,z
x-y,x,z
-y,x-y,z
-x,-y,z
-x+y,-x,z
y,-x+y,z
-x+y,y,1/2+z
x,x-y,1/2+z
-y,-x,1/2+z
y,x,1/2+z
x-y,-y,1/2+z
-x,-x+y,1/2+z
loop_
_atom_site_type_symbol
_atom_site_label
_atom_site_fract_x
_atom_site_fract_y
_atom_site_fract_z
Si Si1 0.500000 0.500000 0.179380
Si Si2 0.659099 0.747851 0.016547
Si Si3 0.318251 0.493430 0.332408
Si Si4 0.742460 0.084617 0.111895
Si Si5 0.659317 0.748267 0.923271
Si Si6 0.254164 0.332419 0.243210
O O1 0.544426 0.638925 0.148099
O O2 0.363791 0.461492 0.211158
O O3 0.796901 0.719640 0.016344
O O4 0.586863 0.692928 0.063593
O O5 0.579525 0.689824 0.970130
O O6 0.463987 0.653135 0.328323
O O7 0.316778 0.435717 0.380315
O O8 0.293407 0.387359 0.292612
O O9 0.916661 0.202963 0.115920
O O10 0.795644 0.718652 0.921829
O O11 0.282800 0.197621 0.235263
#
# Coordination Sequence:
#
# PCOD9585109 Si02
#       6
#     6  12  12  12  12  12
#     4  12  26  42  64  98 136 168 206 272 342 410
#     4   8  15  30  58  93 129 167 216 279 339 392
#     4  10  24  43  64  93 137 182 226 268 327 401
#     4  10  21  43  70 100 133 175 230 284 339 394
#     4  10  19  34  60  96 133 172 221 280 340 395
#     4  12  26  48  75 103 131 168 222 281 340 398
#
# _framework density 22.671074999999998
#
# number of rings (size 3 to 8) (size 9 to 14) (size 15 to 20)
#    0.364    1.455    0.000    4.000    0.000    5.091 
#    8.727    9.091    0.000    0.000    0.000    0.000 
#    0.000    0.000    0.000    0.000    0.000    0.000 
#
# Total GULP energy -368879.626054 kJ/mol
# GULP energy per Si atom -5589.085243 kJ/mol
# Density = 2.261947 g / cm^3
# Si number density = 22.671075 Si / 1000 Ang^3
#
#
#
# Elastic Constant Matrix: (Units=GPa)
#
#
# Indices 1 2 3 4 5 6 
#
# 1 85.7495 34.0407 55.0770 0.0000 0.0000 0.0000
# 2 34.0407 85.7495 55.0770 0.0000 0.0000 0.0000
# 3 55.0770 55.0770 174.7801 0.0000 0.0000 0.0000
# 4 0.0000 0.0000 0.0000 36.8931 0.0000 0.0000
# 5 0.0000 0.0000 0.0000 0.0000 36.8931 0.0000
# 6 0.0000 0.0000 0.0000 0.0000 0.0000 25.8544
#
#
#
# Elastic Compliance Matrix: (Units=1/GPa)
#
#
# Indices 1 2 3 4 5 6 
#
# 1 0.015546 -0.003793 -0.003704 0.000000 0.000000 0.000000
# 2 -0.003793 0.015546 -0.003704 0.000000 0.000000 0.000000
# 3 -0.003704 -0.003704 0.008056 0.000000 0.000000 0.000000
# 4 0.000000 0.000000 0.000000 0.027105 0.000000 0.000000
# 5 0.000000 0.000000 0.000000 0.000000 0.027105 0.000000
# 6 0.000000 0.000000 0.000000 0.000000 0.000000 0.038678
#
#
# Mechanical properties :
#
#
# Convention : Reuss Voigt Hill
#
# Bulk Modulus (GPa) = 59.70866 70.51873 65.11369
# Shear Modulus (GPa) = 31.24589 33.40040 32.32314
#
# Velocity S-wave (km/s) = 3.71648 3.84247 3.78000
# Velocity P-wave (km/s) = 6.69405 7.13154 6.91625
#
# Compressibility (1/GPa) = 0.01674799
#
# Stress axis : x y z
#
# Youngs Moduli (GPa) = 64.32328 64.32328 124.13357
#
# Poissons Ratio (x) = 0.24395 0.45978
# Poissons Ratio (y) = 0.24395 0.45978
# Poissons Ratio (z) = 0.23825 0.23825
#
# Static dielectric constant tensor:
#      x y z
#    x 1.836410 0.000000 0.000000 
#    y 0.000000 1.836410 0.000000 
#    z 0.000000 0.000000 1.883480 
# 
# From -- ./inp_files/1393.got.cif
#   From: 2010.05.17/outbox.cif.g08.bks.cpg/sg184_cif.got.tgz:1393.got - 2010.05.20 12:04:40.
