data_PCOD9585308
_publ_section_title
;
Structure prediction by ZEFSAII (Michael W. Deem and Ramdas Pophale) SiO2 
 PCOD9585308
Probable space group: P 63 C M
;
_chemical_formula_sum "Si O2"
_cell_formula_units_Z 66
_cell_length_a 20.248227
_cell_length_b 20.248227
_cell_length_c 9.024477
_cell_angle_alpha 90.000000
_cell_angle_beta 90.000000
_cell_angle_gamma 120.000000
_cell_volume 3204.252089
_symmetry_space_group_name_H-M "P 63 C M"
_symmetry_group_IT_number 185
_symmetry_cell_setting 'hexagonal'
loop_
_space_group_symop_operation_xyz
x,y,z
x-y,x,1/2+z
-y,x-y,z
-x,-y,1/2+z
-x+y,-x,z
y,-x+y,1/2+z
-x+y,y,1/2+z
x,x-y,1/2+z
-y,-x,1/2+z
y,x,z
x-y,-y,z
-x,-x+y,z
loop_
_atom_site_type_symbol
_atom_site_label
_atom_site_fract_x
_atom_site_fract_y
_atom_site_fract_z
Si Si1 0.665423 0.196075 0.223700
Si Si2 0.871294 0.754868 0.775636
Si Si3 0.158067 0.158067 0.006033
Si Si4 0.088812 0.376603 0.216510
Si Si5 0.664984 0.195696 0.872925
Si Si6 0.912173 0.289633 0.880715
O O1 0.583691 0.166881 0.298623
O O2 0.723907 0.276589 0.298020
O O3 0.697088 0.139762 0.265831
O O4 0.661804 0.203268 0.048319
O O5 0.857564 0.791190 0.630486
O O6 0.903625 0.697803 0.741127
O O7 0.790300 0.698850 0.852146
O O8 0.932534 0.820016 0.881178
O O9 0.139142 0.442746 0.330947
O O10 0.000000 0.349849 0.230726
O O11 0.115010 0.404990 0.048551
O O12 0.000000 0.354625 0.868015
#
# Coordination Sequence:
#
# PCOD9585308 Si02
#       6
#    12  12   6  12  12  12
#     4  12  26  44  69  98 141 190 243 298 365 445
#     4  12  24  44  74 111 146 188 246 304 371 440
#     4  12  28  44  80 112 150 194 250 310 376 450
#     4  11  24  42  70 106 141 182 238 301 363 436
#     4  12  26  44  69  98 141 190 243 298 365 445
#     4  11  24  42  70 106 141 182 238 301 363 436
#
# _framework density 20.597629999999999
#
# number of rings (size 3 to 8) (size 9 to 14) (size 15 to 20)
#    0.000    0.364    5.455    3.636    2.545    2.182 
#    0.000    0.000    0.000    3.636    0.000    0.000 
#    0.000    0.000    0.000    0.000    0.000    0.000 
#
# Total GULP energy -367681.188891 kJ/mol
# GULP energy per Si atom -5570.927104 kJ/mol
# Density = 2.055075 g / cm^3
# Si number density = 20.597630 Si / 1000 Ang^3
#
#
#
# Elastic Constant Matrix: (Units=GPa)
#
#
# Indices 1 2 3 4 5 6 
#
# 1 47.1283 28.0935 15.6331 0.0000 0.0000 0.0000
# 2 28.0935 47.1283 15.6331 0.0000 0.0000 0.0000
# 3 15.6331 15.6331 125.2408 0.0000 0.0000 0.0000
# 4 0.0000 0.0000 0.0000 8.9163 0.0000 0.0000
# 5 0.0000 0.0000 0.0000 0.0000 8.9163 0.0000
# 6 0.0000 0.0000 0.0000 0.0000 0.0000 9.5174
#
#
#
# Elastic Compliance Matrix: (Units=1/GPa)
#
#
# Indices 1 2 3 4 5 6 
#
# 1 0.033278 -0.019257 -0.001750 0.000000 0.000000 0.000000
# 2 -0.019257 0.033278 -0.001750 0.000000 0.000000 0.000000
# 3 -0.001750 -0.001750 0.008422 0.000000 0.000000 0.000000
# 4 0.000000 0.000000 0.000000 0.112154 0.000000 0.000000
# 5 0.000000 0.000000 0.000000 0.000000 0.112154 0.000000
# 6 0.000000 0.000000 0.000000 0.000000 0.000000 0.105071
#
#
# Mechanical properties :
#
#
# Convention : Reuss Voigt Hill
#
# Bulk Modulus (GPa) = 33.94012 37.57966 35.75989
# Shear Modulus (GPa) = 10.87684 16.14586 13.51135
#
# Velocity S-wave (km/s) = 2.30045 2.80281 2.56396
# Velocity P-wave (km/s) = 4.85485 5.36270 5.11508
#
# Compressibility (1/GPa) = 0.02946365
#
# Stress axis : x y z
#
# Youngs Moduli (GPa) = 30.04951 30.04951 118.74283
#
# Poissons Ratio (x) = 0.57866 0.20783
# Poissons Ratio (y) = 0.57866 0.20783
# Poissons Ratio (z) = 0.05259 0.05259
#
# Static dielectric constant tensor:
#      x y z
#    x 1.736610 0.000000 0.000000 
#    y 0.000000 1.736610 0.000000 
#    z 0.000000 0.000000 1.710390 
# 
# From -- ./inp_files/553.got.cif
#   From: 2010.05.17/outbox.cif.g08.bks.cpg/sg185_cif.got.tgz:553.got - 2010.05.20 12:05:34.
