data_PCOD9585369
_publ_section_title
;
Structure prediction by ZEFSAII (Michael W. Deem and Ramdas Pophale) SiO2 
 PCOD9585369
Probable space group: P 63 M C
;
_chemical_formula_sum "Si O2"
_cell_formula_units_Z 96
_cell_length_a 17.367054
_cell_length_b 17.367054
_cell_length_c 20.269675
_cell_angle_alpha 90.000000
_cell_angle_beta 90.000000
_cell_angle_gamma 120.000000
_cell_volume 5294.558197
_symmetry_space_group_name_H-M "P 63 M C"
_symmetry_group_IT_number 186
_symmetry_cell_setting 'hexagonal'
loop_
_space_group_symop_operation_xyz
x,y,z
x-y,x,1/2+z
-y,x-y,z
-x,-y,1/2+z
-x+y,-x,z
y,-x+y,1/2+z
-x+y,y,z
x,x-y,z
-y,-x,z
y,x,1/2+z
x-y,-y,1/2+z
-x,-x+y,1/2+z
loop_
_atom_site_type_symbol
_atom_site_label
_atom_site_fract_x
_atom_site_fract_y
_atom_site_fract_z
Si Si1 0.295868 0.301624 0.723720
Si Si2 0.943261 0.382671 0.544965
Si Si3 0.286553 0.392827 0.907454
Si Si4 0.741459 0.957413 0.356247
Si Si5 0.999040 0.834701 0.487842
Si Si6 0.333640 0.847989 0.184229
Si Si7 0.491046 0.156717 0.276523
Si Si8 0.922518 0.671142 0.083612
O O1 0.241839 0.230038 0.780447
O O2 0.394572 0.314057 0.720201
O O3 0.308108 0.397220 0.743129
O O4 0.250616 0.281014 0.652155
O O5 0.955576 0.477788 0.528815
O O6 0.903068 0.320034 0.481608
O O7 0.877481 0.343364 0.607445
O O8 0.036907 0.391789 0.567421
O O9 0.181425 0.362850 0.902774
O O10 0.308929 0.317235 0.883047
O O11 0.332678 0.472368 0.854956
O O12 0.701844 0.850922 0.359361
O O13 0.820781 0.995441 0.409317
O O14 0.062675 0.937326 0.504733
O O15 0.041313 0.783675 0.524613
O O16 0.899694 0.799388 0.509557
O O17 0.427131 0.854262 0.203431
O O18 0.250557 0.749443 0.193260
O O19 0.570293 0.140585 0.255724
O O20 0.513328 0.256664 0.262612
O O21 0.817246 0.634492 0.088674
#
# Coordination Sequence:
#
# PCOD9585369 Si02
#       8
#    12  12  12  12  12  12  12  12
#     4  10  21  36  54  78 107 141 181 227 268 321
#     4  10  20  33  52  79 108 139 176 221 274 327
#     4  10  19  32  52  77 108 142 179 221 267 326
#     4  10  20  33  52  79 107 139 179 222 269 317
#     4  10  20  34  54  79 107 139 176 220 267 318
#     4  10  20  34  53  77 107 141 178 220 268 320
#     4  10  20  34  53  77 107 141 178 222 272 326
#     4  10  21  36  55  78 105 140 181 223 268 319
#
# _framework density 18.131824999999999
#
# number of rings (size 3 to 8) (size 9 to 14) (size 15 to 20)
#    0.000    2.000    1.250    2.625    0.000    4.500 
#    0.000    0.000    0.000    4.500    0.000    5.250 
#    0.000    0.000    0.000    0.000    0.000    0.000 
#
# Total GULP energy -534539.890247 kJ/mol
# GULP energy per Si atom -5568.123857 kJ/mol
# Density = 1.809056 g / cm^3
# Si number density = 18.131825 Si / 1000 Ang^3
#
#
#
# Elastic Constant Matrix: (Units=GPa)
#
#
# Indices 1 2 3 4 5 6 
#
# 1 59.7628 24.2439 8.0139 0.0000 0.0000 0.0000
# 2 24.2439 59.7628 8.0139 0.0000 0.0000 0.0000
# 3 8.0139 8.0139 75.2983 0.0000 0.0000 0.0000
# 4 0.0000 0.0000 0.0000 14.4335 0.0000 0.0000
# 5 0.0000 0.0000 0.0000 0.0000 14.4335 0.0000
# 6 0.0000 0.0000 0.0000 0.0000 0.0000 17.7594
#
#
#
# Elastic Compliance Matrix: (Units=1/GPa)
#
#
# Indices 1 2 3 4 5 6 
#
# 1 0.020152 -0.008002 -0.001293 0.000000 0.000000 0.000000
# 2 -0.008002 0.020152 -0.001293 0.000000 0.000000 0.000000
# 3 -0.001293 -0.001293 0.013556 0.000000 0.000000 0.000000
# 4 0.000000 0.000000 0.000000 0.069283 0.000000 0.000000
# 5 0.000000 0.000000 0.000000 0.000000 0.069283 0.000000
# 6 0.000000 0.000000 0.000000 0.000000 0.000000 0.056308
#
#
# Mechanical properties :
#
#
# Convention : Reuss Voigt Hill
#
# Bulk Modulus (GPa) = 30.59583 30.59636 30.59609
# Shear Modulus (GPa) = 17.80592 19.62878 18.71735
#
# Velocity S-wave (km/s) = 3.13713 3.29380 3.21642
# Velocity P-wave (km/s) = 5.48022 5.60147 5.54118
#
# Compressibility (1/GPa) = 0.03268419
#
# Stress axis : x y z
#
# Youngs Moduli (GPa) = 49.62215 49.62215 73.76932
#
# Poissons Ratio (x) = 0.39706 0.09540
# Poissons Ratio (y) = 0.39706 0.09540
# Poissons Ratio (z) = 0.06417 0.06417
#
# Static dielectric constant tensor:
#      x y z
#    x 1.636520 0.000000 0.000000 
#    y 0.000000 1.636520 0.000000 
#    z 0.000000 0.000000 1.644240 
# 
# From -- ./inp_files/3534.got.cif
#   From: 2010.05.17/outbox.cif.g08.bks.cpg/sg186_2_cif.got.tgz:3534.got - 2010.05.20 12:07:08.
