data_PCOD9585094
_publ_section_title
;
Structure prediction by ZEFSAII (Michael W. Deem and Ramdas Pophale) SiO2 
 PCOD9585094
Probable space group: P 6 C C
;
_chemical_formula_sum "Si O2"
_cell_formula_units_Z 96
_cell_length_a 17.927615
_cell_length_b 17.927615
_cell_length_c 17.455299
_cell_angle_alpha 90.000000
_cell_angle_beta 90.000000
_cell_angle_gamma 120.000000
_cell_volume 4858.508403
_symmetry_space_group_name_H-M "P 6 C C"
_symmetry_group_IT_number 184
_symmetry_cell_setting 'hexagonal'
loop_
_space_group_symop_operation_xyz
x,y,z
x-y,x,z
-y,x-y,z
-x,-y,z
-x+y,-x,z
y,-x+y,z
-x+y,y,1/2+z
x,x-y,1/2+z
-y,-x,1/2+z
y,x,1/2+z
x-y,-y,1/2+z
-x,-x+y,1/2+z
loop_
_atom_site_type_symbol
_atom_site_label
_atom_site_fract_x
_atom_site_fract_y
_atom_site_fract_z
Si Si1 0.485027 0.156747 0.628080
Si Si2 0.300391 0.082545 0.591374
Si Si3 0.166864 0.511953 0.646820
Si Si4 0.558106 0.915131 0.803788
Si Si5 0.882223 0.379416 0.319528
Si Si6 0.752003 0.673108 0.170914
Si Si7 0.052261 0.854618 0.438509
Si Si8 0.798014 0.635072 0.339078
O O1 0.398950 0.106512 0.577773
O O2 0.569154 0.152130 0.606381
O O3 0.510918 0.257089 0.628071
O O4 0.459472 0.118995 0.715409
O O5 0.304268 0.169435 0.615671
O O6 0.236884 0.048106 0.520541
O O7 0.268414 0.017547 0.663430
O O8 0.166988 0.526612 0.738123
O O9 0.088430 0.415044 0.637817
O O10 0.466006 0.883570 0.845524
O O11 0.614353 0.876096 0.839438
O O12 0.599119 0.018735 0.805043
O O13 0.838929 0.289808 0.364890
O O14 0.778900 0.652601 0.252113
O O15 0.094425 0.812798 0.384492
O O16 0.956052 0.836811 0.427762
#
# Coordination Sequence:
#
# PCOD9585094 Si02
#       8
#    12  12  12  12  12  12  12  12
#     4  10  17  30  53  86 122 157 196 239 296 351
#     4  11  21  39  60  85 118 156 203 245 304 383
#     4   9  17  27  49  86 122 149 188 248 286 338
#     4  10  17  31  53  86 120 156 198 250 288 359
#     4   9  18  30  50  82 123 155 196 243 299 342
#     4  10  21  36  61  89 116 156 205 247 302 367
#     4  12  27  45  66  89 121 159 204 264 330 389
#     4  11  21  38  62  94 121 163 202 259 304 366
#
# _framework density 19.759152
#
# number of rings (size 3 to 8) (size 9 to 14) (size 15 to 20)
#    0.000    1.750    5.000    2.625    1.750    1.500 
#    0.750    0.000    5.500    0.000    0.000    0.000 
#    0.000    0.000    0.000    0.000    0.000    0.000 
#
# Total GULP energy -534640.810361 kJ/mol
# GULP energy per Si atom -5569.175108 kJ/mol
# Density = 1.971418 g / cm^3
# Si number density = 19.759152 Si / 1000 Ang^3
#
#
#
# Elastic Constant Matrix: (Units=GPa)
#
#
# Indices 1 2 3 4 5 6 
#
# 1 75.6376 47.6301 9.5923 0.0000 0.0000 0.0000
# 2 47.6301 75.6376 9.5923 0.0000 0.0000 0.0000
# 3 9.5923 9.5923 11.6503 0.0000 0.0000 0.0000
# 4 0.0000 0.0000 0.0000 13.7108 0.0000 0.0000
# 5 0.0000 0.0000 0.0000 0.0000 13.7108 0.0000
# 6 0.0000 0.0000 0.0000 0.0000 0.0000 14.0038
#
#
#
# Elastic Compliance Matrix: (Units=1/GPa)
#
#
# Indices 1 2 3 4 5 6 
#
# 1 0.022505 -0.013200 -0.007661 0.000000 0.000000 0.000000
# 2 -0.013200 0.022505 -0.007661 0.000000 0.000000 0.000000
# 3 -0.007661 -0.007661 0.098450 0.000000 0.000000 0.000000
# 4 0.000000 0.000000 0.000000 0.072935 0.000000 0.000000
# 5 0.000000 0.000000 0.000000 0.000000 0.072935 0.000000
# 6 0.000000 0.000000 0.000000 0.000000 0.000000 0.071409
#
#
# Mechanical properties :
#
#
# Convention : Reuss Voigt Hill
#
# Bulk Modulus (GPa) = 11.57205 32.95054 22.26130
# Shear Modulus (GPa) = 11.19600 14.69247 12.94424
#
# Velocity S-wave (km/s) = 2.38297 2.72982 2.56227
# Velocity P-wave (km/s) = 3.66615 5.16219 4.47710
#
# Compressibility (1/GPa) = 0.08641511
#
# Stress axis : x y z
#
# Youngs Moduli (GPa) = 44.43514 44.43514 10.15747
#
# Poissons Ratio (x) = 0.58654 0.07782
# Poissons Ratio (y) = 0.58654 0.07782
# Poissons Ratio (z) = 0.34042 0.34042
#
# Static dielectric constant tensor:
#      x y z
#    x 1.725810 0.000000 0.000000 
#    y 0.000000 1.725810 0.000000 
#    z 0.000000 0.000000 1.715660 
# 
# From -- ./inp_files/1296.got.cif
#   From: 2010.05.17/outbox.cif.g08.bks.cpg/sg184_cif.got.tgz:1296.got - 2010.05.20 12:04:40.
