data_PCOD9585435
_publ_section_title
;
Structure prediction by ZEFSAII (Michael W. Deem and Ramdas Pophale) SiO2 
 PCOD9585435
Probable space group: P -6 M 2
;
_chemical_formula_sum "Si O2"
_cell_formula_units_Z 60
_cell_length_a 21.893393
_cell_length_b 21.893393
_cell_length_c 9.157782
_cell_angle_alpha 90.000000
_cell_angle_beta 90.000000
_cell_angle_gamma 120.000000
_cell_volume 3801.430708
_symmetry_space_group_name_H-M "P -6 M 2"
_symmetry_group_IT_number 187
_symmetry_cell_setting 'hexagonal'
loop_
_space_group_symop_operation_xyz
x,y,z
-x+y,-x,-z
-y,x-y,z
x,y,-z
-x+y,-x,z
-y,x-y,-z
-y,-x,-z
-x+y,y,-z
x,x-y,-z
-x+y,y,z
x,x-y,z
-y,-x,z
loop_
_atom_site_type_symbol
_atom_site_label
_atom_site_fract_x
_atom_site_fract_y
_atom_site_fract_z
Si Si1 0.158778 0.454723 0.825309
Si Si2 0.784861 0.074375 0.674261
Si Si3 0.156976 0.578488 0.326815
Si Si4 0.495828 0.504172 0.171304
Si Si5 0.141342 0.142196 0.173592
Si Si6 0.993748 0.361305 0.827769
O O1 0.214517 0.429034 0.793509
O O2 0.183534 0.528840 0.744800
O O3 0.077277 0.399739 0.786573
O O4 0.159370 0.465994 0.000000
O O5 0.782487 0.069813 0.500000
O O6 0.847087 0.152914 0.715996
O O7 0.808735 0.021315 0.740161
O O8 0.708986 0.052359 0.738337
O O9 0.165975 0.582988 0.500000
O O10 0.074784 0.537392 0.278767
O O11 0.579292 0.550382 0.192222
O O12 0.483312 0.516688 0.000000
O O13 0.123420 0.061710 0.196309
O O14 0.075479 0.150958 0.216677
O O15 0.153717 0.156585 0.000000
O O16 0.989213 0.344549 0.000000
#
# Coordination Sequence:
#
# PCOD9585435 Si02
#       6
#    12  12   6   6  12  12
#     4   9  18  33  50  66  88 122 162 199 240 288
#     4  10  21  34  46  66  99 132 158 188 230 282
#     4  10  18  28  44  66  92 118 148 192 238 276
#     4   8  16  32  52  72  92 114 144 182 224 274
#     4   9  17  30  48  67  87 117 162 212 254 289
#     4   9  17  31  52  74  94 118 152 194 234 275
#
# _framework density 15.783531
#
# number of rings (size 3 to 8) (size 9 to 14) (size 15 to 20)
#    0.000    2.800    0.000    2.900    0.000    6.800 
#    0.600    2.000    0.000    1.200    0.000    0.000 
#    1.000    0.000    0.600    0.000    0.800    0.000 
#
# Total GULP energy -334224.218869 kJ/mol
# GULP energy per Si atom -5570.403648 kJ/mol
# Density = 1.574761 g / cm^3
# Si number density = 15.783531 Si / 1000 Ang^3
#
#
#
# Elastic Constant Matrix: (Units=GPa)
#
#
# Indices 1 2 3 4 5 6 
#
# 1 85.4071 64.8298 38.4995 0.0000 0.0003 0.0000
# 2 64.8298 85.4071 38.4995 0.0000 -0.0003 0.0000
# 3 38.4995 38.4995 37.6084 0.0000 0.0000 0.0000
# 4 0.0000 0.0000 0.0000 17.0042 0.0000 -0.0003
# 5 0.0003 -0.0003 0.0000 0.0000 17.0042 0.0000
# 6 0.0000 0.0000 0.0000 -0.0003 0.0000 10.2887
#
#
#
# Elastic Compliance Matrix: (Units=1/GPa)
#
#
# Indices 1 2 3 4 5 6 
#
# 1 0.031300 -0.017297 -0.014335 0.000000 -0.000001 0.000000
# 2 -0.017297 0.031300 -0.014335 0.000000 0.000001 0.000000
# 3 -0.014335 -0.014335 0.055938 0.000000 0.000000 0.000000
# 4 0.000000 0.000000 0.000000 0.058809 0.000000 0.000002
# 5 -0.000001 0.000001 0.000000 0.000000 0.058809 0.000000
# 6 0.000000 0.000000 0.000000 0.000002 0.000000 0.097194
#
#
# Mechanical properties :
#
#
# Convention : Reuss Voigt Hill
#
# Bulk Modulus (GPa) = 37.58623 54.67558 46.13090
# Shear Modulus (GPa) = 11.51671 13.29903 12.40787
#
# Velocity S-wave (km/s) = 2.70416 2.90589 2.80684
# Velocity P-wave (km/s) = 5.79787 6.78049 6.30834
#
# Compressibility (1/GPa) = 0.02660549
#
# Stress axis : x y z
#
# Youngs Moduli (GPa) = 31.94884 31.94884 17.87683
#
# Poissons Ratio (x) = 0.55262 0.25626
# Poissons Ratio (y) = 0.55262 0.25626
# Poissons Ratio (z) = 0.45798 0.45798
#
# Static dielectric constant tensor:
#      x y z
#    x 1.528980 0.000000 0.000000 
#    y 0.000000 1.528980 0.000000 
#    z 0.000000 0.000000 1.523180 
# 
# From -- ./inp_files/664.got.cif
#   From: 2010.05.17/outbox.cif.g08.bks.cpg/sg187_1_cif.got.tgz:664.got - 2010.05.20 12:09:04.
