data_PCOD9585964
_publ_section_title
;
Structure prediction by ZEFSAII (Michael W. Deem and Ramdas Pophale) SiO2 
 PCOD9585964
Probable space group: P -6 C 2
;
_chemical_formula_sum "Si O2"
_cell_formula_units_Z 64
_cell_length_a 16.470193
_cell_length_b 16.470193
_cell_length_c 16.394930
_cell_angle_alpha 90.000000
_cell_angle_beta 90.000000
_cell_angle_gamma 120.000000
_cell_volume 3851.568047
_symmetry_space_group_name_H-M "P -6 C 2"
_symmetry_group_IT_number 188
_symmetry_cell_setting 'hexagonal'
loop_
_space_group_symop_operation_xyz
x,y,z
-x+y,-x,1/2-z
-y,x-y,z
x,y,1/2-z
-x+y,-x,z
-y,x-y,1/2-z
-y,-x,-z
-x+y,y,-z
x,x-y,-z
-x+y,y,1/2+z
x,x-y,1/2+z
-y,-x,1/2+z
loop_
_atom_site_type_symbol
_atom_site_label
_atom_site_fract_x
_atom_site_fract_y
_atom_site_fract_z
Si Si1 0.158674 0.968845 0.344264
Si Si2 0.702879 0.071509 0.847230
Si Si3 0.666668 0.333334 0.347143
Si Si4 0.967283 0.143662 0.918056
Si Si5 0.557777 0.437779 0.403466
Si Si6 0.370147 0.109225 0.847661
O O1 0.144887 0.935764 0.250000
O O2 0.074917 0.899017 0.402613
O O3 0.263167 0.997215 0.375075
O O4 0.160084 0.067491 0.348233
O O5 0.704774 0.067650 0.750000
O O6 0.604761 0.060453 0.872905
O O7 0.785618 0.176726 0.869533
O O8 0.666667 0.333334 0.250000
O O9 0.624582 0.396963 0.376793
O O10 0.953903 0.232099 0.901084
O O11 0.914388 0.085613 0.000000
O O12 0.557789 0.442212 0.500000
O O13 0.456398 0.362069 0.369295
O O14 0.352503 0.096562 0.750000
#
# Coordination Sequence:
#
# PCOD9585964 Si02
#       6
#    12  12   4  12  12  12
#     4  10  20  36  55  73 105 144 184 222 270 338
#     4   9  19  34  52  72 101 143 182 219 268 328
#     4  12  22  32  49  66  97 140 184 210 259 326
#     4  11  22  34  55  81 107 139 181 232 280 326
#     4  12  23  32  50  75 103 140 179 232 270 318
#     4  10  21  35  52  73 106 144 179 221 273 336
#
# _framework density 16.616607999999999
#
# number of rings (size 3 to 8) (size 9 to 14) (size 15 to 20)
#    0.000    1.500    1.875    6.000    5.250    0.000 
#    0.000    0.000    0.000    0.000    0.000    0.000 
#    1.875    0.000    2.250    0.000    0.750    0.000 
#
# Total GULP energy -356992.235164 kJ/mol
# GULP energy per Si atom -5578.003674 kJ/mol
# Density = 1.657879 g / cm^3
# Si number density = 16.616608 Si / 1000 Ang^3
#
#
#
# Elastic Constant Matrix: (Units=GPa)
#
#
# Indices 1 2 3 4 5 6 
#
# 1 116.2094 53.4762 33.0801 -0.0001 0.0000 -0.0001
# 2 53.4762 116.2088 33.0803 0.0001 0.0000 -0.0002
# 3 33.0801 33.0803 70.7822 0.0000 0.0000 0.0001
# 4 -0.0001 0.0001 0.0000 21.5237 0.0000 0.0000
# 5 0.0000 0.0000 0.0000 0.0000 21.5238 0.0000
# 6 -0.0001 -0.0002 0.0001 0.0000 0.0000 31.3665
#
#
#
# Elastic Compliance Matrix: (Units=1/GPa)
#
#
# Indices 1 2 3 4 5 6 
#
# 1 0.011573 -0.004367 -0.003368 0.000000 0.000000 0.000000
# 2 -0.004367 0.011574 -0.003368 0.000000 0.000000 0.000000
# 3 -0.003368 -0.003368 0.017276 0.000000 0.000000 0.000000
# 4 0.000000 0.000000 0.000000 0.046460 0.000000 0.000000
# 5 0.000000 0.000000 0.000000 0.000000 0.046460 0.000000
# 6 0.000000 0.000000 0.000000 0.000000 0.000000 0.031881
#
#
# Mechanical properties :
#
#
# Convention : Reuss Voigt Hill
#
# Bulk Modulus (GPa) = 54.89390 60.27486 57.58438
# Shear Modulus (GPa) = 25.83942 27.12039 26.47990
#
# Velocity S-wave (km/s) = 3.94767 4.04434 3.99630
# Velocity P-wave (km/s) = 7.34071 7.62637 7.48491
#
# Compressibility (1/GPa) = 0.01821696
#
# Stress axis : x y z
#
# Youngs Moduli (GPa) = 86.40448 86.40379 57.88423
#
# Poissons Ratio (x) = 0.37733 0.19495
# Poissons Ratio (y) = 0.37734 0.19495
# Poissons Ratio (z) = 0.29100 0.29101
#
# Static dielectric constant tensor:
#      x y z
#    x 1.578280 0.000000 0.000000 
#    y 0.000000 1.578280 0.000000 
#    z 0.000000 0.000000 1.610580 
# 
# From -- ./inp_files/3064.got.cif
#   From: 2010.05.17/outbox.cif.g08.bks.cpg/sg188_2_cif.got.tgz:3064.got - 2010.05.20 12:11:46.
