data_PCOD9585811
_publ_section_title
;
Structure prediction by ZEFSAII (Michael W. Deem and Ramdas Pophale) SiO2 
 PCOD9585811
Probable space group: P -6 M 2
;
_chemical_formula_sum "Si O2"
_cell_formula_units_Z 84
_cell_length_a 18.181339
_cell_length_b 18.181339
_cell_length_c 22.754698
_cell_angle_alpha 90.000000
_cell_angle_beta 90.000000
_cell_angle_gamma 120.000000
_cell_volume 6514.085232
_symmetry_space_group_name_H-M "P -6 M 2"
_symmetry_group_IT_number 187
_symmetry_cell_setting 'hexagonal'
loop_
_space_group_symop_operation_xyz
x,y,z
-x+y,-x,-z
-y,x-y,z
x,y,-z
-x+y,-x,z
-y,x-y,-z
-y,-x,-z
-x+y,y,-z
x,x-y,-z
-x+y,y,z
x,x-y,z
-y,-x,z
loop_
_atom_site_type_symbol
_atom_site_label
_atom_site_fract_x
_atom_site_fract_y
_atom_site_fract_z
Si Si1 0.840935 0.333935 0.701051
Si Si2 0.000560 0.171384 0.757492
Si Si3 0.000815 0.829251 0.101404
Si Si4 0.000627 0.173582 0.430461
Si Si5 0.310470 0.066348 0.335238
Si Si6 0.493718 0.159836 0.159606
Si Si7 0.356346 0.088873 0.064851
O O1 0.843865 0.421933 0.687454
O O2 0.746358 0.253643 0.689998
O O3 0.910097 0.317857 0.668323
O O4 0.857174 0.332268 0.771047
O O5 0.089546 0.179092 0.740603
O O6 0.999724 0.180940 0.827738
O O7 0.981426 0.236052 0.722036
O O8 0.923093 0.076908 0.743369
O O9 0.088824 0.911176 0.084491
O O10 0.921578 0.843156 0.086705
O O11 0.982700 0.741025 0.073832
O O12 0.001145 0.190405 0.500000
O O13 0.921512 0.078489 0.419805
O O14 0.983079 0.236458 0.391179
O O15 0.088643 0.177285 0.415398
O O16 0.316262 0.158131 0.335014
O O17 0.579261 0.158521 0.146619
O O18 0.507915 0.253958 0.149140
O O19 0.417591 0.096349 0.117612
O O20 0.354473 0.177237 0.066990
O O21 0.386996 0.082383 0.000000
#
# Coordination Sequence:
#
# PCOD9585811 Si02
#       7
#    12  12  12  12  12  12  12
#     4   9  16  26  40  56  72  91 118 153 190 224
#     4   9  15  22  33  50  72  96 121 149 180 214
#     4   9  16  25  36  49  66  91 124 158 186 210
#     4   9  16  25  37  54  78 108 138 162 180 201
#     4   9  16  24  35  52  73  97 124 153 185 218
#     4   9  16  26  40  56  72  90 114 145 181 222
#     4   9  17  27  36  47  66  91 117 147 183 218
#
# _framework density 12.895133
#
# number of rings (size 3 to 8) (size 9 to 14) (size 15 to 20)
#    0.000    3.000    0.000    2.000    0.000    6.857 
#    0.000    1.429    0.000    2.143    0.000    0.000 
#    0.000    1.143    0.000    3.857    0.000   30.714 
#
# Total GULP energy -467631.360488 kJ/mol
# GULP energy per Si atom -5567.040006 kJ/mol
# Density = 1.286578 g / cm^3
# Si number density = 12.895133 Si / 1000 Ang^3
#
#
#
# Elastic Constant Matrix: (Units=GPa)
#
#
# Indices 1 2 3 4 5 6 
#
# 1 68.0702 34.4196 28.6127 0.0000 -0.0001 0.0000
# 2 34.4196 68.0702 28.6127 0.0000 0.0001 0.0000
# 3 28.6127 28.6127 34.1527 0.0000 0.0000 0.0000
# 4 0.0000 0.0000 0.0000 11.9007 0.0000 0.0001
# 5 -0.0001 0.0001 0.0000 0.0000 11.9007 0.0000
# 6 0.0000 0.0000 0.0000 0.0001 0.0000 16.8253
#
#
#
# Elastic Compliance Matrix: (Units=1/GPa)
#
#
# Indices 1 2 3 4 5 6 
#
# 1 0.024025 -0.005692 -0.015359 0.000000 0.000000 0.000000
# 2 -0.005692 0.024025 -0.015359 0.000000 0.000000 0.000000
# 3 -0.015359 -0.015359 0.055015 0.000000 0.000000 0.000000
# 4 0.000000 0.000000 0.000000 0.084029 0.000000 0.000000
# 5 0.000000 0.000000 0.000000 0.000000 0.084029 0.000000
# 6 0.000000 0.000000 0.000000 0.000000 0.000000 0.059434
#
#
# Mechanical properties :
#
#
# Convention : Reuss Voigt Hill
#
# Bulk Modulus (GPa) = 33.06325 39.28698 36.17512
# Shear Modulus (GPa) = 12.09312 13.36857 12.73084
#
# Velocity S-wave (km/s) = 3.06568 3.22330 3.14548
# Velocity P-wave (km/s) = 6.18280 6.66225 6.42699
#
# Compressibility (1/GPa) = 0.03024506
#
# Stress axis : x y z
#
# Youngs Moduli (GPa) = 41.62345 41.62345 18.17678
#
# Poissons Ratio (x) = 0.23693 0.27918
# Poissons Ratio (y) = 0.23693 0.27918
# Poissons Ratio (z) = 0.63929 0.63929
#
# Static dielectric constant tensor:
#      x y z
#    x 1.406240 0.000000 0.000000 
#    y 0.000000 1.406240 0.000000 
#    z 0.000000 0.000000 1.448330 
# 
# From -- ./inp_files/3690.got.cif
#   From: 2010.05.17/outbox.cif.g08.bks.cpg/sg187_2_cif.got.tgz:3690.got - 2010.05.20 12:09:04.
