data_PCOD9585047
_publ_section_title
;
Structure prediction by ZEFSAII (Michael W. Deem and Ramdas Pophale) SiO2 
 PCOD9585047
Probable space group: P 6 M M
;
_chemical_formula_sum "Si O2"
_cell_formula_units_Z 84
_cell_length_a 20.694054
_cell_length_b 20.694054
_cell_length_c 13.588148
_cell_angle_alpha 90.000000
_cell_angle_beta 90.000000
_cell_angle_gamma 120.000000
_cell_volume 5039.437417
_symmetry_space_group_name_H-M "P 6 M M"
_symmetry_group_IT_number 183
_symmetry_cell_setting 'hexagonal'
loop_
_space_group_symop_operation_xyz
x,y,z
x-y,x,z
-y,x-y,z
-x,-y,z
-x+y,-x,z
y,-x+y,z
-x+y,y,z
x,x-y,z
-y,-x,z
y,x,z
x-y,-y,z
-x,-x+y,z
loop_
_atom_site_type_symbol
_atom_site_label
_atom_site_fract_x
_atom_site_fract_y
_atom_site_fract_z
Si Si1 0.084343 0.375582 0.205310
Si Si2 0.185277 0.520147 0.104030
Si Si3 0.335295 0.815621 0.723015
Si Si4 0.618135 0.088678 0.524673
Si Si5 0.331284 0.242085 0.422841
Si Si6 0.080962 0.775869 0.995317
Si Si7 0.552066 0.913999 0.914333
O O1 0.143865 0.461958 0.191728
O O2 0.092730 0.339830 0.304523
O O3 0.000000 0.360643 0.203836
O O4 0.091882 0.336401 0.106967
O O5 0.257997 0.515994 0.074691
O O6 0.205864 0.602932 0.130785
O O7 0.128956 0.493040 0.011603
O O8 0.391708 0.783416 0.721524
O O9 0.250861 0.749140 0.729114
O O10 0.351598 0.864251 0.624576
O O11 0.357461 0.869352 0.817220
O O12 0.552324 0.104647 0.484503
O O13 0.690871 0.102865 0.461995
O O14 0.574337 0.000000 0.545499
O O15 0.317772 0.158886 0.452592
O O16 0.270467 0.270467 0.447093
O O17 0.144018 0.855983 0.967854
O O18 0.085423 0.715034 0.927687
O O19 0.000000 0.764850 0.988799
O O20 0.573834 0.000000 0.912449
#
# Coordination Sequence:
#
# PCOD9585047 Si02
#       7
#    12  12  12  12  12  12  12
#     4   9  18  31  49  69  89 117 153 194 232 269
#     4  11  21  32  45  64  93 124 154 187 228 278
#     4  11  21  33  48  66  91 121 153 187 228 279
#     4   9  19  34  51  71  95 124 159 200 242 283
#     4  10  19  33  53  76 101 129 164 204 247 294
#     4   9  16  28  45  66  90 115 145 179 219 263
#     4  10  20  32  48  66  85 114 151 193 233 268
#
# _framework density 16.668527000000001
#
# number of rings (size 3 to 8) (size 9 to 14) (size 15 to 20)
#    0.000    2.143    0.000    6.286    0.000    3.143 
#    0.000    2.857    0.000    0.571    0.000    0.000 
#    0.000    3.429    0.000    0.000    0.000   29.714 
#
# Total GULP energy -467842.437912 kJ/mol
# GULP energy per Si atom -5569.552832 kJ/mol
# Density = 1.663059 g / cm^3
# Si number density = 16.668527 Si / 1000 Ang^3
#
#
#
# Elastic Constant Matrix: (Units=GPa)
#
#
# Indices 1 2 3 4 5 6 
#
# 1 90.6752 69.4051 13.8042 0.0000 0.0000 0.0000
# 2 69.4051 90.6752 13.8042 0.0000 0.0000 0.0000
# 3 13.8042 13.8042 25.8948 0.0000 0.0000 0.0000
# 4 0.0000 0.0000 0.0000 14.6983 0.0000 0.0000
# 5 0.0000 0.0000 0.0000 0.0000 14.6983 0.0000
# 6 0.0000 0.0000 0.0000 0.0000 0.0000 10.6350
#
#
#
# Elastic Compliance Matrix: (Units=1/GPa)
#
#
# Indices 1 2 3 4 5 6 
#
# 1 0.026947 -0.020068 -0.003667 0.000000 0.000000 0.000000
# 2 -0.020068 0.026947 -0.003667 0.000000 0.000000 0.000000
# 3 -0.003667 -0.003667 0.042528 0.000000 0.000000 0.000000
# 4 0.000000 0.000000 0.000000 0.068035 0.000000 0.000000
# 5 0.000000 0.000000 0.000000 0.000000 0.068035 0.000000
# 6 0.000000 0.000000 0.000000 0.000000 0.000000 0.094029
#
#
# Mechanical properties :
#
#
# Convention : Reuss Voigt Hill
#
# Bulk Modulus (GPa) = 24.02846 44.58581 34.30713
# Shear Modulus (GPa) = 12.65190 15.35510 14.00350
#
# Velocity S-wave (km/s) = 2.75804 3.03843 2.90162
# Velocity P-wave (km/s) = 4.95874 6.25427 5.64380
#
# Compressibility (1/GPa) = 0.04161732
#
# Stress axis : x y z
#
# Youngs Moduli (GPa) = 37.10997 37.10997 23.51399
#
# Poissons Ratio (x) = 0.74471 0.08623
# Poissons Ratio (y) = 0.74471 0.08623
# Poissons Ratio (z) = 0.13609 0.13609
#
# Static dielectric constant tensor:
#      x y z
#    x 1.577490 0.000000 0.000000 
#    y 0.000000 1.577490 0.000000 
#    z 0.000000 0.000000 1.547810 
# 
# From -- ./inp_files/1763.got.cif
#   From: 2010.05.17/outbox.cif.g08.bks.cpg/sg183_1_cif.got.tgz:1763.got - 2010.05.20 12:02:58.
