data_PCOD9585798
_publ_section_title
;
Structure prediction by ZEFSAII (Michael W. Deem and Ramdas Pophale) SiO2 
 PCOD9585798
Probable space group: P -6 M 2
;
_chemical_formula_sum "Si O2"
_cell_formula_units_Z 44
_cell_length_a 17.240591
_cell_length_b 17.240591
_cell_length_c 8.703980
_cell_angle_alpha 90.000000
_cell_angle_beta 90.000000
_cell_angle_gamma 120.000000
_cell_volume 2240.540582
_symmetry_space_group_name_H-M "P -6 M 2"
_symmetry_group_IT_number 187
_symmetry_cell_setting 'hexagonal'
loop_
_space_group_symop_operation_xyz
x,y,z
-x+y,-x,-z
-y,x-y,z
x,y,-z
-x+y,-x,z
-y,x-y,-z
-y,-x,-z
-x+y,y,-z
x,x-y,-z
-x+y,y,z
x,x-y,z
-y,-x,z
loop_
_atom_site_type_symbol
_atom_site_label
_atom_site_fract_x
_atom_site_fract_y
_atom_site_fract_z
Si Si1 0.842623 0.332689 0.819943
Si Si2 0.896016 0.103984 0.315892
Si Si3 0.394717 0.962506 0.681846
Si Si4 0.000000 0.000000 0.686148
Si Si5 0.226906 0.948960 0.183059
O O1 0.808159 0.404080 0.812480
O O2 0.764629 0.235372 0.773038
O O3 0.931820 0.374135 0.720490
O O4 0.865661 0.329339 0.000000
O O5 0.893896 0.106105 0.500000
O O6 0.948366 0.051635 0.264693
O O7 0.956175 0.204063 0.252994
O O8 0.381649 0.948420 0.500000
O O9 0.466632 0.933264 0.732766
O O10 0.300138 0.922674 0.765327
O O11 0.000000 0.000000 0.500000
O O12 0.128900 0.871101 0.235494
O O13 0.226721 0.955392 0.000000
#
# Coordination Sequence:
#
# PCOD9585798 Si02
#       5
#    12   6  12   2  12
#     4   9  17  30  49  73 103 141 184 229 274 322
#     4  11  21  37  59  87 123 165 209 251 297 354
#     4  10  22  39  58  81 110 147 191 240 292 344
#     4   9  18  33  55  83 121 165 205 245 295 342
#     4  11  24  40  60  88 119 155 198 244 297 358
#
# _framework density 19.638117999999999
#
# number of rings (size 3 to 8) (size 9 to 14) (size 15 to 20)
#    0.000    1.909    1.364    2.318    1.909    4.909 
#    0.000    0.000    0.000    2.182    0.000    0.000 
#    0.000    0.000    0.000    0.000    0.000    0.000 
#
# Total GULP energy -245709.647877 kJ/mol
# GULP energy per Si atom -5584.310179 kJ/mol
# Density = 1.959342 g / cm^3
# Si number density = 19.638118 Si / 1000 Ang^3
#
#
#
# Elastic Constant Matrix: (Units=GPa)
#
#
# Indices 1 2 3 4 5 6 
#
# 1 75.7792 19.0905 17.3611 0.0000 0.0001 0.0000
# 2 19.0905 75.7792 17.3611 0.0000 -0.0001 0.0000
# 3 17.3611 17.3611 42.5491 0.0000 0.0000 0.0000
# 4 0.0000 0.0000 0.0000 25.0708 0.0000 -0.0001
# 5 0.0001 -0.0001 0.0000 0.0000 25.0708 0.0000
# 6 0.0000 0.0000 0.0000 -0.0001 0.0000 28.3444
#
#
#
# Elastic Compliance Matrix: (Units=1/GPa)
#
#
# Indices 1 2 3 4 5 6 
#
# 1 0.015016 -0.002624 -0.005056 0.000000 0.000000 0.000000
# 2 -0.002624 0.015016 -0.005056 0.000000 0.000000 0.000000
# 3 -0.005056 -0.005056 0.027628 0.000000 0.000000 0.000000
# 4 0.000000 0.000000 0.000000 0.039887 0.000000 0.000000
# 5 0.000000 0.000000 0.000000 0.000000 0.039887 0.000000
# 6 0.000000 0.000000 0.000000 0.000000 0.000000 0.035280
#
#
# Mechanical properties :
#
#
# Convention : Reuss Voigt Hill
#
# Bulk Modulus (GPa) = 31.06853 33.52585 32.29719
# Shear Modulus (GPa) = 23.93310 25.05018 24.49164
#
# Velocity S-wave (km/s) = 3.49478 3.57541 3.53533
# Velocity P-wave (km/s) = 5.66918 5.84411 5.75731
#
# Compressibility (1/GPa) = 0.03218691
#
# Stress axis : x y z
#
# Youngs Moduli (GPa) = 66.59691 66.59691 36.19499
#
# Poissons Ratio (x) = 0.17478 0.18300
# Poissons Ratio (y) = 0.17478 0.18300
# Poissons Ratio (z) = 0.33671 0.33671
#
# Static dielectric constant tensor:
#      x y z
#    x 1.707750 0.000000 0.000000 
#    y 0.000000 1.707750 0.000000 
#    z 0.000000 0.000000 1.660900 
# 
# From -- ./inp_files/374.got.cif
#   From: 2010.05.17/outbox.cif.g08.bks.cpg/sg187_1_cif.got.tgz:374.got - 2010.05.20 12:09:04.
