data_PCOD9585329
_publ_section_title
;
Structure prediction by ZEFSAII (Michael W. Deem and Ramdas Pophale) SiO2 
 PCOD9585329
Probable space group: P 63 M C
;
_chemical_formula_sum "Si O2"
_cell_formula_units_Z 72
_cell_length_a 22.234567
_cell_length_b 22.234567
_cell_length_c 8.711266
_cell_angle_alpha 90.000000
_cell_angle_beta 90.000000
_cell_angle_gamma 120.000000
_cell_volume 3729.660144
_symmetry_space_group_name_H-M "P 63 M C"
_symmetry_group_IT_number 186
_symmetry_cell_setting 'hexagonal'
loop_
_space_group_symop_operation_xyz
x,y,z
x-y,x,1/2+z
-y,x-y,z
-x,-y,1/2+z
-x+y,-x,z
y,-x+y,1/2+z
-x+y,y,z
x,x-y,z
-y,-x,z
y,x,1/2+z
x-y,-y,1/2+z
-x,-x+y,1/2+z
loop_
_atom_site_type_symbol
_atom_site_label
_atom_site_fract_x
_atom_site_fract_y
_atom_site_fract_z
Si Si1 0.469132 0.802652 0.667150
Si Si2 0.696397 0.778161 0.964088
Si Si3 0.608499 0.700701 0.495825
Si Si4 0.544025 0.902985 0.914425
Si Si5 0.065472 0.262614 0.325473
Si Si6 0.978164 0.588078 0.703563
O O1 0.408886 0.817771 0.614507
O O2 0.444677 0.722339 0.656285
O O3 0.540887 0.845502 0.572320
O O4 0.490158 0.830157 0.841823
O O5 0.695076 0.847538 0.918384
O O6 0.620329 0.711818 0.924428
O O7 0.758347 0.773580 0.876452
O O8 0.711252 0.784293 0.148465
O O9 0.673000 0.772573 0.445190
O O10 0.589144 0.659114 0.336492
O O11 0.633202 0.659061 0.607416
O O12 0.547199 0.960175 0.795144
O O13 0.534106 0.928200 0.078855
O O14 0.113204 0.226408 0.335901
#
# Coordination Sequence:
#
# PCOD9585329 Si02
#       6
#    12  12  12  12  12  12
#     4  11  25  42  59  79 107 150 201 244 288 339
#     4  11  21  34  55  85 119 150 185 231 280 334
#     4  10  17  35  58  87 113 146 179 226 285 346
#     4  10  17  35  58  87 113 146 179 226 285 346
#     4  11  21  34  55  85 119 150 185 231 280 334
#     4   9  16  30  60  85 124 134 168 226 276 353
#
# _framework density 19.304708000000002
#
# number of rings (size 3 to 8) (size 9 to 14) (size 15 to 20)
#    0.000    1.667    5.000    1.167    2.333    0.667 
#    0.000   14.167    0.000    0.333    0.000    2.333 
#    0.000    0.000    0.000    0.000    0.000    0.000 
#
# Total GULP energy -400804.273504 kJ/mol
# GULP energy per Si atom -5566.726021 kJ/mol
# Density = 1.926077 g / cm^3
# Si number density = 19.304708 Si / 1000 Ang^3
#
#
#
# Elastic Constant Matrix: (Units=GPa)
#
#
# Indices 1 2 3 4 5 6 
#
# 1 26.5976 114.0526 15.5915 0.0000 0.0000 0.0000
# 2 114.0526 26.5976 15.5915 0.0000 0.0000 0.0000
# 3 15.5915 15.5915 95.8854 0.0000 0.0000 0.0000
# 4 0.0000 0.0000 0.0000 -14.0211 0.0000 0.0000
# 5 0.0000 0.0000 0.0000 0.0000 -14.0211 0.0000
# 6 0.0000 0.0000 0.0000 0.0000 0.0000 -43.7275
#
#
#
# Elastic Compliance Matrix: (Units=1/GPa)
#
#
# Indices 1 2 3 4 5 6 
#
# 1 -0.002029 0.009405 -0.001199 0.000000 0.000000 0.000000
# 2 0.009405 -0.002029 -0.001199 0.000000 0.000000 0.000000
# 3 -0.001199 -0.001199 0.010819 0.000000 0.000000 0.000000
# 4 0.000000 0.000000 0.000000 -0.071321 0.000000 0.000000
# 5 0.000000 0.000000 0.000000 0.000000 -0.071321 0.000000
# 6 0.000000 0.000000 0.000000 0.000000 0.000000 -0.022869
#
#
# Mechanical properties :
#
#
# Convention : Reuss Voigt Hill
#
# Bulk Modulus (GPa) = 48.13874 48.83908 48.48891
# Shear Modulus (GPa) = -30.14977 -14.09762 -22.12370
#
# Velocity S-wave (km/s) = -3.95623 -2.70528 -3.38897
# Velocity P-wave (km/s) = 2.03013 3.94917 3.13985
#
# Compressibility (1/GPa) = 0.02077329
#
# Stress axis : x y z
#
# Youngs Moduli (GPa) = -492.76690 -492.76690 92.42866
#
# Poissons Ratio (x) = 4.63452 0.11085
# Poissons Ratio (y) = 4.63452 0.11085
# Poissons Ratio (z) = -0.59099 -0.59099
#
# Static dielectric constant tensor:
#      x y z
#    x 1.736330 0.000000 0.000000 
#    y 0.000000 1.736330 0.000000 
#    z 0.000000 0.000000 1.710620 
# 
# From -- ./inp_files/1230.got.cif
#   From: 2010.05.17/outbox.cif.g08.bks.cpg/sg186_1_cif.got.tgz:1230.got - 2010.05.20 12:07:08.
