data_PCOD9585958
_publ_section_title
;
Structure prediction by ZEFSAII (Michael W. Deem and Ramdas Pophale) SiO2 
 PCOD9585958
Probable space group: P -6 C 2
;
_chemical_formula_sum "Si O2"
_cell_formula_units_Z 60
_cell_length_a 20.067628
_cell_length_b 20.067628
_cell_length_c 10.131264
_cell_angle_alpha 90.000000
_cell_angle_beta 90.000000
_cell_angle_gamma 120.000000
_cell_volume 3533.347465
_symmetry_space_group_name_H-M "P -6 C 2"
_symmetry_group_IT_number 188
_symmetry_cell_setting 'hexagonal'
loop_
_space_group_symop_operation_xyz
x,y,z
-x+y,-x,1/2-z
-y,x-y,z
x,y,1/2-z
-x+y,-x,z
-y,x-y,1/2-z
-y,-x,-z
-x+y,y,-z
x,x-y,-z
-x+y,y,1/2+z
x,x-y,1/2+z
-y,-x,1/2+z
loop_
_atom_site_type_symbol
_atom_site_label
_atom_site_fract_x
_atom_site_fract_y
_atom_site_fract_z
Si Si1 0.136490 0.272979 0.500000
Si Si2 0.431117 0.418639 0.004926
Si Si3 0.102328 0.474442 0.750000
Si Si4 0.963115 0.804126 0.404343
Si Si5 0.198641 0.386468 0.750000
Si Si6 0.528193 0.906341 0.750000
Si Si7 0.381889 0.131662 0.903472
O O1 0.169889 0.216727 0.464651
O O2 0.174379 0.329771 0.624208
O O3 0.394471 0.442294 0.123586
O O4 0.411042 0.333003 0.032865
O O5 0.522034 0.477966 0.000000
O O6 0.396983 0.434741 0.874445
O O7 0.157688 0.438328 0.750000
O O8 0.130387 0.565707 0.750000
O O9 0.969245 0.829526 0.250000
O O10 0.914557 0.829114 0.500000
O O11 0.916331 0.711208 0.402431
O O12 0.289210 0.444816 0.750000
O O13 0.406494 0.150515 0.750000
O O14 0.406410 0.203205 0.000000
#
# Coordination Sequence:
#
# PCOD9585958 Si02
#       7
#     6  12   6  12   6   6  12
#     4  12  24  38  60  90 114 156 208 246 300 360
#     4  10  20  36  58  80 114 152 192 238 283 348
#     4  10  20  38  55  80 117 157 200 240 306 355
#     4  10  22  39  58  82 114 147 186 237 293 347
#     4  12  22  36  60  86 120 156 200 264 306 354
#     4  10  22  34  55  88 111 153 206 246 294 355
#     4  10  20  35  56  84 114 143 176 228 287 340
#
# _framework density 16.981064
#
# number of rings (size 3 to 8) (size 9 to 14) (size 15 to 20)
#    0.000    1.600    2.000    3.600    2.800    0.000 
#    1.200    0.000    0.000    0.400    0.000    0.000 
#    0.000    0.000    0.000    0.000    0.000    0.000 
#
# Total GULP energy -334680.274631 kJ/mol
# GULP energy per Si atom -5578.004577 kJ/mol
# Density = 1.694241 g / cm^3
# Si number density = 16.981064 Si / 1000 Ang^3
#
#
#
# Elastic Constant Matrix: (Units=GPa)
#
#
# Indices 1 2 3 4 5 6 
#
# 1 112.4645 63.8025 60.1742 0.0000 0.0000 0.0000
# 2 63.8025 112.4645 60.1742 0.0000 0.0000 0.0000
# 3 60.1742 60.1742 159.8574 0.0000 0.0000 0.0000
# 4 0.0000 0.0000 0.0000 18.4514 0.0000 0.0000
# 5 0.0000 0.0000 0.0000 0.0000 18.4514 0.0000
# 6 0.0000 0.0000 0.0000 0.0000 0.0000 24.3310
#
#
#
# Elastic Compliance Matrix: (Units=1/GPa)
#
#
# Indices 1 2 3 4 5 6 
#
# 1 0.014093 -0.006457 -0.002874 0.000000 0.000000 0.000000
# 2 -0.006457 0.014093 -0.002874 0.000000 0.000000 0.000000
# 3 -0.002874 -0.002874 0.008419 0.000000 0.000000 0.000000
# 4 0.000000 0.000000 0.000000 0.054196 0.000000 0.000000
# 5 0.000000 0.000000 0.000000 0.000000 0.054196 0.000000
# 6 0.000000 0.000000 0.000000 0.000000 0.000000 0.041100
#
#
# Mechanical properties :
#
#
# Convention : Reuss Voigt Hill
#
# Bulk Modulus (GPa) = 82.00918 83.67645 82.84281
# Shear Modulus (GPa) = 23.30206 25.62247 24.46226
#
# Velocity S-wave (km/s) = 3.70839 3.88865 3.79959
# Velocity P-wave (km/s) = 8.16918 8.33939 8.25473
#
# Compressibility (1/GPa) = 0.01219376
#
# Stress axis : x y z
#
# Youngs Moduli (GPa) = 70.95835 70.95835 118.77281
#
# Poissons Ratio (x) = 0.45819 0.34138
# Poissons Ratio (y) = 0.45819 0.34138
# Poissons Ratio (z) = 0.20395 0.20395
#
# Static dielectric constant tensor:
#      x y z
#    x 1.574130 0.000000 0.000000 
#    y 0.000000 1.574130 0.000000 
#    z 0.000000 0.000000 1.588650 
# 
# From -- ./inp_files/738.got.cif
#   From: 2010.05.17/outbox.cif.g08.bks.cpg/sg188_1_cif.got.tgz:738.got - 2010.05.20 12:11:46.
