data_PCOD9585328
_publ_section_title
;
Structure prediction by ZEFSAII (Michael W. Deem and Ramdas Pophale) SiO2 
 PCOD9585328
Probable space group: P 63 M C
;
_chemical_formula_sum "Si O2"
_cell_formula_units_Z 96
_cell_length_a 23.229280
_cell_length_b 23.229280
_cell_length_c 11.835302
_cell_angle_alpha 90.000000
_cell_angle_beta 90.000000
_cell_angle_gamma 120.000000
_cell_volume 5530.717471
_symmetry_space_group_name_H-M "P 63 M C"
_symmetry_group_IT_number 186
_symmetry_cell_setting 'hexagonal'
loop_
_space_group_symop_operation_xyz
x,y,z
x-y,x,1/2+z
-y,x-y,z
-x,-y,1/2+z
-x+y,-x,z
y,-x+y,1/2+z
-x+y,y,z
x,x-y,z
-y,-x,z
y,x,1/2+z
x-y,-y,1/2+z
-x,-x+y,1/2+z
loop_
_atom_site_type_symbol
_atom_site_label
_atom_site_fract_x
_atom_site_fract_y
_atom_site_fract_z
Si Si1 0.789267 0.709132 0.620430
Si Si2 0.416199 0.107012 0.763819
Si Si3 0.694809 0.077515 0.999331
Si Si4 0.461116 0.794426 0.118984
Si Si5 0.563950 0.567439 0.130105
Si Si6 0.491313 0.110295 0.423633
Si Si7 0.718192 0.064524 0.388998
Si Si8 0.722403 0.926777 0.661601
O O1 0.866081 0.732161 0.633010
O O2 0.746563 0.654910 0.716109
O O3 0.762239 0.668888 0.502335
O O4 0.772208 0.768420 0.627898
O O5 0.424598 0.123270 0.896068
O O6 0.472920 0.166626 0.692387
O O7 0.423942 0.043163 0.730354
O O8 0.679563 0.010921 0.929327
O O9 0.759564 0.097835 0.072755
O O10 0.633076 0.055869 0.083796
O O11 0.406572 0.813143 0.158524
O O12 0.434233 0.717117 0.125461
O O13 0.479039 0.820608 0.990873
O O14 0.506639 0.493361 0.157384
O O15 0.536404 0.592005 0.025093
O O16 0.553223 0.106447 0.369707
O O17 0.424625 0.096609 0.360881
O O18 0.763977 0.070856 0.284097
O O19 0.747953 0.873977 0.661536
#
# Coordination Sequence:
#
# PCOD9585328 Si02
#       8
#    12  12  12  12  12  12  12  12
#     4  11  21  35  57  81 104 137 178 218 268 328
#     4  11  18  32  53  75 105 135 177 217 260 318
#     4  10  19  34  50  75 109 138 175 213 264 323
#     4  10  19  30  45  70 102 138 178 222 268 307
#     4   9  16  29  48  73 106 140 172 214 260 309
#     4   8  15  27  47  73 100 131 173 216 260 308
#     4  10  17  35  55  77 105 139 173 214 261 322
#     4  11  23  38  54  78 110 140 174 222 273 327
#
# _framework density 17.357603000000001
#
# number of rings (size 3 to 8) (size 9 to 14) (size 15 to 20)
#    0.000    2.000    6.250    2.000    0.000    2.500 
#    0.000    3.125    0.000    0.250    0.000    0.000 
#    0.000    1.000    0.000    0.500    0.000    0.000 
#
# Total GULP energy -535000.041177 kJ/mol
# GULP energy per Si atom -5572.917096 kJ/mol
# Density = 1.731810 g / cm^3
# Si number density = 17.357603 Si / 1000 Ang^3
#
#
#
# Elastic Constant Matrix: (Units=GPa)
#
#
# Indices 1 2 3 4 5 6 
#
# 1 75.8370 46.8796 16.3639 0.0000 0.0000 0.0000
# 2 46.8796 75.8370 16.3639 0.0000 0.0000 0.0000
# 3 16.3639 16.3639 70.8151 0.0000 0.0000 0.0000
# 4 0.0000 0.0000 0.0000 7.3792 0.0000 0.0000
# 5 0.0000 0.0000 0.0000 0.0000 7.3792 0.0000
# 6 0.0000 0.0000 0.0000 0.0000 0.0000 14.4787
#
#
#
# Elastic Compliance Matrix: (Units=1/GPa)
#
#
# Indices 1 2 3 4 5 6 
#
# 1 0.021609 -0.012925 -0.002007 0.000000 0.000000 0.000000
# 2 -0.012925 0.021609 -0.002007 0.000000 0.000000 0.000000
# 3 -0.002007 -0.002007 0.015049 0.000000 0.000000 0.000000
# 4 0.000000 0.000000 0.000000 0.135517 0.000000 0.000000
# 5 0.000000 0.000000 0.000000 0.000000 0.135517 0.000000
# 6 0.000000 0.000000 0.000000 0.000000 0.000000 0.069067
#
#
# Mechanical properties :
#
#
# Convention : Reuss Voigt Hill
#
# Bulk Modulus (GPa) = 41.00048 42.41156 41.70602
# Shear Modulus (GPa) = 11.35403 15.37286 13.36344
#
# Velocity S-wave (km/s) = 2.56036 2.97923 2.77770
# Velocity P-wave (km/s) = 5.69323 6.02673 5.86235
#
# Compressibility (1/GPa) = 0.02438996
#
# Stress axis : x y z
#
# Youngs Moduli (GPa) = 46.27757 46.27757 66.45092
#
# Poissons Ratio (x) = 0.59812 0.13335
# Poissons Ratio (y) = 0.59812 0.13335
# Poissons Ratio (z) = 0.09287 0.09287
#
# Static dielectric constant tensor:
#      x y z
#    x 1.613340 0.000000 0.000000 
#    y 0.000000 1.613340 0.000000 
#    z 0.000000 0.000000 1.638110 
# 
# From -- ./inp_files/2045.got.cif
#   From: 2010.05.17/outbox.cif.g08.bks.cpg/sg186_2_cif.got.tgz:2045.got - 2010.05.20 12:07:08.
