data_PCOD9585903
_publ_section_title
;
Structure prediction by ZEFSAII (Michael W. Deem and Ramdas Pophale) SiO2 
 PCOD9585903
Probable space group: P -6 C 2
;
_chemical_formula_sum "Si O2"
_cell_formula_units_Z 66
_cell_length_a 12.017608
_cell_length_b 12.017608
_cell_length_c 27.541278
_cell_angle_alpha 90.000000
_cell_angle_beta 90.000000
_cell_angle_gamma 120.000000
_cell_volume 3444.695107
_symmetry_space_group_name_H-M "P -6 C 2"
_symmetry_group_IT_number 188
_symmetry_cell_setting 'hexagonal'
loop_
_space_group_symop_operation_xyz
x,y,z
-x+y,-x,1/2-z
-y,x-y,z
x,y,1/2-z
-x+y,-x,z
-y,x-y,1/2-z
-y,-x,-z
-x+y,y,-z
x,x-y,-z
-x+y,y,1/2+z
x,x-y,1/2+z
-y,-x,1/2+z
loop_
_atom_site_type_symbol
_atom_site_label
_atom_site_fract_x
_atom_site_fract_y
_atom_site_fract_z
Si Si1 0.697582 0.827690 0.303577
Si Si2 0.868809 0.177513 0.696921
Si Si3 0.249623 0.750378 0.500000
Si Si4 0.691933 0.828689 0.089955
Si Si5 0.855570 0.117037 0.055907
Si Si6 0.718338 0.496777 0.608097
O O1 0.631498 0.793110 0.250000
O O2 0.784966 0.761243 0.305885
O O3 0.630181 0.798398 0.356301
O O4 0.782431 0.982143 0.304367
O O5 0.844061 0.216909 0.750000
O O6 0.834526 0.246341 0.654687
O O7 0.194206 0.597103 0.500000
O O8 0.209463 0.798112 0.452551
O O9 0.775064 0.759181 0.081598
O O10 0.795464 0.979392 0.081671
O O11 0.750806 0.161864 0.062160
O O12 0.888601 0.111400 0.000000
O O13 0.574367 0.376840 0.608574
#
# Coordination Sequence:
#
# PCOD9585903 Si02
#       6
#    12  12   6  12  12  12
#     4  10  19  33  61  95 119 153 200 252 319 364
#     4  10  19  36  59  90 127 156 196 254 312 368
#     4  10  26  46  60  92 114 174 216 238 296 378
#     4  12  21  41  67  93 129 153 198 265 319 376
#     4  12  23  39  64  99 121 156 197 262 330 359
#     4  10  24  40  54  86 122 172 215 231 292 366
#
# _framework density 19.159894999999999
#
# number of rings (size 3 to 8) (size 9 to 14) (size 15 to 20)
#    0.545    0.727    5.455    0.727    0.000    4.364 
#    0.000    0.000    0.000    1.091    0.000    0.000 
#    0.000    0.000    0.000    0.000    0.000    0.000 
#
# Total GULP energy -367740.541975 kJ/mol
# GULP energy per Si atom -5571.826394 kJ/mol
# Density = 1.911629 g / cm^3
# Si number density = 19.159895 Si / 1000 Ang^3
#
#
#
# Elastic Constant Matrix: (Units=GPa)
#
#
# Indices 1 2 3 4 5 6 
#
# 1 44.8599 -13.8029 4.6657 -0.0001 0.0000 0.0000
# 2 -13.8029 44.8599 4.6657 0.0001 0.0000 0.0000
# 3 4.6657 4.6657 163.3821 0.0000 0.0000 0.0000
# 4 -0.0001 0.0001 0.0000 17.7978 0.0000 0.0000
# 5 0.0000 0.0000 0.0000 0.0000 17.7978 -0.0001
# 6 0.0000 0.0000 0.0000 0.0000 -0.0001 29.3314
#
#
#
# Elastic Compliance Matrix: (Units=1/GPa)
#
#
# Indices 1 2 3 4 5 6 
#
# 1 0.024762 0.007715 -0.000927 0.000000 0.000000 0.000000
# 2 0.007715 0.024762 -0.000927 0.000000 0.000000 0.000000
# 3 -0.000927 -0.000927 0.006174 0.000000 0.000000 0.000000
# 4 0.000000 0.000000 0.000000 0.056187 0.000000 0.000000
# 5 0.000000 0.000000 0.000000 0.000000 0.056187 0.000000
# 6 0.000000 0.000000 0.000000 0.000000 0.000000 0.034093
#
#
# Mechanical properties :
#
#
# Convention : Reuss Voigt Hill
#
# Bulk Modulus (GPa) = 14.83266 27.12877 20.98072
# Shear Modulus (GPa) = 23.48344 30.15698 26.82021
#
# Velocity S-wave (km/s) = 3.50473 3.97162 3.74546
# Velocity P-wave (km/s) = 4.91283 5.93478 5.44782
#
# Compressibility (1/GPa) = 0.06741878
#
# Stress axis : x y z
#
# Youngs Moduli (GPa) = 40.38440 40.38440 161.98028
#
# Poissons Ratio (x) = -0.31158 0.15023
# Poissons Ratio (y) = -0.31158 0.15023
# Poissons Ratio (z) = 0.03745 0.03745
#
# Static dielectric constant tensor:
#      x y z
#    x 1.645100 0.000000 0.000000 
#    y 0.000000 1.645100 0.000000 
#    z 0.000000 0.000000 1.750940 
# 
# From -- ./inp_files/4481.got.cif
#   From: 2010.05.17/outbox.cif.g08.bks.cpg/sg188_3_cif.got.tgz:4481.got - 2010.05.20 12:11:46.
