data_PCOD9585515
_publ_section_title
;
Structure prediction by ZEFSAII (Michael W. Deem and Ramdas Pophale) SiO2 
 PCOD9585515
Probable space group: P -6 M 2
;
_chemical_formula_sum "Si O2"
_cell_formula_units_Z 96
_cell_length_a 17.405559
_cell_length_b 17.405559
_cell_length_c 24.168320
_cell_angle_alpha 90.000000
_cell_angle_beta 90.000000
_cell_angle_gamma 120.000000
_cell_volume 6340.931268
_symmetry_space_group_name_H-M "P -6 M 2"
_symmetry_group_IT_number 187
_symmetry_cell_setting 'hexagonal'
loop_
_space_group_symop_operation_xyz
x,y,z
-x+y,-x,-z
-y,x-y,z
x,y,-z
-x+y,-x,z
-y,x-y,-z
-y,-x,-z
-x+y,y,-z
x,x-y,-z
-x+y,y,z
x,x-y,z
-y,-x,z
loop_
_atom_site_type_symbol
_atom_site_label
_atom_site_fract_x
_atom_site_fract_y
_atom_site_fract_z
Si Si1 0.666527 0.511509 0.434601
Si Si2 0.333845 0.483614 0.062952
Si Si3 0.819921 0.818337 0.336323
Si Si4 0.236398 0.289632 0.559214
Si Si5 0.334310 0.851681 0.276867
Si Si6 0.817133 0.815660 0.210269
Si Si7 0.277670 0.908117 0.832858
Si Si8 0.392053 0.960632 0.610979
O O1 0.665720 0.533941 0.500000
O O2 0.763673 0.527345 0.421186
O O3 0.592295 0.407706 0.429237
O O4 0.631342 0.564446 0.397538
O O5 0.248142 0.496284 0.068250
O O6 0.422331 0.577670 0.070425
O O7 0.326158 0.416352 0.110611
O O8 0.333200 0.452660 0.000000
O O9 0.918909 0.837817 0.342797
O O10 0.762245 0.759591 0.387185
O O11 0.790946 0.784345 0.274102
O O12 0.818543 0.909272 0.339098
O O13 0.248993 0.256387 0.500000
O O14 0.140699 0.281397 0.558959
O O15 0.310573 0.390636 0.568907
O O16 0.416618 0.833236 0.272800
O O17 0.240433 0.759568 0.284339
O O18 0.326911 0.897880 0.220764
O O19 0.355022 0.917689 0.328896
O O20 0.909110 0.818220 0.198101
O O21 0.732534 0.749195 0.174233
O O22 0.830191 0.915096 0.206553
O O23 0.183512 0.816489 0.833668
O O24 0.470532 0.941064 0.597238
#
# Coordination Sequence:
#
# PCOD9585515 Si02
#       8
#    12  12  12  12  12  12  12  12
#     4   9  17  30  48  68  87 106 130 164 211 269
#     4   9  16  26  42  66  96 127 155 181 212 256
#     4   9  17  29  45  64  85 109 137 170 209 254
#     4  10  20  32  44  58  78 105 135 168 210 259
#     4  10  19  31  47  66  89 117 149 182 214 251
#     4   9  16  27  44  64  86 114 150 189 225 261
#     4   9  17  28  43  64  90 119 149 183 220 255
#     4  10  20  32  46  62  80 104 135 173 214 253
#
# _framework density 15.139732
#
# number of rings (size 3 to 8) (size 9 to 14) (size 15 to 20)
#    0.000    2.625    0.000    2.500    0.000    5.500 
#    0.000    1.875    0.000    1.375    0.000    0.000 
#    0.000    1.000    0.000    3.000    0.000    1.750 
#
# Total GULP energy -534474.652483 kJ/mol
# GULP energy per Si atom -5567.444297 kJ/mol
# Density = 1.510527 g / cm^3
# Si number density = 15.139732 Si / 1000 Ang^3
#
#
#
# Elastic Constant Matrix: (Units=GPa)
#
#
# Indices 1 2 3 4 5 6 
#
# 1 46.1771 16.1011 40.7808 0.0000 -0.0005 0.0000
# 2 16.1011 46.1771 40.7808 0.0000 0.0005 0.0000
# 3 40.7808 40.7808 94.4040 0.0000 0.0000 0.0000
# 4 0.0000 0.0000 0.0000 15.2393 0.0000 0.0005
# 5 -0.0005 0.0005 0.0000 0.0000 15.2393 0.0000
# 6 0.0000 0.0000 0.0000 0.0005 0.0000 15.0380
#
#
#
# Elastic Compliance Matrix: (Units=1/GPa)
#
#
# Indices 1 2 3 4 5 6 
#
# 1 0.035112 0.001863 -0.015973 0.000000 0.000001 0.000000
# 2 0.001863 0.035112 -0.015973 0.000000 -0.000001 0.000000
# 3 -0.015973 -0.015973 0.024393 0.000000 0.000000 0.000000
# 4 0.000000 0.000000 0.000000 0.065620 0.000000 -0.000002
# 5 0.000001 -0.000001 0.000000 0.000000 0.065620 0.000000
# 6 0.000000 0.000000 0.000000 -0.000002 0.000000 0.066498
#
#
# Mechanical properties :
#
#
# Convention : Reuss Voigt Hill
#
# Bulk Modulus (GPa) = 29.02540 42.45371 35.73955
# Shear Modulus (GPa) = 13.73612 15.04300 14.38956
#
# Velocity S-wave (km/s) = 3.01539 3.15558 3.08628
# Velocity P-wave (km/s) = 5.59792 6.43265 6.02975
#
# Compressibility (1/GPa) = 0.03445258
#
# Stress axis : x y z
#
# Youngs Moduli (GPa) = 28.48011 28.48011 40.99613
#
# Poissons Ratio (x) = -0.05306 0.65482
# Poissons Ratio (y) = -0.05306 0.65482
# Poissons Ratio (z) = 0.45490 0.45490
#
# Static dielectric constant tensor:
#      x y z
#    x 1.510160 0.000000 0.000000 
#    y 0.000000 1.510160 0.000000 
#    z 0.000000 0.000000 1.519640 
# 
# From -- ./inp_files/4068.got.cif
#   From: 2010.05.17/outbox.cif.g08.bks.cpg/sg187_3_cif.got.tgz:4068.got - 2010.05.20 12:09:04.
