data_PCOD9585148
_publ_section_title
;
Structure prediction by ZEFSAII (Michael W. Deem and Ramdas Pophale) SiO2 
 PCOD9585148
Probable space group: P 6 C C
;
_chemical_formula_sum "Si O2"
_cell_formula_units_Z 54
_cell_length_a 10.974045
_cell_length_b 10.974045
_cell_length_c 25.354184
_cell_angle_alpha 90.000000
_cell_angle_beta 90.000000
_cell_angle_gamma 120.000000
_cell_volume 2644.318375
_symmetry_space_group_name_H-M "P 6 C C"
_symmetry_group_IT_number 184
_symmetry_cell_setting 'hexagonal'
loop_
_space_group_symop_operation_xyz
x,y,z
x-y,x,z
-y,x-y,z
-x,-y,z
-x+y,-x,z
y,-x+y,z
-x+y,y,1/2+z
x,x-y,1/2+z
-y,-x,1/2+z
y,x,1/2+z
x-y,-y,1/2+z
-x,-x+y,1/2+z
loop_
_atom_site_type_symbol
_atom_site_label
_atom_site_fract_x
_atom_site_fract_y
_atom_site_fract_z
Si Si1 0.500000 0.000000 0.534770
Si Si2 0.254175 0.932127 0.608381
Si Si3 0.490074 0.659705 0.826097
Si Si4 0.938741 0.253172 0.229575
Si Si5 0.829906 0.340884 0.441488
O O1 0.636176 0.085779 0.571602
O O2 0.455324 0.086420 0.494982
O O3 0.292721 0.925167 0.669573
O O4 0.090372 0.812645 0.600599
O O5 0.465924 0.794249 0.824396
O O6 0.574872 0.664395 0.775290
O O7 0.550226 0.659006 0.884065
O O8 0.090888 0.270195 0.235540
O O9 0.793701 0.468148 0.442526
#
# Coordination Sequence:
#
# PCOD9585148 Si02
#       5
#     6  12  12  12  12
#     4  12  20  34  62  90 112 160 208 256 288 352
#     4  10  23  41  60  88 121 165 203 250 310 366
#     4   8  18  36  55  87 113 146 183 234 301 351
#     4  10  21  37  58  81 115 153 194 236 289 360
#     4   8  18  35  52  81 119 144 188 243 298 354
#
# _framework density 20.421140999999999
#
# number of rings (size 3 to 8) (size 9 to 14) (size 15 to 20)
#    0.889    1.778    0.000    1.778    0.000    9.778 
#    1.333    0.000    0.000    0.000    0.000    3.111 
#    0.000    0.000    0.000    0.000    0.000    0.000 
#
# Total GULP energy -300668.863018 kJ/mol
# GULP energy per Si atom -5567.941908 kJ/mol
# Density = 2.037466 g / cm^3
# Si number density = 20.421141 Si / 1000 Ang^3
#
#
#
# Elastic Constant Matrix: (Units=GPa)
#
#
# Indices 1 2 3 4 5 6 
#
# 1 55.5447 4.5904 57.7783 0.0000 0.0000 0.0000
# 2 4.5904 55.5447 57.7783 0.0000 0.0000 0.0000
# 3 57.7783 57.7783 181.2587 0.0000 0.0000 0.0000
# 4 0.0000 0.0000 0.0000 34.4445 0.0000 0.0000
# 5 0.0000 0.0000 0.0000 0.0000 34.4445 0.0000
# 6 0.0000 0.0000 0.0000 0.0000 0.0000 25.4771
#
#
#
# Elastic Compliance Matrix: (Units=1/GPa)
#
#
# Indices 1 2 3 4 5 6 
#
# 1 0.031272 0.011647 -0.013681 0.000000 0.000000 0.000000
# 2 0.011647 0.031272 -0.013681 0.000000 0.000000 0.000000
# 3 -0.013681 -0.013681 0.014239 0.000000 0.000000 0.000000
# 4 0.000000 0.000000 0.000000 0.029032 0.000000 0.000000
# 5 0.000000 0.000000 0.000000 0.000000 0.029032 0.000000
# 6 0.000000 0.000000 0.000000 0.000000 0.000000 0.039251
#
#
# Mechanical properties :
#
#
# Convention : Reuss Voigt Hill
#
# Bulk Modulus (GPa) = 22.04942 59.18246 40.61594
# Shear Modulus (GPa) = 22.66077 30.35328 26.50702
#
# Velocity S-wave (km/s) = 3.33479 3.85952 3.60671
# Velocity P-wave (km/s) = 5.06444 6.99322 6.10548
#
# Compressibility (1/GPa) = 0.04535266
#
# Stress axis : x y z
#
# Youngs Moduli (GPa) = 31.97754 31.97754 70.23069
#
# Poissons Ratio (x) = -0.37243 0.96081
# Poissons Ratio (y) = -0.37243 0.96081
# Poissons Ratio (z) = 0.43748 0.43748
#
# Static dielectric constant tensor:
#      x y z
#    x 1.773510 0.000000 0.000000 
#    y 0.000000 1.773510 0.000000 
#    z 0.000000 0.000000 1.747470 
# 
# From -- ./inp_files/1214.got.cif
#   From: 2010.05.17/outbox.cif.g08.bks.cpg/sg184_cif.got.tgz:1214.got - 2010.05.20 12:04:40.
