data_PCOD9585126
_publ_section_title
;
Structure prediction by ZEFSAII (Michael W. Deem and Ramdas Pophale) SiO2 
 PCOD9585126
Probable space group: P 6 C C
;
_chemical_formula_sum "Si O2"
_cell_formula_units_Z 78
_cell_length_a 17.273191
_cell_length_b 17.273191
_cell_length_c 13.521343
_cell_angle_alpha 90.000000
_cell_angle_beta 90.000000
_cell_angle_gamma 120.000000
_cell_volume 3493.780464
_symmetry_space_group_name_H-M "P 6 C C"
_symmetry_group_IT_number 184
_symmetry_cell_setting 'hexagonal'
loop_
_space_group_symop_operation_xyz
x,y,z
x-y,x,z
-y,x-y,z
-x,-y,z
-x+y,-x,z
y,-x+y,z
-x+y,y,1/2+z
x,x-y,1/2+z
-y,-x,1/2+z
y,x,1/2+z
x-y,-y,1/2+z
-x,-x+y,1/2+z
loop_
_atom_site_type_symbol
_atom_site_label
_atom_site_fract_x
_atom_site_fract_y
_atom_site_fract_z
Si Si1 0.829499 0.220053 0.215130
Si Si2 0.502361 0.111178 0.325170
Si Si3 0.000000 0.500000 0.009089
Si Si4 0.085016 0.656374 0.802119
Si Si5 0.020970 0.831228 0.522260
Si Si6 0.950553 0.802989 0.785731
Si Si7 0.692647 0.065781 0.531555
O O1 0.740450 0.126736 0.231785
O O2 0.850008 0.248028 0.101283
O O3 0.983419 0.404350 0.286790
O O4 0.005462 0.273219 0.042249
O O5 0.468778 0.177038 0.287418
O O6 0.507499 0.080443 0.438181
O O7 0.600231 0.136185 0.288317
O O8 0.968851 0.408739 0.064893
O O9 0.912880 0.702413 0.751926
O O10 0.088591 0.692528 0.914792
O O11 0.925892 0.820791 0.554525
O O12 0.037080 0.843210 0.404034
O O13 0.877032 0.828632 0.753399
#
# Coordination Sequence:
#
# PCOD9585126 Si02
#       7
#    12  12   6  12  12  12  12
#     4  12  21  35  62  94 119 159 209 259 307 375
#     4   8  18  38  60  81 113 160 203 246 315 363
#     4   8  18  40  60  82 124 160 212 260 314 382
#     4   9  20  41  59  84 124 162 201 255 309 379
#     4  10  20  36  57  86 125 170 212 258 305 367
#     4  10  20  35  56  84 123 164 209 250 300 352
#     4  10  22  37  60  93 125 163 214 258 317 371
#
# _framework density 22.325386999999999
#
# number of rings (size 3 to 8) (size 9 to 14) (size 15 to 20)
#    0.000    2.769    0.000    4.923    0.000    5.538 
#    0.923    3.077    0.000    1.846    0.000    2.154 
#    1.538    0.000    0.000    0.000    0.000    0.000 
#
# Total GULP energy -434963.278903 kJ/mol
# GULP energy per Si atom -5576.452294 kJ/mol
# Density = 2.227457 g / cm^3
# Si number density = 22.325387 Si / 1000 Ang^3
#
#
#
# Elastic Constant Matrix: (Units=GPa)
#
#
# Indices 1 2 3 4 5 6 
#
# 1 125.1280 66.2009 33.6185 0.0000 0.0000 0.0000
# 2 66.2009 125.1280 33.6185 0.0000 0.0000 0.0000
# 3 33.6185 33.6185 101.3131 0.0000 0.0000 0.0000
# 4 0.0000 0.0000 0.0000 14.8172 0.0000 0.0000
# 5 0.0000 0.0000 0.0000 0.0000 14.8172 0.0000
# 6 0.0000 0.0000 0.0000 0.0000 0.0000 29.4636
#
#
#
# Elastic Compliance Matrix: (Units=1/GPa)
#
#
# Indices 1 2 3 4 5 6 
#
# 1 0.011443 -0.005527 -0.001963 0.000000 0.000000 0.000000
# 2 -0.005527 0.011443 -0.001963 0.000000 0.000000 0.000000
# 3 -0.001963 -0.001963 0.011173 0.000000 0.000000 0.000000
# 4 0.000000 0.000000 0.000000 0.067489 0.000000 0.000000
# 5 0.000000 0.000000 0.000000 0.000000 0.067489 0.000000
# 6 0.000000 0.000000 0.000000 0.000000 0.000000 0.033940
#
#
# Mechanical properties :
#
#
# Convention : Reuss Voigt Hill
#
# Bulk Modulus (GPa) = 65.99216 68.71610 67.35413
# Shear Modulus (GPa) = 22.03262 26.36169 24.19715
#
# Velocity S-wave (km/s) = 3.14488 3.44000 3.29574
# Velocity P-wave (km/s) = 6.54297 6.82820 6.68710
#
# Compressibility (1/GPa) = 0.01515332
#
# Stress axis : x y z
#
# Youngs Moduli (GPa) = 87.38724 87.38724 89.49889
#
# Poissons Ratio (x) = 0.48297 0.17571
# Poissons Ratio (y) = 0.48297 0.17571
# Poissons Ratio (z) = 0.17156 0.17156
#
# Static dielectric constant tensor:
#      x y z
#    x 1.850490 0.000000 0.000000 
#    y 0.000000 1.850490 0.000000 
#    z 0.000000 0.000000 1.901600 
# 
# From -- ./inp_files/967.got.cif
#   From: 2010.05.17/outbox.cif.g08.bks.cpg/sg184_cif.got.tgz:967.got - 2010.05.20 12:04:40.
