data_PCOD9585598
_publ_section_title
;
Structure prediction by ZEFSAII (Michael W. Deem and Ramdas Pophale) SiO2 
 PCOD9585598
Probable space group: P -6 M 2
;
_chemical_formula_sum "Si O2"
_cell_formula_units_Z 66
_cell_length_a 13.291494
_cell_length_b 13.291494
_cell_length_c 28.498957
_cell_angle_alpha 90.000000
_cell_angle_beta 90.000000
_cell_angle_gamma 120.000000
_cell_volume 4360.207894
_symmetry_space_group_name_H-M "P -6 M 2"
_symmetry_group_IT_number 187
_symmetry_cell_setting 'hexagonal'
loop_
_space_group_symop_operation_xyz
x,y,z
-x+y,-x,-z
-y,x-y,z
x,y,-z
-x+y,-x,z
-y,x-y,-z
-y,-x,-z
-x+y,y,-z
x,x-y,-z
-x+y,y,z
x,x-y,z
-y,-x,z
loop_
_atom_site_type_symbol
_atom_site_label
_atom_site_fract_x
_atom_site_fract_y
_atom_site_fract_z
Si Si1 0.239545 0.999980 0.631810
Si Si2 0.758714 0.999400 0.102869
Si Si3 0.429600 0.095681 0.180228
Si Si4 0.432183 0.098209 0.555610
Si Si5 0.903869 0.333509 0.289685
Si Si6 0.239742 0.239714 0.000000
O O1 0.122230 0.877771 0.632379
O O2 0.213235 0.106618 0.632075
O O3 0.319431 0.018422 0.586379
O O4 0.322584 0.019775 0.676268
O O5 0.889060 0.110941 0.104622
O O6 0.688107 0.016320 0.144427
O O7 0.707657 0.999348 0.050903
O O8 0.763135 0.881568 0.107868
O O9 0.546073 0.092145 0.170816
O O10 0.452771 0.226386 0.174082
O O11 0.398297 0.065201 0.234979
O O12 0.410829 0.075801 0.500000
O O13 0.542925 0.085850 0.568556
O O14 0.461183 0.230592 0.563999
O O15 0.912753 0.456377 0.300297
O O16 0.770785 0.229216 0.295807
O O17 0.228829 0.114415 0.000000
O O18 0.112207 0.224413 0.000000
#
# Coordination Sequence:
#
# PCOD9585598 Si02
#       6
#    12  12  12  12  12   6
#     4  10  20  32  46  66  94 126 154 179 212 259
#     4   9  16  26  42  64  88 113 142 178 219 260
#     4   9  17  29  45  65  89 116 144 175 214 262
#     4   9  17  30  50  75  98 118 144 184 231 268
#     4   9  17  30  49  70  88 109 142 185 228 264
#     4   8  13  22  37  58  84 112 142 176 214 254
#
# _framework density 15.136893000000001
#
# number of rings (size 3 to 8) (size 9 to 14) (size 15 to 20)
#    0.000    2.909    0.000    1.545    0.000    4.727 
#    0.000    2.273    0.000    6.545    0.000    1.273 
#    0.000    0.000    0.000    0.000    0.000    0.000 
#
# Total GULP energy -367484.529106 kJ/mol
# GULP energy per Si atom -5567.947411 kJ/mol
# Density = 1.510244 g / cm^3
# Si number density = 15.136893 Si / 1000 Ang^3
#
#
#
# Elastic Constant Matrix: (Units=GPa)
#
#
# Indices 1 2 3 4 5 6 
#
# 1 98.7551 46.8103 67.6686 0.0000 0.0001 0.0000
# 2 46.8103 98.7551 67.6686 0.0000 -0.0001 0.0000
# 3 67.6686 67.6686 99.1505 0.0000 0.0000 0.0000
# 4 0.0000 0.0000 0.0000 22.0858 0.0000 -0.0001
# 5 0.0001 -0.0001 0.0000 0.0000 22.0858 0.0000
# 6 0.0000 0.0000 0.0000 -0.0001 0.0000 25.9724
#
#
#
# Elastic Compliance Matrix: (Units=1/GPa)
#
#
# Indices 1 2 3 4 5 6 
#
# 1 0.019024 -0.000227 -0.012829 0.000000 0.000000 0.000000
# 2 -0.000227 0.019024 -0.012829 0.000000 0.000000 0.000000
# 3 -0.012829 -0.012829 0.027596 0.000000 0.000000 0.000000
# 4 0.000000 0.000000 0.000000 0.045278 0.000000 0.000000
# 5 0.000000 0.000000 0.000000 0.000000 0.045278 0.000000
# 6 0.000000 0.000000 0.000000 0.000000 0.000000 0.038502
#
#
# Mechanical properties :
#
#
# Convention : Reuss Voigt Hill
#
# Bulk Modulus (GPa) = 72.06806 73.43955 72.75380
# Shear Modulus (GPa) = 19.91261 21.66301 20.78781
#
# Velocity S-wave (km/s) = 3.63092 3.78714 3.70985
# Velocity P-wave (km/s) = 8.08037 8.23077 8.15591
#
# Compressibility (1/GPa) = 0.01387577
#
# Stress axis : x y z
#
# Youngs Moduli (GPa) = 52.56482 52.56482 36.23654
#
# Poissons Ratio (x) = 0.01194 0.46487
# Poissons Ratio (y) = 0.01194 0.46487
# Poissons Ratio (z) = 0.67434 0.67434
#
# Static dielectric constant tensor:
#      x y z
#    x 1.470580 0.000000 0.000000 
#    y 0.000000 1.470580 0.000000 
#    z 0.000000 0.000000 1.541080 
# 
# From -- ./inp_files/4407.got.cif
#   From: 2010.05.17/outbox.cif.g08.bks.cpg/sg187_3_cif.got.tgz:4407.got - 2010.05.20 12:09:04.
