data_PCOD9585402
_publ_section_title
;
Structure prediction by ZEFSAII (Michael W. Deem and Ramdas Pophale) SiO2 
 PCOD9585402
Probable space group: P 63 M C
;
_chemical_formula_sum "Si O2"
_cell_formula_units_Z 52
_cell_length_a 16.732170
_cell_length_b 16.732170
_cell_length_c 11.754529
_cell_angle_alpha 90.000000
_cell_angle_beta 90.000000
_cell_angle_gamma 120.000000
_cell_volume 2849.970734
_symmetry_space_group_name_H-M "P 63 M C"
_symmetry_group_IT_number 186
_symmetry_cell_setting 'hexagonal'
loop_
_space_group_symop_operation_xyz
x,y,z
x-y,x,1/2+z
-y,x-y,z
-x,-y,1/2+z
-x+y,-x,z
y,-x+y,1/2+z
-x+y,y,z
x,x-y,z
-y,-x,z
y,x,1/2+z
x-y,-y,1/2+z
-x,-x+y,1/2+z
loop_
_atom_site_type_symbol
_atom_site_label
_atom_site_fract_x
_atom_site_fract_y
_atom_site_fract_z
Si Si1 0.333333 0.666668 0.942935
Si Si2 0.901482 0.285662 0.839387
Si Si3 0.847527 0.330889 0.080848
Si Si4 0.901481 0.285663 0.322310
Si Si5 0.666667 0.333334 0.718754
Si Si6 0.877547 0.438774 0.444839
Si Si7 0.122454 0.561227 0.216858
O O1 0.385517 0.771033 0.904852
O O2 0.333334 0.666667 0.080844
O O3 0.810892 0.189109 0.804717
O O4 0.912720 0.372166 0.764447
O O5 0.000001 0.291250 0.830848
O O6 0.884169 0.306611 0.967869
O O7 0.872732 0.436366 0.080846
O O8 0.737154 0.262847 0.080848
O O9 0.884168 0.306613 0.193829
O O10 0.810890 0.189111 0.356980
O O11 0.912721 0.372168 0.397251
O O12 0.614484 0.228968 0.756839
O O13 0.883755 0.441878 0.580849
#
# Coordination Sequence:
#
# PCOD9585402 Si02
#       7
#     2  12  12  12   2   6   6
#     4   9  18  33  48  82 116 148 180 219 253 317
#     4  11  24  39  57  80 111 146 186 230 275 323
#     4  10  21  36  55  80 112 152 186 218 261 321
#     4  11  24  39  57  80 111 146 186 230 275 323
#     4   9  18  33  48  82 116 148 180 219 253 317
#     4  11  21  34  58  84 114 149 186 219 264 320
#     4  11  21  34  58  84 114 149 186 219 264 320
#
# _framework density 18.245802000000001
#
# number of rings (size 3 to 8) (size 9 to 14) (size 15 to 20)
#    0.000    1.385    4.615    0.923    3.231    0.000 
#    0.000    0.000    0.000    0.462    0.000    0.000 
#    0.000    0.000    0.000    0.000    0.000    0.000 
#
# Total GULP energy -290307.249666 kJ/mol
# GULP energy per Si atom -5582.831724 kJ/mol
# Density = 1.820427 g / cm^3
# Si number density = 18.245802 Si / 1000 Ang^3
#
#
#
# Elastic Constant Matrix: (Units=GPa)
#
#
# Indices 1 2 3 4 5 6 
#
# 1 88.4164 56.6460 16.5421 0.0000 0.0000 0.0001
# 2 56.6460 88.4164 16.5421 0.0000 0.0000 0.0000
# 3 16.5421 16.5421 84.9979 0.0000 0.0000 0.0000
# 4 0.0000 0.0000 0.0000 13.6116 0.0000 0.0000
# 5 0.0000 0.0000 0.0000 0.0000 13.6116 0.0000
# 6 0.0001 0.0000 0.0000 0.0000 0.0000 15.8852
#
#
#
# Elastic Compliance Matrix: (Units=1/GPa)
#
#
# Indices 1 2 3 4 5 6 
#
# 1 0.019345 -0.012131 -0.001404 0.000000 0.000000 0.000000
# 2 -0.012131 0.019345 -0.001404 0.000000 0.000000 0.000000
# 3 -0.001404 -0.001404 0.012311 0.000000 0.000000 0.000000
# 4 0.000000 0.000000 0.000000 0.073467 0.000000 0.000000
# 5 0.000000 0.000000 0.000000 0.000000 0.073467 0.000000
# 6 0.000000 0.000000 0.000000 0.000000 0.000000 0.062952
#
#
# Mechanical properties :
#
#
# Convention : Reuss Voigt Hill
#
# Bulk Modulus (GPa) = 47.34110 49.03234 48.18672
# Shear Modulus (GPa) = 16.78951 20.09506 18.44228
#
# Velocity S-wave (km/s) = 3.03675 3.32226 3.18271
# Velocity P-wave (km/s) = 6.18857 6.45354 6.32244
#
# Compressibility (1/GPa) = 0.02112329
#
# Stress axis : x y z
#
# Youngs Moduli (GPa) = 51.69353 51.69354 81.22519
#
# Poissons Ratio (x) = 0.62709 0.11403
# Poissons Ratio (y) = 0.62709 0.11403
# Poissons Ratio (z) = 0.07257 0.07257
#
# Static dielectric constant tensor:
#      x y z
#    x 1.653900 0.000000 0.000000 
#    y 0.000000 1.653900 0.000000 
#    z 0.000000 0.000000 1.623340 
# 
# From -- ./inp_files/1722.got.cif
#   From: 2010.05.17/outbox.cif.g08.bks.cpg/sg186_1_cif.got.tgz:1722.got - 2010.05.20 12:07:08.
