data_PCOD9585892
_publ_section_title
;
Structure prediction by ZEFSAII (Michael W. Deem and Ramdas Pophale) SiO2 
 PCOD9585892
Probable space group: P -6 C 2
;
_chemical_formula_sum "Si O2"
_cell_formula_units_Z 68
_cell_length_a 12.237925
_cell_length_b 12.237925
_cell_length_c 27.291855
_cell_angle_alpha 90.000000
_cell_angle_beta 90.000000
_cell_angle_gamma 120.000000
_cell_volume 3539.804374
_symmetry_space_group_name_H-M "P -6 C 2"
_symmetry_group_IT_number 188
_symmetry_cell_setting 'hexagonal'
loop_
_space_group_symop_operation_xyz
x,y,z
-x+y,-x,1/2-z
-y,x-y,z
x,y,1/2-z
-x+y,-x,z
-y,x-y,1/2-z
-y,-x,-z
-x+y,y,-z
x,x-y,-z
-x+y,y,1/2+z
x,x-y,1/2+z
-y,-x,1/2+z
loop_
_atom_site_type_symbol
_atom_site_label
_atom_site_fract_x
_atom_site_fract_y
_atom_site_fract_z
Si Si1 0.013592 0.266204 0.407082
Si Si2 0.995624 0.743200 0.804683
Si Si3 0.410732 0.336222 0.498343
Si Si4 0.899350 0.306343 0.805766
Si Si5 0.993160 0.735716 0.098166
Si Si6 0.000000 0.000000 0.692258
Si Si7 0.666667 0.333334 0.190761
O O1 0.033860 0.334300 0.353977
O O2 0.127674 0.238775 0.412168
O O3 0.004951 0.338509 0.454302
O O4 0.878479 0.136029 0.403782
O O5 0.048341 0.747287 0.750000
O O6 0.845054 0.656288 0.800416
O O7 0.021292 0.883705 0.818819
O O8 0.551526 0.448475 0.500000
O O9 0.407536 0.203768 0.500000
O O10 0.350123 0.338826 0.446732
O O11 0.947398 0.353533 0.750000
O O12 0.994319 0.319266 0.849032
O O13 0.803119 0.353288 0.823232
O O14 0.000000 0.000000 0.750000
O O15 0.666667 0.333334 0.250000
#
# Coordination Sequence:
#
# PCOD9585892 Si02
#       7
#    12  12  12  12  12   4   4
#     4  10  19  32  51  79 109 138 167 209 266 320
#     4   9  16  26  43  71 104 137 168 196 240 303
#     4  10  22  38  55  74  98 134 179 224 266 314
#     4   9  18  30  47  74 106 143 180 212 254 303
#     4  10  20  33  54  80 109 139 170 211 263 325
#     4   9  15  24  42  69 109 146 163 195 247 308
#     4   9  18  33  48  69 109 149 184 225 259 293
#
# _framework density 19.210101999999999
#
# number of rings (size 3 to 8) (size 9 to 14) (size 15 to 20)
#    0.000    2.471    0.000    3.176    0.000    6.353 
#    0.000    1.765    0.000    2.824    0.000    0.000 
#    0.000    0.000    0.000    0.176    0.000    0.000 
#
# Total GULP energy -378589.335681 kJ/mol
# GULP energy per Si atom -5567.490231 kJ/mol
# Density = 1.916638 g / cm^3
# Si number density = 19.210102 Si / 1000 Ang^3
#
#
#
# Elastic Constant Matrix: (Units=GPa)
#
#
# Indices 1 2 3 4 5 6 
#
# 1 35.1079 -7.5294 24.2236 -0.0019 0.0000 -0.0002
# 2 -7.5294 35.1071 24.2238 0.0018 0.0000 0.0001
# 3 24.2236 24.2238 154.1670 0.0000 0.0000 0.0001
# 4 -0.0019 0.0018 0.0000 12.4183 0.0000 0.0000
# 5 0.0000 0.0000 0.0000 0.0000 12.4185 -0.0019
# 6 -0.0002 0.0001 0.0001 0.0000 -0.0019 21.3188
#
#
#
# Elastic Compliance Matrix: (Units=1/GPa)
#
#
# Indices 1 2 3 4 5 6 
#
# 1 0.036769 0.013316 -0.007870 0.000004 0.000000 0.000000
# 2 0.013316 0.036770 -0.007870 -0.000003 0.000000 0.000000
# 3 -0.007870 -0.007870 0.008960 0.000000 0.000000 0.000000
# 4 0.000004 -0.000003 0.000000 0.080526 0.000000 0.000000
# 5 0.000000 0.000000 0.000000 0.000000 0.080525 0.000007
# 6 0.000000 0.000000 0.000000 0.000000 0.000007 0.046907
#
#
# Mechanical properties :
#
#
# Convention : Reuss Voigt Hill
#
# Bulk Modulus (GPa) = 12.87800 34.02425 23.45112
# Shear Modulus (GPa) = 15.56717 21.46205 18.51461
#
# Velocity S-wave (km/s) = 2.84978 3.34612 3.10787
# Velocity P-wave (km/s) = 4.18887 5.71654 5.01126
#
# Compressibility (1/GPa) = 0.07765181
#
# Stress axis : x y z
#
# Youngs Moduli (GPa) = 27.19663 27.19586 111.61239
#
# Poissons Ratio (x) = -0.36214 0.87836
# Poissons Ratio (y) = -0.36215 0.87838
# Poissons Ratio (z) = 0.21403 0.21403
#
# Static dielectric constant tensor:
#      x y z
#    x 1.884790 0.000000 0.000000 
#    y 0.000000 1.884790 0.000000 
#    z 0.000000 0.000000 1.759000 
# 
# From -- ./inp_files/4507.got.cif
#   From: 2010.05.17/outbox.cif.g08.bks.cpg/sg188_3_cif.got.tgz:4507.got - 2010.05.20 12:11:46.
