data_PCOD9585586
_publ_section_title
;
Structure prediction by ZEFSAII (Michael W. Deem and Ramdas Pophale) SiO2 
 PCOD9585586
Probable space group: P -6 M 2
;
_chemical_formula_sum "Si O2"
_cell_formula_units_Z 72
_cell_length_a 12.750431
_cell_length_b 12.750431
_cell_length_c 31.481890
_cell_angle_alpha 90.000000
_cell_angle_beta 90.000000
_cell_angle_gamma 120.000000
_cell_volume 4432.422590
_symmetry_space_group_name_H-M "P -6 M 2"
_symmetry_group_IT_number 187
_symmetry_cell_setting 'hexagonal'
loop_
_space_group_symop_operation_xyz
x,y,z
-x+y,-x,-z
-y,x-y,z
x,y,-z
-x+y,-x,z
-y,x-y,-z
-y,-x,-z
-x+y,y,-z
x,x-y,-z
-x+y,y,z
x,x-y,z
-y,-x,z
loop_
_atom_site_type_symbol
_atom_site_label
_atom_site_fract_x
_atom_site_fract_y
_atom_site_fract_z
Si Si1 0.667084 0.581968 0.578625
Si Si2 0.332183 0.914930 0.500000
Si Si3 0.750589 0.749947 0.917820
Si Si4 0.418134 0.084450 0.324533
Si Si5 0.248749 0.999903 0.754621
Si Si6 0.416473 0.332665 0.000000
Si Si7 0.667183 0.084276 0.835889
O O1 0.791560 0.583119 0.571891
O O2 0.555162 0.444839 0.575445
O O3 0.647621 0.657149 0.542203
O O4 0.665294 0.622485 0.627019
O O5 0.211250 0.788751 0.500000
O O6 0.448659 0.897318 0.500000
O O7 0.890460 0.780920 0.918183
O O8 0.687544 0.665469 0.958595
O O9 0.690316 0.670732 0.875779
O O10 0.743638 0.871819 0.918655
O O11 0.539910 0.079819 0.316280
O O12 0.446668 0.223334 0.321957
O O13 0.316920 0.011049 0.289577
O O14 0.219843 0.109922 0.755707
O O15 0.341995 0.025932 0.792973
O O16 0.127460 0.872541 0.759300
O O17 0.538479 0.461522 0.000000
O O18 0.447407 0.223704 0.000000
O O19 0.538578 0.077155 0.837971
O O20 0.775995 0.224006 0.836685
#
# Coordination Sequence:
#
# PCOD9585586 Si02
#       7
#    12   6  12  12  12   6  12
#     4   9  17  30  50  75  98 120 150 193 245 292
#     4  10  20  32  46  64  90 126 164 198 230 272
#     4  10  20  34  54  78 104 134 167 205 246 291
#     4   9  17  30  50  75 100 124 152 192 242 292
#     4  10  20  33  50  71  97 130 166 203 239 280
#     4  10  20  34  54  78 104 134 168 210 256 298
#     4  10  20  34  54  78 102 128 160 203 252 298
#
# _framework density 16.243938
#
# number of rings (size 3 to 8) (size 9 to 14) (size 15 to 20)
#    0.000    2.333    0.000    3.000    0.000    2.000 
#    0.000    6.667    0.000   12.667    0.000    0.000 
#    0.000    0.000    0.000    0.000    0.000    0.000 
#
# Total GULP energy -401685.897686 kJ/mol
# GULP energy per Si atom -5578.970801 kJ/mol
# Density = 1.620697 g / cm^3
# Si number density = 16.243938 Si / 1000 Ang^3
#
#
#
# Elastic Constant Matrix: (Units=GPa)
#
#
# Indices 1 2 3 4 5 6 
#
# 1 110.7974 75.2341 73.9750 0.0000 0.0001 0.0000
# 2 75.2341 110.7974 73.9750 0.0000 -0.0001 0.0000
# 3 73.9750 73.9750 139.2347 0.0000 0.0000 0.0000
# 4 0.0000 0.0000 0.0000 14.8451 0.0000 -0.0001
# 5 0.0001 -0.0001 0.0000 0.0000 14.8451 0.0000
# 6 0.0000 0.0000 0.0000 -0.0001 0.0000 17.7817
#
#
#
# Elastic Compliance Matrix: (Units=1/GPa)
#
#
# Indices 1 2 3 4 5 6 
#
# 1 0.018714 -0.009405 -0.004946 0.000000 0.000000 0.000000
# 2 -0.009405 0.018714 -0.004946 0.000000 0.000000 0.000000
# 3 -0.004946 -0.004946 0.012437 0.000000 0.000000 0.000000
# 4 0.000000 0.000000 0.000000 0.067362 0.000000 0.000000
# 5 0.000000 0.000000 0.000000 0.000000 0.067362 0.000000
# 6 0.000000 0.000000 0.000000 0.000000 0.000000 0.056238
#
#
# Mechanical properties :
#
#
# Convention : Reuss Voigt Hill
#
# Bulk Modulus (GPa) = 88.71506 89.68863 89.20185
# Shear Modulus (GPa) = 17.65678 18.67074 18.16376
#
# Velocity S-wave (km/s) = 3.30051 3.39395 3.34756
# Velocity P-wave (km/s) = 8.32210 8.40786 8.36509
#
# Compressibility (1/GPa) = 0.01127204
#
# Stress axis : x y z
#
# Youngs Moduli (GPa) = 53.43653 53.43653 80.40274
#
# Poissons Ratio (x) = 0.50257 0.39765
# Poissons Ratio (y) = 0.50257 0.39765
# Poissons Ratio (z) = 0.26428 0.26428
#
# Static dielectric constant tensor:
#      x y z
#    x 1.510070 0.000000 0.000000 
#    y 0.000000 1.510070 0.000000 
#    z 0.000000 0.000000 1.558220 
# 
# From -- ./inp_files/4557.got.cif
#   From: 2010.05.17/outbox.cif.g08.bks.cpg/sg187_3_cif.got.tgz:4557.got - 2010.05.20 12:09:04.
