data_PCOD9585635
_publ_section_title
;
Structure prediction by ZEFSAII (Michael W. Deem and Ramdas Pophale) SiO2 
 PCOD9585635
Probable space group: P -6 M 2
;
_chemical_formula_sum "Si O2"
_cell_formula_units_Z 54
_cell_length_a 12.695867
_cell_length_b 12.695867
_cell_length_c 24.238096
_cell_angle_alpha 90.000000
_cell_angle_beta 90.000000
_cell_angle_gamma 120.000000
_cell_volume 3383.404022
_symmetry_space_group_name_H-M "P -6 M 2"
_symmetry_group_IT_number 187
_symmetry_cell_setting 'hexagonal'
loop_
_space_group_symop_operation_xyz
x,y,z
-x+y,-x,-z
-y,x-y,z
x,y,-z
-x+y,-x,z
-y,x-y,-z
-y,-x,-z
-x+y,y,-z
x,x-y,-z
-x+y,y,z
x,x-y,z
-y,-x,z
loop_
_atom_site_type_symbol
_atom_site_label
_atom_site_fract_x
_atom_site_fract_y
_atom_site_fract_z
Si Si1 0.919126 0.585526 0.680238
Si Si2 0.666289 0.082981 0.000000
Si Si3 0.584174 0.666714 0.106953
Si Si4 0.250260 0.999368 0.785886
Si Si5 0.666422 0.585244 0.440737
O O1 0.781309 0.562618 0.681176
O O2 0.917249 0.458625 0.687034
O O3 0.988717 0.675814 0.730117
O O4 0.973186 0.638677 0.619301
O O5 0.647723 0.002485 0.054194
O O6 0.795072 0.204929 0.000000
O O7 0.556384 0.112767 0.000000
O O8 0.574226 0.787113 0.099221
O O9 0.451388 0.548613 0.112369
O O10 0.662796 0.685449 0.161777
O O11 0.247230 0.123615 0.792638
O O12 0.115165 0.884836 0.782316
O O13 0.661971 0.641913 0.500000
O O14 0.788484 0.576968 0.441669
O O15 0.549728 0.450273 0.439994
#
# Coordination Sequence:
#
# PCOD9585635 Si02
#       5
#    12   6  12  12  12
#     4   9  16  26  42  65  91 116 143 179 226 278
#     4  10  20  34  52  74 100 128 156 184 216 258
#     4  10  20  34  53  75  98 123 152 190 235 280
#     4  10  20  33  48  65  88 121 159 196 231 270
#     4   8  12  18  31  54  84 114 140 169 212 269
#
# _framework density 15.960257
#
# number of rings (size 3 to 8) (size 9 to 14) (size 15 to 20)
#    0.000    2.667    0.000    2.667    0.000    2.667 
#    0.000    1.111    0.000   11.333    0.000    0.000 
#    0.000    1.778    0.000    0.000    0.000    0.000 
#
# Total GULP energy -300631.673273 kJ/mol
# GULP energy per Si atom -5567.253209 kJ/mol
# Density = 1.592393 g / cm^3
# Si number density = 15.960257 Si / 1000 Ang^3
#
#
#
# Elastic Constant Matrix: (Units=GPa)
#
#
# Indices 1 2 3 4 5 6 
#
# 1 74.2374 46.0110 75.3103 0.0000 0.0002 0.0000
# 2 46.0110 74.2374 75.3103 0.0000 -0.0002 0.0000
# 3 75.3103 75.3103 188.3252 0.0000 0.0000 0.0000
# 4 0.0000 0.0000 0.0000 19.8216 0.0000 -0.0002
# 5 0.0002 -0.0002 0.0000 0.0000 19.8216 0.0000
# 6 0.0000 0.0000 0.0000 -0.0002 0.0000 14.1132
#
#
#
# Elastic Compliance Matrix: (Units=1/GPa)
#
#
# Indices 1 2 3 4 5 6 
#
# 1 0.026045 -0.009383 -0.006663 0.000000 0.000000 0.000000
# 2 -0.009383 0.026045 -0.006663 0.000000 0.000000 0.000000
# 3 -0.006663 -0.006663 0.010639 0.000000 0.000000 0.000000
# 4 0.000000 0.000000 0.000000 0.050450 0.000000 0.000001
# 5 0.000000 0.000000 0.000000 0.000000 0.050450 0.000000
# 6 0.000000 0.000000 0.000000 0.000001 0.000000 0.070856
#
#
# Mechanical properties :
#
#
# Convention : Reuss Voigt Hill
#
# Bulk Modulus (GPa) = 57.76685 81.11815 69.44250
# Shear Modulus (GPa) = 17.50252 20.09585 18.79918
#
# Velocity S-wave (km/s) = 3.31514 3.55225 3.43574
# Velocity P-wave (km/s) = 7.13626 8.23165 7.70345
#
# Compressibility (1/GPa) = 0.01731097
#
# Stress axis : x y z
#
# Youngs Moduli (GPa) = 38.39508 38.39508 93.99302
#
# Poissons Ratio (x) = 0.36025 0.62629
# Poissons Ratio (y) = 0.36025 0.62629
# Poissons Ratio (z) = 0.25583 0.25583
#
# Static dielectric constant tensor:
#      x y z
#    x 1.497530 0.000000 0.000000 
#    y 0.000000 1.497530 0.000000 
#    z 0.000000 0.000000 1.575960 
# 
# From -- ./inp_files/3844.got.cif
#   From: 2010.05.17/outbox.cif.g08.bks.cpg/sg187_2_cif.got.tgz:3844.got - 2010.05.20 12:09:04.
