data_PCOD9585547
_publ_section_title
;
Structure prediction by ZEFSAII (Michael W. Deem and Ramdas Pophale) SiO2 
 PCOD9585547
Probable space group: P -6 M 2
;
_chemical_formula_sum "Si O2"
_cell_formula_units_Z 66
_cell_length_a 22.945984
_cell_length_b 22.945984
_cell_length_c 7.474144
_cell_angle_alpha 90.000000
_cell_angle_beta 90.000000
_cell_angle_gamma 120.000000
_cell_volume 3408.046137
_symmetry_space_group_name_H-M "P -6 M 2"
_symmetry_group_IT_number 187
_symmetry_cell_setting 'hexagonal'
loop_
_space_group_symop_operation_xyz
x,y,z
-x+y,-x,-z
-y,x-y,z
x,y,-z
-x+y,-x,z
-y,x-y,-z
-y,-x,-z
-x+y,y,-z
x,x-y,-z
-x+y,y,z
x,x-y,z
-y,-x,z
loop_
_atom_site_type_symbol
_atom_site_label
_atom_site_fract_x
_atom_site_fract_y
_atom_site_fract_z
Si Si1 0.866595 0.867736 0.218154
Si Si2 0.473538 0.667190 0.500000
Si Si3 0.942722 0.348264 0.785211
Si Si4 0.283023 0.074613 0.781770
Si Si5 0.083692 0.471930 0.207115
Si Si6 0.798576 0.465329 0.714025
O O1 0.855354 0.927677 0.280252
O O2 0.812185 0.792368 0.274150
O O3 0.939870 0.879739 0.270511
O O4 0.866217 0.868308 0.000000
O O5 0.397787 0.602213 0.500000
O O6 0.471754 0.735877 0.500000
O O7 0.512172 0.659243 0.329403
O O8 0.936944 0.279291 0.718313
O O9 0.873797 0.347797 0.746745
O O10 0.012448 0.411743 0.723773
O O11 0.947587 0.349115 0.000000
O O12 0.294695 0.147348 0.727837
O O13 0.283699 0.074236 0.000000
O O14 0.078119 0.539060 0.211144
O O15 0.093455 0.458868 0.000000
O O16 0.791219 0.459071 0.500000
O O17 0.739204 0.478408 0.781439
O O18 0.790430 0.395215 0.782890
#
# Coordination Sequence:
#
# PCOD9585547 Si02
#       6
#    12   6  12  12  12  12
#     4   8  12  18  30  50  78 113 152 192 235 285
#     4  10  21  38  62  88 115 146 180 220 270 328
#     4  10  19  32  51  74 100 135 177 217 264 324
#     4   8  14  24  38  59  89 124 163 208 255 305
#     4   9  19  35  55  82 114 145 181 226 270 317
#     4  10  21  35  51  72 100 134 174 222 275 327
#
# _framework density 19.365936000000001
#
# number of rings (size 3 to 8) (size 9 to 14) (size 15 to 20)
#    0.000    2.909    0.000    2.636    1.273    4.000 
#    0.000    0.909    0.000    5.455    0.000    0.000 
#    0.000    0.000    0.000    0.000    0.000    0.364 
#
# Total GULP energy -368185.432111 kJ/mol
# GULP energy per Si atom -5578.567153 kJ/mol
# Density = 1.932186 g / cm^3
# Si number density = 19.365936 Si / 1000 Ang^3
#
#
#
# Elastic Constant Matrix: (Units=GPa)
#
#
# Indices 1 2 3 4 5 6 
#
# 1 138.5128 75.9956 32.7891 0.0000 -0.0001 0.0000
# 2 75.9956 138.5128 32.7891 0.0000 0.0001 0.0000
# 3 32.7891 32.7891 71.3366 0.0000 0.0000 0.0000
# 4 0.0000 0.0000 0.0000 12.0230 0.0000 0.0001
# 5 -0.0001 0.0001 0.0000 0.0000 12.0230 0.0000
# 6 0.0000 0.0000 0.0000 0.0001 0.0000 31.2586
#
#
#
# Elastic Compliance Matrix: (Units=1/GPa)
#
#
# Indices 1 2 3 4 5 6 
#
# 1 0.010710 -0.005286 -0.002493 0.000000 0.000000 0.000000
# 2 -0.005286 0.010710 -0.002493 0.000000 0.000000 0.000000
# 3 -0.002493 -0.002493 0.016310 0.000000 0.000000 0.000000
# 4 0.000000 0.000000 0.000000 0.083174 0.000000 0.000000
# 5 0.000000 0.000000 0.000000 0.000000 0.083174 0.000000
# 6 0.000000 0.000000 0.000000 0.000000 0.000000 0.031991
#
#
# Mechanical properties :
#
#
# Convention : Reuss Voigt Hill
#
# Bulk Modulus (GPa) = 58.18845 70.16777 64.17811
# Shear Modulus (GPa) = 19.05914 24.84680 21.95297
#
# Velocity S-wave (km/s) = 3.14053 3.58581 3.37053
# Velocity P-wave (km/s) = 6.57743 7.31131 6.95406
#
# Compressibility (1/GPa) = 0.01718554
#
# Stress axis : x y z
#
# Youngs Moduli (GPa) = 93.37249 93.37249 61.31249
#
# Poissons Ratio (x) = 0.49355 0.15286
# Poissons Ratio (y) = 0.49355 0.15286
# Poissons Ratio (z) = 0.23279 0.23279
#
# Static dielectric constant tensor:
#      x y z
#    x 1.652840 0.000000 0.000000 
#    y 0.000000 1.652840 0.000000 
#    z 0.000000 0.000000 1.754010 
# 
# From -- ./inp_files/743.got.cif
#   From: 2010.05.17/outbox.cif.g08.bks.cpg/sg187_1_cif.got.tgz:743.got - 2010.05.20 12:09:04.
