data_PCOD9585053
_publ_section_title
;
Structure prediction by ZEFSAII (Michael W. Deem and Ramdas Pophale) SiO2 
 PCOD9585053
Probable space group: P 6 M M
;
_chemical_formula_sum "Si O2"
_cell_formula_units_Z 84
_cell_length_a 27.590985
_cell_length_b 27.590985
_cell_length_c 7.205443
_cell_angle_alpha 90.000000
_cell_angle_beta 90.000000
_cell_angle_gamma 120.000000
_cell_volume 4750.351310
_symmetry_space_group_name_H-M "P 6 M M"
_symmetry_group_IT_number 183
_symmetry_cell_setting 'hexagonal'
loop_
_space_group_symop_operation_xyz
x,y,z
x-y,x,z
-y,x-y,z
-x,-y,z
-x+y,-x,z
y,-x+y,z
-x+y,y,z
x,x-y,z
-y,-x,z
y,x,z
x-y,-y,z
-x,-x+y,z
loop_
_atom_site_type_symbol
_atom_site_label
_atom_site_fract_x
_atom_site_fract_y
_atom_site_fract_z
Si Si1 0.066229 0.633085 0.258790
Si Si2 0.332019 0.776769 0.321476
Si Si3 0.066081 0.245362 0.397455
Si Si4 0.671309 0.738118 0.111653
Si Si5 0.147817 0.629882 0.975894
Si Si6 0.338699 0.226375 0.702258
Si Si7 0.320336 0.860218 0.587882
O O1 0.086596 0.697787 0.204426
O O2 0.088160 0.633682 0.465343
O O3 0.000000 0.597919 0.249944
O O4 0.094486 0.612571 0.107957
O O5 0.394845 0.789690 0.362275
O O6 0.288583 0.711418 0.327292
O O7 0.312250 0.807738 0.466536
O O8 0.333397 0.801017 0.116075
O O9 0.113274 0.226548 0.411553
O O10 0.082610 0.288211 0.223864
O O11 0.073807 0.285795 0.571760
O O12 0.000000 0.197928 0.383851
O O13 0.703006 0.703006 0.122254
O O14 0.664087 0.748790 0.899148
O O15 0.151398 0.575699 0.920260
O O16 0.144684 0.660746 0.793527
O O17 0.336536 0.168268 0.735988
O O18 0.397850 0.267959 0.606783
#
# Coordination Sequence:
#
# PCOD9585053 Si02
#       7
#    12  12  12  12  12  12  12
#     4  10  21  36  56  79 108 146 186 226 270 327
#     4  10  22  40  61  82 106 138 182 236 294 352
#     4  10  21  37  57  84 118 153 190 232 277 328
#     4  10  19  34  54  79 111 146 185 227 269 320
#     4  10  22  40  57  77 108 143 183 231 283 338
#     4  11  21  32  52  83 114 146 184 223 270 329
#     4  11  21  37  55  84 112 146 180 229 282 341
#
# _framework density 17.682903
#
# number of rings (size 3 to 8) (size 9 to 14) (size 15 to 20)
#    0.000    1.714    2.857    1.857    0.000    3.143 
#    0.000    0.000    0.000    1.857    0.000    0.000 
#    0.000    0.000    0.000    4.571    0.000    0.000 
#
# Total GULP energy -468453.738472 kJ/mol
# GULP energy per Si atom -5576.830220 kJ/mol
# Density = 1.764266 g / cm^3
# Si number density = 17.682903 Si / 1000 Ang^3
#
#
#
# Elastic Constant Matrix: (Units=GPa)
#
#
# Indices 1 2 3 4 5 6 
#
# 1 41.2974 28.3498 8.0513 0.0000 0.0000 0.0000
# 2 28.3498 41.2974 8.0513 0.0000 0.0000 0.0000
# 3 8.0513 8.0513 69.3965 0.0000 0.0000 0.0000
# 4 0.0000 0.0000 0.0000 15.9129 0.0000 0.0000
# 5 0.0000 0.0000 0.0000 0.0000 15.9129 0.0000
# 6 0.0000 0.0000 0.0000 0.0000 0.0000 6.4738
#
#
#
# Elastic Compliance Matrix: (Units=1/GPa)
#
#
# Indices 1 2 3 4 5 6 
#
# 1 0.045994 -0.031241 -0.001712 0.000000 0.000000 0.000000
# 2 -0.031241 0.045994 -0.001712 0.000000 0.000000 0.000000
# 3 -0.001712 -0.001712 0.014807 0.000000 0.000000 0.000000
# 4 0.000000 0.000000 0.000000 0.062842 0.000000 0.000000
# 5 0.000000 0.000000 0.000000 0.000000 0.062842 0.000000
# 6 0.000000 0.000000 0.000000 0.000000 0.000000 0.154470
#
#
# Mechanical properties :
#
#
# Convention : Reuss Voigt Hill
#
# Bulk Modulus (GPa) = 26.68951 26.76624 26.72788
# Shear Modulus (GPa) = 10.66628 14.82915 12.74771
#
# Velocity S-wave (km/s) = 2.45867 2.89903 2.68788
# Velocity P-wave (km/s) = 4.81521 5.13570 4.97804
#
# Compressibility (1/GPa) = 0.03746790
#
# Stress axis : x y z
#
# Youngs Moduli (GPa) = 21.74181 21.74181 67.53503
#
# Poissons Ratio (x) = 0.67923 0.11560
# Poissons Ratio (y) = 0.67923 0.11560
# Poissons Ratio (z) = 0.03722 0.03722
#
# Static dielectric constant tensor:
#      x y z
#    x 1.613330 0.000000 0.000000 
#    y 0.000000 1.613330 0.000000 
#    z 0.000000 0.000000 1.610840 
# 
# From -- ./inp_files/560.got.cif
#   From: 2010.05.17/outbox.cif.g08.bks.cpg/sg183_1_cif.got.tgz:560.got - 2010.05.20 12:02:58.
