data_PCOD9585876
_publ_section_title
;
Structure prediction by ZEFSAII (Michael W. Deem and Ramdas Pophale) SiO2 
 PCOD9585876
Probable space group: P -6 C 2
;
_chemical_formula_sum "Si O2"
_cell_formula_units_Z 76
_cell_length_a 19.040845
_cell_length_b 19.040845
_cell_length_c 14.274236
_cell_angle_alpha 90.000000
_cell_angle_beta 90.000000
_cell_angle_gamma 120.000000
_cell_volume 4481.835785
_symmetry_space_group_name_H-M "P -6 C 2"
_symmetry_group_IT_number 188
_symmetry_cell_setting 'hexagonal'
loop_
_space_group_symop_operation_xyz
x,y,z
-x+y,-x,1/2-z
-y,x-y,z
x,y,1/2-z
-x+y,-x,z
-y,x-y,1/2-z
-y,-x,-z
-x+y,y,-z
x,x-y,-z
-x+y,y,1/2+z
x,x-y,1/2+z
-y,-x,1/2+z
loop_
_atom_site_type_symbol
_atom_site_label
_atom_site_fract_x
_atom_site_fract_y
_atom_site_fract_z
Si Si1 0.373786 0.558576 0.906001
Si Si2 0.496504 0.422465 0.137499
Si Si3 0.287149 0.473178 0.149008
Si Si4 0.771735 0.515069 0.356741
Si Si5 0.666667 0.333335 0.888899
Si Si6 0.410920 0.077594 0.136423
Si Si7 0.356664 0.947766 0.995418
O O1 0.448922 0.622368 0.846218
O O2 0.282565 0.515882 0.869240
O O3 0.388472 0.611529 0.000000
O O4 0.386916 0.485485 0.936275
O O5 0.483450 0.418939 0.250000
O O6 0.495035 0.340118 0.104296
O O7 0.582617 0.503459 0.121014
O O8 0.423757 0.421258 0.080697
O O9 0.265113 0.431613 0.250000
O O10 0.288144 0.415796 0.066121
O O11 0.795122 0.541831 0.250000
O O12 0.695918 0.423773 0.355970
O O13 0.739095 0.572635 0.393838
O O14 0.666668 0.333334 0.000000
O O15 0.394394 0.065987 0.250000
O O16 0.346726 0.007770 0.067192
#
# Coordination Sequence:
#
# PCOD9585876 Si02
#       7
#    12  12  12  12   4  12  12
#     4  10  20  34  49  67  90 114 139 179 226 271
#     4  10  19  30  46  63  84 116 151 190 237 277
#     4  11  21  34  52  71  89 112 144 180 226 279
#     4  10  20  33  45  59  85 118 155 202 244 274
#     4  12  22  26  43  66  85 107 157 210 253 278
#     4  10  20  31  45  62  84 118 154 191 237 278
#     4  11  22  33  46  63  92 114 141 181 230 280
#
# _framework density 16.957336999999999
#
# number of rings (size 3 to 8) (size 9 to 14) (size 15 to 20)
#    0.000    1.579    1.579    6.947    2.211    3.789 
#    0.000    0.000    0.000    0.000    0.000    0.000 
#    0.000    0.000    0.000    0.000    0.000    0.000 
#
# Total GULP energy -423316.231012 kJ/mol
# GULP energy per Si atom -5569.950408 kJ/mol
# Density = 1.691874 g / cm^3
# Si number density = 16.957337 Si / 1000 Ang^3
#
#
#
# Elastic Constant Matrix: (Units=GPa)
#
#
# Indices 1 2 3 4 5 6 
#
# 1 52.4145 17.4716 14.3392 -0.0004 0.0000 0.0000
# 2 17.4716 52.4146 14.3393 -0.0002 0.0004 0.0000
# 3 14.3392 14.3393 79.5895 0.0007 -0.0007 0.0000
# 4 -0.0004 -0.0002 0.0007 -26.0911 0.0020 -0.0002
# 5 0.0000 0.0004 -0.0007 0.0020 -26.1088 -0.0002
# 6 0.0000 0.0000 0.0000 -0.0002 -0.0002 17.4716
#
#
#
# Elastic Compliance Matrix: (Units=1/GPa)
#
#
# Indices 1 2 3 4 5 6 
#
# 1 0.022035 -0.006583 -0.002784 0.000000 0.000000 0.000000
# 2 -0.006583 0.022035 -0.002784 0.000000 0.000000 0.000000
# 3 -0.002784 -0.002784 0.013568 0.000000 0.000000 0.000000
# 4 0.000000 0.000000 0.000000 -0.038327 -0.000003 0.000000
# 5 0.000000 0.000000 0.000000 -0.000003 -0.038301 0.000000
# 6 0.000000 0.000000 0.000000 0.000000 0.000000 0.057236
#
#
# Mechanical properties :
#
#
# Convention : Reuss Voigt Hill
#
# Bulk Modulus (GPa) = 29.99841 30.74652 30.37247
# Shear Modulus (GPa) = 67.88144 2.27224 35.07684
#
# Velocity S-wave (km/s) = 6.33385 1.15883 4.55305
# Velocity P-wave (km/s) = 8.43914 4.46784 6.75206
#
# Compressibility (1/GPa) = 0.03333509
#
# Stress axis : x y z
#
# Youngs Moduli (GPa) = 45.38289 45.38302 73.70528
#
# Poissons Ratio (x) = 0.29877 0.20518
# Poissons Ratio (y) = 0.29877 0.20518
# Poissons Ratio (z) = 0.12634 0.12634
#
# Static dielectric constant tensor:
#      x y z
#    x 1.604830 0.000000 0.000000 
#    y 0.000000 1.604820 0.000000 
#    z 0.000000 0.000000 1.684430 
# 
# From -- ./inp_files/2513.got.cif
#   From: 2010.05.17/outbox.cif.g08.bks.cpg/sg188_2_cif.got.tgz:2513.got - 2010.05.20 12:11:46.
