data_PCOD9585035
_publ_section_title
;
Structure prediction by ZEFSAII (Michael W. Deem and Ramdas Pophale) SiO2 
 PCOD9585035
Probable space group: P 6 M M
;
_chemical_formula_sum "Si O2"
_cell_formula_units_Z 96
_cell_length_a 18.173383
_cell_length_b 18.173383
_cell_length_c 20.905184
_cell_angle_alpha 90.000000
_cell_angle_beta 90.000000
_cell_angle_gamma 120.000000
_cell_volume 5979.380417
_symmetry_space_group_name_H-M "P 6 M M"
_symmetry_group_IT_number 183
_symmetry_cell_setting 'hexagonal'
loop_
_space_group_symop_operation_xyz
x,y,z
x-y,x,z
-y,x-y,z
-x,-y,z
-x+y,-x,z
y,-x+y,z
-x+y,y,z
x,x-y,z
-y,-x,z
y,x,z
x-y,-y,z
-x,-x+y,z
loop_
_atom_site_type_symbol
_atom_site_label
_atom_site_fract_x
_atom_site_fract_y
_atom_site_fract_z
Si Si1 0.532397 0.897531 0.166200
Si Si2 0.735373 0.636594 0.529137
Si Si3 0.333258 0.840408 0.928962
Si Si4 0.356444 0.262713 0.675831
Si Si5 0.365862 0.267106 0.044597
Si Si6 0.840975 0.507221 0.782745
Si Si7 0.897450 0.531659 0.413154
Si Si8 0.101830 0.368379 0.289989
O O1 0.431755 0.863510 0.166936
O O2 0.567375 0.875381 0.103082
O O3 0.569409 0.877652 0.229289
O O4 0.577844 0.000000 0.165427
O O5 0.835270 0.670539 0.521335
O O6 0.705316 0.705316 0.516571
O O7 0.713532 0.609012 0.603182
O O8 0.685473 0.560369 0.479337
O O9 0.424163 0.848325 0.941810
O O10 0.258175 0.741826 0.932834
O O11 0.333288 0.869102 0.855896
O O12 0.309286 0.890071 0.980203
O O13 0.333530 0.166765 0.686625
O O14 0.277335 0.277335 0.679977
O O15 0.424585 0.318845 0.729018
O O16 0.333896 0.166948 0.042854
O O17 0.294873 0.294873 0.052685
O O18 0.745173 0.490346 0.777363
O O19 0.842332 0.421166 0.772833
O O20 0.863278 0.431639 0.407225
O O21 0.877640 0.573957 0.353335
O O22 0.000000 0.577384 0.413057
O O23 0.165393 0.330785 0.288107
O O24 0.000000 0.301015 0.289320
#
# Coordination Sequence:
#
# PCOD9585035 Si02
#       8
#    12  12  12  12  12  12  12  12
#     4   9  17  30  49  71  93 118 149 185 225 270
#     4   9  17  30  48  68  90 118 152 188 226 270
#     4   9  17  29  46  68  94 123 152 182 218 264
#     4   9  18  31  46  65  89 117 150 189 231 271
#     4  10  20  33  49  69  93 122 156 193 232 273
#     4   9  17  29  45  66  93 123 152 181 217 264
#     4   9  17  29  46  67  89 115 148 185 224 267
#     4  10  19  31  49  72  97 126 161 199 237 277
#
# _framework density 16.055174999999998
#
# number of rings (size 3 to 8) (size 9 to 14) (size 15 to 20)
#    0.000    2.750    0.000    1.750    0.000    4.500 
#    0.000    2.500    0.000    8.250    0.000    1.750 
#    0.000    6.000    0.000    6.375    0.000    3.750 
#
# Total GULP energy -534574.857618 kJ/mol
# GULP energy per Si atom -5568.488100 kJ/mol
# Density = 1.601863 g / cm^3
# Si number density = 16.055175 Si / 1000 Ang^3
#
#
#
# Elastic Constant Matrix: (Units=GPa)
#
#
# Indices 1 2 3 4 5 6 
#
# 1 69.6382 50.5591 44.6639 0.0000 0.0000 0.0000
# 2 50.5591 69.6382 44.6639 0.0000 0.0000 0.0000
# 3 44.6639 44.6639 94.8443 0.0000 0.0000 0.0000
# 4 0.0000 0.0000 0.0000 18.9467 0.0000 0.0000
# 5 0.0000 0.0000 0.0000 0.0000 18.9467 0.0000
# 6 0.0000 0.0000 0.0000 0.0000 0.0000 9.5396
#
#
#
# Elastic Compliance Matrix: (Units=1/GPa)
#
#
# Indices 1 2 3 4 5 6 
#
# 1 0.032606 -0.019807 -0.006027 0.000000 0.000000 0.000000
# 2 -0.019807 0.032606 -0.006027 0.000000 0.000000 0.000000
# 3 -0.006027 -0.006027 0.016220 0.000000 0.000000 0.000000
# 4 0.000000 0.000000 0.000000 0.052780 0.000000 0.000000
# 5 0.000000 0.000000 0.000000 0.000000 0.052780 0.000000
# 6 0.000000 0.000000 0.000000 0.000000 0.000000 0.104827
#
#
# Mechanical properties :
#
#
# Convention : Reuss Voigt Hill
#
# Bulk Modulus (GPa) = 56.46790 57.09938 56.78364
# Shear Modulus (GPa) = 13.83337 15.76887 14.80112
#
# Velocity S-wave (km/s) = 2.93851 3.13735 3.03956
# Velocity P-wave (km/s) = 6.83818 6.98324 6.91109
#
# Compressibility (1/GPa) = 0.01770918
#
# Stress axis : x y z
#
# Youngs Moduli (GPa) = 30.66907 30.66907 61.65122
#
# Poissons Ratio (x) = 0.60747 0.37159
# Poissons Ratio (y) = 0.60747 0.37159
# Poissons Ratio (z) = 0.18485 0.18485
#
# Static dielectric constant tensor:
#      x y z
#    x 1.531670 0.000000 0.000000 
#    y 0.000000 1.531670 0.000000 
#    z 0.000000 0.000000 1.557140 
# 
# From -- ./inp_files/3099.got.cif
#   From: 2010.05.17/outbox.cif.g08.bks.cpg/sg183_2_cif.got.tgz:3099.got - 2010.05.20 12:02:58.
