data_PCOD9585003
_publ_section_title
;
Structure prediction by ZEFSAII (Michael W. Deem and Ramdas Pophale) SiO2 
 PCOD9585003
Probable space group: P 6 M M
;
_chemical_formula_sum "Si O2"
_cell_formula_units_Z 72
_cell_length_a 18.430060
_cell_length_b 18.430060
_cell_length_c 15.478712
_cell_angle_alpha 90.000000
_cell_angle_beta 90.000000
_cell_angle_gamma 120.000000
_cell_volume 4553.223300
_symmetry_space_group_name_H-M "P 6 M M"
_symmetry_group_IT_number 183
_symmetry_cell_setting 'hexagonal'
loop_
_space_group_symop_operation_xyz
x,y,z
x-y,x,z
-y,x-y,z
-x,-y,z
-x+y,-x,z
y,-x+y,z
-x+y,y,z
x,x-y,z
-y,-x,z
y,x,z
x-y,-y,z
-x,-x+y,z
loop_
_atom_site_type_symbol
_atom_site_label
_atom_site_fract_x
_atom_site_fract_y
_atom_site_fract_z
Si Si1 0.502579 0.834567 0.546970
Si Si2 0.256790 0.903657 0.206904
Si Si3 0.098135 0.362911 0.694564
Si Si4 0.360056 0.262373 0.007075
Si Si5 0.899449 0.532578 0.356186
Si Si6 0.101098 0.632570 0.854850
O O1 0.425019 0.850037 0.562958
O O2 0.475799 0.737900 0.561547
O O3 0.580358 0.888142 0.610047
O O4 0.529913 0.857634 0.447482
O O5 0.158549 0.841452 0.215090
O O6 0.280758 0.896633 0.108074
O O7 0.303798 0.878553 0.277418
O O8 0.285362 0.000000 0.221554
O O9 0.165821 0.331641 0.691479
O O10 0.122453 0.426990 0.775093
O O11 0.000000 0.293118 0.702406
O O12 0.329068 0.164534 0.992742
O O13 0.291724 0.291724 0.989944
O O14 0.437727 0.315826 0.943633
O O15 0.876804 0.438402 0.334662
O O16 0.000000 0.585800 0.368288
O O17 0.134771 0.567386 0.848211
O O18 0.000000 0.576641 0.853061
#
# Coordination Sequence:
#
# PCOD9585003 Si02
#       6
#    12  12  12  12  12  12
#     4  10  19  30  45  66  93 123 153 185 222 265
#     4   9  17  29  45  65  89 117 151 190 230 271
#     4  10  20  33  50  71  94 121 153 189 227 267
#     4   9  17  29  46  67  90 118 152 190 230 271
#     4   9  17  28  43  64  88 115 149 187 225 267
#     4   9  17  29  46  68  91 115 145 179 215 257
#
# _framework density 15.812974000000001
#
# number of rings (size 3 to 8) (size 9 to 14) (size 15 to 20)
#    0.000    2.667    0.000    2.167    0.000    2.333 
#    0.000    3.333    0.000    4.500    0.000    2.333 
#    0.000    4.000    0.000    5.500    0.000    3.667 
#
# Total GULP energy -400909.942281 kJ/mol
# GULP energy per Si atom -5568.193643 kJ/mol
# Density = 1.577698 g / cm^3
# Si number density = 15.812974 Si / 1000 Ang^3
#
#
#
# Elastic Constant Matrix: (Units=GPa)
#
#
# Indices 1 2 3 4 5 6 
#
# 1 77.9231 46.3984 42.9559 0.0000 0.0000 0.0000
# 2 46.3984 77.9231 42.9559 0.0000 0.0000 0.0000
# 3 42.9559 42.9559 74.6430 0.0000 0.0000 0.0000
# 4 0.0000 0.0000 0.0000 20.6014 0.0000 0.0000
# 5 0.0000 0.0000 0.0000 0.0000 20.6014 0.0000
# 6 0.0000 0.0000 0.0000 0.0000 0.0000 15.7623
#
#
#
# Elastic Compliance Matrix: (Units=1/GPa)
#
#
# Indices 1 2 3 4 5 6 
#
# 1 0.022538 -0.009183 -0.007685 0.000000 0.000000 0.000000
# 2 -0.009183 0.022538 -0.007685 0.000000 0.000000 0.000000
# 3 -0.007685 -0.007685 0.022243 0.000000 0.000000 0.000000
# 4 0.000000 0.000000 0.000000 0.048540 0.000000 0.000000
# 5 0.000000 0.000000 0.000000 0.000000 0.048540 0.000000
# 6 0.000000 0.000000 0.000000 0.000000 0.000000 0.063442
#
#
# Mechanical properties :
#
#
# Convention : Reuss Voigt Hill
#
# Bulk Modulus (GPa) = 54.91351 55.01218 54.96285
# Shear Modulus (GPa) = 17.66659 17.93827 17.80243
#
# Velocity S-wave (km/s) = 3.34611 3.37174 3.35895
# Velocity P-wave (km/s) = 7.05201 7.07269 7.06236
#
# Compressibility (1/GPa) = 0.01821045
#
# Stress axis : x y z
#
# Youngs Moduli (GPa) = 44.36972 44.36972 44.95847
#
# Poissons Ratio (x) = 0.40746 0.34552
# Poissons Ratio (y) = 0.40746 0.34552
# Poissons Ratio (z) = 0.34100 0.34100
#
# Static dielectric constant tensor:
#      x y z
#    x 1.525440 0.000000 0.000000 
#    y 0.000000 1.525440 0.000000 
#    z 0.000000 0.000000 1.539620 
# 
# From -- ./inp_files/2475.got.cif
#   From: 2010.05.17/outbox.cif.g08.bks.cpg/sg183_2_cif.got.tgz:2475.got - 2010.05.20 12:02:58.
