data_PCOD9585631
_publ_section_title
;
Structure prediction by ZEFSAII (Michael W. Deem and Ramdas Pophale) SiO2 
 PCOD9585631
Probable space group: P -6 M 2
;
_chemical_formula_sum "Si O2"
_cell_formula_units_Z 84
_cell_length_a 18.457443
_cell_length_b 18.457443
_cell_length_c 17.468455
_cell_angle_alpha 90.000000
_cell_angle_beta 90.000000
_cell_angle_gamma 120.000000
_cell_volume 5153.807569
_symmetry_space_group_name_H-M "P -6 M 2"
_symmetry_group_IT_number 187
_symmetry_cell_setting 'hexagonal'
loop_
_space_group_symop_operation_xyz
x,y,z
-x+y,-x,-z
-y,x-y,z
x,y,-z
-x+y,-x,z
-y,x-y,-z
-y,-x,-z
-x+y,y,-z
x,x-y,-z
-x+y,y,z
x,x-y,z
-y,-x,z
loop_
_atom_site_type_symbol
_atom_site_label
_atom_site_fract_x
_atom_site_fract_y
_atom_site_fract_z
Si Si1 0.501136 0.666036 0.910562
Si Si2 0.331904 0.337159 0.640221
Si Si3 0.666688 0.162799 0.407562
Si Si4 0.256816 0.343676 0.199715
Si Si5 0.839565 0.001106 0.185530
Si Si6 0.167731 0.167440 0.372384
Si Si7 0.497279 0.666675 0.408816
O O1 0.477011 0.738506 0.902936
O O2 0.422791 0.577210 0.890271
O O3 0.579527 0.692255 0.856147
O O4 0.522153 0.664770 0.000000
O O5 0.415939 0.333344 0.628152
O O6 0.310164 0.343816 0.728368
O O7 0.252268 0.252751 0.607427
O O8 0.339285 0.420240 0.603862
O O9 0.666406 0.154206 0.500000
O O10 0.582751 0.165501 0.387140
O O11 0.750578 0.249423 0.387214
O O12 0.172836 0.345671 0.226116
O O13 0.221105 0.254463 0.158505
O O14 0.866381 0.933191 0.165081
O O15 0.835632 0.001265 0.278905
O O16 0.907509 0.092492 0.159805
O O17 0.084276 0.168552 0.397020
O O18 0.168021 0.084011 0.398476
O O19 0.486367 0.667125 0.500000
O O20 0.506063 0.753032 0.377829
O O21 0.414667 0.585334 0.377374
#
# Coordination Sequence:
#
# PCOD9585631 Si02
#       7
#    12  12  12  12  12  12  12
#     4   9  17  30  48  68  90 120 160 201 237 276
#     4  11  19  30  47  71  97 119 148 188 234 282
#     4  10  21  37  55  73  93 119 153 195 243 292
#     4   9  18  30  44  66  97 127 152 186 235 282
#     4   8  13  22  38  60  85 114 147 179 210 249
#     4   9  16  26  41  62  89 120 152 185 221 262
#     4  10  20  33  47  62  83 114 150 184 218 262
#
# _framework density 16.298629999999999
#
# number of rings (size 3 to 8) (size 9 to 14) (size 15 to 20)
#    0.000    2.571    0.000    4.143    0.000    5.714 
#    0.000    0.000    0.000    2.143    0.000    0.000 
#    0.000    8.000    0.000    0.000    0.000    1.000 
#
# Total GULP energy -468244.317875 kJ/mol
# GULP energy per Si atom -5574.337118 kJ/mol
# Density = 1.626153 g / cm^3
# Si number density = 16.298630 Si / 1000 Ang^3
#
#
#
# Elastic Constant Matrix: (Units=GPa)
#
#
# Indices 1 2 3 4 5 6 
#
# 1 158.1150 95.5693 33.6738 0.0000 0.0004 0.0000
# 2 95.5693 158.1150 33.6738 0.0000 -0.0004 0.0000
# 3 33.6738 33.6738 20.1415 0.0000 0.0000 0.0000
# 4 0.0000 0.0000 0.0000 15.5643 0.0000 -0.0004
# 5 0.0004 -0.0004 0.0000 0.0000 15.5643 0.0000
# 6 0.0000 0.0000 0.0000 -0.0004 0.0000 31.2728
#
#
#
# Elastic Compliance Matrix: (Units=1/GPa)
#
#
# Indices 1 2 3 4 5 6 
#
# 1 0.011538 -0.004450 -0.011850 0.000000 0.000000 0.000000
# 2 -0.004450 0.011538 -0.011850 0.000000 0.000000 0.000000
# 3 -0.011850 -0.011850 0.089271 0.000000 0.000000 0.000000
# 4 0.000000 0.000000 0.000000 0.064250 0.000000 0.000001
# 5 0.000000 0.000000 0.000000 0.000000 0.064250 0.000000
# 6 0.000000 0.000000 0.000000 0.000001 0.000000 0.031977
#
#
# Mechanical properties :
#
#
# Convention : Reuss Voigt Hill
#
# Bulk Modulus (GPa) = 17.84200 73.57838 45.71019
# Shear Modulus (GPa) = 14.37587 24.04392 19.20990
#
# Velocity S-wave (km/s) = 2.97312 3.84501 3.43683
# Velocity P-wave (km/s) = 4.77039 8.05941 6.62234
#
# Compressibility (1/GPa) = 0.05604753
#
# Stress axis : x y z
#
# Youngs Moduli (GPa) = 86.66981 86.66981 11.20184
#
# Poissons Ratio (x) = 0.38571 0.13274
# Poissons Ratio (y) = 0.38571 0.13274
# Poissons Ratio (z) = 1.02702 1.02702
#
# Static dielectric constant tensor:
#      x y z
#    x 1.550200 0.000000 0.000000 
#    y 0.000000 1.550200 0.000000 
#    z 0.000000 0.000000 1.550960 
# 
# From -- ./inp_files/3663.got.cif
#   From: 2010.05.17/outbox.cif.g08.bks.cpg/sg187_2_cif.got.tgz:3663.got - 2010.05.20 12:09:04.
