data_PCOD9585407
_publ_section_title
;
Structure prediction by ZEFSAII (Michael W. Deem and Ramdas Pophale) SiO2 
 PCOD9585407
Probable space group: P 63 M C
;
_chemical_formula_sum "Si O2"
_cell_formula_units_Z 40
_cell_length_a 11.917625
_cell_length_b 11.917625
_cell_length_c 15.677374
_cell_angle_alpha 90.000000
_cell_angle_beta 90.000000
_cell_angle_gamma 120.000000
_cell_volume 1928.338989
_symmetry_space_group_name_H-M "P 63 M C"
_symmetry_group_IT_number 186
_symmetry_cell_setting 'hexagonal'
loop_
_space_group_symop_operation_xyz
x,y,z
x-y,x,1/2+z
-y,x-y,z
-x,-y,1/2+z
-x+y,-x,z
y,-x+y,1/2+z
-x+y,y,z
x,x-y,z
-y,-x,z
y,x,1/2+z
x-y,-y,1/2+z
-x,-x+y,1/2+z
loop_
_atom_site_type_symbol
_atom_site_label
_atom_site_fract_x
_atom_site_fract_y
_atom_site_fract_z
Si Si1 0.253713 0.000759 0.013800
Si Si2 0.666667 0.333333 0.566758
Si Si3 0.945070 0.472535 0.474114
Si Si4 0.744976 0.745263 0.718596
Si Si5 0.333334 0.666667 0.276257
Si Si6 0.514169 0.485832 0.789217
O O1 0.239835 0.119918 0.980488
O O2 0.242770 0.999409 0.116237
O O3 0.137286 0.862715 0.982195
O O4 0.392028 0.016182 0.994371
O O5 0.811867 0.405934 0.528377
O O6 0.666667 0.333334 0.670537
O O7 0.937111 0.468556 0.372129
O O8 0.743555 0.871778 0.751430
O O9 0.614925 0.613810 0.739469
O O10 0.869507 0.739013 0.751314
O O11 0.183889 0.591945 0.306362
#
# Coordination Sequence:
#
# PCOD9585407 Si02
#       6
#    12   2   6  12   2   6
#     4  10  21  40  66  94 125 167 220 272 330 408
#     4  12  24  48  78  96 127 194 250 273 330 450
#     4  12  26  40  66  96 136 168 224 286 344 391
#     4  10  21  40  66  94 125 167 220 272 330 408
#     4  12  24  48  78  96 127 194 250 273 330 450
#     4  12  26  40  66  96 136 168 224 286 344 391
#
# _framework density 20.743241999999999
#
# number of rings (size 3 to 8) (size 9 to 14) (size 15 to 20)
#    0.000    1.200    3.000    3.300    4.200    2.400 
#    1.800    0.000    0.000    3.600    0.000    0.000 
#    0.000    0.000    0.000    0.000    0.000    0.000 
#
# Total GULP energy -223492.809655 kJ/mol
# GULP energy per Si atom -5587.320241 kJ/mol
# Density = 2.069603 g / cm^3
# Si number density = 20.743242 Si / 1000 Ang^3
#
#
#
# Elastic Constant Matrix: (Units=GPa)
#
#
# Indices 1 2 3 4 5 6 
#
# 1 144.2360 58.3966 6.1239 0.0000 0.0000 0.0003
# 2 58.3966 144.2360 6.1239 0.0000 0.0000 -0.0005
# 3 6.1239 6.1239 30.5565 0.0000 0.0000 -0.0003
# 4 0.0000 0.0000 0.0000 -17.2339 -0.0001 0.0000
# 5 0.0000 0.0000 0.0000 -0.0001 -17.2340 0.0000
# 6 0.0003 -0.0005 -0.0003 0.0000 0.0000 42.9197
#
#
#
# Elastic Compliance Matrix: (Units=1/GPa)
#
#
# Indices 1 2 3 4 5 6 
#
# 1 0.008323 -0.003327 -0.001001 0.000000 0.000000 0.000000
# 2 -0.003327 0.008323 -0.001001 0.000000 0.000000 0.000000
# 3 -0.001001 -0.001001 0.033128 0.000000 0.000000 0.000000
# 4 0.000000 0.000000 0.000000 -0.058025 0.000000 0.000000
# 5 0.000000 0.000000 0.000000 0.000000 -0.058025 0.000000
# 6 0.000000 0.000000 0.000000 0.000000 0.000000 0.023299
#
#
# Mechanical properties :
#
#
# Convention : Reuss Voigt Hill
#
# Bulk Modulus (GPa) = 25.56634 51.14640 38.35637
# Shear Modulus (GPa) = -259.31869 18.24930 -120.53469
#
# Velocity S-wave (km/s) = -11.19308 2.96931 -7.63113
# Velocity P-wave (km/s) = 12.43763 6.03872 7.68858
#
# Compressibility (1/GPa) = 0.03911393
#
# Stress axis : x y z
#
# Youngs Moduli (GPa) = 120.15460 120.15461 30.18639
#
# Poissons Ratio (x) = 0.39976 0.03022
# Poissons Ratio (y) = 0.39976 0.03022
# Poissons Ratio (z) = 0.12030 0.12030
#
# Static dielectric constant tensor:
#      x y z
#    x 1.735810 0.000000 0.000000 
#    y 0.000000 1.735810 0.000000 
#    z 0.000000 0.000000 1.761180 
# 
# From -- ./inp_files/2792.got.cif
#   From: 2010.05.17/outbox.cif.g08.bks.cpg/sg186_2_cif.got.tgz:2792.got - 2010.05.20 12:07:08.
