data_PCOD9585696
_publ_section_title
;
Structure prediction by ZEFSAII (Michael W. Deem and Ramdas Pophale) SiO2 
 PCOD9585696
Probable space group: P -6 M 2
;
_chemical_formula_sum "Si O2"
_cell_formula_units_Z 60
_cell_length_a 12.919591
_cell_length_b 12.919591
_cell_length_c 26.619110
_cell_angle_alpha 90.000000
_cell_angle_beta 90.000000
_cell_angle_gamma 120.000000
_cell_volume 3847.881537
_symmetry_space_group_name_H-M "P -6 M 2"
_symmetry_group_IT_number 187
_symmetry_cell_setting 'hexagonal'
loop_
_space_group_symop_operation_xyz
x,y,z
-x+y,-x,-z
-y,x-y,z
x,y,-z
-x+y,-x,z
-y,x-y,-z
-y,-x,-z
-x+y,y,-z
x,x-y,-z
-x+y,y,z
x,x-y,z
-y,-x,z
loop_
_atom_site_type_symbol
_atom_site_label
_atom_site_fract_x
_atom_site_fract_y
_atom_site_fract_z
Si Si1 0.086588 0.420667 0.000000
Si Si2 0.579135 0.911997 0.699215
Si Si3 0.914074 0.581388 0.609626
Si Si4 0.087481 0.666520 0.185795
Si Si5 0.420411 0.086926 0.094424
Si Si6 0.913923 0.580305 0.500000
O O1 0.004449 0.359477 0.048670
O O2 0.206481 0.412961 0.000000
O O3 0.117817 0.558909 0.000000
O O4 0.446364 0.892729 0.693992
O O5 0.575365 0.787683 0.692758
O O6 0.617616 0.952824 0.756686
O O7 0.657720 0.004104 0.656278
O O8 0.786613 0.573226 0.612791
O O9 0.897832 0.448916 0.612146
O O10 0.969370 0.634024 0.554375
O O11 0.116365 0.558183 0.181113
O O12 0.207610 0.792391 0.176639
O O13 0.984848 0.638530 0.145669
O O14 0.557887 0.115773 0.093700
O O15 0.414422 0.207211 0.089877
O O16 0.784807 0.569613 0.500000
O O17 0.897714 0.448857 0.500000
#
# Coordination Sequence:
#
# PCOD9585696 Si02
#       6
#     6  12  12  12  12   6
#     4  10  20  34  54  78 100 122 152 194 236 266
#     4   9  17  29  45  65  89 118 150 183 221 266
#     4   9  16  26  42  64  88 113 142 179 224 270
#     4   9  17  30  49  70  90 115 150 192 232 266
#     4  10  20  33  50  72  99 129 156 183 220 270
#     4   8  13  22  37  58  84 112 142 176 216 264
#
# _framework density 15.592997
#
# number of rings (size 3 to 8) (size 9 to 14) (size 15 to 20)
#    0.000    2.800    0.000    1.900    0.000    4.000 
#    0.000    3.500    0.000    8.400    0.000    1.400 
#    0.000    0.000    0.000    0.000    0.000    0.000 
#
# Total GULP energy -334066.983796 kJ/mol
# GULP energy per Si atom -5567.783063 kJ/mol
# Density = 1.555751 g / cm^3
# Si number density = 15.592997 Si / 1000 Ang^3
#
#
#
# Elastic Constant Matrix: (Units=GPa)
#
#
# Indices 1 2 3 4 5 6 
#
# 1 74.0264 44.1665 67.7079 0.0000 0.0002 0.0000
# 2 44.1665 74.0264 67.7079 0.0000 -0.0002 0.0000
# 3 67.7079 67.7079 148.2034 0.0000 0.0000 0.0000
# 4 0.0000 0.0000 0.0000 21.9618 0.0000 -0.0002
# 5 0.0002 -0.0002 0.0000 0.0000 21.9618 0.0000
# 6 0.0000 0.0000 0.0000 -0.0002 0.0000 14.9299
#
#
#
# Elastic Compliance Matrix: (Units=1/GPa)
#
#
# Indices 1 2 3 4 5 6 
#
# 1 0.025622 -0.007868 -0.008111 0.000000 0.000000 0.000000
# 2 -0.007868 0.025622 -0.008111 0.000000 0.000000 0.000000
# 3 -0.008111 -0.008111 0.014158 0.000000 0.000000 0.000000
# 4 0.000000 0.000000 0.000000 0.045534 0.000000 0.000001
# 5 0.000000 0.000000 0.000000 0.000000 0.045534 0.000000
# 6 0.000000 0.000000 0.000000 0.000001 0.000000 0.066980
#
#
# Mechanical properties :
#
#
# Convention : Reuss Voigt Hill
#
# Bulk Modulus (GPa) = 58.06481 72.82455 65.44468
# Shear Modulus (GPa) = 18.02654 19.54896 18.78775
#
# Velocity S-wave (km/s) = 3.40379 3.54461 3.47491
# Velocity P-wave (km/s) = 7.26404 7.97227 7.62638
#
# Compressibility (1/GPa) = 0.01722214
#
# Stress axis : x y z
#
# Youngs Moduli (GPa) = 39.02952 39.02952 70.62906
#
# Poissons Ratio (x) = 0.30709 0.57286
# Poissons Ratio (y) = 0.30709 0.57286
# Poissons Ratio (z) = 0.31656 0.31656
#
# Static dielectric constant tensor:
#      x y z
#    x 1.486630 0.000000 0.000000 
#    y 0.000000 1.486630 0.000000 
#    z 0.000000 0.000000 1.565940 
# 
# From -- ./inp_files/4196.got.cif
#   From: 2010.05.17/outbox.cif.g08.bks.cpg/sg187_3_cif.got.tgz:4196.got - 2010.05.20 12:09:04.
