data_PCOD9585456
_publ_section_title
;
Structure prediction by ZEFSAII (Michael W. Deem and Ramdas Pophale) SiO2 
 PCOD9585456
Probable space group: P -6 M 2
;
_chemical_formula_sum "Si O2"
_cell_formula_units_Z 26
_cell_length_a 16.146181
_cell_length_b 16.146181
_cell_length_c 7.486894
_cell_angle_alpha 90.000000
_cell_angle_beta 90.000000
_cell_angle_gamma 120.000000
_cell_volume 1690.331751
_symmetry_space_group_name_H-M "P -6 M 2"
_symmetry_group_IT_number 187
_symmetry_cell_setting 'hexagonal'
loop_
_space_group_symop_operation_xyz
x,y,z
-x+y,-x,-z
-y,x-y,z
x,y,-z
-x+y,-x,z
-y,x-y,-z
-y,-x,-z
-x+y,y,-z
x,x-y,-z
-x+y,y,z
x,x-y,z
-y,-x,z
loop_
_atom_site_type_symbol
_atom_site_label
_atom_site_fract_x
_atom_site_fract_y
_atom_site_fract_z
Si Si1 0.000000 0.000000 0.212961
Si Si2 0.666633 0.529994 0.000000
Si Si3 0.111893 0.888107 0.291084
Si Si4 0.747420 0.056880 0.286943
O O1 0.054508 0.945493 0.276233
O O2 0.000000 0.000000 0.000000
O O3 0.682720 0.596604 0.172169
O O4 0.565940 0.434061 0.000000
O O5 0.753905 0.507810 0.000000
O O6 0.124046 0.875955 0.500000
O O7 0.041507 0.781768 0.221471
O O8 0.728725 0.051930 0.500000
O O9 0.856805 0.143196 0.260376
#
# Coordination Sequence:
#
# PCOD9585456 Si02
#       4
#     2   6   6  12
#     4  12  22  20  40  72 106 146 172 174 196 263
#     4  10  21  35  50  64  88 120 162 205 247 280
#     4  10  18  30  44  66 104 140 158 177 215 268
#     4   9  18  30  47  70  97 127 157 188 223 273
#
# _framework density 15.381596
#
# number of rings (size 3 to 8) (size 9 to 14) (size 15 to 20)
#    0.000    2.308    2.308    0.923    3.231    0.923 
#    0.000    0.000    0.000    2.769    0.000    0.000 
#    9.231    0.000    2.769    0.000    0.000    0.000 
#
# Total GULP energy -144928.907055 kJ/mol
# GULP energy per Si atom -5574.188733 kJ/mol
# Density = 1.534659 g / cm^3
# Si number density = 15.381596 Si / 1000 Ang^3
#
#
#
# Elastic Constant Matrix: (Units=GPa)
#
#
# Indices 1 2 3 4 5 6 
#
# 1 125.9748 60.8738 42.4436 0.0000 -0.0024 0.0000
# 2 60.8738 125.9748 42.4436 0.0000 0.0024 0.0000
# 3 42.4436 42.4436 69.7132 0.0000 0.0000 0.0000
# 4 0.0000 0.0000 0.0000 32.4486 0.0000 0.0024
# 5 -0.0024 0.0024 0.0000 0.0000 32.4486 0.0000
# 6 0.0000 0.0000 0.0000 0.0024 0.0000 32.5505
#
#
#
# Elastic Compliance Matrix: (Units=1/GPa)
#
#
# Indices 1 2 3 4 5 6 
#
# 1 0.011380 -0.003981 -0.004504 0.000000 0.000001 0.000000
# 2 -0.003981 0.011380 -0.004504 0.000000 -0.000001 0.000000
# 3 -0.004504 -0.004504 0.019829 0.000000 0.000000 0.000000
# 4 0.000000 0.000000 0.000000 0.030818 0.000000 -0.000002
# 5 0.000001 -0.000001 0.000000 0.000000 0.030818 0.000000
# 6 0.000000 0.000000 0.000000 -0.000002 0.000000 0.030722
#
#
# Mechanical properties :
#
#
# Convention : Reuss Voigt Hill
#
# Bulk Modulus (GPa) = 60.20996 68.13164 64.17080
# Shear Modulus (GPa) = 30.03696 31.21632 30.62664
#
# Velocity S-wave (km/s) = 4.42383 4.50984 4.46704
# Velocity P-wave (km/s) = 8.08225 8.45628 8.27138
#
# Compressibility (1/GPa) = 0.01660855
#
# Stress axis : x y z
#
# Youngs Moduli (GPa) = 87.87716 87.87716 50.43064
#
# Poissons Ratio (x) = 0.34986 0.22716
# Poissons Ratio (y) = 0.34986 0.22716
# Poissons Ratio (z) = 0.39583 0.39583
#
# Static dielectric constant tensor:
#      x y z
#    x 1.494790 0.000000 0.000000 
#    y 0.000000 1.494790 0.000000 
#    z 0.000000 0.000000 1.545070 
# 
# From -- ./inp_files/186.got.cif
#   From: 2010.05.17/outbox.cif.g08.bks.cpg/sg187_1_cif.got.tgz:186.got - 2010.05.20 12:09:04.
