data_PCOD9585954
_publ_section_title
;
Structure prediction by ZEFSAII (Michael W. Deem and Ramdas Pophale) SiO2 
 PCOD9585954
Probable space group: P -6 C 2
;
_chemical_formula_sum "Si O2"
_cell_formula_units_Z 76
_cell_length_a 17.862324
_cell_length_b 17.862324
_cell_length_c 14.649451
_cell_angle_alpha 90.000000
_cell_angle_beta 90.000000
_cell_angle_gamma 120.000000
_cell_volume 4047.882583
_symmetry_space_group_name_H-M "P -6 C 2"
_symmetry_group_IT_number 188
_symmetry_cell_setting 'hexagonal'
loop_
_space_group_symop_operation_xyz
x,y,z
-x+y,-x,1/2-z
-y,x-y,z
x,y,1/2-z
-x+y,-x,z
-y,x-y,1/2-z
-y,-x,-z
-x+y,y,-z
x,x-y,-z
-x+y,y,1/2+z
x,x-y,1/2+z
-y,-x,1/2+z
loop_
_atom_site_type_symbol
_atom_site_label
_atom_site_fract_x
_atom_site_fract_y
_atom_site_fract_z
Si Si1 0.836380 0.040291 0.426397
Si Si2 0.886457 0.610501 0.146183
Si Si3 0.666668 0.333334 0.109277
Si Si4 0.159889 0.930891 0.250000
Si Si5 0.958555 0.104564 0.750000
Si Si6 0.091364 0.317927 0.446956
Si Si7 0.487318 0.313549 0.646147
Si Si8 0.424428 0.409002 0.988202
O O1 0.886634 0.113367 0.500000
O O2 0.789230 0.075312 0.357998
O O3 0.902995 0.030750 0.360886
O O4 0.763867 0.962747 0.484688
O O5 0.887025 0.583857 0.250000
O O6 0.786722 0.563552 0.115250
O O7 0.943623 0.587492 0.081566
O O8 0.756547 0.344729 0.142688
O O9 0.666668 0.333334 0.000000
O O10 0.197796 0.914497 0.156154
O O11 0.056774 0.863921 0.250000
O O12 0.174986 0.029241 0.250000
O O13 0.182262 0.364523 0.500000
O O14 0.048793 0.378099 0.451452
O O15 0.460000 0.315139 0.750000
O O16 0.467520 0.372186 0.581500
O O17 0.489823 0.510178 0.000000
#
# Coordination Sequence:
#
# PCOD9585954 Si02
#       8
#    12  12   4   6   6  12  12  12
#     4  11  20  35  58  85 119 157 204 253 302 367
#     4  10  20  34  55  85 116 158 206 248 303 356
#     4  12  22  35  52  75 121 170 212 248 292 336
#     4  12  25  40  64  91 127 165 215 261 311 379
#     4  12  23  36  60  87 123 165 207 251 311 355
#     4  11  24  42  65  89 119 162 205 259 321 387
#     4  11  22  34  56  82 118 163 209 249 293 348
#     4  11  24  40  60  87 121 155 200 259 320 376
#
# _framework density 18.775248000000001
#
# number of rings (size 3 to 8) (size 9 to 14) (size 15 to 20)
#    0.000    0.947    3.947    5.368    1.105    1.895 
#    0.000    0.000    0.000    0.316    0.000    0.000 
#    0.000    0.000    0.000    0.000    0.000    0.000 
#
# Total GULP energy -423090.036949 kJ/mol
# GULP energy per Si atom -5566.974170 kJ/mol
# Density = 1.873252 g / cm^3
# Si number density = 18.775248 Si / 1000 Ang^3
#
#
#
# Elastic Constant Matrix: (Units=GPa)
#
#
# Indices 1 2 3 4 5 6 
#
# 1 73.5779 47.7425 30.2504 -0.0003 -0.0004 0.0000
# 2 47.7425 73.5774 30.2506 0.0006 -0.0003 -0.0001
# 3 30.2504 30.2506 130.7157 -0.0001 0.0003 0.0000
# 4 -0.0003 0.0006 -0.0001 12.4767 -0.0002 -0.0001
# 5 -0.0004 -0.0003 0.0003 -0.0002 12.4794 0.0000
# 6 0.0000 -0.0001 0.0000 -0.0001 0.0000 12.9176
#
#
#
# Elastic Compliance Matrix: (Units=1/GPa)
#
#
# Indices 1 2 3 4 5 6 
#
# 1 0.024012 -0.014694 -0.002156 0.000001 0.000000 0.000000
# 2 -0.014694 0.024013 -0.002156 -0.000002 0.000000 0.000000
# 3 -0.002156 -0.002156 0.008648 0.000000 0.000000 0.000000
# 4 0.000001 -0.000002 0.000000 0.080150 0.000001 0.000000
# 5 0.000000 0.000000 0.000000 0.000001 0.080132 0.000000
# 6 0.000000 0.000000 0.000000 0.000000 0.000000 0.077414
#
#
# Mechanical properties :
#
#
# Convention : Reuss Voigt Hill
#
# Bulk Modulus (GPa) = 53.59420 54.92865 54.26143
# Shear Modulus (GPa) = 14.76657 18.88323 16.82490
#
# Velocity S-wave (km/s) = 2.80749 3.17480 2.99678
# Velocity P-wave (km/s) = 6.25431 6.53900 6.39824
#
# Compressibility (1/GPa) = 0.01865873
#
# Stress axis : x y z
#
# Youngs Moduli (GPa) = 41.64522 41.64482 115.63014
#
# Poissons Ratio (x) = 0.61195 0.24934
# Poissons Ratio (y) = 0.61195 0.24935
# Poissons Ratio (z) = 0.08980 0.08980
#
# Static dielectric constant tensor:
#      x y z
#    x 1.673390 0.000000 -0.000010 
#    y 0.000000 1.673390 0.000000 
#    z -0.000010 0.000000 2.025760 
# 
# From -- ./inp_files/2561.got.cif
#   From: 2010.05.17/outbox.cif.g08.bks.cpg/sg188_2_cif.got.tgz:2561.got - 2010.05.20 12:11:46.
