data_PCOD9585660
_publ_section_title
;
Structure prediction by ZEFSAII (Michael W. Deem and Ramdas Pophale) SiO2 
 PCOD9585660
Probable space group: P -6 M 2
;
_chemical_formula_sum "Si O2"
_cell_formula_units_Z 72
_cell_length_a 12.661309
_cell_length_b 12.661309
_cell_length_c 31.844610
_cell_angle_alpha 90.000000
_cell_angle_beta 90.000000
_cell_angle_gamma 120.000000
_cell_volume 4421.033258
_symmetry_space_group_name_H-M "P -6 M 2"
_symmetry_group_IT_number 187
_symmetry_cell_setting 'hexagonal'
loop_
_space_group_symop_operation_xyz
x,y,z
-x+y,-x,-z
-y,x-y,z
x,y,-z
-x+y,-x,z
-y,x-y,-z
-y,-x,-z
-x+y,y,-z
x,x-y,-z
-x+y,y,z
x,x-y,z
-y,-x,z
loop_
_atom_site_type_symbol
_atom_site_label
_atom_site_fract_x
_atom_site_fract_y
_atom_site_fract_z
Si Si1 0.666224 0.082279 0.835809
Si Si2 0.081885 0.415339 0.918035
Si Si3 0.918226 0.584304 0.327283
Si Si4 0.000502 0.747145 0.408028
Si Si5 0.251344 0.999662 0.500000
Si Si6 0.333498 0.917938 0.754389
Si Si7 0.749100 0.749687 0.000000
O O1 0.556309 0.112618 0.834625
O O2 0.795364 0.204637 0.836552
O O3 0.644715 0.000916 0.877104
O O4 0.649975 0.002166 0.794627
O O5 0.213767 0.427534 0.912479
O O6 0.095444 0.547722 0.923795
O O7 0.020366 0.332122 0.958773
O O8 0.790865 0.581729 0.321908
O O9 0.896633 0.448317 0.329091
O O10 0.979247 0.656019 0.370195
O O11 0.006021 0.650202 0.287882
O O12 0.884374 0.768747 0.407565
O O13 0.004279 0.695658 0.454471
O O14 0.125082 0.874919 0.402408
O O15 0.246698 0.123349 0.500000
O O16 0.114739 0.885262 0.500000
O O17 0.444857 0.889714 0.755427
O O18 0.205370 0.794631 0.755592
O O19 0.870564 0.741128 0.000000
O O20 0.780498 0.890249 0.000000
#
# Coordination Sequence:
#
# PCOD9585660 Si02
#       7
#    12  12  12  12   6  12   6
#     4  10  20  34  53  76 103 135 169 204 240 283
#     4  10  20  34  54  78 104 134 168 209 253 296
#     4  10  20  33  49  68  93 126 162 198 234 278
#     4   9  16  27  45  69  95 121 151 190 237 285
#     4   8  13  22  39  64  92 120 150 186 230 280
#     4  10  20  34  53  75  98 124 156 198 245 291
#     4  10  20  34  52  74 102 136 172 208 248 296
#
# _framework density 16.285785000000001
#
# number of rings (size 3 to 8) (size 9 to 14) (size 15 to 20)
#    0.000    2.333    0.000    3.250    0.000    1.333 
#    0.000    4.583    0.000   10.667    0.000    1.167 
#    0.000    0.000    0.000    0.000    0.000    0.000 
#
# Total GULP energy -401478.346257 kJ/mol
# GULP energy per Si atom -5576.088142 kJ/mol
# Density = 1.624872 g / cm^3
# Si number density = 16.285785 Si / 1000 Ang^3
#
#
#
# Elastic Constant Matrix: (Units=GPa)
#
#
# Indices 1 2 3 4 5 6 
#
# 1 81.8750 104.4854 85.6323 0.0000 0.0000 0.0000
# 2 104.4854 81.8750 85.6323 0.0000 0.0000 0.0000
# 3 85.6323 85.6323 173.0772 0.0000 0.0000 0.0000
# 4 0.0000 0.0000 0.0000 22.7405 0.0000 0.0000
# 5 0.0000 0.0000 0.0000 0.0000 22.7405 0.0000
# 6 0.0000 0.0000 0.0000 0.0000 0.0000 -11.3052
#
#
#
# Elastic Compliance Matrix: (Units=1/GPa)
#
#
# Indices 1 2 3 4 5 6 
#
# 1 -0.017194 0.027034 -0.004869 0.000000 0.000000 0.000000
# 2 0.027034 -0.017194 -0.004869 0.000000 0.000000 0.000000
# 3 -0.004869 -0.004869 0.010595 0.000000 0.000000 0.000000
# 4 0.000000 0.000000 0.000000 0.043974 0.000000 0.000000
# 5 0.000000 0.000000 0.000000 0.000000 0.043974 0.000000
# 6 0.000000 0.000000 0.000000 0.000000 0.000000 -0.088455
#
#
# Mechanical properties :
#
#
# Convention : Reuss Voigt Hill
#
# Bulk Modulus (GPa) = 92.58046 98.70301 95.64173
# Shear Modulus (GPa) = -90.43151 10.90695 -39.76228
#
# Velocity S-wave (km/s) = -7.45979 2.59071 -4.94655
# Velocity P-wave (km/s) = 4.15055 8.34790 5.12154
#
# Compressibility (1/GPa) = 0.01080142
#
# Stress axis : x y z
#
# Youngs Moduli (GPa) = -58.16110 -58.16110 94.38139
#
# Poissons Ratio (x) = 1.57231 0.45950
# Poissons Ratio (y) = 1.57231 0.45950
# Poissons Ratio (z) = -0.28316 -0.28316
#
# Static dielectric constant tensor:
#      x y z
#    x 1.541800 0.000000 0.000000 
#    y 0.000000 1.541800 0.000000 
#    z 0.000000 0.000000 1.559260 
# 
# From -- ./inp_files/4571.got.cif
#   From: 2010.05.17/outbox.cif.g08.bks.cpg/sg187_3_cif.got.tgz:4571.got - 2010.05.20 12:09:04.
