data_PCOD9585523
_publ_section_title
;
Structure prediction by ZEFSAII (Michael W. Deem and Ramdas Pophale) SiO2 
 PCOD9585523
Probable space group: P -6 M 2
;
_chemical_formula_sum "Si O2"
_cell_formula_units_Z 60
_cell_length_a 22.119370
_cell_length_b 22.119370
_cell_length_c 8.696512
_cell_angle_alpha 90.000000
_cell_angle_beta 90.000000
_cell_angle_gamma 120.000000
_cell_volume 3684.862093
_symmetry_space_group_name_H-M "P -6 M 2"
_symmetry_group_IT_number 187
_symmetry_cell_setting 'hexagonal'
loop_
_space_group_symop_operation_xyz
x,y,z
-x+y,-x,-z
-y,x-y,z
x,y,-z
-x+y,-x,z
-y,x-y,-z
-y,-x,-z
-x+y,y,-z
x,x-y,-z
-x+y,y,z
x,x-y,z
-y,-x,z
loop_
_atom_site_type_symbol
_atom_site_label
_atom_site_fract_x
_atom_site_fract_y
_atom_site_fract_z
Si Si1 0.376127 0.119448 0.814555
Si Si2 0.500874 0.750437 0.324862
Si Si3 0.294708 0.333105 0.815811
Si Si4 0.164743 0.835257 0.324726
Si Si5 0.112309 0.624135 0.686874
Si Si6 0.528380 0.194048 0.685190
O O1 0.360481 0.180241 0.761624
O O2 0.453586 0.142157 0.756749
O O3 0.322496 0.040919 0.764616
O O4 0.376764 0.120316 0.000000
O O5 0.473615 0.736808 0.500000
O O6 0.585573 0.792787 0.328494
O O7 0.484042 0.807750 0.257651
O O8 0.217285 0.309988 0.757329
O O9 0.346610 0.410999 0.752301
O O10 0.295521 0.336372 0.000000
O O11 0.152494 0.847507 0.500000
O O12 0.112830 0.629884 0.500000
O O13 0.090249 0.545125 0.726394
O O14 0.523273 0.187314 0.500000
O O15 0.591356 0.182712 0.736740
O O16 0.544786 0.272393 0.722513
#
# Coordination Sequence:
#
# PCOD9585523 Si02
#       6
#    12   6  12   6  12  12
#     4   9  19  34  48  65  93 125 155 190 233 280
#     4   7  12  25  41  57  79 109 145 183 219 255
#     4  10  19  31  49  70  92 120 152 188 232 275
#     4   9  17  31  51  71  91 113 141 179 221 269
#     4   9  17  29  44  63  89 122 159 197 237 277
#     4   9  17  29  45  64  87 119 162 210 253 288
#
# _framework density 16.282834999999999
#
# number of rings (size 3 to 8) (size 9 to 14) (size 15 to 20)
#    0.000    3.000    0.000    2.300    0.000    4.000 
#    0.600    4.000    0.000    1.200    0.000    0.000 
#    1.000    0.000    1.800    0.000    0.600    0.000 
#
# Total GULP energy -334101.977823 kJ/mol
# GULP energy per Si atom -5568.366297 kJ/mol
# Density = 1.624577 g / cm^3
# Si number density = 16.282835 Si / 1000 Ang^3
#
#
#
# Elastic Constant Matrix: (Units=GPa)
#
#
# Indices 1 2 3 4 5 6 
#
# 1 103.4147 80.3198 26.2360 0.0000 -0.0001 0.0000
# 2 80.3198 103.4147 26.2360 0.0000 0.0001 0.0000
# 3 26.2360 26.2360 21.4434 0.0000 0.0000 0.0000
# 4 0.0000 0.0000 0.0000 19.5958 0.0000 0.0001
# 5 -0.0001 0.0001 0.0000 0.0000 19.5958 0.0000
# 6 0.0000 0.0000 0.0000 0.0001 0.0000 11.5475
#
#
#
# Elastic Compliance Matrix: (Units=1/GPa)
#
#
# Indices 1 2 3 4 5 6 
#
# 1 0.025833 -0.017467 -0.010235 0.000000 0.000000 0.000000
# 2 -0.017467 0.025833 -0.010235 0.000000 0.000000 0.000000
# 3 -0.010235 -0.010235 0.071680 0.000000 0.000000 0.000000
# 4 0.000000 0.000000 0.000000 0.051031 0.000000 -0.000001
# 5 0.000000 0.000000 0.000000 0.000000 0.051031 0.000000
# 6 0.000000 0.000000 0.000000 -0.000001 0.000000 0.086599
#
#
# Mechanical properties :
#
#
# Convention : Reuss Voigt Hill
#
# Bulk Modulus (GPa) = 21.06589 54.87292 37.96940
# Shear Modulus (GPa) = 12.38524 16.51322 14.44923
#
# Velocity S-wave (km/s) = 2.76095 3.18803 2.98214
# Velocity P-wave (km/s) = 4.80930 6.87927 5.93522
#
# Compressibility (1/GPa) = 0.04747010
#
# Stress axis : x y z
#
# Youngs Moduli (GPa) = 38.71074 38.71074 13.95080
#
# Poissons Ratio (x) = 0.67616 0.14279
# Poissons Ratio (y) = 0.67616 0.14279
# Poissons Ratio (z) = 0.39622 0.39622
#
# Static dielectric constant tensor:
#      x y z
#    x 1.548470 0.000000 0.000000 
#    y 0.000000 1.548470 0.000000 
#    z 0.000000 0.000000 1.560660 
# 
# From -- ./inp_files/695.got.cif
#   From: 2010.05.17/outbox.cif.g08.bks.cpg/sg187_1_cif.got.tgz:695.got - 2010.05.20 12:09:04.
