data_PCOD9585068
_publ_section_title
;
Structure prediction by ZEFSAII (Michael W. Deem and Ramdas Pophale) SiO2 
 PCOD9585068
Probable space group: P 6 M M
;
_chemical_formula_sum "Si O2"
_cell_formula_units_Z 72
_cell_length_a 17.897940
_cell_length_b 17.897940
_cell_length_c 16.023738
_cell_angle_alpha 90.000000
_cell_angle_beta 90.000000
_cell_angle_gamma 120.000000
_cell_volume 4445.294751
_symmetry_space_group_name_H-M "P 6 M M"
_symmetry_group_IT_number 183
_symmetry_cell_setting 'hexagonal'
loop_
_space_group_symop_operation_xyz
x,y,z
x-y,x,z
-y,x-y,z
-x,-y,z
-x+y,-x,z
y,-x+y,z
-x+y,y,z
x,x-y,z
-y,-x,z
y,x,z
x-y,-y,z
-x,-x+y,z
loop_
_atom_site_type_symbol
_atom_site_label
_atom_site_fract_x
_atom_site_fract_y
_atom_site_fract_z
Si Si1 0.903195 0.270687 0.615920
Si Si2 0.844098 0.510223 0.275016
Si Si3 0.096805 0.729316 0.934113
Si Si4 0.845176 0.333843 0.457956
Si Si5 0.509585 0.667363 0.775017
Si Si6 0.154825 0.488668 0.092076
O O1 0.829114 0.170887 0.617209
O O2 0.891494 0.312351 0.531283
O O3 0.883710 0.315838 0.693384
O O4 0.000000 0.289839 0.622122
O O5 0.756590 0.513180 0.275016
O O6 0.823113 0.411557 0.275016
O O7 0.885088 0.545365 0.365614
O O8 0.885087 0.545364 0.184417
O O9 0.170883 0.829118 0.932825
O O10 0.116292 0.684167 0.856649
O O11 0.000000 0.710163 0.927912
O O12 0.108509 0.687653 0.018750
O O13 0.846092 0.423046 0.473477
O O14 0.746237 0.253764 0.456782
O O15 0.482839 0.741419 0.775016
O O16 0.426330 0.573671 0.775020
O O17 0.253765 0.507530 0.093251
O O18 0.153907 0.576954 0.076553
#
# Coordination Sequence:
#
# PCOD9585068 Si02
#       6
#    12  12  12  12  12  12
#     4  10  21  35  50  68  90 118 151 190 236 280
#     4   8  13  22  37  59  88 123 160 192 219 250
#     4  10  21  35  50  68  90 118 151 190 236 280
#     4   9  16  26  42  65  94 127 160 190 219 255
#     4  10  20  33  50  73 102 134 163 186 208 241
#     4   9  16  26  42  65  94 127 160 190 219 255
#
# _framework density 16.196902000000001
#
# number of rings (size 3 to 8) (size 9 to 14) (size 15 to 20)
#    0.000    2.667    0.000    2.167    0.000    6.000 
#    0.000    4.167    0.000    3.333    0.000    0.000 
#    0.000    4.000    0.000    0.000    0.000   19.667 
#
# Total GULP energy -401211.343711 kJ/mol
# GULP energy per Si atom -5572.379774 kJ/mol
# Density = 1.616004 g / cm^3
# Si number density = 16.196902 Si / 1000 Ang^3
#
#
#
# Elastic Constant Matrix: (Units=GPa)
#
#
# Indices 1 2 3 4 5 6 
#
# 1 68.7668 65.9506 45.8395 0.0000 0.0000 0.0000
# 2 65.9506 68.7668 45.8395 0.0000 0.0000 0.0000
# 3 45.8395 45.8395 119.6204 0.0000 0.0000 0.0000
# 4 0.0000 0.0000 0.0000 -2.1794 0.0000 0.0000
# 5 0.0000 0.0000 0.0000 0.0000 -2.1794 0.0000
# 6 0.0000 0.0000 0.0000 0.0000 0.0000 1.4081
#
#
#
# Elastic Compliance Matrix: (Units=1/GPa)
#
#
# Indices 1 2 3 4 5 6 
#
# 1 0.182560 -0.172518 -0.003848 0.000000 0.000000 0.000000
# 2 -0.172518 0.182560 -0.003848 0.000000 0.000000 0.000000
# 3 -0.003848 -0.003848 0.011309 0.000000 0.000000 0.000000
# 4 0.000000 0.000000 0.000000 -0.458844 0.000000 0.000000
# 5 0.000000 0.000000 0.000000 0.000000 -0.458844 0.000000
# 6 0.000000 0.000000 0.000000 0.000000 0.000000 0.710155
#
#
# Mechanical properties :
#
#
# Convention : Reuss Voigt Hill
#
# Bulk Modulus (GPa) = 62.49958 63.60148 63.05053
# Shear Modulus (GPa) = 9.35179 6.04483 7.69831
#
# Velocity S-wave (km/s) = 2.40548 1.93396 2.18249
# Velocity P-wave (km/s) = 6.81075 6.65882 6.73521
#
# Compressibility (1/GPa) = 0.01600011
#
# Stress axis : x y z
#
# Youngs Moduli (GPa) = 5.47767 5.47767 88.42525
#
# Poissons Ratio (x) = 0.94500 0.34026
# Poissons Ratio (y) = 0.94500 0.34026
# Poissons Ratio (z) = 0.02108 0.02108
#
# Static dielectric constant tensor:
#      x y z
#    x 1.515470 0.000000 0.000000 
#    y 0.000000 1.515470 0.000000 
#    z 0.000000 0.000000 1.591470 
# 
# From -- ./inp_files/2498.got.cif
#   From: 2010.05.17/outbox.cif.g08.bks.cpg/sg183_2_cif.got.tgz:2498.got - 2010.05.20 12:02:58.
