data_PCOD9585066
_publ_section_title
;
Structure prediction by ZEFSAII (Michael W. Deem and Ramdas Pophale) SiO2 
 PCOD9585066
Probable space group: P 6 M M
;
_chemical_formula_sum "Si O2"
_cell_formula_units_Z 72
_cell_length_a 17.779253
_cell_length_b 17.779253
_cell_length_c 15.748054
_cell_angle_alpha 90.000000
_cell_angle_beta 90.000000
_cell_angle_gamma 120.000000
_cell_volume 4311.064763
_symmetry_space_group_name_H-M "P 6 M M"
_symmetry_group_IT_number 183
_symmetry_cell_setting 'hexagonal'
loop_
_space_group_symop_operation_xyz
x,y,z
x-y,x,z
-y,x-y,z
-x,-y,z
-x+y,-x,z
y,-x+y,z
-x+y,y,z
x,x-y,z
-y,-x,z
y,x,z
x-y,-y,z
-x,-x+y,z
loop_
_atom_site_type_symbol
_atom_site_label
_atom_site_fract_x
_atom_site_fract_y
_atom_site_fract_z
Si Si1 0.667368 0.511046 0.278990
Si Si2 0.371700 0.273277 0.445545
Si Si3 0.488955 0.156322 0.612099
Si Si4 0.899134 0.628387 0.777718
Si Si5 0.467506 0.362695 0.945546
Si Si6 0.628389 0.729255 0.113372
O O1 0.742330 0.484659 0.278768
O O2 0.572986 0.427015 0.278950
O O3 0.684088 0.569050 0.362578
O O4 0.683809 0.569691 0.195907
O O5 0.344202 0.172101 0.445545
O O6 0.294209 0.294209 0.445544
O O7 0.430950 0.315913 0.528512
O O8 0.572986 0.145972 0.612139
O O9 0.515341 0.257671 0.612319
O O10 0.430311 0.114120 0.695183
O O11 0.831542 0.663084 0.770524
O O12 0.873505 0.567102 0.860588
O O13 0.000000 0.700839 0.784928
O O14 0.570170 0.429831 0.945547
O O15 0.420613 0.420613 0.945546
O O16 0.432896 0.306400 0.030502
O O17 0.663087 0.831544 0.120567
O O18 0.700841 0.700841 0.106161
#
# Coordination Sequence:
#
# PCOD9585066 Si02
#       6
#    12  12  12  12  12  12
#     4  10  20  33  50  73 101 131 161 194 234 281
#     4  10  21  35  51  72  97 127 162 200 241 283
#     4  10  20  33  50  73 101 131 161 194 234 281
#     4  10  20  33  50  72  97 127 163 203 245 286
#     4   9  17  30  49  72  96 122 154 191 231 280
#     4  10  20  33  50  72  97 127 163 203 245 286
#
# _framework density 16.701212000000002
#
# number of rings (size 3 to 8) (size 9 to 14) (size 15 to 20)
#    0.000    2.167    0.000    3.333    0.000    4.667 
#    0.000    1.667    0.000    5.167    0.000    0.000 
#    0.000   12.000    0.000    0.000    0.000    2.000 
#
# Total GULP energy -401769.160748 kJ/mol
# GULP energy per Si atom -5580.127233 kJ/mol
# Density = 1.666320 g / cm^3
# Si number density = 16.701212 Si / 1000 Ang^3
#
#
#
# Elastic Constant Matrix: (Units=GPa)
#
#
# Indices 1 2 3 4 5 6 
#
# 1 101.3604 83.2125 41.0203 0.0000 0.0000 0.0000
# 2 83.2125 101.3604 41.0203 0.0000 0.0000 0.0000
# 3 41.0203 41.0203 148.2400 0.0000 0.0000 0.0000
# 4 0.0000 0.0000 0.0000 18.0416 0.0000 0.0000
# 5 0.0000 0.0000 0.0000 0.0000 18.0416 0.0000
# 6 0.0000 0.0000 0.0000 0.0000 0.0000 9.0740
#
#
#
# Elastic Compliance Matrix: (Units=1/GPa)
#
#
# Indices 1 2 3 4 5 6 
#
# 1 0.030640 -0.024462 -0.001709 0.000000 0.000000 0.000000
# 2 -0.024462 0.030640 -0.001709 0.000000 0.000000 0.000000
# 3 -0.001709 -0.001709 0.007692 0.000000 0.000000 0.000000
# 4 0.000000 0.000000 0.000000 0.055427 0.000000 0.000000
# 5 0.000000 0.000000 0.000000 0.000000 0.055427 0.000000
# 6 0.000000 0.000000 0.000000 0.000000 0.000000 0.110205
#
#
# Mechanical properties :
#
#
# Convention : Reuss Voigt Hill
#
# Bulk Modulus (GPa) = 75.70314 75.71854 75.71084
# Shear Modulus (GPa) = 14.27763 21.41197 17.84480
#
# Velocity S-wave (km/s) = 2.92701 3.58447 3.27230
# Velocity P-wave (km/s) = 7.53986 7.90992 7.72711
#
# Compressibility (1/GPa) = 0.01320949
#
# Stress axis : x y z
#
# Youngs Moduli (GPa) = 32.63689 32.63689 130.00701
#
# Poissons Ratio (x) = 0.79838 0.22224
# Poissons Ratio (y) = 0.79838 0.22224
# Poissons Ratio (z) = 0.05579 0.05579
#
# Static dielectric constant tensor:
#      x y z
#    x 1.550890 0.000000 0.000000 
#    y 0.000000 1.550890 0.000000 
#    z 0.000000 0.000000 1.561890 
# 
# From -- ./inp_files/2520.got.cif
#   From: 2010.05.17/outbox.cif.g08.bks.cpg/sg183_2_cif.got.tgz:2520.got - 2010.05.20 12:02:58.
