data_PCOD9585611
_publ_section_title
;
Structure prediction by ZEFSAII (Michael W. Deem and Ramdas Pophale) SiO2 
 PCOD9585611
Probable space group: P -6 M 2
;
_chemical_formula_sum "Si O2"
_cell_formula_units_Z 48
_cell_length_a 12.957842
_cell_length_b 12.957842
_cell_length_c 20.746444
_cell_angle_alpha 90.000000
_cell_angle_beta 90.000000
_cell_angle_gamma 120.000000
_cell_volume 3016.752352
_symmetry_space_group_name_H-M "P -6 M 2"
_symmetry_group_IT_number 187
_symmetry_cell_setting 'hexagonal'
loop_
_space_group_symop_operation_xyz
x,y,z
-x+y,-x,-z
-y,x-y,z
x,y,-z
-x+y,-x,z
-y,x-y,-z
-y,-x,-z
-x+y,y,-z
x,x-y,-z
-x+y,y,z
x,x-y,z
-y,-x,z
loop_
_atom_site_type_symbol
_atom_site_label
_atom_site_fract_x
_atom_site_fract_y
_atom_site_fract_z
Si Si1 0.333091 0.422852 0.614717
Si Si2 0.666779 0.578937 0.879853
Si Si3 0.576199 0.909686 0.763530
Si Si4 0.667466 0.088553 0.500000
Si Si5 0.754706 0.754016 0.000000
O O1 0.209186 0.418371 0.602493
O O2 0.441829 0.558172 0.607438
O O3 0.334267 0.387708 0.689178
O O4 0.357006 0.346033 0.563230
O O5 0.779649 0.559298 0.875563
O O6 0.545990 0.454011 0.891876
O O7 0.648357 0.634012 0.814196
O O8 0.693362 0.671847 0.937588
O O9 0.438371 0.876742 0.768918
O O10 0.587135 0.793568 0.776885
O O11 0.788806 0.211195 0.500000
O O12 0.554814 0.109628 0.500000
O O13 0.746192 0.873096 0.000000
O O14 0.892333 0.784665 0.000000
#
# Coordination Sequence:
#
# PCOD9585611 Si02
#       5
#    12  12  12   6   6
#     4   9  17  30  50  74  96 119 151 195 244 288
#     4  10  20  33  50  72  99 131 164 196 230 273
#     4   9  17  30  49  73  99 125 154 192 240 288
#     4  10  20  32  46  66  94 128 162 194 232 280
#     4  10  20  34  52  72  94 122 158 200 242 282
#
# _framework density 15.911149
#
# number of rings (size 3 to 8) (size 9 to 14) (size 15 to 20)
#    0.000    2.500    0.000    2.500    0.000    3.000 
#    0.000    2.500    0.000    9.000    0.000    0.000 
#    0.000    0.000    0.000    0.000    0.000    0.000 
#
# Total GULP energy -267654.336109 kJ/mol
# GULP energy per Si atom -5576.132002 kJ/mol
# Density = 1.587493 g / cm^3
# Si number density = 15.911149 Si / 1000 Ang^3
#
#
#
# Elastic Constant Matrix: (Units=GPa)
#
#
# Indices 1 2 3 4 5 6 
#
# 1 113.4224 72.7024 83.4584 0.0000 -0.0004 0.0000
# 2 72.7024 113.4224 83.4584 0.0000 0.0004 0.0000
# 3 83.4584 83.4584 118.5960 0.0000 0.0000 0.0000
# 4 0.0000 0.0000 0.0000 21.7073 0.0000 0.0004
# 5 -0.0004 0.0004 0.0000 0.0000 21.7073 0.0000
# 6 0.0000 0.0000 0.0000 0.0004 0.0000 20.3600
#
#
#
# Elastic Compliance Matrix: (Units=1/GPa)
#
#
# Indices 1 2 3 4 5 6 
#
# 1 0.019561 -0.004997 -0.010249 0.000000 0.000000 0.000000
# 2 -0.004997 0.019561 -0.010249 0.000000 0.000000 0.000000
# 3 -0.010249 -0.010249 0.022857 0.000000 0.000000 0.000000
# 4 0.000000 0.000000 0.000000 0.046067 0.000000 -0.000001
# 5 0.000000 0.000000 0.000000 0.000000 0.046067 0.000000
# 6 0.000000 0.000000 0.000000 -0.000001 0.000000 0.049116
#
#
# Mechanical properties :
#
#
# Convention : Reuss Voigt Hill
#
# Bulk Modulus (GPa) = 91.00087 91.63103 91.31595
# Shear Modulus (GPa) = 19.38866 19.80970 19.59918
#
# Velocity S-wave (km/s) = 3.49457 3.53231 3.51349
# Velocity P-wave (km/s) = 8.57905 8.62267 8.60089
#
# Compressibility (1/GPa) = 0.01098891
#
# Stress axis : x y z
#
# Youngs Moduli (GPa) = 51.12208 51.12208 43.75050
#
# Poissons Ratio (x) = 0.25545 0.44840
# Poissons Ratio (y) = 0.25545 0.44840
# Poissons Ratio (z) = 0.52395 0.52395
#
# Static dielectric constant tensor:
#      x y z
#    x 1.500810 0.000000 0.000000 
#    y 0.000000 1.500810 0.000000 
#    z 0.000000 0.000000 1.537030 
# 
# From -- ./inp_files/3383.got.cif
#   From: 2010.05.17/outbox.cif.g08.bks.cpg/sg187_2_cif.got.tgz:3383.got - 2010.05.20 12:09:04.
