data_PCOD9585350
_publ_section_title
;
Structure prediction by ZEFSAII (Michael W. Deem and Ramdas Pophale) SiO2 
 PCOD9585350
Probable space group: P 63 M C
;
_chemical_formula_sum "Si O2"
_cell_formula_units_Z 72
_cell_length_a 22.789355
_cell_length_b 22.789355
_cell_length_c 10.254238
_cell_angle_alpha 90.000000
_cell_angle_beta 90.000000
_cell_angle_gamma 120.000000
_cell_volume 4612.093384
_symmetry_space_group_name_H-M "P 63 M C"
_symmetry_group_IT_number 186
_symmetry_cell_setting 'hexagonal'
loop_
_space_group_symop_operation_xyz
x,y,z
x-y,x,1/2+z
-y,x-y,z
-x,-y,1/2+z
-x+y,-x,z
y,-x+y,1/2+z
-x+y,y,z
x,x-y,z
-y,-x,z
y,x,1/2+z
x-y,-y,1/2+z
-x,-x+y,1/2+z
loop_
_atom_site_type_symbol
_atom_site_label
_atom_site_fract_x
_atom_site_fract_y
_atom_site_fract_z
Si Si1 0.369021 0.005141 0.619650
Si Si2 0.719844 0.573648 0.161565
Si Si3 0.437137 0.436793 0.870117
Si Si4 0.485240 0.839295 0.415463
Si Si5 0.713851 0.558478 0.656913
Si Si6 0.806145 0.472733 0.399993
O O1 0.418274 0.993891 0.718310
O O2 0.380841 0.077618 0.667343
O O3 0.301129 0.932078 0.633670
O O4 0.396190 0.019056 0.471978
O O5 0.799598 0.599195 0.172022
O O6 0.683343 0.529849 0.290445
O O7 0.689539 0.519423 0.043626
O O8 0.483855 0.516146 0.898478
O O9 0.481575 0.401639 0.900155
O O10 0.404574 0.809147 0.422618
O O11 0.513079 0.821964 0.286906
O O12 0.792356 0.584712 0.631678
O O13 0.672188 0.507523 0.539549
O O14 0.728546 0.457091 0.393455
O O15 0.809061 0.404531 0.380785
#
# Coordination Sequence:
#
# PCOD9585350 Si02
#       6
#    12  12  12  12  12  12
#     4  10  19  30  44  62  84 108 133 168 212 248
#     4  10  20  32  46  64  85 109 139 174 211 252
#     4   9  17  27  42  64  84 103 130 164 202 241
#     4   9  17  30  46  63  83 106 135 171 207 241
#     4  10  20  32  46  64  85 109 139 174 211 252
#     4  10  20  33  47  63  85 113 143 173 207 248
#
# _framework density 15.611132
#
# number of rings (size 3 to 8) (size 9 to 14) (size 15 to 20)
#    0.000    2.333    0.000    3.167    0.000    5.333 
#    0.000    0.000    0.000    4.667    0.000    0.000 
#    0.000    0.000    0.000    0.500    0.000    0.000 
#
# Total GULP energy -400844.294063 kJ/mol
# GULP energy per Si atom -5567.281862 kJ/mol
# Density = 1.557560 g / cm^3
# Si number density = 15.611132 Si / 1000 Ang^3
#
#
#
# Elastic Constant Matrix: (Units=GPa)
#
#
# Indices 1 2 3 4 5 6 
#
# 1 58.6255 48.2577 -1.8849 0.0000 0.0000 0.0000
# 2 48.2577 58.6255 -1.8849 0.0000 0.0000 0.0000
# 3 -1.8849 -1.8849 83.5632 0.0000 0.0000 0.0000
# 4 0.0000 0.0000 0.0000 12.6281 0.0000 0.0000
# 5 0.0000 0.0000 0.0000 0.0000 12.6281 0.0000
# 6 0.0000 0.0000 0.0000 0.0000 0.0000 5.1839
#
#
#
# Elastic Compliance Matrix: (Units=1/GPa)
#
#
# Indices 1 2 3 4 5 6 
#
# 1 0.052908 -0.043544 0.000211 0.000000 0.000000 0.000000
# 2 -0.043544 0.052908 0.000211 0.000000 0.000000 0.000000
# 3 0.000211 0.000211 0.011977 0.000000 0.000000 0.000000
# 4 0.000000 0.000000 0.000000 0.079189 0.000000 0.000000
# 5 0.000000 0.000000 0.000000 0.000000 0.079189 0.000000
# 6 0.000000 0.000000 0.000000 0.000000 0.000000 0.192904
#
#
# Mechanical properties :
#
#
# Convention : Reuss Voigt Hill
#
# Bulk Modulus (GPa) = 31.69747 32.19889 31.94818
# Shear Modulus (GPa) = 8.83651 16.50976 12.67313
#
# Velocity S-wave (km/s) = 2.38174 3.25555 2.85230
# Velocity P-wave (km/s) = 5.28319 5.89931 5.59973
#
# Compressibility (1/GPa) = 0.03154826
#
# Stress axis : x y z
#
# Youngs Moduli (GPa) = 18.90079 18.90079 83.49673
#
# Poissons Ratio (x) = 0.82302 -0.01763
# Poissons Ratio (y) = 0.82302 -0.01763
# Poissons Ratio (z) = -0.00399 -0.00399
#
# Static dielectric constant tensor:
#      x y z
#    x 1.542200 0.000000 0.000000 
#    y 0.000000 1.542200 0.000000 
#    z 0.000000 0.000000 1.553320 
# 
# From -- ./inp_files/1211.got.cif
#   From: 2010.05.17/outbox.cif.g08.bks.cpg/sg186_1_cif.got.tgz:1211.got - 2010.05.20 12:07:08.
