data_PCOD9585681
_publ_section_title
;
Structure prediction by ZEFSAII (Michael W. Deem and Ramdas Pophale) SiO2 
 PCOD9585681
Probable space group: P -6 M 2
;
_chemical_formula_sum "Si O2"
_cell_formula_units_Z 66
_cell_length_a 12.721593
_cell_length_b 12.721593
_cell_length_c 28.707682
_cell_angle_alpha 90.000000
_cell_angle_beta 90.000000
_cell_angle_gamma 120.000000
_cell_volume 4023.571774
_symmetry_space_group_name_H-M "P -6 M 2"
_symmetry_group_IT_number 187
_symmetry_cell_setting 'hexagonal'
loop_
_space_group_symop_operation_xyz
x,y,z
-x+y,-x,-z
-y,x-y,z
x,y,-z
-x+y,-x,z
-y,x-y,-z
-y,-x,-z
-x+y,y,-z
x,x-y,-z
-x+y,y,z
x,x-y,z
-y,-x,z
loop_
_atom_site_type_symbol
_atom_site_label
_atom_site_fract_x
_atom_site_fract_y
_atom_site_fract_z
Si Si1 0.333588 0.418081 0.139717
Si Si2 0.000187 0.249923 0.770484
Si Si3 0.248974 0.249023 0.946490
Si Si4 0.416962 0.332704 0.680737
Si Si5 0.749614 0.749586 0.590344
Si Si6 0.332580 0.915743 0.500000
O O1 0.223451 0.446902 0.138791
O O2 0.460752 0.539249 0.145309
O O3 0.306000 0.326863 0.182679
O O4 0.325948 0.349422 0.091693
O O5 0.883065 0.116936 0.775127
O O6 0.976490 0.314669 0.726946
O O7 0.120259 0.240518 0.762587
O O8 0.110740 0.221480 0.941397
O O9 0.253253 0.126626 0.938707
O O10 0.285911 0.288899 0.000000
O O11 0.448657 0.224329 0.680816
O O12 0.537633 0.462368 0.679529
O O13 0.332849 0.310268 0.635756
O O14 0.763100 0.881550 0.596457
O O15 0.664950 0.688149 0.545566
O O16 0.880872 0.761744 0.583612
O O17 0.224546 0.775455 0.500000
O O18 0.462606 0.925211 0.500000
#
# Coordination Sequence:
#
# PCOD9585681 Si02
#       6
#    12  12  12  12  12   6
#     4  10  20  33  49  70  98 132 167 202 241 288
#     4  10  20  34  54  78 102 128 160 203 252 298
#     4   9  17  30  50  75 100 126 158 200 249 296
#     4  10  20  34  52  74 102 136 171 205 242 289
#     4  10  20  34  54  78 104 134 168 210 256 300
#     4  10  20  34  52  74 102 136 172 210 252 300
#
# _framework density 16.403335999999999
#
# number of rings (size 3 to 8) (size 9 to 14) (size 15 to 20)
#    0.000    2.182    0.000    3.455    0.000    1.091 
#    0.000    4.545    0.000   12.727    0.000    0.000 
#    0.000    0.000    0.000    0.000    0.000    0.000 
#
# Total GULP energy -368349.156107 kJ/mol
# GULP energy per Si atom -5581.047820 kJ/mol
# Density = 1.636600 g / cm^3
# Si number density = 16.403336 Si / 1000 Ang^3
#
#
#
# Elastic Constant Matrix: (Units=GPa)
#
#
# Indices 1 2 3 4 5 6 
#
# 1 127.2019 90.3016 82.1757 0.0000 0.0004 0.0000
# 2 90.3016 127.2019 82.1757 0.0000 -0.0004 0.0000
# 3 82.1757 82.1757 127.5467 0.0000 0.0000 0.0000
# 4 0.0000 0.0000 0.0000 16.8864 0.0000 -0.0004
# 5 0.0004 -0.0004 0.0000 0.0000 16.8864 0.0000
# 6 0.0000 0.0000 0.0000 -0.0004 0.0000 18.4501
#
#
#
# Elastic Compliance Matrix: (Units=1/GPa)
#
#
# Indices 1 2 3 4 5 6 
#
# 1 0.018030 -0.009070 -0.005772 0.000000 -0.000001 0.000000
# 2 -0.009070 0.018030 -0.005772 0.000000 0.000001 0.000000
# 3 -0.005772 -0.005772 0.015278 0.000000 0.000000 0.000000
# 4 0.000000 0.000000 0.000000 0.059219 0.000000 0.000001
# 5 -0.000001 0.000001 0.000000 0.000000 0.059219 0.000000
# 6 0.000000 0.000000 0.000000 0.000001 0.000000 0.054200
#
#
# Mechanical properties :
#
#
# Convention : Reuss Voigt Hill
#
# Bulk Modulus (GPa) = 98.93499 99.02849 98.98174
# Shear Modulus (GPa) = 18.61675 18.93110 18.77393
#
# Velocity S-wave (km/s) = 3.37254 3.40089 3.38674
# Velocity P-wave (km/s) = 8.69541 8.71340 8.70441
#
# Compressibility (1/GPa) = 0.01010765
#
# Stress axis : x y z
#
# Youngs Moduli (GPa) = 55.46400 55.46400 65.45265
#
# Poissons Ratio (x) = 0.50308 0.37781
# Poissons Ratio (y) = 0.50308 0.37781
# Poissons Ratio (z) = 0.32016 0.32016
#
# Static dielectric constant tensor:
#      x y z
#    x 1.517420 0.000000 0.000000 
#    y 0.000000 1.517420 0.000000 
#    z 0.000000 0.000000 1.543750 
# 
# From -- ./inp_files/4409.got.cif
#   From: 2010.05.17/outbox.cif.g08.bks.cpg/sg187_3_cif.got.tgz:4409.got - 2010.05.20 12:09:04.
