data_PCOD9585524
_publ_section_title
;
Structure prediction by ZEFSAII (Michael W. Deem and Ramdas Pophale) SiO2 
 PCOD9585524
Probable space group: P -6 M 2
;
_chemical_formula_sum "Si O2"
_cell_formula_units_Z 60
_cell_length_a 22.002703
_cell_length_b 22.002703
_cell_length_c 8.882236
_cell_angle_alpha 90.000000
_cell_angle_beta 90.000000
_cell_angle_gamma 120.000000
_cell_volume 3723.960047
_symmetry_space_group_name_H-M "P -6 M 2"
_symmetry_group_IT_number 187
_symmetry_cell_setting 'hexagonal'
loop_
_space_group_symop_operation_xyz
x,y,z
-x+y,-x,-z
-y,x-y,z
x,y,-z
-x+y,-x,z
-y,x-y,-z
-y,-x,-z
-x+y,y,-z
x,x-y,-z
-x+y,y,z
x,x-y,z
-y,-x,z
loop_
_atom_site_type_symbol
_atom_site_label
_atom_site_fract_x
_atom_site_fract_y
_atom_site_fract_z
Si Si1 0.114380 0.369558 0.181609
Si Si2 0.836507 0.673013 0.827621
Si Si3 0.626848 0.118248 0.681259
Si Si4 0.334475 0.804519 0.816773
Si Si5 0.962933 0.671098 0.680287
Si Si6 0.751402 0.248598 0.828108
O O1 0.177008 0.354015 0.219888
O O2 0.142150 0.450314 0.228889
O O3 0.040145 0.320083 0.256052
O O4 0.107526 0.365985 0.000000
O O5 0.908372 0.693214 0.743697
O O6 0.793962 0.587924 0.829004
O O7 0.848702 0.697404 0.000000
O O8 0.630561 0.121879 0.500000
O O9 0.547600 0.095199 0.727407
O O10 0.656245 0.066848 0.728425
O O11 0.679419 0.195690 0.745387
O O12 0.410139 0.820277 0.762907
O O13 0.273472 0.726529 0.773066
O O14 0.335729 0.805348 0.000000
O O15 0.962886 0.672701 0.500000
O O16 0.738900 0.261100 0.000000
#
# Coordination Sequence:
#
# PCOD9585524 Si02
#       6
#    12   6  12  12  12   6
#     4   9  18  31  45  65  96 129 158 192 238 289
#     4   9  17  31  51  71  91 115 143 179 227 277
#     4   9  18  32  47  63  87 122 160 194 235 288
#     4   8  13  22  38  60  86 119 162 210 253 289
#     4  10  19  31  49  71  94 120 154 195 232 273
#     4   9  17  29  45  65  87 111 145 193 239 273
#
# _framework density 16.111881
#
# number of rings (size 3 to 8) (size 9 to 14) (size 15 to 20)
#    0.000    3.000    0.000    2.600    0.000    5.600 
#    0.600    0.000    0.000    0.000    0.000    0.000 
#    1.000    1.600    1.800    0.000    1.800    0.000 
#
# Total GULP energy -334205.525179 kJ/mol
# GULP energy per Si atom -5570.092086 kJ/mol
# Density = 1.607521 g / cm^3
# Si number density = 16.111881 Si / 1000 Ang^3
#
#
#
# Elastic Constant Matrix: (Units=GPa)
#
#
# Indices 1 2 3 4 5 6 
#
# 1 103.8854 80.2631 36.4794 0.0000 -0.0001 0.0000
# 2 80.2631 103.8854 36.4794 0.0000 0.0001 0.0000
# 3 36.4794 36.4794 30.3742 0.0000 0.0000 0.0000
# 4 0.0000 0.0000 0.0000 16.9901 0.0000 0.0001
# 5 -0.0001 0.0001 0.0000 0.0000 16.9901 0.0000
# 6 0.0000 0.0000 0.0000 0.0001 0.0000 11.8111
#
#
#
# Elastic Compliance Matrix: (Units=1/GPa)
#
#
# Indices 1 2 3 4 5 6 
#
# 1 0.026346 -0.015986 -0.012442 0.000000 0.000000 0.000000
# 2 -0.015986 0.026346 -0.012442 0.000000 0.000000 0.000000
# 3 -0.012442 -0.012442 0.062809 0.000000 0.000000 0.000000
# 4 0.000000 0.000000 0.000000 0.058858 0.000000 0.000000
# 5 0.000000 0.000000 0.000000 0.000000 0.058858 0.000000
# 6 0.000000 0.000000 0.000000 0.000000 0.000000 0.084666
#
#
# Mechanical properties :
#
#
# Convention : Reuss Voigt Hill
#
# Bulk Modulus (GPa) = 29.62110 60.50988 45.06549
# Shear Modulus (GPa) = 12.16903 14.81979 13.49441
#
# Velocity S-wave (km/s) = 2.75122 3.03612 2.89718
# Velocity P-wave (km/s) = 5.34012 7.06600 6.26279
#
# Compressibility (1/GPa) = 0.03375972
#
# Stress axis : x y z
#
# Youngs Moduli (GPa) = 37.95575 37.95575 15.92128
#
# Poissons Ratio (x) = 0.60678 0.19810
# Poissons Ratio (y) = 0.60678 0.19810
# Poissons Ratio (z) = 0.47226 0.47226
#
# Static dielectric constant tensor:
#      x y z
#    x 1.530790 0.000000 0.000000 
#    y 0.000000 1.530790 0.000000 
#    z 0.000000 0.000000 1.541250 
# 
# From -- ./inp_files/662.got.cif
#   From: 2010.05.17/outbox.cif.g08.bks.cpg/sg187_1_cif.got.tgz:662.got - 2010.05.20 12:09:04.
