data_PCOD9585715
_publ_section_title
;
Structure prediction by ZEFSAII (Michael W. Deem and Ramdas Pophale) SiO2 
 PCOD9585715
Probable space group: P -6 M 2
;
_chemical_formula_sum "Si O2"
_cell_formula_units_Z 78
_cell_length_a 23.712824
_cell_length_b 23.712824
_cell_length_c 8.498859
_cell_angle_alpha 90.000000
_cell_angle_beta 90.000000
_cell_angle_gamma 120.000000
_cell_volume 4138.641532
_symmetry_space_group_name_H-M "P -6 M 2"
_symmetry_group_IT_number 187
_symmetry_cell_setting 'hexagonal'
loop_
_space_group_symop_operation_xyz
x,y,z
-x+y,-x,-z
-y,x-y,z
x,y,-z
-x+y,-x,z
-y,x-y,-z
-y,-x,-z
-x+y,y,-z
x,x-y,-z
-x+y,y,z
x,x-y,z
-y,-x,z
loop_
_atom_site_type_symbol
_atom_site_label
_atom_site_fract_x
_atom_site_fract_y
_atom_site_fract_z
Si Si1 0.822417 0.844251 0.826985
Si Si2 0.562528 0.933492 0.683426
Si Si3 0.743017 0.615161 0.810821
Si Si4 0.697025 0.715564 0.182326
Si Si5 0.876251 0.002683 0.500000
Si Si6 0.206869 0.666911 0.810622
Si Si7 0.921874 0.523592 0.309788
O O1 0.834594 0.917297 0.831109
O O2 0.746393 0.791913 0.813504
O O3 0.852891 0.836553 0.665727
O O4 0.843475 0.831993 0.000000
O O5 0.546484 0.929093 0.500000
O O6 0.509812 0.866996 0.762023
O O7 0.633979 0.943303 0.711715
O O8 0.571835 0.002549 0.742894
O O9 0.808430 0.616859 0.751641
O O10 0.736035 0.678123 0.769939
O O11 0.674854 0.554505 0.753328
O O12 0.744697 0.613242 0.000000
O O13 0.675772 0.697187 0.000000
O O14 0.853688 0.926844 0.500000
O O15 0.953603 0.046398 0.500000
O O16 0.224012 0.612006 0.758623
O O17 0.261627 0.738374 0.752984
O O18 0.208901 0.668820 0.000000
O O19 0.922132 0.527176 0.500000
O O20 0.899664 0.449832 0.263767
#
# Coordination Sequence:
#
# PCOD9585715 Si02
#       7
#    12  12  12  12   6  12  12
#     4   9  19  35  54  76 104 139 178 221 269 321
#     4  10  20  33  52  78 107 134 168 214 262 313
#     4   9  18  32  50  75 106 136 167 207 255 305
#     4   9  18  33  53  76 106 140 172 209 258 315
#     4  10  21  36  54  76 102 134 175 222 270 322
#     4  10  21  37  55  74  99 134 177 223 270 320
#     4   9  18  33  52  74 102 136 170 207 252 302
#
# _framework density 18.846764
#
# number of rings (size 3 to 8) (size 9 to 14) (size 15 to 20)
#    0.000    2.615    0.000    1.154    1.077    4.615 
#    0.000    3.077    0.000    2.154    0.000    0.000 
#    0.000    0.000    0.000    0.000    0.000    0.000 
#
# Total GULP energy -434394.452019 kJ/mol
# GULP energy per Si atom -5569.159641 kJ/mol
# Density = 1.880387 g / cm^3
# Si number density = 18.846764 Si / 1000 Ang^3
#
#
#
# Elastic Constant Matrix: (Units=GPa)
#
#
# Indices 1 2 3 4 5 6 
#
# 1 56.0693 18.1413 14.3709 0.0000 0.0004 0.0000
# 2 18.1413 56.0693 14.3709 0.0000 -0.0004 0.0000
# 3 14.3709 14.3709 51.7724 0.0000 0.0000 0.0000
# 4 0.0000 0.0000 0.0000 20.3371 0.0000 -0.0004
# 5 0.0004 -0.0004 0.0000 0.0000 20.3371 0.0000
# 6 0.0000 0.0000 0.0000 -0.0004 0.0000 18.9640
#
#
#
# Elastic Compliance Matrix: (Units=1/GPa)
#
#
# Indices 1 2 3 4 5 6 
#
# 1 0.020732 -0.005634 -0.004191 0.000000 0.000000 0.000000
# 2 -0.005634 0.020732 -0.004191 0.000000 0.000000 0.000000
# 3 -0.004191 -0.004191 0.021642 0.000000 0.000000 0.000000
# 4 0.000000 0.000000 0.000000 0.049171 0.000000 0.000001
# 5 0.000000 0.000000 0.000000 0.000000 0.049171 0.000000
# 6 0.000000 0.000000 0.000000 0.000001 0.000000 0.052732
#
#
# Mechanical properties :
#
#
# Convention : Reuss Voigt Hill
#
# Bulk Modulus (GPa) = 28.51055 28.63080 28.57067
# Shear Modulus (GPa) = 19.69257 19.72950 19.71104
#
# Velocity S-wave (km/s) = 3.23596 3.23900 3.23748
# Velocity P-wave (km/s) = 5.39651 5.40486 5.40069
#
# Compressibility (1/GPa) = 0.03507474
#
# Stress axis : x y z
#
# Youngs Moduli (GPa) = 48.23451 48.23451 46.20654
#
# Poissons Ratio (x) = 0.27174 0.19365
# Poissons Ratio (y) = 0.27174 0.19365
# Poissons Ratio (z) = 0.20215 0.20215
#
# Static dielectric constant tensor:
#      x y z
#    x 1.659860 0.000000 0.000000 
#    y 0.000000 1.659860 0.000000 
#    z 0.000000 0.000000 1.692140 
# 
# From -- ./inp_files/1193.got.cif
#   From: 2010.05.17/outbox.cif.g08.bks.cpg/sg187_1_cif.got.tgz:1193.got - 2010.05.20 12:09:04.
