data_PCOD9585207
_publ_section_title
;
Structure prediction by ZEFSAII (Michael W. Deem and Ramdas Pophale) SiO2 
 PCOD9585207
Probable space group: P 6 C C
;
_chemical_formula_sum "Si O2"
_cell_formula_units_Z 60
_cell_length_a 16.042139
_cell_length_b 16.042139
_cell_length_c 14.058372
_cell_angle_alpha 90.000000
_cell_angle_beta 90.000000
_cell_angle_gamma 120.000000
_cell_volume 3133.215114
_symmetry_space_group_name_H-M "P 6 C C"
_symmetry_group_IT_number 184
_symmetry_cell_setting 'hexagonal'
loop_
_space_group_symop_operation_xyz
x,y,z
x-y,x,z
-y,x-y,z
-x,-y,z
-x+y,-x,z
y,-x+y,z
-x+y,y,1/2+z
x,x-y,1/2+z
-y,-x,1/2+z
y,x,1/2+z
x-y,-y,1/2+z
-x,-x+y,1/2+z
loop_
_atom_site_type_symbol
_atom_site_label
_atom_site_fract_x
_atom_site_fract_y
_atom_site_fract_z
Si Si1 0.650008 0.907119 0.373800
Si Si2 0.442148 0.672992 0.800492
Si Si3 0.349992 0.092881 0.998483
Si Si4 0.327008 0.769157 0.571791
Si Si5 0.828294 0.779948 0.186142
O O1 0.538091 0.850469 0.345746
O O2 0.669996 0.834998 0.436142
O O3 0.714885 0.935923 0.279075
O O4 0.677640 0.000000 0.436142
O O5 0.420433 0.759672 0.825267
O O6 0.451324 0.673314 0.686142
O O7 0.461909 0.149531 0.026538
O O8 0.285115 0.064077 0.093208
O O9 0.240328 0.660761 0.547016
O O10 0.812615 0.871487 0.186142
#
# Coordination Sequence:
#
# PCOD9585207 Si02
#       5
#    12  12  12  12  12
#     4  12  24  40  69 104 140 178 230 296 353 418
#     4   8  18  40  70  98 136 186 226 276 349 417
#     4  12  24  40  69 104 140 178 230 296 353 418
#     4   8  18  40  70  98 136 186 226 276 349 417
#     4  12  25  46  70  98 138 182 232 301 365 410
#
# _framework density 19.149657000000001
#
# number of rings (size 3 to 8) (size 9 to 14) (size 15 to 20)
#    0.800    0.800    6.000    0.200    0.000    1.600 
#    0.000    4.000    0.000    7.200    0.000    0.000 
#    0.000    0.000    0.000    0.000    0.000    0.000 
#
# Total GULP energy -335017.412823 kJ/mol
# GULP energy per Si atom -5583.623547 kJ/mol
# Density = 1.910607 g / cm^3
# Si number density = 19.149657 Si / 1000 Ang^3
#
#
#
# Elastic Constant Matrix: (Units=GPa)
#
#
# Indices 1 2 3 4 5 6 
#
# 1 143.0279 85.5788 64.6968 0.0000 0.0000 0.0000
# 2 85.5788 143.0279 64.6968 0.0000 0.0000 0.0000
# 3 64.6968 64.6968 115.4718 0.0000 0.0000 0.0000
# 4 0.0000 0.0000 0.0000 41.3769 0.0000 0.0000
# 5 0.0000 0.0000 0.0000 0.0000 41.3769 0.0000
# 6 0.0000 0.0000 0.0000 0.0000 0.0000 28.7245
#
#
#
# Elastic Compliance Matrix: (Units=1/GPa)
#
#
# Indices 1 2 3 4 5 6 
#
# 1 0.011906 -0.005500 -0.003589 0.000000 0.000000 0.000000
# 2 -0.005500 0.011906 -0.003589 0.000000 0.000000 0.000000
# 3 -0.003589 -0.003589 0.012682 0.000000 0.000000 0.000000
# 4 0.000000 0.000000 0.000000 0.024168 0.000000 0.000000
# 5 0.000000 0.000000 0.000000 0.000000 0.024168 0.000000
# 6 0.000000 0.000000 0.000000 0.000000 0.000000 0.034813
#
#
# Mechanical properties :
#
#
# Convention : Reuss Voigt Hill
#
# Bulk Modulus (GPa) = 89.78879 92.38583 91.08731
# Shear Modulus (GPa) = 33.62172 34.73269 34.17721
#
# Velocity S-wave (km/s) = 4.19469 4.26343 4.22920
# Velocity P-wave (km/s) = 8.39347 8.51966 8.45680
#
# Compressibility (1/GPa) = 0.01113725
#
# Stress axis : x y z
#
# Youngs Moduli (GPa) = 83.98963 83.98963 78.85276
#
# Poissons Ratio (x) = 0.46198 0.28300
# Poissons Ratio (y) = 0.46198 0.28300
# Poissons Ratio (z) = 0.30144 0.30144
#
# Static dielectric constant tensor:
#      x y z
#    x 1.639610 0.000000 0.000000 
#    y 0.000000 1.639610 0.000000 
#    z 0.000000 0.000000 1.688310 
# 
# From -- ./inp_files/827.got.cif
#   From: 2010.05.17/outbox.cif.g08.bks.cpg/sg184_cif.got.tgz:827.got - 2010.05.20 12:04:40.
