data_PCOD9585443
_publ_section_title
;
Structure prediction by ZEFSAII (Michael W. Deem and Ramdas Pophale) SiO2 
 PCOD9585443
Probable space group: P -6 M 2
;
_chemical_formula_sum "Si O2"
_cell_formula_units_Z 66
_cell_length_a 17.509275
_cell_length_b 17.509275
_cell_length_c 18.412946
_cell_angle_alpha 90.000000
_cell_angle_beta 90.000000
_cell_angle_gamma 120.000000
_cell_volume 4888.664560
_symmetry_space_group_name_H-M "P -6 M 2"
_symmetry_group_IT_number 187
_symmetry_cell_setting 'hexagonal'
loop_
_space_group_symop_operation_xyz
x,y,z
-x+y,-x,-z
-y,x-y,z
x,y,-z
-x+y,-x,z
-y,x-y,-z
-y,-x,-z
-x+y,y,-z
x,x-y,-z
-x+y,y,z
x,x-y,z
-y,-x,z
loop_
_atom_site_type_symbol
_atom_site_label
_atom_site_fract_x
_atom_site_fract_y
_atom_site_fract_z
Si Si1 0.999308 0.178222 0.180044
Si Si2 0.149227 0.483367 0.000000
Si Si3 0.093341 0.721712 0.857950
Si Si4 0.999322 0.821757 0.355110
Si Si5 0.515308 0.850025 0.282992
Si Si6 0.090216 0.366046 0.581657
O O1 0.907453 0.092548 0.160309
O O2 0.081825 0.163649 0.162717
O O3 0.017717 0.269721 0.144659
O O4 0.001006 0.189648 0.267713
O O5 0.099591 0.427046 0.928796
O O6 0.247618 0.495235 0.000000
O O7 0.155485 0.577743 0.000000
O O8 0.183899 0.816102 0.856811
O O9 0.096832 0.673319 0.785115
O O10 0.080796 0.919205 0.372321
O O11 0.019211 0.751717 0.393672
O O12 0.907235 0.814469 0.375149
O O13 0.420378 0.840756 0.276813
O O14 0.507057 0.753529 0.282255
O O15 0.563950 0.897756 0.357334
O O16 0.074056 0.385628 0.500000
O O17 0.183267 0.366533 0.581681
#
# Coordination Sequence:
#
# PCOD9585443 Si02
#       6
#    12   6  12  12  12  12
#     4   9  15  25  42  63  86 114 146 174 197 231
#     4  10  19  30  45  64  86 112 142 176 211 248
#     4   9  17  29  43  61  85 110 136 169 211 247
#     4   9  15  24  39  59  82 110 143 174 202 236
#     4  10  18  29  43  58  76 103 140 177 210 247
#     4   9  17  28  39  53  78 108 136 171 212 245
#
# _framework density 13.500619
#
# number of rings (size 3 to 8) (size 9 to 14) (size 15 to 20)
#    0.000    2.727    1.818    1.182    0.000    2.182 
#    0.000    2.273    0.000    2.182    0.000    1.273 
#    0.000    0.000    0.000   13.091    0.000    4.727 
#
# Total GULP energy -367562.477780 kJ/mol
# GULP energy per Si atom -5569.128451 kJ/mol
# Density = 1.346989 g / cm^3
# Si number density = 13.500619 Si / 1000 Ang^3
#
#
#
# Elastic Constant Matrix: (Units=GPa)
#
#
# Indices 1 2 3 4 5 6 
#
# 1 76.7927 34.2389 43.3486 0.0000 0.0003 0.0000
# 2 34.2389 76.7927 43.3486 0.0000 -0.0003 0.0000
# 3 43.3486 43.3486 80.1399 0.0000 0.0000 0.0000
# 4 0.0000 0.0000 0.0000 9.3961 0.0000 -0.0003
# 5 0.0003 -0.0003 0.0000 0.0000 9.3961 0.0000
# 6 0.0000 0.0000 0.0000 -0.0003 0.0000 21.2769
#
#
#
# Elastic Compliance Matrix: (Units=1/GPa)
#
#
# Indices 1 2 3 4 5 6 
#
# 1 0.019546 -0.003954 -0.008434 0.000000 -0.000001 0.000000
# 2 -0.003954 0.019546 -0.008434 0.000000 0.000001 0.000000
# 3 -0.008434 -0.008434 0.021602 0.000000 0.000000 0.000000
# 4 0.000000 0.000000 0.000000 0.106427 0.000000 0.000001
# 5 -0.000001 0.000001 0.000000 0.000000 0.106427 0.000000
# 6 0.000000 0.000000 0.000000 0.000001 0.000000 0.046999
#
#
# Mechanical properties :
#
#
# Convention : Reuss Voigt Hill
#
# Bulk Modulus (GPa) = 52.49202 52.84419 52.66811
# Shear Modulus (GPa) = 13.56703 15.53309 14.55006
#
# Velocity S-wave (km/s) = 3.17349 3.39565 3.28645
# Velocity P-wave (km/s) = 7.23834 7.38925 7.31418
#
# Compressibility (1/GPa) = 0.01905051
#
# Stress axis : x y z
#
# Youngs Moduli (GPa) = 51.16198 51.16198 46.29189
#
# Poissons Ratio (x) = 0.20229 0.39042
# Poissons Ratio (y) = 0.20229 0.39042
# Poissons Ratio (z) = 0.43149 0.43149
#
# Static dielectric constant tensor:
#      x y z
#    x 1.421780 0.000000 0.000000 
#    y 0.000000 1.421780 0.000000 
#    z 0.000000 0.000000 1.464120 
# 
# From -- ./inp_files/2479.got.cif
#   From: 2010.05.17/outbox.cif.g08.bks.cpg/sg187_2_cif.got.tgz:2479.got - 2010.05.20 12:09:04.
