data_PCOD9585710
_publ_section_title
;
Structure prediction by ZEFSAII (Michael W. Deem and Ramdas Pophale) SiO2 
 PCOD9585710
Probable space group: P -6 M 2
;
_chemical_formula_sum "Si O2"
_cell_formula_units_Z 72
_cell_length_a 23.764007
_cell_length_b 23.764007
_cell_length_c 8.288605
_cell_angle_alpha 90.000000
_cell_angle_beta 90.000000
_cell_angle_gamma 120.000000
_cell_volume 4053.698259
_symmetry_space_group_name_H-M "P -6 M 2"
_symmetry_group_IT_number 187
_symmetry_cell_setting 'hexagonal'
loop_
_space_group_symop_operation_xyz
x,y,z
-x+y,-x,-z
-y,x-y,z
x,y,-z
-x+y,-x,z
-y,x-y,-z
-y,-x,-z
-x+y,y,-z
x,x-y,-z
-x+y,y,z
x,x-y,z
-y,-x,z
loop_
_atom_site_type_symbol
_atom_site_label
_atom_site_fract_x
_atom_site_fract_y
_atom_site_fract_z
Si Si1 0.744572 0.808625 0.693254
Si Si2 0.666728 0.204017 0.302872
Si Si3 0.926141 0.591385 0.306827
Si Si4 0.536697 0.945464 0.194314
Si Si5 0.596616 0.735146 0.195179
Si Si6 0.795046 0.719167 0.192784
O O1 0.745521 0.807513 0.500000
O O2 0.761412 0.880706 0.746437
O O3 0.670459 0.760641 0.749583
O O4 0.789658 0.781693 0.758595
O O5 0.666890 0.204373 0.500000
O O6 0.600935 0.201869 0.250485
O O7 0.730354 0.269647 0.249797
O O8 0.668864 0.140369 0.251324
O O9 0.929458 0.589544 0.500000
O O10 0.925648 0.656375 0.258697
O O11 0.987352 0.588297 0.237794
O O12 0.471425 0.942849 0.256484
O O13 0.550164 0.888472 0.251778
O O14 0.532065 0.941315 0.000000
O O15 0.579166 0.789583 0.249619
O O16 0.596692 0.734934 0.000000
O O17 0.860488 0.720976 0.251418
O O18 0.793426 0.714551 0.000000
#
# Coordination Sequence:
#
# PCOD9585710 Si02
#       6
#    12  12  12  12  12  12
#     4  10  20  34  55  83 110 135 168 214 264 311
#     4   9  17  29  45  65  90 123 165 213 265 319
#     4  11  21  33  50  74 104 136 173 223 276 322
#     4  10  20  33  50  74 106 142 179 219 265 320
#     4   9  17  31  52  75 102 138 176 214 259 313
#     4  11  23  37  54  78 109 145 182 217 259 315
#
# _framework density 17.761558000000001
#
# number of rings (size 3 to 8) (size 9 to 14) (size 15 to 20)
#    0.000    2.000    1.667    2.667    0.000    4.667 
#    0.000    0.000    0.000    0.667    0.000    2.333 
#    0.000    8.000    0.000    3.833    0.000    4.667 
#
# Total GULP energy -401880.984325 kJ/mol
# GULP energy per Si atom -5581.680338 kJ/mol
# Density = 1.772113 g / cm^3
# Si number density = 17.761558 Si / 1000 Ang^3
#
#
#
# Elastic Constant Matrix: (Units=GPa)
#
#
# Indices 1 2 3 4 5 6 
#
# 1 136.0237 84.2910 6.9207 0.0000 0.0000 0.0000
# 2 84.2910 136.0237 6.9207 0.0000 0.0000 0.0000
# 3 6.9207 6.9207 9.2484 0.0000 0.0000 0.0000
# 4 0.0000 0.0000 0.0000 15.3343 0.0000 0.0000
# 5 0.0000 0.0000 0.0000 0.0000 15.3343 0.0000
# 6 0.0000 0.0000 0.0000 0.0000 0.0000 25.8664
#
#
#
# Elastic Compliance Matrix: (Units=1/GPa)
#
#
# Indices 1 2 3 4 5 6 
#
# 1 0.012046 -0.007284 -0.003564 0.000000 0.000000 0.000000
# 2 -0.007284 0.012046 -0.003564 0.000000 0.000000 0.000000
# 3 -0.003564 -0.003564 0.113461 0.000000 0.000000 0.000000
# 4 0.000000 0.000000 0.000000 0.065213 0.000000 0.000000
# 5 0.000000 0.000000 0.000000 0.000000 0.065213 0.000000
# 6 0.000000 0.000000 0.000000 0.000000 0.000000 0.038660
#
#
# Mechanical properties :
#
#
# Convention : Reuss Voigt Hill
#
# Bulk Modulus (GPa) = 9.19707 53.06227 31.12967
# Shear Modulus (GPa) = 13.45142 23.51789 18.48466
#
# Velocity S-wave (km/s) = 2.75495 3.64275 3.22951
# Velocity P-wave (km/s) = 3.91267 6.90163 5.60988
#
# Compressibility (1/GPa) = 0.10873028
#
# Stress axis : x y z
#
# Youngs Moduli (GPa) = 83.01167 83.01167 8.81361
#
# Poissons Ratio (x) = 0.60463 0.03141
# Poissons Ratio (y) = 0.60463 0.03141
# Poissons Ratio (z) = 0.29586 0.29586
#
# Static dielectric constant tensor:
#      x y z
#    x 1.604030 0.000000 0.000000 
#    y 0.000000 1.604030 0.000000 
#    z 0.000000 0.000000 1.615750 
# 
# From -- ./inp_files/932.got.cif
#   From: 2010.05.17/outbox.cif.g08.bks.cpg/sg187_1_cif.got.tgz:932.got - 2010.05.20 12:09:04.
