data_PCOD9585002
_publ_section_title
;
Structure prediction by ZEFSAII (Michael W. Deem and Ramdas Pophale) SiO2 
 PCOD9585002
Probable space group: P 6 M M
;
_chemical_formula_sum "Si O2"
_cell_formula_units_Z 96
_cell_length_a 18.431798
_cell_length_b 18.431798
_cell_length_c 20.775711
_cell_angle_alpha 90.000000
_cell_angle_beta 90.000000
_cell_angle_gamma 120.000000
_cell_volume 6112.543060
_symmetry_space_group_name_H-M "P 6 M M"
_symmetry_group_IT_number 183
_symmetry_cell_setting 'hexagonal'
loop_
_space_group_symop_operation_xyz
x,y,z
x-y,x,z
-y,x-y,z
-x,-y,z
-x+y,-x,z
y,-x+y,z
-x+y,y,z
x,x-y,z
-y,-x,z
y,x,z
x-y,-y,z
-x,-x+y,z
loop_
_atom_site_type_symbol
_atom_site_label
_atom_site_fract_x
_atom_site_fract_y
_atom_site_fract_z
Si Si1 0.495199 0.332703 0.006160
Si Si2 0.903423 0.636648 0.890158
Si Si3 0.903596 0.640163 0.113136
Si Si4 0.906288 0.540960 0.645426
Si Si5 0.506159 0.839228 0.367575
Si Si6 0.162922 0.668218 0.509870
Si Si7 0.832191 0.501218 0.781316
Si Si8 0.647094 0.740469 0.264714
O O1 0.520360 0.260180 0.004276
O O2 0.576258 0.423743 0.000356
O O3 0.442818 0.319368 0.071497
O O4 0.428329 0.310726 0.948986
O O5 0.831585 0.663169 0.891655
O O6 0.887409 0.580399 0.826403
O O7 0.000000 0.709153 0.893665
O O8 0.833343 0.666685 0.098715
O O9 0.898723 0.622401 0.189467
O O10 0.000000 0.708604 0.098200
O O11 0.906999 0.453500 0.640880
O O12 0.879628 0.554770 0.575009
O O13 0.848942 0.528050 0.706608
O O14 0.000000 0.612355 0.660284
O O15 0.421281 0.842562 0.361990
O O16 0.486674 0.743337 0.363076
O O17 0.543832 0.870591 0.439368
O O18 0.571107 0.889369 0.311530
O O19 0.158487 0.579244 0.511124
O O20 0.258742 0.741259 0.512291
O O21 0.735934 0.471867 0.797026
O O22 0.850256 0.425128 0.791446
O O23 0.669813 0.834907 0.278598
O O24 0.721964 0.721964 0.274810
#
# Coordination Sequence:
#
# PCOD9585002 Si02
#       8
#    12  12  12  12  12  12  12  12
#     4  10  20  33  49  70  97 128 160 191 222 256
#     4  10  21  35  51  71  94 121 151 185 227 272
#     4   9  18  32  49  68  90 117 148 183 224 269
#     4   9  17  27  38  54  78 109 145 185 226 264
#     4   9  17  28  42  61  86 117 151 185 220 259
#     4   9  16  26  40  57  78 105 139 179 221 262
#     4  10  19  30  45  65  90 120 154 189 223 261
#     4   9  18  32  48  66  88 114 145 181 224 271
#
# _framework density 15.705411
#
# number of rings (size 3 to 8) (size 9 to 14) (size 15 to 20)
#    0.000    2.625    0.000    2.000    0.000    4.500 
#    0.000    5.000    0.000    1.875    0.000    1.750 
#    0.000    3.000    0.000    0.125    0.000    0.000 
#
# Total GULP energy -534583.943098 kJ/mol
# GULP energy per Si atom -5568.582741 kJ/mol
# Density = 1.566966 g / cm^3
# Si number density = 15.705411 Si / 1000 Ang^3
#
#
#
# Elastic Constant Matrix: (Units=GPa)
#
#
# Indices 1 2 3 4 5 6 
#
# 1 69.0715 52.1238 36.7164 0.0000 0.0000 0.0000
# 2 52.1238 69.0715 36.7164 0.0000 0.0000 0.0000
# 3 36.7164 36.7164 66.6890 0.0000 0.0000 0.0000
# 4 0.0000 0.0000 0.0000 18.8843 0.0000 0.0000
# 5 0.0000 0.0000 0.0000 0.0000 18.8843 0.0000
# 6 0.0000 0.0000 0.0000 0.0000 0.0000 8.4739
#
#
#
# Elastic Compliance Matrix: (Units=1/GPa)
#
#
# Indices 1 2 3 4 5 6 
#
# 1 0.035693 -0.023312 -0.006817 0.000000 0.000000 0.000000
# 2 -0.023312 0.035693 -0.006817 0.000000 0.000000 0.000000
# 3 -0.006817 -0.006817 0.022501 0.000000 0.000000 0.000000
# 4 0.000000 0.000000 0.000000 0.052954 0.000000 0.000000
# 5 0.000000 0.000000 0.000000 0.000000 0.052954 0.000000
# 6 0.000000 0.000000 0.000000 0.000000 0.000000 0.118010
#
#
# Mechanical properties :
#
#
# Convention : Reuss Voigt Hill
#
# Bulk Modulus (GPa) = 50.00763 50.66058 50.33410
# Shear Modulus (GPa) = 12.55140 14.53351 13.54245
#
# Velocity S-wave (km/s) = 2.83004 3.04531 2.93965
# Velocity P-wave (km/s) = 6.52602 6.68521 6.60609
#
# Compressibility (1/GPa) = 0.01999695
#
# Stress axis : x y z
#
# Youngs Moduli (GPa) = 28.01653 28.01653 44.44236
#
# Poissons Ratio (x) = 0.65311 0.30295
# Poissons Ratio (y) = 0.65311 0.30295
# Poissons Ratio (z) = 0.19098 0.19098
#
# Static dielectric constant tensor:
#      x y z
#    x 1.513690 0.000000 0.000000 
#    y 0.000000 1.513690 0.000000 
#    z 0.000000 0.000000 1.564140 
# 
# From -- ./inp_files/2979.got.cif
#   From: 2010.05.17/outbox.cif.g08.bks.cpg/sg183_2_cif.got.tgz:2979.got - 2010.05.20 12:02:58.
