data_PCOD9585594
_publ_section_title
;
Structure prediction by ZEFSAII (Michael W. Deem and Ramdas Pophale) SiO2 
 PCOD9585594
Probable space group: P -6 M 2
;
_chemical_formula_sum "Si O2"
_cell_formula_units_Z 72
_cell_length_a 24.208832
_cell_length_b 24.208832
_cell_length_c 9.340054
_cell_angle_alpha 90.000000
_cell_angle_beta 90.000000
_cell_angle_gamma 120.000000
_cell_volume 4740.538653
_symmetry_space_group_name_H-M "P -6 M 2"
_symmetry_group_IT_number 187
_symmetry_cell_setting 'hexagonal'
loop_
_space_group_symop_operation_xyz
x,y,z
-x+y,-x,-z
-y,x-y,z
x,y,-z
-x+y,-x,z
-y,x-y,-z
-y,-x,-z
-x+y,y,-z
x,x-y,-z
-x+y,y,z
x,x-y,z
-y,-x,z
loop_
_atom_site_type_symbol
_atom_site_label
_atom_site_fract_x
_atom_site_fract_y
_atom_site_fract_z
Si Si1 0.553749 0.888179 0.170510
Si Si2 0.552597 0.105194 0.672881
Si Si3 0.767631 0.660056 0.170725
Si Si4 0.705598 0.852799 0.335798
Si Si5 0.038131 0.294992 0.170354
Si Si6 0.224778 0.775223 0.334650
Si Si7 0.700740 0.175068 0.671695
Si Si8 0.484074 0.515927 0.172614
O O1 0.629504 0.933703 0.197504
O O2 0.531452 0.822265 0.254364
O O3 0.517716 0.926689 0.209056
O O4 0.545777 0.874965 0.000000
O O5 0.548001 0.096002 0.500000
O O6 0.627251 0.146334 0.711672
O O7 0.518205 0.036409 0.749171
O O8 0.841741 0.683481 0.197408
O O9 0.744385 0.708882 0.212984
O O10 0.727593 0.593566 0.252340
O O11 0.756366 0.648733 0.000000
O O12 0.725757 0.862879 0.500000
O O13 0.725846 0.807804 0.254382
O O14 0.627982 0.813991 0.332033
O O15 0.043496 0.288099 0.000000
O O16 0.234993 0.765008 0.500000
O O17 0.703113 0.169121 0.500000
O O18 0.750841 0.249160 0.707642
O O19 0.489129 0.510872 0.000000
#
# Coordination Sequence:
#
# PCOD9585594 Si02
#       8
#    12   6  12   6  12   6  12   6
#     4   9  17  29  45  65  89 117 148 181 217 264
#     4  10  20  32  46  66  91 119 154 200 248 290
#     4   9  17  29  46  67  90 117 149 182 220 268
#     4   9  17  27  41  63  88 112 141 173 204 244
#     4   9  16  27  43  63  89 118 144 173 215 260
#     4   9  17  29  45  64  86 113 143 174 213 255
#     4   9  18  32  46  62  86 117 154 195 240 286
#     4  10  20  32  48  71  95 120 152 189 233 283
#
# _framework density 15.188147000000001
#
# number of rings (size 3 to 8) (size 9 to 14) (size 15 to 20)
#    0.000    2.833    0.000    1.500    0.000    5.333 
#    0.500    3.333    0.000    0.333    0.000    1.167 
#    0.833    0.000    1.500    0.000    0.500    0.000 
#
# Total GULP energy -401106.626815 kJ/mol
# GULP energy per Si atom -5570.925372 kJ/mol
# Density = 1.515358 g / cm^3
# Si number density = 15.188147 Si / 1000 Ang^3
#
#
#
# Elastic Constant Matrix: (Units=GPa)
#
#
# Indices 1 2 3 4 5 6 
#
# 1 125.9302 84.0064 52.9844 0.0000 0.0001 0.0000
# 2 84.0064 125.9302 52.9844 0.0000 -0.0001 0.0000
# 3 52.9844 52.9844 36.6667 0.0000 0.0000 0.0000
# 4 0.0000 0.0000 0.0000 20.5787 0.0000 -0.0001
# 5 0.0001 -0.0001 0.0000 0.0000 20.5787 0.0000
# 6 0.0000 0.0000 0.0000 -0.0001 0.0000 20.9619
#
#
#
# Elastic Compliance Matrix: (Units=1/GPa)
#
#
# Indices 1 2 3 4 5 6 
#
# 1 0.020728 -0.003125 -0.025437 0.000000 0.000000 0.000000
# 2 -0.003125 0.020728 -0.025437 0.000000 0.000000 0.000000
# 3 -0.025437 -0.025437 0.100786 0.000000 0.000000 0.000000
# 4 0.000000 0.000000 0.000000 0.048594 0.000000 0.000000
# 5 0.000000 0.000000 0.000000 0.000000 0.048594 0.000000
# 6 0.000000 0.000000 0.000000 0.000000 0.000000 0.047706
#
#
# Mechanical properties :
#
#
# Convention : Reuss Voigt Hill
#
# Bulk Modulus (GPa) = 29.20121 74.27528 51.73825
# Shear Modulus (GPa) = 12.29870 18.99399 15.64635
#
# Velocity S-wave (km/s) = 2.84871 3.54019 3.21311
# Velocity P-wave (km/s) = 5.48528 8.10680 6.92129
#
# Compressibility (1/GPa) = 0.03424515
#
# Stress axis : x y z
#
# Youngs Moduli (GPa) = 48.24429 48.24429 9.92201
#
# Poissons Ratio (x) = 0.15076 0.25238
# Poissons Ratio (y) = 0.15076 0.25238
# Poissons Ratio (z) = 1.22717 1.22717
#
# Static dielectric constant tensor:
#      x y z
#    x 1.490360 0.000000 0.000000 
#    y 0.000000 1.490360 0.000000 
#    z 0.000000 0.000000 1.506720 
# 
# From -- ./inp_files/1089.got.cif
#   From: 2010.05.17/outbox.cif.g08.bks.cpg/sg187_1_cif.got.tgz:1089.got - 2010.05.20 12:09:04.
