data_PCOD9585238
_publ_section_title
;
Structure prediction by ZEFSAII (Michael W. Deem and Ramdas Pophale) SiO2 
 PCOD9585238
Probable space group: P 63 C M
;
_chemical_formula_sum "Si O2"
_cell_formula_units_Z 60
_cell_length_a 13.799119
_cell_length_b 13.799119
_cell_length_c 19.541360
_cell_angle_alpha 90.000000
_cell_angle_beta 90.000000
_cell_angle_gamma 120.000000
_cell_volume 3222.464466
_symmetry_space_group_name_H-M "P 63 C M"
_symmetry_group_IT_number 185
_symmetry_cell_setting 'hexagonal'
loop_
_space_group_symop_operation_xyz
x,y,z
x-y,x,1/2+z
-y,x-y,z
-x,-y,1/2+z
-x+y,-x,z
y,-x+y,1/2+z
-x+y,y,1/2+z
x,x-y,1/2+z
-y,-x,1/2+z
y,x,z
x-y,-y,z
-x,-x+y,z
loop_
_atom_site_type_symbol
_atom_site_label
_atom_site_fract_x
_atom_site_fract_y
_atom_site_fract_z
Si Si1 0.796739 0.128971 0.635110
Si Si2 0.433974 0.869461 0.635110
Si Si3 0.293232 0.422927 0.017840
Si Si4 0.870305 0.577073 0.252380
Si Si5 0.479927 0.739964 0.385110
O O1 0.681761 0.135290 0.635110
O O2 0.861742 0.197365 0.568335
O O3 0.861742 0.197365 0.701885
O O4 0.760720 0.000000 0.635110
O O5 0.361962 0.827684 0.565622
O O6 0.361962 0.827684 0.704598
O O7 0.470513 0.000000 0.635110
O O8 0.374317 0.374317 0.997592
O O9 0.239661 0.448980 0.953085
O O10 0.790681 0.551020 0.317135
O O11 0.000000 0.625683 0.272628
O O12 0.393900 0.787799 0.385110
#
# Coordination Sequence:
#
# PCOD9585238 Si02
#       5
#    12  12  12  12  12
#     4  10  19  33  55  79 101 131 173 218 264 312
#     4   8  16  31  52  75 100 131 166 212 259 308
#     4  10  20  35  53  76 107 140 175 215 264 315
#     4  10  20  35  53  76 107 140 175 215 264 315
#     4  10  22  34  49  80 109 146 180 216 258 316
#
# _framework density 18.619291
#
# number of rings (size 3 to 8) (size 9 to 14) (size 15 to 20)
#    0.400    2.000    0.000    4.200    0.000    2.400 
#    9.600    0.000    0.000    3.200    0.000    1.400 
#    0.000    0.000    0.000    0.000    0.000    0.000 
#
# Total GULP energy -334293.036518 kJ/mol
# GULP energy per Si atom -5571.550609 kJ/mol
# Density = 1.857691 g / cm^3
# Si number density = 18.619291 Si / 1000 Ang^3
#
#
#
# Elastic Constant Matrix: (Units=GPa)
#
#
# Indices 1 2 3 4 5 6 
#
# 1 55.7198 8.7297 29.2117 0.0000 0.0000 0.0000
# 2 8.7297 55.7198 29.2117 0.0000 0.0000 0.0000
# 3 29.2117 29.2117 149.3632 0.0000 0.0000 0.0000
# 4 0.0000 0.0000 0.0000 8.2098 0.0000 0.0000
# 5 0.0000 0.0000 0.0000 0.0000 8.2098 0.0000
# 6 0.0000 0.0000 0.0000 0.0000 0.0000 23.4950
#
#
#
# Elastic Compliance Matrix: (Units=1/GPa)
#
#
# Indices 1 2 3 4 5 6 
#
# 1 0.020070 -0.001211 -0.003688 0.000000 0.000000 0.000000
# 2 -0.001211 0.020070 -0.003688 0.000000 0.000000 0.000000
# 3 -0.003688 -0.003688 0.008138 0.000000 0.000000 0.000000
# 4 0.000000 0.000000 0.000000 0.121805 0.000000 0.000000
# 5 0.000000 0.000000 0.000000 0.000000 0.121805 0.000000
# 6 0.000000 0.000000 0.000000 0.000000 0.000000 0.042562
#
#
# Mechanical properties :
#
#
# Convention : Reuss Voigt Hill
#
# Bulk Modulus (GPa) = 32.15105 43.90099 38.02602
# Shear Modulus (GPa) = 13.81236 20.89292 17.35264
#
# Velocity S-wave (km/s) = 2.72661 3.35343 3.05613
# Velocity P-wave (km/s) = 5.21705 6.21477 5.73764
#
# Compressibility (1/GPa) = 0.03110319
#
# Stress axis : x y z
#
# Youngs Moduli (GPa) = 49.82476 49.82476 122.88285
#
# Poissons Ratio (x) = 0.06032 0.45325
# Poissons Ratio (y) = 0.06032 0.45325
# Poissons Ratio (z) = 0.18378 0.18378
#
# Static dielectric constant tensor:
#      x y z
#    x 1.655930 0.000000 0.000000 
#    y 0.000000 1.655930 0.000000 
#    z 0.000000 0.000000 1.659850 
# 
# From -- ./inp_files/1895.got.cif
#   From: 2010.05.17/outbox.cif.g08.bks.cpg/sg185_cif.got.tgz:1895.got - 2010.05.20 12:05:34.
