data_PCOD9585416
_publ_section_title
;
Structure prediction by ZEFSAII (Michael W. Deem and Ramdas Pophale) SiO2 
 PCOD9585416
Probable space group: P 63 M C
;
_chemical_formula_sum "Si O2"
_cell_formula_units_Z 72
_cell_length_a 17.512055
_cell_length_b 17.512055
_cell_length_c 18.347534
_cell_angle_alpha 90.000000
_cell_angle_beta 90.000000
_cell_angle_gamma 120.000000
_cell_volume 4872.844560
_symmetry_space_group_name_H-M "P 63 M C"
_symmetry_group_IT_number 186
_symmetry_cell_setting 'hexagonal'
loop_
_space_group_symop_operation_xyz
x,y,z
x-y,x,1/2+z
-y,x-y,z
-x,-y,1/2+z
-x+y,-x,z
y,-x+y,1/2+z
-x+y,y,z
x,x-y,z
-y,-x,z
y,x,1/2+z
x-y,-y,1/2+z
-x,-x+y,1/2+z
loop_
_atom_site_type_symbol
_atom_site_label
_atom_site_fract_x
_atom_site_fract_y
_atom_site_fract_z
Si Si1 0.089166 0.357393 0.976120
Si Si2 0.357458 0.088034 0.644435
Si Si3 0.033601 0.605567 0.277301
Si Si4 0.820645 0.000426 0.729487
Si Si5 0.666999 0.511766 0.343865
Si Si6 0.301576 0.061700 0.871095
O O1 0.166633 0.333265 0.974040
O O2 0.121686 0.441387 0.922713
O O3 0.001402 0.280450 0.939808
O O4 0.077148 0.372848 0.060135
O O5 0.375461 0.187731 0.656196
O O6 0.414209 0.064865 0.698910
O O7 0.255661 0.025391 0.669055
O O8 0.053080 0.526540 0.289085
O O9 0.077117 0.684550 0.335726
O O10 0.928221 0.563648 0.290135
O O11 0.922968 0.077033 0.726184
O O12 0.783611 0.012661 0.807046
O O13 0.809490 0.904745 0.722035
O O14 0.759706 0.519412 0.323662
O O15 0.588784 0.411217 0.346801
O O16 0.304909 0.152455 0.887089
#
# Coordination Sequence:
#
# PCOD9585416 Si02
#       6
#    12  12  12  12  12  12
#     4   9  17  29  44  64  90 116 142 173 211 254
#     4   9  18  30  43  62  89 117 143 176 213 248
#     4   9  17  29  45  63  83 110 142 176 213 253
#     4   9  16  26  41  60  83 112 145 178 211 247
#     4   9  17  29  46  67  88 109 135 171 217 265
#     4   9  17  29  45  64  85 112 145 180 215 251
#
# _framework density 14.775763
#
# number of rings (size 3 to 8) (size 9 to 14) (size 15 to 20)
#    0.000    3.000    0.000    2.333    0.000    5.333 
#    0.000    0.000    0.000    3.000    0.000    0.000 
#    0.000    1.333    0.000    0.000    0.000    0.000 
#
# Total GULP energy -400892.756136 kJ/mol
# GULP energy per Si atom -5567.954946 kJ/mol
# Density = 1.474213 g / cm^3
# Si number density = 14.775763 Si / 1000 Ang^3
#
#
#
# Elastic Constant Matrix: (Units=GPa)
#
#
# Indices 1 2 3 4 5 6 
#
# 1 44.6928 16.1045 17.4794 0.0000 0.0000 0.0000
# 2 16.1045 44.6928 17.4794 0.0000 0.0000 0.0000
# 3 17.4794 17.4794 81.3471 0.0000 0.0000 0.0000
# 4 0.0000 0.0000 0.0000 12.9598 0.0000 0.0000
# 5 0.0000 0.0000 0.0000 0.0000 12.9598 0.0000
# 6 0.0000 0.0000 0.0000 0.0000 0.0000 14.2941
#
#
#
# Elastic Compliance Matrix: (Units=1/GPa)
#
#
# Indices 1 2 3 4 5 6 
#
# 1 0.026873 -0.008106 -0.004032 0.000000 0.000000 0.000000
# 2 -0.008106 0.026873 -0.004032 0.000000 0.000000 0.000000
# 3 -0.004032 -0.004032 0.014026 0.000000 0.000000 0.000000
# 4 0.000000 0.000000 0.000000 0.077162 0.000000 0.000000
# 5 0.000000 0.000000 0.000000 0.000000 0.077162 0.000000
# 6 0.000000 0.000000 0.000000 0.000000 0.000000 0.069959
#
#
# Mechanical properties :
#
#
# Convention : Reuss Voigt Hill
#
# Bulk Modulus (GPa) = 28.22500 30.31768 29.27134
# Shear Modulus (GPa) = 14.87180 16.02071 15.44626
#
# Velocity S-wave (km/s) = 3.17598 3.29638 3.23674
# Velocity P-wave (km/s) = 5.70901 5.92040 5.81567
#
# Compressibility (1/GPa) = 0.03542959
#
# Stress axis : x y z
#
# Youngs Moduli (GPa) = 37.21194 37.21194 71.29640
#
# Poissons Ratio (x) = 0.30165 0.28750
# Poissons Ratio (y) = 0.30165 0.28750
# Poissons Ratio (z) = 0.15006 0.15006
#
# Static dielectric constant tensor:
#      x y z
#    x 1.483550 0.000000 0.000000 
#    y 0.000000 1.483550 0.000000 
#    z 0.000000 0.000000 1.479140 
# 
# From -- ./inp_files/2966.got.cif
#   From: 2010.05.17/outbox.cif.g08.bks.cpg/sg186_2_cif.got.tgz:2966.got - 2010.05.20 12:07:08.
