data_PCOD9585831
_publ_section_title
;
Structure prediction by ZEFSAII (Michael W. Deem and Ramdas Pophale) SiO2 
 PCOD9585831
Probable space group: P -6 M 2
;
_chemical_formula_sum "Si O2"
_cell_formula_units_Z 60
_cell_length_a 12.000000
_cell_length_b 12.000000
_cell_length_c 27.000000
_cell_angle_alpha 90.000000
_cell_angle_beta 90.000000
_cell_angle_gamma 120.000000
_cell_volume 3367.106770
_symmetry_space_group_name_H-M "P -6 M 2"
_symmetry_group_IT_number 187
_symmetry_cell_setting 'hexagonal'
loop_
_space_group_symop_operation_xyz
x,y,z
-x+y,-x,-z
-y,x-y,z
x,y,-z
-x+y,-x,z
-y,x-y,-z
-y,-x,-z
-x+y,y,-z
x,x-y,-z
-x+y,y,z
x,x-y,z
-y,-x,z
loop_
_atom_site_type_symbol
_atom_site_label
_atom_site_fract_x
_atom_site_fract_y
_atom_site_fract_z
Si Si1 0.406456 0.336763 0.000000
Si Si2 0.001239 0.734054 0.393423
Si Si3 0.596519 0.929243 0.803554
Si Si4 0.733397 0.999940 0.500000
Si Si5 0.736956 0.000388 0.901913
Si Si6 0.929803 0.595522 0.294597
O O1 0.336838 0.342385 0.950371
O O2 0.551267 0.448734 0.000000
O O3 0.401428 0.200714 0.000000
O O4 0.872360 0.744719 0.390957
O O5 0.000721 0.655098 0.346097
O O6 0.000301 0.673242 0.447025
O O7 0.125041 0.874960 0.391392
O O8 0.459615 0.919229 0.801120
O O9 0.579016 0.789508 0.808924
O O10 0.671817 0.009569 0.851567
O O11 0.669438 0.992071 0.752716
O O12 0.748504 0.874252 0.500000
O O13 0.873885 0.126116 0.500000
O O14 0.748890 0.874445 0.899312
O O15 0.876451 0.123550 0.906509
O O16 0.794327 0.588654 0.296333
O O17 0.909518 0.454759 0.288535
#
# Coordination Sequence:
#
# PCOD9585831 Si02
#       6
#     6  12  12   6  12  12
#     4  10  20  34  52  74 100 130 164 200 236 274
#     4   9  16  27  45  69  94 118 146 184 232 282
#     4  10  20  34  52  73  97 125 158 198 243 290
#     4   8  13  22  39  64  92 118 144 178 224 278
#     4  10  20  34  53  76 102 131 162 197 238 285
#     4  10  20  33  48  66  91 124 161 198 235 278
#
# _framework density 17.819452999999999
#
# number of rings (size 3 to 8) (size 9 to 14) (size 15 to 20)
#    0.000    2.400    0.000    3.100    0.000    1.600 
#    0.000    1.500    0.000   16.000    0.000    1.400 
#    0.000    0.000    0.000    0.000    0.000    0.000 
#
# Total GULP energy -334045.874578 kJ/mol
# GULP energy per Si atom -5567.431243 kJ/mol
# Density = 1.777889 g / cm^3
# Si number density = 17.819453 Si / 1000 Ang^3
#
#
#
# Elastic Constant Matrix: (Units=GPa)
#
#
# Indices 1 2 3 4 5 6 
#
# 1 37.9205 9.2198 30.4401 0.0000 -0.0028 0.0000
# 2 9.2198 37.9205 30.4401 0.0000 0.0028 0.0000
# 3 30.4401 30.4401 166.4019 0.0000 0.0000 0.0000
# 4 0.0000 0.0000 0.0000 -51.4425 0.0000 0.0028
# 5 -0.0028 0.0028 0.0000 0.0000 -51.4425 0.0000
# 6 0.0000 0.0000 0.0000 0.0028 0.0000 14.3504
#
#
#
# Elastic Compliance Matrix: (Units=1/GPa)
#
#
# Indices 1 2 3 4 5 6 
#
# 1 0.031309 -0.003534 -0.005081 0.000000 -0.000002 0.000000
# 2 -0.003534 0.031309 -0.005081 0.000000 0.000002 0.000000
# 3 -0.005081 -0.005081 0.007868 0.000000 0.000000 0.000000
# 4 0.000000 0.000000 0.000000 -0.019439 0.000000 0.000004
# 5 -0.000002 0.000002 0.000000 0.000000 -0.019439 0.000000
# 6 0.000000 0.000000 0.000000 0.000004 0.000000 0.069685
#
#
# Mechanical properties :
#
#
# Convention : Reuss Voigt Hill
#
# Bulk Modulus (GPa) = 23.20454 42.49365 32.84909
# Shear Modulus (GPa) = 34.95328 -6.23074 14.36127
#
# Velocity S-wave (km/s) = 4.43371 -1.87195 2.84197
# Velocity P-wave (km/s) = 6.26584 4.38478 5.40773
#
# Compressibility (1/GPa) = 0.04309501
#
# Stress axis : x y z
#
# Youngs Moduli (GPa) = 31.93998 31.93998 127.08949
#
# Poissons Ratio (x) = 0.11286 0.64573
# Poissons Ratio (y) = 0.11286 0.64573
# Poissons Ratio (z) = 0.16229 0.16229
#
# Static dielectric constant tensor:
#      x y z
#    x 1.558080 0.000000 0.000000 
#    y 0.000000 1.558080 0.000000 
#    z 0.000000 0.000000 1.690320 
# 
# From -- ./inp_files/4161.got.cif
#   From: 2010.05.17/outbox.ucp.g08.bks.cvg/sg187_3_cif.got.tgz:4161.got - 2010.06.11 15:21:44.
