data_PCOD9585661
_publ_section_title
;
Structure prediction by ZEFSAII (Michael W. Deem and Ramdas Pophale) SiO2 
 PCOD9585661
Probable space group: P -6 M 2
;
_chemical_formula_sum "Si O2"
_cell_formula_units_Z 72
_cell_length_a 12.660490
_cell_length_b 12.660490
_cell_length_c 31.837691
_cell_angle_alpha 90.000000
_cell_angle_beta 90.000000
_cell_angle_gamma 120.000000
_cell_volume 4419.500874
_symmetry_space_group_name_H-M "P -6 M 2"
_symmetry_group_IT_number 187
_symmetry_cell_setting 'hexagonal'
loop_
_space_group_symop_operation_xyz
x,y,z
-x+y,-x,-z
-y,x-y,z
x,y,-z
-x+y,-x,z
-y,x-y,-z
-y,-x,-z
-x+y,y,-z
x,x-y,-z
-x+y,y,z
x,x-y,z
-y,-x,z
loop_
_atom_site_type_symbol
_atom_site_label
_atom_site_fract_x
_atom_site_fract_y
_atom_site_fract_z
Si Si1 0.667222 0.080317 0.907896
Si Si2 0.749678 0.000597 0.500000
Si Si3 0.666559 0.584708 0.582009
Si Si4 0.917763 0.584155 0.745735
Si Si5 0.415098 0.082108 0.000000
Si Si6 0.333060 0.917525 0.172617
Si Si7 0.583864 0.666177 0.664238
O O1 0.550953 0.101905 0.906905
O O2 0.791534 0.208467 0.902159
O O3 0.670703 0.029294 0.954423
O O4 0.646158 0.988481 0.870353
O O5 0.741060 0.870530 0.500000
O O6 0.688250 0.020424 0.458766
O O7 0.890269 0.109732 0.500000
O O8 0.786256 0.572511 0.587589
O O9 0.547709 0.452292 0.576292
O O10 0.643829 0.644903 0.622916
O O11 0.794792 0.589583 0.744718
O O12 0.888282 0.444141 0.744895
O O13 0.994193 0.643424 0.787948
O O14 0.001777 0.648968 0.705403
O O15 0.543597 0.087194 0.000000
O O16 0.437104 0.218552 0.000000
O O17 0.445407 0.890813 0.172404
O O18 0.206223 0.793778 0.176393
O O19 0.591091 0.795546 0.663695
O O20 0.443458 0.556543 0.665258
#
# Coordination Sequence:
#
# PCOD9585661 Si02
#       7
#    12   6  12  12   6  12  12
#     4   9  16  27  46  71  97 122 150 190 239 289
#     4  10  20  34  52  74 102 136 172 208 248 298
#     4  10  20  34  54  78 104 134 168 210 256 300
#     4  10  20  34  54  78 102 126 154 195 245 294
#     4   8  13  22  39  66  96 122 148 182 232 288
#     4  10  20  33  49  68  93 126 162 198 234 278
#     4  10  20  34  53  76 103 135 169 204 240 283
#
# _framework density 16.291432
#
# number of rings (size 3 to 8) (size 9 to 14) (size 15 to 20)
#    0.000    2.333    0.000    3.250    0.000    1.333 
#    0.000    6.250    0.000   12.667    0.000    1.167 
#    0.000    0.000    0.000    0.000    0.000    0.000 
#
# Total GULP energy -401506.397406 kJ/mol
# GULP energy per Si atom -5576.477742 kJ/mol
# Density = 1.625435 g / cm^3
# Si number density = 16.291432 Si / 1000 Ang^3
#
#
#
# Elastic Constant Matrix: (Units=GPa)
#
#
# Indices 1 2 3 4 5 6 
#
# 1 114.2869 80.9748 84.2028 0.0000 0.0005 0.0000
# 2 80.9748 114.2869 84.2028 0.0000 -0.0005 0.0000
# 3 84.2028 84.2028 170.6763 0.0000 0.0000 0.0000
# 4 0.0000 0.0000 0.0000 12.0250 0.0000 -0.0005
# 5 0.0005 -0.0005 0.0000 0.0000 12.0250 0.0000
# 6 0.0000 0.0000 0.0000 -0.0005 0.0000 16.6560
#
#
#
# Elastic Compliance Matrix: (Units=1/GPa)
#
#
# Indices 1 2 3 4 5 6 
#
# 1 0.019467 -0.010552 -0.004398 0.000000 -0.000001 0.000000
# 2 -0.010552 0.019467 -0.004398 0.000000 0.000001 0.000000
# 3 -0.004398 -0.004398 0.010198 0.000000 0.000000 0.000000
# 4 0.000000 0.000000 0.000000 0.083160 0.000000 0.000002
# 5 -0.000001 0.000001 0.000000 0.000000 0.083160 0.000000
# 6 0.000000 0.000000 0.000000 0.000002 0.000000 0.060038
#
#
# Mechanical properties :
#
#
# Convention : Reuss Voigt Hill
#
# Bulk Modulus (GPa) = 95.82596 99.77901 97.80248
# Shear Modulus (GPa) = 15.73987 18.13253 16.93620
#
# Velocity S-wave (km/s) = 3.11166 3.33980 3.22775
# Velocity P-wave (km/s) = 8.47688 8.73222 8.60549
#
# Compressibility (1/GPa) = 0.01043559
#
# Stress axis : x y z
#
# Youngs Moduli (GPa) = 51.36969 51.36969 98.05457
#
# Poissons Ratio (x) = 0.54207 0.43123
# Poissons Ratio (y) = 0.54207 0.43123
# Poissons Ratio (z) = 0.22592 0.22592
#
# Static dielectric constant tensor:
#      x y z
#    x 1.509890 0.000000 0.000000 
#    y 0.000000 1.509890 0.000000 
#    z 0.000000 0.000000 1.564640 
# 
# From -- ./inp_files/4538.got.cif
#   From: 2010.05.17/outbox.cif.g08.bks.cpg/sg187_3_cif.got.tgz:4538.got - 2010.05.20 12:09:04.
