data_PCOD9585366
_publ_section_title
;
Structure prediction by ZEFSAII (Michael W. Deem and Ramdas Pophale) SiO2 
 PCOD9585366
Probable space group: P 63 M C
;
_chemical_formula_sum "Si O2"
_cell_formula_units_Z 84
_cell_length_a 17.417032
_cell_length_b 17.417032
_cell_length_c 17.945467
_cell_angle_alpha 90.000000
_cell_angle_beta 90.000000
_cell_angle_gamma 120.000000
_cell_volume 4714.478894
_symmetry_space_group_name_H-M "P 63 M C"
_symmetry_group_IT_number 186
_symmetry_cell_setting 'hexagonal'
loop_
_space_group_symop_operation_xyz
x,y,z
x-y,x,1/2+z
-y,x-y,z
-x,-y,1/2+z
-x+y,-x,z
y,-x+y,1/2+z
-x+y,y,z
x,x-y,z
-y,-x,z
y,x,1/2+z
x-y,-y,1/2+z
-x,-x+y,1/2+z
loop_
_atom_site_type_symbol
_atom_site_label
_atom_site_fract_x
_atom_site_fract_y
_atom_site_fract_z
Si Si1 0.618654 0.564188 0.971910
Si Si2 0.000431 0.818355 0.783971
Si Si3 0.977347 0.646876 0.699133
Si Si4 0.733786 0.641358 0.535244
Si Si5 0.484269 0.333419 0.820811
Si Si6 0.667358 0.150665 0.127423
Si Si7 0.000037 0.827029 0.958144
O O1 0.524196 0.475805 0.968559
O O2 0.669358 0.565977 0.897276
O O3 0.603035 0.646558 0.984542
O O4 0.667618 0.554242 0.044506
O O5 0.914596 0.829191 0.772119
O O6 0.991501 0.737236 0.735925
O O7 0.002011 0.799604 0.872444
O O8 0.090615 0.909386 0.766871
O O9 0.926143 0.630381 0.620801
O O10 0.916963 0.567256 0.754408
O O11 0.072045 0.655405 0.681984
O O12 0.804792 0.609584 0.521771
O O13 0.783227 0.745050 0.513537
O O14 0.483121 0.241561 0.810220
O O15 0.584429 0.415572 0.825921
O O16 0.581403 0.162806 0.132019
O O17 0.757606 0.242395 0.140420
O O18 0.902048 0.804096 0.977478
O O19 0.067588 0.932413 0.959750
#
# Coordination Sequence:
#
# PCOD9585366 Si02
#       7
#    12  12  12  12  12  12  12
#     4   9  20  36  57  82 108 136 171 219 276 322
#     4  10  19  32  49  72 101 138 181 227 272 318
#     4  11  22  35  51  75 109 145 179 215 264 321
#     4  10  20  34  51  74 103 140 179 213 249 303
#     4  11  22  38  59  84 110 138 172 217 271 329
#     4  10  20  36  57  82 109 140 177 222 273 330
#     4   9  18  31  49  71  98 131 171 215 260 303
#
# _framework density 17.817451999999999
#
# number of rings (size 3 to 8) (size 9 to 14) (size 15 to 20)
#    0.000    2.000    0.000    4.000    0.000    6.286 
#    0.000    2.143    0.000    2.000    0.000    0.000 
#    0.000    0.000    0.000    0.429    0.000    0.000 
#
# Total GULP energy -468856.261089 kJ/mol
# GULP energy per Si atom -5581.622156 kJ/mol
# Density = 1.777690 g / cm^3
# Si number density = 17.817452 Si / 1000 Ang^3
#
#
#
# Elastic Constant Matrix: (Units=GPa)
#
#
# Indices 1 2 3 4 5 6 
#
# 1 90.4498 38.1805 35.6807 0.0000 0.0000 0.0000
# 2 38.1805 90.4498 35.6807 0.0000 0.0000 0.0000
# 3 35.6807 35.6807 75.1011 0.0000 0.0000 0.0000
# 4 0.0000 0.0000 0.0000 19.3908 0.0000 0.0000
# 5 0.0000 0.0000 0.0000 0.0000 19.3908 0.0000
# 6 0.0000 0.0000 0.0000 0.0000 0.0000 26.1346
#
#
#
# Elastic Compliance Matrix: (Units=1/GPa)
#
#
# Indices 1 2 3 4 5 6 
#
# 1 0.014844 -0.004287 -0.005016 0.000000 0.000000 0.000000
# 2 -0.004287 0.014844 -0.005016 0.000000 0.000000 0.000000
# 3 -0.005016 -0.005016 0.018081 0.000000 0.000000 0.000000
# 4 0.000000 0.000000 0.000000 0.051571 0.000000 0.000000
# 5 0.000000 0.000000 0.000000 0.000000 0.051571 0.000000
# 6 0.000000 0.000000 0.000000 0.000000 0.000000 0.038263
#
#
# Mechanical properties :
#
#
# Convention : Reuss Voigt Hill
#
# Bulk Modulus (GPa) = 52.26706 52.78717 52.52712
# Shear Modulus (GPa) = 22.30259 22.74717 22.52488
#
# Velocity S-wave (km/s) = 3.54181 3.57694 3.55942
# Velocity P-wave (km/s) = 6.79149 6.83742 6.81450
#
# Compressibility (1/GPa) = 0.01913251
#
# Stress axis : x y z
#
# Youngs Moduli (GPa) = 67.36629 67.36629 55.30615
#
# Poissons Ratio (x) = 0.28883 0.27739
# Poissons Ratio (y) = 0.28883 0.27739
# Poissons Ratio (z) = 0.33788 0.33788
#
# Static dielectric constant tensor:
#      x y z
#    x 1.601950 0.000000 0.000000 
#    y 0.000000 1.601950 0.000000 
#    z 0.000000 0.000000 1.607610 
# 
# From -- ./inp_files/2562.got.cif
#   From: 2010.05.17/outbox.cif.g08.bks.cpg/sg186_2_cif.got.tgz:2562.got - 2010.05.20 12:07:08.
