data_PCOD9585251
_publ_section_title
;
Structure prediction by ZEFSAII (Michael W. Deem and Ramdas Pophale) SiO2 
 PCOD9585251
Probable space group: P 63 C M
;
_chemical_formula_sum "Si O2"
_cell_formula_units_Z 96
_cell_length_a 13.983983
_cell_length_b 13.983983
_cell_length_c 25.479818
_cell_angle_alpha 90.000000
_cell_angle_beta 90.000000
_cell_angle_gamma 120.000000
_cell_volume 4315.078769
_symmetry_space_group_name_H-M "P 63 C M"
_symmetry_group_IT_number 185
_symmetry_cell_setting 'hexagonal'
loop_
_space_group_symop_operation_xyz
x,y,z
x-y,x,1/2+z
-y,x-y,z
-x,-y,1/2+z
-x+y,-x,z
y,-x+y,1/2+z
-x+y,y,1/2+z
x,x-y,1/2+z
-y,-x,1/2+z
y,x,z
x-y,-y,z
-x,-x+y,z
loop_
_atom_site_type_symbol
_atom_site_label
_atom_site_fract_x
_atom_site_fract_y
_atom_site_fract_z
Si Si1 0.435528 0.881665 0.598760
Si Si2 0.814107 0.683835 0.517970
Si Si3 0.364247 0.872599 0.771741
Si Si4 0.125101 0.424831 0.233715
Si Si5 0.516545 0.389650 0.978246
Si Si6 0.341542 0.867706 0.889009
Si Si7 0.875062 0.746175 0.403343
Si Si8 0.804835 0.587831 0.622872
O O1 0.438506 0.878414 0.535699
O O2 0.468462 0.794398 0.616208
O O3 0.323900 0.873631 0.619258
O O4 0.534185 0.000000 0.616559
O O5 0.738931 0.738931 0.531220
O O6 0.736923 0.561794 0.493734
O O7 0.882923 0.747356 0.467134
O O8 0.860338 0.665751 0.572410
O O9 0.235785 0.791690 0.761746
O O10 0.451026 0.859112 0.735034
O O11 0.382994 0.853406 0.832508
O O12 0.396908 0.000000 0.767101
O O13 0.135055 0.375376 0.177942
O O14 0.000000 0.347208 0.254768
O O15 0.432030 0.432030 0.961208
O O16 0.609820 0.434024 0.934298
O O17 0.211664 0.830131 0.887230
O O18 0.397512 0.000000 0.899504
O O19 0.795893 0.795893 0.389748
O O20 0.000000 0.821862 0.382470
#
# Coordination Sequence:
#
# PCOD9585251 Si02
#       8
#    12  12  12  12  12  12  12  12
#     4  10  20  33  52  80 113 146 180 224 279 340
#     4   9  19  33  52  82 119 157 195 237 289 349
#     4  10  23  43  63  87 121 158 202 261 321 373
#     4  11  24  40  62  90 117 155 207 260 318 376
#     4   8  15  30  51  78 110 141 178 225 277 342
#     4   9  18  34  57  82 111 151 193 239 300 359
#     4  10  20  34  54  83 119 159 199 236 278 339
#     4  11  20  33  53  78 108 145 189 236 291 352
#
# _framework density 22.247568000000001
#
# number of rings (size 3 to 8) (size 9 to 14) (size 15 to 20)
#    0.000    2.250    0.000    3.625    0.000    5.500 
#    0.000    2.500    0.000    2.250    0.000    0.875 
#    0.000    0.000    0.000    0.000    0.000    0.000 
#
# Total GULP energy -534867.665237 kJ/mol
# GULP energy per Si atom -5571.538180 kJ/mol
# Density = 2.219693 g / cm^3
# Si number density = 22.247568 Si / 1000 Ang^3
#
#
#
# Elastic Constant Matrix: (Units=GPa)
#
#
# Indices 1 2 3 4 5 6 
#
# 1 78.4129 35.3247 25.1161 0.0000 0.0000 0.0000
# 2 35.3247 78.4129 25.1161 0.0000 0.0000 0.0000
# 3 25.1161 25.1161 70.7051 0.0000 0.0000 0.0000
# 4 0.0000 0.0000 0.0000 24.3945 0.0000 0.0000
# 5 0.0000 0.0000 0.0000 0.0000 24.3945 0.0000
# 6 0.0000 0.0000 0.0000 0.0000 0.0000 21.5441
#
#
#
# Elastic Compliance Matrix: (Units=1/GPa)
#
#
# Indices 1 2 3 4 5 6 
#
# 1 0.016818 -0.006390 -0.003704 0.000000 0.000000 0.000000
# 2 -0.006390 0.016818 -0.003704 0.000000 0.000000 0.000000
# 3 -0.003704 -0.003704 0.016775 0.000000 0.000000 0.000000
# 4 0.000000 0.000000 0.000000 0.040993 0.000000 0.000000
# 5 0.000000 0.000000 0.000000 0.000000 0.040993 0.000000
# 6 0.000000 0.000000 0.000000 0.000000 0.000000 0.046416
#
#
# Mechanical properties :
#
#
# Convention : Reuss Voigt Hill
#
# Bulk Modulus (GPa) = 43.83269 44.29384 44.06326
# Shear Modulus (GPa) = 23.36280 23.53156 23.44718
#
# Velocity S-wave (km/s) = 3.24408 3.25578 3.24994
# Velocity P-wave (km/s) = 5.81181 5.83834 5.82509
#
# Compressibility (1/GPa) = 0.02281403
#
# Stress axis : x y z
#
# Youngs Moduli (GPa) = 59.45942 59.45942 59.61263
#
# Poissons Ratio (x) = 0.37995 0.22082
# Poissons Ratio (y) = 0.37995 0.22082
# Poissons Ratio (z) = 0.22026 0.22026
#
# Static dielectric constant tensor:
#      x y z
#    x 1.831130 0.000000 0.000000 
#    y 0.000000 1.831130 0.000000 
#    z 0.000000 0.000000 1.878010 
# 
# From -- ./inp_files/2186.got.cif
#   From: 2010.05.17/outbox.cif.g08.bks.cpg/sg185_cif.got.tgz:2186.got - 2010.05.20 12:05:34.
