data_PCOD9585518
_publ_section_title
;
Structure prediction by ZEFSAII (Michael W. Deem and Ramdas Pophale) SiO2 
 PCOD9585518
Probable space group: P -6 M 2
;
_chemical_formula_sum "Si O2"
_cell_formula_units_Z 84
_cell_length_a 18.473520
_cell_length_b 18.473520
_cell_length_c 14.169210
_cell_angle_alpha 90.000000
_cell_angle_beta 90.000000
_cell_angle_gamma 120.000000
_cell_volume 4187.700163
_symmetry_space_group_name_H-M "P -6 M 2"
_symmetry_group_IT_number 187
_symmetry_cell_setting 'hexagonal'
loop_
_space_group_symop_operation_xyz
x,y,z
-x+y,-x,-z
-y,x-y,z
x,y,-z
-x+y,-x,z
-y,x-y,-z
-y,-x,-z
-x+y,y,-z
x,x-y,-z
-x+y,y,z
x,x-y,z
-y,-x,z
loop_
_atom_site_type_symbol
_atom_site_label
_atom_site_fract_x
_atom_site_fract_y
_atom_site_fract_z
Si Si1 0.212661 0.192543 0.500000
Si Si2 0.469778 0.107490 0.896317
Si Si3 0.092002 0.350934 0.739311
Si Si4 0.334060 0.836734 0.387551
Si Si5 0.830592 0.997364 0.287588
Si Si6 0.094265 0.466602 0.892907
Si Si7 0.399007 0.111266 0.500000
Si Si8 0.495674 0.332048 0.309099
O O1 0.220910 0.110455 0.500000
O O2 0.170604 0.186626 0.599753
O O3 0.305318 0.270394 0.500000
O O4 0.568384 0.136767 0.897653
O O5 0.453480 0.135654 0.794804
O O6 0.421620 0.006887 0.893928
O O7 0.450486 0.131649 0.000000
O O8 0.167643 0.335285 0.713148
O O9 0.091706 0.413067 0.660473
O O10 0.117133 0.409864 0.830322
O O11 0.015265 0.257315 0.751929
O O12 0.332745 0.843584 0.500000
O O13 0.420364 0.840727 0.361273
O O14 0.253886 0.746115 0.361460
O O15 0.911582 0.088419 0.272137
O O16 0.846943 0.923472 0.252471
O O17 0.119295 0.559648 0.858296
O O18 0.123980 0.474528 0.000000
O O19 0.396182 0.198091 0.500000
O O20 0.443079 0.114200 0.598792
O O21 0.517720 0.258860 0.322168
O O22 0.578184 0.421817 0.307748
#
# Coordination Sequence:
#
# PCOD9585518 Si02
#       8
#     6  12  12  12  12  12   6  12
#     4   9  19  34  52  74 100 133 177 229 279 332
#     4   8  16  31  49  69  92 124 171 225 274 319
#     4  10  21  33  52  84 116 147 183 234 290 334
#     4   9  17  30  49  74 110 155 198 233 271 327
#     4  10  21  37  58  82 112 150 192 237 291 356
#     4   9  18  35  58  80 107 146 187 225 271 332
#     4   9  19  32  46  70 100 137 174 213 268 324
#     4  10  19  31  48  69  99 137 180 224 270 330
#
# _framework density 20.058743
#
# number of rings (size 3 to 8) (size 9 to 14) (size 15 to 20)
#    0.000    2.714    0.000    2.143    3.000    1.143 
#    0.000    1.429    0.000    2.429    0.000    0.000 
#    0.000    1.143    0.000    0.571    0.000    1.000 
#
# Total GULP energy -467769.829206 kJ/mol
# GULP energy per Si atom -5568.688443 kJ/mol
# Density = 2.001309 g / cm^3
# Si number density = 20.058743 Si / 1000 Ang^3
#
#
#
# Elastic Constant Matrix: (Units=GPa)
#
#
# Indices 1 2 3 4 5 6 
#
# 1 83.0295 44.0645 29.6031 0.0000 0.0039 0.0000
# 2 44.0645 83.0295 29.6031 0.0000 -0.0039 0.0000
# 3 29.6031 29.6031 106.3869 0.0000 0.0000 0.0000
# 4 0.0000 0.0000 0.0000 96.0991 0.0000 -0.0039
# 5 0.0039 -0.0039 0.0000 0.0000 96.0991 0.0000
# 6 0.0000 0.0000 0.0000 -0.0039 0.0000 19.4825
#
#
#
# Elastic Compliance Matrix: (Units=1/GPa)
#
#
# Indices 1 2 3 4 5 6 
#
# 1 0.017352 -0.008312 -0.002515 0.000000 -0.000001 0.000000
# 2 -0.008312 0.017352 -0.002515 0.000000 0.000001 0.000000
# 3 -0.002515 -0.002515 0.010800 0.000000 0.000000 0.000000
# 4 0.000000 0.000000 0.000000 0.010406 0.000000 0.000002
# 5 -0.000001 0.000001 0.000000 0.000000 0.010406 0.000000
# 6 0.000000 0.000000 0.000000 0.000002 0.000000 0.051328
#
#
# Mechanical properties :
#
#
# Convention : Reuss Voigt Hill
#
# Bulk Modulus (GPa) = 53.14140 53.22082 53.18111
# Shear Modulus (GPa) = 33.20010 53.61448 43.40729
#
# Velocity S-wave (km/s) = 4.07276 5.17559 4.65694
# Velocity P-wave (km/s) = 6.97617 7.89340 7.44891
#
# Compressibility (1/GPa) = 0.01881772
#
# Stress axis : x y z
#
# Youngs Moduli (GPa) = 57.63019 57.63019 92.59639
#
# Poissons Ratio (x) = 0.47902 0.23292
# Poissons Ratio (y) = 0.47902 0.23292
# Poissons Ratio (z) = 0.14497 0.14497
#
# Static dielectric constant tensor:
#      x y z
#    x 1.721240 0.000000 0.000000 
#    y 0.000000 1.721240 0.000000 
#    z 0.000000 0.000000 1.749890 
# 
# From -- ./inp_files/2657.got.cif
#   From: 2010.05.17/outbox.cif.g08.bks.cpg/sg187_2_cif.got.tgz:2657.got - 2010.05.20 12:09:04.
