data_PCOD9585140
_publ_section_title
;
Structure prediction by ZEFSAII (Michael W. Deem and Ramdas Pophale) SiO2 
 PCOD9585140
Probable space group: P 6 C C
;
_chemical_formula_sum "Si O2"
_cell_formula_units_Z 74
_cell_length_a 16.443522
_cell_length_b 16.443522
_cell_length_c 17.212187
_cell_angle_alpha 90.000000
_cell_angle_beta 90.000000
_cell_angle_gamma 120.000000
_cell_volume 4030.476329
_symmetry_space_group_name_H-M "P 6 C C"
_symmetry_group_IT_number 184
_symmetry_cell_setting 'hexagonal'
loop_
_space_group_symop_operation_xyz
x,y,z
x-y,x,z
-y,x-y,z
-x,-y,z
-x+y,-x,z
y,-x+y,z
-x+y,y,1/2+z
x,x-y,1/2+z
-y,-x,1/2+z
y,x,1/2+z
x-y,-y,1/2+z
-x,-x+y,1/2+z
loop_
_atom_site_type_symbol
_atom_site_label
_atom_site_fract_x
_atom_site_fract_y
_atom_site_fract_z
Si Si1 0.000000 0.500000 0.629890
Si Si2 0.979220 0.183199 0.306308
Si Si3 0.666668 0.333334 0.268570
Si Si4 0.615635 0.149742 0.004709
Si Si5 0.666668 0.333334 0.080562
Si Si6 0.163712 0.498017 0.360563
Si Si7 0.121690 0.738297 0.396101
Si Si8 0.984533 0.624005 0.759205
O O1 0.911665 0.447024 0.574523
O O2 0.017597 0.430846 0.683624
O O3 0.948424 0.220974 0.382972
O O4 0.077479 0.185315 0.300617
O O5 0.987865 0.264366 0.246884
O O6 0.666668 0.333334 0.174170
O O7 0.672390 0.245708 0.304930
O O8 0.680591 0.252049 0.041693
O O9 0.554817 0.153490 0.932538
O O10 0.674857 0.104531 0.970387
O O11 0.188980 0.420888 0.392862
O O12 0.071510 0.437464 0.309516
O O13 0.102842 0.675340 0.318024
#
# Coordination Sequence:
#
# PCOD9585140 Si02
#       8
#     6  12   4  12   4  12  12  12
#     4  12  26  38  58  94 138 168 212 282 324 380
#     4  10  21  40  68  97 122 155 221 280 337 388
#     4  12  25  35  64  90 127 191 211 270 313 389
#     4  12  23  40  57  91 134 173 219 268 319 384
#     4  12  25  35  55  93 127 167 226 264 328 371
#     4  12  20  41  64  84 127 177 229 252 311 413
#     4  10  20  39  63  89 122 175 219 257 322 400
#     4  10  22  40  60  93 123 173 220 260 329 389
#
# _framework density 18.360112000000001
#
# number of rings (size 3 to 8) (size 9 to 14) (size 15 to 20)
#    0.973    0.000    4.865    3.081    2.270    0.000 
#    2.919    0.000    0.000    0.000    0.000    0.000 
#    0.000    2.595    0.000    0.000    0.000    0.000 
#
# Total GULP energy -412177.508312 kJ/mol
# GULP energy per Si atom -5569.966329 kJ/mol
# Density = 1.831832 g / cm^3
# Si number density = 18.360112 Si / 1000 Ang^3
#
#
#
# Elastic Constant Matrix: (Units=GPa)
#
#
# Indices 1 2 3 4 5 6 
#
# 1 89.5443 24.1844 43.4497 0.0001 -0.0001 0.0000
# 2 24.1844 89.5453 43.4498 0.0001 -0.0001 0.0002
# 3 43.4497 43.4498 103.0225 0.0000 0.0000 0.0000
# 4 0.0001 0.0001 0.0000 23.5974 0.0001 0.0000
# 5 -0.0001 -0.0001 0.0000 0.0001 23.5972 0.0000
# 6 0.0000 0.0002 0.0000 0.0000 0.0000 32.6803
#
#
#
# Elastic Compliance Matrix: (Units=1/GPa)
#
#
# Indices 1 2 3 4 5 6 
#
# 1 0.014137 -0.001163 -0.005472 0.000000 0.000000 0.000000
# 2 -0.001163 0.014137 -0.005472 0.000000 0.000000 0.000000
# 3 -0.005472 -0.005472 0.014322 0.000000 0.000000 0.000000
# 4 0.000000 0.000000 0.000000 0.042378 0.000000 0.000000
# 5 0.000000 0.000000 0.000000 0.000000 0.042378 0.000000
# 6 0.000000 0.000000 0.000000 0.000000 0.000000 0.030600
#
#
# Mechanical properties :
#
#
# Convention : Reuss Voigt Hill
#
# Bulk Modulus (GPa) = 54.39900 56.03111 55.21505
# Shear Modulus (GPa) = 26.55468 27.37684 26.96576
#
# Velocity S-wave (km/s) = 3.80718 3.86567 3.83654
# Velocity P-wave (km/s) = 7.00139 7.10694 7.05436
#
# Compressibility (1/GPa) = 0.01838269
#
# Stress axis : x y z
#
# Youngs Moduli (GPa) = 70.73728 70.73830 69.82293
#
# Poissons Ratio (x) = 0.08227 0.38205
# Poissons Ratio (y) = 0.08227 0.38204
# Poissons Ratio (z) = 0.38705 0.38705
#
# Static dielectric constant tensor:
#      x y z
#    x 1.700680 0.000000 0.000000 
#    y 0.000000 1.700680 0.000000 
#    z 0.000000 0.000000 1.608790 
# 
# From -- ./inp_files/923.got.cif
#   From: 2010.05.17/outbox.cif.g08.bks.cpg/sg184_cif.got.tgz:923.got - 2010.05.20 12:04:40.
