data_PCOD9585501
_publ_section_title
;
Structure prediction by ZEFSAII (Michael W. Deem and Ramdas Pophale) SiO2 
 PCOD9585501
Probable space group: P -6 M 2
;
_chemical_formula_sum "Si O2"
_cell_formula_units_Z 96
_cell_length_a 17.393365
_cell_length_b 17.393365
_cell_length_c 23.433824
_cell_angle_alpha 90.000000
_cell_angle_beta 90.000000
_cell_angle_gamma 120.000000
_cell_volume 6139.613283
_symmetry_space_group_name_H-M "P -6 M 2"
_symmetry_group_IT_number 187
_symmetry_cell_setting 'hexagonal'
loop_
_space_group_symop_operation_xyz
x,y,z
-x+y,-x,-z
-y,x-y,z
x,y,-z
-x+y,-x,z
-y,x-y,-z
-y,-x,-z
-x+y,y,-z
x,x-y,-z
-x+y,y,z
x,x-y,z
-y,-x,z
loop_
_atom_site_type_symbol
_atom_site_label
_atom_site_fract_x
_atom_site_fract_y
_atom_site_fract_z
Si Si1 0.847936 0.334373 0.099133
Si Si2 0.053845 0.285505 0.711256
Si Si3 0.822406 0.999331 0.597205
Si Si4 0.901285 0.279505 0.564431
Si Si5 0.593476 0.013932 0.669534
Si Si6 0.666577 0.161746 0.766602
Si Si7 0.000359 0.815347 0.824626
Si Si8 0.291136 0.052287 0.937563
O O1 0.853622 0.426811 0.083264
O O2 0.748712 0.251289 0.088332
O O3 0.863896 0.335174 0.167384
O O4 0.917736 0.312154 0.070086
O O5 0.154021 0.308042 0.718869
O O6 0.051067 0.369863 0.686525
O O7 0.009987 0.208567 0.663261
O O8 0.004716 0.245215 0.770922
O O9 0.924163 0.075838 0.590879
O O10 0.762923 0.034164 0.566628
O O11 0.808609 0.904305 0.578935
O O12 0.900859 0.310195 0.500000
O O13 0.803096 0.196905 0.577802
O O14 0.935152 0.355190 0.612078
O O15 0.489041 0.978082 0.663827
O O16 0.628716 0.082870 0.722000
O O17 0.601161 0.202322 0.764087
O O18 0.765671 0.234330 0.751136
O O19 0.909876 0.819752 0.821986
O O20 0.000772 0.768085 0.883698
O O21 0.086200 0.913801 0.821256
O O22 0.290292 0.145146 0.936707
O O23 0.258731 0.010834 0.000000
#
# Coordination Sequence:
#
# PCOD9585501 Si02
#       8
#    12  12  12  12  12  12  12  12
#     4   9  16  26  41  61  86 116 150 187 226 269
#     4   9  18  31  46  66  92 116 136 171 226 273
#     4   9  16  26  42  65  93 123 153 183 216 259
#     4   9  18  31  44  60  87 122 155 187 223 257
#     4  10  19  30  47  68  86 110 147 183 215 260
#     4   9  16  25  39  61  87 112 138 172 215 259
#     4  10  19  31  48  68  90 117 149 181 213 255
#     4   9  18  30  41  56  82 116 152 190 229 261
#
# _framework density 15.636164000000001
#
# number of rings (size 3 to 8) (size 9 to 14) (size 15 to 20)
#    0.000    2.750    0.000    2.000    0.000    4.500 
#    0.000    1.250    0.000    2.750    0.000    0.000 
#    0.000    0.000    0.000    0.750    0.000    2.000 
#
# Total GULP energy -534727.609776 kJ/mol
# GULP energy per Si atom -5570.079269 kJ/mol
# Density = 1.560058 g / cm^3
# Si number density = 15.636164 Si / 1000 Ang^3
#
#
#
# Elastic Constant Matrix: (Units=GPa)
#
#
# Indices 1 2 3 4 5 6 
#
# 1 50.4151 15.5869 17.8068 0.0000 -0.0002 0.0000
# 2 15.5869 50.4151 17.8068 0.0000 0.0002 0.0000
# 3 17.8068 17.8068 71.1651 0.0000 0.0000 0.0000
# 4 0.0000 0.0000 0.0000 12.7451 0.0000 0.0002
# 5 -0.0002 0.0002 0.0000 0.0000 12.7451 0.0000
# 6 0.0000 0.0000 0.0000 0.0002 0.0000 17.4141
#
#
#
# Elastic Compliance Matrix: (Units=1/GPa)
#
#
# Indices 1 2 3 4 5 6 
#
# 1 0.023114 -0.005598 -0.004383 0.000000 0.000001 0.000000
# 2 -0.005598 0.023114 -0.004383 0.000000 -0.000001 0.000000
# 3 -0.004383 -0.004383 0.016245 0.000000 0.000000 0.000000
# 4 0.000000 0.000000 0.000000 0.078462 0.000000 -0.000001
# 5 0.000001 -0.000001 0.000000 0.000000 0.078462 0.000000
# 6 0.000000 0.000000 0.000000 -0.000001 0.000000 0.057425
#
#
# Mechanical properties :
#
#
# Convention : Reuss Voigt Hill
#
# Bulk Modulus (GPa) = 29.63329 30.48846 30.06087
# Shear Modulus (GPa) = 15.78293 16.63383 16.20838
#
# Velocity S-wave (km/s) = 3.18053 3.26514 3.22311
# Velocity P-wave (km/s) = 5.69918 5.80998 5.75485
#
# Compressibility (1/GPa) = 0.03374583
#
# Stress axis : x y z
#
# Youngs Moduli (GPa) = 43.26353 43.26353 61.55683
#
# Poissons Ratio (x) = 0.24220 0.26979
# Poissons Ratio (y) = 0.24220 0.26979
# Poissons Ratio (z) = 0.18962 0.18962
#
# Static dielectric constant tensor:
#      x y z
#    x 1.517860 0.000000 0.000000 
#    y 0.000000 1.517860 0.000000 
#    z 0.000000 0.000000 1.550130 
# 
# From -- ./inp_files/4077.got.cif
#   From: 2010.05.17/outbox.cif.g08.bks.cpg/sg187_3_cif.got.tgz:4077.got - 2010.05.20 12:09:04.
