data_PCOD9585898
_publ_section_title
;
Structure prediction by ZEFSAII (Michael W. Deem and Ramdas Pophale) SiO2 
 PCOD9585898
Probable space group: P -6 C 2
;
_chemical_formula_sum "Si O2"
_cell_formula_units_Z 60
_cell_length_a 16.027804
_cell_length_b 16.027804
_cell_length_c 11.605219
_cell_angle_alpha 90.000000
_cell_angle_beta 90.000000
_cell_angle_gamma 120.000000
_cell_volume 2581.856009
_symmetry_space_group_name_H-M "P -6 C 2"
_symmetry_group_IT_number 188
_symmetry_cell_setting 'hexagonal'
loop_
_space_group_symop_operation_xyz
x,y,z
-x+y,-x,1/2-z
-y,x-y,z
x,y,1/2-z
-x+y,-x,z
-y,x-y,1/2-z
-y,-x,-z
-x+y,y,-z
x,x-y,-z
-x+y,y,1/2+z
x,x-y,1/2+z
-y,-x,1/2+z
loop_
_atom_site_type_symbol
_atom_site_label
_atom_site_fract_x
_atom_site_fract_y
_atom_site_fract_z
Si Si1 0.444546 0.611603 0.122380
Si Si2 0.328019 0.247563 0.441179
Si Si3 0.660434 0.911943 0.625263
Si Si4 0.500326 0.442448 0.126203
Si Si5 0.120127 0.955041 0.877723
O O1 0.401939 0.607373 0.250000
O O2 0.547976 0.708843 0.114917
O O3 0.466062 0.522232 0.123580
O O4 0.395726 0.604275 0.000000
O O5 0.365488 0.182744 0.500000
O O6 0.298106 0.301343 0.535154
O O7 0.409289 0.335129 0.370753
O O8 0.224479 0.174371 0.383933
O O9 0.674806 0.958963 0.750000
O O10 0.726299 0.863103 0.622853
O O11 0.553596 0.459150 0.250000
O O12 0.548036 0.451965 0.000000
O O13 0.076553 0.950465 0.750000
O O14 0.062780 0.937221 0.000000
#
# Coordination Sequence:
#
# PCOD9585898 Si02
#       5
#    12  12  12  12  12
#     4   9  15  27  49  76 107 139 174 225 287 345
#     4  11  21  33  53  84 117 155 204 254 307 363
#     4   9  17  32  52  76 108 147 187 239 294 350
#     4  10  19  33  53  80 115 148 188 241 299 360
#     4   9  19  35  54  80 116 151 196 252 306 357
#
# _framework density 23.239097000000001
#
# number of rings (size 3 to 8) (size 9 to 14) (size 15 to 20)
#    0.000    2.400    4.000    0.600    0.000    1.600 
#    0.000    0.000    0.000   11.200    0.000    0.000 
#    8.000    0.000    7.200    0.000    0.000    0.000 
#
# Total GULP energy -334391.354995 kJ/mol
# GULP energy per Si atom -5573.189250 kJ/mol
# Density = 2.318620 g / cm^3
# Si number density = 23.239097 Si / 1000 Ang^3
#
#
#
# Elastic Constant Matrix: (Units=GPa)
#
#
# Indices 1 2 3 4 5 6 
#
# 1 62.6588 25.9349 18.2681 -0.0011 0.0000 0.0000
# 2 25.9349 62.6588 18.2681 0.0011 0.0000 0.0000
# 3 18.2681 18.2681 269.1427 0.0000 0.0000 0.0000
# 4 -0.0011 0.0011 0.0000 -65.9328 0.0000 0.0000
# 5 0.0000 0.0000 0.0000 0.0000 -65.9328 -0.0011
# 6 0.0000 0.0000 0.0000 0.0000 -0.0011 18.3620
#
#
#
# Elastic Compliance Matrix: (Units=1/GPa)
#
#
# Indices 1 2 3 4 5 6 
#
# 1 0.019421 -0.007809 -0.000788 0.000000 0.000000 0.000000
# 2 -0.007809 0.019421 -0.000788 0.000000 0.000000 0.000000
# 3 -0.000788 -0.000788 0.003822 0.000000 0.000000 0.000000
# 4 0.000000 0.000000 0.000000 -0.015167 0.000000 0.000000
# 5 0.000000 0.000000 0.000000 0.000000 -0.015167 -0.000001
# 6 0.000000 0.000000 0.000000 0.000000 -0.000001 0.054460
#
#
# Mechanical properties :
#
#
# Convention : Reuss Voigt Hill
#
# Bulk Modulus (GPa) = 41.85015 57.71138 49.78077
# Shear Modulus (GPa) = 53.46044 -0.56811 26.44617
#
# Velocity S-wave (km/s) = 4.80151 -0.49497 3.37709
# Velocity P-wave (km/s) = 6.98476 4.95591 6.05590
#
# Compressibility (1/GPa) = 0.02389478
#
# Stress axis : x y z
#
# Youngs Moduli (GPa) = 51.48968 51.48968 261.60896
#
# Poissons Ratio (x) = 0.40207 0.20620
# Poissons Ratio (y) = 0.40207 0.20620
# Poissons Ratio (z) = 0.04058 0.04058
#
# Static dielectric constant tensor:
#      x y z
#    x 1.865130 0.000000 0.000000 
#    y 0.000000 1.865130 0.000000 
#    z 0.000000 0.000000 2.050510 
# 
# From -- ./inp_files/1678.got.cif
#   From: 2010.05.17/outbox.cif.g08.bks.cpg/sg188_1_cif.got.tgz:1678.got - 2010.05.20 12:11:46.
