data_PCOD9585789
_publ_section_title
;
Structure prediction by ZEFSAII (Michael W. Deem and Ramdas Pophale) SiO2 
 PCOD9585789
Probable space group: P -6 M 2
;
_chemical_formula_sum "Si O2"
_cell_formula_units_Z 84
_cell_length_a 18.455747
_cell_length_b 18.455747
_cell_length_c 14.276295
_cell_angle_alpha 90.000000
_cell_angle_beta 90.000000
_cell_angle_gamma 120.000000
_cell_volume 4211.234265
_symmetry_space_group_name_H-M "P -6 M 2"
_symmetry_group_IT_number 187
_symmetry_cell_setting 'hexagonal'
loop_
_space_group_symop_operation_xyz
x,y,z
-x+y,-x,-z
-y,x-y,z
x,y,-z
-x+y,-x,z
-y,x-y,-z
-y,-x,-z
-x+y,y,-z
x,x-y,-z
-x+y,y,z
x,x-y,z
-y,-x,z
loop_
_atom_site_type_symbol
_atom_site_label
_atom_site_fract_x
_atom_site_fract_y
_atom_site_fract_z
Si Si1 0.667527 0.662227 0.317162
Si Si2 0.309147 0.980370 0.104658
Si Si3 0.156528 0.000129 0.867796
Si Si4 0.501011 0.167687 0.387351
Si Si5 0.505694 0.666604 0.612124
Si Si6 0.832556 0.999969 0.356973
Si Si7 0.175398 0.509005 0.888054
O O1 0.683190 0.657603 0.205114
O O2 0.659748 0.579161 0.360712
O O3 0.583057 0.666094 0.335821
O O4 0.745675 0.744586 0.364611
O O5 0.217067 0.967333 0.100224
O O6 0.308085 0.894315 0.121399
O O7 0.348094 0.012746 0.000000
O O8 0.062683 0.937318 0.897345
O O9 0.187837 0.093919 0.898122
O O10 0.156987 0.999701 0.755301
O O11 0.505519 0.172442 0.500000
O O12 0.586170 0.172339 0.353152
O O13 0.493562 0.246781 0.353382
O O14 0.519872 0.665639 0.500000
O O15 0.503222 0.751611 0.631753
O O16 0.416827 0.583173 0.632495
O O17 0.914865 0.085136 0.391170
O O18 0.828418 0.914209 0.391228
O O19 0.263512 0.527023 0.848115
O O20 0.149471 0.574736 0.852100
O O21 0.185974 0.520776 0.000000
#
# Coordination Sequence:
#
# PCOD9585789 Si02
#       7
#    12  12  12  12  12  12  12
#     4  11  21  35  57  85 115 148 192 239 279 329
#     4  10  22  37  51  71 107 152 191 230 277 324
#     4   9  17  30  49  72  98 132 178 231 282 329
#     4  10  21  39  65  96 125 148 172 213 277 347
#     4  10  21  38  60  86 116 149 185 229 286 351
#     4   9  17  30  49  74 106 145 188 233 281 331
#     4   9  17  30  48  68  91 125 174 230 282 328
#
# _framework density 19.946646999999999
#
# number of rings (size 3 to 8) (size 9 to 14) (size 15 to 20)
#    0.000    2.286    0.000    2.857    0.000    8.571 
#    0.000    0.000    0.000    2.571    0.000    0.000 
#    0.000    8.000    0.000    0.000    0.000    0.000 
#
# Total GULP energy -468281.511608 kJ/mol
# GULP energy per Si atom -5574.779900 kJ/mol
# Density = 1.990125 g / cm^3
# Si number density = 19.946647 Si / 1000 Ang^3
#
#
#
# Elastic Constant Matrix: (Units=GPa)
#
#
# Indices 1 2 3 4 5 6 
#
# 1 131.0745 86.1042 10.9166 0.0000 -0.0008 0.0000
# 2 86.1042 131.0745 10.9166 0.0000 0.0008 0.0000
# 3 10.9166 10.9166 93.0556 0.0000 0.0000 0.0000
# 4 0.0000 0.0000 0.0000 27.6559 0.0000 0.0008
# 5 -0.0008 0.0008 0.0000 0.0000 27.6559 0.0000
# 6 0.0000 0.0000 0.0000 0.0008 0.0000 22.4852
#
#
#
# Elastic Compliance Matrix: (Units=1/GPa)
#
#
# Indices 1 2 3 4 5 6 
#
# 1 0.013448 -0.008789 -0.000547 0.000000 0.000001 0.000000
# 2 -0.008789 0.013448 -0.000547 0.000000 -0.000001 0.000000
# 3 -0.000547 -0.000547 0.010875 0.000000 0.000000 0.000000
# 4 0.000000 0.000000 0.000000 0.036159 0.000000 -0.000001
# 5 0.000001 -0.000001 0.000000 0.000000 0.036159 0.000000
# 6 0.000000 0.000000 0.000000 -0.000001 0.000000 0.044474
#
#
# Mechanical properties :
#
#
# Convention : Reuss Voigt Hill
#
# Bulk Modulus (GPa) = 55.53405 63.45326 59.49365
# Shear Modulus (GPa) = 27.72723 32.04387 29.88555
#
# Velocity S-wave (km/s) = 3.73241 4.01244 3.87495
# Velocity P-wave (km/s) = 6.81735 7.30389 7.06481
#
# Compressibility (1/GPa) = 0.01800697
#
# Stress axis : x y z
#
# Youngs Moduli (GPa) = 74.35959 74.35959 91.95815
#
# Poissons Ratio (x) = 0.65352 0.05027
# Poissons Ratio (y) = 0.65352 0.05027
# Poissons Ratio (z) = 0.04065 0.04065
#
# Static dielectric constant tensor:
#      x y z
#    x 1.681530 0.000000 0.000000 
#    y 0.000000 1.681530 0.000000 
#    z 0.000000 0.000000 1.791970 
# 
# From -- ./inp_files/2629.got.cif
#   From: 2010.05.17/outbox.cif.g08.bks.cpg/sg187_2_cif.got.tgz:2629.got - 2010.05.20 12:09:04.
