data_PCOD9585195
_publ_section_title
;
Structure prediction by ZEFSAII (Michael W. Deem and Ramdas Pophale) SiO2 
 PCOD9585195
Probable space group: P 6 C C
;
_chemical_formula_sum "Si O2"
_cell_formula_units_Z 62
_cell_length_a 14.831513
_cell_length_b 14.831513
_cell_length_c 18.326453
_cell_angle_alpha 90.000000
_cell_angle_beta 90.000000
_cell_angle_gamma 120.000000
_cell_volume 3491.242073
_symmetry_space_group_name_H-M "P 6 C C"
_symmetry_group_IT_number 184
_symmetry_cell_setting 'hexagonal'
loop_
_space_group_symop_operation_xyz
x,y,z
x-y,x,z
-y,x-y,z
-x,-y,z
-x+y,-x,z
y,-x+y,z
-x+y,y,1/2+z
x,x-y,1/2+z
-y,-x,1/2+z
y,x,1/2+z
x-y,-y,1/2+z
-x,-x+y,1/2+z
loop_
_atom_site_type_symbol
_atom_site_label
_atom_site_fract_x
_atom_site_fract_y
_atom_site_fract_z
Si Si1 0.822814 0.528739 0.028210
Si Si2 0.129464 0.237862 0.866519
Si Si3 0.666668 0.333334 0.791299
Si Si4 0.237862 0.129465 0.043526
Si Si5 0.471260 0.294075 0.381836
Si Si6 0.333333 0.666666 0.618749
Si Si7 0.500000 0.500000 0.955023
O O1 0.846541 0.640533 0.057763
O O2 0.760187 0.439102 0.085923
O O3 0.753101 0.506202 0.955023
O O4 0.926504 0.528123 0.003100
O O5 0.185221 0.174430 0.840374
O O6 0.206007 0.359468 0.852283
O O7 0.115879 0.231759 0.955023
O O8 0.760190 0.321089 0.824124
O O9 0.666668 0.333334 0.705024
O O10 0.174430 0.185221 0.069672
O O11 0.471873 0.398380 0.406946
#
# Coordination Sequence:
#
# PCOD9585195 Si02
#       7
#    12  12   4  12  12   4   6
#     4  11  20  37  60  89 114 154 199 247 297 355
#     4   9  17  29  51  83 117 146 181 232 293 352
#     4  12  25  41  58  84 124 161 193 240 304 368
#     4   9  17  29  51  83 117 146 181 232 293 352
#     4  11  20  37  60  89 114 154 199 247 297 355
#     4  12  25  41  58  84 124 161 193 240 304 368
#     4  12  20  32  66  88 114 148 206 256 302 340
#
# _framework density 17.758724000000001
#
# number of rings (size 3 to 8) (size 9 to 14) (size 15 to 20)
#    0.000    1.548    3.871    5.032    0.000    1.548 
#    0.000    0.968    0.000    0.000    0.000    0.000 
#    0.000    3.097    0.000    0.000    0.000    0.000 
#
# Total GULP energy -346017.184552 kJ/mol
# GULP energy per Si atom -5580.922331 kJ/mol
# Density = 1.771830 g / cm^3
# Si number density = 17.758724 Si / 1000 Ang^3
#
#
#
# Elastic Constant Matrix: (Units=GPa)
#
#
# Indices 1 2 3 4 5 6 
#
# 1 152.1196 74.9583 53.9631 0.0001 0.0001 0.0000
# 2 74.9583 152.1187 53.9630 0.0000 0.0000 -0.0001
# 3 53.9631 53.9630 66.0344 0.0001 -0.0001 0.0000
# 4 0.0001 0.0000 0.0001 -0.4595 0.0000 0.0000
# 5 0.0001 0.0000 -0.0001 0.0000 -0.4592 0.0000
# 6 0.0000 -0.0001 0.0000 0.0000 0.0000 38.5803
#
#
#
# Elastic Compliance Matrix: (Units=1/GPa)
#
#
# Indices 1 2 3 4 5 6 
#
# 1 0.010080 -0.002880 -0.005884 -0.000001 0.000002 0.000000
# 2 -0.002880 0.010080 -0.005884 -0.000001 0.000002 0.000000
# 3 -0.005884 -0.005884 0.024761 0.000005 -0.000007 0.000000
# 4 -0.000001 -0.000001 0.000005 -2.176384 0.000201 0.000000
# 5 0.000002 0.000002 -0.000007 0.000201 -2.177509 0.000000
# 6 0.000000 0.000000 0.000000 0.000000 0.000000 0.025920
#
#
# Mechanical properties :
#
#
# Convention : Reuss Voigt Hill
#
# Bulk Modulus (GPa) = 64.00054 81.78237 72.89145
# Shear Modulus (GPa) = -1.17687 20.02486 9.42400
#
# Velocity S-wave (km/s) = -0.81495 3.36163 2.30612
# Velocity P-wave (km/s) = 5.93563 7.82428 6.94446
#
# Compressibility (1/GPa) = 0.01562487
#
# Stress axis : x y z
#
# Youngs Moduli (GPa) = 99.20486 99.20421 40.38663
#
# Poissons Ratio (x) = 0.28568 0.23764
# Poissons Ratio (y) = 0.28569 0.23764
# Poissons Ratio (z) = 0.58374 0.58374
#
# Static dielectric constant tensor:
#      x y z
#    x 1.617160 0.000000 0.000000 
#    y 0.000000 1.617160 0.000000 
#    z 0.000000 0.000000 1.573900 
# 
# From -- ./inp_files/1077.got.cif
#   From: 2010.05.17/outbox.cif.g08.bks.cpg/sg184_cif.got.tgz:1077.got - 2010.05.20 12:04:40.
