data_PCOD9585383
_publ_section_title
;
Structure prediction by ZEFSAII (Michael W. Deem and Ramdas Pophale) SiO2 
 PCOD9585383
Probable space group: P 63 M C
;
_chemical_formula_sum "Si O2"
_cell_formula_units_Z 72
_cell_length_a 22.370631
_cell_length_b 22.370631
_cell_length_c 9.485101
_cell_angle_alpha 90.000000
_cell_angle_beta 90.000000
_cell_angle_gamma 120.000000
_cell_volume 4110.825671
_symmetry_space_group_name_H-M "P 63 M C"
_symmetry_group_IT_number 186
_symmetry_cell_setting 'hexagonal'
loop_
_space_group_symop_operation_xyz
x,y,z
x-y,x,1/2+z
-y,x-y,z
-x,-y,1/2+z
-x+y,-x,z
y,-x+y,1/2+z
-x+y,y,z
x,x-y,z
-y,-x,z
y,x,1/2+z
x-y,-y,1/2+z
-x,-x+y,1/2+z
loop_
_atom_site_type_symbol
_atom_site_label
_atom_site_fract_x
_atom_site_fract_y
_atom_site_fract_z
Si Si1 0.276072 0.207226 0.295570
Si Si2 0.351975 0.942071 0.841585
Si Si3 0.193053 0.666406 0.366883
Si Si4 0.711096 0.564066 0.591592
Si Si5 0.597503 0.057192 0.034643
Si Si6 0.205540 0.931042 0.126256
O O1 0.278337 0.139169 0.248661
O O2 0.350520 0.276552 0.291976
O O3 0.256849 0.197870 0.460712
O O4 0.226926 0.226188 0.208320
O O5 0.393937 0.950217 0.700215
O O6 0.336094 0.881452 0.953271
O O7 0.393551 0.010110 0.937905
O O8 0.209623 0.604812 0.353671
O O9 0.261383 0.738617 0.393903
O O10 0.159681 0.673826 0.221782
O O11 0.136052 0.645527 0.487719
O O12 0.781602 0.563204 0.560308
O O13 0.736597 0.643819 0.633859
O O14 0.518870 0.037740 0.003444
O O15 0.134234 0.865767 0.177606
#
# Coordination Sequence:
#
# PCOD9585383 Si02
#       6
#    12  12  12  12  12  12
#     4  10  20  33  52  79 106 136 174 212 258 313
#     4  11  20  35  54  77 110 140 170 216 267 316
#     4  10  21  37  55  75 100 134 176 219 262 310
#     4   9  19  35  55  78 105 138 174 212 260 317
#     4  11  23  35  52  77 104 138 177 216 264 320
#     4   9  18  33  51  74 105 136 167 209 255 304
#
# _framework density 17.514728999999999
#
# number of rings (size 3 to 8) (size 9 to 14) (size 15 to 20)
#    0.000    2.000    0.000    6.167    0.000    4.667 
#    0.000    1.667    0.000    0.333    0.000    5.833 
#    0.000    0.000    0.000    0.000    0.000    0.000 
#
# Total GULP energy -401673.658086 kJ/mol
# GULP energy per Si atom -5578.800807 kJ/mol
# Density = 1.747486 g / cm^3
# Si number density = 17.514729 Si / 1000 Ang^3
#
#
#
# Elastic Constant Matrix: (Units=GPa)
#
#
# Indices 1 2 3 4 5 6 
#
# 1 60.0530 22.3278 25.1535 0.0000 0.0000 0.0000
# 2 22.3278 60.0530 25.1535 0.0000 0.0000 0.0000
# 3 25.1535 25.1535 64.7456 0.0000 0.0000 0.0000
# 4 0.0000 0.0000 0.0000 30.1009 0.0000 0.0000
# 5 0.0000 0.0000 0.0000 0.0000 30.1009 0.0000
# 6 0.0000 0.0000 0.0000 0.0000 0.0000 18.8626
#
#
#
# Elastic Compliance Matrix: (Units=1/GPa)
#
#
# Indices 1 2 3 4 5 6 
#
# 1 0.021211 -0.005297 -0.006183 0.000000 0.000000 0.000000
# 2 -0.005297 0.021211 -0.006183 0.000000 0.000000 0.000000
# 3 -0.006183 -0.006183 0.020249 0.000000 0.000000 0.000000
# 4 0.000000 0.000000 0.000000 0.033222 0.000000 0.000000
# 5 0.000000 0.000000 0.000000 0.000000 0.033222 0.000000
# 6 0.000000 0.000000 0.000000 0.000000 0.000000 0.053015
#
#
# Mechanical properties :
#
#
# Convention : Reuss Voigt Hill
#
# Bulk Modulus (GPa) = 36.56723 36.68014 36.62369
# Shear Modulus (GPa) = 22.06840 23.29401 22.68120
#
# Velocity S-wave (km/s) = 3.55349 3.65083 3.60249
# Velocity P-wave (km/s) = 6.14489 6.22570 6.18543
#
# Compressibility (1/GPa) = 0.02734689
#
# Stress axis : x y z
#
# Youngs Moduli (GPa) = 47.14558 47.14558 49.38523
#
# Poissons Ratio (x) = 0.24971 0.30533
# Poissons Ratio (y) = 0.24971 0.30533
# Poissons Ratio (z) = 0.29149 0.29149
#
# Static dielectric constant tensor:
#      x y z
#    x 1.600630 0.000000 0.000000 
#    y 0.000000 1.600630 0.000000 
#    z 0.000000 0.000000 1.591080 
# 
# From -- ./inp_files/1187.got.cif
#   From: 2010.05.17/outbox.cif.g08.bks.cpg/sg186_1_cif.got.tgz:1187.got - 2010.05.20 12:07:08.
