data_PCOD9585152
_publ_section_title
;
Structure prediction by ZEFSAII (Michael W. Deem and Ramdas Pophale) SiO2 
 PCOD9585152
Probable space group: P 6 C C
;
_chemical_formula_sum "Si O2"
_cell_formula_units_Z 72
_cell_length_a 14.172658
_cell_length_b 14.172658
_cell_length_c 18.997517
_cell_angle_alpha 90.000000
_cell_angle_beta 90.000000
_cell_angle_gamma 120.000000
_cell_volume 3304.685144
_symmetry_space_group_name_H-M "P 6 C C"
_symmetry_group_IT_number 184
_symmetry_cell_setting 'hexagonal'
loop_
_space_group_symop_operation_xyz
x,y,z
x-y,x,z
-y,x-y,z
-x,-y,z
-x+y,-x,z
y,-x+y,z
-x+y,y,1/2+z
x,x-y,1/2+z
-y,-x,1/2+z
y,x,1/2+z
x-y,-y,1/2+z
-x,-x+y,1/2+z
loop_
_atom_site_type_symbol
_atom_site_label
_atom_site_fract_x
_atom_site_fract_y
_atom_site_fract_z
Si Si1 0.815226 0.047340 0.953270
Si Si2 0.622289 0.089292 0.739120
Si Si3 0.228121 0.203476 0.784624
Si Si4 0.456224 0.584504 0.379000
Si Si5 0.538221 0.756238 0.959210
Si Si6 0.226157 0.693671 0.106012
O O1 0.812810 0.032843 0.869010
O O2 0.738989 0.097976 0.967149
O O3 0.931497 0.141986 0.980921
O O4 0.690774 0.035596 0.769129
O O5 0.599244 0.153107 0.801913
O O6 0.692716 0.163240 0.674768
O O7 0.500000 0.000000 0.716000
O O8 0.128526 0.218963 0.758309
O O9 0.500000 0.500000 0.387464
O O10 0.546417 0.708866 0.396053
O O11 0.360870 0.558322 0.434930
O O12 0.525514 0.807053 0.031326
O O13 0.221772 0.577458 0.108180
#
# Coordination Sequence:
#
# PCOD9585152 Si02
#       6
#    12  12  12  12  12  12
#     4  10  21  38  64  96 129 169 218 280 345 403
#     4  11  26  40  66 102 139 180 231 285 355 420
#     4  10  22  41  68  99 137 176 231 287 348 416
#     4  11  24  38  64  98 129 166 227 277 339 401
#     4  12  21  42  64  94 130 178 218 280 334 415
#     4  10  24  43  60  90 135 179 224 266 345 422
#
# _framework density 21.787248999999999
#
# number of rings (size 3 to 8) (size 9 to 14) (size 15 to 20)
#    0.333    1.000    3.333    1.667   11.667    2.000 
#    3.000    0.000    0.000    0.000    0.000    2.333 
#    0.000    0.000    0.000    0.000    0.000    0.000 
#
# Total GULP energy -401635.201610 kJ/mol
# GULP energy per Si atom -5578.266689 kJ/mol
# Density = 2.173766 g / cm^3
# Si number density = 21.787249 Si / 1000 Ang^3
#
#
#
# Elastic Constant Matrix: (Units=GPa)
#
#
# Indices 1 2 3 4 5 6 
#
# 1 69.3722 6.2363 13.3671 0.0000 0.0000 0.0000
# 2 6.2363 69.3722 13.3671 0.0000 0.0000 0.0000
# 3 13.3671 13.3671 84.3628 0.0000 0.0000 0.0000
# 4 0.0000 0.0000 0.0000 14.0705 0.0000 0.0000
# 5 0.0000 0.0000 0.0000 0.0000 14.0705 0.0000
# 6 0.0000 0.0000 0.0000 0.0000 0.0000 31.5680
#
#
#
# Elastic Compliance Matrix: (Units=1/GPa)
#
#
# Indices 1 2 3 4 5 6 
#
# 1 0.014925 -0.000914 -0.002220 0.000000 0.000000 0.000000
# 2 -0.000914 0.014925 -0.002220 0.000000 0.000000 0.000000
# 3 -0.002220 -0.002220 0.012557 0.000000 0.000000 0.000000
# 4 0.000000 0.000000 0.000000 0.071070 0.000000 0.000000
# 5 0.000000 0.000000 0.000000 0.000000 0.071070 0.000000
# 6 0.000000 0.000000 0.000000 0.000000 0.000000 0.031678
#
#
# Mechanical properties :
#
#
# Convention : Reuss Voigt Hill
#
# Bulk Modulus (GPa) = 31.54670 32.11645 31.83157
# Shear Modulus (GPa) = 21.05265 24.61759 22.83512
#
# Velocity S-wave (km/s) = 3.11188 3.36506 3.24094
# Velocity P-wave (km/s) = 5.23666 5.46544 5.35228
#
# Compressibility (1/GPa) = 0.03169904
#
# Stress axis : x y z
#
# Youngs Moduli (GPa) = 67.00202 67.00202 79.63634
#
# Poissons Ratio (x) = 0.06123 0.17679
# Poissons Ratio (y) = 0.06123 0.17679
# Poissons Ratio (z) = 0.14875 0.14875
#
# Static dielectric constant tensor:
#      x y z
#    x 1.836550 0.000000 0.000000 
#    y 0.000000 1.836550 0.000000 
#    z 0.000000 0.000000 1.823910 
# 
# From -- ./inp_files/1085.got.cif
#   From: 2010.05.17/outbox.cif.g08.bks.cpg/sg184_cif.got.tgz:1085.got - 2010.05.20 12:04:40.
