data_PCOD9585337
_publ_section_title
;
Structure prediction by ZEFSAII (Michael W. Deem and Ramdas Pophale) SiO2 
 PCOD9585337
Probable space group: P 63 M C
;
_chemical_formula_sum "Si O2"
_cell_formula_units_Z 84
_cell_length_a 17.534683
_cell_length_b 17.534683
_cell_length_c 17.103137
_cell_angle_alpha 90.000000
_cell_angle_beta 90.000000
_cell_angle_gamma 120.000000
_cell_volume 4554.096658
_symmetry_space_group_name_H-M "P 63 M C"
_symmetry_group_IT_number 186
_symmetry_cell_setting 'hexagonal'
loop_
_space_group_symop_operation_xyz
x,y,z
x-y,x,1/2+z
-y,x-y,z
-x,-y,1/2+z
-x+y,-x,z
y,-x+y,1/2+z
-x+y,y,z
x,x-y,z
-y,-x,z
y,x,1/2+z
x-y,-y,1/2+z
-x,-x+y,1/2+z
loop_
_atom_site_type_symbol
_atom_site_label
_atom_site_fract_x
_atom_site_fract_y
_atom_site_fract_z
Si Si1 0.902677 0.639859 0.074420
Si Si2 0.099317 0.464635 0.208534
Si Si3 0.821205 0.821702 0.164302
Si Si4 0.641232 0.112366 0.221335
Si Si5 0.441420 0.064954 0.533794
Si Si6 0.072968 0.312005 0.310979
Si Si7 0.380761 0.274933 0.380139
O O1 0.815765 0.631529 0.034670
O O2 0.963485 0.741113 0.102918
O O3 0.869506 0.577794 0.151394
O O4 0.968182 0.613641 0.033380
O O5 0.136995 0.568498 0.221909
O O6 0.110612 0.446991 0.117667
O O7 0.118939 0.407995 0.269584
O O8 0.993661 0.418496 0.217497
O O9 0.919196 0.838391 0.180136
O O10 0.759368 0.786256 0.241064
O O11 0.823248 0.911624 0.139860
O O12 0.574830 0.149660 0.211188
O O13 0.686874 0.132001 0.305410
O O14 0.528388 0.056775 0.529546
O O15 0.432288 0.114296 0.459526
O O16 0.148687 0.297374 0.346927
O O17 0.994727 0.299635 0.366638
O O18 0.341837 0.170919 0.382072
#
# Coordination Sequence:
#
# PCOD9585337 Si02
#       7
#    12  12  12  12  12  12  12
#     4  10  18  32  55  77 102 133 171 219 263 310
#     4   8  15  30  51  76 100 124 165 219 265 309
#     4  10  18  29  47  74 106 138 174 216 262 303
#     4   9  16  30  52  76 100 128 161 205 260 315
#     4  10  20  34  52  76 103 136 172 213 266 321
#     4  10  19  32  53  77 104 140 182 224 265 314
#     4  11  21  33  51  76 107 141 177 220 264 314
#
# _framework density 18.444929999999999
#
# number of rings (size 3 to 8) (size 9 to 14) (size 15 to 20)
#    0.000    2.286    4.286    2.714    0.000    2.286 
#    0.000    0.000    0.000    8.571    0.000    2.000 
#    0.000    0.000    0.000    0.000    0.000    0.000 
#
# Total GULP energy -467857.257786 kJ/mol
# GULP energy per Si atom -5569.729259 kJ/mol
# Density = 1.840295 g / cm^3
# Si number density = 18.444930 Si / 1000 Ang^3
#
#
#
# Elastic Constant Matrix: (Units=GPa)
#
#
# Indices 1 2 3 4 5 6 
#
# 1 59.9845 44.3402 16.3272 0.0000 0.0000 0.0000
# 2 44.3402 59.9845 16.3272 0.0000 0.0000 0.0000
# 3 16.3272 16.3272 65.6939 0.0000 0.0000 0.0000
# 4 0.0000 0.0000 0.0000 8.8469 0.0000 0.0000
# 5 0.0000 0.0000 0.0000 0.0000 8.8469 0.0000
# 6 0.0000 0.0000 0.0000 0.0000 0.0000 7.8221
#
#
#
# Elastic Compliance Matrix: (Units=1/GPa)
#
#
# Indices 1 2 3 4 5 6 
#
# 1 0.037158 -0.026764 -0.002583 0.000000 0.000000 0.000000
# 2 -0.026764 0.037158 -0.002583 0.000000 0.000000 0.000000
# 3 -0.002583 -0.002583 0.016506 0.000000 0.000000 0.000000
# 4 0.000000 0.000000 0.000000 0.113034 0.000000 0.000000
# 5 0.000000 0.000000 0.000000 0.000000 0.113034 0.000000
# 6 0.000000 0.000000 0.000000 0.000000 0.000000 0.127842
#
#
# Mechanical properties :
#
#
# Convention : Reuss Voigt Hill
#
# Bulk Modulus (GPa) = 37.09037 37.73909 37.41473
# Shear Modulus (GPa) = 9.66035 12.34773 11.00404
#
# Velocity S-wave (km/s) = 2.29102 2.59016 2.44517
# Velocity P-wave (km/s) = 5.21064 5.42679 5.31981
#
# Compressibility (1/GPa) = 0.02696118
#
# Stress axis : x y z
#
# Youngs Moduli (GPa) = 26.91239 26.91239 60.58337
#
# Poissons Ratio (x) = 0.72027 0.15650
# Poissons Ratio (y) = 0.72027 0.15650
# Poissons Ratio (z) = 0.06952 0.06952
#
# Static dielectric constant tensor:
#      x y z
#    x 1.651370 0.000000 0.000000 
#    y 0.000000 1.651370 0.000000 
#    z 0.000000 0.000000 1.652410 
# 
# From -- ./inp_files/2577.got.cif
#   From: 2010.05.17/outbox.cif.g08.bks.cpg/sg186_2_cif.got.tgz:2577.got - 2010.05.20 12:07:08.
