data_PCOD9585513
_publ_section_title
;
Structure prediction by ZEFSAII (Michael W. Deem and Ramdas Pophale) SiO2 
 PCOD9585513
Probable space group: P -6 M 2
;
_chemical_formula_sum "Si O2"
_cell_formula_units_Z 96
_cell_length_a 22.424431
_cell_length_b 22.424431
_cell_length_c 13.867021
_cell_angle_alpha 90.000000
_cell_angle_beta 90.000000
_cell_angle_gamma 120.000000
_cell_volume 6038.883744
_symmetry_space_group_name_H-M "P -6 M 2"
_symmetry_group_IT_number 187
_symmetry_cell_setting 'hexagonal'
loop_
_space_group_symop_operation_xyz
x,y,z
-x+y,-x,-z
-y,x-y,z
x,y,-z
-x+y,-x,z
-y,x-y,-z
-y,-x,-z
-x+y,y,-z
x,x-y,-z
-x+y,y,z
x,x-y,z
-y,-x,z
loop_
_atom_site_type_symbol
_atom_site_label
_atom_site_fract_x
_atom_site_fract_y
_atom_site_fract_z
Si Si1 0.057134 0.456477 0.894196
Si Si2 0.858829 0.282479 0.111514
Si Si3 0.936215 0.397280 0.254375
Si Si4 0.474475 0.806765 0.210138
Si Si5 0.678352 0.662785 0.612890
Si Si6 0.282463 0.854191 0.610843
Si Si7 0.000771 0.860238 0.885248
Si Si8 0.281292 0.069922 0.780003
O O1 0.057191 0.528596 0.898161
O O2 0.133473 0.476409 0.863546
O O3 0.002549 0.414602 0.812088
O O4 0.038421 0.424242 0.000000
O O5 0.781412 0.218589 0.118887
O O6 0.874031 0.342431 0.187698
O O7 0.907941 0.252264 0.144932
O O8 0.871492 0.305513 0.000000
O O9 0.933846 0.466923 0.270705
O O10 0.946918 0.363252 0.349696
O O11 0.400186 0.800371 0.208419
O O12 0.469354 0.734677 0.188403
O O13 0.509969 0.832542 0.314365
O O14 0.695952 0.666746 0.500000
O O15 0.629746 0.696593 0.625290
O O16 0.743008 0.701057 0.684258
O O17 0.299286 0.847343 0.500000
O O18 0.201422 0.798579 0.624980
O O19 0.072690 0.927311 0.858939
O O20 0.936867 0.873733 0.869316
O O21 0.983211 0.791496 0.827418
O O22 0.001895 0.848020 0.000000
O O23 0.279618 0.139809 0.759330
#
# Coordination Sequence:
#
# PCOD9585513 Si02
#       8
#    12  12  12  12  12  12  12  12
#     4   9  17  29  45  66  91 119 152 189 231 280
#     4   9  17  30  49  72  98 129 164 197 231 278
#     4  10  19  32  50  74  99 125 156 195 242 290
#     4  10  19  31  46  65  89 119 156 198 243 289
#     4  10  20  33  50  72  95 123 160 204 249 292
#     4   9  18  32  48  65  87 118 157 202 250 294
#     4   9  16  27  46  73 104 136 170 207 246 288
#     4   9  18  31  47  70 100 133 164 198 240 286
#
# _framework density 15.896978000000001
#
# number of rings (size 3 to 8) (size 9 to 14) (size 15 to 20)
#    0.000    2.625    1.250    1.000    0.000    4.250 
#    0.000    1.250    0.000    1.750    0.000    0.000 
#    0.000    1.000    0.000    0.375    0.000    0.500 
#
# Total GULP energy -534794.243484 kJ/mol
# GULP energy per Si atom -5570.773370 kJ/mol
# Density = 1.586080 g / cm^3
# Si number density = 15.896978 Si / 1000 Ang^3
#
#
#
# Elastic Constant Matrix: (Units=GPa)
#
#
# Indices 1 2 3 4 5 6 
#
# 1 62.5773 24.9741 21.0723 0.0000 0.0001 0.0000
# 2 24.9741 62.5773 21.0723 0.0000 -0.0001 0.0000
# 3 21.0723 21.0723 59.9967 0.0000 0.0000 0.0000
# 4 0.0000 0.0000 0.0000 19.9995 0.0000 -0.0001
# 5 0.0001 -0.0001 0.0000 0.0000 19.9995 0.0000
# 6 0.0000 0.0000 0.0000 -0.0001 0.0000 18.8016
#
#
#
# Elastic Compliance Matrix: (Units=1/GPa)
#
#
# Indices 1 2 3 4 5 6 
#
# 1 0.020170 -0.006424 -0.004828 0.000000 0.000000 0.000000
# 2 -0.006424 0.020170 -0.004828 0.000000 0.000000 0.000000
# 3 -0.004828 -0.004828 0.020059 0.000000 0.000000 0.000000
# 4 0.000000 0.000000 0.000000 0.050001 0.000000 0.000000
# 5 0.000000 0.000000 0.000000 0.000000 0.050001 0.000000
# 6 0.000000 0.000000 0.000000 0.000000 0.000000 0.053187
#
#
# Mechanical properties :
#
#
# Convention : Reuss Voigt Hill
#
# Bulk Modulus (GPa) = 35.41188 35.48764 35.44976
# Shear Modulus (GPa) = 19.59555 19.62895 19.61225
#
# Velocity S-wave (km/s) = 3.51473 3.51773 3.51623
# Velocity P-wave (km/s) = 6.22859 6.23468 6.23163
#
# Compressibility (1/GPa) = 0.02823911
#
# Stress axis : x y z
#
# Youngs Moduli (GPa) = 49.57935 49.57935 49.85310
#
# Poissons Ratio (x) = 0.31849 0.24069
# Poissons Ratio (y) = 0.31849 0.24069
# Poissons Ratio (z) = 0.23936 0.23936
#
# Static dielectric constant tensor:
#      x y z
#    x 1.530120 0.000000 0.000000 
#    y 0.000000 1.530120 0.000000 
#    z 0.000000 0.000000 1.525770 
# 
# From -- ./inp_files/2116.got.cif
#   From: 2010.05.17/outbox.cif.g08.bks.cpg/sg187_2_cif.got.tgz:2116.got - 2010.05.20 12:09:04.
