data_PCOD9585862
_publ_section_title
;
Structure prediction by ZEFSAII (Michael W. Deem and Ramdas Pophale) SiO2 
 PCOD9585862
Probable space group: P -6 C 2
;
_chemical_formula_sum "Si O2"
_cell_formula_units_Z 42
_cell_length_a 9.604133
_cell_length_b 9.604133
_cell_length_c 27.875628
_cell_angle_alpha 90.000000
_cell_angle_beta 90.000000
_cell_angle_gamma 120.000000
_cell_volume 2226.750832
_symmetry_space_group_name_H-M "P -6 C 2"
_symmetry_group_IT_number 188
_symmetry_cell_setting 'hexagonal'
loop_
_space_group_symop_operation_xyz
x,y,z
-x+y,-x,1/2-z
-y,x-y,z
x,y,1/2-z
-x+y,-x,z
-y,x-y,1/2-z
-y,-x,-z
-x+y,y,-z
x,x-y,-z
-x+y,y,1/2+z
x,x-y,1/2+z
-y,-x,1/2+z
loop_
_atom_site_type_symbol
_atom_site_label
_atom_site_fract_x
_atom_site_fract_y
_atom_site_fract_z
Si Si1 0.524676 0.518359 0.849433
Si Si2 0.000000 0.000000 0.443198
Si Si3 0.391703 0.867684 0.250000
Si Si4 0.185967 0.294379 0.875483
Si Si5 0.666668 0.333334 0.190568
Si Si6 0.000000 0.000000 0.807405
O O1 0.431163 0.471491 0.798689
O O2 0.377709 0.398926 0.883328
O O3 0.591084 0.701756 0.864662
O O4 0.667492 0.485599 0.834542
O O5 0.080292 0.178335 0.420413
O O6 0.000000 0.000000 0.500000
O O7 0.503938 0.785985 0.250000
O O8 0.132287 0.169153 0.830774
O O9 0.666667 0.333334 0.250000
O O10 0.000000 0.000000 0.750000
#
# Coordination Sequence:
#
# PCOD9585862 Si02
#       6
#    12   4   6  12   4   4
#     4  12  21  35  52  83 122 154 198 229 281 329
#     4  10  23  49  70  83 106 148 197 256 331 368
#     4  10  18  30  50  80 114 170 196 224 250 324
#     4  10  22  39  60  84 112 157 198 246 289 352
#     4  12  24  27  42  78 121 155 187 231 273 309
#     4  10  23  34  52  80 124 172 221 238 268 335
#
# _framework density 18.861560999999998
#
# number of rings (size 3 to 8) (size 9 to 14) (size 15 to 20)
#    0.286    1.143    4.286    4.000    4.000    2.286 
#    0.000    1.429    0.000    0.000    0.000    0.000 
#    0.000    0.000    0.000    0.000    0.000    0.000 
#
# Total GULP energy -233877.701722 kJ/mol
# GULP energy per Si atom -5568.516708 kJ/mol
# Density = 1.881863 g / cm^3
# Si number density = 18.861561 Si / 1000 Ang^3
#
#
#
# Elastic Constant Matrix: (Units=GPa)
#
#
# Indices 1 2 3 4 5 6 
#
# 1 88.8443 14.3327 23.1338 -0.0001 -0.0001 0.0001
# 2 14.3327 88.8451 23.1338 -0.0001 -0.0001 0.0001
# 3 23.1338 23.1338 110.8036 0.0000 0.0000 0.0000
# 4 -0.0001 -0.0001 0.0000 6.0170 0.0000 0.0000
# 5 -0.0001 -0.0001 0.0000 0.0000 6.0171 0.0000
# 6 0.0001 0.0001 0.0000 0.0000 0.0000 37.2561
#
#
#
# Elastic Compliance Matrix: (Units=1/GPa)
#
#
# Indices 1 2 3 4 5 6 
#
# 1 0.012057 -0.001364 -0.002233 0.000000 0.000000 0.000000
# 2 -0.001364 0.012057 -0.002233 0.000000 0.000000 0.000000
# 3 -0.002233 -0.002233 0.009957 0.000000 0.000000 0.000000
# 4 0.000000 0.000000 0.000000 0.166197 0.000001 0.000000
# 5 0.000000 0.000000 0.000000 0.000001 0.166194 0.000000
# 6 0.000000 0.000000 0.000000 0.000000 0.000000 0.026841
#
#
# Mechanical properties :
#
#
# Convention : Reuss Voigt Hill
#
# Bulk Modulus (GPa) = 44.61620 45.52153 45.06886
# Shear Modulus (GPa) = 12.12319 25.05086 18.58703
#
# Velocity S-wave (km/s) = 2.53799 3.64832 3.14259
# Velocity P-wave (km/s) = 5.68282 6.47564 6.09214
#
# Compressibility (1/GPa) = 0.02241339
#
# Stress axis : x y z
#
# Youngs Moduli (GPa) = 82.93952 82.94032 100.42979
#
# Poissons Ratio (x) = 0.11311 0.22422
# Poissons Ratio (y) = 0.11311 0.22421
# Poissons Ratio (z) = 0.18517 0.18517
#
# Static dielectric constant tensor:
#      x y z
#    x 1.738830 0.000000 0.000000 
#    y 0.000000 1.738830 0.000000 
#    z 0.000000 0.000000 1.599280 
# 
# From -- ./inp_files/4420.got.cif
#   From: 2010.05.17/outbox.cif.g08.bks.cpg/sg188_3_cif.got.tgz:4420.got - 2010.05.20 12:11:46.
