data_PCOD9585079
_publ_section_title
;
Structure prediction by ZEFSAII (Michael W. Deem and Ramdas Pophale) SiO2 
 PCOD9585079
Probable space group: P 6 M M
;
_chemical_formula_sum "Si O2"
_cell_formula_units_Z 84
_cell_length_a 22.680728
_cell_length_b 22.680728
_cell_length_c 12.649647
_cell_angle_alpha 90.000000
_cell_angle_beta 90.000000
_cell_angle_gamma 120.000000
_cell_volume 5635.377564
_symmetry_space_group_name_H-M "P 6 M M"
_symmetry_group_IT_number 183
_symmetry_cell_setting 'hexagonal'
loop_
_space_group_symop_operation_xyz
x,y,z
x-y,x,z
-y,x-y,z
-x,-y,z
-x+y,-x,z
y,-x+y,z
-x+y,y,z
x,x-y,z
-y,-x,z
y,x,z
x-y,-y,z
-x,-x+y,z
loop_
_atom_site_type_symbol
_atom_site_label
_atom_site_fract_x
_atom_site_fract_y
_atom_site_fract_z
Si Si1 0.531019 0.609529 0.260480
Si Si2 0.077252 0.792707 0.011747
Si Si3 0.077251 0.792707 0.759304
Si Si4 0.611075 0.080544 0.885525
Si Si5 0.849685 0.561892 0.690957
Si Si6 0.150316 0.712207 0.080092
Si Si7 0.390472 0.921490 0.510569
O O1 0.456876 0.543125 0.243982
O O2 0.585150 0.585150 0.230267
O O3 0.539949 0.671257 0.189326
O O4 0.538543 0.624571 0.385525
O O5 0.127852 0.872149 0.030653
O O6 0.108051 0.751700 0.069851
O O7 0.000000 0.765277 0.041235
O O8 0.080002 0.780857 0.885525
O O9 0.127853 0.872148 0.740398
O O10 0.108049 0.751698 0.701200
O O11 0.000000 0.765278 0.729816
O O12 0.540883 0.081765 0.885525
O O13 0.656290 0.120191 0.784088
O O14 0.589038 0.000000 0.885524
O O15 0.656290 0.120190 0.986962
O O16 0.770512 0.541024 0.702759
O O17 0.868692 0.539949 0.581724
O O18 0.229490 0.770511 0.068290
O O19 0.456875 0.913750 0.527067
O O20 0.414851 0.000000 0.540782
#
# Coordination Sequence:
#
# PCOD9585079 Si02
#       7
#    12  12  12  12  12  12  12
#     4   9  18  33  52  71  90 116 154 198 237 272
#     4   9  16  26  41  62  89 118 146 177 215 261
#     4   9  16  26  41  62  89 118 146 177 215 261
#     4  11  21  32  50  72  92 117 151 195 240 276
#     4  11  20  30  46  69  96 122 149 183 230 285
#     4  11  20  30  46  69  96 122 149 183 230 285
#     4   9  18  33  52  71  90 116 154 198 237 272
#
# _framework density 14.905834
#
# number of rings (size 3 to 8) (size 9 to 14) (size 15 to 20)
#    0.000    2.143    1.429    4.714    0.000    2.857 
#    0.000    0.000    0.000    8.286    0.000    2.000 
#    0.000    0.000    0.000    0.000    0.000    0.000 
#
# Total GULP energy -468228.407596 kJ/mol
# GULP energy per Si atom -5574.147709 kJ/mol
# Density = 1.487191 g / cm^3
# Si number density = 14.905834 Si / 1000 Ang^3
#
#
#
# Elastic Constant Matrix: (Units=GPa)
#
#
# Indices 1 2 3 4 5 6 
#
# 1 94.3462 44.3853 39.3858 0.0000 0.0000 0.0000
# 2 44.3853 94.3462 39.3858 0.0000 0.0000 0.0000
# 3 39.3858 39.3858 53.1420 0.0000 0.0000 0.0000
# 4 0.0000 0.0000 0.0000 24.9573 0.0000 0.0000
# 5 0.0000 0.0000 0.0000 0.0000 24.9573 0.0000
# 6 0.0000 0.0000 0.0000 0.0000 0.0000 24.9805
#
#
#
# Elastic Compliance Matrix: (Units=1/GPa)
#
#
# Indices 1 2 3 4 5 6 
#
# 1 0.016231 -0.003785 -0.009224 0.000000 0.000000 0.000000
# 2 -0.003785 0.016231 -0.009224 0.000000 0.000000 0.000000
# 3 -0.009224 -0.009224 0.032490 0.000000 0.000000 0.000000
# 4 0.000000 0.000000 0.000000 0.040068 0.000000 0.000000
# 5 0.000000 0.000000 0.000000 0.000000 0.040068 0.000000
# 6 0.000000 0.000000 0.000000 0.000000 0.000000 0.040031
#
#
# Mechanical properties :
#
#
# Convention : Reuss Voigt Hill
#
# Bulk Modulus (GPa) = 48.81534 54.23870 51.52702
# Shear Modulus (GPa) = 21.14941 22.89086 22.02013
#
# Velocity S-wave (km/s) = 3.77087 3.92305 3.84771
# Velocity P-wave (km/s) = 7.19580 7.54897 7.37450
#
# Compressibility (1/GPa) = 0.02048536
#
# Stress axis : x y z
#
# Youngs Moduli (GPa) = 61.61218 61.61218 30.77879
#
# Poissons Ratio (x) = 0.23321 0.28390
# Poissons Ratio (y) = 0.23321 0.28390
# Poissons Ratio (z) = 0.56830 0.56830
#
# Static dielectric constant tensor:
#      x y z
#    x 1.491160 0.000000 0.000000 
#    y 0.000000 1.491160 0.000000 
#    z 0.000000 0.000000 1.500830 
# 
# From -- ./inp_files/1774.got.cif
#   From: 2010.05.17/outbox.cif.g08.bks.cpg/sg183_1_cif.got.tgz:1774.got - 2010.05.20 12:02:58.
