data_PCOD9585487
_publ_section_title
;
Structure prediction by ZEFSAII (Michael W. Deem and Ramdas Pophale) SiO2 
 PCOD9585487
Probable space group: P -6 M 2
;
_chemical_formula_sum "Si O2"
_cell_formula_units_Z 84
_cell_length_a 19.337969
_cell_length_b 19.337969
_cell_length_c 15.027633
_cell_angle_alpha 90.000000
_cell_angle_beta 90.000000
_cell_angle_gamma 120.000000
_cell_volume 4866.793635
_symmetry_space_group_name_H-M "P -6 M 2"
_symmetry_group_IT_number 187
_symmetry_cell_setting 'hexagonal'
loop_
_space_group_symop_operation_xyz
x,y,z
-x+y,-x,-z
-y,x-y,z
x,y,-z
-x+y,-x,z
-y,x-y,-z
-y,-x,-z
-x+y,y,-z
x,x-y,-z
-x+y,y,z
x,x-y,z
-y,-x,z
loop_
_atom_site_type_symbol
_atom_site_label
_atom_site_fract_x
_atom_site_fract_y
_atom_site_fract_z
Si Si1 0.790416 0.580831 0.605143
Si Si2 0.744949 0.791250 0.328886
Si Si3 0.367800 0.398225 0.595967
Si Si4 0.430885 0.406054 0.100777
Si Si5 0.262347 0.893095 0.167975
Si Si6 0.886894 0.773787 0.604697
Si Si7 0.333373 0.511429 0.312525
Si Si8 0.892602 0.368055 0.280016
O O1 0.779178 0.558356 0.500000
O O2 0.838554 0.677108 0.608556
O O3 0.708984 0.549103 0.660340
O O4 0.741064 0.870532 0.351078
O O5 0.682593 0.715936 0.387911
O O6 0.710295 0.766820 0.228386
O O7 0.831374 0.802615 0.347429
O O8 0.400695 0.395166 0.500000
O O9 0.352043 0.471248 0.605046
O O10 0.427812 0.406952 0.673338
O O11 0.500529 0.499472 0.115122
O O12 0.340100 0.388134 0.111342
O O13 0.447051 0.357486 0.177647
O O14 0.441421 0.385847 0.000000
O O15 0.182772 0.817229 0.126987
O O16 0.296338 0.854923 0.239415
O O17 0.898177 0.796353 0.500000
O O18 0.267394 0.534788 0.334567
O O19 0.413235 0.586766 0.278926
O O20 0.861965 0.430983 0.283151
#
# Coordination Sequence:
#
# PCOD9585487 Si02
#       8
#     6  12  12  12  12   6  12  12
#     4  11  22  38  59  85 113 147 184 218 269 325
#     4  10  20  34  52  73 102 140 180 225 274 324
#     4  11  20  32  52  74  97 133 181 224 266 319
#     4  10  19  33  56  83 110 143 183 227 278 328
#     4   9  17  31  51  74 101 138 182 229 278 324
#     4  11  20  32  50  73 103 139 181 224 268 325
#     4  10  19  30  44  65  98 137 178 221 270 322
#     4  11  22  38  58  81 112 143 177 225 271 325
#
# _framework density 17.259823999999998
#
# number of rings (size 3 to 8) (size 9 to 14) (size 15 to 20)
#    0.000    1.714    4.286    3.143    0.000    4.286 
#    0.857    0.357    0.000    1.143    0.000    0.000 
#    0.000    0.000    0.000    0.000    0.143    0.000 
#
# Total GULP energy -468132.614759 kJ/mol
# GULP energy per Si atom -5573.007319 kJ/mol
# Density = 1.722054 g / cm^3
# Si number density = 17.259824 Si / 1000 Ang^3
#
#
#
# Elastic Constant Matrix: (Units=GPa)
#
#
# Indices 1 2 3 4 5 6 
#
# 1 69.6060 21.2447 25.3663 0.0000 -0.0004 0.0000
# 2 21.2447 69.6060 25.3663 0.0000 0.0004 0.0000
# 3 25.3663 25.3663 102.5217 0.0000 0.0000 0.0000
# 4 0.0000 0.0000 0.0000 13.3819 0.0000 0.0004
# 5 -0.0004 0.0004 0.0000 0.0000 13.3819 0.0000
# 6 0.0000 0.0000 0.0000 0.0004 0.0000 24.1806
#
#
#
# Elastic Compliance Matrix: (Units=1/GPa)
#
#
# Indices 1 2 3 4 5 6 
#
# 1 0.016725 -0.003953 -0.003160 0.000000 0.000001 0.000000
# 2 -0.003953 0.016725 -0.003160 0.000000 -0.000001 0.000000
# 3 -0.003160 -0.003160 0.011318 0.000000 0.000000 0.000000
# 4 0.000000 0.000000 0.000000 0.074728 0.000000 -0.000001
# 5 0.000001 -0.000001 0.000000 0.000000 0.074728 0.000000
# 6 0.000000 0.000000 0.000000 -0.000001 0.000000 0.041355
#
#
# Mechanical properties :
#
#
# Convention : Reuss Voigt Hill
#
# Bulk Modulus (GPa) = 41.28638 42.85423 42.07030
# Shear Modulus (GPa) = 18.92522 21.50599 20.21560
#
# Velocity S-wave (km/s) = 3.31492 3.53372 3.42607
# Velocity P-wave (km/s) = 6.21482 6.44456 6.33074
#
# Compressibility (1/GPa) = 0.02422107
#
# Stress axis : x y z
#
# Youngs Moduli (GPa) = 59.79185 59.79185 88.35671
#
# Poissons Ratio (x) = 0.23636 0.27921
# Poissons Ratio (y) = 0.23636 0.27921
# Poissons Ratio (z) = 0.18894 0.18894
#
# Static dielectric constant tensor:
#      x y z
#    x 1.609840 0.000000 0.000000 
#    y 0.000000 1.609840 0.000000 
#    z 0.000000 0.000000 1.599210 
# 
# From -- ./inp_files/2656.got.cif
#   From: 2010.05.17/outbox.cif.g08.bks.cpg/sg187_2_cif.got.tgz:2656.got - 2010.05.20 12:09:04.
