data_PCOD9585904
_publ_section_title
;
Structure prediction by ZEFSAII (Michael W. Deem and Ramdas Pophale) SiO2 
 PCOD9585904
Probable space group: P -6 C 2
;
_chemical_formula_sum "Si O2"
_cell_formula_units_Z 72
_cell_length_a 22.156575
_cell_length_b 22.156575
_cell_length_c 10.823385
_cell_angle_alpha 90.000000
_cell_angle_beta 90.000000
_cell_angle_gamma 120.000000
_cell_volume 4601.495412
_symmetry_space_group_name_H-M "P -6 C 2"
_symmetry_group_IT_number 188
_symmetry_cell_setting 'hexagonal'
loop_
_space_group_symop_operation_xyz
x,y,z
-x+y,-x,1/2-z
-y,x-y,z
x,y,1/2-z
-x+y,-x,z
-y,x-y,1/2-z
-y,-x,-z
-x+y,y,-z
x,x-y,-z
-x+y,y,1/2+z
x,x-y,1/2+z
-y,-x,1/2+z
loop_
_atom_site_type_symbol
_atom_site_label
_atom_site_fract_x
_atom_site_fract_y
_atom_site_fract_z
Si Si1 0.324344 0.335983 0.888551
Si Si2 0.528219 0.004290 0.878183
Si Si3 0.548404 0.167669 0.385613
Si Si4 0.852527 0.605772 0.895107
Si Si5 0.190692 0.667226 0.750000
Si Si6 0.564223 0.710314 0.499953
Si Si7 0.186111 0.665374 0.250000
O O1 0.293645 0.325192 0.750000
O O2 0.402343 0.402286 0.881444
O O3 0.339665 0.274066 0.917397
O O4 0.287381 0.362366 0.983194
O O5 0.489775 0.973622 0.750000
O O6 0.555824 0.087085 0.877756
O O7 0.485520 0.971040 0.000000
O O8 0.574843 0.199291 0.250000
O O9 0.600371 0.200742 0.500000
O O10 0.473686 0.162001 0.406613
O O11 0.837516 0.613074 0.750000
O O12 0.807791 0.615582 0.000000
O O13 0.154373 0.674014 0.624861
O O14 0.268338 0.734643 0.750000
O O15 0.191073 0.595351 0.750000
O O16 0.574890 0.787445 0.500000
O O17 0.523068 0.673573 0.625200
#
# Coordination Sequence:
#
# PCOD9585904 Si02
#       7
#    12  12  12  12   6  12   6
#     4   9  17  33  49  62  89 126 152 183 239 293
#     4   8  14  24  38  57  81 109 139 172 215 265
#     4   8  14  25  41  61  86 114 142 173 212 260
#     4   9  18  32  50  71  95 122 151 186 236 292
#     4  10  19  34  50  64  95 130 162 212 264 302
#     4  10  20  34  49  66  91 126 166 206 245 294
#     4  10  21  32  48  72  91 122 172 216 256 296
#
# _framework density 15.647087000000001
#
# number of rings (size 3 to 8) (size 9 to 14) (size 15 to 20)
#    0.000    3.000    0.833    2.667    0.000    2.000 
#    3.000    3.333    0.000    0.333    0.000    0.000 
#    0.000    0.000    0.000    0.500    0.000    2.333 
#
# Total GULP energy -400813.002673 kJ/mol
# GULP energy per Si atom -5566.847259 kJ/mol
# Density = 1.561147 g / cm^3
# Si number density = 15.647087 Si / 1000 Ang^3
#
#
#
# Elastic Constant Matrix: (Units=GPa)
#
#
# Indices 1 2 3 4 5 6 
#
# 1 51.3272 25.7637 51.2965 -0.0001 0.0000 0.0000
# 2 25.7637 51.3272 51.2965 0.0001 0.0000 0.0000
# 3 51.2965 51.2965 138.3007 0.0000 0.0000 0.0000
# 4 -0.0001 0.0001 0.0000 18.6059 0.0000 0.0000
# 5 0.0000 0.0000 0.0000 0.0000 18.6059 -0.0001
# 6 0.0000 0.0000 0.0000 0.0000 -0.0001 12.7818
#
#
#
# Elastic Compliance Matrix: (Units=1/GPa)
#
#
# Indices 1 2 3 4 5 6 
#
# 1 0.032367 -0.006751 -0.009501 0.000000 0.000000 0.000000
# 2 -0.006751 0.032367 -0.009501 0.000000 0.000000 0.000000
# 3 -0.009501 -0.009501 0.014279 0.000000 0.000000 0.000000
# 4 0.000000 0.000000 0.000000 0.053746 0.000000 0.000000
# 5 0.000000 0.000000 0.000000 0.000000 0.053746 0.000000
# 6 0.000000 0.000000 0.000000 0.000000 0.000000 0.078236
#
#
# Mechanical properties :
#
#
# Convention : Reuss Voigt Hill
#
# Bulk Modulus (GPa) = 36.35581 55.29648 45.82615
# Shear Modulus (GPa) = 15.36491 17.50528 16.43510
#
# Velocity S-wave (km/s) = 3.13703 3.34841 3.24444
# Velocity P-wave (km/s) = 6.03379 7.09688 6.58682
#
# Compressibility (1/GPa) = 0.02750592
#
# Stress axis : x y z
#
# Youngs Moduli (GPa) = 30.89573 30.89573 70.03513
#
# Poissons Ratio (x) = 0.20859 0.66540
# Poissons Ratio (y) = 0.20859 0.66540
# Poissons Ratio (z) = 0.29354 0.29354
#
# Static dielectric constant tensor:
#      x y z
#    x 1.536670 0.000000 0.000000 
#    y 0.000000 1.536670 0.000000 
#    z 0.000000 0.000000 1.587780 
# 
# From -- ./inp_files/1753.got.cif
#   From: 2010.05.17/outbox.cif.g08.bks.cpg/sg188_1_cif.got.tgz:1753.got - 2010.05.20 12:11:46.
