data_PCOD9585773
_publ_section_title
;
Structure prediction by ZEFSAII (Michael W. Deem and Ramdas Pophale) SiO2 
 PCOD9585773
Probable space group: P -6 M 2
;
_chemical_formula_sum "Si O2"
_cell_formula_units_Z 66
_cell_length_a 22.588367
_cell_length_b 22.588367
_cell_length_c 7.619538
_cell_angle_alpha 90.000000
_cell_angle_beta 90.000000
_cell_angle_gamma 120.000000
_cell_volume 3366.890106
_symmetry_space_group_name_H-M "P -6 M 2"
_symmetry_group_IT_number 187
_symmetry_cell_setting 'hexagonal'
loop_
_space_group_symop_operation_xyz
x,y,z
-x+y,-x,-z
-y,x-y,z
x,y,-z
-x+y,-x,z
-y,x-y,-z
-y,-x,-z
-x+y,y,-z
x,x-y,-z
-x+y,y,z
x,x-y,z
-y,-x,z
loop_
_atom_site_type_symbol
_atom_site_label
_atom_site_fract_x
_atom_site_fract_y
_atom_site_fract_z
Si Si1 0.423044 0.099259 0.796529
Si Si2 0.127383 0.386980 0.704966
Si Si3 0.806383 0.474230 0.500000
Si Si4 0.410897 0.956285 0.713829
Si Si5 0.000280 0.868726 0.288136
Si Si6 0.987377 0.728860 0.794628
O O1 0.478964 0.155006 0.669017
O O2 0.344990 0.072563 0.732321
O O3 0.427639 0.030117 0.783262
O O4 0.430895 0.121468 0.000000
O O5 0.141480 0.404447 0.500000
O O6 0.194456 0.388911 0.781758
O O7 0.100143 0.435763 0.777461
O O8 0.060699 0.311734 0.713817
O O9 0.728265 0.456530 0.500000
O O10 0.812704 0.406352 0.500000
O O11 0.409251 0.960268 0.500000
O O12 0.470643 0.941286 0.761995
O O13 0.002157 0.869252 0.500000
O O14 0.944615 0.889229 0.233100
O O15 0.975911 0.792103 0.231167
O O16 0.075605 0.924396 0.224767
O O17 0.993959 0.718885 0.000000
#
# Coordination Sequence:
#
# PCOD9585773 Si02
#       6
#    12  12   6  12  12  12
#     4  10  22  40  63  92 122 149 184 236 293 342
#     4   9  17  29  47  72 105 143 182 225 278 338
#     4  12  27  46  68  92 121 156 192 226 268 330
#     4   9  16  29  52  80 109 145 190 237 285 339
#     4  10  21  36  54  75 104 146 194 239 283 336
#     4  10  21  35  54  82 111 139 179 233 290 342
#
# _framework density 19.60266
#
# number of rings (size 3 to 8) (size 9 to 14) (size 15 to 20)
#    0.000    2.182    0.909    1.909    2.545    6.545 
#    0.000    1.818    0.000    2.545    0.000    2.545 
#    0.000    0.000    0.000    9.091    0.000    9.455 
#
# Total GULP energy -368371.116132 kJ/mol
# GULP energy per Si atom -5581.380547 kJ/mol
# Density = 1.955804 g / cm^3
# Si number density = 19.602660 Si / 1000 Ang^3
#
#
#
# Elastic Constant Matrix: (Units=GPa)
#
#
# Indices 1 2 3 4 5 6 
#
# 1 89.4775 47.5313 21.2196 0.0000 0.0000 0.0000
# 2 47.5313 89.4775 21.2196 0.0000 0.0000 0.0000
# 3 21.2196 21.2196 65.4184 0.0000 0.0000 0.0000
# 4 0.0000 0.0000 0.0000 16.5252 0.0000 0.0000
# 5 0.0000 0.0000 0.0000 0.0000 16.5252 0.0000
# 6 0.0000 0.0000 0.0000 0.0000 0.0000 20.9731
#
#
#
# Elastic Compliance Matrix: (Units=1/GPa)
#
#
# Indices 1 2 3 4 5 6 
#
# 1 0.015977 -0.007863 -0.002632 0.000000 0.000000 0.000000
# 2 -0.007863 0.015977 -0.002632 0.000000 0.000000 0.000000
# 3 -0.002632 -0.002632 0.016994 0.000000 0.000000 0.000000
# 4 0.000000 0.000000 0.000000 0.060514 0.000000 0.000000
# 5 0.000000 0.000000 0.000000 0.000000 0.060514 0.000000
# 6 0.000000 0.000000 0.000000 0.000000 0.000000 0.047680
#
#
# Mechanical properties :
#
#
# Convention : Reuss Voigt Hill
#
# Bulk Modulus (GPa) = 44.06449 47.14605 45.60527
# Shear Modulus (GPa) = 19.88278 21.09821 20.49049
#
# Velocity S-wave (km/s) = 3.18825 3.28425 3.23660
# Velocity P-wave (km/s) = 6.00673 6.20361 6.10597
#
# Compressibility (1/GPa) = 0.02269401
#
# Stress axis : x y z
#
# Youngs Moduli (GPa) = 62.58967 62.58967 58.84556
#
# Poissons Ratio (x) = 0.49214 0.15488
# Poissons Ratio (y) = 0.49214 0.15488
# Poissons Ratio (z) = 0.16473 0.16473
#
# Static dielectric constant tensor:
#      x y z
#    x 1.685240 0.000000 0.000000 
#    y 0.000000 1.685240 0.000000 
#    z 0.000000 0.000000 1.739180 
# 
# From -- ./inp_files/780.got.cif
#   From: 2010.05.17/outbox.cif.g08.bks.cpg/sg187_1_cif.got.tgz:780.got - 2010.05.20 12:09:04.
