data_PCOD9585981
_publ_section_title
;
Structure prediction by ZEFSAII (Michael W. Deem and Ramdas Pophale) SiO2 
 PCOD9585981
Probable space group: P -6 C 2
;
_chemical_formula_sum "Si O2"
_cell_formula_units_Z 72
_cell_length_a 15.017774
_cell_length_b 15.017774
_cell_length_c 18.905153
_cell_angle_alpha 90.000000
_cell_angle_beta 90.000000
_cell_angle_gamma 120.000000
_cell_volume 3692.512354
_symmetry_space_group_name_H-M "P -6 C 2"
_symmetry_group_IT_number 188
_symmetry_cell_setting 'hexagonal'
loop_
_space_group_symop_operation_xyz
x,y,z
-x+y,-x,1/2-z
-y,x-y,z
x,y,1/2-z
-x+y,-x,z
-y,x-y,1/2-z
-y,-x,-z
-x+y,y,-z
x,x-y,-z
-x+y,y,1/2+z
x,x-y,1/2+z
-y,-x,1/2+z
loop_
_atom_site_type_symbol
_atom_site_label
_atom_site_fract_x
_atom_site_fract_y
_atom_site_fract_z
Si Si1 0.507726 0.922710 0.250000
Si Si2 0.288126 0.019797 0.551728
Si Si3 0.249309 0.201680 0.899718
Si Si4 0.120403 0.262431 0.670488
Si Si5 0.558942 0.822738 0.750000
Si Si6 0.464690 0.169004 0.169424
Si Si7 0.486064 0.099775 0.630828
O O1 0.383946 0.866347 0.250000
O O2 0.526145 0.824648 0.250000
O O3 0.559309 0.001061 0.316371
O O4 0.256746 0.104719 0.573041
O O5 0.258249 0.992314 0.470438
O O6 0.409163 0.064882 0.564284
O O7 0.226750 0.936071 0.611432
O O8 0.146951 0.178315 0.858437
O O9 0.347713 0.258210 0.849382
O O10 0.166461 0.927666 0.750000
O O11 0.230451 0.364339 0.683473
O O12 0.489344 0.155898 0.250000
O O13 0.536394 0.143323 0.120620
O O14 0.479388 0.282349 0.161751
#
# Coordination Sequence:
#
# PCOD9585981 Si02
#       7
#     6  12  12  12   6  12  12
#     4  12  19  38  56  88 126 154 203 263 317 373
#     4  10  22  40  58  84 122 163 204 246 325 378
#     4  10  22  37  59  85 119 163 203 254 306 392
#     4  10  20  38  60  90 114 151 209 254 314 367
#     4  10  23  34  60  92 112 160 197 257 313 365
#     4  11  20  33  56  90 121 159 208 254 318 380
#     4  11  21  35  60  86 127 165 201 264 322 378
#
# _framework density 19.498918
#
# number of rings (size 3 to 8) (size 9 to 14) (size 15 to 20)
#    0.500    1.000    3.333    2.500    0.000    2.000 
#    1.000    0.000    0.000    2.000    0.000    0.000 
#    0.000    0.000    0.000    0.000    0.000    0.000 
#
# Total GULP energy -400887.980017 kJ/mol
# GULP energy per Si atom -5567.888611 kJ/mol
# Density = 1.945454 g / cm^3
# Si number density = 19.498918 Si / 1000 Ang^3
#
#
#
# Elastic Constant Matrix: (Units=GPa)
#
#
# Indices 1 2 3 4 5 6 
#
# 1 74.2457 30.8782 7.8521 0.0000 0.0000 0.0000
# 2 30.8782 74.2457 7.8521 0.0000 0.0000 0.0000
# 3 7.8521 7.8521 46.6631 0.0000 0.0000 0.0000
# 4 0.0000 0.0000 0.0000 12.9034 0.0000 0.0000
# 5 0.0000 0.0000 0.0000 0.0000 12.9034 0.0000
# 6 0.0000 0.0000 0.0000 0.0000 0.0000 21.6837
#
#
#
# Elastic Compliance Matrix: (Units=1/GPa)
#
#
# Indices 1 2 3 4 5 6 
#
# 1 0.016408 -0.006650 -0.001642 0.000000 0.000000 0.000000
# 2 -0.006650 0.016408 -0.001642 0.000000 0.000000 0.000000
# 3 -0.001642 -0.001642 0.021983 0.000000 0.000000 0.000000
# 4 0.000000 0.000000 0.000000 0.077499 0.000000 0.000000
# 5 0.000000 0.000000 0.000000 0.000000 0.077499 0.000000
# 6 0.000000 0.000000 0.000000 0.000000 0.000000 0.046118
#
#
# Mechanical properties :
#
#
# Convention : Reuss Voigt Hill
#
# Bulk Modulus (GPa) = 28.62819 32.03550 30.33184
# Shear Modulus (GPa) = 17.39570 19.40290 18.39930
#
# Velocity S-wave (km/s) = 2.99011 3.15790 3.07515
# Velocity P-wave (km/s) = 5.16089 5.45541 5.31019
#
# Compressibility (1/GPa) = 0.03493061
#
# Stress axis : x y z
#
# Youngs Moduli (GPa) = 60.94466 60.94466 45.49011
#
# Poissons Ratio (x) = 0.40531 0.07469
# Poissons Ratio (y) = 0.40531 0.07469
# Poissons Ratio (z) = 0.10007 0.10007
#
# Static dielectric constant tensor:
#      x y z
#    x 1.723450 0.000000 0.000000 
#    y 0.000000 1.723450 0.000000 
#    z 0.000000 0.000000 1.589420 
# 
# From -- ./inp_files/3803.got.cif
#   From: 2010.05.17/outbox.cif.g08.bks.cpg/sg188_2_cif.got.tgz:3803.got - 2010.05.20 12:11:46.
