data_PCOD9585030
_publ_section_title
;
Structure prediction by ZEFSAII (Michael W. Deem and Ramdas Pophale) SiO2 
 PCOD9585030
Probable space group: P 6 M M
;
_chemical_formula_sum "Si O2"
_cell_formula_units_Z 96
_cell_length_a 24.412874
_cell_length_b 24.412874
_cell_length_c 12.044568
_cell_angle_alpha 90.000000
_cell_angle_beta 90.000000
_cell_angle_gamma 120.000000
_cell_volume 6216.696690
_symmetry_space_group_name_H-M "P 6 M M"
_symmetry_group_IT_number 183
_symmetry_cell_setting 'hexagonal'
loop_
_space_group_symop_operation_xyz
x,y,z
x-y,x,z
-y,x-y,z
-x,-y,z
-x+y,-x,z
y,-x+y,z
-x+y,y,z
x,x-y,z
-y,-x,z
y,x,z
x-y,-y,z
-x,-x+y,z
loop_
_atom_site_type_symbol
_atom_site_label
_atom_site_fract_x
_atom_site_fract_y
_atom_site_fract_z
Si Si1 0.075873 0.475559 0.860990
Si Si2 0.804700 0.074114 0.848057
Si Si3 0.598574 0.521725 0.369500
Si Si4 0.555976 0.632921 0.613600
Si Si5 0.075107 0.755421 0.607767
Si Si6 0.598259 0.863329 0.976363
Si Si7 0.699165 0.074931 0.214708
Si Si8 0.926574 0.194845 0.368932
O O1 0.086197 0.543099 0.900113
O O2 0.091849 0.480054 0.729784
O O3 0.116076 0.449183 0.922719
O O4 0.000000 0.425683 0.872614
O O5 0.877459 0.122542 0.877736
O O6 0.794632 0.085484 0.719105
O O7 0.761886 0.095386 0.916823
O O8 0.779147 0.000000 0.864456
O O9 0.548375 0.451626 0.329667
O O10 0.561098 0.561098 0.370841
O O11 0.617446 0.519769 0.497088
O O12 0.658158 0.562957 0.291489
O O13 0.594432 0.594432 0.609308
O O14 0.605760 0.707798 0.617717
O O15 0.090177 0.791535 0.492066
O O16 0.000000 0.709602 0.602356
O O17 0.580438 0.790219 0.963444
O O18 0.607232 0.883927 0.104474
O O19 0.757118 0.080119 0.286356
O O20 0.654690 0.000000 0.186532
O O21 0.876881 0.123120 0.338994
O O22 0.000000 0.214318 0.368631
#
# Coordination Sequence:
#
# PCOD9585030 Si02
#       8
#    12  12  12  12  12  12  12  12
#     4  10  19  31  51  76 101 128 155 191 236 282
#     4  10  19  31  48  69  94 125 160 200 245 293
#     4   9  16  26  43  69  98 127 155 183 223 275
#     4   9  14  25  44  69 100 127 152 182 224 278
#     4   9  15  26  45  66  91 122 153 188 231 281
#     4  11  22  34  48  67  96 131 165 202 238 281
#     4  10  19  31  46  65  92 128 164 200 238 280
#     4  10  19  31  47  67  91 121 159 201 246 296
#
# _framework density 15.442285
#
# number of rings (size 3 to 8) (size 9 to 14) (size 15 to 20)
#    0.000    2.250    2.500    2.250    0.000    2.000 
#    0.000    1.250    0.000    0.500    0.000    0.000 
#    0.000    3.000    0.000    4.250    0.000    0.000 
#
# Total GULP energy -534696.530479 kJ/mol
# GULP energy per Si atom -5569.755526 kJ/mol
# Density = 1.540714 g / cm^3
# Si number density = 15.442285 Si / 1000 Ang^3
#
#
#
# Elastic Constant Matrix: (Units=GPa)
#
#
# Indices 1 2 3 4 5 6 
#
# 1 89.0990 59.7333 35.7462 0.0000 0.0000 0.0000
# 2 59.7333 89.0990 35.7462 0.0000 0.0000 0.0000
# 3 35.7462 35.7462 87.2767 0.0000 0.0000 0.0000
# 4 0.0000 0.0000 0.0000 4.3440 0.0000 0.0000
# 5 0.0000 0.0000 0.0000 0.0000 4.3440 0.0000
# 6 0.0000 0.0000 0.0000 0.0000 0.0000 14.6829
#
#
#
# Elastic Compliance Matrix: (Units=1/GPa)
#
#
# Indices 1 2 3 4 5 6 
#
# 1 0.021209 -0.012844 -0.003426 0.000000 0.000000 0.000000
# 2 -0.012844 0.021209 -0.003426 0.000000 0.000000 0.000000
# 3 -0.003426 -0.003426 0.014264 0.000000 0.000000 0.000000
# 4 0.000000 0.000000 0.000000 0.230202 0.000000 0.000000
# 5 0.000000 0.000000 0.000000 0.000000 0.230202 0.000000
# 6 0.000000 0.000000 0.000000 0.000000 0.000000 0.068107
#
#
# Mechanical properties :
#
#
# Convention : Reuss Voigt Hill
#
# Bulk Modulus (GPa) = 57.83791 58.65846 58.24818
# Shear Modulus (GPa) = 7.93213 13.62411 10.77812
#
# Velocity S-wave (km/s) = 2.26887 2.97351 2.64476
# Velocity P-wave (km/s) = 6.66328 7.06095 6.86500
#
# Compressibility (1/GPa) = 0.01728970
#
# Stress axis : x y z
#
# Youngs Moduli (GPa) = 47.14988 47.14988 70.10574
#
# Poissons Ratio (x) = 0.60561 0.24018
# Poissons Ratio (y) = 0.60561 0.24018
# Poissons Ratio (z) = 0.16153 0.16153
#
# Static dielectric constant tensor:
#      x y z
#    x 1.522230 0.000000 0.000000 
#    y 0.000000 1.522230 0.000000 
#    z 0.000000 0.000000 1.526590 
# 
# From -- ./inp_files/2079.got.cif
#   From: 2010.05.17/outbox.cif.g08.bks.cpg/sg183_2_cif.got.tgz:2079.got - 2010.05.20 12:02:58.
