data_PCOD9585197
_publ_section_title
;
Structure prediction by ZEFSAII (Michael W. Deem and Ramdas Pophale) SiO2 
 PCOD9585197
Probable space group: P 6 C C
;
_chemical_formula_sum "Si O2"
_cell_formula_units_Z 48
_cell_length_a 24.960593
_cell_length_b 24.960593
_cell_length_c 5.217941
_cell_angle_alpha 90.000000
_cell_angle_beta 90.000000
_cell_angle_gamma 120.000000
_cell_volume 2815.396676
_symmetry_space_group_name_H-M "P 6 C C"
_symmetry_group_IT_number 184
_symmetry_cell_setting 'hexagonal'
loop_
_space_group_symop_operation_xyz
x,y,z
x-y,x,z
-y,x-y,z
-x,-y,z
-x+y,-x,z
y,-x+y,z
-x+y,y,1/2+z
x,x-y,1/2+z
-y,-x,1/2+z
y,x,1/2+z
x-y,-y,1/2+z
-x,-x+y,1/2+z
loop_
_atom_site_type_symbol
_atom_site_label
_atom_site_fract_x
_atom_site_fract_y
_atom_site_fract_z
Si Si1 0.701467 0.235132 0.193630
Si Si2 0.894634 0.416277 0.710223
Si Si3 0.161567 0.382896 0.184404
Si Si4 0.961209 0.623159 0.334019
O O1 0.725961 0.281168 0.433487
O O2 0.631850 0.179123 0.220342
O O3 0.740726 0.198945 0.186834
O O4 0.910172 0.441497 0.421906
O O5 0.930543 0.380908 0.789892
O O6 0.193912 0.363449 0.402058
O O7 0.092275 0.361558 0.265893
O O8 0.984822 0.640073 0.623475
#
# Coordination Sequence:
#
# PCOD9585197 Si02
#       4
#    12  12  12  12
#     4   9  17  31  50  65  78 101 140 189 227 263
#     4  11  22  34  49  68  91 123 155 182 232 312
#     4   9  17  31  50  69  87 114 152 187 223 266
#     4  11  22  34  49  72 100 126 155 196 242 281
#
# _framework density 17.049106999999999
#
# number of rings (size 3 to 8) (size 9 to 14) (size 15 to 20)
#    0.000    2.000    0.000    4.500    0.000   11.000 
#    0.000    0.000    0.000   10.000    0.000    0.000 
#    0.000    0.000    0.000    0.000    0.000    0.000 
#
# Total GULP energy -268117.540526 kJ/mol
# GULP energy per Si atom -5585.782094 kJ/mol
# Density = 1.701030 g / cm^3
# Si number density = 17.049107 Si / 1000 Ang^3
#
#
#
# Elastic Constant Matrix: (Units=GPa)
#
#
# Indices 1 2 3 4 5 6 
#
# 1 24.8483 -2.5372 -10.2621 0.0000 0.0000 0.0000
# 2 -2.5372 24.8483 -10.2621 0.0000 0.0000 0.0000
# 3 -10.2621 -10.2621 65.2843 0.0000 0.0000 0.0000
# 4 0.0000 0.0000 0.0000 23.1162 0.0000 0.0000
# 5 0.0000 0.0000 0.0000 0.0000 23.1162 0.0000
# 6 0.0000 0.0000 0.0000 0.0000 0.0000 13.6927
#
#
#
# Elastic Compliance Matrix: (Units=1/GPa)
#
#
# Indices 1 2 3 4 5 6 
#
# 1 0.044457 0.007941 0.008236 0.000000 0.000000 0.000000
# 2 0.007941 0.044457 0.008236 0.000000 0.000000 0.000000
# 3 0.008236 0.008236 0.017907 0.000000 0.000000 0.000000
# 4 0.000000 0.000000 0.000000 0.043260 0.000000 0.000000
# 5 0.000000 0.000000 0.000000 0.000000 0.043260 0.000000
# 6 0.000000 0.000000 0.000000 0.000000 0.000000 0.073031
#
#
# Mechanical properties :
#
#
# Convention : Reuss Voigt Hill
#
# Bulk Modulus (GPa) = 6.42477 7.65090 7.03783
# Shear Modulus (GPa) = 18.55797 21.18786 19.87292
#
# Velocity S-wave (km/s) = 3.30282 3.52910 3.41783
# Velocity P-wave (km/s) = 4.28035 4.59384 4.43986
#
# Compressibility (1/GPa) = 0.15564762
#
# Stress axis : x y z
#
# Youngs Moduli (GPa) = 22.49386 22.49386 55.84405
#
# Poissons Ratio (x) = -0.17862 -0.45996
# Poissons Ratio (y) = -0.17862 -0.45996
# Poissons Ratio (z) = -0.18527 -0.18527
#
# Static dielectric constant tensor:
#      x y z
#    x 1.578250 0.000000 0.000000 
#    y 0.000000 1.578250 0.000000 
#    z 0.000000 0.000000 1.584090 
# 
# From -- ./inp_files/7.got.cif
#   From: 2010.05.17/outbox.cif.g08.bks.cpg/sg184_cif.got.tgz:7.got - 2010.05.20 12:04:40.
