data_PCOD9585530
_publ_section_title
;
Structure prediction by ZEFSAII (Michael W. Deem and Ramdas Pophale) SiO2 
 PCOD9585530
Probable space group: P -6 M 2
;
_chemical_formula_sum "Si O2"
_cell_formula_units_Z 84
_cell_length_a 17.714302
_cell_length_b 17.714302
_cell_length_c 19.463077
_cell_angle_alpha 90.000000
_cell_angle_beta 90.000000
_cell_angle_gamma 120.000000
_cell_volume 5289.202826
_symmetry_space_group_name_H-M "P -6 M 2"
_symmetry_group_IT_number 187
_symmetry_cell_setting 'hexagonal'
loop_
_space_group_symop_operation_xyz
x,y,z
-x+y,-x,-z
-y,x-y,z
x,y,-z
-x+y,-x,z
-y,x-y,-z
-y,-x,-z
-x+y,y,-z
x,x-y,-z
-x+y,y,z
x,x-y,z
-y,-x,z
loop_
_atom_site_type_symbol
_atom_site_label
_atom_site_fract_x
_atom_site_fract_y
_atom_site_fract_z
Si Si1 0.828533 0.000381 0.891602
Si Si2 0.095977 0.724982 0.922953
Si Si3 0.154379 0.487652 0.659990
Si Si4 0.032604 0.605605 0.791265
Si Si5 0.980071 0.580429 0.421112
Si Si6 0.903644 0.631010 0.701317
Si Si7 0.169123 0.999195 0.274372
O O1 0.904798 0.095203 0.912303
O O2 0.820458 0.999007 0.808476
O O3 0.853284 0.926642 0.909585
O O4 0.733340 0.968467 0.920691
O O5 0.192293 0.807708 0.909250
O O6 0.065930 0.654375 0.863250
O O7 0.095487 0.692483 0.000000
O O8 0.240604 0.481207 0.652570
O O9 0.175426 0.587713 0.656029
O O10 0.106586 0.449965 0.733110
O O11 0.079017 0.433472 0.604182
O O12 0.017467 0.508734 0.793926
O O13 0.946454 0.604807 0.763330
O O14 0.967295 0.596196 0.500000
O O15 0.968746 0.484373 0.415096
O O16 0.916254 0.589345 0.367764
O O17 0.805847 0.611693 0.713196
O O18 0.963881 0.735697 0.694829
O O19 0.138682 0.069341 0.289209
O O20 0.096803 0.903198 0.296248
#
# Coordination Sequence:
#
# PCOD9585530 Si02
#       7
#    12  12  12  12  12  12  12
#     4   9  16  27  43  66  97 131 162 190 222 265
#     4  10  20  32  47  69  98 131 166 204 241 279
#     4   9  17  29  48  72  98 128 162 199 237 280
#     4  10  20  34  51  70  93 125 162 204 254 303
#     4   9  19  35  51  70  99 131 159 192 241 296
#     4  10  19  31  51  76  97 122 158 201 244 287
#     4   9  16  26  43  68  98 130 161 191 222 260
#
# _framework density 15.881410000000001
#
# number of rings (size 3 to 8) (size 9 to 14) (size 15 to 20)
#    0.000    2.571    1.429    2.143    0.000    4.571 
#    0.000    0.000    0.000    4.286    0.000    0.000 
#    0.000    1.143    0.000    0.000    0.000    0.000 
#
# Total GULP energy -468250.098920 kJ/mol
# GULP energy per Si atom -5574.405940 kJ/mol
# Density = 1.584526 g / cm^3
# Si number density = 15.881410 Si / 1000 Ang^3
#
#
#
# Elastic Constant Matrix: (Units=GPa)
#
#
# Indices 1 2 3 4 5 6 
#
# 1 65.1433 37.4976 33.0967 0.0000 -0.0003 0.0000
# 2 37.4976 65.1433 33.0967 0.0000 0.0003 0.0000
# 3 33.0967 33.0967 91.3507 0.0000 0.0000 0.0000
# 4 0.0000 0.0000 0.0000 11.4419 0.0000 0.0003
# 5 -0.0003 0.0003 0.0000 0.0000 11.4419 0.0000
# 6 0.0000 0.0000 0.0000 0.0003 0.0000 13.8229
#
#
#
# Elastic Compliance Matrix: (Units=1/GPa)
#
#
# Indices 1 2 3 4 5 6 
#
# 1 0.024443 -0.011729 -0.004606 0.000000 0.000001 0.000000
# 2 -0.011729 0.024443 -0.004606 0.000000 -0.000001 0.000000
# 3 -0.004606 -0.004606 0.014284 0.000000 0.000000 0.000000
# 4 0.000000 0.000000 0.000000 0.087398 0.000000 -0.000002
# 5 0.000001 -0.000001 0.000000 0.000000 0.087398 0.000000
# 6 0.000000 0.000000 0.000000 -0.000002 0.000000 0.072344
#
#
# Mechanical properties :
#
#
# Convention : Reuss Voigt Hill
#
# Bulk Modulus (GPa) = 46.97793 47.66879 47.32336
# Shear Modulus (GPa) = 13.91642 15.20443 14.56043
#
# Velocity S-wave (km/s) = 2.96340 3.09750 3.03119
# Velocity P-wave (km/s) = 6.43068 6.54777 6.48949
#
# Compressibility (1/GPa) = 0.02128659
#
# Stress axis : x y z
#
# Youngs Moduli (GPa) = 40.91232 40.91232 70.00664
#
# Poissons Ratio (x) = 0.47988 0.32245
# Poissons Ratio (y) = 0.47988 0.32245
# Poissons Ratio (z) = 0.18844 0.18844
#
# Static dielectric constant tensor:
#      x y z
#    x 1.525120 0.000000 0.000000 
#    y 0.000000 1.525120 0.000000 
#    z 0.000000 0.000000 1.545450 
# 
# From -- ./inp_files/3672.got.cif
#   From: 2010.05.17/outbox.cif.g08.bks.cpg/sg187_2_cif.got.tgz:3672.got - 2010.05.20 12:09:04.
