data_PCOD9585851
_publ_section_title
;
Structure prediction by ZEFSAII (Michael W. Deem and Ramdas Pophale) SiO2 
 PCOD9585851
Probable space group: P -6 C 2
;
_chemical_formula_sum "Si O2"
_cell_formula_units_Z 72
_cell_length_a 24.134533
_cell_length_b 24.134533
_cell_length_c 8.543778
_cell_angle_alpha 90.000000
_cell_angle_beta 90.000000
_cell_angle_gamma 120.000000
_cell_volume 4309.812598
_symmetry_space_group_name_H-M "P -6 C 2"
_symmetry_group_IT_number 188
_symmetry_cell_setting 'hexagonal'
loop_
_space_group_symop_operation_xyz
x,y,z
-x+y,-x,1/2-z
-y,x-y,z
x,y,1/2-z
-x+y,-x,z
-y,x-y,1/2-z
-y,-x,-z
-x+y,y,-z
x,x-y,-z
-x+y,y,1/2+z
x,x-y,1/2+z
-y,-x,1/2+z
loop_
_atom_site_type_symbol
_atom_site_label
_atom_site_fract_x
_atom_site_fract_y
_atom_site_fract_z
Si Si1 0.526338 0.599963 0.062918
Si Si2 0.805469 0.069059 0.438487
Si Si3 0.593309 0.531436 0.561988
Si Si4 0.859943 0.264677 0.938917
Si Si5 0.208379 0.667362 0.437209
Si Si6 0.874799 0.875711 0.562012
O O1 0.526068 0.600565 0.250000
O O2 0.463190 0.536811 0.000000
O O3 0.582416 0.588591 0.000371
O O4 0.516477 0.656695 0.997455
O O5 0.805143 0.068846 0.250000
O O6 0.868830 0.131171 0.500000
O O7 0.750003 0.083554 0.488884
O O8 0.816704 0.011210 0.487672
O O9 0.589768 0.531163 0.750000
O O10 0.535323 0.464678 0.500000
O O11 0.663228 0.544998 0.512876
O O12 0.856805 0.262154 0.750000
O O13 0.792443 0.207558 0.000000
O O14 0.208446 0.665733 0.250000
O O15 0.267587 0.732414 0.500000
O O16 0.214931 0.607466 0.500000
O O17 0.878000 0.878185 0.750000
O O18 0.867260 0.933630 0.500000
O O19 0.941064 0.882127 0.500000
#
# Coordination Sequence:
#
# PCOD9585851 Si02
#       6
#    12  12  12  12  12  12
#     4  10  18  30  47  68  93 124 161 201 242 284
#     4   8  15  28  44  63  86 115 149 188 229 270
#     4  10  19  32  51  76 102 128 155 188 229 275
#     4   9  18  32  52  76 100 124 153 187 228 271
#     4  11  20  31  45  65  93 126 164 207 254 302
#     4  10  18  27  40  58  84 115 151 191 234 278
#
# _framework density 16.706061999999999
#
# number of rings (size 3 to 8) (size 9 to 14) (size 15 to 20)
#    0.000    2.333    0.000    6.333    0.000    2.000 
#    0.000    0.000    0.000    1.333    0.000    2.333 
#    0.000    0.000    0.000    0.000    0.000    0.000 
#
# Total GULP energy -400915.352794 kJ/mol
# GULP energy per Si atom -5568.268789 kJ/mol
# Density = 1.666804 g / cm^3
# Si number density = 16.706062 Si / 1000 Ang^3
#
#
#
# Elastic Constant Matrix: (Units=GPa)
#
#
# Indices 1 2 3 4 5 6 
#
# 1 106.9267 59.8481 31.6730 0.0002 0.0000 0.0000
# 2 59.8481 106.9267 31.6730 -0.0002 0.0000 0.0000
# 3 31.6730 31.6730 84.1863 0.0000 0.0000 0.0000
# 4 0.0002 -0.0002 0.0000 18.4416 0.0000 0.0000
# 5 0.0000 0.0000 0.0000 0.0000 18.4416 0.0002
# 6 0.0000 0.0000 0.0000 0.0000 0.0002 23.5393
#
#
#
# Elastic Compliance Matrix: (Units=1/GPa)
#
#
# Indices 1 2 3 4 5 6 
#
# 1 0.014118 -0.007123 -0.002632 0.000000 0.000000 0.000000
# 2 -0.007123 0.014118 -0.002632 0.000000 0.000000 0.000000
# 3 -0.002632 -0.002632 0.013859 0.000000 0.000000 0.000000
# 4 0.000000 0.000000 0.000000 0.054225 0.000000 0.000000
# 5 0.000000 0.000000 0.000000 0.000000 0.054225 0.000000
# 6 0.000000 0.000000 0.000000 0.000000 0.000000 0.042482
#
#
# Mechanical properties :
#
#
# Convention : Reuss Voigt Hill
#
# Bulk Modulus (GPa) = 57.72841 60.49201 59.11021
# Shear Modulus (GPa) = 22.36376 23.74086 23.05231
#
# Velocity S-wave (km/s) = 3.66274 3.77383 3.71870
# Velocity P-wave (km/s) = 7.24693 7.43487 7.34150
#
# Compressibility (1/GPa) = 0.01732249
#
# Stress axis : x y z
#
# Youngs Moduli (GPa) = 70.82938 70.82938 72.15591
#
# Poissons Ratio (x) = 0.50449 0.18992
# Poissons Ratio (y) = 0.50449 0.18992
# Poissons Ratio (z) = 0.18642 0.18642
#
# Static dielectric constant tensor:
#      x y z
#    x 1.568960 0.000000 0.000000 
#    y 0.000000 1.568960 0.000000 
#    z 0.000000 0.000000 1.547110 
# 
# From -- ./inp_files/1049.got.cif
#   From: 2010.05.17/outbox.cif.g08.bks.cpg/sg188_1_cif.got.tgz:1049.got - 2010.05.20 12:11:46.
