data_PCOD9585409
_publ_section_title
;
Structure prediction by ZEFSAII (Michael W. Deem and Ramdas Pophale) SiO2 
 PCOD9585409
Probable space group: P 63 M C
;
_chemical_formula_sum "Si O2"
_cell_formula_units_Z 60
_cell_length_a 17.209435
_cell_length_b 17.209435
_cell_length_c 11.117213
_cell_angle_alpha 90.000000
_cell_angle_beta 90.000000
_cell_angle_gamma 120.000000
_cell_volume 2851.410752
_symmetry_space_group_name_H-M "P 63 M C"
_symmetry_group_IT_number 186
_symmetry_cell_setting 'hexagonal'
loop_
_space_group_symop_operation_xyz
x,y,z
x-y,x,1/2+z
-y,x-y,z
-x,-y,1/2+z
-x+y,-x,z
y,-x+y,1/2+z
-x+y,y,z
x,x-y,z
-y,-x,z
y,x,1/2+z
x-y,-y,1/2+z
-x,-x+y,1/2+z
loop_
_atom_site_type_symbol
_atom_site_label
_atom_site_fract_x
_atom_site_fract_y
_atom_site_fract_z
Si Si1 0.847840 0.332041 0.936230
Si Si2 0.295696 0.241292 0.305741
Si Si3 0.482302 0.332645 0.203846
Si Si4 0.517699 0.850343 0.168614
Si Si5 0.241292 0.945597 0.066717
O O1 0.858701 0.429351 0.936230
O O2 0.742793 0.257207 0.936230
O O3 0.879888 0.322231 0.804633
O O4 0.879888 0.322231 0.067826
O O5 0.289377 0.144689 0.304235
O O6 0.401867 0.312414 0.292412
O O7 0.262210 0.252586 0.436229
O O8 0.248704 0.248704 0.186229
O O9 0.505791 0.252896 0.217879
O O10 0.570902 0.429099 0.216890
O O11 0.429099 0.858198 0.155569
O O12 0.494209 0.747105 0.154581
O O13 0.598134 0.910546 0.080048
O O14 0.144688 0.855313 0.068223
#
# Coordination Sequence:
#
# PCOD9585409 Si02
#       5
#    12  12  12  12  12
#     4   8  13  22  40  68 101 140 188 238 282 320
#     4  10  23  41  61  87 116 146 186 232 281 343
#     4   9  17  30  50  78 115 158 204 247 285 323
#     4   9  17  30  50  78 115 158 204 247 285 323
#     4  10  23  41  61  87 116 146 186 232 281 343
#
# _framework density 21.042216
#
# number of rings (size 3 to 8) (size 9 to 14) (size 15 to 20)
#    0.000    2.800    0.000    0.600    2.800    5.600 
#    0.000    0.000    0.000    2.800    0.000    0.000 
#    0.000    0.000    0.000    0.000    0.000    0.000 
#
# Total GULP energy -334626.977399 kJ/mol
# GULP energy per Si atom -5577.116290 kJ/mol
# Density = 2.099432 g / cm^3
# Si number density = 21.042216 Si / 1000 Ang^3
#
#
#
# Elastic Constant Matrix: (Units=GPa)
#
#
# Indices 1 2 3 4 5 6 
#
# 1 38.0794 30.4955 30.5603 0.0000 0.0000 0.0000
# 2 30.4955 38.0794 30.5603 0.0000 0.0000 0.0000
# 3 30.5603 30.5603 157.7438 0.0000 0.0000 0.0000
# 4 0.0000 0.0000 0.0000 20.2843 0.0000 0.0000
# 5 0.0000 0.0000 0.0000 0.0000 20.2843 0.0000
# 6 0.0000 0.0000 0.0000 0.0000 0.0000 3.7920
#
#
#
# Elastic Compliance Matrix: (Units=1/GPa)
#
#
# Indices 1 2 3 4 5 6 
#
# 1 0.074742 -0.057116 -0.003415 0.000000 0.000000 0.000000
# 2 -0.057116 0.074742 -0.003415 0.000000 0.000000 0.000000
# 3 -0.003415 -0.003415 0.007663 0.000000 0.000000 0.000000
# 4 0.000000 0.000000 0.000000 0.049299 0.000000 0.000000
# 5 0.000000 0.000000 0.000000 0.000000 0.049299 0.000000
# 6 0.000000 0.000000 0.000000 0.000000 0.000000 0.263715
#
#
# Mechanical properties :
#
#
# Convention : Reuss Voigt Hill
#
# Bulk Modulus (GPa) = 34.18135 46.34831 40.26483
# Shear Modulus (GPa) = 7.60918 18.35790 12.98354
#
# Velocity S-wave (km/s) = 1.90368 2.95690 2.48669
# Velocity P-wave (km/s) = 4.59472 5.80791 5.23657
#
# Compressibility (1/GPa) = 0.02925572
#
# Stress axis : x y z
#
# Youngs Moduli (GPa) = 13.37940 13.37940 130.50551
#
# Poissons Ratio (x) = 0.76417 0.44565
# Poissons Ratio (y) = 0.76417 0.44565
# Poissons Ratio (z) = 0.04569 0.04569
#
# Static dielectric constant tensor:
#      x y z
#    x 1.753410 0.000000 0.000000 
#    y 0.000000 1.753410 0.000000 
#    z 0.000000 0.000000 1.826540 
# 
# From -- ./inp_files/1745.got.cif
#   From: 2010.05.17/outbox.cif.g08.bks.cpg/sg186_1_cif.got.tgz:1745.got - 2010.05.20 12:07:08.
