data_PCOD9585726
_publ_section_title
;
Structure prediction by ZEFSAII (Michael W. Deem and Ramdas Pophale) SiO2 
 PCOD9585726
Probable space group: P -6 M 2
;
_chemical_formula_sum "Si O2"
_cell_formula_units_Z 72
_cell_length_a 12.642430
_cell_length_b 12.642430
_cell_length_c 31.405588
_cell_angle_alpha 90.000000
_cell_angle_beta 90.000000
_cell_angle_gamma 120.000000
_cell_volume 4347.090444
_symmetry_space_group_name_H-M "P -6 M 2"
_symmetry_group_IT_number 187
_symmetry_cell_setting 'hexagonal'
loop_
_space_group_symop_operation_xyz
x,y,z
-x+y,-x,-z
-y,x-y,z
x,y,-z
-x+y,-x,z
-y,x-y,-z
-y,-x,-z
-x+y,y,-z
x,x-y,-z
-x+y,y,z
x,x-y,z
-y,-x,z
loop_
_atom_site_type_symbol
_atom_site_label
_atom_site_fract_x
_atom_site_fract_y
_atom_site_fract_z
Si Si1 0.414795 0.081737 0.249855
Si Si2 0.332880 0.917660 0.416965
Si Si3 0.918613 0.333340 0.083321
Si Si4 0.748249 0.999751 0.500000
Si Si5 0.999524 0.748641 0.000000
Si Si6 0.251718 0.251556 0.333597
Si Si7 0.082007 0.666204 0.833345
O O1 0.546726 0.093452 0.255032
O O2 0.428196 0.214098 0.243767
O O3 0.332919 0.022273 0.291646
O O4 0.352203 0.997943 0.208704
O O5 0.462244 0.924487 0.417477
O O6 0.222843 0.777158 0.417994
O O7 0.313947 0.981838 0.458146
O O8 0.313896 0.977036 0.374465
O O9 0.906029 0.453015 0.078027
O O10 0.786147 0.213854 0.088439
O O11 0.980431 0.312683 0.041859
O O12 0.000416 0.353806 0.124956
O O13 0.777258 0.888629 0.500000
O O14 0.871828 0.128173 0.500000
O O15 0.129266 0.870735 0.000000
O O16 0.889601 0.779201 0.000000
O O17 0.240005 0.120003 0.340128
O O18 0.119012 0.238023 0.328381
O O19 0.112560 0.556280 0.833341
O O20 0.204137 0.795864 0.833644
#
# Coordination Sequence:
#
# PCOD9585726 Si02
#       7
#    12  12  12   6   6  12  12
#     4  10  20  34  53  76 103 135 170 209 252 300
#     4  10  20  34  53  76 102 132 167 208 253 300
#     4  10  20  34  54  78 104 134 168 209 254 301
#     4  10  20  34  54  78 104 134 168 208 252 300
#     4  10  20  34  52  74 102 136 172 210 252 300
#     4  10  20  34  53  76 103 135 170 210 254 301
#     4  10  20  34  52  74 101 133 169 209 253 300
#
# _framework density 16.562804
#
# number of rings (size 3 to 8) (size 9 to 14) (size 15 to 20)
#    0.000    2.000    0.000    4.000    0.000    0.000 
#    0.000    5.000    0.000   18.000    0.000    0.000 
#    0.000    0.000    0.000    0.000    0.000    0.000 
#
# Total GULP energy -402033.273453 kJ/mol
# GULP energy per Si atom -5583.795465 kJ/mol
# Density = 1.652511 g / cm^3
# Si number density = 16.562804 Si / 1000 Ang^3
#
#
#
# Elastic Constant Matrix: (Units=GPa)
#
#
# Indices 1 2 3 4 5 6 
#
# 1 148.5815 110.6119 106.3541 0.0000 -0.0001 0.0000
# 2 110.6119 148.5815 106.3541 0.0000 0.0001 0.0000
# 3 106.3541 106.3541 170.9614 0.0000 0.0000 0.0000
# 4 0.0000 0.0000 0.0000 22.7292 0.0000 0.0001
# 5 -0.0001 0.0001 0.0000 0.0000 22.7292 0.0000
# 6 0.0000 0.0000 0.0000 0.0001 0.0000 18.9848
#
#
#
# Elastic Compliance Matrix: (Units=1/GPa)
#
#
# Indices 1 2 3 4 5 6 
#
# 1 0.017110 -0.009227 -0.004903 0.000000 0.000000 0.000000
# 2 -0.009227 0.017110 -0.004903 0.000000 0.000000 0.000000
# 3 -0.004903 -0.004903 0.011950 0.000000 0.000000 0.000000
# 4 0.000000 0.000000 0.000000 0.043996 0.000000 0.000000
# 5 0.000000 0.000000 0.000000 0.000000 0.043996 0.000000
# 6 0.000000 0.000000 0.000000 0.000000 0.000000 0.052674
#
#
# Mechanical properties :
#
#
# Convention : Reuss Voigt Hill
#
# Bulk Modulus (GPa) = 123.44734 123.86270 123.65502
# Shear Modulus (GPa) = 21.96797 22.54225 22.25511
#
# Velocity S-wave (km/s) = 3.64585 3.69320 3.66960
# Velocity P-wave (km/s) = 9.61341 9.65051 9.63198
#
# Compressibility (1/GPa) = 0.00810062
#
# Stress axis : x y z
#
# Youngs Moduli (GPa) = 58.44706 58.44706 83.68146
#
# Poissons Ratio (x) = 0.53931 0.41033
# Poissons Ratio (y) = 0.53931 0.41033
# Poissons Ratio (z) = 0.28659 0.28659
#
# Static dielectric constant tensor:
#      x y z
#    x 1.523310 0.000000 0.000000 
#    y 0.000000 1.523310 0.000000 
#    z 0.000000 0.000000 1.539270 
# 
# From -- ./inp_files/4524.got.cif
#   From: 2010.05.17/outbox.cif.g08.bks.cpg/sg187_3_cif.got.tgz:4524.got - 2010.05.20 12:09:04.
