data_PCOD9585039
_publ_section_title
;
Structure prediction by ZEFSAII (Michael W. Deem and Ramdas Pophale) SiO2 
 PCOD9585039
Probable space group: P 6 M M
;
_chemical_formula_sum "Si O2"
_cell_formula_units_Z 84
_cell_length_a 22.306729
_cell_length_b 22.306729
_cell_length_c 12.581218
_cell_angle_alpha 90.000000
_cell_angle_beta 90.000000
_cell_angle_gamma 120.000000
_cell_volume 5421.570401
_symmetry_space_group_name_H-M "P 6 M M"
_symmetry_group_IT_number 183
_symmetry_cell_setting 'hexagonal'
loop_
_space_group_symop_operation_xyz
x,y,z
x-y,x,z
-y,x-y,z
-x,-y,z
-x+y,-x,z
y,-x+y,z
-x+y,y,z
x,x-y,z
-y,-x,z
y,x,z
x-y,-y,z
-x,-x+y,z
loop_
_atom_site_type_symbol
_atom_site_label
_atom_site_fract_x
_atom_site_fract_y
_atom_site_fract_z
Si Si1 0.469508 0.081742 0.565460
Si Si2 0.790409 0.078534 0.870494
Si Si3 0.333086 0.525009 0.380084
Si Si4 0.531324 0.611570 0.958519
Si Si5 0.851788 0.563827 0.765540
Si Si6 0.079109 0.292803 0.122023
Si Si7 0.292793 0.845459 0.157841
O O1 0.542706 0.085412 0.590356
O O2 0.482771 0.128436 0.460946
O O3 0.449551 0.116833 0.659893
O O4 0.414030 0.000000 0.552718
O O5 0.871766 0.128235 0.858632
O O6 0.752676 0.108044 0.797532
O O7 0.764009 0.000000 0.846080
O O8 0.773963 0.083611 0.995086
O O9 0.260662 0.521324 0.408870
O O10 0.396051 0.603950 0.381121
O O11 0.323802 0.492970 0.262551
O O12 0.461102 0.538899 0.956973
O O13 0.593583 0.593583 0.947925
O O14 0.530592 0.658451 0.862586
O O15 0.536187 0.651037 0.067322
O O16 0.770803 0.541606 0.758082
O O17 0.133350 0.266699 0.141580
O O18 0.107305 0.365539 0.181367
O O19 0.000000 0.239509 0.146823
O O20 0.228366 0.771635 0.119494
#
# Coordination Sequence:
#
# PCOD9585039 Si02
#       7
#    12  12  12  12  12  12  12
#     4  10  21  36  53  73  96 122 156 201 249 295
#     4   9  16  26  43  66  91 119 150 185 225 272
#     4  10  21  37  55  73  96 129 168 206 245 294
#     4  11  21  31  47  71  98 126 155 195 247 294
#     4  11  20  32  50  69  93 124 158 194 237 290
#     4   9  16  27  44  67  94 123 155 192 235 283
#     4  10  19  32  49  70  96 126 162 201 241 288
#
# _framework density 15.493667
#
# number of rings (size 3 to 8) (size 9 to 14) (size 15 to 20)
#    0.000    2.000    1.429    3.571    0.000    2.286 
#    0.000    1.429    0.000    7.143    0.000    2.000 
#    0.000    0.000    0.000    0.000    0.000    0.000 
#
# Total GULP energy -468278.568821 kJ/mol
# GULP energy per Si atom -5574.744867 kJ/mol
# Density = 1.545840 g / cm^3
# Si number density = 15.493667 Si / 1000 Ang^3
#
#
#
# Elastic Constant Matrix: (Units=GPa)
#
#
# Indices 1 2 3 4 5 6 
#
# 1 105.6897 54.8610 40.0674 0.0000 0.0000 0.0000
# 2 54.8610 105.6897 40.0674 0.0000 0.0000 0.0000
# 3 40.0674 40.0674 53.1611 0.0000 0.0000 0.0000
# 4 0.0000 0.0000 0.0000 18.6600 0.0000 0.0000
# 5 0.0000 0.0000 0.0000 0.0000 18.6600 0.0000
# 6 0.0000 0.0000 0.0000 0.0000 0.0000 25.4143
#
#
#
# Elastic Compliance Matrix: (Units=1/GPa)
#
#
# Indices 1 2 3 4 5 6 
#
# 1 0.014829 -0.004845 -0.007525 0.000000 0.000000 0.000000
# 2 -0.004845 0.014829 -0.007525 0.000000 0.000000 0.000000
# 3 -0.007525 -0.007525 0.030155 0.000000 0.000000 0.000000
# 4 0.000000 0.000000 0.000000 0.053591 0.000000 0.000000
# 5 0.000000 0.000000 0.000000 0.000000 0.053591 0.000000
# 6 0.000000 0.000000 0.000000 0.000000 0.000000 0.039348
#
#
# Mechanical properties :
#
#
# Convention : Reuss Voigt Hill
#
# Bulk Modulus (GPa) = 49.94455 59.39243 54.66849
# Shear Modulus (GPa) = 19.77790 21.18317 20.48054
#
# Velocity S-wave (km/s) = 3.57671 3.70160 3.63969
# Velocity P-wave (km/s) = 7.02585 7.52899 7.28177
#
# Compressibility (1/GPa) = 0.02002220
#
# Stress axis : x y z
#
# Youngs Moduli (GPa) = 67.43400 67.43400 33.16246
#
# Poissons Ratio (x) = 0.32669 0.24956
# Poissons Ratio (y) = 0.32669 0.24956
# Poissons Ratio (z) = 0.50747 0.50747
#
# Static dielectric constant tensor:
#      x y z
#    x 1.517790 0.000000 0.000000 
#    y 0.000000 1.517790 0.000000 
#    z 0.000000 0.000000 1.507000 
# 
# From -- ./inp_files/1769.got.cif
#   From: 2010.05.17/outbox.cif.g08.bks.cpg/sg183_1_cif.got.tgz:1769.got - 2010.05.20 12:02:58.
