data_PCOD9585462
_publ_section_title
;
Structure prediction by ZEFSAII (Michael W. Deem and Ramdas Pophale) SiO2 
 PCOD9585462
Probable space group: P -6 M 2
;
_chemical_formula_sum "Si O2"
_cell_formula_units_Z 72
_cell_length_a 23.847070
_cell_length_b 23.847070
_cell_length_c 7.793918
_cell_angle_alpha 90.000000
_cell_angle_beta 90.000000
_cell_angle_gamma 120.000000
_cell_volume 3838.455561
_symmetry_space_group_name_H-M "P -6 M 2"
_symmetry_group_IT_number 187
_symmetry_cell_setting 'hexagonal'
loop_
_space_group_symop_operation_xyz
x,y,z
-x+y,-x,-z
-y,x-y,z
x,y,-z
-x+y,-x,z
-y,x-y,-z
-y,-x,-z
-x+y,y,-z
x,x-y,-z
-x+y,y,z
x,x-y,z
-y,-x,z
loop_
_atom_site_type_symbol
_atom_site_label
_atom_site_fract_x
_atom_site_fract_y
_atom_site_fract_z
Si Si1 0.960368 0.544433 0.290374
Si Si2 0.187367 0.812634 0.694097
Si Si3 0.717689 0.158778 0.702886
Si Si4 0.310106 0.370182 0.708721
Si Si5 0.765594 0.060841 0.201413
Si Si6 0.860600 0.020604 0.304665
Si Si7 0.118083 0.236166 0.184275
O O1 0.958793 0.545494 0.500000
O O2 0.966924 0.483462 0.236821
O O3 0.891395 0.536433 0.230088
O O4 0.022277 0.613794 0.239936
O O5 0.200471 0.799530 0.500000
O O6 0.133177 0.742210 0.767831
O O7 0.148014 0.851987 0.687698
O O8 0.710862 0.166859 0.500000
O O9 0.769191 0.230810 0.772247
O O10 0.750889 0.114958 0.728611
O O11 0.307624 0.368881 0.500000
O O12 0.288668 0.298045 0.771670
O O13 0.822821 0.060042 0.300820
O O14 0.780508 0.071721 0.000000
O O15 0.865524 0.002587 0.500000
O O16 0.932480 0.067521 0.236253
O O17 0.812709 0.957421 0.202686
O O18 0.134469 0.268937 0.000000
#
# Coordination Sequence:
#
# PCOD9585462 Si02
#       7
#    12   6  12  12  12  12   6
#     4   8  14  26  45  68  93 121 157 199 240 283
#     4  10  18  30  50  70  96 126 158 198 242 300
#     4   9  17  29  45  65  90 123 160 193 232 286
#     4   9  17  29  47  69  94 126 159 193 238 295
#     4  11  20  29  45  70  96 118 146 190 238 281
#     4  11  23  38  53  65  83 117 155 188 228 284
#     4  12  24  36  52  72  92 116 150 198 250 286
#
# _framework density 18.757542999999998
#
# number of rings (size 3 to 8) (size 9 to 14) (size 15 to 20)
#    0.000    2.167    1.667    4.250    0.000    3.667 
#    0.500    0.000    0.000    8.333    0.000    2.333 
#    0.833    0.000    2.500    0.500    0.000    2.667 
#
# Total GULP energy -400998.542925 kJ/mol
# GULP energy per Si atom -5569.424207 kJ/mol
# Density = 1.871485 g / cm^3
# Si number density = 18.757543 Si / 1000 Ang^3
#
#
#
# Elastic Constant Matrix: (Units=GPa)
#
#
# Indices 1 2 3 4 5 6 
#
# 1 158.4025 12.2780 1.0105 0.0000 0.0002 0.0000
# 2 12.2780 158.4025 1.0105 0.0000 -0.0002 0.0000
# 3 1.0105 1.0105 34.6067 0.0000 0.0000 0.0000
# 4 0.0000 0.0000 0.0000 13.0086 0.0000 -0.0002
# 5 0.0002 -0.0002 0.0000 0.0000 13.0086 0.0000
# 6 0.0000 0.0000 0.0000 -0.0002 0.0000 73.0622
#
#
#
# Elastic Compliance Matrix: (Units=1/GPa)
#
#
# Indices 1 2 3 4 5 6 
#
# 1 0.006352 -0.000491 -0.000171 0.000000 0.000000 0.000000
# 2 -0.000491 0.006352 -0.000171 0.000000 0.000000 0.000000
# 3 -0.000171 -0.000171 0.028906 0.000000 0.000000 0.000000
# 4 0.000000 0.000000 0.000000 0.076872 0.000000 0.000000
# 5 0.000000 0.000000 0.000000 0.000000 0.076872 0.000000
# 6 0.000000 0.000000 0.000000 0.000000 0.000000 0.013687
#
#
# Mechanical properties :
#
#
# Convention : Reuss Voigt Hill
#
# Bulk Modulus (GPa) = 25.03540 42.22328 33.62934
# Shear Modulus (GPa) = 22.31906 42.29006 32.30456
#
# Velocity S-wave (km/s) = 3.45319 4.75337 4.15446
# Velocity P-wave (km/s) = 5.41066 7.25844 6.40157
#
# Compressibility (1/GPa) = 0.03994343
#
# Stress axis : x y z
#
# Youngs Moduli (GPa) = 157.42566 157.42566 34.59477
#
# Poissons Ratio (x) = 0.07734 0.00592
# Poissons Ratio (y) = 0.07734 0.00592
# Poissons Ratio (z) = 0.02694 0.02694
#
# Static dielectric constant tensor:
#      x y z
#    x 1.678870 0.000000 0.000000 
#    y 0.000000 1.678870 0.000000 
#    z 0.000000 0.000000 1.659530 
# 
# From -- ./inp_files/1023.got.cif
#   From: 2010.05.17/outbox.cif.g08.bks.cpg/sg187_1_cif.got.tgz:1023.got - 2010.05.20 12:09:04.
