data_PCOD9585765
_publ_section_title
;
Structure prediction by ZEFSAII (Michael W. Deem and Ramdas Pophale) SiO2 
 PCOD9585765
Probable space group: P -6 M 2
;
_chemical_formula_sum "Si O2"
_cell_formula_units_Z 54
_cell_length_a 20.575750
_cell_length_b 20.575750
_cell_length_c 8.447942
_cell_angle_alpha 90.000000
_cell_angle_beta 90.000000
_cell_angle_gamma 120.000000
_cell_volume 3097.368692
_symmetry_space_group_name_H-M "P -6 M 2"
_symmetry_group_IT_number 187
_symmetry_cell_setting 'hexagonal'
loop_
_space_group_symop_operation_xyz
x,y,z
-x+y,-x,-z
-y,x-y,z
x,y,-z
-x+y,-x,z
-y,x-y,-z
-y,-x,-z
-x+y,y,-z
x,x-y,-z
-x+y,y,z
x,x-y,z
-y,-x,z
loop_
_atom_site_type_symbol
_atom_site_label
_atom_site_fract_x
_atom_site_fract_y
_atom_site_fract_z
Si Si1 0.261102 0.202128 0.183569
Si Si2 0.680062 0.117657 0.177866
Si Si3 0.809439 0.331484 0.500000
Si Si4 0.546534 0.597422 0.814962
Si Si5 0.093857 0.334560 0.311614
O O1 0.240569 0.120285 0.249788
O O2 0.351634 0.253132 0.183609
O O3 0.234850 0.255891 0.262449
O O4 0.237333 0.191860 0.000000
O O5 0.686154 0.162712 0.335947
O O6 0.602318 0.038928 0.190854
O O7 0.682073 0.149183 0.000000
O O8 0.720336 0.279665 0.500000
O O9 0.836326 0.418163 0.500000
O O10 0.465396 0.534605 0.748870
O O11 0.595048 0.679762 0.740984
O O12 0.536238 0.607997 0.000000
O O13 0.096672 0.335962 0.500000
O O14 0.169872 0.339743 0.248095
#
# Coordination Sequence:
#
# PCOD9585765 Si02
#       5
#    12  12   6  12  12
#     4   9  18  33  54  79 102 127 168 220 267 312
#     4   9  19  36  54  75 102 127 161 215 270 313
#     4  12  25  36  48  66  93 132 172 206 246 300
#     4   9  18  33  54  79 102 127 168 220 267 312
#     4  10  21  34  49  76 113 146 175 210 261 326
#
# _framework density 17.434152999999998
#
# number of rings (size 3 to 8) (size 9 to 14) (size 15 to 20)
#    0.000    2.444    0.000    3.444    6.222    5.333 
#    0.000    0.000    0.000    2.222    0.000    0.000 
#    0.000    0.000    0.000    0.000    0.000    0.000 
#
# Total GULP energy -300667.793254 kJ/mol
# GULP energy per Si atom -5567.922097 kJ/mol
# Density = 1.739447 g / cm^3
# Si number density = 17.434153 Si / 1000 Ang^3
#
#
#
# Elastic Constant Matrix: (Units=GPa)
#
#
# Indices 1 2 3 4 5 6 
#
# 1 96.0299 58.9181 35.4754 0.0000 0.0008 0.0000
# 2 58.9181 96.0299 35.4754 0.0000 -0.0008 0.0000
# 3 35.4754 35.4754 86.7458 0.0000 0.0000 0.0000
# 4 0.0000 0.0000 0.0000 17.7624 0.0000 -0.0008
# 5 0.0008 -0.0008 0.0000 0.0000 17.7624 0.0000
# 6 0.0000 0.0000 0.0000 -0.0008 0.0000 18.5559
#
#
#
# Elastic Compliance Matrix: (Units=1/GPa)
#
#
# Indices 1 2 3 4 5 6 
#
# 1 0.017443 -0.009502 -0.003247 0.000000 -0.000001 0.000000
# 2 -0.009502 0.017443 -0.003247 0.000000 0.000001 0.000000
# 3 -0.003247 -0.003247 0.014184 0.000000 0.000000 0.000000
# 4 0.000000 0.000000 0.000000 0.056299 0.000000 0.000002
# 5 -0.000001 0.000001 0.000000 0.000000 0.056299 0.000000
# 6 0.000000 0.000000 0.000000 0.000002 0.000000 0.053891
#
#
# Mechanical properties :
#
#
# Convention : Reuss Voigt Hill
#
# Bulk Modulus (GPa) = 58.56219 59.83812 59.20016
# Shear Modulus (GPa) = 19.74366 20.74524 20.24445
#
# Velocity S-wave (km/s) = 3.36887 3.45326 3.41133
# Velocity P-wave (km/s) = 6.98540 7.09203 7.03892
#
# Compressibility (1/GPa) = 0.01707586
#
# Stress axis : x y z
#
# Youngs Moduli (GPa) = 57.32897 57.32897 70.50158
#
# Poissons Ratio (x) = 0.54476 0.22895
# Poissons Ratio (y) = 0.54476 0.22895
# Poissons Ratio (z) = 0.18617 0.18617
#
# Static dielectric constant tensor:
#      x y z
#    x 1.610000 0.000000 0.000000 
#    y 0.000000 1.610000 0.000000 
#    z 0.000000 0.000000 1.618240 
# 
# From -- ./inp_files/588.got.cif
#   From: 2010.05.17/outbox.cif.g08.bks.cpg/sg187_1_cif.got.tgz:588.got - 2010.05.20 12:09:04.
