data_PCOD9585400
_publ_section_title
;
Structure prediction by ZEFSAII (Michael W. Deem and Ramdas Pophale) SiO2 
 PCOD9585400
Probable space group: P 63 M C
;
_chemical_formula_sum "Si O2"
_cell_formula_units_Z 54
_cell_length_a 26.329086
_cell_length_b 26.329086
_cell_length_c 5.219541
_cell_angle_alpha 90.000000
_cell_angle_beta 90.000000
_cell_angle_gamma 120.000000
_cell_volume 3133.534721
_symmetry_space_group_name_H-M "P 63 M C"
_symmetry_group_IT_number 186
_symmetry_cell_setting 'hexagonal'
loop_
_space_group_symop_operation_xyz
x,y,z
x-y,x,1/2+z
-y,x-y,z
-x,-y,1/2+z
-x+y,-x,z
y,-x+y,1/2+z
-x+y,y,z
x,x-y,z
-y,-x,z
y,x,1/2+z
x-y,-y,1/2+z
-x,-x+y,1/2+z
loop_
_atom_site_type_symbol
_atom_site_label
_atom_site_fract_x
_atom_site_fract_y
_atom_site_fract_z
Si Si1 0.334131 0.959833 0.757840
Si Si2 0.577980 0.730982 0.467183
Si Si3 0.362099 0.474523 0.073392
Si Si4 0.334250 0.784005 0.728854
Si Si5 0.519331 0.480670 0.840031
O O1 0.278799 0.898787 0.659801
O O2 0.346702 0.002583 0.515987
O O3 0.375615 0.932454 0.837865
O O4 0.595487 0.797744 0.439781
O O5 0.573289 0.698943 0.200042
O O6 0.509667 0.695887 0.562086
O O7 0.355031 0.527960 0.974287
O O8 0.411967 0.491795 0.282080
O O9 0.391892 0.783783 0.625498
O O10 0.282013 0.717988 0.784446
O O11 0.504268 0.495732 0.111621
#
# Coordination Sequence:
#
# PCOD9585400 Si02
#       5
#    12  12  12  12   6
#     4  11  21  38  60  82 109 141 176 221 272 331
#     4  10  23  39  59  80 110 144 184 224 281 340
#     4  11  22  37  56  76 109 137 178 219 283 340
#     4  10  21  36  54  75 100 137 178 227 275 336
#     4  12  28  36  56  84 110 140 174 220 286 352
#
# _framework density 17.232935999999999
#
# number of rings (size 3 to 8) (size 9 to 14) (size 15 to 20)
#    0.000    1.333    3.333    2.222    7.778    0.889 
#    0.000    0.000    0.000    2.667    0.000    0.000 
#    0.000    0.000    0.000    0.000    0.000    0.000 
#
# Total GULP energy -300859.099463 kJ/mol
# GULP energy per Si atom -5571.464805 kJ/mol
# Density = 1.719371 g / cm^3
# Si number density = 17.232936 Si / 1000 Ang^3
#
#
#
# Elastic Constant Matrix: (Units=GPa)
#
#
# Indices 1 2 3 4 5 6 
#
# 1 79.2305 36.0672 30.2521 0.0000 0.0000 0.0000
# 2 36.0672 79.2305 30.2521 0.0000 0.0000 0.0000
# 3 30.2521 30.2521 97.9826 0.0000 0.0000 0.0000
# 4 0.0000 0.0000 0.0000 19.0639 0.0000 0.0000
# 5 0.0000 0.0000 0.0000 0.0000 19.0639 0.0000
# 6 0.0000 0.0000 0.0000 0.0000 0.0000 21.5816
#
#
#
# Elastic Compliance Matrix: (Units=1/GPa)
#
#
# Indices 1 2 3 4 5 6 
#
# 1 0.016759 -0.006409 -0.003196 0.000000 0.000000 0.000000
# 2 -0.006409 0.016759 -0.003196 0.000000 0.000000 0.000000
# 3 -0.003196 -0.003196 0.012179 0.000000 0.000000 0.000000
# 4 0.000000 0.000000 0.000000 0.052455 0.000000 0.000000
# 5 0.000000 0.000000 0.000000 0.000000 0.052455 0.000000
# 6 0.000000 0.000000 0.000000 0.000000 0.000000 0.046336
#
#
# Mechanical properties :
#
#
# Convention : Reuss Voigt Hill
#
# Bulk Modulus (GPa) = 49.75855 49.95404 49.85630
# Shear Modulus (GPa) = 21.81097 22.60002 22.20549
#
# Velocity S-wave (km/s) = 3.56147 3.62531 3.59353
# Velocity P-wave (km/s) = 6.77118 6.82454 6.79791
#
# Compressibility (1/GPa) = 0.02009705
#
# Stress axis : x y z
#
# Youngs Moduli (GPa) = 59.66946 59.66946 82.10735
#
# Poissons Ratio (x) = 0.38241 0.26238
# Poissons Ratio (y) = 0.38241 0.26238
# Poissons Ratio (z) = 0.19068 0.19068
#
# Static dielectric constant tensor:
#      x y z
#    x 1.612990 0.000000 0.000000 
#    y 0.000000 1.612990 0.000000 
#    z 0.000000 0.000000 1.707540 
# 
# From -- ./inp_files/275.got.cif
#   From: 2010.05.17/outbox.cif.g08.bks.cpg/sg186_1_cif.got.tgz:275.got - 2010.05.20 12:07:08.
