data_PCOD9585159
_publ_section_title
;
Structure prediction by ZEFSAII (Michael W. Deem and Ramdas Pophale) SiO2 
 PCOD9585159
Probable space group: P 6 C C
;
_chemical_formula_sum "Si O2"
_cell_formula_units_Z 68
_cell_length_a 12.948729
_cell_length_b 12.948729
_cell_length_c 24.172499
_cell_angle_alpha 90.000000
_cell_angle_beta 90.000000
_cell_angle_gamma 120.000000
_cell_volume 3509.994744
_symmetry_space_group_name_H-M "P 6 C C"
_symmetry_group_IT_number 184
_symmetry_cell_setting 'hexagonal'
loop_
_space_group_symop_operation_xyz
x,y,z
x-y,x,z
-y,x-y,z
-x,-y,z
-x+y,-x,z
y,-x+y,z
-x+y,y,1/2+z
x,x-y,1/2+z
-y,-x,1/2+z
y,x,1/2+z
x-y,-y,1/2+z
-x,-x+y,1/2+z
loop_
_atom_site_type_symbol
_atom_site_label
_atom_site_fract_x
_atom_site_fract_y
_atom_site_fract_z
Si Si1 0.557135 0.639337 0.920710
Si Si2 0.767715 0.017236 0.007043
Si Si3 0.360661 0.442867 0.225576
Si Si4 0.750474 0.982753 0.139241
Si Si5 0.779946 0.737853 0.323143
Si Si6 0.666667 0.333334 0.890997
Si Si7 0.333334 0.666667 0.755296
O O1 0.500000 0.500000 0.909046
O O2 0.658053 0.713895 0.876028
O O3 0.453281 0.672123 0.913335
O O4 0.628095 0.671404 0.978525
O O5 0.764144 0.894962 0.990592
O O6 0.748667 0.999994 0.073142
O O7 0.500000 0.500000 0.237237
O O8 0.328587 0.371911 0.167759
O O9 0.286106 0.341945 0.270257
O O10 0.327875 0.546719 0.232957
O O11 0.764145 0.869174 0.155692
O O12 0.769438 0.854447 0.323143
O O13 0.666668 0.333334 0.823146
#
# Coordination Sequence:
#
# PCOD9585159 Si02
#       7
#    12  12  12  12  12   4   4
#     4  12  25  41  63  92 127 171 219 269 323 393
#     4  10  21  40  66  95 127 166 214 269 328 390
#     4  12  25  41  63  92 127 171 219 269 323 393
#     4  10  21  40  66  95 127 166 214 269 328 390
#     4  12  24  40  62  90 123 158 202 260 324 392
#     4  12  24  42  66  94 134 181 225 271 338 406
#     4  12  24  42  66  94 134 181 225 271 338 406
#
# _framework density 19.373248
#
# number of rings (size 3 to 8) (size 9 to 14) (size 15 to 20)
#    0.000    0.706    1.765    7.412    0.000    2.118 
#    0.000    3.529    0.000    4.235    0.000    0.000 
#    0.000    0.000    0.000    0.000    0.000    0.000 
#
# Total GULP energy -380180.704065 kJ/mol
# GULP energy per Si atom -5590.892707 kJ/mol
# Density = 1.932915 g / cm^3
# Si number density = 19.373248 Si / 1000 Ang^3
#
#
#
# Elastic Constant Matrix: (Units=GPa)
#
#
# Indices 1 2 3 4 5 6 
#
# 1 170.1663 81.0569 45.2037 0.0000 -0.0001 0.0000
# 2 81.0569 170.1664 45.2036 0.0000 0.0000 0.0000
# 3 45.2037 45.2036 52.6458 0.0000 0.0001 0.0000
# 4 0.0000 0.0000 0.0000 118.6832 0.0001 0.0000
# 5 -0.0001 0.0000 0.0001 0.0001 118.6812 0.0000
# 6 0.0000 0.0000 0.0000 0.0000 0.0000 44.5547
#
#
#
# Elastic Compliance Matrix: (Units=1/GPa)
#
#
# Indices 1 2 3 4 5 6 
#
# 1 0.008491 -0.002731 -0.004946 0.000000 0.000000 0.000000
# 2 -0.002731 0.008491 -0.004946 0.000000 0.000000 0.000000
# 3 -0.004946 -0.004946 0.027489 0.000000 0.000000 0.000000
# 4 0.000000 0.000000 0.000000 0.008426 0.000000 0.000000
# 5 0.000000 0.000000 0.000000 0.000000 0.008426 0.000000
# 6 0.000000 0.000000 0.000000 0.000000 0.000000 0.022444
#
#
# Mechanical properties :
#
#
# Convention : Reuss Voigt Hill
#
# Bulk Modulus (GPa) = 52.01536 81.76742 66.89139
# Shear Modulus (GPa) = 43.31921 71.15144 57.23532
#
# Velocity S-wave (km/s) = 4.73380 6.06683 5.44129
# Velocity P-wave (km/s) = 7.53564 9.55893 8.60694
#
# Compressibility (1/GPa) = 0.01922509
#
# Stress axis : x y z
#
# Youngs Moduli (GPa) = 117.76721 117.76729 36.37844
#
# Poissons Ratio (x) = 0.32160 0.17993
# Poissons Ratio (y) = 0.32160 0.17993
# Poissons Ratio (z) = 0.58250 0.58250
#
# Static dielectric constant tensor:
#      x y z
#    x 1.649980 0.000000 0.000000 
#    y 0.000000 1.649980 0.000000 
#    z 0.000000 0.000000 1.757100 
# 
# From -- ./inp_files/1401.got.cif
#   From: 2010.05.17/outbox.cif.g08.bks.cpg/sg184_cif.got.tgz:1401.got - 2010.05.20 12:04:40.
