data_PCOD9585168
_publ_section_title
;
Structure prediction by ZEFSAII (Michael W. Deem and Ramdas Pophale) SiO2 
 PCOD9585168
Probable space group: P 6 C C
;
_chemical_formula_sum "Si O2"
_cell_formula_units_Z 84
_cell_length_a 18.157731
_cell_length_b 18.157731
_cell_length_c 13.806026
_cell_angle_alpha 90.000000
_cell_angle_beta 90.000000
_cell_angle_gamma 120.000000
_cell_volume 3942.053140
_symmetry_space_group_name_H-M "P 6 C C"
_symmetry_group_IT_number 184
_symmetry_cell_setting 'hexagonal'
loop_
_space_group_symop_operation_xyz
x,y,z
x-y,x,z
-y,x-y,z
-x,-y,z
-x+y,-x,z
y,-x+y,z
-x+y,y,1/2+z
x,x-y,1/2+z
-y,-x,1/2+z
y,x,1/2+z
x-y,-y,1/2+z
-x,-x+y,1/2+z
loop_
_atom_site_type_symbol
_atom_site_label
_atom_site_fract_x
_atom_site_fract_y
_atom_site_fract_z
Si Si1 0.233501 0.508910 0.495200
Si Si2 0.423042 0.598168 0.865591
Si Si3 0.077789 0.877910 0.592877
Si Si4 0.262405 0.924441 0.231138
Si Si5 0.514332 0.285160 0.202146
Si Si6 0.905203 0.588134 0.789536
Si Si7 0.164770 0.836854 0.426629
O O1 0.167892 0.533678 0.449206
O O2 0.310877 0.544720 0.417941
O O3 0.276951 0.546078 0.597362
O O4 0.184665 0.406882 0.497172
O O5 0.359716 0.579164 0.773838
O O6 0.508389 0.598501 0.833497
O O7 0.093748 0.818350 0.666538
O O8 0.107974 0.864375 0.487306
O O9 0.978603 0.845467 0.607108
O O10 0.300624 0.866021 0.196904
O O11 0.225608 0.898588 0.341200
O O12 0.341648 0.019695 0.225890
O O13 0.464881 0.187438 0.239954
O O14 0.895310 0.643097 0.873912
#
# Coordination Sequence:
#
# PCOD9585168 Si02
#       7
#    12  12  12  12  12  12  12
#     4  11  23  40  66  99 131 181 230 286 354 419
#     4  11  22  41  64  97 136 171 228 293 350 414
#     4  12  25  42  71 105 141 182 238 301 361 431
#     4  11  22  44  71  95 138 188 232 288 358 433
#     4  11  23  42  64  95 136 173 234 281 347 431
#     4  10  23  41  67  98 134 182 229 283 352 427
#     4  10  21  44  67  98 134 181 236 280 357 439
#
# _framework density 21.308692000000001
#
# number of rings (size 3 to 8) (size 9 to 14) (size 15 to 20)
#    0.000    1.143    5.714    3.000    2.000    0.571 
#    0.000    0.000    0.000    1.714    0.000    0.000 
#    0.000    0.000    0.000    0.000    0.000    0.000 
#
# Total GULP energy -468379.092684 kJ/mol
# GULP energy per Si atom -5575.941580 kJ/mol
# Density = 2.126019 g / cm^3
# Si number density = 21.308692 Si / 1000 Ang^3
#
#
#
# Elastic Constant Matrix: (Units=GPa)
#
#
# Indices 1 2 3 4 5 6 
#
# 1 82.6513 32.8985 17.6917 0.0000 0.0000 0.0000
# 2 32.8985 82.6513 17.6917 0.0000 0.0000 0.0000
# 3 17.6917 17.6917 102.6188 0.0000 0.0000 0.0000
# 4 0.0000 0.0000 0.0000 24.5771 0.0000 0.0000
# 5 0.0000 0.0000 0.0000 0.0000 24.5771 0.0000
# 6 0.0000 0.0000 0.0000 0.0000 0.0000 24.8764
#
#
#
# Elastic Compliance Matrix: (Units=1/GPa)
#
#
# Indices 1 2 3 4 5 6 
#
# 1 0.014618 -0.005481 -0.001575 0.000000 0.000000 0.000000
# 2 -0.005481 0.014618 -0.001575 0.000000 0.000000 0.000000
# 3 -0.001575 -0.001575 0.010288 0.000000 0.000000 0.000000
# 4 0.000000 0.000000 0.000000 0.040688 0.000000 0.000000
# 5 0.000000 0.000000 0.000000 0.000000 0.040688 0.000000
# 6 0.000000 0.000000 0.000000 0.000000 0.000000 0.040199
#
#
# Mechanical properties :
#
#
# Convention : Reuss Voigt Hill
#
# Bulk Modulus (GPa) = 44.92268 44.94282 44.93275
# Shear Modulus (GPa) = 26.91315 28.11542 27.51429
#
# Velocity S-wave (km/s) = 3.55774 3.63634 3.59726
# Velocity P-wave (km/s) = 6.16477 6.22638 6.19565
#
# Compressibility (1/GPa) = 0.02226047
#
# Stress axis : x y z
#
# Youngs Moduli (GPa) = 68.40883 68.40883 97.20126
#
# Poissons Ratio (x) = 0.37497 0.15311
# Poissons Ratio (y) = 0.37497 0.15311
# Poissons Ratio (z) = 0.10776 0.10776
#
# Static dielectric constant tensor:
#      x y z
#    x 1.819980 0.000000 0.000000 
#    y 0.000000 1.819980 0.000000 
#    z 0.000000 0.000000 1.839410 
# 
# From -- ./inp_files/944.got.cif
#   From: 2010.05.17/outbox.cif.g08.bks.cpg/sg184_cif.got.tgz:944.got - 2010.05.20 12:04:40.
