data_PCOD9585312
_publ_section_title
;
Structure prediction by ZEFSAII (Michael W. Deem and Ramdas Pophale) SiO2 
 PCOD9585312
Probable space group: P 63 C M
;
_chemical_formula_sum "Si O2"
_cell_formula_units_Z 36
_cell_length_a 9.901971
_cell_length_b 9.901971
_cell_length_c 16.699153
_cell_angle_alpha 90.000000
_cell_angle_beta 90.000000
_cell_angle_gamma 120.000000
_cell_volume 1417.974352
_symmetry_space_group_name_H-M "P 63 C M"
_symmetry_group_IT_number 185
_symmetry_cell_setting 'hexagonal'
loop_
_space_group_symop_operation_xyz
x,y,z
x-y,x,1/2+z
-y,x-y,z
-x,-y,1/2+z
-x+y,-x,z
y,-x+y,1/2+z
-x+y,y,1/2+z
x,x-y,1/2+z
-y,-x,1/2+z
y,x,z
x-y,-y,z
-x,-x+y,z
loop_
_atom_site_type_symbol
_atom_site_label
_atom_site_fract_x
_atom_site_fract_y
_atom_site_fract_z
Si Si1 0.742352 0.000000 0.888840
Si Si2 0.477361 0.477361 0.489727
Si Si3 0.333334 0.666668 0.737107
Si Si4 0.000000 0.000000 0.492884
Si Si5 0.522639 0.000000 0.680355
Si Si6 0.666668 0.333334 0.432976
Si Si7 0.000000 0.000000 0.677199
Si Si8 0.257648 0.257648 0.281242
O O1 0.850546 0.000000 0.959176
O O2 0.851425 0.148575 0.835041
O O3 0.597653 0.000000 0.925661
O O4 0.502963 0.502963 0.585041
O O5 0.513478 0.336780 0.468869
O O6 0.336780 0.513478 0.701213
O O7 0.333334 0.666667 0.835041
O O8 0.000000 0.000000 0.585041
O O9 0.402347 0.000000 0.744422
O O10 0.850546 0.850546 0.710906
#
# Coordination Sequence:
#
# PCOD9585312 Si02
#       8
#     6   6   4   2   6   4   2   6
#     4   9  19  36  59  90 134 183 232 282 347 426
#     4  12  25  45  70 104 140 181 234 298 356 416
#     4  12  28  50  76 105 145 194 241 291 358 434
#     4   9  16  29  52  90 130 176 229 288 346 410
#     4  12  25  45  70 104 140 181 234 298 356 416
#     4  12  28  50  76 105 145 194 241 291 358 434
#     4   9  16  29  52  90 130 176 229 288 346 410
#     4   9  19  36  59  90 134 183 232 282 347 426
#
# _framework density 25.388327
#
# number of rings (size 3 to 8) (size 9 to 14) (size 15 to 20)
#    0.000    1.333    0.000    7.333    0.000    5.333 
#    0.000   10.000    0.000    1.333    0.000    4.667 
#    0.000    0.000    0.000    0.000    0.000    0.000 
#
# Total GULP energy -201161.474388 kJ/mol
# GULP energy per Si atom -5587.818733 kJ/mol
# Density = 2.533054 g / cm^3
# Si number density = 25.388327 Si / 1000 Ang^3
#
#
#
# Elastic Constant Matrix: (Units=GPa)
#
#
# Indices 1 2 3 4 5 6 
#
# 1 93.8045 5.8310 33.7989 0.0000 0.0002 0.0004
# 2 5.8310 93.8058 33.7990 -0.0001 0.0001 0.0004
# 3 33.7989 33.7990 240.2836 0.0000 0.0001 0.0001
# 4 0.0000 -0.0001 0.0000 3.8378 0.0003 0.0001
# 5 0.0002 0.0001 0.0001 0.0003 3.8367 0.0000
# 6 0.0004 0.0004 0.0001 0.0001 0.0000 43.9871
#
#
#
# Elastic Compliance Matrix: (Units=1/GPa)
#
#
# Indices 1 2 3 4 5 6 
#
# 1 0.011231 -0.000136 -0.001561 0.000000 -0.000001 0.000000
# 2 -0.000136 0.011231 -0.001561 0.000000 0.000000 0.000000
# 3 -0.001561 -0.001561 0.004601 0.000000 0.000000 0.000000
# 4 0.000000 0.000000 0.000000 0.260567 -0.000023 0.000000
# 5 -0.000001 0.000000 0.000000 -0.000023 0.260638 0.000000
# 6 0.000000 0.000000 0.000000 0.000000 0.000000 0.022734
#
#
# Mechanical properties :
#
#
# Convention : Reuss Voigt Hill
#
# Bulk Modulus (GPa) = 48.66480 63.86132 56.26306
# Shear Modulus (GPa) = 8.55629 33.96332 21.25980
#
# Velocity S-wave (km/s) = 1.83779 3.66150 2.89690
# Velocity P-wave (km/s) = 4.86961 6.56383 5.77914
#
# Compressibility (1/GPa) = 0.02054873
#
# Stress axis : x y z
#
# Youngs Moduli (GPa) = 89.03723 89.03850 217.35271
#
# Poissons Ratio (x) = 0.01209 0.33923
# Poissons Ratio (y) = 0.01209 0.33922
# Poissons Ratio (z) = 0.13896 0.13896
#
# Static dielectric constant tensor:
#      x y z
#    x 2.159210 0.000000 0.000000 
#    y 0.000000 2.159200 0.000000 
#    z 0.000000 0.000000 1.866500 
# 
# From -- ./inp_files/1177.got.cif
#   From: 2010.05.17/outbox.cif.g08.bks.cpg/sg185_cif.got.tgz:1177.got - 2010.05.20 12:05:34.
