data_PCOD9585385
_publ_section_title
;
Structure prediction by ZEFSAII (Michael W. Deem and Ramdas Pophale) SiO2 
 PCOD9585385
Probable space group: P 63 M C
;
_chemical_formula_sum "Si O2"
_cell_formula_units_Z 84
_cell_length_a 19.904586
_cell_length_b 19.904586
_cell_length_c 13.629666
_cell_angle_alpha 90.000000
_cell_angle_beta 90.000000
_cell_angle_gamma 120.000000
_cell_volume 4676.512970
_symmetry_space_group_name_H-M "P 63 M C"
_symmetry_group_IT_number 186
_symmetry_cell_setting 'hexagonal'
loop_
_space_group_symop_operation_xyz
x,y,z
x-y,x,1/2+z
-y,x-y,z
-x,-y,1/2+z
-x+y,-x,z
y,-x+y,1/2+z
-x+y,y,z
x,x-y,z
-y,-x,z
y,x,1/2+z
x-y,-y,1/2+z
-x,-x+y,1/2+z
loop_
_atom_site_type_symbol
_atom_site_label
_atom_site_fract_x
_atom_site_fract_y
_atom_site_fract_z
Si Si1 0.666357 0.175129 0.927860
Si Si2 0.945800 0.306311 0.227213
Si Si3 0.379207 0.471079 0.227814
Si Si4 0.307856 0.846874 0.019444
Si Si5 0.336511 0.822072 0.805209
Si Si6 0.071172 0.778347 0.927599
Si Si7 0.910615 0.661423 0.010196
O O1 0.584172 0.168344 0.957558
O O2 0.739441 0.260559 0.948846
O O3 0.660263 0.157544 0.810963
O O4 0.686131 0.111671 0.974269
O O5 0.886051 0.338197 0.234266
O O6 0.923613 0.246425 0.316492
O O7 0.936306 0.267183 0.122966
O O8 0.029705 0.381123 0.242442
O O9 0.471415 0.528586 0.241353
O O10 0.357302 0.480164 0.117255
O O11 0.242763 0.757238 0.032985
O O12 0.262550 0.893520 0.997184
O O13 0.350832 0.853505 0.917156
O O14 0.399475 0.798949 0.778030
O O15 0.251094 0.748907 0.803361
O O16 0.129274 0.870727 0.938516
O O17 0.980560 0.733027 0.953339
O O18 0.832067 0.664133 0.999927
#
# Coordination Sequence:
#
# PCOD9585385 Si02
#       7
#    12  12  12  12  12  12  12
#     4  10  22  38  56  80 116 160 204 245 288 338
#     4  11  21  37  54  82 112 145 182 233 290 337
#     4  11  20  31  52  81 113 148 192 242 286 336
#     4   9  18  33  52  75 107 142 183 232 282 332
#     4  10  20  34  51  73 103 144 190 236 285 340
#     4  10  20  38  60  83 111 144 182 227 286 343
#     4  11  22  39  60  86 117 149 191 237 285 346
#
# _framework density 17.962102000000002
#
# number of rings (size 3 to 8) (size 9 to 14) (size 15 to 20)
#    0.000    1.714    2.857    3.714    0.000    1.143 
#    0.000    0.714    0.000    6.571    0.000    0.000 
#    0.000    0.000    0.000    0.000    0.000    0.000 
#
# Total GULP energy -468407.434175 kJ/mol
# GULP energy per Si atom -5576.278978 kJ/mol
# Density = 1.792122 g / cm^3
# Si number density = 17.962102 Si / 1000 Ang^3
#
#
#
# Elastic Constant Matrix: (Units=GPa)
#
#
# Indices 1 2 3 4 5 6 
#
# 1 75.2041 31.9848 10.1162 0.0000 0.0000 0.0000
# 2 31.9848 75.2041 10.1162 0.0000 0.0000 0.0000
# 3 10.1162 10.1162 60.1765 0.0000 0.0000 0.0000
# 4 0.0000 0.0000 0.0000 15.6363 0.0000 0.0000
# 5 0.0000 0.0000 0.0000 0.0000 15.6363 0.0000
# 6 0.0000 0.0000 0.0000 0.0000 0.0000 21.6097
#
#
#
# Elastic Compliance Matrix: (Units=1/GPa)
#
#
# Indices 1 2 3 4 5 6 
#
# 1 0.016386 -0.006751 -0.001620 0.000000 0.000000 0.000000
# 2 -0.006751 0.016386 -0.001620 0.000000 0.000000 0.000000
# 3 -0.001620 -0.001620 0.017162 0.000000 0.000000 0.000000
# 4 0.000000 0.000000 0.000000 0.063954 0.000000 0.000000
# 5 0.000000 0.000000 0.000000 0.000000 0.063954 0.000000
# 6 0.000000 0.000000 0.000000 0.000000 0.000000 0.046276
#
#
# Mechanical properties :
#
#
# Convention : Reuss Voigt Hill
#
# Bulk Modulus (GPa) = 33.38504 35.00212 34.19358
# Shear Modulus (GPa) = 19.67849 21.13429 20.40639
#
# Velocity S-wave (km/s) = 3.31351 3.43389 3.37424
# Velocity P-wave (km/s) = 5.76766 5.93726 5.85307
#
# Compressibility (1/GPa) = 0.02995354
#
# Stress axis : x y z
#
# Youngs Moduli (GPa) = 61.02616 61.02616 58.26701
#
# Poissons Ratio (x) = 0.41201 0.09438
# Poissons Ratio (y) = 0.41201 0.09438
# Poissons Ratio (z) = 0.09885 0.09885
#
# Static dielectric constant tensor:
#      x y z
#    x 1.620100 0.000000 0.000000 
#    y 0.000000 1.620100 0.000000 
#    z 0.000000 0.000000 1.620710 
# 
# From -- ./inp_files/1924.got.cif
#   From: 2010.05.17/outbox.cif.g08.bks.cpg/sg186_1_cif.got.tgz:1924.got - 2010.05.20 12:07:08.
