data_PCOD9585827
_publ_section_title
;
Structure prediction by ZEFSAII (Michael W. Deem and Ramdas Pophale) SiO2 
 PCOD9585827
Probable space group: P -6 M 2
;
_chemical_formula_sum "Si O2"
_cell_formula_units_Z 96
_cell_length_a 18.000000
_cell_length_b 18.000000
_cell_length_c 21.000000
_cell_angle_alpha 90.000000
_cell_angle_beta 90.000000
_cell_angle_gamma 120.000000
_cell_volume 5892.436847
_symmetry_space_group_name_H-M "P -6 M 2"
_symmetry_group_IT_number 187
_symmetry_cell_setting 'hexagonal'
loop_
_space_group_symop_operation_xyz
x,y,z
-x+y,-x,-z
-y,x-y,z
x,y,-z
-x+y,-x,z
-y,x-y,-z
-y,-x,-z
-x+y,y,-z
x,x-y,-z
-x+y,y,z
x,x-y,z
-y,-x,z
loop_
_atom_site_type_symbol
_atom_site_label
_atom_site_fract_x
_atom_site_fract_y
_atom_site_fract_z
Si Si1 0.666597 0.155583 0.803200
Si Si2 0.999763 0.175870 0.787220
Si Si3 0.607391 0.566917 0.926862
Si Si4 0.331690 0.488185 0.254789
Si Si5 0.644861 0.736815 0.861848
Si Si6 0.171953 0.000109 0.638109
Si Si7 0.424708 0.026628 0.313194
Si Si8 0.352701 0.088647 0.574023
O O1 0.586915 0.173830 0.797491
O O2 0.757734 0.242267 0.795996
O O3 0.656732 0.111985 0.872417
O O4 0.650730 0.084844 0.748892
O O5 0.907138 0.092863 0.803570
O O6 0.076532 0.153064 0.793054
O O7 0.030909 0.262601 0.827807
O O8 0.997079 0.196002 0.712227
O O9 0.507084 0.492917 0.919174
O O10 0.625219 0.662106 0.911901
O O11 0.631247 0.561281 0.000000
O O12 0.247398 0.494796 0.273295
O O13 0.417291 0.582710 0.248158
O O14 0.305850 0.432197 0.189917
O O15 0.358033 0.432428 0.300692
O O16 0.647408 0.823704 0.885517
O O17 0.093303 0.906698 0.624412
O O18 0.143067 0.071534 0.633192
O O19 0.252592 0.029754 0.592400
O O20 0.516837 0.033674 0.320395
O O21 0.402216 0.063391 0.374962
O O22 0.367788 0.077305 0.500000
O O23 0.373181 0.186591 0.582783
#
# Coordination Sequence:
#
# PCOD9585827 Si02
#       8
#    12  12  12  12  12  12  12  12
#     4  10  20  35  56  80 105 134 170 210 256 309
#     4   9  17  29  47  73 104 138 174 215 261 307
#     4  10  21  37  54  74 105 141 173 210 260 313
#     4  10  19  33  53  78 107 136 170 214 266 321
#     4  10  19  31  50  76 105 136 175 219 260 308
#     4   9  17  29  46  69 100 137 175 210 247 293
#     4  10  20  35  56  79 103 132 169 215 261 308
#     4  10  21  35  50  73 105 138 171 208 255 309
#
# _framework density 16.292071
#
# number of rings (size 3 to 8) (size 9 to 14) (size 15 to 20)
#    0.000    2.250    1.250    2.000    0.000    4.000 
#    0.000    0.000    0.000    2.000    0.000    0.000 
#    0.000    2.000    0.000    0.000    0.000    0.000 
#
# Total GULP energy -535360.284589 kJ/mol
# GULP energy per Si atom -5576.669631 kJ/mol
# Density = 1.625499 g / cm^3
# Si number density = 16.292071 Si / 1000 Ang^3
#
#
#
# Elastic Constant Matrix: (Units=GPa)
#
#
# Indices 1 2 3 4 5 6 
#
# 1 99.0839 47.0399 48.1205 0.0000 0.0002 0.0000
# 2 47.0399 99.0839 48.1205 0.0000 -0.0002 0.0000
# 3 48.1205 48.1205 98.4672 0.0000 0.0000 0.0000
# 4 0.0000 0.0000 0.0000 23.8114 0.0000 -0.0002
# 5 0.0002 -0.0002 0.0000 0.0000 23.8114 0.0000
# 6 0.0000 0.0000 0.0000 -0.0002 0.0000 26.0220
#
#
#
# Elastic Compliance Matrix: (Units=1/GPa)
#
#
# Indices 1 2 3 4 5 6 
#
# 1 0.014653 -0.004561 -0.004932 0.000000 0.000000 0.000000
# 2 -0.004561 0.014653 -0.004932 0.000000 0.000000 0.000000
# 3 -0.004932 -0.004932 0.014976 0.000000 0.000000 0.000000
# 4 0.000000 0.000000 0.000000 0.041997 0.000000 0.000000
# 5 0.000000 0.000000 0.000000 0.000000 0.041997 0.000000
# 6 0.000000 0.000000 0.000000 0.000000 0.000000 0.038429
#
#
# Mechanical properties :
#
#
# Convention : Reuss Voigt Hill
#
# Bulk Modulus (GPa) = 64.79933 64.79965 64.79949
# Shear Modulus (GPa) = 24.91298 24.95256 24.93277
#
# Velocity S-wave (km/s) = 3.91467 3.91778 3.91623
# Velocity P-wave (km/s) = 7.76484 7.76695 7.76589
#
# Compressibility (1/GPa) = 0.01543226
#
# Stress axis : x y z
#
# Youngs Moduli (GPa) = 68.24490 68.24490 66.77375
#
# Poissons Ratio (x) = 0.31129 0.32931
# Poissons Ratio (y) = 0.31129 0.32931
# Poissons Ratio (z) = 0.33657 0.33657
#
# Static dielectric constant tensor:
#      x y z
#    x 1.550590 0.000000 0.000000 
#    y 0.000000 1.550590 0.000000 
#    z 0.000000 0.000000 1.534340 
# 
# From -- ./inp_files/3805.got.cif
#   From: 2010.05.17/outbox.ucp.g08.bks.cvg/sg187_2_cif.got.tgz:3805.got - 2010.06.11 15:21:44.
