data_PCOD9585643
_publ_section_title
;
Structure prediction by ZEFSAII (Michael W. Deem and Ramdas Pophale) SiO2 
 PCOD9585643
Probable space group: P -6 M 2
;
_chemical_formula_sum "Si O2"
_cell_formula_units_Z 72
_cell_length_a 12.677265
_cell_length_b 12.677265
_cell_length_c 31.812734
_cell_angle_alpha 90.000000
_cell_angle_beta 90.000000
_cell_angle_gamma 120.000000
_cell_volume 4427.746652
_symmetry_space_group_name_H-M "P -6 M 2"
_symmetry_group_IT_number 187
_symmetry_cell_setting 'hexagonal'
loop_
_space_group_symop_operation_xyz
x,y,z
-x+y,-x,-z
-y,x-y,z
x,y,-z
-x+y,-x,z
-y,x-y,-z
-y,-x,-z
-x+y,y,-z
x,x-y,-z
-x+y,y,z
x,x-y,z
-y,-x,z
loop_
_atom_site_type_symbol
_atom_site_label
_atom_site_fract_x
_atom_site_fract_y
_atom_site_fract_z
Si Si1 0.081923 0.666351 0.500000
Si Si2 0.333813 0.917324 0.163899
Si Si3 0.415408 0.082130 0.245523
Si Si4 0.080260 0.414114 0.407952
Si Si5 0.999413 0.250068 0.000000
Si Si6 0.999298 0.250546 0.672623
Si Si7 0.666639 0.584538 0.918089
O O1 0.210381 0.789620 0.500000
O O2 0.103626 0.551813 0.500000
O O3 0.025129 0.662645 0.545571
O O4 0.443348 0.886696 0.164125
O O5 0.204393 0.795607 0.163016
O O6 0.351036 0.996232 0.205542
O O7 0.354969 0.000200 0.123008
O O8 0.548682 0.097364 0.249311
O O9 0.424793 0.212397 0.239513
O O10 0.337787 0.022721 0.287539
O O11 0.217630 0.435260 0.407396
O O12 0.084003 0.542002 0.402476
O O13 0.010182 0.323716 0.369988
O O14 0.979635 0.311534 0.041241
O O15 0.890320 0.109681 0.000000
O O16 0.129262 0.258523 0.000000
O O17 0.885060 0.114941 0.670141
O O18 0.124152 0.248305 0.677671
O O19 0.785648 0.571296 0.912849
O O20 0.547233 0.452767 0.923755
#
# Coordination Sequence:
#
# PCOD9585643 Si02
#       7
#     6  12  12  12   6  12  12
#     4   8  13  22  39  64  92 118 144 180 230 286
#     4  10  20  34  52  74 101 132 164 198 238 286
#     4  10  20  34  53  75  98 124 156 198 245 291
#     4   9  16  27  45  69  94 118 147 187 237 288
#     4  10  20  34  52  74 102 136 172 210 252 300
#     4  10  20  33  48  66  92 127 164 199 234 277
#     4  10  20  34  54  78 104 134 168 209 253 296
#
# _framework density 16.261092999999999
#
# number of rings (size 3 to 8) (size 9 to 14) (size 15 to 20)
#    0.000    2.333    0.000    3.250    0.000    1.333 
#    0.000    2.917    0.000   12.667    0.000    1.167 
#    0.000    0.000    0.000    0.000    0.000    0.000 
#
# Total GULP energy -401460.651434 kJ/mol
# GULP energy per Si atom -5575.842381 kJ/mol
# Density = 1.622408 g / cm^3
# Si number density = 16.261093 Si / 1000 Ang^3
#
#
#
# Elastic Constant Matrix: (Units=GPa)
#
#
# Indices 1 2 3 4 5 6 
#
# 1 111.9617 67.5308 88.3057 0.0000 0.0003 0.0000
# 2 67.5308 111.9617 88.3057 0.0000 -0.0003 0.0000
# 3 88.3057 88.3057 173.6567 0.0000 0.0000 0.0000
# 4 0.0000 0.0000 0.0000 23.4564 0.0000 -0.0003
# 5 0.0003 -0.0003 0.0000 0.0000 23.4564 0.0000
# 6 0.0000 0.0000 0.0000 -0.0003 0.0000 22.2155
#
#
#
# Elastic Compliance Matrix: (Units=1/GPa)
#
#
# Indices 1 2 3 4 5 6 
#
# 1 0.016829 -0.005678 -0.005670 0.000000 0.000000 0.000000
# 2 -0.005678 0.016829 -0.005670 0.000000 0.000000 0.000000
# 3 -0.005670 -0.005670 0.011525 0.000000 0.000000 0.000000
# 4 0.000000 0.000000 0.000000 0.042632 0.000000 0.000001
# 5 0.000000 0.000000 0.000000 0.000000 0.042632 0.000000
# 6 0.000000 0.000000 0.000000 0.000001 0.000000 0.045014
#
#
# Mechanical properties :
#
#
# Convention : Reuss Voigt Hill
#
# Bulk Modulus (GPa) = 89.72234 98.42940 94.07587
# Shear Modulus (GPa) = 23.45083 24.05483 23.75283
#
# Velocity S-wave (km/s) = 3.80168 3.85032 3.82608
# Velocity P-wave (km/s) = 8.63517 8.96820 8.80326
#
# Compressibility (1/GPa) = 0.01114550
#
# Stress axis : x y z
#
# Youngs Moduli (GPa) = 59.42288 59.42288 86.76833
#
# Poissons Ratio (x) = 0.33742 0.49197
# Poissons Ratio (y) = 0.33742 0.49197
# Poissons Ratio (z) = 0.33693 0.33693
#
# Static dielectric constant tensor:
#      x y z
#    x 1.506880 0.000000 0.000000 
#    y 0.000000 1.506880 0.000000 
#    z 0.000000 0.000000 1.554310 
# 
# From -- ./inp_files/4541.got.cif
#   From: 2010.05.17/outbox.cif.g08.bks.cpg/sg187_3_cif.got.tgz:4541.got - 2010.05.20 12:09:04.
