data_PCOD9585819
_publ_section_title
;
Structure prediction by ZEFSAII (Michael W. Deem and Ramdas Pophale) SiO2 
 PCOD9585819
Probable space group: P -6 M 2
;
_chemical_formula_sum "Si O2"
_cell_formula_units_Z 60
_cell_length_a 21.889453
_cell_length_b 21.889453
_cell_length_c 9.326396
_cell_angle_alpha 90.000000
_cell_angle_beta 90.000000
_cell_angle_gamma 120.000000
_cell_volume 3870.029731
_symmetry_space_group_name_H-M "P -6 M 2"
_symmetry_group_IT_number 187
_symmetry_cell_setting 'hexagonal'
loop_
_space_group_symop_operation_xyz
x,y,z
-x+y,-x,-z
-y,x-y,z
x,y,-z
-x+y,-x,z
-y,x-y,-z
-y,-x,-z
-x+y,y,-z
x,x-y,-z
-x+y,y,z
x,x-y,z
-y,-x,z
loop_
_atom_site_type_symbol
_atom_site_label
_atom_site_fract_x
_atom_site_fract_y
_atom_site_fract_z
Si Si1 0.379530 0.119657 0.827944
Si Si2 0.502071 0.751036 0.336024
Si Si3 0.287383 0.328889 0.828038
Si Si4 0.163318 0.836683 0.335870
Si Si5 0.123886 0.630306 0.828923
Si Si6 0.525872 0.191623 0.671116
O O1 0.360465 0.180233 0.790709
O O2 0.453690 0.142218 0.753005
O O3 0.322198 0.040252 0.788073
O O4 0.388488 0.121117 0.000000
O O5 0.477036 0.738518 0.500000
O O6 0.587708 0.793854 0.337419
O O7 0.482546 0.802971 0.252857
O O8 0.214687 0.306439 0.747521
O O9 0.341654 0.411685 0.793273
O O10 0.276206 0.324840 0.000000
O O11 0.151094 0.848907 0.500000
O O12 0.097680 0.548840 0.795812
O O13 0.136423 0.640238 0.000000
O O14 0.515588 0.179631 0.500000
O O15 0.590889 0.181778 0.715592
O O16 0.543936 0.271968 0.697126
#
# Coordination Sequence:
#
# PCOD9585819 Si02
#       6
#    12   6  12   6  12  12
#     4   9  18  31  46  67  95 123 150 185 230 276
#     4   9  17  29  43  59  81 107 135 175 225 263
#     4   9  17  30  48  67  90 119 148 180 221 268
#     4   9  17  29  47  69  89 109 139 179 217 257
#     4   9  17  29  44  61  81 110 149 186 218 258
#     4   9  17  29  44  61  84 119 163 206 244 281
#
# _framework density 15.503757999999999
#
# number of rings (size 3 to 8) (size 9 to 14) (size 15 to 20)
#    0.000    3.000    0.000    0.800    0.000    5.600 
#    0.600    2.000    0.000    1.200    0.000    0.000 
#    1.000    0.000    1.800    0.000    0.600    0.000 
#
# Total GULP energy -334195.380978 kJ/mol
# GULP energy per Si atom -5569.923016 kJ/mol
# Density = 1.546847 g / cm^3
# Si number density = 15.503758 Si / 1000 Ang^3
#
#
#
# Elastic Constant Matrix: (Units=GPa)
#
#
# Indices 1 2 3 4 5 6 
#
# 1 99.5772 77.9945 43.3838 0.0000 -0.0001 0.0000
# 2 77.9945 99.5772 43.3838 0.0000 0.0001 0.0000
# 3 43.3838 43.3838 30.9356 0.0000 0.0000 0.0000
# 4 0.0000 0.0000 0.0000 15.9652 0.0000 0.0001
# 5 -0.0001 0.0001 0.0000 0.0000 15.9652 0.0000
# 6 0.0000 0.0000 0.0000 0.0001 0.0000 10.7914
#
#
#
# Elastic Compliance Matrix: (Units=1/GPa)
#
#
# Indices 1 2 3 4 5 6 
#
# 1 0.032113 -0.014220 -0.025092 0.000000 0.000000 0.000000
# 2 -0.014220 0.032113 -0.025092 0.000000 0.000000 0.000000
# 3 -0.025092 -0.025092 0.102703 0.000000 0.000000 0.000000
# 4 0.000000 0.000000 0.000000 0.062636 0.000000 -0.000001
# 5 0.000000 0.000000 0.000000 0.000000 0.062636 0.000000
# 6 0.000000 0.000000 0.000000 -0.000001 0.000000 0.092667
#
#
# Mechanical properties :
#
#
# Convention : Reuss Voigt Hill
#
# Bulk Modulus (GPa) = 26.23328 62.17935 44.20631
# Shear Modulus (GPa) = 9.49875 12.89953 11.19914
#
# Velocity S-wave (km/s) = 2.47791 2.88762 2.69057
# Velocity P-wave (km/s) = 5.01438 7.16316 6.18283
#
# Compressibility (1/GPa) = 0.03811952
#
# Stress axis : x y z
#
# Youngs Moduli (GPa) = 31.14013 31.14013 9.73677
#
# Poissons Ratio (x) = 0.44283 0.24432
# Poissons Ratio (y) = 0.44283 0.24432
# Poissons Ratio (z) = 0.78137 0.78137
#
# Static dielectric constant tensor:
#      x y z
#    x 1.503200 0.000000 0.000000 
#    y 0.000000 1.503200 0.000000 
#    z 0.000000 0.000000 1.518430 
# 
# From -- ./inp_files/678.got.cif
#   From: 2010.05.17/outbox.cif.g08.bks.cpg/sg187_1_cif.got.tgz:678.got - 2010.05.20 12:09:04.
