data_PCOD9585670
_publ_section_title
;
Structure prediction by ZEFSAII (Michael W. Deem and Ramdas Pophale) SiO2 
 PCOD9585670
Probable space group: P -6 M 2
;
_chemical_formula_sum "Si O2"
_cell_formula_units_Z 66
_cell_length_a 12.753361
_cell_length_b 12.753361
_cell_length_c 28.667759
_cell_angle_alpha 90.000000
_cell_angle_beta 90.000000
_cell_angle_gamma 120.000000
_cell_volume 4038.068509
_symmetry_space_group_name_H-M "P -6 M 2"
_symmetry_group_IT_number 187
_symmetry_cell_setting 'hexagonal'
loop_
_space_group_symop_operation_xyz
x,y,z
-x+y,-x,-z
-y,x-y,z
x,y,-z
-x+y,-x,z
-y,x-y,-z
-y,-x,-z
-x+y,y,-z
x,x-y,-z
-x+y,y,z
x,x-y,z
-y,-x,z
loop_
_atom_site_type_symbol
_atom_site_label
_atom_site_fract_x
_atom_site_fract_y
_atom_site_fract_z
Si Si1 0.417419 0.333189 0.319796
Si Si2 0.666784 0.084854 0.053151
Si Si3 0.083905 0.666432 0.770269
Si Si4 0.582473 0.667380 0.500000
Si Si5 0.750760 0.751413 0.140215
Si Si6 0.750683 0.000295 0.410162
O O1 0.432607 0.216304 0.313082
O O2 0.546883 0.453118 0.327428
O O3 0.358217 0.356210 0.274242
O O4 0.331038 0.306822 0.364311
O O5 0.540084 0.080168 0.060479
O O6 0.776873 0.223128 0.056707
O O7 0.690854 0.011048 0.092535
O O8 0.669037 0.044244 0.000000
O O9 0.100166 0.550083 0.775912
O O10 0.212748 0.787253 0.763198
O O11 0.023934 0.686254 0.816290
O O12 0.462154 0.537847 0.500000
O O13 0.550358 0.775179 0.500000
O O14 0.663998 0.687945 0.545620
O O15 0.876428 0.752855 0.146704
O O16 0.772855 0.886428 0.137682
O O17 0.763846 0.881923 0.404186
O O18 0.881214 0.118787 0.417975
#
# Coordination Sequence:
#
# PCOD9585670 Si02
#       6
#    12  12  12   6  12  12
#     4  10  20  34  52  74 101 132 165 202 245 294
#     4   9  17  30  49  72  96 122 154 194 239 284
#     4  10  20  34  52  73  97 126 162 204 249 295
#     4  10  20  34  52  74 100 130 164 202 244 288
#     4  10  20  33  49  70  97 129 163 198 238 286
#     4  10  20  34  53  76 102 132 166 204 245 290
#
# _framework density 16.344446999999999
#
# number of rings (size 3 to 8) (size 9 to 14) (size 15 to 20)
#    0.000    2.182    0.000    3.455    0.000    1.091 
#    0.000    0.909    0.000   21.455    0.000    0.000 
#    0.000    0.000    0.000    0.000    0.000    0.000 
#
# Total GULP energy -368303.919498 kJ/mol
# GULP energy per Si atom -5580.362417 kJ/mol
# Density = 1.630725 g / cm^3
# Si number density = 16.344447 Si / 1000 Ang^3
#
#
#
# Elastic Constant Matrix: (Units=GPa)
#
#
# Indices 1 2 3 4 5 6 
#
# 1 127.3789 87.7727 95.6713 0.0000 -0.0001 0.0000
# 2 87.7727 127.3789 95.6713 0.0000 0.0001 0.0000
# 3 95.6713 95.6713 141.1978 0.0000 0.0000 0.0000
# 4 0.0000 0.0000 0.0000 27.1700 0.0000 0.0001
# 5 -0.0001 0.0001 0.0000 0.0000 27.1700 0.0000
# 6 0.0000 0.0000 0.0000 0.0001 0.0000 19.8031
#
#
#
# Elastic Compliance Matrix: (Units=1/GPa)
#
#
# Indices 1 2 3 4 5 6 
#
# 1 0.018472 -0.006777 -0.007924 0.000000 0.000000 0.000000
# 2 -0.006777 0.018472 -0.007924 0.000000 0.000000 0.000000
# 3 -0.007924 -0.007924 0.017821 0.000000 0.000000 0.000000
# 4 0.000000 0.000000 0.000000 0.036805 0.000000 0.000000
# 5 0.000000 0.000000 0.000000 0.000000 0.036805 0.000000
# 6 0.000000 0.000000 0.000000 0.000000 0.000000 0.050497
#
#
# Mechanical properties :
#
#
# Convention : Reuss Voigt Hill
#
# Bulk Modulus (GPa) = 105.10818 106.02068 105.56443
# Shear Modulus (GPa) = 21.99785 22.61797 22.30791
#
# Velocity S-wave (km/s) = 3.67262 3.72403 3.69841
# Velocity P-wave (km/s) = 9.07921 9.13775 9.10852
#
# Compressibility (1/GPa) = 0.00951401
#
# Stress axis : x y z
#
# Youngs Moduli (GPa) = 54.13608 54.13608 56.11371
#
# Poissons Ratio (x) = 0.36686 0.44467
# Poissons Ratio (y) = 0.36686 0.44467
# Poissons Ratio (z) = 0.42900 0.42900
#
# Static dielectric constant tensor:
#      x y z
#    x 1.517830 0.000000 0.000000 
#    y 0.000000 1.517830 0.000000 
#    z 0.000000 0.000000 1.531370 
# 
# From -- ./inp_files/4399.got.cif
#   From: 2010.05.17/outbox.cif.g08.bks.cpg/sg187_3_cif.got.tgz:4399.got - 2010.05.20 12:09:04.
