data_PCOD9585928
_publ_section_title
;
Structure prediction by ZEFSAII (Michael W. Deem and Ramdas Pophale) SiO2 
 PCOD9585928
Probable space group: P -6 C 2
;
_chemical_formula_sum "Si O2"
_cell_formula_units_Z 72
_cell_length_a 24.624755
_cell_length_b 24.624755
_cell_length_c 8.879589
_cell_angle_alpha 90.000000
_cell_angle_beta 90.000000
_cell_angle_gamma 120.000000
_cell_volume 4663.020586
_symmetry_space_group_name_H-M "P -6 C 2"
_symmetry_group_IT_number 188
_symmetry_cell_setting 'hexagonal'
loop_
_space_group_symop_operation_xyz
x,y,z
-x+y,-x,1/2-z
-y,x-y,z
x,y,1/2-z
-x+y,-x,z
-y,x-y,1/2-z
-y,-x,-z
-x+y,y,-z
x,x-y,-z
-x+y,y,1/2+z
x,x-y,1/2+z
-y,-x,1/2+z
loop_
_atom_site_type_symbol
_atom_site_label
_atom_site_fract_x
_atom_site_fract_y
_atom_site_fract_z
Si Si1 0.333053 0.991699 0.569803
Si Si2 0.405530 0.477197 0.570185
Si Si3 0.218570 0.550574 0.070682
Si Si4 0.193796 0.272579 0.569857
Si Si5 0.780367 0.112608 0.070456
Si Si6 0.957388 0.807336 0.570454
O O1 0.328284 0.983564 0.750000
O O2 0.377661 0.968579 0.501045
O O3 0.263300 0.951266 0.499741
O O4 0.357850 0.065282 0.537886
O O5 0.411064 0.475018 0.750000
O O6 0.471632 0.528369 0.500000
O O7 0.357588 0.503050 0.538168
O O8 0.226928 0.557055 0.250000
O O9 0.264961 0.529922 0.000000
O O10 0.234006 0.617003 0.000000
O O11 0.198036 0.280845 0.750000
O O12 0.145480 0.290960 0.500000
O O13 0.168322 0.198497 0.538059
O O14 0.789199 0.116898 0.250000
O O15 0.818125 0.181876 0.000000
O O16 0.813557 0.076095 0.999493
O O17 0.948941 0.803690 0.750000
O O18 0.919392 0.838784 0.500000
#
# Coordination Sequence:
#
# PCOD9585928 Si02
#       6
#    12  12  12  12  12  12
#     4  10  20  33  49  69  94 123 154 189 230 277
#     4  10  21  36  52  69  91 122 159 196 236 285
#     4  10  20  33  49  67  86 110 144 190 243 294
#     4  10  20  32  46  66  91 119 152 192 238 286
#     4   9  16  26  43  67  92 117 143 173 210 252
#     4   9  16  26  42  62  83 109 141 176 216 264
#
# _framework density 15.440633999999999
#
# number of rings (size 3 to 8) (size 9 to 14) (size 15 to 20)
#    0.000    2.333    0.000    4.167    0.000    6.667 
#    0.000    1.667    0.000    0.333    0.000    0.000 
#    0.000    0.000    0.000    0.500    0.000    8.000 
#
# Total GULP energy -401246.135332 kJ/mol
# GULP energy per Si atom -5572.862991 kJ/mol
# Density = 1.540549 g / cm^3
# Si number density = 15.440634 Si / 1000 Ang^3
#
#
#
# Elastic Constant Matrix: (Units=GPa)
#
#
# Indices 1 2 3 4 5 6 
#
# 1 87.1364 64.9672 49.7490 -0.0003 0.0000 0.0000
# 2 64.9672 87.1364 49.7490 0.0003 0.0000 0.0000
# 3 49.7490 49.7490 73.0529 0.0000 0.0000 0.0000
# 4 -0.0003 0.0003 0.0000 24.2492 0.0000 0.0000
# 5 0.0000 0.0000 0.0000 0.0000 24.2492 -0.0003
# 6 0.0000 0.0000 0.0000 0.0000 -0.0003 11.0846
#
#
#
# Elastic Compliance Matrix: (Units=1/GPa)
#
#
# Indices 1 2 3 4 5 6 
#
# 1 0.028482 -0.016626 -0.008074 0.000000 0.000000 0.000000
# 2 -0.016626 0.028482 -0.008074 0.000000 0.000000 0.000000
# 3 -0.008074 -0.008074 0.024685 0.000000 0.000000 0.000000
# 4 0.000000 0.000000 0.000000 0.041239 0.000000 0.000000
# 5 0.000000 0.000000 0.000000 0.000000 0.041239 0.000001
# 6 0.000000 0.000000 0.000000 0.000000 0.000001 0.090215
#
#
# Mechanical properties :
#
#
# Convention : Reuss Voigt Hill
#
# Bulk Modulus (GPa) = 62.10535 64.02845 63.06690
# Shear Modulus (GPa) = 15.37253 17.44064 16.40658
#
# Velocity S-wave (km/s) = 3.15872 3.36449 3.26323
# Velocity P-wave (km/s) = 7.32207 7.52666 7.42507
#
# Compressibility (1/GPa) = 0.01610167
#
# Stress axis : x y z
#
# Youngs Moduli (GPa) = 35.11017 35.11017 40.50988
#
# Poissons Ratio (x) = 0.58373 0.32707
# Poissons Ratio (y) = 0.58373 0.32707
# Poissons Ratio (z) = 0.28348 0.28348
#
# Static dielectric constant tensor:
#      x y z
#    x 1.519520 0.000000 0.000000 
#    y 0.000000 1.519520 0.000000 
#    z 0.000000 0.000000 1.511970 
# 
# From -- ./inp_files/1016.got.cif
#   From: 2010.05.17/outbox.cif.g08.bks.cpg/sg188_1_cif.got.tgz:1016.got - 2010.05.20 12:11:46.
