data_PCOD9585338
_publ_section_title
;
Structure prediction by ZEFSAII (Michael W. Deem and Ramdas Pophale) SiO2 
 PCOD9585338
Probable space group: P 63 M C
;
_chemical_formula_sum "Si O2"
_cell_formula_units_Z 84
_cell_length_a 18.241856
_cell_length_b 18.241856
_cell_length_c 15.906287
_cell_angle_alpha 90.000000
_cell_angle_beta 90.000000
_cell_angle_gamma 120.000000
_cell_volume 4583.924882
_symmetry_space_group_name_H-M "P 63 M C"
_symmetry_group_IT_number 186
_symmetry_cell_setting 'hexagonal'
loop_
_space_group_symop_operation_xyz
x,y,z
x-y,x,1/2+z
-y,x-y,z
-x,-y,1/2+z
-x+y,-x,z
y,-x+y,1/2+z
-x+y,y,z
x,x-y,z
-y,-x,z
y,x,1/2+z
x-y,-y,1/2+z
-x,-x+y,1/2+z
loop_
_atom_site_type_symbol
_atom_site_label
_atom_site_fract_x
_atom_site_fract_y
_atom_site_fract_z
Si Si1 0.504271 0.171904 0.103980
Si Si2 0.578913 0.998664 0.299721
Si Si3 0.028408 0.433098 0.116153
Si Si4 0.966159 0.200497 0.942560
Si Si5 0.435353 0.296195 0.922300
Si Si6 0.059145 0.287813 0.106928
Si Si7 0.940203 0.232416 0.273462
O O1 0.599482 0.198964 0.128166
O O2 0.478192 0.239096 0.135962
O O3 0.446415 0.073419 0.125037
O O4 0.494391 0.169318 0.003338
O O5 0.520764 0.041528 0.305425
O O6 0.680024 0.057631 0.297503
O O7 0.552986 0.945132 0.213272
O O8 0.553670 0.929073 0.371286
O O9 0.044166 0.522083 0.078336
O O10 0.063754 0.375908 0.078694
O O11 0.898497 0.101504 0.939190
O O12 0.911652 0.248602 0.950406
O O13 0.016892 0.232209 0.854964
O O14 0.021799 0.226352 0.026674
O O15 0.446767 0.223384 0.876539
O O16 0.150444 0.300887 0.129013
O O17 0.997713 0.252729 0.188944
O O18 0.848027 0.151974 0.259781
#
# Coordination Sequence:
#
# PCOD9585338 Si02
#       7
#    12  12  12  12  12  12  12
#     4  10  18  29  47  75 108 140 170 203 249 308
#     4   9  18  32  50  75 104 136 174 217 256 303
#     4   9  19  33  49  72 105 139 171 210 258 311
#     4  10  19  34  55  80 108 140 180 226 275 327
#     4   9  17  29  50  76 104 137 171 209 259 315
#     4  11  21  35  58  83 106 139 183 231 277 328
#     4  10  21  36  56  81 109 145 185 226 275 332
#
# _framework density 18.324907
#
# number of rings (size 3 to 8) (size 9 to 14) (size 15 to 20)
#    0.000    2.286    1.429    1.857    0.000    5.714 
#    0.000    0.000    0.000    9.429    0.000    3.000 
#    0.000    1.143    0.000    0.000    0.000    0.000 
#
# Total GULP energy -467618.468667 kJ/mol
# GULP energy per Si atom -5566.886532 kJ/mol
# Density = 1.828320 g / cm^3
# Si number density = 18.324907 Si / 1000 Ang^3
#
#
#
# Elastic Constant Matrix: (Units=GPa)
#
#
# Indices 1 2 3 4 5 6 
#
# 1 85.3711 69.6988 24.1036 0.0000 0.0000 0.0000
# 2 69.6988 85.3711 24.1036 0.0000 0.0000 0.0000
# 3 24.1036 24.1036 67.0362 0.0000 0.0000 0.0000
# 4 0.0000 0.0000 0.0000 13.5692 0.0000 0.0000
# 5 0.0000 0.0000 0.0000 0.0000 13.5692 0.0000
# 6 0.0000 0.0000 0.0000 0.0000 0.0000 7.8362
#
#
#
# Elastic Compliance Matrix: (Units=1/GPa)
#
#
# Indices 1 2 3 4 5 6 
#
# 1 0.035533 -0.028273 -0.002610 0.000000 0.000000 0.000000
# 2 -0.028273 0.035533 -0.002610 0.000000 0.000000 0.000000
# 3 -0.002610 -0.002610 0.016795 0.000000 0.000000 0.000000
# 4 0.000000 0.000000 0.000000 0.073696 0.000000 0.000000
# 5 0.000000 0.000000 0.000000 0.000000 0.073696 0.000000
# 6 0.000000 0.000000 0.000000 0.000000 0.000000 0.127613
#
#
# Mechanical properties :
#
#
# Convention : Reuss Voigt Hill
#
# Bulk Modulus (GPa) = 47.90862 52.62115 50.26488
# Shear Modulus (GPa) = 11.44655 14.98643 13.21649
#
# Velocity S-wave (km/s) = 2.50200 2.86285 2.68849
# Velocity P-wave (km/s) = 5.87771 6.30126 6.09316
#
# Compressibility (1/GPa) = 0.02087307
#
# Stress axis : x y z
#
# Youngs Moduli (GPa) = 28.14253 28.14253 59.54301
#
# Poissons Ratio (x) = 0.79568 0.15544
# Poissons Ratio (y) = 0.79568 0.15544
# Poissons Ratio (z) = 0.07347 0.07347
#
# Static dielectric constant tensor:
#      x y z
#    x 1.664680 0.000000 0.000000 
#    y 0.000000 1.664680 0.000000 
#    z 0.000000 0.000000 1.660770 
# 
# From -- ./inp_files/2551.got.cif
#   From: 2010.05.17/outbox.cif.g08.bks.cpg/sg186_2_cif.got.tgz:2551.got - 2010.05.20 12:07:08.
