data_PCOD9585356
_publ_section_title
;
Structure prediction by ZEFSAII (Michael W. Deem and Ramdas Pophale) SiO2 
 PCOD9585356
Probable space group: P 63 M C
;
_chemical_formula_sum "Si O2"
_cell_formula_units_Z 72
_cell_length_a 24.494348
_cell_length_b 24.494348
_cell_length_c 8.505279
_cell_angle_alpha 90.000000
_cell_angle_beta 90.000000
_cell_angle_gamma 120.000000
_cell_volume 4419.274350
_symmetry_space_group_name_H-M "P 63 M C"
_symmetry_group_IT_number 186
_symmetry_cell_setting 'hexagonal'
loop_
_space_group_symop_operation_xyz
x,y,z
x-y,x,1/2+z
-y,x-y,z
-x,-y,1/2+z
-x+y,-x,z
y,-x+y,1/2+z
-x+y,y,z
x,x-y,z
-y,-x,z
y,x,1/2+z
x-y,-y,1/2+z
-x,-x+y,1/2+z
loop_
_atom_site_type_symbol
_atom_site_label
_atom_site_fract_x
_atom_site_fract_y
_atom_site_fract_z
Si Si1 0.642030 0.713655 0.131310
Si Si2 0.855218 0.710435 0.130401
Si Si3 0.144783 0.289566 0.254412
Si Si4 0.286344 0.357970 0.753506
Si Si5 0.071629 0.928372 0.631631
Si Si6 0.594714 0.072052 0.632292
Si Si7 0.928372 0.071629 0.753167
Si Si8 0.477339 0.072055 0.252522
O O1 0.673790 0.783742 0.195499
O O2 0.681481 0.681480 0.192408
O O3 0.568881 0.666989 0.181043
O O4 0.644495 0.715582 0.942408
O O5 0.783743 0.673790 0.189316
O O6 0.891763 0.783526 0.184194
O O7 0.855694 0.711388 0.942406
O O8 0.108238 0.216476 0.200612
O O9 0.333010 0.431120 0.703774
O O10 0.070825 0.929176 0.442399
O O11 1.000000 0.892052 0.692397
O O12 0.550133 0.100265 0.683681
O O13 0.594358 0.071449 0.442407
O O14 0.558602 0.999998 0.692404
O O15 0.550134 0.100268 0.201135
#
# Coordination Sequence:
#
# PCOD9585356 Si02
#       8
#    12   6   6  12   6  12   6  12
#     4  10  19  31  48  69  95 126 158 194 238 286
#     4  11  23  36  50  69  95 128 164 202 246 298
#     4  11  23  36  50  69  95 128 164 202 246 298
#     4  10  19  31  48  69  95 126 158 194 238 286
#     4  11  24  40  57  73  90 116 154 204 258 310
#     4   8  14  25  42  65  92 120 148 177 213 259
#     4  11  24  40  57  73  90 116 154 204 258 310
#     4   8  14  25  42  65  92 120 148 177 213 259
#
# _framework density 16.292266000000001
#
# number of rings (size 3 to 8) (size 9 to 14) (size 15 to 20)
#    0.000    2.333    0.000    3.167    0.000    6.667 
#    0.000    0.000    0.000    0.000    0.000    0.000 
#    1.667    0.000    3.000    0.000    1.000    0.000 
#
# Total GULP energy -400992.369289 kJ/mol
# GULP energy per Si atom -5569.338462 kJ/mol
# Density = 1.625518 g / cm^3
# Si number density = 16.292266 Si / 1000 Ang^3
#
#
#
# Elastic Constant Matrix: (Units=GPa)
#
#
# Indices 1 2 3 4 5 6 
#
# 1 133.3029 93.4979 28.0662 0.0000 0.0000 0.0000
# 2 93.4979 133.3029 28.0662 0.0000 0.0000 0.0000
# 3 28.0662 28.0662 31.7525 0.0000 0.0000 0.0000
# 4 0.0000 0.0000 0.0000 17.3671 0.0000 0.0000
# 5 0.0000 0.0000 0.0000 0.0000 17.3671 0.0000
# 6 0.0000 0.0000 0.0000 0.0000 0.0000 19.9025
#
#
#
# Elastic Compliance Matrix: (Units=1/GPa)
#
#
# Indices 1 2 3 4 5 6 
#
# 1 0.015383 -0.009739 -0.004989 0.000000 0.000000 0.000000
# 2 -0.009739 0.015383 -0.004989 0.000000 0.000000 0.000000
# 3 -0.004989 -0.004989 0.040312 0.000000 0.000000 0.000000
# 4 0.000000 0.000000 0.000000 0.057580 0.000000 0.000000
# 5 0.000000 0.000000 0.000000 0.000000 0.057580 0.000000
# 6 0.000000 0.000000 0.000000 0.000000 0.000000 0.050245
#
#
# Mechanical properties :
#
#
# Convention : Reuss Voigt Hill
#
# Bulk Modulus (GPa) = 31.59989 66.40208 49.00098
# Shear Modulus (GPa) = 17.45412 20.84256 19.14834
#
# Velocity S-wave (km/s) = 3.27664 3.58060 3.43199
# Velocity P-wave (km/s) = 5.80973 7.61180 6.77098
#
# Compressibility (1/GPa) = 0.03164568
#
# Stress axis : x y z
#
# Youngs Moduli (GPa) = 65.00624 65.00624 24.80628
#
# Poissons Ratio (x) = 0.63312 0.12375
# Poissons Ratio (y) = 0.63312 0.12375
# Poissons Ratio (z) = 0.32429 0.32429
#
# Static dielectric constant tensor:
#      x y z
#    x 1.558420 0.000000 0.000000 
#    y 0.000000 1.558420 0.000000 
#    z 0.000000 0.000000 1.558480 
# 
# From -- ./inp_files/1261.got.cif
#   From: 2010.05.17/outbox.cif.g08.bks.cpg/sg186_1_cif.got.tgz:1261.got - 2010.05.20 12:07:08.
