data_PCOD9585122
_publ_section_title
;
Structure prediction by ZEFSAII (Michael W. Deem and Ramdas Pophale) SiO2 
 PCOD9585122
Probable space group: P 6 C C
;
_chemical_formula_sum "Si O2"
_cell_formula_units_Z 78
_cell_length_a 16.375253
_cell_length_b 16.375253
_cell_length_c 17.938904
_cell_angle_alpha 90.000000
_cell_angle_beta 90.000000
_cell_angle_gamma 120.000000
_cell_volume 4165.839894
_symmetry_space_group_name_H-M "P 6 C C"
_symmetry_group_IT_number 184
_symmetry_cell_setting 'hexagonal'
loop_
_space_group_symop_operation_xyz
x,y,z
x-y,x,z
-y,x-y,z
-x,-y,z
-x+y,-x,z
y,-x+y,z
-x+y,y,1/2+z
x,x-y,1/2+z
-y,-x,1/2+z
y,x,1/2+z
x-y,-y,1/2+z
-x,-x+y,1/2+z
loop_
_atom_site_type_symbol
_atom_site_label
_atom_site_fract_x
_atom_site_fract_y
_atom_site_fract_z
Si Si1 0.360215 0.383987 0.322480
Si Si2 0.500000 0.000000 0.698512
Si Si3 0.639785 0.616013 0.574543
Si Si4 0.182072 0.190180 0.787484
Si Si5 0.817928 0.809820 0.109540
Si Si6 0.626880 0.508533 0.948512
Si Si7 0.832117 0.536984 0.948512
O O1 0.410751 0.458853 0.255457
O O2 0.290382 0.276448 0.298923
O O3 0.441280 0.388214 0.376633
O O4 0.296942 0.409843 0.374302
O O5 0.541147 0.951897 0.641566
O O6 0.709618 0.723552 0.598100
O O7 0.558720 0.611786 0.520390
O O8 0.703058 0.590157 0.522721
O O9 0.189943 0.100967 0.817007
O O10 0.174728 0.174728 0.698512
O O11 0.911024 0.810057 0.080016
O O12 0.730087 0.523394 0.948512
O O13 0.556092 0.397584 0.948512
#
# Coordination Sequence:
#
# PCOD9585122 Si02
#       7
#    12   6  12  12  12  12  12
#     4  11  21  39  62  87 114 161 200 254 303 369
#     4  12  20  38  64  88 122 146 212 256 312 358
#     4  11  21  39  62  87 114 161 200 254 303 369
#     4  10  20  34  55  86 121 157 194 243 302 365
#     4  10  20  34  55  86 121 157 194 243 302 365
#     4  11  22  39  60  84 116 157 202 245 308 372
#     4  11  22  39  60  84 116 157 202 245 308 372
#
# _framework density 18.723714999999999
#
# number of rings (size 3 to 8) (size 9 to 14) (size 15 to 20)
#    0.000    1.231    4.615    3.385    0.000    1.231 
#    0.000    0.000    0.000    0.000    0.000   10.769 
#    0.000    0.000    0.000    0.000    0.000    0.000 
#
# Total GULP energy -434748.545857 kJ/mol
# GULP energy per Si atom -5573.699306 kJ/mol
# Density = 1.868110 g / cm^3
# Si number density = 18.723715 Si / 1000 Ang^3
#
#
#
# Elastic Constant Matrix: (Units=GPa)
#
#
# Indices 1 2 3 4 5 6 
#
# 1 94.8401 46.6342 20.5598 0.0000 0.0000 0.0000
# 2 46.6342 94.8401 20.5598 0.0000 0.0000 0.0000
# 3 20.5598 20.5598 63.7165 0.0000 0.0000 0.0000
# 4 0.0000 0.0000 0.0000 3.1311 0.0000 0.0000
# 5 0.0000 0.0000 0.0000 0.0000 3.1311 0.0000
# 6 0.0000 0.0000 0.0000 0.0000 0.0000 24.1030
#
#
#
# Elastic Compliance Matrix: (Units=1/GPa)
#
#
# Indices 1 2 3 4 5 6 
#
# 1 0.014272 -0.006472 -0.002517 0.000000 0.000000 0.000000
# 2 -0.006472 0.014272 -0.002517 0.000000 0.000000 0.000000
# 3 -0.002517 -0.002517 0.017319 0.000000 0.000000 0.000000
# 4 0.000000 0.000000 0.000000 0.319379 0.000000 0.000000
# 5 0.000000 0.000000 0.000000 0.000000 0.319379 0.000000
# 6 0.000000 0.000000 0.000000 0.000000 0.000000 0.041489
#
#
# Mechanical properties :
#
#
# Convention : Reuss Voigt Hill
#
# Bulk Modulus (GPa) = 43.76128 47.65604 45.70866
# Shear Modulus (GPa) = 6.60731 17.11588 11.86160
#
# Velocity S-wave (km/s) = 1.88056 3.02674 2.51969
# Velocity P-wave (km/s) = 5.30454 6.14185 5.73849
#
# Compressibility (1/GPa) = 0.02285125
#
# Stress axis : x y z
#
# Youngs Moduli (GPa) = 70.06656 70.06656 57.74076
#
# Poissons Ratio (x) = 0.45348 0.14533
# Poissons Ratio (y) = 0.45348 0.14533
# Poissons Ratio (z) = 0.17635 0.17635
#
# Static dielectric constant tensor:
#      x y z
#    x 1.639640 0.000000 0.000000 
#    y 0.000000 1.639640 0.000000 
#    z 0.000000 0.000000 1.668060 
# 
# From -- ./inp_files/1140.got.cif
#   From: 2010.05.17/outbox.cif.g08.bks.cpg/sg184_cif.got.tgz:1140.got - 2010.05.20 12:04:40.
