data_PCOD9585247
_publ_section_title
;
Structure prediction by ZEFSAII (Michael W. Deem and Ramdas Pophale) SiO2 
 PCOD9585247
Probable space group: P 63 C M
;
_chemical_formula_sum "Si O2"
_cell_formula_units_Z 96
_cell_length_a 14.062987
_cell_length_b 14.062987
_cell_length_c 30.340153
_cell_angle_alpha 90.000000
_cell_angle_beta 90.000000
_cell_angle_gamma 120.000000
_cell_volume 5196.411663
_symmetry_space_group_name_H-M "P 63 C M"
_symmetry_group_IT_number 185
_symmetry_cell_setting 'hexagonal'
loop_
_space_group_symop_operation_xyz
x,y,z
x-y,x,1/2+z
-y,x-y,z
-x,-y,1/2+z
-x+y,-x,z
y,-x+y,1/2+z
-x+y,y,1/2+z
x,x-y,1/2+z
-y,-x,1/2+z
y,x,z
x-y,-y,z
-x,-x+y,z
loop_
_atom_site_type_symbol
_atom_site_label
_atom_site_fract_x
_atom_site_fract_y
_atom_site_fract_z
Si Si1 0.124644 0.679741 0.837740
Si Si2 0.868689 0.533552 0.196155
Si Si3 0.131770 0.467676 0.524745
Si Si4 0.130983 0.657676 0.296568
Si Si5 0.123930 0.874819 0.053272
Si Si6 0.551980 0.421022 0.610925
Si Si7 0.337636 0.123593 0.143802
Si Si8 0.542554 0.329239 0.926903
O O1 0.143905 0.581858 0.820004
O O2 0.223749 0.792343 0.818459
O O3 0.136058 0.678479 0.890677
O O4 0.000000 0.645674 0.825455
O O5 0.831922 0.495631 0.245639
O O6 0.826020 0.446429 0.156162
O O7 0.837945 0.624093 0.181148
O O8 0.000000 0.587679 0.196772
O O9 0.151265 0.366321 0.534532
O O10 0.173192 0.552939 0.565773
O O11 0.181546 0.515448 0.477501
O O12 0.000000 0.415155 0.521954
O O13 0.000000 0.615741 0.297649
O O14 0.129672 0.866450 0.106307
O O15 0.000000 0.838347 0.040186
O O16 0.208678 0.000000 0.041007
O O17 0.507325 0.507325 0.610038
O O18 0.444872 0.303675 0.616934
O O19 0.278043 0.000000 0.161496
O O20 0.565363 0.228563 0.919145
#
# Coordination Sequence:
#
# PCOD9585247 Si02
#       8
#    12  12  12  12  12  12  12  12
#     4  11  21  41  66  87 118 154 192 244 303 353
#     4  10  20  36  54  76 113 152 184 229 285 336
#     4  10  20  35  54  78 113 152 188 230 284 340
#     4  10  22  38  60  89 119 150 193 242 292 355
#     4  10  20  36  56  78 107 148 195 242 285 332
#     4   9  19  34  48  71 110 149 184 222 272 332
#     4  10  20  32  51  77 109 148 197 240 276 332
#     4  10  21  36  58  84 117 143 187 241 284 348
#
# _framework density 18.474287
#
# number of rings (size 3 to 8) (size 9 to 14) (size 15 to 20)
#    0.250    1.750    2.500    1.125    3.500    0.500 
#    0.750    1.250    0.000    0.500    0.000    0.000 
#    0.000    0.000    0.000    0.000    0.000    0.000 
#
# Total GULP energy -535284.586949 kJ/mol
# GULP energy per Si atom -5575.881114 kJ/mol
# Density = 1.843224 g / cm^3
# Si number density = 18.474287 Si / 1000 Ang^3
#
#
#
# Elastic Constant Matrix: (Units=GPa)
#
#
# Indices 1 2 3 4 5 6 
#
# 1 40.0526 25.7396 17.6491 0.0000 0.0000 0.0000
# 2 25.7396 40.0526 17.6491 0.0000 0.0000 0.0000
# 3 17.6491 17.6491 112.9749 0.0000 0.0000 0.0000
# 4 0.0000 0.0000 0.0000 21.6700 0.0000 0.0000
# 5 0.0000 0.0000 0.0000 0.0000 21.6700 0.0000
# 6 0.0000 0.0000 0.0000 0.0000 0.0000 7.1565
#
#
#
# Elastic Compliance Matrix: (Units=1/GPa)
#
#
# Indices 1 2 3 4 5 6 
#
# 1 0.043228 -0.026638 -0.002592 0.000000 0.000000 0.000000
# 2 -0.026638 0.043228 -0.002592 0.000000 0.000000 0.000000
# 3 -0.002592 -0.002592 0.009661 0.000000 0.000000 0.000000
# 4 0.000000 0.000000 0.000000 0.046147 0.000000 0.000000
# 5 0.000000 0.000000 0.000000 0.000000 0.046147 0.000000
# 6 0.000000 0.000000 0.000000 0.000000 0.000000 0.139733
#
#
# Mechanical properties :
#
#
# Convention : Reuss Voigt Hill
#
# Bulk Modulus (GPa) = 30.79369 35.01732 32.90551
# Shear Modulus (GPa) = 12.41888 18.90211 15.66049
#
# Velocity S-wave (km/s) = 2.59554 3.20215 2.91467
# Velocity P-wave (km/s) = 5.06824 5.71555 5.40160
#
# Compressibility (1/GPa) = 0.03247419
#
# Stress axis : x y z
#
# Youngs Moduli (GPa) = 23.13304 23.13304 103.50593
#
# Poissons Ratio (x) = 0.61623 0.26826
# Poissons Ratio (y) = 0.61623 0.26826
# Poissons Ratio (z) = 0.05995 0.05995
#
# Static dielectric constant tensor:
#      x y z
#    x 1.674700 0.000000 0.000000 
#    y 0.000000 1.674700 0.000000 
#    z 0.000000 0.000000 1.633630 
# 
# From -- ./inp_files/2237.got.cif
#   From: 2010.05.17/outbox.cif.g08.bks.cpg/sg185_cif.got.tgz:2237.got - 2010.05.20 12:05:34.
