data_PCOD9585061
_publ_section_title
;
Structure prediction by ZEFSAII (Michael W. Deem and Ramdas Pophale) SiO2 
 PCOD9585061
Probable space group: P 6 M M
;
_chemical_formula_sum "Si O2"
_cell_formula_units_Z 84
_cell_length_a 17.946458
_cell_length_b 17.946458
_cell_length_c 18.213704
_cell_angle_alpha 90.000000
_cell_angle_beta 90.000000
_cell_angle_gamma 120.000000
_cell_volume 5080.265387
_symmetry_space_group_name_H-M "P 6 M M"
_symmetry_group_IT_number 183
_symmetry_cell_setting 'hexagonal'
loop_
_space_group_symop_operation_xyz
x,y,z
x-y,x,z
-y,x-y,z
-x,-y,z
-x+y,-x,z
y,-x+y,z
-x+y,y,z
x,x-y,z
-y,-x,z
y,x,z
x-y,-y,z
-x,-x+y,z
loop_
_atom_site_type_symbol
_atom_site_label
_atom_site_fract_x
_atom_site_fract_y
_atom_site_fract_z
Si Si1 0.901289 0.634228 0.510820
Si Si2 0.158377 0.666477 0.644143
Si Si3 0.633470 0.903325 0.947750
Si Si4 0.629980 0.899613 0.227226
Si Si5 0.158400 0.666548 0.813421
Si Si6 0.896110 0.363826 0.371040
Si Si7 0.490562 0.157902 0.086249
O O1 0.833969 0.667938 0.513066
O O2 0.892106 0.583187 0.585973
O O3 0.873450 0.565498 0.444590
O O4 0.000000 0.705829 0.499046
O O5 0.149031 0.574516 0.627816
O O6 0.258096 0.741905 0.638688
O O7 0.131790 0.665725 0.728803
O O8 0.659489 0.829745 0.951335
O O9 0.583370 0.891716 0.871482
O O10 0.710167 0.000000 0.955258
O O11 0.565217 0.882721 0.013080
O O12 0.663718 0.831859 0.221964
O O13 0.568934 0.875211 0.298673
O O14 0.570900 0.885250 0.156173
O O15 0.701659 0.000000 0.232487
O O16 0.149427 0.574714 0.829870
O O17 0.258346 0.741655 0.819205
O O18 0.861258 0.430629 0.369373
O O19 0.000000 0.421172 0.371740
O O20 0.573860 0.147719 0.088635
O O21 0.516482 0.258241 0.086758
#
# Coordination Sequence:
#
# PCOD9585061 Si02
#       7
#    12  12  12  12  12  12  12
#     4  10  20  33  49  69  93 122 157 197 240 283
#     4   9  17  29  46  69  97 128 159 190 225 268
#     4  10  21  35  50  69  93 122 156 195 238 280
#     4  10  20  33  50  72  97 127 163 203 245 284
#     4   9  17  29  46  69  98 130 160 188 221 266
#     4   9  17  30  49  72  96 121 150 184 223 272
#     4  10  20  33  50  73 101 131 160 190 226 271
#
# _framework density 16.534569999999999
#
# number of rings (size 3 to 8) (size 9 to 14) (size 15 to 20)
#    0.000    2.429    0.000    2.571    0.000    5.143 
#    0.000    2.857    0.000    4.429    0.000    0.000 
#    0.000    6.857    0.000    7.143    0.000    0.571 
#
# Total GULP energy -468528.142437 kJ/mol
# GULP energy per Si atom -5577.715981 kJ/mol
# Density = 1.649694 g / cm^3
# Si number density = 16.534570 Si / 1000 Ang^3
#
#
#
# Elastic Constant Matrix: (Units=GPa)
#
#
# Indices 1 2 3 4 5 6 
#
# 1 84.5705 69.6279 37.7409 0.0000 0.0000 0.0000
# 2 69.6279 84.5705 37.7409 0.0000 0.0000 0.0000
# 3 37.7409 37.7409 82.1412 0.0000 0.0000 0.0000
# 4 0.0000 0.0000 0.0000 18.7567 0.0000 0.0000
# 5 0.0000 0.0000 0.0000 0.0000 18.7567 0.0000
# 6 0.0000 0.0000 0.0000 0.0000 0.0000 7.4713
#
#
#
# Elastic Compliance Matrix: (Units=1/GPa)
#
#
# Indices 1 2 3 4 5 6 
#
# 1 0.037645 -0.029278 -0.003844 0.000000 0.000000 0.000000
# 2 -0.029278 0.037645 -0.003844 0.000000 0.000000 0.000000
# 3 -0.003844 -0.003844 0.015707 0.000000 0.000000 0.000000
# 4 0.000000 0.000000 0.000000 0.053314 0.000000 0.000000
# 5 0.000000 0.000000 0.000000 0.000000 0.053314 0.000000
# 6 0.000000 0.000000 0.000000 0.000000 0.000000 0.133846
#
#
# Mechanical properties :
#
#
# Convention : Reuss Voigt Hill
#
# Bulk Modulus (GPa) = 58.60469 60.16686 59.38577
# Shear Modulus (GPa) = 12.16269 16.07507 14.11888
#
# Velocity S-wave (km/s) = 2.71512 3.12141 2.92533
# Velocity P-wave (km/s) = 6.73423 7.03267 6.88507
#
# Compressibility (1/GPa) = 0.01706348
#
# Stress axis : x y z
#
# Youngs Moduli (GPa) = 26.56392 26.56392 63.66658
#
# Poissons Ratio (x) = 0.77774 0.24476
# Poissons Ratio (y) = 0.77774 0.24476
# Poissons Ratio (z) = 0.10212 0.10212
#
# Static dielectric constant tensor:
#      x y z
#    x 1.544380 0.000000 0.000000 
#    y 0.000000 1.544380 0.000000 
#    z 0.000000 0.000000 1.567400 
# 
# From -- ./inp_files/2263.got.cif
#   From: 2010.05.17/outbox.cif.g08.bks.cpg/sg183_2_cif.got.tgz:2263.got - 2010.05.20 12:02:58.
