data_PCOD9585677
_publ_section_title
;
Structure prediction by ZEFSAII (Michael W. Deem and Ramdas Pophale) SiO2 
 PCOD9585677
Probable space group: P -6 M 2
;
_chemical_formula_sum "Si O2"
_cell_formula_units_Z 66
_cell_length_a 12.868599
_cell_length_b 12.868599
_cell_length_c 28.925405
_cell_angle_alpha 90.000000
_cell_angle_beta 90.000000
_cell_angle_gamma 120.000000
_cell_volume 4148.323494
_symmetry_space_group_name_H-M "P -6 M 2"
_symmetry_group_IT_number 187
_symmetry_cell_setting 'hexagonal'
loop_
_space_group_symop_operation_xyz
x,y,z
-x+y,-x,-z
-y,x-y,z
x,y,-z
-x+y,-x,z
-y,x-y,-z
-y,-x,-z
-x+y,y,-z
x,x-y,-z
-x+y,y,z
x,x-y,z
-y,-x,z
loop_
_atom_site_type_symbol
_atom_site_label
_atom_site_fract_x
_atom_site_fract_y
_atom_site_fract_z
Si Si1 0.913623 0.579826 0.134257
Si Si2 0.246538 0.246217 0.324085
Si Si3 0.913867 0.580664 0.239439
Si Si4 0.247338 0.999516 0.948449
Si Si5 0.913964 0.333117 0.587882
Si Si6 0.579468 0.913913 0.500000
O O1 0.780871 0.561742 0.129643
O O2 0.907843 0.453922 0.129438
O O3 0.954174 0.623561 0.186788
O O4 0.991628 0.668722 0.093712
O O5 0.127196 0.254391 0.328726
O O6 0.319461 0.308272 0.277382
O O7 0.336996 0.307169 0.366937
O O8 0.215649 0.107825 0.322758
O O9 0.776613 0.553225 0.243567
O O10 0.917737 0.458869 0.246918
O O11 0.229817 0.114909 0.944960
O O12 0.298116 0.003941 0.000000
O O13 0.120304 0.879697 0.945292
O O14 0.899609 0.449805 0.594384
O O15 0.784754 0.215247 0.579364
O O16 0.003088 0.360267 0.544832
O O17 0.440077 0.880153 0.500000
O O18 0.590690 0.795345 0.500000
#
# Coordination Sequence:
#
# PCOD9585677 Si02
#       6
#    12  12  12  12  12   6
#     4   9  17  29  46  69  95 121 149 184 230 281
#     4  10  20  33  49  70  98 130 161 194 234 281
#     4   9  17  30  49  71  94 121 153 191 233 277
#     4   9  17  29  45  65  89 118 152 189 228 270
#     4  10  20  34  54  78 102 128 160 202 247 287
#     4  10  20  34  52  74 102 136 170 200 232 276
#
# _framework density 15.910041
#
# number of rings (size 3 to 8) (size 9 to 14) (size 15 to 20)
#    0.000    2.545    0.000    2.364    0.000    3.273 
#    0.000    2.727    0.000   10.182    0.000    0.000 
#    0.000    0.000    0.000    0.000    0.000    0.000 
#
# Total GULP energy -367889.698326 kJ/mol
# GULP energy per Si atom -5574.086338 kJ/mol
# Density = 1.587383 g / cm^3
# Si number density = 15.910041 Si / 1000 Ang^3
#
#
#
# Elastic Constant Matrix: (Units=GPa)
#
#
# Indices 1 2 3 4 5 6 
#
# 1 95.3350 56.8462 72.9937 0.0000 0.0000 0.0000
# 2 56.8462 95.3350 72.9937 0.0000 0.0000 0.0000
# 3 72.9937 72.9937 139.2886 0.0000 0.0000 0.0000
# 4 0.0000 0.0000 0.0000 22.8540 0.0000 0.0000
# 5 0.0000 0.0000 0.0000 0.0000 22.8540 0.0000
# 6 0.0000 0.0000 0.0000 0.0000 0.0000 19.2444
#
#
#
# Elastic Compliance Matrix: (Units=1/GPa)
#
#
# Indices 1 2 3 4 5 6 
#
# 1 0.019598 -0.006384 -0.006925 0.000000 0.000000 0.000000
# 2 -0.006384 0.019598 -0.006925 0.000000 0.000000 0.000000
# 3 -0.006925 -0.006925 0.014437 0.000000 0.000000 0.000000
# 4 0.000000 0.000000 0.000000 0.043756 0.000000 0.000000
# 5 0.000000 0.000000 0.000000 0.000000 0.043756 0.000000
# 6 0.000000 0.000000 0.000000 0.000000 0.000000 0.051963
#
#
# Mechanical properties :
#
#
# Convention : Reuss Voigt Hill
#
# Bulk Modulus (GPa) = 75.95241 81.73622 78.84431
# Shear Modulus (GPa) = 21.01162 21.46546 21.23854
#
# Velocity S-wave (km/s) = 3.63802 3.67710 3.65761
# Velocity P-wave (km/s) = 8.09254 8.33748 8.21592
#
# Compressibility (1/GPa) = 0.01316614
#
# Stress axis : x y z
#
# Youngs Moduli (GPa) = 51.02606 51.02606 69.26577
#
# Poissons Ratio (x) = 0.32574 0.47965
# Poissons Ratio (y) = 0.32574 0.47965
# Poissons Ratio (z) = 0.35334 0.35334
#
# Static dielectric constant tensor:
#      x y z
#    x 1.499040 0.000000 0.000000 
#    y 0.000000 1.499040 0.000000 
#    z 0.000000 0.000000 1.549760 
# 
# From -- ./inp_files/4434.got.cif
#   From: 2010.05.17/outbox.cif.g08.bks.cpg/sg187_3_cif.got.tgz:4434.got - 2010.05.20 12:09:04.
