data_PCOD9585781
_publ_section_title
;
Structure prediction by ZEFSAII (Michael W. Deem and Ramdas Pophale) SiO2 
 PCOD9585781
Probable space group: P -6 M 2
;
_chemical_formula_sum "Si O2"
_cell_formula_units_Z 84
_cell_length_a 18.902211
_cell_length_b 18.902211
_cell_length_c 14.910347
_cell_angle_alpha 90.000000
_cell_angle_beta 90.000000
_cell_angle_gamma 120.000000
_cell_volume 4613.638854
_symmetry_space_group_name_H-M "P -6 M 2"
_symmetry_group_IT_number 187
_symmetry_cell_setting 'hexagonal'
loop_
_space_group_symop_operation_xyz
x,y,z
-x+y,-x,-z
-y,x-y,z
x,y,-z
-x+y,-x,z
-y,x-y,-z
-y,-x,-z
-x+y,y,-z
x,x-y,-z
-x+y,y,z
x,x-y,z
-y,-x,z
loop_
_atom_site_type_symbol
_atom_site_label
_atom_site_fract_x
_atom_site_fract_y
_atom_site_fract_z
Si Si1 0.667671 0.492911 0.358400
Si Si2 0.014443 0.428635 0.395405
Si Si3 0.414192 0.985558 0.895405
Si Si4 0.236233 0.306349 0.106825
Si Si5 0.825240 0.492910 0.858398
Si Si6 0.236234 0.929884 0.393175
Si Si7 0.831573 0.831488 0.749999
O O1 0.756530 0.513060 0.389689
O O2 0.598822 0.401179 0.384511
O O3 0.634095 0.551427 0.389388
O O4 0.669155 0.495833 0.250001
O O5 0.036645 0.444009 0.500000
O O6 0.028846 0.514423 0.356055
O O7 0.058782 0.381071 0.360235
O O8 0.485577 0.971153 0.856055
O O9 0.322289 0.941219 0.860235
O O10 0.448575 0.082668 0.889386
O O11 0.407364 0.963356 0.000000
O O12 0.161998 0.323995 0.119921
O O13 0.212446 0.225480 0.163831
O O14 0.242045 0.293980 0.000000
O O15 0.756530 0.513060 0.889686
O O16 0.802355 0.401178 0.884509
O O17 0.242046 0.948065 0.500000
O O18 0.161997 0.838004 0.380079
O O19 0.212448 0.986967 0.336170
O O20 0.849872 0.924936 0.749998
O O21 0.913839 0.827678 0.750000
#
# Coordination Sequence:
#
# PCOD9585781 Si02
#       7
#    12  12  12  12  12  12  12
#     4   9  17  28  42  61  89 125 163 198 233 275
#     4   9  18  32  49  70  96 126 162 204 248 296
#     4   9  18  32  49  70  96 126 162 204 248 296
#     4   9  19  36  55  75 102 135 169 208 258 313
#     4   9  17  28  42  61  89 125 163 198 233 275
#     4   9  19  36  55  75 102 135 169 208 258 313
#     4  10  21  36  55  78 104 134 172 214 259 310
#
# _framework density 18.206886999999998
#
# number of rings (size 3 to 8) (size 9 to 14) (size 15 to 20)
#    0.000    2.857    0.000    0.429    2.000    3.429 
#    0.000    2.857    0.000    4.000    0.000    4.000 
#    0.000    0.000    0.000    0.000    0.000    0.000 
#
# Total GULP energy -468186.223960 kJ/mol
# GULP energy per Si atom -5573.645523 kJ/mol
# Density = 1.816545 g / cm^3
# Si number density = 18.206887 Si / 1000 Ang^3
#
#
#
# Elastic Constant Matrix: (Units=GPa)
#
#
# Indices 1 2 3 4 5 6 
#
# 1 107.7385 89.6989 33.6325 0.0000 -0.0002 0.0000
# 2 89.6989 107.7385 33.6325 0.0000 0.0002 0.0000
# 3 33.6325 33.6325 70.3933 0.0000 0.0000 0.0000
# 4 0.0000 0.0000 0.0000 11.3983 0.0000 0.0002
# 5 -0.0002 0.0002 0.0000 0.0000 11.3983 0.0000
# 6 0.0000 0.0000 0.0000 0.0002 0.0000 9.0198
#
#
#
# Elastic Compliance Matrix: (Units=1/GPa)
#
#
# Indices 1 2 3 4 5 6 
#
# 1 0.030742 -0.024692 -0.002890 0.000000 0.000001 0.000000
# 2 -0.024692 0.030742 -0.002890 0.000000 -0.000001 0.000000
# 3 -0.002890 -0.002890 0.016968 0.000000 0.000000 0.000000
# 4 0.000000 0.000000 0.000000 0.087732 0.000000 -0.000002
# 5 0.000001 -0.000001 0.000000 0.000000 0.087732 0.000000
# 6 0.000000 0.000000 0.000000 -0.000002 0.000000 0.110867
#
#
# Mechanical properties :
#
#
# Convention : Reuss Voigt Hill
#
# Bulk Modulus (GPa) = 57.12479 66.64420 61.88450
# Shear Modulus (GPa) = 11.58580 14.95707 13.27144
#
# Velocity S-wave (km/s) = 2.52532 2.86930 2.70279
# Velocity P-wave (km/s) = 6.32032 6.90366 6.61842
#
# Compressibility (1/GPa) = 0.01750553
#
# Stress axis : x y z
#
# Youngs Moduli (GPa) = 32.52924 32.52924 58.93510
#
# Poissons Ratio (x) = 0.80321 0.17034
# Poissons Ratio (y) = 0.80321 0.17034
# Poissons Ratio (z) = 0.09402 0.09402
#
# Static dielectric constant tensor:
#      x y z
#    x 1.615610 0.000000 0.000000 
#    y 0.000000 1.615610 0.000000 
#    z 0.000000 0.000000 1.681870 
# 
# From -- ./inp_files/2597.got.cif
#   From: 2010.05.17/outbox.cif.g08.bks.cpg/sg187_2_cif.got.tgz:2597.got - 2010.05.20 12:09:04.
