data_PCOD9585412
_publ_section_title
;
Structure prediction by ZEFSAII (Michael W. Deem and Ramdas Pophale) SiO2 
 PCOD9585412
Probable space group: P 63 M C
;
_chemical_formula_sum "Si O2"
_cell_formula_units_Z 84
_cell_length_a 21.798450
_cell_length_b 21.798450
_cell_length_c 11.201157
_cell_angle_alpha 90.000000
_cell_angle_beta 90.000000
_cell_angle_gamma 120.000000
_cell_volume 4609.403675
_symmetry_space_group_name_H-M "P 63 M C"
_symmetry_group_IT_number 186
_symmetry_cell_setting 'hexagonal'
loop_
_space_group_symop_operation_xyz
x,y,z
x-y,x,1/2+z
-y,x-y,z
-x,-y,1/2+z
-x+y,-x,z
y,-x+y,1/2+z
-x+y,y,z
x,x-y,z
-y,-x,z
y,x,1/2+z
x-y,-y,1/2+z
-x,-x+y,1/2+z
loop_
_atom_site_type_symbol
_atom_site_label
_atom_site_fract_x
_atom_site_fract_y
_atom_site_fract_z
Si Si1 0.923860 0.532976 0.657680
Si Si2 0.374901 0.259101 0.241832
Si Si3 0.381826 0.475245 0.611446
Si Si4 0.132429 0.718207 0.379322
Si Si5 0.124361 0.735952 0.011972
Si Si6 0.193926 0.244216 0.389762
Si Si7 0.760775 0.011887 0.633620
O O1 0.905460 0.452730 0.671758
O O2 0.892415 0.556822 0.767265
O O3 0.891479 0.549648 0.541971
O O4 0.008869 0.579121 0.638872
O O5 0.371396 0.185698 0.213836
O O6 0.452302 0.324501 0.216515
O O7 0.357769 0.260261 0.380412
O O8 0.317835 0.265134 0.160852
O O9 0.443777 0.556224 0.604708
O O10 0.332781 0.450328 0.493375
O O11 0.213368 0.786633 0.373278
O O12 0.080856 0.751560 0.387423
O O13 0.206342 0.793659 0.017656
O O14 0.082258 0.757000 0.106154
O O15 0.117052 0.234103 0.403359
O O16 0.209513 0.213386 0.509059
O O17 0.199560 0.217760 0.257715
#
# Coordination Sequence:
#
# PCOD9585412 Si02
#       7
#    12  12  12  12  12  12  12
#     4  11  23  36  56  83 113 149 197 253 306 368
#     4  11  22  36  56  83 115 153 194 241 301 366
#     4  11  23  36  56  83 113 149 197 253 306 368
#     4  11  21  37  57  80 112 151 199 247 312 377
#     4  11  22  36  56  83 115 153 194 241 301 366
#     4  11  22  35  58  88 123 165 200 241 300 361
#     4  12  20  36  57  86 120 160 203 238 292 372
#
# _framework density 18.223614999999999
#
# number of rings (size 3 to 8) (size 9 to 14) (size 15 to 20)
#    0.000    0.857    5.714    2.143    2.000    0.571 
#    0.000    0.000    0.000    8.000    0.000    0.000 
#    0.000    0.000    0.000   73.714    0.000    0.000 
#
# Total GULP energy -468576.320164 kJ/mol
# GULP energy per Si atom -5578.289526 kJ/mol
# Density = 1.818214 g / cm^3
# Si number density = 18.223615 Si / 1000 Ang^3
#
#
#
# Elastic Constant Matrix: (Units=GPa)
#
#
# Indices 1 2 3 4 5 6 
#
# 1 46.4330 5.9830 6.1565 0.0000 0.0000 0.0000
# 2 5.9830 46.4330 6.1565 0.0000 0.0000 0.0000
# 3 6.1565 6.1565 72.3498 0.0000 0.0000 0.0000
# 4 0.0000 0.0000 0.0000 23.8596 0.0000 0.0000
# 5 0.0000 0.0000 0.0000 0.0000 23.8596 0.0000
# 6 0.0000 0.0000 0.0000 0.0000 0.0000 20.2250
#
#
#
# Elastic Compliance Matrix: (Units=1/GPa)
#
#
# Indices 1 2 3 4 5 6 
#
# 1 0.022095 -0.002627 -0.001657 0.000000 0.000000 0.000000
# 2 -0.002627 0.022095 -0.001657 0.000000 0.000000 0.000000
# 3 -0.001657 -0.001657 0.014104 0.000000 0.000000 0.000000
# 4 0.000000 0.000000 0.000000 0.041912 0.000000 0.000000
# 5 0.000000 0.000000 0.000000 0.000000 0.041912 0.000000
# 6 0.000000 0.000000 0.000000 0.000000 0.000000 0.049444
#
#
# Mechanical properties :
#
#
# Convention : Reuss Voigt Hill
#
# Bulk Modulus (GPa) = 21.54611 22.42308 21.98460
# Shear Modulus (GPa) = 22.84023 23.38347 23.11185
#
# Velocity S-wave (km/s) = 3.54408 3.58598 3.56509
# Velocity P-wave (km/s) = 5.34754 5.42926 5.38855
#
# Compressibility (1/GPa) = 0.04641209
#
# Stress axis : x y z
#
# Youngs Moduli (GPa) = 45.25992 45.25992 70.90361
#
# Poissons Ratio (x) = 0.11891 0.11746
# Poissons Ratio (y) = 0.11891 0.11746
# Poissons Ratio (z) = 0.07498 0.07498
#
# Static dielectric constant tensor:
#      x y z
#    x 1.624180 0.000000 0.000000 
#    y 0.000000 1.624180 0.000000 
#    z 0.000000 0.000000 1.718670 
# 
# From -- ./inp_files/1891.got.cif
#   From: 2010.05.17/outbox.cif.g08.bks.cpg/sg186_1_cif.got.tgz:1891.got - 2010.05.20 12:07:08.
