data_PCOD9585305
_publ_section_title
;
Structure prediction by ZEFSAII (Michael W. Deem and Ramdas Pophale) SiO2 
 PCOD9585305
Probable space group: P 63 C M
;
_chemical_formula_sum "Si O2"
_cell_formula_units_Z 72
_cell_length_a 13.789245
_cell_length_b 13.789245
_cell_length_c 18.814135
_cell_angle_alpha 90.000000
_cell_angle_beta 90.000000
_cell_angle_gamma 120.000000
_cell_volume 3098.103081
_symmetry_space_group_name_H-M "P 63 C M"
_symmetry_group_IT_number 185
_symmetry_cell_setting 'hexagonal'
loop_
_space_group_symop_operation_xyz
x,y,z
x-y,x,1/2+z
-y,x-y,z
-x,-y,1/2+z
-x+y,-x,z
y,-x+y,1/2+z
-x+y,y,1/2+z
x,x-y,1/2+z
-y,-x,1/2+z
y,x,z
x-y,-y,z
-x,-x+y,z
loop_
_atom_site_type_symbol
_atom_site_label
_atom_site_fract_x
_atom_site_fract_y
_atom_site_fract_z
Si Si1 0.193569 0.322056 0.323440
Si Si2 0.556869 0.131160 0.820163
Si Si3 0.131160 0.574291 0.166158
Si Si4 0.698955 0.572228 0.438187
Si Si5 0.126727 0.698955 0.548134
Si Si6 0.677944 0.806431 0.662881
O O1 0.231003 0.231003 0.339177
O O2 0.308327 0.442910 0.323961
O O3 0.119849 0.336057 0.382037
O O4 0.148573 0.303536 0.243160
O O5 0.612269 0.179659 0.743160
O O6 0.629488 0.169705 0.891127
O O7 0.518481 0.000000 0.817992
O O8 0.169705 0.540216 0.095194
O O9 0.134583 0.691673 0.162359
O O10 0.000000 0.481519 0.168328
O O11 0.617758 0.617758 0.467481
O O12 0.779484 0.558968 0.493160
O O13 0.119849 0.783793 0.604284
O O14 0.000000 0.617758 0.518839
O O15 0.768997 0.768997 0.647144
#
# Coordination Sequence:
#
# PCOD9585305 Si02
#       6
#    12  12  12  12  12  12
#     4   9  18  35  59  84 110 144 189 239 289 342
#     4   8  16  33  56  81 108 139 180 233 289 342
#     4   8  16  33  56  81 108 139 180 233 289 342
#     4  11  22  35  54  82 117 156 194 230 276 334
#     4  11  22  35  54  82 117 156 194 230 276 334
#     4   9  18  35  59  84 110 144 189 239 289 342
#
# _framework density 23.240029
#
# number of rings (size 3 to 8) (size 9 to 14) (size 15 to 20)
#    0.000    2.667    0.000    4.000    0.000    3.333 
#    2.000    5.000    0.000    6.000    0.000    0.000 
#    0.000    0.000    0.000    0.000    0.000    0.000 
#
# Total GULP energy -402182.093713 kJ/mol
# GULP energy per Si atom -5585.862413 kJ/mol
# Density = 2.318713 g / cm^3
# Si number density = 23.240029 Si / 1000 Ang^3
#
#
#
# Elastic Constant Matrix: (Units=GPa)
#
#
# Indices 1 2 3 4 5 6 
#
# 1 73.0877 21.6746 40.6196 0.0000 0.0000 0.0000
# 2 21.6746 73.0877 40.6196 0.0000 0.0000 0.0000
# 3 40.6196 40.6196 106.7658 0.0000 0.0000 0.0000
# 4 0.0000 0.0000 0.0000 26.9406 0.0000 0.0000
# 5 0.0000 0.0000 0.0000 0.0000 26.9406 0.0000
# 6 0.0000 0.0000 0.0000 0.0000 0.0000 25.7066
#
#
#
# Elastic Compliance Matrix: (Units=1/GPa)
#
#
# Indices 1 2 3 4 5 6 
#
# 1 0.017555 -0.001895 -0.005958 0.000000 0.000000 0.000000
# 2 -0.001895 0.017555 -0.005958 0.000000 0.000000 0.000000
# 3 -0.005958 -0.005958 0.013900 0.000000 0.000000 0.000000
# 4 0.000000 0.000000 0.000000 0.037119 0.000000 0.000000
# 5 0.000000 0.000000 0.000000 0.000000 0.037119 0.000000
# 6 0.000000 0.000000 0.000000 0.000000 0.000000 0.038901
#
#
# Mechanical properties :
#
#
# Convention : Reuss Voigt Hill
#
# Bulk Modulus (GPa) = 46.75407 50.97429 48.86418
# Shear Modulus (GPa) = 25.39353 25.91939 25.65646
#
# Velocity S-wave (km/s) = 3.30913 3.34322 3.32622
# Velocity P-wave (km/s) = 5.89594 6.07324 5.98525
#
# Compressibility (1/GPa) = 0.02138851
#
# Stress axis : x y z
#
# Youngs Moduli (GPa) = 56.96240 56.96240 71.94287
#
# Poissons Ratio (x) = 0.10793 0.42865
# Poissons Ratio (y) = 0.10793 0.42865
# Poissons Ratio (z) = 0.33939 0.33939
#
# Static dielectric constant tensor:
#      x y z
#    x 1.890510 0.000000 0.000000 
#    y 0.000000 1.890510 0.000000 
#    z 0.000000 0.000000 1.945090 
# 
# From -- ./inp_files/1697.got.cif
#   From: 2010.05.17/outbox.cif.g08.bks.cpg/sg185_cif.got.tgz:1697.got - 2010.05.20 12:05:34.
