data_PCOD9585346
_publ_section_title
;
Structure prediction by ZEFSAII (Michael W. Deem and Ramdas Pophale) SiO2 
 PCOD9585346
Probable space group: P 63 M C
;
_chemical_formula_sum "Si O2"
_cell_formula_units_Z 72
_cell_length_a 20.394804
_cell_length_b 20.394804
_cell_length_c 10.714184
_cell_angle_alpha 90.000000
_cell_angle_beta 90.000000
_cell_angle_gamma 120.000000
_cell_volume 3859.480083
_symmetry_space_group_name_H-M "P 63 M C"
_symmetry_group_IT_number 186
_symmetry_cell_setting 'hexagonal'
loop_
_space_group_symop_operation_xyz
x,y,z
x-y,x,1/2+z
-y,x-y,z
-x,-y,1/2+z
-x+y,-x,z
y,-x+y,1/2+z
-x+y,y,z
x,x-y,z
-y,-x,z
y,x,1/2+z
x-y,-y,1/2+z
-x,-x+y,1/2+z
loop_
_atom_site_type_symbol
_atom_site_label
_atom_site_fract_x
_atom_site_fract_y
_atom_site_fract_z
Si Si1 0.183390 0.664150 0.754650
Si Si2 0.931781 0.393431 0.482119
Si Si3 0.461611 0.155860 0.993181
Si Si4 0.720168 0.935829 0.224886
Si Si5 0.720708 0.024381 0.988344
Si Si6 0.692783 0.156070 0.718991
O O1 0.217734 0.608867 0.765040
O O2 0.249067 0.750934 0.765604
O O3 0.122063 0.640537 0.862482
O O4 0.143132 0.649436 0.620206
O O5 0.968651 0.484326 0.477423
O O6 0.879307 0.364003 0.605183
O O7 0.983836 0.355015 0.482448
O O8 0.489101 0.244551 0.990010
O O9 0.370559 0.110387 0.005465
O O10 0.483402 0.139938 0.857005
O O11 0.746729 0.873365 0.222793
O O12 0.736395 0.979710 0.356710
O O13 0.628394 0.887638 0.218590
O O14 0.743376 0.989909 0.104132
O O15 0.755192 0.244809 0.703204
#
# Coordination Sequence:
#
# PCOD9585346 Si02
#       6
#    12  12  12  12  12  12
#     4  10  20  33  47  64  88 121 164 209 250 293
#     4  10  20  30  44  68  94 123 162 206 252 298
#     4   9  18  32  50  70  92 124 161 195 244 303
#     4   9  18  32  51  74  99 132 167 195 236 293
#     4  10  18  33  51  71 102 133 161 201 248 294
#     4   8  15  30  48  63  85 119 158 198 242 297
#
# _framework density 18.655362
#
# number of rings (size 3 to 8) (size 9 to 14) (size 15 to 20)
#    0.000    2.667    0.000    3.167    0.000    2.000 
#    0.000   11.667    0.000    0.333    0.000    0.000 
#    0.000    0.000    0.000   19.000    0.000    0.000 
#
# Total GULP energy -400984.982590 kJ/mol
# GULP energy per Si atom -5569.235869 kJ/mol
# Density = 1.861290 g / cm^3
# Si number density = 18.655362 Si / 1000 Ang^3
#
#
#
# Elastic Constant Matrix: (Units=GPa)
#
#
# Indices 1 2 3 4 5 6 
#
# 1 -25.1176 75.7910 34.5185 0.0000 0.0000 0.0000
# 2 75.7910 -25.1176 34.5185 0.0000 0.0000 0.0000
# 3 34.5185 34.5185 160.7637 0.0000 0.0000 0.0000
# 4 0.0000 0.0000 0.0000 97.2096 0.0000 0.0000
# 5 0.0000 0.0000 0.0000 0.0000 97.2096 0.0000
# 6 0.0000 0.0000 0.0000 0.0000 0.0000 -50.4543
#
#
#
# Elastic Compliance Matrix: (Units=1/GPa)
#
#
# Indices 1 2 3 4 5 6 
#
# 1 0.008992 0.018902 -0.005989 0.000000 0.000000 0.000000
# 2 0.018902 0.008992 -0.005989 0.000000 0.000000 0.000000
# 3 -0.005989 -0.005989 0.008792 0.000000 0.000000 0.000000
# 4 0.000000 0.000000 0.000000 0.010287 0.000000 0.000000
# 5 0.000000 0.000000 0.000000 0.000000 0.010287 0.000000
# 6 0.000000 0.000000 0.000000 0.000000 0.000000 -0.019820
#
#
# Mechanical properties :
#
#
# Convention : Reuss Voigt Hill
#
# Bulk Modulus (GPa) = 24.61652 44.46496 34.54074
# Shear Modulus (GPa) = 183.65658 26.50637 105.08147
#
# Velocity S-wave (km/s) = 9.93281 3.77350 7.51332
# Velocity P-wave (km/s) = 12.03211 6.54770 9.68618
#
# Compressibility (1/GPa) = 0.04062313
#
# Stress axis : x y z
#
# Youngs Moduli (GPa) = 111.20982 111.20982 113.73588
#
# Poissons Ratio (x) = -2.10209 0.68120
# Poissons Ratio (y) = -2.10209 0.68120
# Poissons Ratio (z) = 0.66607 0.66607
#
# Static dielectric constant tensor:
#      x y z
#    x 1.624110 0.000000 0.000000 
#    y 0.000000 1.624110 0.000000 
#    z 0.000000 0.000000 1.679240 
# 
# From -- ./inp_files/1220.got.cif
#   From: 2010.05.17/outbox.cif.g08.bks.cpg/sg186_1_cif.got.tgz:1220.got - 2010.05.20 12:07:08.
