data_PCOD9585767
_publ_section_title
;
Structure prediction by ZEFSAII (Michael W. Deem and Ramdas Pophale) SiO2 
 PCOD9585767
Probable space group: P -6 M 2
;
_chemical_formula_sum "Si O2"
_cell_formula_units_Z 66
_cell_length_a 17.711861
_cell_length_b 17.711861
_cell_length_c 13.874018
_cell_angle_alpha 90.000000
_cell_angle_beta 90.000000
_cell_angle_gamma 120.000000
_cell_volume 3769.304959
_symmetry_space_group_name_H-M "P -6 M 2"
_symmetry_group_IT_number 187
_symmetry_cell_setting 'hexagonal'
loop_
_space_group_symop_operation_xyz
x,y,z
-x+y,-x,-z
-y,x-y,z
x,y,-z
-x+y,-x,z
-y,x-y,-z
-y,-x,-z
-x+y,y,-z
x,x-y,-z
-x+y,y,z
x,x-y,z
-y,-x,z
loop_
_atom_site_type_symbol
_atom_site_label
_atom_site_fract_x
_atom_site_fract_y
_atom_site_fract_z
Si Si1 0.846922 0.514157 0.606823
Si Si2 0.951936 0.566008 0.199143
Si Si3 0.849960 0.517010 0.000000
Si Si4 0.670244 0.749855 0.750588
Si Si5 0.173936 0.999928 0.614875
Si Si6 0.167691 0.166363 0.112004
O O1 0.885647 0.552988 0.500000
O O2 0.753095 0.506190 0.610267
O O3 0.837785 0.418893 0.608889
O O4 0.897063 0.560244 0.704874
O O5 0.959843 0.479921 0.197034
O O6 0.044890 0.651573 0.218205
O O7 0.903766 0.563427 0.098353
O O8 0.756978 0.513955 0.000000
O O9 0.836679 0.418340 0.000000
O O10 0.635086 0.817543 0.740802
O O11 0.731141 0.761703 0.658342
O O12 0.743935 0.786122 0.832914
O O13 0.177314 0.998786 0.500000
O O14 0.076509 0.923492 0.645031
O O15 0.189969 0.094985 0.642409
O O16 0.064480 0.128959 0.121208
O O17 0.192566 0.096283 0.147203
O O18 0.189208 0.181645 0.000000
#
# Coordination Sequence:
#
# PCOD9585767 Si02
#       6
#    12  12   6  12  12  12
#     4   9  17  30  50  76 106 139 173 208 246 292
#     4  10  22  38  53  73 100 131 168 210 260 309
#     4  10  21  36  55  78 108 144 176 202 231 280
#     4  10  21  35  50  70  95 125 163 207 257 303
#     4   9  17  29  46  70 103 142 178 206 233 275
#     4   9  17  28  43  65  95 129 161 190 222 265
#
# _framework density 17.50986
#
# number of rings (size 3 to 8) (size 9 to 14) (size 15 to 20)
#    0.000    2.545    0.000    1.727    1.273    5.818 
#    0.000    5.455    0.000    0.364    0.000    0.000 
#    0.000    0.000    0.000    9.091    0.000    0.000 
#
# Total GULP energy -367584.645894 kJ/mol
# GULP energy per Si atom -5569.464332 kJ/mol
# Density = 1.747001 g / cm^3
# Si number density = 17.509860 Si / 1000 Ang^3
#
#
#
# Elastic Constant Matrix: (Units=GPa)
#
#
# Indices 1 2 3 4 5 6 
#
# 1 22.9432 34.2205 24.4514 0.0000 0.0000 0.0000
# 2 34.2205 22.9432 24.4514 0.0000 0.0000 0.0000
# 3 24.4514 24.4514 131.3558 0.0000 0.0000 0.0000
# 4 0.0000 0.0000 0.0000 14.9275 0.0000 0.0000
# 5 0.0000 0.0000 0.0000 0.0000 14.9275 0.0000
# 6 0.0000 0.0000 0.0000 0.0000 0.0000 -5.6387
#
#
#
# Elastic Compliance Matrix: (Units=1/GPa)
#
#
# Indices 1 2 3 4 5 6 
#
# 1 -0.033933 0.054740 -0.003873 0.000000 0.000000 0.000000
# 2 0.054740 -0.033933 -0.003873 0.000000 0.000000 0.000000
# 3 -0.003873 -0.003873 0.009055 0.000000 0.000000 0.000000
# 4 0.000000 0.000000 0.000000 0.066991 0.000000 0.000000
# 5 0.000000 0.000000 0.000000 0.000000 0.066991 0.000000
# 6 0.000000 0.000000 0.000000 0.000000 0.000000 -0.177347
#
#
# Mechanical properties :
#
#
# Convention : Reuss Voigt Hill
#
# Bulk Modulus (GPa) = 28.42818 38.16543 33.29681
# Shear Modulus (GPa) = -27.10906 11.11784 -7.99561
#
# Velocity S-wave (km/s) = -3.93901 2.52255 -2.13922
# Velocity P-wave (km/s) = 2.10165 5.50710 3.59939
#
# Compressibility (1/GPa) = 0.03517636
#
# Stress axis : x y z
#
# Youngs Moduli (GPa) = -29.46962 -29.46962 110.43787
#
# Poissons Ratio (x) = 1.61318 0.42774
# Poissons Ratio (y) = 1.61318 0.42774
# Poissons Ratio (z) = -0.11414 -0.11414
#
# Static dielectric constant tensor:
#      x y z
#    x 1.601310 0.000000 0.000000 
#    y 0.000000 1.601310 0.000000 
#    z 0.000000 0.000000 1.652790 
# 
# From -- ./inp_files/2453.got.cif
#   From: 2010.05.17/outbox.cif.g08.bks.cpg/sg187_2_cif.got.tgz:2453.got - 2010.05.20 12:09:04.
