data_PCOD9585744
_publ_section_title
;
Structure prediction by ZEFSAII (Michael W. Deem and Ramdas Pophale) SiO2 
 PCOD9585744
Probable space group: P -6 M 2
;
_chemical_formula_sum "Si O2"
_cell_formula_units_Z 72
_cell_length_a 23.460567
_cell_length_b 23.460567
_cell_length_c 8.884637
_cell_angle_alpha 90.000000
_cell_angle_beta 90.000000
_cell_angle_gamma 120.000000
_cell_volume 4234.940649
_symmetry_space_group_name_H-M "P -6 M 2"
_symmetry_group_IT_number 187
_symmetry_cell_setting 'hexagonal'
loop_
_space_group_symop_operation_xyz
x,y,z
-x+y,-x,-z
-y,x-y,z
x,y,-z
-x+y,-x,z
-y,x-y,-z
-y,-x,-z
-x+y,y,-z
x,x-y,-z
-x+y,y,z
x,x-y,z
-y,-x,z
loop_
_atom_site_type_symbol
_atom_site_label
_atom_site_fract_x
_atom_site_fract_y
_atom_site_fract_z
Si Si1 0.136444 0.732439 0.820666
Si Si2 0.923127 0.593599 0.680051
Si Si3 0.800452 0.333351 0.819640
Si Si4 0.405014 0.462609 0.681268
Si Si5 0.278307 0.205725 0.819658
Si Si6 0.740683 0.804610 0.679586
O O1 0.211545 0.788456 0.788590
O O2 0.114555 0.661059 0.755769
O O3 0.091130 0.758449 0.744845
O O4 0.126599 0.729317 0.000000
O O5 0.922676 0.600021 0.500000
O O6 0.859507 0.527448 0.734525
O O7 0.923437 0.655727 0.755431
O O8 0.988467 0.590628 0.721825
O O9 0.798001 0.399001 0.783250
O O10 0.731391 0.268610 0.783811
O O11 0.810780 0.333042 0.000000
O O12 0.399342 0.463001 0.500000
O O13 0.471048 0.528953 0.726217
O O14 0.275995 0.137998 0.777916
O O15 0.218113 0.211986 0.753202
O O16 0.278689 0.210143 0.000000
O O17 0.738578 0.795811 0.500000
O O18 0.758531 0.879266 0.712194
#
# Coordination Sequence:
#
# PCOD9585744 Si02
#       6
#    12  12  12  12  12  12
#     4  10  20  34  55  83 112 142 179 223 270 321
#     4  11  22  36  54  78 108 143 181 225 278 331
#     4  10  21  37  55  73  96 132 180 231 281 334
#     4  10  21  36  54  79 112 148 185 226 273 325
#     4  11  23  37  55  82 115 149 186 227 271 322
#     4  10  20  35  57  84 112 143 180 222 269 321
#
# _framework density 17.001418000000001
#
# number of rings (size 3 to 8) (size 9 to 14) (size 15 to 20)
#    0.000    1.667    1.667    3.167    0.000    8.333 
#    0.000    0.000    0.000    1.667    0.000    0.000 
#    0.000    0.000    0.000    0.000    0.000    0.000 
#
# Total GULP energy -402224.305015 kJ/mol
# GULP energy per Si atom -5586.448681 kJ/mol
# Density = 1.696272 g / cm^3
# Si number density = 17.001418 Si / 1000 Ang^3
#
#
#
# Elastic Constant Matrix: (Units=GPa)
#
#
# Indices 1 2 3 4 5 6 
#
# 1 140.7754 87.0174 57.9105 0.0000 0.0002 0.0000
# 2 87.0174 140.7754 57.9105 0.0000 -0.0002 0.0000
# 3 57.9105 57.9105 47.3683 0.0000 0.0000 0.0000
# 4 0.0000 0.0000 0.0000 30.1460 0.0000 -0.0002
# 5 0.0002 -0.0002 0.0000 0.0000 30.1460 0.0000
# 6 0.0000 0.0000 0.0000 -0.0002 0.0000 26.8790
#
#
#
# Elastic Compliance Matrix: (Units=1/GPa)
#
#
# Indices 1 2 3 4 5 6 
#
# 1 0.015102 -0.003500 -0.014184 0.000000 0.000000 0.000000
# 2 -0.003500 0.015102 -0.014184 0.000000 0.000000 0.000000
# 3 -0.014184 -0.014184 0.055792 0.000000 0.000000 0.000000
# 4 0.000000 0.000000 0.000000 0.033172 0.000000 0.000000
# 5 0.000000 0.000000 0.000000 0.000000 0.033172 0.000000
# 6 0.000000 0.000000 0.000000 0.000000 0.000000 0.037204
#
#
# Mechanical properties :
#
#
# Convention : Reuss Voigt Hill
#
# Bulk Modulus (GPa) = 44.92277 81.62175 63.27226
# Shear Modulus (GPa) = 19.17934 25.83961 22.50948
#
# Velocity S-wave (km/s) = 3.36237 3.90276 3.64260
# Velocity P-wave (km/s) = 6.44627 8.27174 7.41539
#
# Compressibility (1/GPa) = 0.02226043
#
# Stress axis : x y z
#
# Youngs Moduli (GPa) = 66.21765 66.21765 17.92386
#
# Poissons Ratio (x) = 0.23177 0.25422
# Poissons Ratio (y) = 0.23177 0.25422
# Poissons Ratio (z) = 0.93920 0.93920
#
# Static dielectric constant tensor:
#      x y z
#    x 1.560850 0.000000 0.000000 
#    y 0.000000 1.560850 0.000000 
#    z 0.000000 0.000000 1.568930 
# 
# From -- ./inp_files/978.got.cif
#   From: 2010.05.17/outbox.cif.g08.bks.cpg/sg187_1_cif.got.tgz:978.got - 2010.05.20 12:09:04.
