data_PCOD9585433
_publ_section_title
;
Structure prediction by ZEFSAII (Michael W. Deem and Ramdas Pophale) SiO2 
 PCOD9585433
Probable space group: P -6 M 2
;
_chemical_formula_sum "Si O2"
_cell_formula_units_Z 60
_cell_length_a 22.338113
_cell_length_b 22.338113
_cell_length_c 7.615181
_cell_angle_alpha 90.000000
_cell_angle_beta 90.000000
_cell_angle_gamma 120.000000
_cell_volume 3290.817734
_symmetry_space_group_name_H-M "P -6 M 2"
_symmetry_group_IT_number 187
_symmetry_cell_setting 'hexagonal'
loop_
_space_group_symop_operation_xyz
x,y,z
-x+y,-x,-z
-y,x-y,z
x,y,-z
-x+y,-x,z
-y,x-y,-z
-y,-x,-z
-x+y,y,-z
x,x-y,-z
-x+y,y,z
x,x-y,z
-y,-x,z
loop_
_atom_site_type_symbol
_atom_site_label
_atom_site_fract_x
_atom_site_fract_y
_atom_site_fract_z
Si Si1 0.492848 0.507153 0.698639
Si Si2 0.708939 0.921835 0.211487
Si Si3 0.571674 0.143348 0.793352
Si Si4 0.000325 0.372239 0.709867
Si Si5 0.710318 0.553404 0.710251
Si Si6 0.998762 0.134748 0.214099
O O1 0.478677 0.521324 0.500000
O O2 0.534833 0.465168 0.694957
O O3 0.550021 0.579324 0.781341
O O4 0.691046 0.845523 0.272506
O O5 0.658362 0.949802 0.260746
O O6 0.787195 0.975132 0.272574
O O7 0.711130 0.920825 0.000000
O O8 0.526101 0.178202 0.747217
O O9 0.564504 0.129007 0.000000
O O10 0.993531 0.377337 0.500000
O O11 0.921950 0.321376 0.777398
O O12 0.716562 0.562215 0.500000
O O13 0.784670 0.569339 0.779312
O O14 0.924395 0.075606 0.276313
O O15 0.058999 0.117998 0.262650
O O16 0.996991 0.134809 0.000000
#
# Coordination Sequence:
#
# PCOD9585433 Si02
#       6
#     6  12   6  12  12  12
#     4   8  16  32  50  66  86 112 142 176 218 270
#     4   9  18  30  42  62  95 126 147 176 224 276
#     4  10  18  28  44  66  90 112 142 190 236 268
#     4   9  17  30  49  69  87 111 147 188 222 260
#     4   9  18  33  49  63  85 121 160 192 231 284
#     4   8  13  22  37  56  79 112 155 196 227 255
#
# _framework density 18.232551000000001
#
# number of rings (size 3 to 8) (size 9 to 14) (size 15 to 20)
#    0.000    3.200    0.000    3.500    0.000    5.600 
#    0.600    0.000    0.000    0.000    0.000    0.000 
#    1.000    1.600    0.600    0.000    0.800    0.000 
#
# Total GULP energy -334138.648159 kJ/mol
# GULP energy per Si atom -5568.977469 kJ/mol
# Density = 1.819105 g / cm^3
# Si number density = 18.232551 Si / 1000 Ang^3
#
#
#
# Elastic Constant Matrix: (Units=GPa)
#
#
# Indices 1 2 3 4 5 6 
#
# 1 121.7668 94.1664 0.5650 0.0000 -0.0001 0.0000
# 2 94.1664 121.7668 0.5650 0.0000 0.0001 0.0000
# 3 0.5650 0.5650 40.7364 0.0000 0.0000 0.0000
# 4 0.0000 0.0000 0.0000 7.2338 0.0000 0.0001
# 5 -0.0001 0.0001 0.0000 0.0000 7.2338 0.0000
# 6 0.0000 0.0000 0.0000 0.0001 0.0000 13.8002
#
#
#
# Elastic Compliance Matrix: (Units=1/GPa)
#
#
# Indices 1 2 3 4 5 6 
#
# 1 0.020431 -0.015800 -0.000064 0.000000 0.000001 0.000000
# 2 -0.015800 0.020431 -0.000064 0.000000 -0.000001 0.000000
# 3 -0.000064 -0.000064 0.024550 0.000000 0.000000 0.000000
# 4 0.000000 0.000000 0.000000 0.138240 0.000000 -0.000001
# 5 0.000001 -0.000001 0.000000 0.000000 0.138240 0.000000
# 6 0.000000 0.000000 0.000000 -0.000001 0.000000 0.072463
#
#
# Mechanical properties :
#
#
# Convention : Reuss Voigt Hill
#
# Bulk Modulus (GPa) = 29.80119 52.76253 41.28186
# Shear Modulus (GPa) = 10.93140 18.25181 14.59160
#
# Velocity S-wave (km/s) = 2.45124 3.16738 2.83204
# Velocity P-wave (km/s) = 4.93882 6.50983 5.77797
#
# Compressibility (1/GPa) = 0.03355571
#
# Stress axis : x y z
#
# Youngs Moduli (GPa) = 48.94436 48.94436 40.73346
#
# Poissons Ratio (x) = 0.77332 0.00262
# Poissons Ratio (y) = 0.77332 0.00262
# Poissons Ratio (z) = 0.00314 0.00314
#
# Static dielectric constant tensor:
#      x y z
#    x 1.636000 0.000000 0.000000 
#    y 0.000000 1.636000 0.000000 
#    z 0.000000 0.000000 1.707410 
# 
# From -- ./inp_files/682.got.cif
#   From: 2010.05.17/outbox.cif.g08.bks.cpg/sg187_1_cif.got.tgz:682.got - 2010.05.20 12:09:04.
