data_PCOD9585624
_publ_section_title
;
Structure prediction by ZEFSAII (Michael W. Deem and Ramdas Pophale) SiO2 
 PCOD9585624
Probable space group: P -6 M 2
;
_chemical_formula_sum "Si O2"
_cell_formula_units_Z 84
_cell_length_a 17.569250
_cell_length_b 17.569250
_cell_length_c 17.701070
_cell_angle_alpha 90.000000
_cell_angle_beta 90.000000
_cell_angle_gamma 120.000000
_cell_volume 4731.911315
_symmetry_space_group_name_H-M "P -6 M 2"
_symmetry_group_IT_number 187
_symmetry_cell_setting 'hexagonal'
loop_
_space_group_symop_operation_xyz
x,y,z
-x+y,-x,-z
-y,x-y,z
x,y,-z
-x+y,-x,z
-y,x-y,-z
-y,-x,-z
-x+y,y,-z
x,x-y,-z
-x+y,y,z
x,x-y,z
-y,-x,z
loop_
_atom_site_type_symbol
_atom_site_label
_atom_site_fract_x
_atom_site_fract_y
_atom_site_fract_z
Si Si1 0.999544 0.674946 0.321044
Si Si2 0.000095 0.826581 0.590795
Si Si3 0.305228 0.239099 0.160262
Si Si4 0.334482 0.849399 0.232655
Si Si5 0.486473 0.153142 0.589762
Si Si6 0.496945 0.162443 0.089593
Si Si7 0.097495 0.720575 0.915811
O O1 0.022036 0.755000 0.376989
O O2 0.083166 0.668478 0.292877
O O3 0.959966 0.695986 0.246818
O O4 0.925991 0.586135 0.360582
O O5 0.998480 0.822453 0.500000
O O6 0.076284 0.923717 0.613255
O O7 0.904441 0.808881 0.615824
O O8 0.274560 0.137280 0.149698
O O9 0.406380 0.294226 0.133328
O O10 0.259380 0.281000 0.110464
O O11 0.420153 0.840305 0.242307
O O12 0.244904 0.755097 0.237038
O O13 0.336092 0.891213 0.150133
O O14 0.466297 0.134855 0.500000
O O15 0.582462 0.164923 0.602515
O O16 0.486124 0.243062 0.606942
O O17 0.569586 0.139172 0.115443
O O18 0.531830 0.265915 0.098565
O O19 0.481117 0.143839 0.000000
O O20 0.189201 0.810800 0.917936
O O21 0.078736 0.681047 0.000000
#
# Coordination Sequence:
#
# PCOD9585624 Si02
#       7
#    12  12  12  12  12  12  12
#     4  11  21  35  52  76 107 139 172 210 255 309
#     4  10  20  35  57  84 111 137 167 207 255 305
#     4  10  20  32  48  71  99 133 170 205 243 294
#     4  10  21  37  57  79 104 134 169 211 260 315
#     4  10  20  34  52  74 102 138 180 223 263 303
#     4   9  17  29  45  66  93 126 164 205 248 291
#     4   9  19  35  53  74 100 130 166 212 264 310
#
# _framework density 17.751812000000001
#
# number of rings (size 3 to 8) (size 9 to 14) (size 15 to 20)
#    0.000    2.143    0.000    3.571    0.000    7.429 
#    0.000    0.000    0.000    2.857    0.000    0.000 
#    0.000    6.857    0.000    0.000    0.000    0.000 
#
# Total GULP energy -468630.934340 kJ/mol
# GULP energy per Si atom -5578.939695 kJ/mol
# Density = 1.771141 g / cm^3
# Si number density = 17.751812 Si / 1000 Ang^3
#
#
#
# Elastic Constant Matrix: (Units=GPa)
#
#
# Indices 1 2 3 4 5 6 
#
# 1 86.7790 40.7466 37.1415 0.0000 0.0070 0.0000
# 2 40.7466 86.7790 37.1415 0.0000 -0.0070 0.0000
# 3 37.1415 37.1415 52.9747 0.0000 0.0000 0.0000
# 4 0.0000 0.0000 0.0000 48.4417 0.0000 -0.0070
# 5 0.0070 -0.0070 0.0000 0.0000 48.4417 0.0000
# 6 0.0000 0.0000 0.0000 -0.0070 0.0000 23.0162
#
#
#
# Elastic Compliance Matrix: (Units=1/GPa)
#
#
# Indices 1 2 3 4 5 6 
#
# 1 0.017489 -0.004235 -0.009293 0.000000 -0.000003 0.000000
# 2 -0.004235 0.017489 -0.009293 0.000000 0.000003 0.000000
# 3 -0.009293 -0.009293 0.031908 0.000000 0.000000 0.000000
# 4 0.000000 0.000000 0.000000 0.020643 0.000000 0.000006
# 5 -0.000003 0.000003 0.000000 0.000000 0.020643 0.000000
# 6 0.000000 0.000000 0.000000 0.000006 0.000000 0.043448
#
#
# Mechanical properties :
#
#
# Convention : Reuss Voigt Hill
#
# Bulk Modulus (GPa) = 47.06976 50.73241 48.90108
# Shear Modulus (GPa) = 24.46847 31.41347 27.94097
#
# Velocity S-wave (km/s) = 3.71666 4.21122 3.97164
# Velocity P-wave (km/s) = 6.70754 7.23094 6.97415
#
# Compressibility (1/GPa) = 0.02124506
#
# Stress axis : x y z
#
# Youngs Moduli (GPa) = 57.17776 57.17776 31.33992
#
# Poissons Ratio (x) = 0.24212 0.29125
# Poissons Ratio (y) = 0.24212 0.29125
# Poissons Ratio (z) = 0.53136 0.53136
#
# Static dielectric constant tensor:
#      x y z
#    x 1.599900 0.000000 0.000000 
#    y 0.000000 1.599900 0.000000 
#    z 0.000000 0.000000 1.605190 
# 
# From -- ./inp_files/2647.got.cif
#   From: 2010.05.17/outbox.cif.g08.bks.cpg/sg187_2_cif.got.tgz:2647.got - 2010.05.20 12:09:04.
