data_PCOD9585373
_publ_section_title
;
Structure prediction by ZEFSAII (Michael W. Deem and Ramdas Pophale) SiO2 
 PCOD9585373
Probable space group: P 63 M C
;
_chemical_formula_sum "Si O2"
_cell_formula_units_Z 48
_cell_length_a 24.116381
_cell_length_b 24.116381
_cell_length_c 5.179486
_cell_angle_alpha 90.000000
_cell_angle_beta 90.000000
_cell_angle_gamma 120.000000
_cell_volume 2608.804699
_symmetry_space_group_name_H-M "P 63 M C"
_symmetry_group_IT_number 186
_symmetry_cell_setting 'hexagonal'
loop_
_space_group_symop_operation_xyz
x,y,z
x-y,x,1/2+z
-y,x-y,z
-x,-y,1/2+z
-x+y,-x,z
y,-x+y,1/2+z
-x+y,y,z
x,x-y,z
-y,-x,z
y,x,1/2+z
x-y,-y,1/2+z
-x,-x+y,1/2+z
loop_
_atom_site_type_symbol
_atom_site_label
_atom_site_fract_x
_atom_site_fract_y
_atom_site_fract_z
Si Si1 0.454665 0.042298 0.568010
Si Si2 0.198143 0.162953 0.094408
Si Si3 0.660779 0.895801 0.677169
Si Si4 0.274941 0.857270 0.183411
O O1 0.524755 0.049509 0.571251
O O2 0.461118 0.112079 0.599776
O O3 0.420297 0.005026 0.305014
O O4 0.198791 0.099396 0.173553
O O5 0.157025 0.175082 0.303233
O O6 0.269653 0.223493 0.119911
O O7 0.667074 0.833537 0.625125
O O8 0.607681 0.885285 0.467728
O O9 0.638891 0.890233 0.971430
O O10 0.219260 0.780741 0.177150
#
# Coordination Sequence:
#
# PCOD9585373 Si02
#       4
#    12  12  12  12
#     4  10  21  35  51  74 105 142 181 216 256 311
#     4  11  22  36  53  72  96 124 155 194 242 296
#     4   9  19  32  48  74 101 124 154 194 245 303
#     4  10  19  33  52  76 105 134 169 212 255 298
#
# _framework density 18.399229999999999
#
# number of rings (size 3 to 8) (size 9 to 14) (size 15 to 20)
#    0.000    2.000    0.000    3.750    0.000   10.000 
#    0.000    0.000    0.000    5.500    0.000    0.000 
#    0.000   12.000    0.000    0.000    0.000    2.000 
#
# Total GULP energy -267287.819415 kJ/mol
# GULP energy per Si atom -5568.496238 kJ/mol
# Density = 1.835735 g / cm^3
# Si number density = 18.399230 Si / 1000 Ang^3
#
#
#
# Elastic Constant Matrix: (Units=GPa)
#
#
# Indices 1 2 3 4 5 6 
#
# 1 52.8227 28.8959 6.0977 0.0000 0.0000 0.0000
# 2 28.8959 52.8227 6.0977 0.0000 0.0000 0.0000
# 3 6.0977 6.0977 74.0026 0.0000 0.0000 0.0000
# 4 0.0000 0.0000 0.0000 20.8555 0.0000 0.0000
# 5 0.0000 0.0000 0.0000 0.0000 20.8555 0.0000
# 6 0.0000 0.0000 0.0000 0.0000 0.0000 11.9634
#
#
#
# Elastic Compliance Matrix: (Units=1/GPa)
#
#
# Indices 1 2 3 4 5 6 
#
# 1 0.027092 -0.014702 -0.001021 0.000000 0.000000 0.000000
# 2 -0.014702 0.027092 -0.001021 0.000000 0.000000 0.000000
# 3 -0.001021 -0.001021 0.013681 0.000000 0.000000 0.000000
# 4 0.000000 0.000000 0.000000 0.047949 0.000000 0.000000
# 5 0.000000 0.000000 0.000000 0.000000 0.047949 0.000000
# 6 0.000000 0.000000 0.000000 0.000000 0.000000 0.083588
#
#
# Mechanical properties :
#
#
# Convention : Reuss Voigt Hill
#
# Bulk Modulus (GPa) = 29.08948 29.09232 29.09090
# Shear Modulus (GPa) = 17.10581 19.97198 18.53890
#
# Velocity S-wave (km/s) = 3.05241 3.29823 3.17770
# Velocity P-wave (km/s) = 5.31671 5.50913 5.41378
#
# Compressibility (1/GPa) = 0.03437669
#
# Stress axis : x y z
#
# Youngs Moduli (GPa) = 36.91156 36.91156 73.09255
#
# Poissons Ratio (x) = 0.54269 0.07462
# Poissons Ratio (y) = 0.54269 0.07462
# Poissons Ratio (z) = 0.03768 0.03768
#
# Static dielectric constant tensor:
#      x y z
#    x 1.657680 0.000000 0.000000 
#    y 0.000000 1.657680 0.000000 
#    z 0.000000 0.000000 1.651630 
# 
# From -- ./inp_files/249.got.cif
#   From: 2010.05.17/outbox.cif.g08.bks.cpg/sg186_1_cif.got.tgz:249.got - 2010.05.20 12:07:08.
