data_PCOD9585829
_publ_section_title
;
Structure prediction by ZEFSAII (Michael W. Deem and Ramdas Pophale) SiO2 
 PCOD9585829
Probable space group: P -6 M 2
;
_chemical_formula_sum "Si O2"
_cell_formula_units_Z 75
_cell_length_a 18.000000
_cell_length_b 18.000000
_cell_length_c 15.000000
_cell_angle_alpha 90.000000
_cell_angle_beta 90.000000
_cell_angle_gamma 120.000000
_cell_volume 4208.883462
_symmetry_space_group_name_H-M "P -6 M 2"
_symmetry_group_IT_number 187
_symmetry_cell_setting 'hexagonal'
loop_
_space_group_symop_operation_xyz
x,y,z
-x+y,-x,-z
-y,x-y,z
x,y,-z
-x+y,-x,z
-y,x-y,-z
-y,-x,-z
-x+y,y,-z
x,x-y,-z
-x+y,y,z
x,x-y,z
-y,-x,z
loop_
_atom_site_type_symbol
_atom_site_label
_atom_site_fract_x
_atom_site_fract_y
_atom_site_fract_z
Si Si1 0.646603 0.953159 0.605597
Si Si2 0.494590 0.162128 0.144774
Si Si3 0.450380 0.144522 0.352325
Si Si4 0.395252 0.970743 0.902287
Si Si5 0.158588 0.490023 0.745655
Si Si6 0.166219 0.165303 0.608185
Si Si7 0.591558 0.183115 0.500000
O O1 0.638409 0.937297 0.500000
O O2 0.565929 0.880083 0.656909
O O3 0.737255 0.964950 0.637559
O O4 0.655773 0.045237 0.625297
O O5 0.587179 0.174358 0.119977
O O6 0.486283 0.243142 0.115623
O O7 0.485359 0.155689 0.252165
O O8 0.421587 0.069511 0.110686
O O9 0.405533 0.202767 0.360744
O O10 0.526363 0.180071 0.422453
O O11 0.486339 0.972678 0.899472
O O12 0.340776 0.907196 0.823897
O O13 0.356907 0.940102 0.000000
O O14 0.252913 0.505826 0.763016
O O15 0.159015 0.579507 0.739380
O O16 0.172947 0.167442 0.500000
O O17 0.068901 0.137802 0.630257
O O18 0.188981 0.094491 0.640847
#
# Coordination Sequence:
#
# PCOD9585829 Si02
#       7
#    12  12  12  12  12  12   3
#     4  11  22  35  56  77 109 147 191 225 270 326
#     4  10  19  33  51  78 115 153 190 227 270 324
#     4  11  22  34  48  73 107 150 196 240 283 321
#     4   9  19  37  61  83 106 136 171 218 278 335
#     4  11  24  41  61  82 108 137 176 227 284 344
#     4   9  17  30  49  74 103 136 176 223 274 323
#     4  12  22  32  48  72 112 152 206 248 286 316
#
# _framework density 17.819452999999999
#
# number of rings (size 3 to 8) (size 9 to 14) (size 15 to 20)
#    0.000    1.760    3.200    1.680    1.120    3.200 
#    1.920    0.000    0.000    2.880    0.000    0.000 
#    0.000    0.000    0.000    0.000    0.000    2.400 
#
# Total GULP energy -417581.924009 kJ/mol
# GULP energy per Si atom -5567.758987 kJ/mol
# Density = 1.777889 g / cm^3
# Si number density = 17.819453 Si / 1000 Ang^3
#
#
#
# Elastic Constant Matrix: (Units=GPa)
#
#
# Indices 1 2 3 4 5 6 
#
# 1 79.1673 54.4635 23.4707 0.0000 -0.0041 0.0000
# 2 54.4635 79.1673 23.4707 0.0000 0.0041 0.0000
# 3 23.4707 23.4707 61.1683 0.0000 0.0000 0.0000
# 4 0.0000 0.0000 0.0000 123.0927 0.0000 0.0041
# 5 -0.0041 0.0041 0.0000 0.0000 123.0927 0.0000
# 6 0.0000 0.0000 0.0000 0.0041 0.0000 12.3519
#
#
#
# Elastic Compliance Matrix: (Units=1/GPa)
#
#
# Indices 1 2 3 4 5 6 
#
# 1 0.024564 -0.015915 -0.003319 0.000000 0.000001 0.000000
# 2 -0.015915 0.024564 -0.003319 0.000000 -0.000001 0.000000
# 3 -0.003319 -0.003319 0.018895 0.000000 0.000000 0.000000
# 4 0.000000 0.000000 0.000000 0.008124 0.000000 -0.000003
# 5 0.000001 -0.000001 0.000000 0.000000 0.008124 0.000000
# 6 0.000000 0.000000 0.000000 -0.000003 0.000000 0.080959
#
#
# Mechanical properties :
#
#
# Convention : Reuss Voigt Hill
#
# Bulk Modulus (GPa) = 43.63288 46.92362 45.27825
# Shear Modulus (GPa) = 22.93835 59.58068 41.25951
#
# Velocity S-wave (km/s) = 3.59174 5.78864 4.81710
# Velocity P-wave (km/s) = 6.46065 8.43017 7.51025
#
# Compressibility (1/GPa) = 0.02291850
#
# Stress axis : x y z
#
# Youngs Moduli (GPa) = 40.70945 40.70945 52.92361
#
# Poissons Ratio (x) = 0.64790 0.17564
# Poissons Ratio (y) = 0.64790 0.17564
# Poissons Ratio (z) = 0.13510 0.13510
#
# Static dielectric constant tensor:
#      x y z
#    x 1.622280 0.000000 0.000000 
#    y 0.000000 1.622280 0.000000 
#    z 0.000000 0.000000 1.603900 
# 
# From -- ./inp_files/2564.got.cif
#   From: 2010.05.17/outbox.ucp.g08.bks.cvg/sg187_2_cif.got.tgz:2564.got - 2010.06.11 15:21:44.
