data_PCOD9585015
_publ_section_title
;
Structure prediction by ZEFSAII (Michael W. Deem and Ramdas Pophale) SiO2 
 PCOD9585015
Probable space group: P 6 M M
;
_chemical_formula_sum "Si O2"
_cell_formula_units_Z 84
_cell_length_a 18.042049
_cell_length_b 18.042049
_cell_length_c 18.244301
_cell_angle_alpha 90.000000
_cell_angle_beta 90.000000
_cell_angle_gamma 120.000000
_cell_volume 5143.154568
_symmetry_space_group_name_H-M "P 6 M M"
_symmetry_group_IT_number 183
_symmetry_cell_setting 'hexagonal'
loop_
_space_group_symop_operation_xyz
x,y,z
x-y,x,z
-y,x-y,z
-x,-y,z
-x+y,-x,z
y,-x+y,z
-x+y,y,z
x,x-y,z
-y,-x,z
y,x,z
x-y,-y,z
-x,-x+y,z
loop_
_atom_site_type_symbol
_atom_site_label
_atom_site_fract_x
_atom_site_fract_y
_atom_site_fract_z
Si Si1 0.364384 0.467661 0.451310
Si Si2 0.732105 0.629647 0.594923
Si Si3 0.734701 0.632942 0.878711
Si Si4 0.495417 0.331896 0.182972
Si Si5 0.634656 0.901197 0.312353
Si Si6 0.364525 0.897611 0.019943
Si Si7 0.467594 0.364334 0.738476
O O1 0.431151 0.568850 0.452858
O O2 0.421689 0.421689 0.450249
O O3 0.307247 0.430347 0.523606
O O4 0.307936 0.433821 0.378371
O O5 0.834055 0.668110 0.594747
O O6 0.697353 0.697353 0.594995
O O7 0.693071 0.569735 0.666326
O O8 0.836200 0.672399 0.874336
O O9 0.699780 0.699780 0.874799
O O10 0.700184 0.580186 0.954113
O O11 0.691600 0.566556 0.811670
O O12 0.524915 0.262458 0.196735
O O13 0.572500 0.427501 0.195977
O O14 0.417088 0.307162 0.237486
O O15 0.468764 0.325696 0.098133
O O16 0.668451 0.834226 0.311152
O O17 0.705495 0.000000 0.322862
O O18 0.435778 0.871556 0.999930
O O19 0.416177 0.000000 0.030192
O O20 0.568797 0.431204 0.736897
O O21 0.421786 0.421786 0.739120
#
# Coordination Sequence:
#
# PCOD9585015 Si02
#       7
#    12  12  12  12  12  12  12
#     4   9  17  30  49  71  93 119 152 188 227 274
#     4  10  19  31  49  72  97 127 164 203 240 279
#     4  10  19  31  48  69  93 122 158 197 234 274
#     4  10  19  30  45  67  96 127 157 189 227 272
#     4  10  20  33  50  71  94 122 157 196 235 276
#     4   9  17  29  46  67  90 119 155 192 230 275
#     4   9  17  30  49  70  90 115 148 186 229 278
#
# _framework density 16.332388000000002
#
# number of rings (size 3 to 8) (size 9 to 14) (size 15 to 20)
#    0.000    2.429    0.000    3.143    0.000    4.857 
#    0.000    0.000    0.000   13.000    0.000    0.000 
#    0.000    6.857    0.000    4.571    0.000    0.571 
#
# Total GULP energy -468099.060920 kJ/mol
# GULP energy per Si atom -5572.607868 kJ/mol
# Density = 1.629522 g / cm^3
# Si number density = 16.332388 Si / 1000 Ang^3
#
#
#
# Elastic Constant Matrix: (Units=GPa)
#
#
# Indices 1 2 3 4 5 6 
#
# 1 83.7348 49.5593 35.0923 0.0000 0.0000 0.0000
# 2 49.5593 83.7348 35.0923 0.0000 0.0000 0.0000
# 3 35.0923 35.0923 81.6325 0.0000 0.0000 0.0000
# 4 0.0000 0.0000 0.0000 4.9892 0.0000 0.0000
# 5 0.0000 0.0000 0.0000 0.0000 4.9892 0.0000
# 6 0.0000 0.0000 0.0000 0.0000 0.0000 17.0877
#
#
#
# Elastic Compliance Matrix: (Units=1/GPa)
#
#
# Indices 1 2 3 4 5 6 
#
# 1 0.019479 -0.009782 -0.004169 0.000000 0.000000 0.000000
# 2 -0.009782 0.019479 -0.004169 0.000000 0.000000 0.000000
# 3 -0.004169 -0.004169 0.015834 0.000000 0.000000 0.000000
# 4 0.000000 0.000000 0.000000 0.200432 0.000000 0.000000
# 5 0.000000 0.000000 0.000000 0.000000 0.200432 0.000000
# 6 0.000000 0.000000 0.000000 0.000000 0.000000 0.058522
#
#
# Mechanical properties :
#
#
# Convention : Reuss Voigt Hill
#
# Bulk Modulus (GPa) = 53.89717 54.28778 54.09248
# Shear Modulus (GPa) = 8.98311 14.03711 11.51011
#
# Velocity S-wave (km/s) = 2.34779 2.93484 2.65758
# Velocity P-wave (km/s) = 6.35778 6.69297 6.52753
#
# Compressibility (1/GPa) = 0.01855385
#
# Stress axis : x y z
#
# Youngs Moduli (GPa) = 51.33743 51.33743 63.15503
#
# Poissons Ratio (x) = 0.50217 0.26327
# Poissons Ratio (y) = 0.50217 0.26327
# Poissons Ratio (z) = 0.21401 0.21401
#
# Static dielectric constant tensor:
#      x y z
#    x 1.548380 0.000000 0.000000 
#    y 0.000000 1.548380 0.000000 
#    z 0.000000 0.000000 1.552700 
# 
# From -- ./inp_files/2260.got.cif
#   From: 2010.05.17/outbox.cif.g08.bks.cpg/sg183_2_cif.got.tgz:2260.got - 2010.05.20 12:02:58.
