data_PCOD9585536
_publ_section_title
;
Structure prediction by ZEFSAII (Michael W. Deem and Ramdas Pophale) SiO2 
 PCOD9585536
Probable space group: P -6 M 2
;
_chemical_formula_sum "Si O2"
_cell_formula_units_Z 72
_cell_length_a 23.530700
_cell_length_b 23.530700
_cell_length_c 7.520376
_cell_angle_alpha 90.000000
_cell_angle_beta 90.000000
_cell_angle_gamma 120.000000
_cell_volume 3606.117557
_symmetry_space_group_name_H-M "P -6 M 2"
_symmetry_group_IT_number 187
_symmetry_cell_setting 'hexagonal'
loop_
_space_group_symop_operation_xyz
x,y,z
-x+y,-x,-z
-y,x-y,z
x,y,-z
-x+y,-x,z
-y,x-y,-z
-y,-x,-z
-x+y,y,-z
x,x-y,-z
-x+y,y,z
x,x-y,z
-y,-x,z
loop_
_atom_site_type_symbol
_atom_site_label
_atom_site_fract_x
_atom_site_fract_y
_atom_site_fract_z
Si Si1 0.725399 0.798237 0.212986
Si Si2 0.871024 0.000726 0.286818
Si Si3 0.332108 0.930743 0.213901
Si Si4 0.463063 0.405564 0.783178
Si Si5 0.333345 0.796960 0.713259
Si Si6 0.667766 0.203511 0.216937
O O1 0.724103 0.862051 0.283222
O O2 0.798136 0.811222 0.248419
O O3 0.663085 0.732653 0.281343
O O4 0.718740 0.797776 0.000000
O O5 0.876920 0.000808 0.500000
O O6 0.875433 0.937717 0.219265
O O7 0.931171 0.068830 0.219773
O O8 0.332453 0.863769 0.250917
O O9 0.396633 0.995432 0.280639
O O10 0.332454 0.936079 0.000000
O O11 0.524921 0.475080 0.731416
O O12 0.480710 0.350270 0.727312
O O13 0.461429 0.404320 0.000000
O O14 0.333402 0.790749 0.500000
O O15 0.399948 0.799896 0.779967
O O16 0.267311 0.732689 0.780022
O O17 0.606518 0.213036 0.268873
O O18 0.736561 0.263440 0.278356
O O19 0.668700 0.204245 0.000000
#
# Coordination Sequence:
#
# PCOD9585536 Si02
#       6
#    12  12  12  12  12  12
#     4   9  18  31  45  64  92 122 152 189 230 272
#     4   9  17  30  49  71  93 118 151 192 236 281
#     4  10  19  32  50  70  93 124 160 193 226 270
#     4   8  14  24  38  58  84 113 146 184 223 262
#     4  10  21  36  53  73  97 123 151 187 233 282
#     4   8  12  18  30  50  78 112 148 184 222 264
#
# _framework density 19.966070999999999
#
# number of rings (size 3 to 8) (size 9 to 14) (size 15 to 20)
#    0.000    3.000    0.000    2.500    0.000    5.000 
#    0.000    2.500    0.000    5.000    0.000    0.000 
#    0.000    0.000    0.000    0.500    0.000    5.333 
#
# Total GULP energy -401601.363325 kJ/mol
# GULP energy per Si atom -5577.796713 kJ/mol
# Density = 1.992063 g / cm^3
# Si number density = 19.966071 Si / 1000 Ang^3
#
#
#
# Elastic Constant Matrix: (Units=GPa)
#
#
# Indices 1 2 3 4 5 6 
#
# 1 191.0866 126.7789 3.0355 0.0000 0.0000 0.0000
# 2 126.7789 191.0866 3.0355 0.0000 0.0000 0.0000
# 3 3.0355 3.0355 51.6199 0.0000 0.0000 0.0000
# 4 0.0000 0.0000 0.0000 9.2366 0.0000 0.0000
# 5 0.0000 0.0000 0.0000 0.0000 9.2366 0.0000
# 6 0.0000 0.0000 0.0000 0.0000 0.0000 32.1539
#
#
#
# Elastic Compliance Matrix: (Units=1/GPa)
#
#
# Indices 1 2 3 4 5 6 
#
# 1 0.009350 -0.006200 -0.000185 0.000000 0.000000 0.000000
# 2 -0.006200 0.009350 -0.000185 0.000000 0.000000 0.000000
# 3 -0.000185 -0.000185 0.019394 0.000000 0.000000 0.000000
# 4 0.000000 0.000000 0.000000 0.108265 0.000000 0.000000
# 5 0.000000 0.000000 0.000000 0.000000 0.108265 0.000000
# 6 0.000000 0.000000 0.000000 0.000000 0.000000 0.031100
#
#
# Mechanical properties :
#
#
# Convention : Reuss Voigt Hill
#
# Bulk Modulus (GPa) = 40.07634 77.72144 58.89889
# Shear Modulus (GPa) = 16.27688 30.18827 23.23257
#
# Velocity S-wave (km/s) = 2.85832 3.89264 3.41486
# Velocity P-wave (km/s) = 5.56858 7.69511 6.71654
#
# Compressibility (1/GPa) = 0.02495238
#
# Stress axis : x y z
#
# Youngs Moduli (GPa) = 106.95328 106.95328 51.56188
#
# Poissons Ratio (x) = 0.66315 0.00955
# Poissons Ratio (y) = 0.66315 0.00955
# Poissons Ratio (z) = 0.01981 0.01981
#
# Static dielectric constant tensor:
#      x y z
#    x 1.689910 0.000000 0.000000 
#    y 0.000000 1.689910 0.000000 
#    z 0.000000 0.000000 1.765930 
# 
# From -- ./inp_files/966.got.cif
#   From: 2010.05.17/outbox.cif.g08.bks.cpg/sg187_1_cif.got.tgz:966.got - 2010.05.20 12:09:04.
