data_PCOD9585869
_publ_section_title
;
Structure prediction by ZEFSAII (Michael W. Deem and Ramdas Pophale) SiO2 
 PCOD9585869
Probable space group: P -6 C 2
;
_chemical_formula_sum "Si O2"
_cell_formula_units_Z 46
_cell_length_a 16.008619
_cell_length_b 16.008619
_cell_length_c 14.204775
_cell_angle_alpha 90.000000
_cell_angle_beta 90.000000
_cell_angle_gamma 120.000000
_cell_volume 3152.627997
_symmetry_space_group_name_H-M "P -6 C 2"
_symmetry_group_IT_number 188
_symmetry_cell_setting 'hexagonal'
loop_
_space_group_symop_operation_xyz
x,y,z
-x+y,-x,1/2-z
-y,x-y,z
x,y,1/2-z
-x+y,-x,z
-y,x-y,1/2-z
-y,-x,-z
-x+y,y,-z
x,x-y,-z
-x+y,y,1/2+z
x,x-y,1/2+z
-y,-x,1/2+z
loop_
_atom_site_type_symbol
_atom_site_label
_atom_site_fract_x
_atom_site_fract_y
_atom_site_fract_z
Si Si1 0.120094 0.220725 0.362505
Si Si2 0.000000 0.000000 0.862359
Si Si3 0.665074 0.152202 0.544070
Si Si4 0.970059 0.736803 0.993264
Si Si5 0.778052 0.442139 0.750000
O O1 0.127331 0.233070 0.250000
O O2 0.221980 0.261746 0.415312
O O3 0.043280 0.246016 0.408314
O O4 0.071566 0.108082 0.389916
O O5 0.000000 0.000000 0.750000
O O6 0.745490 0.254511 0.500000
O O7 0.562992 0.125983 0.500000
O O8 0.699177 0.076069 0.520911
O O9 0.663653 0.168516 0.655542
O O10 0.876072 0.752143 0.000000
O O11 0.755770 0.331316 0.750000
#
# Coordination Sequence:
#
# PCOD9585869 Si02
#       5
#    12   4  12  12   6
#     4  10  19  33  46  69  98 133 166 198 236 284
#     4   9  15  25  47  61  91 134 160 187 230 268
#     4  11  20  36  50  72 100 129 166 207 245 294
#     4  10  21  30  48  71  97 131 168 203 237 288
#     4  10  18  32  54  70  88 138 168 204 254 286
#
# _framework density 14.591002
#
# number of rings (size 3 to 8) (size 9 to 14) (size 15 to 20)
#    0.261    1.565    5.217    0.261    1.826    0.000 
#    9.391    0.000    0.000    0.000    0.000    0.000 
#   10.435    0.000    0.000    0.000    0.000    0.000 
#
# Total GULP energy -256104.605769 kJ/mol
# GULP energy per Si atom -5567.491430 kJ/mol
# Density = 1.455779 g / cm^3
# Si number density = 14.591002 Si / 1000 Ang^3
#
#
#
# Elastic Constant Matrix: (Units=GPa)
#
#
# Indices 1 2 3 4 5 6 
#
# 1 94.3681 51.7149 49.6296 -0.0001 0.0000 0.0000
# 2 51.7149 94.3681 49.6296 0.0001 0.0000 0.0000
# 3 49.6296 49.6296 146.0443 0.0000 0.0000 0.0000
# 4 -0.0001 0.0001 0.0000 12.8383 0.0000 0.0000
# 5 0.0000 0.0000 0.0000 0.0000 12.8383 -0.0001
# 6 0.0000 0.0000 0.0000 0.0000 -0.0001 21.3266
#
#
#
# Elastic Compliance Matrix: (Units=1/GPa)
#
#
# Indices 1 2 3 4 5 6 
#
# 1 0.016173 -0.007272 -0.003025 0.000000 0.000000 0.000000
# 2 -0.007272 0.016173 -0.003025 0.000000 0.000000 0.000000
# 3 -0.003025 -0.003025 0.008903 0.000000 0.000000 0.000000
# 4 0.000000 0.000000 0.000000 0.077892 0.000000 0.000000
# 5 0.000000 0.000000 0.000000 0.000000 0.077892 0.000000
# 6 0.000000 0.000000 0.000000 0.000000 0.000000 0.046890
#
#
# Mechanical properties :
#
#
# Convention : Reuss Voigt Hill
#
# Bulk Modulus (GPa) = 68.46722 70.74761 69.60742
# Shear Modulus (GPa) = 18.15324 21.65443 19.90384
#
# Velocity S-wave (km/s) = 3.53106 3.85657 3.69740
# Velocity P-wave (km/s) = 7.97814 8.27184 8.12631
#
# Compressibility (1/GPa) = 0.01460553
#
# Stress axis : x y z
#
# Youngs Moduli (GPa) = 61.83247 61.83247 112.32249
#
# Poissons Ratio (x) = 0.44965 0.33974
# Poissons Ratio (y) = 0.44965 0.33974
# Poissons Ratio (z) = 0.18702 0.18702
#
# Static dielectric constant tensor:
#      x y z
#    x 1.474100 0.000000 0.000000 
#    y 0.000000 1.474100 0.000000 
#    z 0.000000 0.000000 1.500500 
# 
# From -- ./inp_files/2104.got.cif
#   From: 2010.05.17/outbox.cif.g08.bks.cpg/sg188_2_cif.got.tgz:2104.got - 2010.05.20 12:11:46.
