data_PCOD9585959
_publ_section_title
;
Structure prediction by ZEFSAII (Michael W. Deem and Ramdas Pophale) SiO2 
 PCOD9585959
Probable space group: P -6 C 2
;
_chemical_formula_sum "Si O2"
_cell_formula_units_Z 64
_cell_length_a 15.436697
_cell_length_b 15.436697
_cell_length_c 17.284241
_cell_angle_alpha 90.000000
_cell_angle_beta 90.000000
_cell_angle_gamma 120.000000
_cell_volume 3566.889901
_symmetry_space_group_name_H-M "P -6 C 2"
_symmetry_group_IT_number 188
_symmetry_cell_setting 'hexagonal'
loop_
_space_group_symop_operation_xyz
x,y,z
-x+y,-x,1/2-z
-y,x-y,z
x,y,1/2-z
-x+y,-x,z
-y,x-y,1/2-z
-y,-x,-z
-x+y,y,-z
x,x-y,-z
-x+y,y,1/2+z
x,x-y,1/2+z
-y,-x,1/2+z
loop_
_atom_site_type_symbol
_atom_site_label
_atom_site_fract_x
_atom_site_fract_y
_atom_site_fract_z
Si Si1 0.139818 0.285234 0.341897
Si Si2 0.333334 0.666667 0.840179
Si Si3 0.425863 0.384578 0.972036
Si Si4 0.755733 0.670423 0.161811
Si Si5 0.257077 0.200271 0.066840
Si Si6 0.515734 0.702812 0.076680
O O1 0.159149 0.278693 0.250000
O O2 0.174128 0.224630 0.398917
O O3 0.192734 0.399092 0.372905
O O4 0.022652 0.251299 0.350088
O O5 0.333334 0.666668 0.750000
O O6 0.355119 0.583320 0.873378
O O7 0.415140 0.319651 0.896133
O O8 0.371953 0.446667 0.948461
O O9 0.537117 0.462883 0.000000
O O10 0.350068 0.301110 0.032349
O O11 0.731460 0.640235 0.250000
O O12 0.867382 0.702394 0.138274
O O13 0.227491 0.113746 0.000000
O O14 0.495811 0.747906 0.000000
#
# Coordination Sequence:
#
# PCOD9585959 Si02
#       6
#    12   4  12  12  12  12
#     4  10  20  36  57  83 120 154 187 235 287 337
#     4  12  25  35  49  84 121 155 199 237 274 329
#     4  10  20  35  57  83 109 148 193 232 283 338
#     4   9  20  37  58  83 119 152 186 237 291 342
#     4  10  20  35  60  85 111 148 196 238 283 351
#     4  11  20  35  55  77 113 154 193 230 275 331
#
# _framework density 17.942802
#
# number of rings (size 3 to 8) (size 9 to 14) (size 15 to 20)
#    0.000    1.875    1.875    2.812    0.000    0.750 
#    1.125    1.875    4.125   10.125    0.000    0.000 
#    0.000    0.000    0.000    0.000    0.000    0.000 
#
# Total GULP energy -356813.954342 kJ/mol
# GULP energy per Si atom -5575.218037 kJ/mol
# Density = 1.790196 g / cm^3
# Si number density = 17.942802 Si / 1000 Ang^3
#
#
#
# Elastic Constant Matrix: (Units=GPa)
#
#
# Indices 1 2 3 4 5 6 
#
# 1 63.1436 20.9717 38.9817 0.0001 0.0000 0.0000
# 2 20.9717 63.1438 38.9815 -0.0001 0.0000 -0.0001
# 3 38.9817 38.9815 100.0183 0.0001 0.0000 0.0000
# 4 0.0001 -0.0001 0.0001 22.5410 0.0001 0.0000
# 5 0.0000 0.0000 0.0000 0.0001 22.5409 0.0000
# 6 0.0000 -0.0001 0.0000 0.0000 0.0000 21.0859
#
#
#
# Elastic Compliance Matrix: (Units=1/GPa)
#
#
# Indices 1 2 3 4 5 6 
#
# 1 0.021162 -0.002550 -0.007254 0.000000 0.000000 0.000000
# 2 -0.002550 0.021162 -0.007254 0.000000 0.000000 0.000000
# 3 -0.007254 -0.007254 0.015652 0.000000 0.000000 0.000000
# 4 0.000000 0.000000 0.000000 0.044364 0.000000 0.000000
# 5 0.000000 0.000000 0.000000 0.000000 0.044364 0.000000
# 6 0.000000 0.000000 0.000000 0.000000 0.000000 0.047425
#
#
# Mechanical properties :
#
#
# Convention : Reuss Voigt Hill
#
# Bulk Modulus (GPa) = 41.91012 47.13062 44.52037
# Shear Modulus (GPa) = 21.16864 21.72495 21.44680
#
# Velocity S-wave (km/s) = 3.43853 3.48341 3.46104
# Velocity P-wave (km/s) = 6.25883 6.51944 6.39046
#
# Compressibility (1/GPa) = 0.02386059
#
# Stress axis : x y z
#
# Youngs Moduli (GPa) = 47.25419 47.25458 63.88775
#
# Poissons Ratio (x) = 0.12052 0.46343
# Poissons Ratio (y) = 0.12051 0.46343
# Poissons Ratio (z) = 0.34278 0.34277
#
# Static dielectric constant tensor:
#      x y z
#    x 1.620730 0.000000 0.000000 
#    y 0.000000 1.620730 0.000000 
#    z 0.000000 0.000000 1.631410 
# 
# From -- ./inp_files/3046.got.cif
#   From: 2010.05.17/outbox.cif.g08.bks.cpg/sg188_2_cif.got.tgz:3046.got - 2010.05.20 12:11:46.
