data_PCOD9585467
_publ_section_title
;
Structure prediction by ZEFSAII (Michael W. Deem and Ramdas Pophale) SiO2 
 PCOD9585467
Probable space group: P -6 M 2
;
_chemical_formula_sum "Si O2"
_cell_formula_units_Z 66
_cell_length_a 22.764965
_cell_length_b 22.764965
_cell_length_c 7.718433
_cell_angle_alpha 90.000000
_cell_angle_beta 90.000000
_cell_angle_gamma 120.000000
_cell_volume 3464.126511
_symmetry_space_group_name_H-M "P -6 M 2"
_symmetry_group_IT_number 187
_symmetry_cell_setting 'hexagonal'
loop_
_space_group_symop_operation_xyz
x,y,z
-x+y,-x,-z
-y,x-y,z
x,y,-z
-x+y,-x,z
-y,x-y,-z
-y,-x,-z
-x+y,y,-z
x,x-y,-z
-x+y,y,z
x,x-y,z
-y,-x,z
loop_
_atom_site_type_symbol
_atom_site_label
_atom_site_fract_x
_atom_site_fract_y
_atom_site_fract_z
Si Si1 0.617396 0.875326 0.792643
Si Si2 0.525576 0.334014 0.000000
Si Si3 0.865730 0.865762 0.211618
Si Si4 0.717652 0.576387 0.693506
Si Si5 0.740022 0.722519 0.210433
Si Si6 0.334209 0.800405 0.708714
O O1 0.623675 0.811838 0.723733
O O2 0.541398 0.858461 0.755719
O O3 0.675940 0.947159 0.728741
O O4 0.625214 0.875964 0.000000
O O5 0.479404 0.327685 0.165282
O O6 0.597585 0.402416 0.000000
O O7 0.534968 0.267484 0.000000
O O8 0.853063 0.926532 0.268045
O O9 0.807982 0.790731 0.266531
O O10 0.939547 0.879093 0.264238
O O11 0.864544 0.865862 0.000000
O O12 0.690076 0.555429 0.500000
O O13 0.790595 0.581190 0.702721
O O14 0.731114 0.651490 0.730010
O O15 0.741019 0.721839 0.000000
O O16 0.334470 0.796709 0.500000
O O17 0.405094 0.810187 0.773101
O O18 0.270802 0.729199 0.771548
#
# Coordination Sequence:
#
# PCOD9585467 Si02
#       6
#    12   6  12  12  12  12
#     4   9  18  31  47  70 101 135 176 227 278 328
#     4  10  21  40  66  94 123 152 184 224 276 336
#     4   9  16  25  42  71 106 142 184 237 295 349
#     4  10  21  37  59  88 120 152 189 234 277 323
#     4  10  18  31  52  75 104 148 194 232 277 335
#     4   9  17  30  48  68  90 119 158 207 265 328
#
# _framework density 19.052422
#
# number of rings (size 3 to 8) (size 9 to 14) (size 15 to 20)
#    0.000    2.545    0.909    1.545    0.000    5.818 
#    0.000    0.909    0.000    3.818    0.000    0.000 
#    0.000    1.455    0.000    0.000    0.000    0.000 
#
# Total GULP energy -368296.343725 kJ/mol
# GULP energy per Si atom -5580.247632 kJ/mol
# Density = 1.900906 g / cm^3
# Si number density = 19.052422 Si / 1000 Ang^3
#
#
#
# Elastic Constant Matrix: (Units=GPa)
#
#
# Indices 1 2 3 4 5 6 
#
# 1 110.4979 54.3853 38.3268 0.0000 0.0003 0.0000
# 2 54.3853 110.4979 38.3268 0.0000 -0.0003 0.0000
# 3 38.3268 38.3268 69.5954 0.0000 0.0000 0.0000
# 4 0.0000 0.0000 0.0000 4.1606 0.0000 -0.0003
# 5 0.0003 -0.0003 0.0000 0.0000 4.1606 0.0000
# 6 0.0000 0.0000 0.0000 -0.0003 0.0000 28.0563
#
#
#
# Elastic Compliance Matrix: (Units=1/GPa)
#
#
# Indices 1 2 3 4 5 6 
#
# 1 0.012987 -0.004835 -0.004489 0.000000 -0.000001 0.000000
# 2 -0.004835 0.012987 -0.004489 0.000000 0.000001 0.000000
# 3 -0.004489 -0.004489 0.019313 0.000000 0.000000 0.000000
# 4 0.000000 0.000000 0.000000 0.240352 0.000000 0.000002
# 5 -0.000001 0.000001 0.000000 0.000000 0.240352 0.000000
# 6 0.000000 0.000000 0.000000 0.000002 0.000000 0.035643
#
#
# Mechanical properties :
#
#
# Convention : Reuss Voigt Hill
#
# Bulk Modulus (GPa) = 56.62540 61.40769 59.01655
# Shear Modulus (GPa) = 8.40128 17.91231 13.15680
#
# Velocity S-wave (km/s) = 2.10217 3.06953 2.63070
# Velocity P-wave (km/s) = 5.97307 6.69803 6.34591
#
# Compressibility (1/GPa) = 0.01765992
#
# Stress axis : x y z
#
# Youngs Moduli (GPa) = 77.00216 77.00216 51.77740
#
# Poissons Ratio (x) = 0.37228 0.23245
# Poissons Ratio (y) = 0.37228 0.23245
# Poissons Ratio (z) = 0.34569 0.34569
#
# Static dielectric constant tensor:
#      x y z
#    x 1.635340 0.000000 0.000000 
#    y 0.000000 1.635340 0.000000 
#    z 0.000000 0.000000 1.712060 
# 
# From -- ./inp_files/738.got.cif
#   From: 2010.05.17/outbox.cif.g08.bks.cpg/sg187_1_cif.got.tgz:738.got - 2010.05.20 12:09:04.
