data_PCOD9585984
_publ_section_title
;
Structure prediction by ZEFSAII (Michael W. Deem and Ramdas Pophale) SiO2 
 PCOD9585984
Probable space group: P -6 C 2
;
_chemical_formula_sum "Si O2"
_cell_formula_units_Z 46
_cell_length_a 11.729728
_cell_length_b 11.729728
_cell_length_c 16.087102
_cell_angle_alpha 90.000000
_cell_angle_beta 90.000000
_cell_angle_gamma 120.000000
_cell_volume 1916.833231
_symmetry_space_group_name_H-M "P -6 C 2"
_symmetry_group_IT_number 188
_symmetry_cell_setting 'hexagonal'
loop_
_space_group_symop_operation_xyz
x,y,z
-x+y,-x,1/2-z
-y,x-y,z
x,y,1/2-z
-x+y,-x,z
-y,x-y,1/2-z
-y,-x,-z
-x+y,y,-z
x,x-y,-z
-x+y,y,1/2+z
x,x-y,1/2+z
-y,-x,1/2+z
loop_
_atom_site_type_symbol
_atom_site_label
_atom_site_fract_x
_atom_site_fract_y
_atom_site_fract_z
Si Si1 0.211559 0.788442 0.500000
Si Si2 0.369277 0.482760 0.158194
Si Si3 0.818005 0.116685 0.345639
Si Si4 0.947351 0.372638 0.434897
Si Si5 0.000000 0.000000 0.648559
O O1 0.207901 0.705228 0.419208
O O2 0.059426 0.712911 0.526314
O O3 0.342417 0.515067 0.250000
O O4 0.318670 0.326788 0.156518
O O5 0.523934 0.550001 0.138792
O O6 0.853875 0.163537 0.250000
O O7 0.831695 0.236686 0.400644
O O8 0.917348 0.069021 0.376576
O O9 0.915276 0.457638 0.500000
O O10 0.000000 0.000000 0.750000
#
# Coordination Sequence:
#
# PCOD9585984 Si02
#       5
#     6  12  12  12   4
#     4  10  22  40  62  88 128 166 220 276 318 392
#     4  10  22  41  66  97 134 177 221 275 338 400
#     4  10  20  38  66 100 130 167 224 277 340 410
#     4  10  22  40  61  88 130 176 218 276 332 394
#     4   9  18  33  63  97 128 160 202 284 349 394
#
# _framework density 23.997916
#
# number of rings (size 3 to 8) (size 9 to 14) (size 15 to 20)
#    0.000    2.087    0.000    2.348    0.000    8.348 
#   22.696    2.609    0.000    0.000    0.000    0.000 
#    0.000    0.000    0.000    0.000    0.000    0.000 
#
# Total GULP energy -257236.818330 kJ/mol
# GULP energy per Si atom -5592.104746 kJ/mol
# Density = 2.394330 g / cm^3
# Si number density = 23.997916 Si / 1000 Ang^3
#
#
#
# Elastic Constant Matrix: (Units=GPa)
#
#
# Indices 1 2 3 4 5 6 
#
# 1 93.7705 58.3034 42.8582 0.0000 0.0000 0.0000
# 2 58.3034 93.7705 42.8582 0.0000 0.0000 0.0000
# 3 42.8582 42.8582 164.6733 0.0000 0.0000 0.0000
# 4 0.0000 0.0000 0.0000 24.2723 0.0000 0.0000
# 5 0.0000 0.0000 0.0000 0.0000 24.2723 0.0000
# 6 0.0000 0.0000 0.0000 0.0000 0.0000 17.7335
#
#
#
# Elastic Compliance Matrix: (Units=1/GPa)
#
#
# Indices 1 2 3 4 5 6 
#
# 1 0.017951 -0.010244 -0.002006 0.000000 0.000000 0.000000
# 2 -0.010244 0.017951 -0.002006 0.000000 0.000000 0.000000
# 3 -0.002006 -0.002006 0.007117 0.000000 0.000000 0.000000
# 4 0.000000 0.000000 0.000000 0.041199 0.000000 0.000000
# 5 0.000000 0.000000 0.000000 0.000000 0.041199 0.000000
# 6 0.000000 0.000000 0.000000 0.000000 0.000000 0.056390
#
#
# Mechanical properties :
#
#
# Convention : Reuss Voigt Hill
#
# Bulk Modulus (GPa) = 68.93454 71.13931 70.03693
# Shear Modulus (GPa) = 23.23919 27.13527 25.18723
#
# Velocity S-wave (km/s) = 3.11526 3.36629 3.24320
# Velocity P-wave (km/s) = 6.45967 6.69459 6.57818
#
# Compressibility (1/GPa) = 0.01450652
#
# Stress axis : x y z
#
# Youngs Moduli (GPa) = 55.70811 55.70811 140.51635
#
# Poissons Ratio (x) = 0.57070 0.28182
# Poissons Ratio (y) = 0.57070 0.28182
# Poissons Ratio (z) = 0.11173 0.11173
#
# Static dielectric constant tensor:
#      x y z
#    x 1.889580 0.000000 0.000000 
#    y 0.000000 1.889580 0.000000 
#    z 0.000000 0.000000 1.985750 
# 
# From -- ./inp_files/2936.got.cif
#   From: 2010.05.17/outbox.cif.g08.bks.cpg/sg188_2_cif.got.tgz:2936.got - 2010.05.20 12:11:46.
