data_PCOD9585245
_publ_section_title
;
Structure prediction by ZEFSAII (Michael W. Deem and Ramdas Pophale) SiO2 
 PCOD9585245
Probable space group: P 63 C M
;
_chemical_formula_sum "Si O2"
_cell_formula_units_Z 72
_cell_length_a 14.515425
_cell_length_b 14.515425
_cell_length_c 20.501750
_cell_angle_alpha 90.000000
_cell_angle_beta 90.000000
_cell_angle_gamma 120.000000
_cell_volume 3740.942883
_symmetry_space_group_name_H-M "P 63 C M"
_symmetry_group_IT_number 185
_symmetry_cell_setting 'hexagonal'
loop_
_space_group_symop_operation_xyz
x,y,z
x-y,x,1/2+z
-y,x-y,z
-x,-y,1/2+z
-x+y,-x,z
y,-x+y,1/2+z
-x+y,y,1/2+z
x,x-y,1/2+z
-y,-x,1/2+z
y,x,z
x-y,-y,z
-x,-x+y,z
loop_
_atom_site_type_symbol
_atom_site_label
_atom_site_fract_x
_atom_site_fract_y
_atom_site_fract_z
Si Si1 0.214032 0.664698 0.711380
Si Si2 0.335612 0.125515 0.273044
Si Si3 0.749132 0.874434 0.909108
Si Si4 0.177606 0.416014 0.522348
Si Si5 0.873807 0.121575 0.137390
Si Si6 0.596071 0.124112 0.565451
O O1 0.234180 0.566590 0.722484
O O2 0.143187 0.690517 0.758503
O O3 0.176629 0.645084 0.636127
O O4 0.311680 0.165918 0.339853
O O5 0.302842 0.163392 0.207895
O O6 0.257554 0.000000 0.275783
O O7 0.805585 0.805585 0.927218
O O8 0.838108 0.000000 0.904910
O O9 0.660710 0.865858 0.960189
O O10 0.148000 0.335471 0.582776
O O11 0.138453 0.498837 0.540586
O O12 0.304993 0.485542 0.516985
O O13 0.000000 0.199260 0.130995
O O14 0.843809 0.000000 0.130874
O O15 0.554255 0.000000 0.571370
#
# Coordination Sequence:
#
# PCOD9585245 Si02
#       6
#    12  12  12  12  12  12
#     4  10  19  37  61  90 121 159 207 257 313 373
#     4  10  21  39  62  89 126 167 210 260 319 389
#     4  11  24  44  66  93 130 173 218 267 329 398
#     4  12  24  41  62  94 123 165 216 270 323 393
#     4  11  21  36  60  92 126 159 202 259 320 384
#     4  12  21  37  63  90 125 167 208 261 322 379
#
# _framework density 19.246486000000001
#
# number of rings (size 3 to 8) (size 9 to 14) (size 15 to 20)
#    0.333    0.667    3.333    4.667    0.000    0.000 
#    3.000    5.833    0.000    0.000    0.000    0.000 
#    0.000    0.000    0.000    0.000    0.000    0.000 
#
# Total GULP energy -401444.516997 kJ/mol
# GULP energy per Si atom -5575.618292 kJ/mol
# Density = 1.920268 g / cm^3
# Si number density = 19.246486 Si / 1000 Ang^3
#
#
#
# Elastic Constant Matrix: (Units=GPa)
#
#
# Indices 1 2 3 4 5 6 
#
# 1 70.7153 -4.2432 11.6963 0.0000 0.0000 0.0000
# 2 -4.2432 70.7153 11.6963 0.0000 0.0000 0.0000
# 3 11.6963 11.6963 72.6439 0.0000 0.0000 0.0000
# 4 0.0000 0.0000 0.0000 17.7674 0.0000 0.0000
# 5 0.0000 0.0000 0.0000 0.0000 17.7674 0.0000
# 6 0.0000 0.0000 0.0000 0.0000 0.0000 37.4792
#
#
#
# Elastic Compliance Matrix: (Units=1/GPa)
#
#
# Indices 1 2 3 4 5 6 
#
# 1 0.014644 0.001303 -0.002568 0.000000 0.000000 0.000000
# 2 0.001303 0.014644 -0.002568 0.000000 0.000000 0.000000
# 3 -0.002568 -0.002568 0.014593 0.000000 0.000000 0.000000
# 4 0.000000 0.000000 0.000000 0.056283 0.000000 0.000000
# 5 0.000000 0.000000 0.000000 0.000000 0.056283 0.000000
# 6 0.000000 0.000000 0.000000 0.000000 0.000000 0.026681
#
#
# Mechanical properties :
#
#
# Convention : Reuss Voigt Hill
#
# Bulk Modulus (GPa) = 27.61142 28.04148 27.82645
# Shear Modulus (GPa) = 24.64704 27.59783 26.12243
#
# Velocity S-wave (km/s) = 3.58243 3.79082 3.68809
# Velocity P-wave (km/s) = 5.61151 5.81048 5.71186
#
# Compressibility (1/GPa) = 0.03621690
#
# Stress axis : x y z
#
# Youngs Moduli (GPa) = 68.28684 68.28684 68.52782
#
# Poissons Ratio (x) = -0.08900 0.17596
# Poissons Ratio (y) = -0.08900 0.17596
# Poissons Ratio (z) = 0.17534 0.17534
#
# Static dielectric constant tensor:
#      x y z
#    x 1.733500 0.000000 0.000000 
#    y 0.000000 1.733500 0.000000 
#    z 0.000000 0.000000 1.690320 
# 
# From -- ./inp_files/1715.got.cif
#   From: 2010.05.17/outbox.cif.g08.bks.cpg/sg185_cif.got.tgz:1715.got - 2010.05.20 12:05:34.
