data_PCOD9585078
_publ_section_title
;
Structure prediction by ZEFSAII (Michael W. Deem and Ramdas Pophale) SiO2 
 PCOD9585078
Probable space group: P 6 M M
;
_chemical_formula_sum "Si O2"
_cell_formula_units_Z 36
_cell_length_a 17.674785
_cell_length_b 17.674785
_cell_length_c 7.150192
_cell_angle_alpha 90.000000
_cell_angle_beta 90.000000
_cell_angle_gamma 120.000000
_cell_volume 1934.446017
_symmetry_space_group_name_H-M "P 6 M M"
_symmetry_group_IT_number 183
_symmetry_cell_setting 'hexagonal'
loop_
_space_group_symop_operation_xyz
x,y,z
x-y,x,z
-y,x-y,z
-x,-y,z
-x+y,-x,z
y,-x+y,z
-x+y,y,z
x,x-y,z
-y,-x,z
y,x,z
x-y,-y,z
-x,-x+y,z
loop_
_atom_site_type_symbol
_atom_site_label
_atom_site_fract_x
_atom_site_fract_y
_atom_site_fract_z
Si Si1 0.202696 0.405391 0.796080
Si Si2 0.896648 0.358282 0.072523
Si Si3 0.594609 0.797305 0.348965
Si Si4 0.100225 0.899776 0.798932
Si Si5 0.899775 0.799550 0.346113
O O1 0.207411 0.414822 0.572523
O O2 0.151187 0.302374 0.846084
O O3 0.296951 0.446450 0.893528
O O4 0.885004 0.442502 0.072523
O O5 0.850501 0.296951 0.251517
O O6 0.000000 0.393201 0.072523
O O7 0.697626 0.848813 0.298962
O O8 0.098416 0.901585 0.572523
O O9 0.000000 0.848676 0.861704
O O10 0.848676 0.848676 0.283341
#
# Coordination Sequence:
#
# PCOD9585078 Si02
#       5
#     6  12   6   6   6
#     4  10  21  38  60  87 118 155 197 246 302 360
#     4  10  22  40  61  85 115 151 196 250 308 367
#     4  10  21  38  60  87 118 155 197 246 302 360
#     4   9  16  27  48  81 120 158 192 224 262 318
#     4   9  16  27  48  81 120 158 192 224 262 318
#
# _framework density 18.609978000000002
#
# number of rings (size 3 to 8) (size 9 to 14) (size 15 to 20)
#    0.000    2.333    0.000    2.333    0.000    6.667 
#    8.000    3.333    0.000    0.000    0.000   11.667 
#    0.000    0.000    0.000    0.000    0.000    0.000 
#
# Total GULP energy -201079.892626 kJ/mol
# GULP energy per Si atom -5585.552573 kJ/mol
# Density = 1.856762 g / cm^3
# Si number density = 18.609978 Si / 1000 Ang^3
#
#
#
# Elastic Constant Matrix: (Units=GPa)
#
#
# Indices 1 2 3 4 5 6 
#
# 1 139.9971 99.4935 60.2235 0.0000 0.0000 0.0000
# 2 99.4935 139.9971 60.2235 0.0000 0.0000 0.0000
# 3 60.2235 60.2235 157.2385 0.0000 0.0000 0.0000
# 4 0.0000 0.0000 0.0000 57.2059 0.0000 0.0000
# 5 0.0000 0.0000 0.0000 0.0000 57.2059 0.0000
# 6 0.0000 0.0000 0.0000 0.0000 0.0000 20.2518
#
#
#
# Elastic Compliance Matrix: (Units=1/GPa)
#
#
# Indices 1 2 3 4 5 6 
#
# 1 0.014930 -0.009759 -0.001981 0.000000 0.000000 0.000000
# 2 -0.009759 0.014930 -0.001981 0.000000 0.000000 0.000000
# 3 -0.001981 -0.001981 0.007877 0.000000 0.000000 0.000000
# 4 0.000000 0.000000 0.000000 0.017481 0.000000 0.000000
# 5 0.000000 0.000000 0.000000 0.000000 0.017481 0.000000
# 6 0.000000 0.000000 0.000000 0.000000 0.000000 0.049378
#
#
# Mechanical properties :
#
#
# Convention : Reuss Voigt Hill
#
# Bulk Modulus (GPa) = 97.11263 97.45707 97.28485
# Shear Modulus (GPa) = 32.69026 41.41889 37.05458
#
# Velocity S-wave (km/s) = 4.19573 4.72277 4.46703
# Velocity P-wave (km/s) = 8.70451 9.06760 8.88791
#
# Compressibility (1/GPa) = 0.01029732
#
# Stress axis : x y z
#
# Youngs Moduli (GPa) = 66.97728 66.97728 126.95039
#
# Poissons Ratio (x) = 0.65361 0.25146
# Poissons Ratio (y) = 0.65361 0.25146
# Poissons Ratio (z) = 0.13267 0.13267
#
# Static dielectric constant tensor:
#      x y z
#    x 1.612900 0.000000 0.000000 
#    y 0.000000 1.612900 0.000000 
#    z 0.000000 0.000000 1.668190 
# 
# From -- ./inp_files/641.got.cif
#   From: 2010.05.17/outbox.cif.g08.bks.cpg/sg183_1_cif.got.tgz:641.got - 2010.05.20 12:02:58.
