data_PCOD9585506
_publ_section_title
;
Structure prediction by ZEFSAII (Michael W. Deem and Ramdas Pophale) SiO2 
 PCOD9585506
Probable space group: P -6 M 2
;
_chemical_formula_sum "Si O2"
_cell_formula_units_Z 60
_cell_length_a 18.246917
_cell_length_b 18.246917
_cell_length_c 12.736788
_cell_angle_alpha 90.000000
_cell_angle_beta 90.000000
_cell_angle_gamma 120.000000
_cell_volume 3672.565457
_symmetry_space_group_name_H-M "P -6 M 2"
_symmetry_group_IT_number 187
_symmetry_cell_setting 'hexagonal'
loop_
_space_group_symop_operation_xyz
x,y,z
-x+y,-x,-z
-y,x-y,z
x,y,-z
-x+y,-x,z
-y,x-y,-z
-y,-x,-z
-x+y,y,-z
x,x-y,-z
-x+y,y,z
x,x-y,z
-y,-x,z
loop_
_atom_site_type_symbol
_atom_site_label
_atom_site_fract_x
_atom_site_fract_y
_atom_site_fract_z
Si Si1 0.159983 0.667299 0.769769
Si Si2 0.299023 0.236118 0.304528
Si Si3 0.159800 0.492632 0.000000
Si Si4 0.999714 0.825657 0.500000
Si Si5 0.584036 0.584347 0.625476
Si Si6 0.000863 0.827479 0.123294
O O1 0.179258 0.589629 0.773993
O O2 0.245211 0.754790 0.749920
O O3 0.090630 0.643382 0.680495
O O4 0.125531 0.673257 0.885847
O O5 0.315967 0.157984 0.304035
O O6 0.232161 0.217693 0.398237
O O7 0.383007 0.323616 0.327834
O O8 0.250875 0.232128 0.197277
O O9 0.256910 0.513819 0.000000
O O10 0.155705 0.577853 0.000000
O O11 0.923481 0.846961 0.500000
O O12 0.089663 0.910338 0.500000
O O13 0.588794 0.594454 0.500000
O O14 0.512000 0.488001 0.649366
O O15 0.922509 0.845018 0.138756
O O16 0.003197 0.809728 0.000000
O O17 0.088760 0.911241 0.150756
#
# Coordination Sequence:
#
# PCOD9585506 Si02
#       6
#    12  12   6   6  12  12
#     4   9  17  29  46  68  95 128 165 201 238 279
#     4  10  20  35  54  74  97 129 167 206 254 306
#     4   8  13  24  42  64  89 120 158 200 238 274
#     4  10  19  30  47  74 106 138 170 202 239 284
#     4  10  21  37  53  70  93 125 163 206 258 310
#     4   9  17  30  49  75 108 146 182 212 241 281
#
# _framework density 16.337353
#
# number of rings (size 3 to 8) (size 9 to 14) (size 15 to 20)
#    0.000    2.600    1.000    1.200    0.000    4.400 
#    1.800    2.000    0.000    1.600    0.000    0.000 
#    0.000    0.000    0.000    0.000    0.000    0.000 
#
# Total GULP energy -334359.645743 kJ/mol
# GULP energy per Si atom -5572.660762 kJ/mol
# Density = 1.630017 g / cm^3
# Si number density = 16.337353 Si / 1000 Ang^3
#
#
#
# Elastic Constant Matrix: (Units=GPa)
#
#
# Indices 1 2 3 4 5 6 
#
# 1 66.9435 53.3760 44.3103 0.0000 0.0000 0.0000
# 2 53.3760 66.9435 44.3103 0.0000 0.0000 0.0000
# 3 44.3103 44.3103 73.4132 0.0000 0.0000 0.0000
# 4 0.0000 0.0000 0.0000 19.6646 0.0000 0.0000
# 5 0.0000 0.0000 0.0000 0.0000 19.6646 0.0000
# 6 0.0000 0.0000 0.0000 0.0000 0.0000 6.7837
#
#
#
# Elastic Compliance Matrix: (Units=1/GPa)
#
#
# Indices 1 2 3 4 5 6 
#
# 1 0.044335 -0.029371 -0.009031 0.000000 0.000000 0.000000
# 2 -0.029371 0.044335 -0.009031 0.000000 0.000000 0.000000
# 3 -0.009031 -0.009031 0.024524 0.000000 0.000000 0.000000
# 4 0.000000 0.000000 0.000000 0.050853 0.000000 0.000000
# 5 0.000000 0.000000 0.000000 0.000000 0.050853 0.000000
# 6 0.000000 0.000000 0.000000 0.000000 0.000000 0.147412
#
#
# Mechanical properties :
#
#
# Convention : Reuss Voigt Hill
#
# Bulk Modulus (GPa) = 54.57152 54.58817 54.57985
# Shear Modulus (GPa) = 10.79246 13.57616 12.18431
#
# Velocity S-wave (km/s) = 2.57300 2.88582 2.73389
# Velocity P-wave (km/s) = 6.50404 6.67754 6.59136
#
# Compressibility (1/GPa) = 0.01832458
#
# Stress axis : x y z
#
# Youngs Moduli (GPa) = 22.55579 22.55579 40.77674
#
# Poissons Ratio (x) = 0.66249 0.36827
# Poissons Ratio (y) = 0.66249 0.36827
# Poissons Ratio (z) = 0.20371 0.20371
#
# Static dielectric constant tensor:
#      x y z
#    x 1.539040 0.000000 0.000000 
#    y 0.000000 1.539040 0.000000 
#    z 0.000000 0.000000 1.579400 
# 
# From -- ./inp_files/1649.got.cif
#   From: 2010.05.17/outbox.cif.g08.bks.cpg/sg187_1_cif.got.tgz:1649.got - 2010.05.20 12:09:04.
