data_PCOD9585194
_publ_section_title
;
Structure prediction by ZEFSAII (Michael W. Deem and Ramdas Pophale) SiO2 
 PCOD9585194
Probable space group: P 6 C C
;
_chemical_formula_sum "Si O2"
_cell_formula_units_Z 54
_cell_length_a 14.065869
_cell_length_b 14.065869
_cell_length_c 13.730894
_cell_angle_alpha 90.000000
_cell_angle_beta 90.000000
_cell_angle_gamma 120.000000
_cell_volume 2352.678496
_symmetry_space_group_name_H-M "P 6 C C"
_symmetry_group_IT_number 184
_symmetry_cell_setting 'hexagonal'
loop_
_space_group_symop_operation_xyz
x,y,z
x-y,x,z
-y,x-y,z
-x,-y,z
-x+y,-x,z
y,-x+y,z
-x+y,y,1/2+z
x,x-y,1/2+z
-y,-x,1/2+z
y,x,1/2+z
x-y,-y,1/2+z
-x,-x+y,1/2+z
loop_
_atom_site_type_symbol
_atom_site_label
_atom_site_fract_x
_atom_site_fract_y
_atom_site_fract_z
Si Si1 0.745502 0.920432 0.403430
Si Si2 0.000000 0.500000 0.974866
Si Si3 0.189258 0.608645 0.838406
Si Si4 0.704888 0.119381 0.723669
Si Si5 0.616344 0.712965 0.096350
O O1 0.793288 0.839386 0.390565
O O2 0.653520 0.896651 0.322584
O O3 0.695032 0.902517 0.511778
O O4 0.923483 0.529780 0.037120
O O5 0.910363 0.406600 0.904953
O O6 0.266868 0.552814 0.852250
O O7 0.131190 0.534244 0.742933
O O8 0.795344 0.223604 0.662348
O O9 0.675998 0.011260 0.662446
#
# Coordination Sequence:
#
# PCOD9585194 Si02
#       5
#    12   6  12  12  12
#     4  12  25  47  72 110 149 200 257 321 392 470
#     4  12  28  46  78 110 156 202 252 328 404 464
#     4  10  28  47  75 109 152 201 256 327 395 481
#     4  12  26  46  74 109 151 200 260 321 397 473
#     4  12  28  45  76 110 149 200 259 321 392 481
#
# _framework density 22.952563000000001
#
# number of rings (size 3 to 8) (size 9 to 14) (size 15 to 20)
#    0.444    0.000    6.667    0.222   12.444    0.000 
#    0.000    2.222    0.000    0.000    0.000    0.000 
#    0.000    0.000    0.000    0.000    0.000    0.000 
#
# Total GULP energy -301375.122375 kJ/mol
# GULP energy per Si atom -5581.020785 kJ/mol
# Density = 2.290032 g / cm^3
# Si number density = 22.952563 Si / 1000 Ang^3
#
#
#
# Elastic Constant Matrix: (Units=GPa)
#
#
# Indices 1 2 3 4 5 6 
#
# 1 81.4305 3.2138 26.3562 0.0000 0.0000 0.0000
# 2 3.2138 81.4305 26.3562 0.0000 0.0000 0.0000
# 3 26.3562 26.3562 98.0103 0.0000 0.0000 0.0000
# 4 0.0000 0.0000 0.0000 16.0221 0.0000 0.0000
# 5 0.0000 0.0000 0.0000 0.0000 16.0221 0.0000
# 6 0.0000 0.0000 0.0000 0.0000 0.0000 39.1084
#
#
#
# Elastic Compliance Matrix: (Units=1/GPa)
#
#
# Indices 1 2 3 4 5 6 
#
# 1 0.013488 0.000703 -0.003816 0.000000 0.000000 0.000000
# 2 0.000703 0.013488 -0.003816 0.000000 0.000000 0.000000
# 3 -0.003816 -0.003816 0.012255 0.000000 0.000000 0.000000
# 4 0.000000 0.000000 0.000000 0.062414 0.000000 0.000000
# 5 0.000000 0.000000 0.000000 0.000000 0.062414 0.000000
# 6 0.000000 0.000000 0.000000 0.000000 0.000000 0.025570
#
#
# Mechanical properties :
#
#
# Convention : Reuss Voigt Hill
#
# Bulk Modulus (GPa) = 39.41287 41.41375 40.41331
# Shear Modulus (GPa) = 23.59106 27.89351 25.74229
#
# Velocity S-wave (km/s) = 3.20944 3.48985 3.35258
# Velocity P-wave (km/s) = 5.56262 5.85842 5.71244
#
# Compressibility (1/GPa) = 0.02537242
#
# Stress axis : x y z
#
# Youngs Moduli (GPa) = 74.14116 74.14116 81.59684
#
# Poissons Ratio (x) = -0.05211 0.31138
# Poissons Ratio (y) = -0.05211 0.31138
# Poissons Ratio (z) = 0.28293 0.28293
#
# Static dielectric constant tensor:
#      x y z
#    x 1.906870 0.000000 0.000000 
#    y 0.000000 1.906870 0.000000 
#    z 0.000000 0.000000 1.945020 
# 
# From -- ./inp_files/774.got.cif
#   From: 2010.05.17/outbox.cif.g08.bks.cpg/sg184_cif.got.tgz:774.got - 2010.05.20 12:04:40.
