data_PCOD9585690
_publ_section_title
;
Structure prediction by ZEFSAII (Michael W. Deem and Ramdas Pophale) SiO2 
 PCOD9585690
Probable space group: P -6 M 2
;
_chemical_formula_sum "Si O2"
_cell_formula_units_Z 66
_cell_length_a 12.838124
_cell_length_b 12.838124
_cell_length_c 29.034337
_cell_angle_alpha 90.000000
_cell_angle_beta 90.000000
_cell_angle_gamma 120.000000
_cell_volume 4144.247434
_symmetry_space_group_name_H-M "P -6 M 2"
_symmetry_group_IT_number 187
_symmetry_cell_setting 'hexagonal'
loop_
_space_group_symop_operation_xyz
x,y,z
-x+y,-x,-z
-y,x-y,z
x,y,-z
-x+y,-x,z
-y,x-y,-z
-y,-x,-z
-x+y,y,-z
x,x-y,-z
-x+y,y,z
x,x-y,z
-y,-x,z
loop_
_atom_site_type_symbol
_atom_site_label
_atom_site_fract_x
_atom_site_fract_y
_atom_site_fract_z
Si Si1 0.084939 0.665988 0.412071
Si Si2 0.752911 0.000738 0.865444
Si Si3 0.666491 0.085525 0.324567
Si Si4 0.333736 0.914949 0.051233
Si Si5 0.753028 0.999959 0.238626
Si Si6 0.915480 0.333955 0.500000
O O1 0.115690 0.557845 0.413418
O O2 0.205632 0.794369 0.413790
O O3 0.008144 0.647380 0.365900
O O4 0.997503 0.643533 0.455278
O O5 0.771960 0.885980 0.868608
O O6 0.664617 0.988425 0.906370
O O7 0.707614 0.998541 0.813387
O O8 0.878487 0.121513 0.870872
O O9 0.553189 0.106378 0.321733
O O10 0.788939 0.211062 0.333202
O O11 0.683991 0.030353 0.277366
O O12 0.454330 0.908660 0.054231
O O13 0.218573 0.781428 0.054392
O O14 0.329152 0.962116 0.000000
O O15 0.746549 0.873275 0.247206
O O16 0.891762 0.108238 0.239797
O O17 0.793927 0.206074 0.500000
O O18 0.885338 0.442669 0.500000
#
# Coordination Sequence:
#
# PCOD9585690 Si02
#       6
#    12  12  12  12  12   6
#     4  10  20  34  53  75  99 127 159 197 239 283
#     4   9  17  29  46  68  93 120 150 186 229 276
#     4  10  20  33  50  71  96 126 159 197 238 280
#     4   9  17  29  45  64  86 114 148 186 227 271
#     4   9  17  30  48  69  93 122 155 190 229 275
#     4  10  20  34  54  78 104 134 166 200 236 278
#
# _framework density 15.925689999999999
#
# number of rings (size 3 to 8) (size 9 to 14) (size 15 to 20)
#    0.000    2.545    0.000    2.364    0.000    3.273 
#    0.000    2.727    0.000    8.000    0.000    0.000 
#    0.000    0.000    0.000    0.000    0.000    0.000 
#
# Total GULP energy -367870.047907 kJ/mol
# GULP energy per Si atom -5573.788605 kJ/mol
# Density = 1.588944 g / cm^3
# Si number density = 15.925690 Si / 1000 Ang^3
#
#
#
# Elastic Constant Matrix: (Units=GPa)
#
#
# Indices 1 2 3 4 5 6 
#
# 1 92.8323 56.8087 73.5594 0.0000 0.0000 0.0000
# 2 56.8087 92.8323 73.5594 0.0000 0.0000 0.0000
# 3 73.5594 73.5594 151.3261 0.0000 0.0000 0.0000
# 4 0.0000 0.0000 0.0000 25.3517 0.0000 0.0000
# 5 0.0000 0.0000 0.0000 0.0000 25.3517 0.0000
# 6 0.0000 0.0000 0.0000 0.0000 0.0000 18.0118
#
#
#
# Elastic Compliance Matrix: (Units=1/GPa)
#
#
# Indices 1 2 3 4 5 6 
#
# 1 0.020280 -0.007480 -0.006222 0.000000 0.000000 0.000000
# 2 -0.007480 0.020280 -0.006222 0.000000 0.000000 0.000000
# 3 -0.006222 -0.006222 0.012657 0.000000 0.000000 0.000000
# 4 0.000000 0.000000 0.000000 0.039445 0.000000 0.000000
# 5 0.000000 0.000000 0.000000 0.000000 0.039445 0.000000
# 6 0.000000 0.000000 0.000000 0.000000 0.000000 0.055519
#
#
# Mechanical properties :
#
#
# Convention : Reuss Voigt Hill
#
# Bulk Modulus (GPa) = 74.80036 82.76064 78.78050
# Shear Modulus (GPa) = 21.55826 22.61393 22.08610
#
# Velocity S-wave (km/s) = 3.68323 3.77233 3.72805
# Velocity P-wave (km/s) = 8.07209 8.42933 8.25264
#
# Compressibility (1/GPa) = 0.01336892
#
# Stress axis : x y z
#
# Youngs Moduli (GPa) = 49.31049 49.31049 79.00646
#
# Poissons Ratio (x) = 0.36884 0.49157
# Poissons Ratio (y) = 0.36884 0.49157
# Poissons Ratio (z) = 0.30681 0.30681
#
# Static dielectric constant tensor:
#      x y z
#    x 1.500600 0.000000 0.000000 
#    y 0.000000 1.500600 0.000000 
#    z 0.000000 0.000000 1.549830 
# 
# From -- ./inp_files/4395.got.cif
#   From: 2010.05.17/outbox.cif.g08.bks.cpg/sg187_3_cif.got.tgz:4395.got - 2010.05.20 12:09:04.
