data_PCOD9585844
_publ_section_title
;
Structure prediction by ZEFSAII (Michael W. Deem and Ramdas Pophale) SiO2 
 PCOD9585844
Probable space group: P -6 C 2
;
_chemical_formula_sum "Si O2"
_cell_formula_units_Z 72
_cell_length_a 24.572882
_cell_length_b 24.572882
_cell_length_c 8.594150
_cell_angle_alpha 90.000000
_cell_angle_beta 90.000000
_cell_angle_gamma 120.000000
_cell_volume 4494.131247
_symmetry_space_group_name_H-M "P -6 C 2"
_symmetry_group_IT_number 188
_symmetry_cell_setting 'hexagonal'
loop_
_space_group_symop_operation_xyz
x,y,z
-x+y,-x,1/2-z
-y,x-y,z
x,y,1/2-z
-x+y,-x,z
-y,x-y,1/2-z
-y,-x,-z
-x+y,y,-z
x,x-y,-z
-x+y,y,1/2+z
x,x-y,1/2+z
-y,-x,1/2+z
loop_
_atom_site_type_symbol
_atom_site_label
_atom_site_fract_x
_atom_site_fract_y
_atom_site_fract_z
Si Si1 0.070367 0.475375 0.937111
Si Si2 0.962517 0.811405 0.564589
Si Si3 0.192616 0.268797 0.064141
Si Si4 0.779342 0.668808 0.564051
Si Si5 0.216326 0.548750 0.564606
Si Si6 0.001562 0.336056 0.435624
O O1 0.065078 0.471507 0.750000
O O2 0.143811 0.502605 0.979163
O O3 0.053545 0.526773 0.000000
O O4 0.029832 0.407422 0.011981
O O5 0.966887 0.816800 0.750000
O O6 0.919415 0.838829 0.500000
O O7 0.924834 0.737911 0.515093
O O8 0.030308 0.833657 0.490774
O O9 0.195666 0.271698 0.250000
O O10 0.145171 0.290342 0.000000
O O11 0.263133 0.309807 0.997188
O O12 0.785090 0.675524 0.750000
O O13 0.818694 0.637387 0.500000
O O14 0.707942 0.640968 0.511337
O O15 0.220402 0.552121 0.750000
O O16 0.264235 0.528470 0.500000
O O17 0.234255 0.617128 0.500000
O O18 0.997172 0.329575 0.250000
#
# Coordination Sequence:
#
# PCOD9585844 Si02
#       6
#    12  12  12  12  12  12
#     4  10  21  37  53  71  94 126 164 204 246 298
#     4  10  17  28  45  66  89 117 150 185 225 274
#     4  11  21  34  49  69  95 124 158 201 248 297
#     4  10  17  28  46  70  97 123 151 185 222 266
#     4  10  20  33  50  68  89 114 150 198 253 307
#     4  11  21  34  51  72  97 128 161 197 240 290
#
# _framework density 16.020893999999998
#
# number of rings (size 3 to 8) (size 9 to 14) (size 15 to 20)
#    0.000    1.667    0.000   10.167    0.000    2.667 
#    0.000    1.667    0.000    0.333    0.000    2.333 
#    0.000    0.000    0.000    0.500    0.000    7.000 
#
# Total GULP energy -401780.803711 kJ/mol
# GULP energy per Si atom -5580.288940 kJ/mol
# Density = 1.598443 g / cm^3
# Si number density = 16.020894 Si / 1000 Ang^3
#
#
#
# Elastic Constant Matrix: (Units=GPa)
#
#
# Indices 1 2 3 4 5 6 
#
# 1 78.9242 55.3421 31.9687 -0.0001 0.0000 0.0000
# 2 55.3421 78.9242 31.9687 0.0001 0.0000 0.0000
# 3 31.9687 31.9687 108.0352 0.0000 0.0000 0.0000
# 4 -0.0001 0.0001 0.0000 24.9290 0.0000 0.0000
# 5 0.0000 0.0000 0.0000 0.0000 24.9290 -0.0001
# 6 0.0000 0.0000 0.0000 0.0000 -0.0001 11.7910
#
#
#
# Elastic Compliance Matrix: (Units=1/GPa)
#
#
# Indices 1 2 3 4 5 6 
#
# 1 0.025537 -0.016868 -0.002565 0.000000 0.000000 0.000000
# 2 -0.016868 0.025537 -0.002565 0.000000 0.000000 0.000000
# 3 -0.002565 -0.002565 0.010774 0.000000 0.000000 0.000000
# 4 0.000000 0.000000 0.000000 0.040114 0.000000 0.000000
# 5 0.000000 0.000000 0.000000 0.000000 0.040114 0.000000
# 6 0.000000 0.000000 0.000000 0.000000 0.000000 0.084810
#
#
# Mechanical properties :
#
#
# Convention : Reuss Voigt Hill
#
# Bulk Modulus (GPa) = 56.01632 56.04920 56.03276
# Shear Modulus (GPa) = 18.06132 22.10342 20.08237
#
# Velocity S-wave (km/s) = 3.36126 3.71841 3.54434
# Velocity P-wave (km/s) = 7.07846 7.31413 7.19726
#
# Compressibility (1/GPa) = 0.01785194
#
# Stress axis : x y z
#
# Youngs Moduli (GPa) = 39.15843 39.15843 92.81174
#
# Poissons Ratio (x) = 0.66051 0.23810
# Poissons Ratio (y) = 0.66051 0.23810
# Poissons Ratio (z) = 0.10046 0.10046
#
# Static dielectric constant tensor:
#      x y z
#    x 1.553730 0.000000 0.000000 
#    y 0.000000 1.553730 0.000000 
#    z 0.000000 0.000000 1.530640 
# 
# From -- ./inp_files/1025.got.cif
#   From: 2010.05.17/outbox.cif.g08.bks.cpg/sg188_1_cif.got.tgz:1025.got - 2010.05.20 12:11:46.
