data_PCOD9585994
_publ_section_title
;
Structure prediction by ZEFSAII (Michael W. Deem and Ramdas Pophale) SiO2 
 PCOD9585994
Probable space group: P -6 C 2
;
_chemical_formula_sum "Si O2"
_cell_formula_units_Z 72
_cell_length_a 11.841390
_cell_length_b 11.841390
_cell_length_c 26.889526
_cell_angle_alpha 90.000000
_cell_angle_beta 90.000000
_cell_angle_gamma 120.000000
_cell_volume 3265.270377
_symmetry_space_group_name_H-M "P -6 C 2"
_symmetry_group_IT_number 188
_symmetry_cell_setting 'hexagonal'
loop_
_space_group_symop_operation_xyz
x,y,z
-x+y,-x,1/2-z
-y,x-y,z
x,y,1/2-z
-x+y,-x,z
-y,x-y,1/2-z
-y,-x,-z
-x+y,y,-z
x,x-y,-z
-x+y,y,1/2+z
x,x-y,1/2+z
-y,-x,1/2+z
loop_
_atom_site_type_symbol
_atom_site_label
_atom_site_fract_x
_atom_site_fract_y
_atom_site_fract_z
Si Si1 0.131994 0.967205 0.250000
Si Si2 0.914543 0.542425 0.912888
Si Si3 0.965334 0.838806 0.411369
Si Si4 0.832075 0.167926 0.500000
Si Si5 0.428225 0.129582 0.633098
Si Si6 0.081212 0.614898 0.304241
Si Si7 0.265675 0.380303 0.835550
O O1 0.132154 0.105598 0.250000
O O2 0.200517 0.946952 0.200972
O O3 0.875581 0.581473 0.964953
O O4 0.793429 0.512291 0.876435
O O5 0.922652 0.411508 0.909594
O O6 0.036896 0.662734 0.885894
O O7 0.944006 0.762850 0.462655
O O8 0.928118 0.726659 0.371922
O O9 0.867819 0.897444 0.407966
O O10 0.448022 0.070739 0.683075
O O11 0.112560 0.675493 0.250000
O O12 0.114492 0.500967 0.307720
O O13 0.161879 0.732654 0.342378
#
# Coordination Sequence:
#
# PCOD9585994 Si02
#       7
#     6  12  12   6  12  12  12
#     4  10  24  40  64 104 142 186 226 302 372 424
#     4  10  24  41  64  99 133 184 232 302 359 438
#     4   9  20  37  62  95 131 171 219 281 356 430
#     4  10  20  40  66  96 130 180 222 292 368 430
#     4  10  23  40  64  92 138 178 231 293 359 418
#     4  11  22  40  66  95 131 189 245 289 352 427
#     4  11  23  42  66 100 140 188 246 301 356 428
#
# _framework density 22.050241
#
# number of rings (size 3 to 8) (size 9 to 14) (size 15 to 20)
#    0.500    1.333    1.667    1.167    7.000    2.667 
#    0.000    3.333    0.000    0.000    0.000    0.000 
#    0.000    0.000    0.000    0.000    0.000    0.000 
#
# Total GULP energy -401288.008673 kJ/mol
# GULP energy per Si atom -5573.444565 kJ/mol
# Density = 2.200005 g / cm^3
# Si number density = 22.050241 Si / 1000 Ang^3
#
#
#
# Elastic Constant Matrix: (Units=GPa)
#
#
# Indices 1 2 3 4 5 6 
#
# 1 125.2096 39.4085 24.1871 0.0001 0.0000 0.0000
# 2 39.4085 125.2096 24.1871 -0.0001 0.0000 0.0000
# 3 24.1871 24.1871 56.0002 0.0000 0.0000 0.0000
# 4 0.0001 -0.0001 0.0000 17.6322 0.0000 0.0000
# 5 0.0000 0.0000 0.0000 0.0000 17.6322 0.0001
# 6 0.0000 0.0000 0.0000 0.0000 0.0001 42.9005
#
#
#
# Elastic Compliance Matrix: (Units=1/GPa)
#
#
# Indices 1 2 3 4 5 6 
#
# 1 0.009306 -0.002349 -0.003005 0.000000 0.000000 0.000000
# 2 -0.002349 0.009306 -0.003005 0.000000 0.000000 0.000000
# 3 -0.003005 -0.003005 0.020453 0.000000 0.000000 0.000000
# 4 0.000000 0.000000 0.000000 0.056714 0.000000 0.000000
# 5 0.000000 0.000000 0.000000 0.000000 0.056714 0.000000
# 6 0.000000 0.000000 0.000000 0.000000 0.000000 0.023310
#
#
# Mechanical properties :
#
#
# Convention : Reuss Voigt Hill
#
# Bulk Modulus (GPa) = 44.74684 53.55389 49.15037
# Shear Modulus (GPa) = 25.00361 30.20876 27.60619
#
# Velocity S-wave (km/s) = 3.37105 3.70536 3.54215
# Velocity P-wave (km/s) = 5.95728 6.53041 6.25042
#
# Compressibility (1/GPa) = 0.02234795
#
# Stress axis : x y z
#
# Youngs Moduli (GPa) = 107.45401 107.45401 48.89264
#
# Poissons Ratio (x) = 0.25236 0.14693
# Poissons Ratio (y) = 0.25236 0.14693
# Poissons Ratio (z) = 0.32291 0.32291
#
# Static dielectric constant tensor:
#      x y z
#    x 1.875570 0.000000 0.000000 
#    y 0.000000 1.875570 0.000000 
#    z 0.000000 0.000000 1.846330 
# 
# From -- ./inp_files/4522.got.cif
#   From: 2010.05.17/outbox.cif.g08.bks.cpg/sg188_3_cif.got.tgz:4522.got - 2010.05.20 12:11:46.
