data_PCOD9585380
_publ_section_title
;
Structure prediction by ZEFSAII (Michael W. Deem and Ramdas Pophale) SiO2 
 PCOD9585380
Probable space group: P 63 M C
;
_chemical_formula_sum "Si O2"
_cell_formula_units_Z 60
_cell_length_a 21.414232
_cell_length_b 21.414232
_cell_length_c 9.195349
_cell_angle_alpha 90.000000
_cell_angle_beta 90.000000
_cell_angle_gamma 120.000000
_cell_volume 3651.773693
_symmetry_space_group_name_H-M "P 63 M C"
_symmetry_group_IT_number 186
_symmetry_cell_setting 'hexagonal'
loop_
_space_group_symop_operation_xyz
x,y,z
x-y,x,1/2+z
-y,x-y,z
-x,-y,1/2+z
-x+y,-x,z
y,-x+y,1/2+z
-x+y,y,z
x,x-y,z
-y,-x,z
y,x,1/2+z
x-y,-y,1/2+z
-x,-x+y,1/2+z
loop_
_atom_site_type_symbol
_atom_site_label
_atom_site_fract_x
_atom_site_fract_y
_atom_site_fract_z
Si Si1 0.708565 0.781467 0.544390
Si Si2 0.460851 0.539150 0.040309
Si Si3 0.293687 0.849004 0.389492
Si Si4 0.555315 0.849003 0.041170
Si Si5 0.291437 0.218534 0.386271
Si Si6 0.460850 0.539151 0.390364
O O1 0.727119 0.863560 0.526663
O O2 0.630319 0.732871 0.471833
O O3 0.704702 0.765282 0.715330
O O4 0.763968 0.763967 0.465331
O O5 0.376179 0.499960 0.002060
O O6 0.465919 0.534082 0.215337
O O7 0.500001 0.499999 0.965338
O O8 0.234460 0.765541 0.422096
O O9 0.290805 0.858350 0.215331
O O10 0.376176 0.876217 0.428608
O O11 0.531079 0.765540 0.008567
O O12 0.630317 0.897447 0.958826
O O13 0.272883 0.136442 0.403997
#
# Coordination Sequence:
#
# PCOD9585380 Si02
#       6
#    12   6  12  12  12   6
#     4  10  20  33  51  75 100 127 160 198 241 289
#     4  10  20  32  48  72  98 128 166 206 252 298
#     4   9  18  33  50  70  98 130 166 207 250 295
#     4   9  18  33  50  70  98 130 166 207 250 295
#     4  10  20  33  51  75 100 127 160 198 241 289
#     4  10  20  32  48  72  98 128 166 206 252 298
#
# _framework density 16.430371999999998
#
# number of rings (size 3 to 8) (size 9 to 14) (size 15 to 20)
#    0.000    2.400    0.000    2.400    0.000    7.200 
#    1.200    0.000    0.000    0.400    0.000    0.000 
#    0.000    0.000    0.000    0.000    0.000    0.000 
#
# Total GULP energy -334661.453599 kJ/mol
# GULP energy per Si atom -5577.690893 kJ/mol
# Density = 1.639298 g / cm^3
# Si number density = 16.430372 Si / 1000 Ang^3
#
#
#
# Elastic Constant Matrix: (Units=GPa)
#
#
# Indices 1 2 3 4 5 6 
#
# 1 100.6012 75.9069 60.9210 0.0000 0.0000 0.0000
# 2 75.9069 100.6012 60.9210 0.0000 0.0000 0.0000
# 3 60.9210 60.9210 55.8788 0.0000 0.0000 0.0000
# 4 0.0000 0.0000 0.0000 23.4283 0.0000 0.0000
# 5 0.0000 0.0000 0.0000 0.0000 23.4283 0.0000
# 6 0.0000 0.0000 0.0000 0.0000 0.0000 12.3472
#
#
#
# Elastic Compliance Matrix: (Units=1/GPa)
#
#
# Indices 1 2 3 4 5 6 
#
# 1 0.031697 -0.008798 -0.024964 0.000000 0.000000 0.000000
# 2 -0.008798 0.031697 -0.024964 0.000000 0.000000 0.000000
# 3 -0.024964 -0.024964 0.072330 0.000000 0.000000 0.000000
# 4 0.000000 0.000000 0.000000 0.042683 0.000000 0.000000
# 5 0.000000 0.000000 0.000000 0.000000 0.042683 0.000000
# 6 0.000000 0.000000 0.000000 0.000000 0.000000 0.080990
#
#
# Mechanical properties :
#
#
# Convention : Reuss Voigt Hill
#
# Bulk Modulus (GPa) = 54.73821 72.50880 63.62350
# Shear Modulus (GPa) = 11.74744 15.79625 13.77184
#
# Velocity S-wave (km/s) = 2.67682 3.10402 2.89830
# Velocity P-wave (km/s) = 6.55297 7.55469 7.07159
#
# Compressibility (1/GPa) = 0.01826878
#
# Stress axis : x y z
#
# Youngs Moduli (GPa) = 31.54909 31.54909 13.82550
#
# Poissons Ratio (x) = 0.27758 0.34515
# Poissons Ratio (y) = 0.27758 0.34515
# Poissons Ratio (z) = 0.78761 0.78761
#
# Static dielectric constant tensor:
#      x y z
#    x 1.539140 0.000000 0.000000 
#    y 0.000000 1.539140 0.000000 
#    z 0.000000 0.000000 1.547330 
# 
# From -- ./inp_files/983.got.cif
#   From: 2010.05.17/outbox.cif.g08.bks.cpg/sg186_1_cif.got.tgz:983.got - 2010.05.20 12:07:08.
