data_PCOD9585362
_publ_section_title
;
Structure prediction by ZEFSAII (Michael W. Deem and Ramdas Pophale) SiO2 
 PCOD9585362
Probable space group: P 63 M C
;
_chemical_formula_sum "Si O2"
_cell_formula_units_Z 96
_cell_length_a 18.003860
_cell_length_b 18.003860
_cell_length_c 19.679007
_cell_angle_alpha 90.000000
_cell_angle_beta 90.000000
_cell_angle_gamma 120.000000
_cell_volume 5524.144957
_symmetry_space_group_name_H-M "P 63 M C"
_symmetry_group_IT_number 186
_symmetry_cell_setting 'hexagonal'
loop_
_space_group_symop_operation_xyz
x,y,z
x-y,x,1/2+z
-y,x-y,z
-x,-y,1/2+z
-x+y,-x,z
y,-x+y,1/2+z
-x+y,y,z
x,x-y,z
-y,-x,z
y,x,1/2+z
x-y,-y,1/2+z
-x,-x+y,1/2+z
loop_
_atom_site_type_symbol
_atom_site_label
_atom_site_fract_x
_atom_site_fract_y
_atom_site_fract_z
Si Si1 0.494365 0.333588 0.345720
Si Si2 0.922136 0.680184 0.724920
Si Si3 0.103654 0.720392 0.439529
Si Si4 0.720391 0.103653 0.213539
Si Si5 0.922136 0.680184 0.428146
Si Si6 0.160778 0.494365 0.307345
Si Si7 0.391801 0.436723 0.576534
Si Si8 0.726596 0.610497 0.576534
O O1 0.522195 0.261098 0.346809
O O2 0.573493 0.426508 0.360738
O O3 0.453583 0.329228 0.271908
O O4 0.415062 0.300948 0.397460
O O5 0.855156 0.710311 0.748697
O O6 0.885883 0.584936 0.755604
O O7 0.912494 0.668254 0.643835
O O8 0.023204 0.730195 0.738532
O O9 0.187682 0.812319 0.448453
O O10 0.124357 0.670776 0.381156
O O11 0.079383 0.666827 0.509282
O O12 0.023205 0.730196 0.414536
O O13 0.812319 0.187682 0.204617
O O14 0.666831 0.079383 0.143783
O O15 0.855156 0.710312 0.404370
O O16 0.912493 0.668251 0.509231
O O17 0.261099 0.522198 0.306255
O O18 0.146983 0.573492 0.292329
O O19 0.465215 0.534786 0.576535
O O20 0.434453 0.375637 0.576534
O O21 0.780272 0.560543 0.576534
#
# Coordination Sequence:
#
# PCOD9585362 Si02
#       8
#    12  12  12  12  12  12  12  12
#     4  10  20  33  49  70  97 128 161 198 240 284
#     4   9  18  32  50  71  95 124 158 198 242 286
#     4  10  20  33  50  72  97 127 163 200 239 285
#     4  10  20  33  50  72  97 127 163 200 239 285
#     4   9  18  32  50  71  95 124 158 198 242 286
#     4  10  20  33  49  70  97 128 161 198 240 284
#     4  10  19  31  50  74  99 129 164 199 234 277
#     4   8  16  31  48  68  94 123 156 191 231 275
#
# _framework density 17.378253999999998
#
# number of rings (size 3 to 8) (size 9 to 14) (size 15 to 20)
#    0.000    2.500    0.000    2.125    0.000    6.000 
#    0.000    0.000    0.000    4.250    0.000    0.000 
#    0.000   12.000    0.000    0.000    0.000    2.500 
#
# Total GULP energy -534565.900427 kJ/mol
# GULP energy per Si atom -5568.394796 kJ/mol
# Density = 1.733870 g / cm^3
# Si number density = 17.378254 Si / 1000 Ang^3
#
#
#
# Elastic Constant Matrix: (Units=GPa)
#
#
# Indices 1 2 3 4 5 6 
#
# 1 72.5741 46.1446 7.3457 0.0000 0.0000 0.0000
# 2 46.1446 72.5741 7.3457 0.0000 0.0000 0.0000
# 3 7.3457 7.3457 44.4002 0.0000 0.0000 0.0000
# 4 0.0000 0.0000 0.0000 12.2479 0.0000 0.0000
# 5 0.0000 0.0000 0.0000 0.0000 12.2479 0.0000
# 6 0.0000 0.0000 0.0000 0.0000 0.0000 13.2148
#
#
#
# Elastic Compliance Matrix: (Units=1/GPa)
#
#
# Indices 1 2 3 4 5 6 
#
# 1 0.023218 -0.014619 -0.001423 0.000000 0.000000 0.000000
# 2 -0.014619 0.023218 -0.001423 0.000000 0.000000 0.000000
# 3 -0.001423 -0.001423 0.022993 0.000000 0.000000 0.000000
# 4 0.000000 0.000000 0.000000 0.081646 0.000000 0.000000
# 5 0.000000 0.000000 0.000000 0.000000 0.081646 0.000000
# 6 0.000000 0.000000 0.000000 0.000000 0.000000 0.075673
#
#
# Mechanical properties :
#
#
# Convention : Reuss Voigt Hill
#
# Bulk Modulus (GPa) = 28.98464 34.58006 31.78235
# Shear Modulus (GPa) = 14.09152 16.12295 15.10724
#
# Velocity S-wave (km/s) = 2.85067 3.04923 2.95162
# Velocity P-wave (km/s) = 5.24881 5.68672 5.47214
#
# Compressibility (1/GPa) = 0.03450103
#
# Stress axis : x y z
#
# Youngs Moduli (GPa) = 43.07019 43.07019 43.49119
#
# Poissons Ratio (x) = 0.62963 0.06187
# Poissons Ratio (y) = 0.62963 0.06187
# Poissons Ratio (z) = 0.06128 0.06128
#
# Static dielectric constant tensor:
#      x y z
#    x 1.597210 0.000000 0.000000 
#    y 0.000000 1.597210 0.000000 
#    z 0.000000 0.000000 1.617810 
# 
# From -- ./inp_files/3521.got.cif
#   From: 2010.05.17/outbox.cif.g08.bks.cpg/sg186_2_cif.got.tgz:3521.got - 2010.05.20 12:07:08.
