data_PCOD9585920
_publ_section_title
;
Structure prediction by ZEFSAII (Michael W. Deem and Ramdas Pophale) SiO2 
 PCOD9585920
Probable space group: P -6 C 2
;
_chemical_formula_sum "Si O2"
_cell_formula_units_Z 72
_cell_length_a 15.278125
_cell_length_b 15.278125
_cell_length_c 16.915031
_cell_angle_alpha 90.000000
_cell_angle_beta 90.000000
_cell_angle_gamma 120.000000
_cell_volume 3419.349927
_symmetry_space_group_name_H-M "P -6 C 2"
_symmetry_group_IT_number 188
_symmetry_cell_setting 'hexagonal'
loop_
_space_group_symop_operation_xyz
x,y,z
-x+y,-x,1/2-z
-y,x-y,z
x,y,1/2-z
-x+y,-x,z
-y,x-y,1/2-z
-y,-x,-z
-x+y,y,-z
x,x-y,-z
-x+y,y,1/2+z
x,x-y,1/2+z
-y,-x,1/2+z
loop_
_atom_site_type_symbol
_atom_site_label
_atom_site_fract_x
_atom_site_fract_y
_atom_site_fract_z
Si Si1 0.217437 0.086488 0.842626
Si Si2 0.785869 0.227123 0.093888
Si Si3 0.257519 0.435766 0.654081
Si Si4 0.780414 0.912657 0.591778
Si Si5 0.553032 0.434504 0.345097
Si Si6 0.108328 0.593710 0.346030
O O1 0.208366 0.100566 0.750000
O O2 0.334301 0.149249 0.867276
O O3 0.158191 0.132341 0.889565
O O4 0.166652 0.968278 0.861573
O O5 0.861939 0.341518 0.119968
O O6 0.675293 0.199913 0.124045
O O7 0.784122 0.215879 0.000000
O O8 0.255923 0.429508 0.750000
O O9 0.224611 0.326395 0.619745
O O10 0.369086 0.522221 0.630127
O O11 0.175958 0.467338 0.627274
O O12 0.777606 0.888803 0.500000
O O13 0.560011 0.437615 0.250000
O O14 0.462208 0.453749 0.369582
O O15 0.110966 0.597118 0.250000
#
# Coordination Sequence:
#
# PCOD9585920 Si02
#       6
#    12  12  12  12  12  12
#     4  12  25  44  67  92 122 164 210 255 310 382
#     4  12  25  42  63  92 126 163 207 265 322 367
#     4  10  19  37  62  91 124 163 206 251 300 359
#     4  12  25  42  63  93 127 161 202 257 315 371
#     4  11  22  39  61  89 123 165 209 251 303 375
#     4   9  19  34  60  91 120 154 200 249 294 348
#
# _framework density 21.056633999999999
#
# number of rings (size 3 to 8) (size 9 to 14) (size 15 to 20)
#    0.000    1.000    0.000    8.000    0.000    4.000 
#    0.000    2.500    0.000    0.000    0.000    0.000 
#    0.000    0.000    0.000    0.000    0.000    0.000 
#
# Total GULP energy -403102.291361 kJ/mol
# GULP energy per Si atom -5598.642936 kJ/mol
# Density = 2.100871 g / cm^3
# Si number density = 21.056634 Si / 1000 Ang^3
#
#
#
# Elastic Constant Matrix: (Units=GPa)
#
#
# Indices 1 2 3 4 5 6 
#
# 1 61.5164 -19.7759 -3.6799 0.0000 0.0000 0.0000
# 2 -19.7759 61.5164 -3.6799 0.0000 0.0000 0.0000
# 3 -3.6799 -3.6799 60.4225 0.0000 0.0000 0.0000
# 4 0.0000 0.0000 0.0000 14.2560 0.0000 0.0000
# 5 0.0000 0.0000 0.0000 0.0000 14.2560 0.0000
# 6 0.0000 0.0000 0.0000 0.0000 0.0000 40.6462
#
#
#
# Elastic Compliance Matrix: (Units=1/GPa)
#
#
# Indices 1 2 3 4 5 6 
#
# 1 0.018259 0.005958 0.001475 0.000000 0.000000 0.000000
# 2 0.005958 0.018259 0.001475 0.000000 0.000000 0.000000
# 3 0.001475 0.001475 0.016730 0.000000 0.000000 0.000000
# 4 0.000000 0.000000 0.000000 0.070146 0.000000 0.000000
# 5 0.000000 0.000000 0.000000 0.000000 0.070146 0.000000
# 6 0.000000 0.000000 0.000000 0.000000 0.000000 0.024603
#
#
# Mechanical properties :
#
#
# Convention : Reuss Voigt Hill
#
# Bulk Modulus (GPa) = 14.07169 14.35376 14.21273
# Shear Modulus (GPa) = 22.31991 27.87104 25.09548
#
# Velocity S-wave (km/s) = 3.25929 3.64211 3.45600
# Velocity P-wave (km/s) = 4.56741 4.95158 4.76337
#
# Compressibility (1/GPa) = 0.07106468
#
# Stress axis : x y z
#
# Youngs Moduli (GPa) = 54.76621 54.76621 59.77365
#
# Poissons Ratio (x) = -0.32631 -0.08816
# Poissons Ratio (y) = -0.32631 -0.08816
# Poissons Ratio (z) = -0.08078 -0.08078
#
# Static dielectric constant tensor:
#      x y z
#    x 1.724890 0.000000 0.000000 
#    y 0.000000 1.724890 0.000000 
#    z 0.000000 0.000000 1.716700 
# 
# From -- ./inp_files/3187.got.cif
#   From: 2010.05.17/outbox.cif.g08.bks.cpg/sg188_2_cif.got.tgz:3187.got - 2010.05.20 12:11:46.
