data_PCOD9585706
_publ_section_title
;
Structure prediction by ZEFSAII (Michael W. Deem and Ramdas Pophale) SiO2 
 PCOD9585706
Probable space group: P -6 M 2
;
_chemical_formula_sum "Si O2"
_cell_formula_units_Z 54
_cell_length_a 12.737533
_cell_length_b 12.737533
_cell_length_c 23.468139
_cell_angle_alpha 90.000000
_cell_angle_beta 90.000000
_cell_angle_gamma 120.000000
_cell_volume 3297.462975
_symmetry_space_group_name_H-M "P -6 M 2"
_symmetry_group_IT_number 187
_symmetry_cell_setting 'hexagonal'
loop_
_space_group_symop_operation_xyz
x,y,z
-x+y,-x,-z
-y,x-y,z
x,y,-z
-x+y,-x,z
-y,x-y,-z
-y,-x,-z
-x+y,y,-z
x,x-y,-z
-x+y,y,z
x,x-y,z
-y,-x,z
loop_
_atom_site_type_symbol
_atom_site_label
_atom_site_fract_x
_atom_site_fract_y
_atom_site_fract_z
Si Si1 0.249902 0.000150 0.889897
Si Si2 0.914830 0.581524 0.434324
Si Si3 0.084638 0.417217 0.000000
Si Si4 0.248819 0.999574 0.329010
Si Si5 0.667227 0.084877 0.779575
O O1 0.237459 0.118730 0.898848
O O2 0.331985 0.023898 0.834146
O O3 0.311770 0.976339 0.944286
O O4 0.118234 0.881767 0.882283
O O5 0.950815 0.619623 0.500000
O O6 0.776251 0.552502 0.428135
O O7 0.920946 0.460473 0.423820
O O8 0.991171 0.684079 0.388415
O O9 0.224760 0.449520 0.000000
O O10 0.075012 0.537506 0.000000
O O11 0.126603 0.873398 0.322567
O O12 0.221885 0.110943 0.327798
O O13 0.340997 0.023880 0.277339
O O14 0.538060 0.076119 0.782305
O O15 0.775184 0.224817 0.778637
#
# Coordination Sequence:
#
# PCOD9585706 Si02
#       5
#    12  12   6  12  12
#     4  10  20  34  54  78 104 134 167 205 247 293
#     4   9  17  30  50  75 100 126 158 199 246 293
#     4  10  20  34  52  74 102 136 172 208 246 290
#     4  10  20  33  50  72  99 131 165 202 244 291
#     4  10  20  34  53  76 101 129 162 203 250 297
#
# _framework density 16.376227
#
# number of rings (size 3 to 8) (size 9 to 14) (size 15 to 20)
#    0.000    2.222    0.000    3.333    0.000    1.333 
#    0.000    5.556    0.000   13.778    0.000    0.000 
#    0.000    0.000    0.000    0.000    0.000    0.000 
#
# Total GULP energy -301358.036149 kJ/mol
# GULP energy per Si atom -5580.704373 kJ/mol
# Density = 1.633895 g / cm^3
# Si number density = 16.376227 Si / 1000 Ang^3
#
#
#
# Elastic Constant Matrix: (Units=GPa)
#
#
# Indices 1 2 3 4 5 6 
#
# 1 127.1967 90.0788 78.7783 0.0000 0.0000 0.0000
# 2 90.0788 127.1967 78.7783 0.0000 0.0000 0.0000
# 3 78.7783 78.7783 119.5422 0.0000 0.0000 0.0000
# 4 0.0000 0.0000 0.0000 20.7597 0.0000 0.0000
# 5 0.0000 0.0000 0.0000 0.0000 20.7597 0.0000
# 6 0.0000 0.0000 0.0000 0.0000 0.0000 18.5589
#
#
#
# Elastic Compliance Matrix: (Units=1/GPa)
#
#
# Indices 1 2 3 4 5 6 
#
# 1 0.017878 -0.009063 -0.005809 0.000000 0.000000 0.000000
# 2 -0.009063 0.017878 -0.005809 0.000000 0.000000 0.000000
# 3 -0.005809 -0.005809 0.016021 0.000000 0.000000 0.000000
# 4 0.000000 0.000000 0.000000 0.048170 0.000000 0.000000
# 5 0.000000 0.000000 0.000000 0.000000 0.048170 0.000000
# 6 0.000000 0.000000 0.000000 0.000000 0.000000 0.053882
#
#
# Mechanical properties :
#
#
# Convention : Reuss Voigt Hill
#
# Bulk Modulus (GPa) = 96.01323 96.57850 96.29586
# Shear Modulus (GPa) = 20.25652 20.43569 20.34611
#
# Velocity S-wave (km/s) = 3.52084 3.53638 3.52862
# Velocity P-wave (km/s) = 8.67671 8.70503 8.69088
#
# Compressibility (1/GPa) = 0.01041523
#
# Stress axis : x y z
#
# Youngs Moduli (GPa) = 55.93469 55.93469 62.41633
#
# Poissons Ratio (x) = 0.50695 0.36257
# Poissons Ratio (y) = 0.50695 0.36257
# Poissons Ratio (z) = 0.32492 0.32492
#
# Static dielectric constant tensor:
#      x y z
#    x 1.516360 0.000000 0.000000 
#    y 0.000000 1.516360 0.000000 
#    z 0.000000 0.000000 1.548900 
# 
# From -- ./inp_files/3849.got.cif
#   From: 2010.05.17/outbox.cif.g08.bks.cpg/sg187_2_cif.got.tgz:3849.got - 2010.05.20 12:09:04.
