data_PCOD9585222
_publ_section_title
;
Structure prediction by ZEFSAII (Michael W. Deem and Ramdas Pophale) SiO2 
 PCOD9585222
Probable space group: P 63 C M
;
_chemical_formula_sum "Si O2"
_cell_formula_units_Z 96
_cell_length_a 17.213439
_cell_length_b 17.213439
_cell_length_c 19.190484
_cell_angle_alpha 90.000000
_cell_angle_beta 90.000000
_cell_angle_gamma 120.000000
_cell_volume 4924.383297
_symmetry_space_group_name_H-M "P 63 C M"
_symmetry_group_IT_number 185
_symmetry_cell_setting 'hexagonal'
loop_
_space_group_symop_operation_xyz
x,y,z
x-y,x,1/2+z
-y,x-y,z
-x,-y,1/2+z
-x+y,-x,z
y,-x+y,1/2+z
-x+y,y,1/2+z
x,x-y,1/2+z
-y,-x,1/2+z
y,x,z
x-y,-y,z
-x,-x+y,z
loop_
_atom_site_type_symbol
_atom_site_label
_atom_site_fract_x
_atom_site_fract_y
_atom_site_fract_z
Si Si1 0.166564 0.480187 0.482670
Si Si2 0.609540 0.898004 0.615528
Si Si3 0.898569 0.390459 0.232908
Si Si4 0.151198 0.386898 0.335914
Si Si5 0.101386 0.800626 0.062683
Si Si6 0.103414 0.894699 0.918258
Si Si7 0.460675 0.105654 0.819015
Si Si8 0.148621 0.501695 0.981803
O O1 0.150578 0.441833 0.404299
O O2 0.116198 0.394182 0.531796
O O3 0.274060 0.525812 0.488968
O O4 0.135713 0.550869 0.498171
O O5 0.519156 0.855137 0.662020
O O6 0.667719 0.849210 0.617328
O O7 0.579216 0.897879 0.536064
O O8 0.671478 0.000000 0.638079
O O9 0.899580 0.313746 0.280403
O O10 0.863379 0.446363 0.277119
O O11 0.000000 0.465147 0.215003
O O12 0.117051 0.286886 0.364304
O O13 0.250395 0.421679 0.305062
O O14 0.000000 0.760575 0.087874
O O15 0.116248 0.864898 0.995971
O O16 0.000000 0.869272 0.913648
O O17 0.170854 0.000000 0.907193
O O18 0.393320 0.000000 0.804981
O O19 0.476264 0.116410 0.902481
#
# Coordination Sequence:
#
# PCOD9585222 Si02
#       8
#    12  12  12  12  12  12  12  12
#     4   9  18  30  52  81 108 137 183 231 277 331
#     4  10  21  37  57  79 111 149 189 236 292 343
#     4  10  21  39  56  78 110 149 192 232 287 349
#     4  10  19  35  55  80 109 150 188 238 288 352
#     4   9  19  34  53  79 110 147 190 234 287 351
#     4  10  19  32  55  87 121 151 190 248 313 370
#     4  10  20  34  57  83 109 144 191 235 277 341
#     4  10  18  33  54  81 110 145 184 230 278 329
#
# _framework density 19.494827000000001
#
# number of rings (size 3 to 8) (size 9 to 14) (size 15 to 20)
#    0.000    2.250    1.250    2.625    0.000    1.500 
#    5.250    1.250    0.000    0.250    0.000    0.000 
#    0.000    0.000    0.000    0.000    0.000    0.000 
#
# Total GULP energy -534831.212255 kJ/mol
# GULP energy per Si atom -5571.158461 kJ/mol
# Density = 1.945046 g / cm^3
# Si number density = 19.494827 Si / 1000 Ang^3
#
#
#
# Elastic Constant Matrix: (Units=GPa)
#
#
# Indices 1 2 3 4 5 6 
#
# 1 78.0329 25.2622 10.8821 0.0000 0.0000 0.0000
# 2 25.2622 78.0329 10.8821 0.0000 0.0000 0.0000
# 3 10.8821 10.8821 43.9969 0.0000 0.0000 0.0000
# 4 0.0000 0.0000 0.0000 16.9349 0.0000 0.0000
# 5 0.0000 0.0000 0.0000 0.0000 16.9349 0.0000
# 6 0.0000 0.0000 0.0000 0.0000 0.0000 26.3854
#
#
#
# Elastic Compliance Matrix: (Units=1/GPa)
#
#
# Indices 1 2 3 4 5 6 
#
# 1 0.014582 -0.004368 -0.002526 0.000000 0.000000 0.000000
# 2 -0.004368 0.014582 -0.002526 0.000000 0.000000 0.000000
# 3 -0.002526 -0.002526 0.023978 0.000000 0.000000 0.000000
# 4 0.000000 0.000000 0.000000 0.059050 0.000000 0.000000
# 5 0.000000 0.000000 0.000000 0.000000 0.059050 0.000000
# 6 0.000000 0.000000 0.000000 0.000000 0.000000 0.037900
#
#
# Mechanical properties :
#
#
# Convention : Reuss Voigt Hill
#
# Bulk Modulus (GPa) = 29.15409 32.67949 30.91679
# Shear Modulus (GPa) = 20.88420 22.25346 21.56883
#
# Velocity S-wave (km/s) = 3.27658 3.38228 3.32985
# Velocity P-wave (km/s) = 5.41312 5.66151 5.53871
#
# Compressibility (1/GPa) = 0.03430051
#
# Stress axis : x y z
#
# Youngs Moduli (GPa) = 68.57974 68.57974 41.70406
#
# Poissons Ratio (x) = 0.29958 0.10535
# Poissons Ratio (y) = 0.29958 0.10535
# Poissons Ratio (z) = 0.17324 0.17324
#
# Static dielectric constant tensor:
#      x y z
#    x 1.699280 0.000000 0.000000 
#    y 0.000000 1.699280 0.000000 
#    z 0.000000 0.000000 1.731970 
# 
# From -- ./inp_files/1993.got.cif
#   From: 2010.05.17/outbox.cif.g08.bks.cpg/sg185_cif.got.tgz:1993.got - 2010.05.20 12:05:34.
