data_PCOD9585644
_publ_section_title
;
Structure prediction by ZEFSAII (Michael W. Deem and Ramdas Pophale) SiO2 
 PCOD9585644
Probable space group: P -6 M 2
;
_chemical_formula_sum "Si O2"
_cell_formula_units_Z 72
_cell_length_a 12.677178
_cell_length_b 12.677178
_cell_length_c 31.799317
_cell_angle_alpha 90.000000
_cell_angle_beta 90.000000
_cell_angle_gamma 120.000000
_cell_volume 4425.818506
_symmetry_space_group_name_H-M "P -6 M 2"
_symmetry_group_IT_number 187
_symmetry_cell_setting 'hexagonal'
loop_
_space_group_symop_operation_xyz
x,y,z
-x+y,-x,-z
-y,x-y,z
x,y,-z
-x+y,-x,z
-y,x-y,-z
-y,-x,-z
-x+y,y,-z
x,x-y,-z
-x+y,y,z
x,x-y,z
-y,-x,z
loop_
_atom_site_type_symbol
_atom_site_label
_atom_site_fract_x
_atom_site_fract_y
_atom_site_fract_z
Si Si1 0.413895 0.080036 0.907807
Si Si2 0.583414 0.917267 0.663956
Si Si3 0.749420 0.749591 0.172478
Si Si4 0.917562 0.584334 0.254380
Si Si5 0.999406 0.250071 0.500000
Si Si6 0.917920 0.584574 0.581963
Si Si7 0.415571 0.082001 0.000000
O O1 0.542127 0.084253 0.902434
O O2 0.434987 0.217494 0.906566
O O3 0.322990 0.008726 0.870103
O O4 0.362289 0.025929 0.954374
O O5 0.443160 0.886320 0.663984
O O6 0.591569 0.795785 0.663225
O O7 0.644598 0.996515 0.705605
O O8 0.645352 0.000127 0.623056
O O9 0.888302 0.776603 0.171307
O O10 0.686835 0.662751 0.212456
O O11 0.745489 0.872744 0.176008
O O12 0.786878 0.573755 0.260678
O O13 0.902657 0.451329 0.249959
O O14 0.890335 0.109666 0.500000
O O15 0.979593 0.311528 0.458745
O O16 0.129280 0.258559 0.500000
O O17 0.785640 0.571280 0.587206
O O18 0.905610 0.452805 0.576341
O O19 0.551090 0.102180 0.000000
O O20 0.422622 0.211311 0.000000
#
# Coordination Sequence:
#
# PCOD9585644 Si02
#       7
#    12  12  12  12   6  12   6
#     4   9  16  27  46  71  97 122 150 190 239 289
#     4  10  20  34  52  74 102 136 171 204 238 281
#     4  10  20  33  48  66  92 127 164 199 234 277
#     4  10  20  34  54  78 102 126 154 195 245 294
#     4  10  20  34  52  74 102 136 172 210 252 300
#     4  10  20  34  54  78 104 134 168 210 256 300
#     4   8  13  22  39  66  96 122 148 182 232 288
#
# _framework density 16.268177999999999
#
# number of rings (size 3 to 8) (size 9 to 14) (size 15 to 20)
#    0.000    2.333    0.000    3.250    0.000    1.333 
#    0.000    4.583    0.000   10.667    0.000    1.167 
#    0.000    0.000    0.000    0.000    0.000    0.000 
#
# Total GULP energy -401487.926185 kJ/mol
# GULP energy per Si atom -5576.221197 kJ/mol
# Density = 1.623115 g / cm^3
# Si number density = 16.268178 Si / 1000 Ang^3
#
#
#
# Elastic Constant Matrix: (Units=GPa)
#
#
# Indices 1 2 3 4 5 6 
#
# 1 111.6951 77.9379 86.7920 0.0000 -0.0002 0.0000
# 2 77.9379 111.6951 86.7920 0.0000 0.0002 0.0000
# 3 86.7920 86.7920 169.9022 0.0000 0.0000 0.0000
# 4 0.0000 0.0000 0.0000 13.2346 0.0000 0.0002
# 5 -0.0002 0.0002 0.0000 0.0000 13.2346 0.0000
# 6 0.0000 0.0000 0.0000 0.0002 0.0000 16.8786
#
#
#
# Elastic Compliance Matrix: (Units=1/GPa)
#
#
# Indices 1 2 3 4 5 6 
#
# 1 0.019764 -0.009859 -0.005060 0.000000 0.000000 0.000000
# 2 -0.009859 0.019764 -0.005060 0.000000 0.000000 0.000000
# 3 -0.005060 -0.005060 0.011055 0.000000 0.000000 0.000000
# 4 0.000000 0.000000 0.000000 0.075560 0.000000 -0.000001
# 5 0.000000 0.000000 0.000000 0.000000 0.075560 0.000000
# 6 0.000000 0.000000 0.000000 -0.000001 0.000000 0.059247
#
#
# Mechanical properties :
#
#
# Convention : Reuss Voigt Hill
#
# Bulk Modulus (GPa) = 94.10993 99.59292 96.85142
# Shear Modulus (GPa) = 16.42313 18.12092 17.27203
#
# Velocity S-wave (km/s) = 3.18075 3.34112 3.26192
# Velocity P-wave (km/s) = 8.45365 8.73135 8.59362
#
# Compressibility (1/GPa) = 0.01062587
#
# Stress axis : x y z
#
# Youngs Moduli (GPa) = 50.59675 50.59675 90.45559
#
# Poissons Ratio (x) = 0.49884 0.45768
# Poissons Ratio (y) = 0.49884 0.45768
# Poissons Ratio (z) = 0.25601 0.25601
#
# Static dielectric constant tensor:
#      x y z
#    x 1.509640 0.000000 0.000000 
#    y 0.000000 1.509640 0.000000 
#    z 0.000000 0.000000 1.558950 
# 
# From -- ./inp_files/4539.got.cif
#   From: 2010.05.17/outbox.cif.g08.bks.cpg/sg187_3_cif.got.tgz:4539.got - 2010.05.20 12:09:04.
