data_PCOD9585784
_publ_section_title
;
Structure prediction by ZEFSAII (Michael W. Deem and Ramdas Pophale) SiO2 
 PCOD9585784
Probable space group: P -6 M 2
;
_chemical_formula_sum "Si O2"
_cell_formula_units_Z 72
_cell_length_a 23.464871
_cell_length_b 23.464871
_cell_length_c 7.985620
_cell_angle_alpha 90.000000
_cell_angle_beta 90.000000
_cell_angle_gamma 120.000000
_cell_volume 3807.813015
_symmetry_space_group_name_H-M "P -6 M 2"
_symmetry_group_IT_number 187
_symmetry_cell_setting 'hexagonal'
loop_
_space_group_symop_operation_xyz
x,y,z
-x+y,-x,-z
-y,x-y,z
x,y,-z
-x+y,-x,z
-y,x-y,-z
-y,-x,-z
-x+y,y,-z
x,x-y,-z
-x+y,y,z
x,x-y,z
-y,-x,z
loop_
_atom_site_type_symbol
_atom_site_label
_atom_site_fract_x
_atom_site_fract_y
_atom_site_fract_z
Si Si1 0.722692 0.795092 0.297746
Si Si2 0.869809 0.001065 0.295517
Si Si3 0.336343 0.929700 0.197825
Si Si4 0.464249 0.404779 0.798020
Si Si5 0.333329 0.796838 0.700646
Si Si6 0.667406 0.203667 0.298407
O O1 0.720900 0.791443 0.500000
O O2 0.714664 0.857332 0.250273
O O3 0.796261 0.814067 0.243235
O O4 0.662191 0.729091 0.230439
O O5 0.870315 0.001926 0.500000
O O6 0.880094 0.940047 0.246717
O O7 0.929656 0.070345 0.237328
O O8 0.331809 0.863461 0.266566
O O9 0.398537 0.996372 0.265692
O O10 0.345644 0.928053 0.000000
O O11 0.527570 0.472431 0.739335
O O12 0.478002 0.346736 0.747116
O O13 0.463420 0.405851 0.000000
O O14 0.333332 0.789827 0.500000
O O15 0.400353 0.800706 0.765218
O O16 0.267587 0.732414 0.765585
O O17 0.667501 0.207675 0.500000
O O18 0.604750 0.209499 0.237046
O O19 0.735720 0.264281 0.236406
#
# Coordination Sequence:
#
# PCOD9585784 Si02
#       6
#    12  12  12  12  12  12
#     4   9  18  32  49  71 100 131 163 201 244 291
#     4   8  13  23  43  71  99 125 156 199 250 298
#     4  11  22  35  52  73  98 132 171 207 243 282
#     4   9  19  35  51  68  94 127 163 203 243 285
#     4  10  21  37  57  80 105 131 159 195 242 295
#     4   9  17  30  50  76 103 128 156 195 244 294
#
# _framework density 18.90849
#
# number of rings (size 3 to 8) (size 9 to 14) (size 15 to 20)
#    0.000    2.667    0.000    3.000    0.000    7.333 
#    0.000    2.500    0.000    5.500    0.000    0.000 
#    0.000    1.333    0.000    0.000    0.000    0.000 
#
# Total GULP energy -401575.873135 kJ/mol
# GULP energy per Si atom -5577.442682 kJ/mol
# Density = 1.886545 g / cm^3
# Si number density = 18.908490 Si / 1000 Ang^3
#
#
#
# Elastic Constant Matrix: (Units=GPa)
#
#
# Indices 1 2 3 4 5 6 
#
# 1 157.3930 95.5511 8.2162 0.0000 -0.0010 0.0000
# 2 95.5511 157.3930 8.2162 0.0000 0.0010 0.0000
# 3 8.2162 8.2162 12.5601 0.0000 0.0000 0.0000
# 4 0.0000 0.0000 0.0000 -17.9547 0.0000 0.0010
# 5 -0.0010 0.0010 0.0000 0.0000 -17.9547 0.0000
# 6 0.0000 0.0000 0.0000 0.0010 0.0000 30.9210
#
#
#
# Elastic Compliance Matrix: (Units=1/GPa)
#
#
# Indices 1 2 3 4 5 6 
#
# 1 0.010150 -0.006021 -0.002701 0.000000 -0.000001 0.000000
# 2 -0.006021 0.010150 -0.002701 0.000000 0.000001 0.000000
# 3 -0.002701 -0.002701 0.083151 0.000000 0.000000 0.000000
# 4 0.000000 0.000000 0.000000 -0.055696 0.000000 0.000002
# 5 -0.000001 0.000001 0.000000 0.000000 -0.055696 0.000000
# 6 0.000000 0.000000 0.000000 0.000002 0.000000 0.032341
#
#
# Mechanical properties :
#
#
# Convention : Reuss Voigt Hill
#
# Bulk Modulus (GPa) = 12.40620 61.25700 36.83160
# Shear Modulus (GPa) = 67.46524 13.35983 40.41254
#
# Velocity S-wave (km/s) = 5.97974 2.66099 4.62808
# Velocity P-wave (km/s) = 7.36559 6.47364 6.93397
#
# Compressibility (1/GPa) = 0.08060484
#
# Stress axis : x y z
#
# Youngs Moduli (GPa) = 98.52625 98.52625 12.02636
#
# Poissons Ratio (x) = 0.59319 0.03248
# Poissons Ratio (y) = 0.59319 0.03248
# Poissons Ratio (z) = 0.26611 0.26611
#
# Static dielectric constant tensor:
#      x y z
#    x 1.647310 0.000000 0.000000 
#    y 0.000000 1.647310 0.000000 
#    z 0.000000 0.000000 1.681960 
# 
# From -- ./inp_files/964.got.cif
#   From: 2010.05.17/outbox.cif.g08.bks.cpg/sg187_1_cif.got.tgz:964.got - 2010.05.20 12:09:04.
