data_PCOD9585151
_publ_section_title
;
Structure prediction by ZEFSAII (Michael W. Deem and Ramdas Pophale) SiO2 
 PCOD9585151
Probable space group: P 6 C C
;
_chemical_formula_sum "Si O2"
_cell_formula_units_Z 48
_cell_length_a 22.448308
_cell_length_b 22.448308
_cell_length_c 5.289647
_cell_angle_alpha 90.000000
_cell_angle_beta 90.000000
_cell_angle_gamma 120.000000
_cell_volume 2308.471660
_symmetry_space_group_name_H-M "P 6 C C"
_symmetry_group_IT_number 184
_symmetry_cell_setting 'hexagonal'
loop_
_space_group_symop_operation_xyz
x,y,z
x-y,x,z
-y,x-y,z
-x,-y,z
-x+y,-x,z
y,-x+y,z
-x+y,y,1/2+z
x,x-y,1/2+z
-y,-x,1/2+z
y,x,1/2+z
x-y,-y,1/2+z
-x,-x+y,1/2+z
loop_
_atom_site_type_symbol
_atom_site_label
_atom_site_fract_x
_atom_site_fract_y
_atom_site_fract_z
Si Si1 0.342437 0.388849 0.421860
Si Si2 0.383809 0.163874 0.186034
Si Si3 0.572909 0.109775 0.102353
Si Si4 0.311233 0.760401 0.659758
O O1 0.370559 0.369688 0.668568
O O2 0.263562 0.357223 0.341241
O O3 0.365008 0.468266 0.488636
O O4 0.364086 0.205183 0.390558
O O5 0.467189 0.201075 0.160914
O O6 0.518321 0.075838 0.877611
O O7 0.574473 0.182122 0.148533
O O8 0.286925 0.714126 0.910679
#
# Coordination Sequence:
#
# PCOD9585151 Si02
#       4
#    12  12  12  12
#     4  12  26  41  60  92 123 145 184 246 313 381
#     4  10  21  40  63  81 104 150 190 218 274 355
#     4  12  24  39  58  81 109 147 179 227 322 372
#     4  10  21  38  59  74  96 136 189 232 265 355
#
# _framework density 20.792978000000002
#
# number of rings (size 3 to 8) (size 9 to 14) (size 15 to 20)
#    0.000    1.000    2.500    4.500    7.000    3.000 
#    0.000    0.000    0.000   19.000    0.000    0.000 
#    0.000    0.000    0.000    0.000    0.000    0.000 
#
# Total GULP energy -267421.907202 kJ/mol
# GULP energy per Si atom -5571.289733 kJ/mol
# Density = 2.074565 g / cm^3
# Si number density = 20.792978 Si / 1000 Ang^3
#
#
#
# Elastic Constant Matrix: (Units=GPa)
#
#
# Indices 1 2 3 4 5 6 
#
# 1 47.8850 10.0690 44.0125 0.0000 0.0000 0.0000
# 2 10.0690 47.8850 44.0125 0.0000 0.0000 0.0000
# 3 44.0125 44.0125 203.8129 0.0000 0.0000 0.0000
# 4 0.0000 0.0000 0.0000 -2.9641 0.0000 0.0000
# 5 0.0000 0.0000 0.0000 0.0000 -2.9641 0.0000
# 6 0.0000 0.0000 0.0000 0.0000 0.0000 18.9080
#
#
#
# Elastic Compliance Matrix: (Units=1/GPa)
#
#
# Indices 1 2 3 4 5 6 
#
# 1 0.026060 -0.000383 -0.005545 0.000000 0.000000 0.000000
# 2 -0.000383 0.026060 -0.005545 0.000000 0.000000 0.000000
# 3 -0.005545 -0.005545 0.007301 0.000000 0.000000 0.000000
# 4 0.000000 0.000000 0.000000 -0.337370 0.000000 0.000000
# 5 0.000000 0.000000 0.000000 0.000000 -0.337370 0.000000
# 6 0.000000 0.000000 0.000000 0.000000 0.000000 0.052888
#
#
# Mechanical properties :
#
#
# Convention : Reuss Voigt Hill
#
# Bulk Modulus (GPa) = 27.41542 55.08564 41.25053
# Shear Modulus (GPa) = -9.48181 16.02855 3.27337
#
# Velocity S-wave (km/s) = -2.13776 2.77946 1.25606
# Velocity P-wave (km/s) = 2.66838 6.07046 4.68885
#
# Compressibility (1/GPa) = 0.03647583
#
# Stress axis : x y z
#
# Youngs Moduli (GPa) = 38.37241 38.37241 136.96346
#
# Poissons Ratio (x) = 0.01471 0.75944
# Poissons Ratio (y) = 0.01471 0.75944
# Poissons Ratio (z) = 0.21277 0.21277
#
# Static dielectric constant tensor:
#      x y z
#    x 1.888300 0.000000 0.000000 
#    y 0.000000 1.888300 0.000000 
#    z 0.000000 0.000000 1.903270 
# 
# From -- ./inp_files/27.got.cif
#   From: 2010.05.17/outbox.cif.g08.bks.cpg/sg184_cif.got.tgz:27.got - 2010.05.20 12:04:40.
