data_PCOD9585193
_publ_section_title
;
Structure prediction by ZEFSAII (Michael W. Deem and Ramdas Pophale) SiO2 
 PCOD9585193
Probable space group: P 6 C C
;
_chemical_formula_sum "Si O2"
_cell_formula_units_Z 66
_cell_length_a 17.920217
_cell_length_b 17.920217
_cell_length_c 9.210736
_cell_angle_alpha 90.000000
_cell_angle_beta 90.000000
_cell_angle_gamma 120.000000
_cell_volume 2561.601064
_symmetry_space_group_name_H-M "P 6 C C"
_symmetry_group_IT_number 184
_symmetry_cell_setting 'hexagonal'
loop_
_space_group_symop_operation_xyz
x,y,z
x-y,x,z
-y,x-y,z
-x,-y,z
-x+y,-x,z
y,-x+y,z
-x+y,y,1/2+z
x,x-y,1/2+z
-y,-x,1/2+z
y,x,1/2+z
x-y,-y,1/2+z
-x,-x+y,1/2+z
loop_
_atom_site_type_symbol
_atom_site_label
_atom_site_fract_x
_atom_site_fract_y
_atom_site_fract_z
Si Si1 0.065341 0.632735 0.275840
Si Si2 0.500000 0.500000 0.532156
Si Si3 0.749994 0.706543 0.659679
Si Si4 0.440554 0.751631 0.855193
Si Si5 0.964780 0.808107 0.437177
Si Si6 0.224694 0.781339 0.617658
O O1 0.048829 0.582198 0.425984
O O2 0.147886 0.724998 0.243313
O O3 0.062545 0.572868 0.143816
O O4 0.986145 0.648670 0.246584
O O5 0.740817 0.769023 0.544849
O O6 0.774398 0.640532 0.585893
O O7 0.819076 0.768799 0.776817
O O8 0.352421 0.754447 0.866486
O O9 0.482680 0.785818 0.699210
O O10 0.511575 0.795450 0.978902
O O11 0.891537 0.832685 0.460307
#
# Coordination Sequence:
#
# PCOD9585193 Si02
#       6
#    12   6  12  12  12  12
#     4  11  26  45  69 105 142 193 248 305 389 443
#     4  10  26  44  68  96 144 186 250 310 352 470
#     4  12  29  46  73 114 153 197 248 321 386 465
#     4  10  26  47  72 112 149 203 264 310 380 465
#     4  12  26  50  80 112 156 196 258 312 393 475
#     4  12  27  45  79 105 153 200 252 320 389 447
#
# _framework density 25.765135999999998
#
# number of rings (size 3 to 8) (size 9 to 14) (size 15 to 20)
#    0.364    0.364    0.000    5.636   15.273    2.909 
#    0.000    1.818    0.000    0.000    0.000    0.000 
#    0.000    0.000    0.000    0.000    0.000    0.000 
#
# Total GULP energy -369833.188457 kJ/mol
# GULP energy per Si atom -5603.533158 kJ/mol
# Density = 2.570649 g / cm^3
# Si number density = 25.765136 Si / 1000 Ang^3
#
#
#
# Elastic Constant Matrix: (Units=GPa)
#
#
# Indices 1 2 3 4 5 6 
#
# 1 97.2277 8.8385 10.6531 0.0000 0.0000 0.0000
# 2 8.8385 97.2277 10.6531 0.0000 0.0000 0.0000
# 3 10.6531 10.6531 120.1856 0.0000 0.0000 0.0000
# 4 0.0000 0.0000 0.0000 37.8047 0.0000 0.0000
# 5 0.0000 0.0000 0.0000 0.0000 37.8047 0.0000
# 6 0.0000 0.0000 0.0000 0.0000 0.0000 44.1946
#
#
#
# Elastic Compliance Matrix: (Units=1/GPa)
#
#
# Indices 1 2 3 4 5 6 
#
# 1 0.010456 -0.000857 -0.000851 0.000000 0.000000 0.000000
# 2 -0.000857 0.010456 -0.000851 0.000000 0.000000 0.000000
# 3 -0.000851 -0.000851 0.008471 0.000000 0.000000 0.000000
# 4 0.000000 0.000000 0.000000 0.026452 0.000000 0.000000
# 5 0.000000 0.000000 0.000000 0.000000 0.026452 0.000000
# 6 0.000000 0.000000 0.000000 0.000000 0.000000 0.022627
#
#
# Mechanical properties :
#
#
# Convention : Reuss Voigt Hill
#
# Bulk Modulus (GPa) = 41.21007 41.65892 41.43450
# Shear Modulus (GPa) = 42.32938 42.92719 42.62829
#
# Velocity S-wave (km/s) = 4.05766 4.08621 4.07196
# Velocity P-wave (km/s) = 6.16296 6.20215 6.18258
#
# Compressibility (1/GPa) = 0.02426591
#
# Stress axis : x y z
#
# Youngs Moduli (GPa) = 95.63613 95.63613 118.04568
#
# Poissons Ratio (x) = 0.08199 0.10044
# Poissons Ratio (y) = 0.08199 0.10044
# Poissons Ratio (z) = 0.08137 0.08137
#
# Static dielectric constant tensor:
#      x y z
#    x 2.050110 0.000000 0.000000 
#    y 0.000000 2.050110 0.000000 
#    z 0.000000 0.000000 2.014400 
# 
# From -- ./inp_files/313.got.cif
#   From: 2010.05.17/outbox.cif.g08.bks.cpg/sg184_cif.got.tgz:313.got - 2010.05.20 12:04:40.
