data_PCOD9585519
_publ_section_title
;
Structure prediction by ZEFSAII (Michael W. Deem and Ramdas Pophale) SiO2 
 PCOD9585519
Probable space group: P -6 M 2
;
_chemical_formula_sum "Si O2"
_cell_formula_units_Z 90
_cell_length_a 17.344823
_cell_length_b 17.344823
_cell_length_c 21.260351
_cell_angle_alpha 90.000000
_cell_angle_beta 90.000000
_cell_angle_gamma 120.000000
_cell_volume 5539.120418
_symmetry_space_group_name_H-M "P -6 M 2"
_symmetry_group_IT_number 187
_symmetry_cell_setting 'hexagonal'
loop_
_space_group_symop_operation_xyz
x,y,z
-x+y,-x,-z
-y,x-y,z
x,y,-z
-x+y,-x,z
-y,x-y,-z
-y,-x,-z
-x+y,y,-z
x,x-y,-z
-x+y,y,z
x,x-y,z
-y,-x,z
loop_
_atom_site_type_symbol
_atom_site_label
_atom_site_fract_x
_atom_site_fract_y
_atom_site_fract_z
Si Si1 0.666017 0.516056 0.000000
Si Si2 0.629955 0.908602 0.932640
Si Si3 0.637470 0.729970 0.689885
Si Si4 0.665693 0.147138 0.140355
Si Si5 0.514246 0.846987 0.186840
Si Si6 0.333072 0.485010 0.572015
Si Si7 0.998304 0.817941 0.882364
Si Si8 0.930487 0.247053 0.768214
O O1 0.659930 0.550956 0.930770
O O2 0.586177 0.413824 0.000000
O O3 0.760360 0.520720 0.000000
O O4 0.623704 0.811852 0.932409
O O5 0.574877 0.904791 0.871466
O O6 0.734942 0.976423 0.925960
O O7 0.595527 0.919710 0.000000
O O8 0.670518 0.835259 0.688036
O O9 0.568424 0.691324 0.748236
O O10 0.588174 0.688087 0.624820
O O11 0.709809 0.703635 0.709185
O O12 0.574048 0.148096 0.151930
O O13 0.751910 0.248091 0.140737
O O14 0.687419 0.092504 0.191637
O O15 0.426806 0.853611 0.190882
O O16 0.490990 0.745495 0.176087
O O17 0.330376 0.454686 0.500000
O O18 0.254637 0.509274 0.577801
O O19 0.427487 0.572514 0.582841
O O20 0.083260 0.916741 0.879557
O O21 0.909404 0.818808 0.901372
O O22 0.979398 0.767721 0.815415
O O23 0.836766 0.163235 0.750590
#
# Coordination Sequence:
#
# PCOD9585519 Si02
#       8
#     6  12  12  12  12  12  12  12
#     4   8  13  24  42  62  83 108 144 188 234 284
#     4   9  18  33  49  65  90 121 153 198 253 295
#     4  10  19  33  52  72  98 130 161 197 241 287
#     4   9  17  29  45  65  89 119 155 195 240 290
#     4  10  19  31  48  70  96 129 168 202 235 278
#     4   9  17  29  48  77 112 145 171 193 221 263
#     4  10  19  34  53  71  89 113 151 199 254 312
#     4  10  20  33  48  68  94 123 156 199 247 292
#
# _framework density 16.248068
#
# number of rings (size 3 to 8) (size 9 to 14) (size 15 to 20)
#    0.000    2.533    1.333    1.400    0.000    3.200 
#    1.200    1.333    0.000    2.267    0.000    0.000 
#    0.000    0.000    0.000    0.000    0.000    1.600 
#
# Total GULP energy -501857.603644 kJ/mol
# GULP energy per Si atom -5576.195596 kJ/mol
# Density = 1.621109 g / cm^3
# Si number density = 16.248068 Si / 1000 Ang^3
#
#
#
# Elastic Constant Matrix: (Units=GPa)
#
#
# Indices 1 2 3 4 5 6 
#
# 1 63.5140 25.3319 31.9437 0.0000 0.0000 0.0000
# 2 25.3319 63.5140 31.9437 0.0000 0.0000 0.0000
# 3 31.9437 31.9437 93.5501 0.0000 0.0000 0.0000
# 4 0.0000 0.0000 0.0000 19.0407 0.0000 0.0000
# 5 0.0000 0.0000 0.0000 0.0000 19.0407 0.0000
# 6 0.0000 0.0000 0.0000 0.0000 0.0000 19.0910
#
#
#
# Elastic Compliance Matrix: (Units=1/GPa)
#
#
# Indices 1 2 3 4 5 6 
#
# 1 0.020554 -0.005636 -0.005094 0.000000 0.000000 0.000000
# 2 -0.005636 0.020554 -0.005094 0.000000 0.000000 0.000000
# 3 -0.005094 -0.005094 0.014168 0.000000 0.000000 0.000000
# 4 0.000000 0.000000 0.000000 0.052519 0.000000 0.000000
# 5 0.000000 0.000000 0.000000 0.000000 0.052519 0.000000
# 6 0.000000 0.000000 0.000000 0.000000 0.000000 0.052381
#
#
# Mechanical properties :
#
#
# Convention : Reuss Voigt Hill
#
# Bulk Modulus (GPa) = 42.32087 44.33518 43.32803
# Shear Modulus (GPa) = 19.82393 20.19173 20.00783
#
# Velocity S-wave (km/s) = 3.49675 3.52904 3.51293
# Velocity P-wave (km/s) = 6.51201 6.62957 6.57105
#
# Compressibility (1/GPa) = 0.02362900
#
# Stress axis : x y z
#
# Youngs Moduli (GPa) = 48.65136 48.65136 70.57994
#
# Poissons Ratio (x) = 0.27419 0.35954
# Poissons Ratio (y) = 0.27419 0.35954
# Poissons Ratio (z) = 0.24783 0.24783
#
# Static dielectric constant tensor:
#      x y z
#    x 1.558310 0.000000 0.000000 
#    y 0.000000 1.558310 0.000000 
#    z 0.000000 0.000000 1.542740 
# 
# From -- ./inp_files/3241.got.cif
#   From: 2010.05.17/outbox.cif.g08.bks.cpg/sg187_2_cif.got.tgz:3241.got - 2010.05.20 12:09:04.
