data_PCOD9585703
_publ_section_title
;
Structure prediction by ZEFSAII (Michael W. Deem and Ramdas Pophale) SiO2 
 PCOD9585703
Probable space group: P -6 M 2
;
_chemical_formula_sum "Si O2"
_cell_formula_units_Z 66
_cell_length_a 12.725511
_cell_length_b 12.725511
_cell_length_c 28.736882
_cell_angle_alpha 90.000000
_cell_angle_beta 90.000000
_cell_angle_gamma 120.000000
_cell_volume 4030.145612
_symmetry_space_group_name_H-M "P -6 M 2"
_symmetry_group_IT_number 187
_symmetry_cell_setting 'hexagonal'
loop_
_space_group_symop_operation_xyz
x,y,z
-x+y,-x,-z
-y,x-y,z
x,y,-z
-x+y,-x,z
-y,x-y,-z
-y,-x,-z
-x+y,y,-z
x,x-y,-z
-x+y,y,z
x,x-y,z
-y,-x,z
loop_
_atom_site_type_symbol
_atom_site_label
_atom_site_fract_x
_atom_site_fract_y
_atom_site_fract_z
Si Si1 0.333752 0.916674 0.640359
Si Si2 0.000321 0.250171 0.910031
Si Si3 0.416982 0.332674 0.000000
Si Si4 0.417314 0.083652 0.729420
Si Si5 0.750934 0.751083 0.553071
Si Si6 0.583308 0.666957 0.819446
O O1 0.447844 0.895688 0.639247
O O2 0.209907 0.790094 0.646896
O O3 0.322726 0.974893 0.592205
O O4 0.354993 0.006402 0.683130
O O5 0.881215 0.118786 0.903975
O O6 0.118653 0.237305 0.917564
O O7 0.024481 0.332293 0.864427
O O8 0.976831 0.312481 0.954425
O O9 0.537738 0.462263 0.000000
O O10 0.448785 0.224393 0.000000
O O11 0.556673 0.113346 0.728820
O O12 0.410429 0.205215 0.731244
O O13 0.355762 0.999756 0.774373
O O14 0.708328 0.710692 0.500000
O O15 0.779679 0.889840 0.556646
O O16 0.872834 0.745668 0.560531
O O17 0.568633 0.784317 0.812412
O O18 0.452888 0.547113 0.826244
#
# Coordination Sequence:
#
# PCOD9585703 Si02
#       6
#    12  12   6  12  12  12
#     4  10  20  33  50  72  99 131 165 201 242 290
#     4  10  20  34  53  76 103 135 170 209 252 298
#     4  10  20  34  52  74 100 130 166 208 254 302
#     4  10  20  34  52  73  97 126 162 204 249 295
#     4   9  17  30  49  72  97 126 161 202 247 293
#     4  10  20  34  53  76 103 135 169 205 245 292
#
# _framework density 16.376579
#
# number of rings (size 3 to 8) (size 9 to 14) (size 15 to 20)
#    0.000    2.182    0.000    3.455    0.000    1.091 
#    0.000    2.727    0.000   14.909    0.000    0.000 
#    0.000    0.000    0.000    0.000    0.000    0.000 
#
# Total GULP energy -368317.580542 kJ/mol
# GULP energy per Si atom -5580.569402 kJ/mol
# Density = 1.633930 g / cm^3
# Si number density = 16.376579 Si / 1000 Ang^3
#
#
#
# Elastic Constant Matrix: (Units=GPa)
#
#
# Indices 1 2 3 4 5 6 
#
# 1 127.5189 88.8331 91.6622 0.0000 -0.0002 0.0000
# 2 88.8331 127.5189 91.6622 0.0000 0.0002 0.0000
# 3 91.6622 91.6622 143.4449 0.0000 0.0000 0.0000
# 4 0.0000 0.0000 0.0000 25.2248 0.0000 0.0002
# 5 -0.0002 0.0002 0.0000 0.0000 25.2248 0.0000
# 6 0.0000 0.0000 0.0000 0.0002 0.0000 19.3429
#
#
#
# Elastic Compliance Matrix: (Units=1/GPa)
#
#
# Indices 1 2 3 4 5 6 
#
# 1 0.017965 -0.007885 -0.006441 0.000000 0.000000 0.000000
# 2 -0.007885 0.017965 -0.006441 0.000000 0.000000 0.000000
# 3 -0.006441 -0.006441 0.015203 0.000000 0.000000 0.000000
# 4 0.000000 0.000000 0.000000 0.039644 0.000000 0.000000
# 5 0.000000 0.000000 0.000000 0.000000 0.039644 0.000000
# 6 0.000000 0.000000 0.000000 0.000000 0.000000 0.051699
#
#
# Mechanical properties :
#
#
# Convention : Reuss Voigt Hill
#
# Bulk Modulus (GPa) = 104.18305 104.75532 104.46918
# Shear Modulus (GPa) = 22.04084 22.38018 22.21051
#
# Velocity S-wave (km/s) = 3.67260 3.70076 3.68671
# Velocity P-wave (km/s) = 9.04097 9.07559 9.05830
#
# Compressibility (1/GPa) = 0.00959849
#
# Stress axis : x y z
#
# Youngs Moduli (GPa) = 55.66491 55.66491 65.77550
#
# Poissons Ratio (x) = 0.43890 0.42367
# Poissons Ratio (y) = 0.43890 0.42367
# Poissons Ratio (z) = 0.35855 0.35855
#
# Static dielectric constant tensor:
#      x y z
#    x 1.517690 0.000000 0.000000 
#    y 0.000000 1.517690 0.000000 
#    z 0.000000 0.000000 1.537400 
# 
# From -- ./inp_files/4492.got.cif
#   From: 2010.05.17/outbox.cif.g08.bks.cpg/sg187_3_cif.got.tgz:4492.got - 2010.05.20 12:09:04.
