data_PCOD9585939
_publ_section_title
;
Structure prediction by ZEFSAII (Michael W. Deem and Ramdas Pophale) SiO2 
 PCOD9585939
Probable space group: P -6 C 2
;
_chemical_formula_sum "Si O2"
_cell_formula_units_Z 52
_cell_length_a 15.734701
_cell_length_b 15.734701
_cell_length_c 15.798691
_cell_angle_alpha 90.000000
_cell_angle_beta 90.000000
_cell_angle_gamma 120.000000
_cell_volume 3387.417493
_symmetry_space_group_name_H-M "P -6 C 2"
_symmetry_group_IT_number 188
_symmetry_cell_setting 'hexagonal'
loop_
_space_group_symop_operation_xyz
x,y,z
-x+y,-x,1/2-z
-y,x-y,z
x,y,1/2-z
-x+y,-x,z
-y,x-y,1/2-z
-y,-x,-z
-x+y,y,-z
x,x-y,-z
-x+y,y,1/2+z
x,x-y,1/2+z
-y,-x,1/2+z
loop_
_atom_site_type_symbol
_atom_site_label
_atom_site_fract_x
_atom_site_fract_y
_atom_site_fract_z
Si Si1 0.464611 0.333306 0.500000
Si Si2 0.560797 0.780399 0.900062
Si Si3 0.333335 0.666668 0.351981
Si Si4 0.391871 0.984507 0.846223
Si Si5 0.592635 0.608128 0.346223
O O1 0.576635 0.423366 0.500000
O O2 0.460693 0.230347 0.500000
O O3 0.413644 0.348294 0.417137
O O4 0.413645 0.348294 0.582863
O O5 0.444161 0.722083 0.884326
O O6 0.599795 0.712328 0.860882
O O7 0.599797 0.887469 0.860882
O O8 0.580076 0.790038 0.000000
O O9 0.333334 0.666668 0.250000
O O10 0.399013 0.020090 0.750000
O O11 0.478584 0.957168 0.856654
O O12 0.621076 0.600985 0.250000
#
# Coordination Sequence:
#
# PCOD9585939 Si02
#       5
#    12  12   4  12  12
#     4  10  21  37  54  72  94 128 172 221 265 300
#     4  12  20  30  46  73 109 148 175 195 230 287
#     4  12  22  26  40  72 112 155 181 190 221 283
#     4  10  20  33  49  73 105 138 169 201 241 294
#     4  10  20  33  49  73 105 138 169 201 241 294
#
# _framework density 15.350927
#
# number of rings (size 3 to 8) (size 9 to 14) (size 15 to 20)
#    0.000    1.385    4.615    3.000    0.000    0.923 
#    0.000    0.000    0.000    2.769    0.000    0.000 
#    9.231    0.000    2.769    0.000    0.000    0.000 
#
# Total GULP energy -290266.137380 kJ/mol
# GULP energy per Si atom -5582.041103 kJ/mol
# Density = 1.531599 g / cm^3
# Si number density = 15.350927 Si / 1000 Ang^3
#
#
#
# Elastic Constant Matrix: (Units=GPa)
#
#
# Indices 1 2 3 4 5 6 
#
# 1 100.1428 45.1270 52.1231 -0.0001 0.0000 0.0000
# 2 45.1270 100.1423 52.1232 0.0000 0.0000 0.0000
# 3 52.1231 52.1232 145.5973 0.0001 0.0000 0.0000
# 4 -0.0001 0.0000 0.0001 8.5341 0.0000 0.0000
# 5 0.0000 0.0000 0.0000 0.0000 8.5341 0.0000
# 6 0.0000 0.0000 0.0000 0.0000 0.0000 27.5079
#
#
#
# Elastic Compliance Matrix: (Units=1/GPa)
#
#
# Indices 1 2 3 4 5 6 
#
# 1 0.013720 -0.004457 -0.003316 0.000000 0.000000 0.000000
# 2 -0.004457 0.013720 -0.003316 0.000000 0.000000 0.000000
# 3 -0.003316 -0.003316 0.009243 0.000000 0.000000 0.000000
# 4 0.000000 0.000000 0.000000 0.117177 0.000000 0.000000
# 5 0.000000 0.000000 0.000000 0.000000 0.117176 0.000000
# 6 0.000000 0.000000 0.000000 0.000000 0.000000 0.036353
#
#
# Mechanical properties :
#
#
# Convention : Reuss Voigt Hill
#
# Bulk Modulus (GPa) = 68.94372 71.62545 70.28458
# Shear Modulus (GPa) = 14.95205 22.01584 18.48394
#
# Velocity S-wave (km/s) = 3.12431 3.79115 3.47377
# Velocity P-wave (km/s) = 7.61737 8.11935 7.87236
#
# Compressibility (1/GPa) = 0.01450458
#
# Stress axis : x y z
#
# Youngs Moduli (GPa) = 72.88596 72.88538 108.19341
#
# Poissons Ratio (x) = 0.32482 0.35880
# Poissons Ratio (y) = 0.32482 0.35881
# Poissons Ratio (z) = 0.24171 0.24171
#
# Static dielectric constant tensor:
#      x y z
#    x 1.485200 0.000000 0.000000 
#    y 0.000000 1.485200 0.000000 
#    z 0.000000 0.000000 1.531310 
# 
# From -- ./inp_files/2173.got.cif
#   From: 2010.05.17/outbox.cif.g08.bks.cpg/sg188_2_cif.got.tgz:2173.got - 2010.05.20 12:11:46.
