data_PCOD9585288
_publ_section_title
;
Structure prediction by ZEFSAII (Michael W. Deem and Ramdas Pophale) SiO2 
 PCOD9585288
Probable space group: P 63 C M
;
_chemical_formula_sum "Si O2"
_cell_formula_units_Z 72
_cell_length_a 21.720447
_cell_length_b 21.720447
_cell_length_c 10.509558
_cell_angle_alpha 90.000000
_cell_angle_beta 90.000000
_cell_angle_gamma 120.000000
_cell_volume 4293.906667
_symmetry_space_group_name_H-M "P 63 C M"
_symmetry_group_IT_number 185
_symmetry_cell_setting 'hexagonal'
loop_
_space_group_symop_operation_xyz
x,y,z
x-y,x,1/2+z
-y,x-y,z
-x,-y,1/2+z
-x+y,-x,z
y,-x+y,1/2+z
-x+y,y,1/2+z
x,x-y,1/2+z
-y,-x,1/2+z
y,x,z
x-y,-y,z
-x,-x+y,z
loop_
_atom_site_type_symbol
_atom_site_label
_atom_site_fract_x
_atom_site_fract_y
_atom_site_fract_z
Si Si1 0.362076 0.448898 0.192840
Si Si2 0.913593 0.594936 0.467992
Si Si3 0.594936 0.913593 0.917688
Si Si4 0.914615 0.733650 0.549501
Si Si5 0.408350 0.495012 0.692840
Si Si6 0.733649 0.819035 0.336179
O O1 0.403741 0.403741 0.192840
O O2 0.318517 0.429257 0.323915
O O3 0.423220 0.531237 0.192840
O O4 0.318517 0.429257 0.061765
O O5 0.894980 0.652949 0.519416
O O6 0.890428 0.530851 0.567255
O O7 0.000000 0.635710 0.466250
O O8 0.530851 0.890428 0.818425
O O9 0.652949 0.894980 0.866264
O O10 0.635710 0.000000 0.919430
O O11 0.891649 0.737846 0.692840
O O12 0.878361 0.756722 0.442840
O O13 0.000000 0.780614 0.543651
O O14 0.451278 0.451278 0.692840
O O15 0.780613 0.780613 0.342029
#
# Coordination Sequence:
#
# PCOD9585288 Si02
#       6
#    12  12  12  12  12  12
#     4   9  16  22  37  64  91 126 164 185 208 254
#     4   9  16  27  41  62  93 126 160 194 229 276
#     4   9  16  27  41  62  93 126 160 194 229 276
#     4  10  21  36  53  73  97 127 164 208 260 319
#     4   9  14  24  39  58  91 130 160 185 212 250
#     4  10  21  36  53  73  97 127 164 208 260 319
#
# _framework density 16.767948000000001
#
# number of rings (size 3 to 8) (size 9 to 14) (size 15 to 20)
#    0.000    2.667    1.667    1.000    2.333    4.667 
#    0.000    0.000    0.000    0.333    0.000    0.000 
#    0.000    0.000    0.000   20.000    0.000   13.333 
#
# Total GULP energy -401227.336172 kJ/mol
# GULP energy per Si atom -5572.601891 kJ/mol
# Density = 1.672978 g / cm^3
# Si number density = 16.767948 Si / 1000 Ang^3
#
#
#
# Elastic Constant Matrix: (Units=GPa)
#
#
# Indices 1 2 3 4 5 6 
#
# 1 21.0767 11.6106 31.4755 0.0000 0.0000 0.0000
# 2 11.6106 21.0767 31.4755 0.0000 0.0000 0.0000
# 3 31.4755 31.4755 174.7745 0.0000 0.0000 0.0000
# 4 0.0000 0.0000 0.0000 22.9186 0.0000 0.0000
# 5 0.0000 0.0000 0.0000 0.0000 22.9186 0.0000
# 6 0.0000 0.0000 0.0000 0.0000 0.0000 4.7331
#
#
#
# Elastic Compliance Matrix: (Units=1/GPa)
#
#
# Indices 1 2 3 4 5 6 
#
# 1 0.076239 -0.029401 -0.008435 0.000000 0.000000 0.000000
# 2 -0.029401 0.076239 -0.008435 0.000000 0.000000 0.000000
# 3 -0.008435 -0.008435 0.008760 0.000000 0.000000 0.000000
# 4 0.000000 0.000000 0.000000 0.043633 0.000000 0.000000
# 5 0.000000 0.000000 0.000000 0.000000 0.043633 0.000000
# 6 0.000000 0.000000 0.000000 0.000000 0.000000 0.211280
#
#
# Mechanical properties :
#
#
# Convention : Reuss Voigt Hill
#
# Bulk Modulus (GPa) = 14.55715 40.67237 27.61476
# Shear Modulus (GPa) = 8.69228 19.60513 14.14870
#
# Velocity S-wave (km/s) = 2.27928 3.42307 2.90797
# Velocity P-wave (km/s) = 3.95313 6.31917 5.27063
#
# Compressibility (1/GPa) = 0.06869474
#
# Stress axis : x y z
#
# Youngs Moduli (GPa) = 13.11670 13.11670 114.15729
#
# Poissons Ratio (x) = 0.38564 0.96293
# Poissons Ratio (y) = 0.38564 0.96293
# Poissons Ratio (z) = 0.11064 0.11064
#
# Static dielectric constant tensor:
#      x y z
#    x 1.557740 0.000000 0.000000 
#    y 0.000000 1.557740 0.000000 
#    z 0.000000 0.000000 1.586320 
# 
# From -- ./inp_files/636.got.cif
#   From: 2010.05.17/outbox.cif.g08.bks.cpg/sg185_cif.got.tgz:636.got - 2010.05.20 12:05:34.
