data_PCOD9585507
_publ_section_title
;
Structure prediction by ZEFSAII (Michael W. Deem and Ramdas Pophale) SiO2 
 PCOD9585507
Probable space group: P -6 M 2
;
_chemical_formula_sum "Si O2"
_cell_formula_units_Z 90
_cell_length_a 17.858419
_cell_length_b 17.858419
_cell_length_c 17.166869
_cell_angle_alpha 90.000000
_cell_angle_beta 90.000000
_cell_angle_gamma 120.000000
_cell_volume 4741.412511
_symmetry_space_group_name_H-M "P -6 M 2"
_symmetry_group_IT_number 187
_symmetry_cell_setting 'hexagonal'
loop_
_space_group_symop_operation_xyz
x,y,z
-x+y,-x,-z
-y,x-y,z
x,y,-z
-x+y,-x,z
-y,x-y,-z
-y,-x,-z
-x+y,y,-z
x,x-y,-z
-x+y,y,z
x,x-y,z
-y,-x,z
loop_
_atom_site_type_symbol
_atom_site_label
_atom_site_fract_x
_atom_site_fract_y
_atom_site_fract_z
Si Si1 0.511036 0.844051 0.000000
Si Si2 0.099042 0.374725 0.845677
Si Si3 0.505344 0.170775 0.592049
Si Si4 0.748391 0.078348 0.090574
Si Si5 0.075289 0.329105 0.590650
Si Si6 0.154720 0.666473 0.307139
Si Si7 0.914285 0.257405 0.684745
Si Si8 0.843346 0.510557 0.183550
O O1 0.567433 0.886456 0.077319
O O2 0.425050 0.850099 0.000000
O O3 0.488404 0.744202 0.000000
O O4 0.177902 0.355804 0.841947
O O5 0.107759 0.431144 0.769666
O O6 0.007659 0.288403 0.857961
O O7 0.514880 0.177974 0.500000
O O8 0.570774 0.141548 0.623689
O O9 0.531537 0.265768 0.623668
O O10 0.406181 0.111009 0.610228
O O11 0.843937 0.156064 0.112142
O O12 0.685161 0.117541 0.105624
O O13 0.748923 0.057775 0.000000
O O14 0.047021 0.314061 0.500000
O O15 0.158536 0.317071 0.596524
O O16 0.108627 0.427622 0.618364
O O17 0.006109 0.272693 0.657505
O O18 0.152030 0.576015 0.307662
O O19 0.253194 0.746806 0.304375
O O20 0.841947 0.158054 0.696738
O O21 0.895612 0.310979 0.750942
O O22 0.743370 0.486739 0.189486
O O23 0.853236 0.426618 0.188014
#
# Coordination Sequence:
#
# PCOD9585507 Si02
#       8
#     6  12  12  12  12  12  12  12
#     4  10  19  30  47  76 112 146 176 212 265 328
#     4  10  20  35  56  82 110 142 181 226 283 340
#     4   9  16  25  39  63  96 131 162 192 232 286
#     4  10  21  37  54  75 105 144 188 233 278 323
#     4  10  22  39  56  76 105 141 180 224 275 326
#     4  10  21  37  57  81 111 147 185 224 267 319
#     4  10  20  34  54  78 102 131 170 218 272 328
#     4  10  21  36  54  78 110 147 185 223 265 314
#
# _framework density 18.981684999999999
#
# number of rings (size 3 to 8) (size 9 to 14) (size 15 to 20)
#    0.000    2.133    0.667    2.467    0.000    5.067 
#    0.000    2.667    0.000    2.133    0.000    0.000 
#    0.000    6.400    0.000    0.000    0.000    0.000 
#
# Total GULP energy -501665.723747 kJ/mol
# GULP energy per Si atom -5574.063597 kJ/mol
# Density = 1.893848 g / cm^3
# Si number density = 18.981685 Si / 1000 Ang^3
#
#
#
# Elastic Constant Matrix: (Units=GPa)
#
#
# Indices 1 2 3 4 5 6 
#
# 1 65.5507 48.2924 12.7647 0.0000 -0.0002 0.0000
# 2 48.2924 65.5507 12.7647 0.0000 0.0002 0.0000
# 3 12.7647 12.7647 45.1925 0.0000 0.0000 0.0000
# 4 0.0000 0.0000 0.0000 19.8143 0.0000 0.0002
# 5 -0.0002 0.0002 0.0000 0.0000 19.8143 0.0000
# 6 0.0000 0.0000 0.0000 0.0002 0.0000 8.6291
#
#
#
# Elastic Compliance Matrix: (Units=1/GPa)
#
#
# Indices 1 2 3 4 5 6 
#
# 1 0.033661 -0.024283 -0.002649 0.000000 0.000000 0.000000
# 2 -0.024283 0.033661 -0.002649 0.000000 0.000000 0.000000
# 3 -0.002649 -0.002649 0.023624 0.000000 0.000000 0.000000
# 4 0.000000 0.000000 0.000000 0.050469 0.000000 -0.000001
# 5 0.000000 0.000000 0.000000 0.000000 0.050469 0.000000
# 6 0.000000 0.000000 0.000000 -0.000001 0.000000 0.115887
#
#
# Mechanical properties :
#
#
# Convention : Reuss Voigt Hill
#
# Bulk Modulus (GPa) = 31.46180 35.99307 33.72743
# Shear Modulus (GPa) = 13.24418 16.48303 14.86360
#
# Velocity S-wave (km/s) = 2.64433 2.95000 2.80134
# Velocity P-wave (km/s) = 5.09256 5.53231 5.31698
#
# Compressibility (1/GPa) = 0.03178458
#
# Stress axis : x y z
#
# Youngs Moduli (GPa) = 29.70828 29.70828 42.33004
#
# Poissons Ratio (x) = 0.72140 0.11213
# Poissons Ratio (y) = 0.72140 0.11213
# Poissons Ratio (z) = 0.07869 0.07869
#
# Static dielectric constant tensor:
#      x y z
#    x 1.700700 0.000000 0.000000 
#    y 0.000000 1.700700 0.000000 
#    z 0.000000 0.000000 1.738240 
# 
# From -- ./inp_files/3274.got.cif
#   From: 2010.05.17/outbox.cif.g08.bks.cpg/sg187_2_cif.got.tgz:3274.got - 2010.05.20 12:09:04.
