data_PCOD9585795
_publ_section_title
;
Structure prediction by ZEFSAII (Michael W. Deem and Ramdas Pophale) SiO2 
 PCOD9585795
Probable space group: P -6 M 2
;
_chemical_formula_sum "Si O2"
_cell_formula_units_Z 51
_cell_length_a 18.831587
_cell_length_b 18.831587
_cell_length_c 7.812276
_cell_angle_alpha 90.000000
_cell_angle_beta 90.000000
_cell_angle_gamma 120.000000
_cell_volume 2399.286176
_symmetry_space_group_name_H-M "P -6 M 2"
_symmetry_group_IT_number 187
_symmetry_cell_setting 'hexagonal'
loop_
_space_group_symop_operation_xyz
x,y,z
-x+y,-x,-z
-y,x-y,z
x,y,-z
-x+y,-x,z
-y,x-y,-z
-y,-x,-z
-x+y,y,-z
x,x-y,-z
-x+y,y,z
x,x-y,z
-y,-x,z
loop_
_atom_site_type_symbol
_atom_site_label
_atom_site_fract_x
_atom_site_fract_y
_atom_site_fract_z
Si Si1 0.504767 0.171756 0.207206
Si Si2 0.817135 0.022365 0.809020
Si Si3 0.999895 0.350550 0.301822
Si Si4 0.333143 0.505174 0.793059
Si Si5 0.083168 0.166336 0.500000
O O1 0.594088 0.188175 0.260376
O O2 0.489583 0.244792 0.266435
O O3 0.435835 0.082183 0.266142
O O4 0.503080 0.171536 0.000000
O O5 0.880786 0.119215 0.791384
O O6 0.724359 0.003200 0.800179
O O7 0.832911 0.977449 0.652610
O O8 0.831243 0.998971 0.000000
O O9 0.001953 0.331759 0.500000
O O10 0.082442 0.434499 0.260690
O O11 0.244880 0.489760 0.732640
O O12 0.406568 0.593433 0.735774
O O13 0.331982 0.506039 0.000000
#
# Coordination Sequence:
#
# PCOD9585795 Si02
#       5
#    12  12  12  12   3
#     4  10  21  39  64  94 129 170 219 275 338 407
#     4  11  25  46  71 100 136 180 227 279 343 405
#     4  12  25  40  63  95 132 175 226 281 333 395
#     4  10  22  41  66  94 126 166 216 276 343 411
#     4  12  24  44  72 102 138 176 224 288 338 410
#
# _framework density 21.256323999999999
#
# number of rings (size 3 to 8) (size 9 to 14) (size 15 to 20)
#    0.000    1.176    1.176    4.706    1.647    9.412 
#    2.824    0.000    0.000    2.824    0.000    0.000 
#    0.000    0.000    0.000    0.000    0.000    0.000 
#
# Total GULP energy -284344.576990 kJ/mol
# GULP energy per Si atom -5575.383863 kJ/mol
# Density = 2.120794 g / cm^3
# Si number density = 21.256324 Si / 1000 Ang^3
#
#
#
# Elastic Constant Matrix: (Units=GPa)
#
#
# Indices 1 2 3 4 5 6 
#
# 1 -106.1783 313.5461 22.6568 0.0000 -0.0851 0.0000
# 2 313.5461 -106.1783 22.6568 0.0000 0.0851 0.0000
# 3 22.6568 22.6568 119.8681 0.0000 0.0000 0.0000
# 4 0.0000 0.0000 0.0000 25.8328 0.0000 0.0851
# 5 -0.0851 0.0851 0.0000 0.0000 25.8328 0.0000
# 6 0.0000 0.0000 0.0000 0.0851 0.0000 -209.8622
#
#
#
# Elastic Compliance Matrix: (Units=1/GPa)
#
#
# Indices 1 2 3 4 5 6 
#
# 1 0.001324 0.003706 -0.000951 0.000000 -0.000008 0.000000
# 2 0.003706 0.001324 -0.000951 0.000000 0.000008 0.000000
# 3 -0.000951 -0.000951 0.008702 0.000000 0.000000 0.000000
# 4 0.000000 0.000000 0.000000 0.038710 0.000000 0.000016
# 5 -0.000008 0.000008 0.000000 0.000000 0.038710 0.000000
# 6 0.000000 0.000000 0.000000 0.000016 0.000000 -0.004765
#
#
# Mechanical properties :
#
#
# Convention : Reuss Voigt Hill
#
# Bulk Modulus (GPa) = 66.84900 69.47009 68.15955
# Shear Modulus (GPa) = 58.56023 -61.72920 -1.58449
#
# Velocity S-wave (km/s) = 5.25446 -5.39476 -0.86431
# Velocity P-wave (km/s) = 8.26618 2.45999 5.58024
#
# Compressibility (1/GPa) = 0.01495909
#
# Stress axis : x y z
#
# Youngs Moduli (GPa) = 755.40312 755.40312 114.91716
#
# Poissons Ratio (x) = -2.79976 0.10926
# Poissons Ratio (y) = -2.79976 0.10926
# Poissons Ratio (z) = 0.71821 0.71821
#
# Static dielectric constant tensor:
#      x y z
#    x 1.738920 0.000000 0.000000 
#    y 0.000000 1.738920 0.000000 
#    z 0.000000 0.000000 1.768670 
# 
# From -- ./inp_files/423.got.cif
#   From: 2010.05.17/outbox.cif.g08.bks.cpg/sg187_1_cif.got.tgz:423.got - 2010.05.20 12:09:04.
