data_PCOD9585095
_publ_section_title
;
Structure prediction by ZEFSAII (Michael W. Deem and Ramdas Pophale) SiO2 
 PCOD9585095
Probable space group: P 6 C C
;
_chemical_formula_sum "Si O2"
_cell_formula_units_Z 72
_cell_length_a 17.815276
_cell_length_b 17.815276
_cell_length_c 16.809770
_cell_angle_alpha 90.000000
_cell_angle_beta 90.000000
_cell_angle_gamma 120.000000
_cell_volume 4620.378059
_symmetry_space_group_name_H-M "P 6 C C"
_symmetry_group_IT_number 184
_symmetry_cell_setting 'hexagonal'
loop_
_space_group_symop_operation_xyz
x,y,z
x-y,x,z
-y,x-y,z
-x,-y,z
-x+y,-x,z
y,-x+y,z
-x+y,y,1/2+z
x,x-y,1/2+z
-y,-x,1/2+z
y,x,1/2+z
x-y,-y,1/2+z
-x,-x+y,1/2+z
loop_
_atom_site_type_symbol
_atom_site_label
_atom_site_fract_x
_atom_site_fract_y
_atom_site_fract_z
Si Si1 0.902765 0.268301 0.846200
Si Si2 0.814331 0.457688 0.785969
Si Si3 0.365536 0.097235 0.379603
Si Si4 0.491325 0.174064 0.519865
Si Si5 0.491325 0.317261 0.205938
Si Si6 0.457688 0.643357 0.439833
O O1 0.830512 0.169488 0.862901
O O2 0.885242 0.291484 0.757840
O O3 0.878810 0.326829 0.903707
O O4 1.000000 0.293128 0.862902
O O5 0.878811 0.551981 0.822096
O O6 0.852505 0.416073 0.725426
O O7 0.739838 0.467963 0.741803
O O8 0.787392 0.393696 0.862901
O O9 0.406242 0.114759 0.467963
O O10 0.475713 0.173619 0.612901
O O11 0.532038 0.271876 0.484000
O O12 0.563568 0.147495 0.500376
#
# Coordination Sequence:
#
# PCOD9585095 Si02
#       6
#    12  12  12  12  12  12
#     4   9  19  35  51  65  87 120 153 187 239 299
#     4   9  17  28  44  65  96 133 165 188 218 261
#     4   9  19  35  51  65  87 120 153 187 239 299
#     4  10  18  28  44  70  98 130 167 201 223 249
#     4  10  18  28  44  70  98 130 167 201 223 249
#     4   9  17  28  44  65  96 133 165 188 218 261
#
# _framework density 15.583140999999999
#
# number of rings (size 3 to 8) (size 9 to 14) (size 15 to 20)
#    0.000    2.667    0.000    4.667    0.000   10.000 
#    0.000   10.000    0.000    0.333    0.000    0.000 
#    0.000    0.000    0.000   12.000    0.000    0.000 
#
# Total GULP energy -400998.549746 kJ/mol
# GULP energy per Si atom -5569.424302 kJ/mol
# Density = 1.554767 g / cm^3
# Si number density = 15.583141 Si / 1000 Ang^3
#
#
#
# Elastic Constant Matrix: (Units=GPa)
#
#
# Indices 1 2 3 4 5 6 
#
# 1 73.6018 57.4875 36.3380 0.0000 0.0000 0.0000
# 2 57.4875 73.6018 36.3380 0.0000 0.0000 0.0000
# 3 36.3380 36.3380 112.9191 0.0000 0.0000 0.0000
# 4 0.0000 0.0000 0.0000 7.2739 0.0000 0.0000
# 5 0.0000 0.0000 0.0000 0.0000 7.2739 0.0000
# 6 0.0000 0.0000 0.0000 0.0000 0.0000 8.0571
#
#
#
# Elastic Compliance Matrix: (Units=1/GPa)
#
#
# Indices 1 2 3 4 5 6 
#
# 1 0.035671 -0.026386 -0.002988 0.000000 0.000000 0.000000
# 2 -0.026386 0.035671 -0.002988 0.000000 0.000000 0.000000
# 3 -0.002988 -0.002988 0.010779 0.000000 0.000000 0.000000
# 4 0.000000 0.000000 0.000000 0.137478 0.000000 0.000000
# 5 0.000000 0.000000 0.000000 0.000000 0.137478 0.000000
# 6 0.000000 0.000000 0.000000 0.000000 0.000000 0.124113
#
#
# Mechanical properties :
#
#
# Convention : Reuss Voigt Hill
#
# Bulk Modulus (GPa) = 57.48109 57.82777 57.65443
# Shear Modulus (GPa) = 9.06268 13.18492 11.12380
#
# Velocity S-wave (km/s) = 2.41419 2.91194 2.67467
# Velocity P-wave (km/s) = 6.68864 6.96388 6.82765
#
# Compressibility (1/GPa) = 0.01739702
#
# Stress axis : x y z
#
# Youngs Moduli (GPa) = 28.03413 28.03413 92.77328
#
# Poissons Ratio (x) = 0.73971 0.27720
# Poissons Ratio (y) = 0.73971 0.27720
# Poissons Ratio (z) = 0.08376 0.08376
#
# Static dielectric constant tensor:
#      x y z
#    x 1.525140 0.000000 0.000000 
#    y 0.000000 1.525140 0.000000 
#    z 0.000000 0.000000 1.538890 
# 
# From -- ./inp_files/1118.got.cif
#   From: 2010.05.17/outbox.cif.g08.bks.cpg/sg184_cif.got.tgz:1118.got - 2010.05.20 12:04:40.
