data_PCOD9585372
_publ_section_title
;
Structure prediction by ZEFSAII (Michael W. Deem and Ramdas Pophale) SiO2 
 PCOD9585372
Probable space group: P 63 M C
;
_chemical_formula_sum "Si O2"
_cell_formula_units_Z 72
_cell_length_a 22.871995
_cell_length_b 22.871995
_cell_length_c 10.161202
_cell_angle_alpha 90.000000
_cell_angle_beta 90.000000
_cell_angle_gamma 120.000000
_cell_volume 4603.454039
_symmetry_space_group_name_H-M "P 63 M C"
_symmetry_group_IT_number 186
_symmetry_cell_setting 'hexagonal'
loop_
_space_group_symop_operation_xyz
x,y,z
x-y,x,1/2+z
-y,x-y,z
-x,-y,1/2+z
-x+y,-x,z
y,-x+y,1/2+z
-x+y,y,z
x,x-y,z
-y,-x,z
y,x,1/2+z
x-y,-y,1/2+z
-x,-x+y,1/2+z
loop_
_atom_site_type_symbol
_atom_site_label
_atom_site_fract_x
_atom_site_fract_y
_atom_site_fract_z
Si Si1 0.403348 0.935743 0.688850
Si Si2 0.632199 0.749073 0.377445
Si Si3 0.632209 0.883133 0.690842
Si Si4 0.532403 0.596643 0.379464
Si Si5 0.999278 0.139978 0.534131
Si Si6 0.774333 0.774344 0.284131
O O1 0.451882 0.903764 0.706697
O O2 0.324194 0.892556 0.718126
O O3 0.409559 0.955685 0.534161
O O4 0.433019 0.999987 0.784169
O O5 0.616831 0.808416 0.348527
O O6 0.647372 0.751570 0.534141
O O7 0.568367 0.675795 0.350164
O O8 0.699537 0.763455 0.301492
O O9 0.616866 0.808433 0.719778
O O10 0.699544 0.936109 0.766779
O O11 0.451893 0.548108 0.361603
O O12 0.069990 0.139980 0.534145
O O13 0.995462 0.180618 0.659639
O O14 0.995475 0.180621 0.408615
O O15 0.935850 0.064150 0.534124
#
# Coordination Sequence:
#
# PCOD9585372 Si02
#       6
#    12  12  12  12  12  12
#     4   9  17  30  49  73  98 125 156 192 234 281
#     4  10  19  33  52  74 101 133 164 198 246 298
#     4  10  19  33  52  74 101 133 164 198 246 298
#     4   9  17  30  49  73  98 125 156 192 234 281
#     4  12  25  40  54  68  91 126 170 216 262 308
#     4  12  22  36  52  74  96 126 164 210 258 304
#
# _framework density 15.640428999999999
#
# number of rings (size 3 to 8) (size 9 to 14) (size 15 to 20)
#    0.000    1.667    3.333    3.167    0.000    0.000 
#    0.000    1.667    0.000    0.667    0.000    4.667 
#    0.000    0.000    0.000    0.000    0.000    0.000 
#
# Total GULP energy -401366.795787 kJ/mol
# GULP energy per Si atom -5574.538830 kJ/mol
# Density = 1.560483 g / cm^3
# Si number density = 15.640429 Si / 1000 Ang^3
#
#
#
# Elastic Constant Matrix: (Units=GPa)
#
#
# Indices 1 2 3 4 5 6 
#
# 1 141.8008 96.7531 49.5095 0.0000 0.0000 0.0000
# 2 96.7531 141.8008 49.5095 0.0000 0.0000 0.0000
# 3 49.5095 49.5095 71.4272 0.0000 0.0000 0.0000
# 4 0.0000 0.0000 0.0000 17.0465 0.0000 0.0000
# 5 0.0000 0.0000 0.0000 0.0000 17.0465 0.0000
# 6 0.0000 0.0000 0.0000 0.0000 0.0000 22.5238
#
#
#
# Elastic Compliance Matrix: (Units=1/GPa)
#
#
# Indices 1 2 3 4 5 6 
#
# 1 0.014042 -0.008157 -0.004079 0.000000 0.000000 0.000000
# 2 -0.008157 0.014042 -0.004079 0.000000 0.000000 0.000000
# 3 -0.004079 -0.004079 0.019655 0.000000 0.000000 0.000000
# 4 0.000000 0.000000 0.000000 0.058663 0.000000 0.000000
# 5 0.000000 0.000000 0.000000 0.000000 0.058663 0.000000
# 6 0.000000 0.000000 0.000000 0.000000 0.000000 0.044397
#
#
# Mechanical properties :
#
#
# Convention : Reuss Voigt Hill
#
# Bulk Modulus (GPa) = 66.18767 82.95255 74.57011
# Shear Modulus (GPa) = 20.23232 21.94049 21.08641
#
# Velocity S-wave (km/s) = 3.60055 3.74947 3.67577
# Velocity P-wave (km/s) = 7.72629 8.47921 8.11149
#
# Compressibility (1/GPa) = 0.01510855
#
# Stress axis : x y z
#
# Youngs Moduli (GPa) = 71.21526 71.21526 50.87675
#
# Poissons Ratio (x) = 0.58089 0.20754
# Poissons Ratio (y) = 0.58089 0.20754
# Poissons Ratio (z) = 0.29051 0.29051
#
# Static dielectric constant tensor:
#      x y z
#    x 1.512860 0.000000 0.000000 
#    y 0.000000 1.512860 0.000000 
#    z 0.000000 0.000000 1.537320 
# 
# From -- ./inp_files/1205.got.cif
#   From: 2010.05.17/outbox.cif.g08.bks.cpg/sg186_1_cif.got.tgz:1205.got - 2010.05.20 12:07:08.
