data_PCOD9585429
_publ_section_title
;
Structure prediction by ZEFSAII (Michael W. Deem and Ramdas Pophale) SiO2 
 PCOD9585429
Probable space group: P -6 M 2
;
_chemical_formula_sum "Si O2"
_cell_formula_units_Z 96
_cell_length_a 17.484777
_cell_length_b 17.484777
_cell_length_c 26.491469
_cell_angle_alpha 90.000000
_cell_angle_beta 90.000000
_cell_angle_gamma 120.000000
_cell_volume 7013.856376
_symmetry_space_group_name_H-M "P -6 M 2"
_symmetry_group_IT_number 187
_symmetry_cell_setting 'hexagonal'
loop_
_space_group_symop_operation_xyz
x,y,z
-x+y,-x,-z
-y,x-y,z
x,y,-z
-x+y,-x,z
-y,x-y,-z
-y,-x,-z
-x+y,y,-z
x,x-y,-z
-x+y,y,z
x,x-y,z
-y,-x,z
loop_
_atom_site_type_symbol
_atom_site_label
_atom_site_fract_x
_atom_site_fract_y
_atom_site_fract_z
Si Si1 0.485420 0.331701 0.645495
Si Si2 0.101463 0.378390 0.715036
Si Si3 0.331943 0.487566 0.182782
Si Si4 0.516128 0.667178 0.611876
Si Si5 0.848616 0.515277 0.056691
Si Si6 0.367061 0.094433 0.255349
Si Si7 0.611368 0.040330 0.155099
Si Si8 0.976526 0.580805 0.444057
O O1 0.500683 0.250342 0.634583
O O2 0.576976 0.423025 0.646466
O O3 0.439682 0.314882 0.700166
O O4 0.425177 0.338315 0.601411
O O5 0.174074 0.348147 0.712366
O O6 0.131242 0.449559 0.760294
O O7 0.109148 0.430597 0.663763
O O8 0.004326 0.298924 0.727635
O O9 0.240731 0.481461 0.166634
O O10 0.412488 0.587513 0.181104
O O11 0.361830 0.426626 0.153074
O O12 0.510517 0.755259 0.604104
O O13 0.418921 0.581080 0.615094
O O14 0.570511 0.648661 0.569462
O O15 0.757381 0.514762 0.062505
O O16 0.831095 0.415548 0.059653
O O17 0.913566 0.567351 0.102344
O O18 0.883496 0.548191 0.000000
O O19 0.339971 0.169986 0.252052
O O20 0.404220 0.082721 0.201838
O O21 0.525529 0.051057 0.164598
O O22 0.952689 0.596946 0.500000
O O23 0.969730 0.484865 0.444594
#
# Coordination Sequence:
#
# PCOD9585429 Si02
#       8
#    12  12  12  12  12  12  12  12
#     4  10  19  30  44  61  82 108 139 173 208 245
#     4   9  17  28  42  61  84 109 135 168 206 246
#     4   9  16  25  39  59  84 112 143 175 208 244
#     4  10  18  28  43  62  84 108 135 166 203 247
#     4   9  16  26  40  58  81 110 143 176 207 241
#     4  10  18  28  44  64  85 110 137 166 204 251
#     4   9  17  27  40  60  86 114 141 170 207 247
#     4   9  18  31  44  57  77 106 136 168 206 243
#
# _framework density 13.687192
#
# number of rings (size 3 to 8) (size 9 to 14) (size 15 to 20)
#    0.000    2.625    1.250    1.625    0.000    2.000 
#    0.000    1.250    0.000    6.125    0.000    0.000 
#    0.000    1.000    0.000    0.000    0.000   15.250 
#
# Total GULP energy -534431.975139 kJ/mol
# GULP energy per Si atom -5566.999741 kJ/mol
# Density = 1.365604 g / cm^3
# Si number density = 13.687192 Si / 1000 Ang^3
#
#
#
# Elastic Constant Matrix: (Units=GPa)
#
#
# Indices 1 2 3 4 5 6 
#
# 1 71.6908 35.7319 38.2672 0.0000 -0.0001 0.0000
# 2 35.7319 71.6908 38.2672 0.0000 0.0001 0.0000
# 3 38.2672 38.2672 89.6039 0.0000 0.0000 0.0000
# 4 0.0000 0.0000 0.0000 15.6037 0.0000 0.0001
# 5 -0.0001 0.0001 0.0000 0.0000 15.6037 0.0000
# 6 0.0000 0.0000 0.0000 0.0001 0.0000 17.9795
#
#
#
# Elastic Compliance Matrix: (Units=1/GPa)
#
#
# Indices 1 2 3 4 5 6 
#
# 1 0.020595 -0.007215 -0.005714 0.000000 0.000000 0.000000
# 2 -0.007215 0.020595 -0.005714 0.000000 0.000000 0.000000
# 3 -0.005714 -0.005714 0.016041 0.000000 0.000000 0.000000
# 4 0.000000 0.000000 0.000000 0.064088 0.000000 0.000000
# 5 0.000000 0.000000 0.000000 0.000000 0.064088 0.000000
# 6 0.000000 0.000000 0.000000 0.000000 0.000000 0.055619
#
#
# Mechanical properties :
#
#
# Convention : Reuss Voigt Hill
#
# Bulk Modulus (GPa) = 50.13965 50.83536 50.48751
# Shear Modulus (GPa) = 17.54635 17.88530 17.71583
#
# Velocity S-wave (km/s) = 3.58432 3.61878 3.60159
# Velocity P-wave (km/s) = 7.33770 7.39474 7.36628
#
# Compressibility (1/GPa) = 0.01994429
#
# Stress axis : x y z
#
# Youngs Moduli (GPa) = 48.55577 48.55577 62.33999
#
# Poissons Ratio (x) = 0.35031 0.35623
# Poissons Ratio (y) = 0.35031 0.35623
# Poissons Ratio (z) = 0.27746 0.27746
#
# Static dielectric constant tensor:
#      x y z
#    x 1.437900 0.000000 0.000000 
#    y 0.000000 1.437900 0.000000 
#    z 0.000000 0.000000 1.452450 
# 
# From -- ./inp_files/4061.got.cif
#   From: 2010.05.17/outbox.cif.g08.bks.cpg/sg187_3_cif.got.tgz:4061.got - 2010.05.20 12:09:04.
