data_PCOD9585411
_publ_section_title
;
Structure prediction by ZEFSAII (Michael W. Deem and Ramdas Pophale) SiO2 
 PCOD9585411
Probable space group: P 63 M C
;
_chemical_formula_sum "Si O2"
_cell_formula_units_Z 84
_cell_length_a 20.809881
_cell_length_b 20.809881
_cell_length_c 11.632130
_cell_angle_alpha 90.000000
_cell_angle_beta 90.000000
_cell_angle_gamma 120.000000
_cell_volume 4362.436038
_symmetry_space_group_name_H-M "P 63 M C"
_symmetry_group_IT_number 186
_symmetry_cell_setting 'hexagonal'
loop_
_space_group_symop_operation_xyz
x,y,z
x-y,x,1/2+z
-y,x-y,z
-x,-y,1/2+z
-x+y,-x,z
y,-x+y,1/2+z
-x+y,y,z
x,x-y,z
-y,-x,z
y,x,1/2+z
x-y,-y,1/2+z
-x,-x+y,1/2+z
loop_
_atom_site_type_symbol
_atom_site_label
_atom_site_fract_x
_atom_site_fract_y
_atom_site_fract_z
Si Si1 0.475930 0.807109 0.294410
Si Si2 0.608474 0.068264 0.427692
Si Si3 0.417956 0.332093 0.969604
Si Si4 0.287048 0.865639 0.718088
Si Si5 0.241320 0.989867 0.718177
Si Si6 0.877674 0.609851 0.619657
Si Si7 0.247298 0.199820 0.961029
O O1 0.416156 0.832312 0.283935
O O2 0.438265 0.719133 0.293177
O O3 0.525309 0.839410 0.406950
O O4 0.536066 0.838712 0.194528
O O5 0.541439 0.082877 0.459624
O O6 0.655136 0.117538 0.320094
O O7 0.672491 0.084455 0.520080
O O8 0.574045 0.980002 0.411710
O O9 0.332786 0.266714 0.959173
O O10 0.436839 0.335618 0.103329
O O11 0.219198 0.780803 0.709130
O O12 0.249867 0.917560 0.734182
O O13 0.202992 0.982868 0.592136
O O14 0.322218 0.061694 0.694669
O O15 0.212630 0.001803 0.841944
O O16 0.813619 0.627238 0.579465
O O17 0.245895 0.122948 0.950646
#
# Coordination Sequence:
#
# PCOD9585411 Si02
#       7
#    12  12  12  12  12  12  12
#     4  11  22  36  54  77 107 148 198 251 308 364
#     4  12  24  38  57  85 119 154 209 264 307 375
#     4  11  21  38  56  83 112 151 201 255 314 364
#     4  11  22  40  62  85 119 158 199 253 317 382
#     4  11  19  37  60  90 122 161 210 245 308 389
#     4  11  21  37  59  85 118 153 194 248 315 375
#     4  11  21  36  59  89 126 167 203 252 309 379
#
# _framework density 19.255296999999999
#
# number of rings (size 3 to 8) (size 9 to 14) (size 15 to 20)
#    0.000    0.857    5.714    4.429    0.000    1.143 
#    0.000    2.143    0.000    3.143    0.000    0.000 
#    0.000    0.000    0.000   73.714    0.000    0.000 
#
# Total GULP energy -468258.348101 kJ/mol
# GULP energy per Si atom -5574.504144 kJ/mol
# Density = 1.921147 g / cm^3
# Si number density = 19.255297 Si / 1000 Ang^3
#
#
#
# Elastic Constant Matrix: (Units=GPa)
#
#
# Indices 1 2 3 4 5 6 
#
# 1 61.5166 10.6715 5.6085 0.0000 0.0000 0.0000
# 2 10.6715 61.5166 5.6085 0.0000 0.0000 0.0000
# 3 5.6085 5.6085 82.7326 0.0000 0.0000 0.0000
# 4 0.0000 0.0000 0.0000 11.7356 0.0000 0.0000
# 5 0.0000 0.0000 0.0000 0.0000 11.7356 0.0000
# 6 0.0000 0.0000 0.0000 0.0000 0.0000 25.4226
#
#
#
# Elastic Compliance Matrix: (Units=1/GPa)
#
#
# Indices 1 2 3 4 5 6 
#
# 1 0.016834 -0.002834 -0.000949 0.000000 0.000000 0.000000
# 2 -0.002834 0.016834 -0.000949 0.000000 0.000000 0.000000
# 3 -0.000949 -0.000949 0.012216 0.000000 0.000000 0.000000
# 4 0.000000 0.000000 0.000000 0.085211 0.000000 0.000000
# 5 0.000000 0.000000 0.000000 0.000000 0.085211 0.000000
# 6 0.000000 0.000000 0.000000 0.000000 0.000000 0.039335
#
#
# Mechanical properties :
#
#
# Convention : Reuss Voigt Hill
#
# Bulk Modulus (GPa) = 27.45756 27.72697 27.59227
# Shear Modulus (GPa) = 18.03465 22.03724 20.03594
#
# Velocity S-wave (km/s) = 3.06372 3.38668 3.22924
# Velocity P-wave (km/s) = 5.17744 5.45195 5.31647
#
# Compressibility (1/GPa) = 0.03641984
#
# Stress axis : x y z
#
# Youngs Moduli (GPa) = 59.40405 59.40405 81.86115
#
# Poissons Ratio (x) = 0.16833 0.07769
# Poissons Ratio (y) = 0.16833 0.07769
# Poissons Ratio (z) = 0.05638 0.05638
#
# Static dielectric constant tensor:
#      x y z
#    x 1.666760 0.000000 0.000000 
#    y 0.000000 1.666760 0.000000 
#    z 0.000000 0.000000 1.783400 
# 
# From -- ./inp_files/1880.got.cif
#   From: 2010.05.17/outbox.cif.g08.bks.cpg/sg186_1_cif.got.tgz:1880.got - 2010.05.20 12:07:08.
