data_PCOD9585841
_publ_section_title
;
Structure prediction by ZEFSAII (Michael W. Deem and Ramdas Pophale) SiO2 
 PCOD9585841
Probable space group: P -6 C 2
;
_chemical_formula_sum "Si O2"
_cell_formula_units_Z 72
_cell_length_a 24.728626
_cell_length_b 24.728626
_cell_length_c 8.572341
_cell_angle_alpha 90.000000
_cell_angle_beta 90.000000
_cell_angle_gamma 120.000000
_cell_volume 4539.730196
_symmetry_space_group_name_H-M "P -6 C 2"
_symmetry_group_IT_number 188
_symmetry_cell_setting 'hexagonal'
loop_
_space_group_symop_operation_xyz
x,y,z
-x+y,-x,1/2-z
-y,x-y,z
x,y,1/2-z
-x+y,-x,z
-y,x-y,1/2-z
-y,-x,-z
-x+y,y,-z
x,x-y,-z
-x+y,y,1/2+z
x,x-y,1/2+z
-y,-x,1/2+z
loop_
_atom_site_type_symbol
_atom_site_label
_atom_site_fract_x
_atom_site_fract_y
_atom_site_fract_z
Si Si1 0.783989 0.449927 0.436714
Si Si2 0.409047 0.933990 0.436129
Si Si3 0.296070 0.479054 0.064314
Si Si4 0.662755 0.886153 0.563728
Si Si5 0.998888 0.664988 0.062100
Si Si6 0.406444 0.261820 0.437779
O O1 0.782221 0.447715 0.250000
O O2 0.715532 0.431063 0.500000
O O3 0.804004 0.402002 0.500000
O O4 0.828866 0.521556 0.487574
O O5 0.408763 0.937103 0.250000
O O6 0.477606 0.955212 0.500000
O O7 0.363352 0.862147 0.489956
O O8 0.379720 0.974483 0.505010
O O9 0.300730 0.484683 0.250000
O O10 0.253070 0.506140 0.000000
O O11 0.258541 0.405877 0.015805
O O12 0.655882 0.880286 0.750000
O O13 0.694008 0.847004 0.500000
O O14 0.690415 0.957200 0.511311
O O15 0.003797 0.669025 0.250000
O O16 0.927006 0.635708 0.014421
O O17 0.406144 0.259649 0.250000
O O18 0.386768 0.193384 0.500000
#
# Coordination Sequence:
#
# PCOD9585841 Si02
#       6
#    12  12  12  12  12  12
#     4  10  19  32  47  65  84 109 144 191 245 297
#     4  11  21  33  47  67  92 121 154 194 240 288
#     4  10  17  28  45  65  87 114 145 180 218 265
#     4  10  17  27  44  68  93 119 146 177 214 257
#     4  10  19  33  49  69  94 122 154 192 232 278
#     4   9  20  35  51  68  91 121 157 194 235 285
#
# _framework density 15.859972000000001
#
# number of rings (size 3 to 8) (size 9 to 14) (size 15 to 20)
#    0.000    2.000    0.000    8.667    0.000    2.667 
#    0.000    1.667    0.000    0.333    0.000    2.333 
#    0.000    0.000    0.000    0.500    0.000    8.000 
#
# Total GULP energy -401508.746214 kJ/mol
# GULP energy per Si atom -5576.510364 kJ/mol
# Density = 1.582387 g / cm^3
# Si number density = 15.859972 Si / 1000 Ang^3
#
#
#
# Elastic Constant Matrix: (Units=GPa)
#
#
# Indices 1 2 3 4 5 6 
#
# 1 84.1550 58.3250 22.0643 -0.0002 0.0000 0.0000
# 2 58.3250 84.1550 22.0643 0.0002 0.0000 0.0000
# 3 22.0643 22.0643 76.4228 0.0000 0.0000 0.0000
# 4 -0.0002 0.0002 0.0000 20.4131 0.0000 0.0000
# 5 0.0000 0.0000 0.0000 0.0000 20.4131 -0.0002
# 6 0.0000 0.0000 0.0000 0.0000 -0.0002 12.9150
#
#
#
# Elastic Compliance Matrix: (Units=1/GPa)
#
#
# Indices 1 2 3 4 5 6 
#
# 1 0.023211 -0.015503 -0.002225 0.000000 0.000000 0.000000
# 2 -0.015503 0.023211 -0.002225 0.000000 0.000000 0.000000
# 3 -0.002225 -0.002225 0.014370 0.000000 0.000000 0.000000
# 4 0.000000 0.000000 0.000000 0.048988 0.000000 0.000000
# 5 0.000000 0.000000 0.000000 0.000000 0.048988 0.000001
# 6 0.000000 0.000000 0.000000 0.000000 0.000001 0.077429
#
#
# Mechanical properties :
#
#
# Convention : Reuss Voigt Hill
#
# Bulk Modulus (GPa) = 47.88298 49.95999 48.92149
# Shear Modulus (GPa) = 17.66360 20.23351 18.94855
#
# Velocity S-wave (km/s) = 3.34087 3.57565 3.46025
# Velocity P-wave (km/s) = 6.71852 6.97253 6.84670
#
# Compressibility (1/GPa) = 0.02088425
#
# Stress axis : x y z
#
# Youngs Moduli (GPa) = 43.08255 43.08255 69.58911
#
# Poissons Ratio (x) = 0.66793 0.15486
# Poissons Ratio (y) = 0.66793 0.15486
# Poissons Ratio (z) = 0.09587 0.09587
#
# Static dielectric constant tensor:
#      x y z
#    x 1.547930 0.000000 0.000000 
#    y 0.000000 1.547930 0.000000 
#    z 0.000000 0.000000 1.529610 
# 
# From -- ./inp_files/1053.got.cif
#   From: 2010.05.17/outbox.cif.g08.bks.cpg/sg188_1_cif.got.tgz:1053.got - 2010.05.20 12:11:46.
