data_PCOD9585050
_publ_section_title
;
Structure prediction by ZEFSAII (Michael W. Deem and Ramdas Pophale) SiO2 
 PCOD9585050
Probable space group: P 6 M M
;
_chemical_formula_sum "Si O2"
_cell_formula_units_Z 72
_cell_length_a 21.812681
_cell_length_b 21.812681
_cell_length_c 10.079447
_cell_angle_alpha 90.000000
_cell_angle_beta 90.000000
_cell_angle_gamma 120.000000
_cell_volume 4153.224750
_symmetry_space_group_name_H-M "P 6 M M"
_symmetry_group_IT_number 183
_symmetry_cell_setting 'hexagonal'
loop_
_space_group_symop_operation_xyz
x,y,z
x-y,x,z
-y,x-y,z
-x,-y,z
-x+y,-x,z
y,-x+y,z
-x+y,y,z
x,x-y,z
-y,-x,z
y,x,z
x-y,-y,z
-x,-x+y,z
loop_
_atom_site_type_symbol
_atom_site_label
_atom_site_fract_x
_atom_site_fract_y
_atom_site_fract_z
Si Si1 0.593597 0.917615 0.347100
Si Si2 0.914423 0.585711 0.039308
Si Si3 0.333918 0.812383 0.833780
Si Si4 0.837808 0.675615 0.038164
Si Si5 0.921012 0.388133 0.615313
Si Si6 0.837801 0.675601 0.359356
Si Si7 0.918458 0.081543 0.360531
Si Si8 0.081544 0.918457 0.036396
O O1 0.567411 0.898925 0.196025
O O2 0.538489 0.908966 0.459635
O O3 0.632047 0.875858 0.395558
O O4 0.652089 0.000000 0.340560
O O5 0.881135 0.635787 0.003256
O O6 0.000000 0.626212 0.019611
O O7 0.869200 0.516225 0.951842
O O8 0.397447 0.794894 0.820332
O O9 0.259116 0.740885 0.854122
O O10 0.333028 0.856519 0.705027
O O11 0.839448 0.678895 0.198681
O O12 0.878044 0.756088 0.989575
O O13 0.923915 0.461958 0.640455
O O14 0.000000 0.402256 0.648245
O O15 0.878007 0.756014 0.407339
O O16 0.917971 0.082030 0.198509
O O17 0.000000 0.122076 0.401968
O O18 0.000000 0.877988 0.995052
#
# Coordination Sequence:
#
# PCOD9585050 Si02
#       8
#    12  12  12   6  12   6   6   6
#     4   9  18  31  51  79 106 135 171 213 264 315
#     4  10  19  33  55  81 109 141 179 220 265 318
#     4  11  23  39  57  78 106 140 179 218 264 316
#     4   9  16  29  43  70 103 139 174 216 263 307
#     4   9  19  36  56  78 104 133 169 216 264 313
#     4   9  16  25  43  66 101 135 168 210 256 308
#     4   9  15  22  33  53  87 133 180 218 252 296
#     4   9  15  22  35  57  91 135 180 220 260 307
#
# _framework density 17.335926000000001
#
# number of rings (size 3 to 8) (size 9 to 14) (size 15 to 20)
#    0.000    2.500    0.833    1.833    1.167    6.333 
#    0.000    1.667    0.000    0.000    0.000    2.333 
#    0.000    0.000    0.000    0.000    0.000   15.833 
#
# Total GULP energy -400913.002832 kJ/mol
# GULP energy per Si atom -5568.236150 kJ/mol
# Density = 1.729647 g / cm^3
# Si number density = 17.335926 Si / 1000 Ang^3
#
#
#
# Elastic Constant Matrix: (Units=GPa)
#
#
# Indices 1 2 3 4 5 6 
#
# 1 59.2352 21.9513 18.8838 0.0000 0.0000 0.0000
# 2 21.9513 59.2352 18.8838 0.0000 0.0000 0.0000
# 3 18.8838 18.8838 50.6610 0.0000 0.0000 0.0000
# 4 0.0000 0.0000 0.0000 16.4546 0.0000 0.0000
# 5 0.0000 0.0000 0.0000 0.0000 16.4546 0.0000
# 6 0.0000 0.0000 0.0000 0.0000 0.0000 18.6420
#
#
#
# Elastic Compliance Matrix: (Units=1/GPa)
#
#
# Indices 1 2 3 4 5 6 
#
# 1 0.020861 -0.005960 -0.005554 0.000000 0.000000 0.000000
# 2 -0.005960 0.020861 -0.005554 0.000000 0.000000 0.000000
# 3 -0.005554 -0.005554 0.023880 0.000000 0.000000 0.000000
# 4 0.000000 0.000000 0.000000 0.060773 0.000000 0.000000
# 5 0.000000 0.000000 0.000000 0.000000 0.060773 0.000000
# 6 0.000000 0.000000 0.000000 0.000000 0.000000 0.053642
#
#
# Mechanical properties :
#
#
# Convention : Reuss Voigt Hill
#
# Bulk Modulus (GPa) = 31.78168 32.06322 31.92245
# Shear Modulus (GPa) = 17.51824 17.60442 17.56133
#
# Velocity S-wave (km/s) = 3.18231 3.19013 3.18622
# Velocity P-wave (km/s) = 5.64583 5.66609 5.65597
#
# Compressibility (1/GPa) = 0.03146467
#
# Stress axis : x y z
#
# Youngs Moduli (GPa) = 47.93592 47.93592 41.87635
#
# Poissons Ratio (x) = 0.28570 0.23260
# Poissons Ratio (y) = 0.28570 0.23260
# Poissons Ratio (z) = 0.26625 0.26625
#
# Static dielectric constant tensor:
#      x y z
#    x 1.593450 0.000000 0.000000 
#    y 0.000000 1.593450 0.000000 
#    z 0.000000 0.000000 1.591820 
# 
# From -- ./inp_files/1732.got.cif
#   From: 2010.05.17/outbox.cif.g08.bks.cpg/sg183_1_cif.got.tgz:1732.got - 2010.05.20 12:02:58.
