data_PCOD9585656
_publ_section_title
;
Structure prediction by ZEFSAII (Michael W. Deem and Ramdas Pophale) SiO2 
 PCOD9585656
Probable space group: P -6 M 2
;
_chemical_formula_sum "Si O2"
_cell_formula_units_Z 66
_cell_length_a 12.789685
_cell_length_b 12.789685
_cell_length_c 29.154994
_cell_angle_alpha 90.000000
_cell_angle_beta 90.000000
_cell_angle_gamma 120.000000
_cell_volume 4130.125843
_symmetry_space_group_name_H-M "P -6 M 2"
_symmetry_group_IT_number 187
_symmetry_cell_setting 'hexagonal'
loop_
_space_group_symop_operation_xyz
x,y,z
-x+y,-x,-z
-y,x-y,z
x,y,-z
-x+y,-x,z
-y,x-y,-z
-y,-x,-z
-x+y,y,-z
x,x-y,-z
-x+y,y,z
x,x-y,z
-y,-x,z
loop_
_atom_site_type_symbol
_atom_site_label
_atom_site_fract_x
_atom_site_fract_y
_atom_site_fract_z
Si Si1 0.580638 0.914099 0.947511
Si Si2 0.751544 0.751267 0.775126
Si Si3 0.417436 0.332943 0.687410
Si Si4 0.915031 0.582062 0.862375
Si Si5 0.085251 0.667240 0.500000
Si Si6 0.083249 0.415970 0.600614
O O1 0.442263 0.884525 0.943876
O O2 0.587300 0.793650 0.939578
O O3 0.654226 0.014351 0.909572
O O4 0.619850 0.955029 0.000000
O O5 0.745298 0.872649 0.774555
O O6 0.689176 0.669513 0.730509
O O7 0.689488 0.671958 0.820288
O O8 0.889977 0.779953 0.775212
O O9 0.436580 0.218290 0.684465
O O10 0.544704 0.455297 0.693581
O O11 0.356830 0.346898 0.641159
O O12 0.780715 0.561429 0.864119
O O13 0.911889 0.455945 0.855494
O O14 0.222066 0.777935 0.500000
O O15 0.085283 0.542642 0.500000
O O16 0.034178 0.673222 0.450248
O O17 0.209154 0.418307 0.607743
O O18 0.105528 0.552764 0.600723
#
# Coordination Sequence:
#
# PCOD9585656 Si02
#       6
#    12  12  12  12   6  12
#     4   9  17  30  49  72  97 126 161 202 247 291
#     4  10  20  34  52  72  93 118 151 193 239 284
#     4  10  20  33  49  68  93 126 161 194 227 270
#     4  10  20  33  50  72  99 131 164 196 230 273
#     4   8  13  22  39  64  92 120 150 186 232 284
#     4   9  16  27  45  69  95 121 151 191 239 286
#
# _framework density 15.980143
#
# number of rings (size 3 to 8) (size 9 to 14) (size 15 to 20)
#    0.000    2.545    0.000    2.636    0.000    2.545 
#    0.000    2.273    0.000    6.909    0.000    1.273 
#    0.000    0.000    0.000    0.000    0.000    0.000 
#
# Total GULP energy -367767.236065 kJ/mol
# GULP energy per Si atom -5572.230849 kJ/mol
# Density = 1.594377 g / cm^3
# Si number density = 15.980143 Si / 1000 Ang^3
#
#
#
# Elastic Constant Matrix: (Units=GPa)
#
#
# Indices 1 2 3 4 5 6 
#
# 1 90.8737 59.8882 79.9575 0.0000 -0.0002 0.0000
# 2 59.8882 90.8737 79.9575 0.0000 0.0002 0.0000
# 3 79.9575 79.9575 154.5746 0.0000 0.0000 0.0000
# 4 0.0000 0.0000 0.0000 22.6986 0.0000 0.0002
# 5 -0.0002 0.0002 0.0000 0.0000 22.6986 0.0000
# 6 0.0000 0.0000 0.0000 0.0002 0.0000 15.4927
#
#
#
# Elastic Compliance Matrix: (Units=1/GPa)
#
#
# Indices 1 2 3 4 5 6 
#
# 1 0.023485 -0.008788 -0.007602 0.000000 0.000000 0.000000
# 2 -0.008788 0.023485 -0.007602 0.000000 0.000000 0.000000
# 3 -0.007602 -0.007602 0.014334 0.000000 0.000000 0.000000
# 4 0.000000 0.000000 0.000000 0.044056 0.000000 -0.000001
# 5 0.000000 0.000000 0.000000 0.000000 0.044056 0.000000
# 6 0.000000 0.000000 0.000000 -0.000001 0.000000 0.064546
#
#
# Mechanical properties :
#
#
# Convention : Reuss Voigt Hill
#
# Bulk Modulus (GPa) = 75.08194 86.21427 80.64811
# Shear Modulus (GPa) = 18.76970 19.94592 19.35781
#
# Velocity S-wave (km/s) = 3.43091 3.53678 3.48424
# Velocity P-wave (km/s) = 7.92347 8.41109 8.17092
#
# Compressibility (1/GPa) = 0.01331878
#
# Stress axis : x y z
#
# Youngs Moduli (GPa) = 42.58039 42.58039 69.76280
#
# Poissons Ratio (x) = 0.37420 0.53036
# Poissons Ratio (y) = 0.37420 0.53036
# Poissons Ratio (z) = 0.32371 0.32371
#
# Static dielectric constant tensor:
#      x y z
#    x 1.501430 0.000000 0.000000 
#    y 0.000000 1.501430 0.000000 
#    z 0.000000 0.000000 1.553660 
# 
# From -- ./inp_files/4436.got.cif
#   From: 2010.05.17/outbox.cif.g08.bks.cpg/sg187_3_cif.got.tgz:4436.got - 2010.05.20 12:09:04.
