data_PCOD9585610
_publ_section_title
;
Structure prediction by ZEFSAII (Michael W. Deem and Ramdas Pophale) SiO2 
 PCOD9585610
Probable space group: P -6 M 2
;
_chemical_formula_sum "Si O2"
_cell_formula_units_Z 66
_cell_length_a 13.054287
_cell_length_b 13.054287
_cell_length_c 28.118412
_cell_angle_alpha 90.000000
_cell_angle_beta 90.000000
_cell_angle_gamma 120.000000
_cell_volume 4149.805431
_symmetry_space_group_name_H-M "P -6 M 2"
_symmetry_group_IT_number 187
_symmetry_cell_setting 'hexagonal'
loop_
_space_group_symop_operation_xyz
x,y,z
-x+y,-x,-z
-y,x-y,z
x,y,-z
-x+y,-x,z
-y,x-y,-z
-y,-x,-z
-x+y,y,-z
x,x-y,-z
-x+y,y,z
x,x-y,z
-y,-x,z
loop_
_atom_site_type_symbol
_atom_site_label
_atom_site_fract_x
_atom_site_fract_y
_atom_site_fract_z
Si Si1 0.242667 0.243228 0.500000
Si Si2 0.666187 0.092680 0.417805
Si Si3 0.666799 0.576382 0.862652
Si Si4 0.759677 0.999445 0.943963
Si Si5 0.425680 0.092077 0.693407
Si Si6 0.756908 0.756740 0.775803
O O1 0.122483 0.244966 0.500000
O O2 0.321184 0.306147 0.546422
O O3 0.218997 0.109499 0.500000
O O4 0.542277 0.084553 0.428660
O O5 0.772526 0.227475 0.424109
O O6 0.666465 0.062513 0.362238
O O7 0.773427 0.546854 0.862208
O O8 0.541599 0.458402 0.858363
O O9 0.680256 0.648794 0.910877
O O10 0.693452 0.667170 0.819440
O O11 0.894776 0.105224 0.936483
O O12 0.749073 0.874537 0.931601
O O13 0.733500 0.998475 0.000000
O O14 0.541526 0.083052 0.704605
O O15 0.454848 0.227424 0.700076
O O16 0.316902 0.013988 0.727901
O O17 0.893019 0.786037 0.775986
O O18 0.749959 0.874980 0.779649
#
# Coordination Sequence:
#
# PCOD9585610 Si02
#       6
#     6  12  12  12  12  12
#     4  10  20  32  46  66  94 128 162 194 232 280
#     4   9  17  30  50  75  98 120 150 192 240 283
#     4  10  20  33  50  72  97 125 157 195 240 287
#     4   9  17  30  50  75 100 126 157 194 235 278
#     4   9  17  30  50  75 100 124 151 187 233 283
#     4  10  20  33  50  72  97 125 157 194 235 278
#
# _framework density 15.90436
#
# number of rings (size 3 to 8) (size 9 to 14) (size 15 to 20)
#    0.000    2.545    0.000    2.364    0.000    3.273 
#    0.000    4.545    0.000   11.273    0.000    0.000 
#    0.000    0.000    0.000    0.000    0.000    0.000 
#
# Total GULP energy -368073.422195 kJ/mol
# GULP energy per Si atom -5576.870033 kJ/mol
# Density = 1.586816 g / cm^3
# Si number density = 15.904360 Si / 1000 Ang^3
#
#
#
# Elastic Constant Matrix: (Units=GPa)
#
#
# Indices 1 2 3 4 5 6 
#
# 1 122.1754 82.5352 72.0828 0.0000 -0.0001 0.0000
# 2 82.5352 122.1754 72.0828 0.0000 0.0001 0.0000
# 3 72.0828 72.0828 79.0656 0.0000 0.0000 0.0000
# 4 0.0000 0.0000 0.0000 21.0382 0.0000 0.0001
# 5 -0.0001 0.0001 0.0000 0.0000 21.0382 0.0000
# 6 0.0000 0.0000 0.0000 0.0001 0.0000 19.8201
#
#
#
# Elastic Compliance Matrix: (Units=1/GPa)
#
#
# Indices 1 2 3 4 5 6 
#
# 1 0.019437 -0.005790 -0.012442 0.000000 0.000000 0.000000
# 2 -0.005790 0.019437 -0.012442 0.000000 0.000000 0.000000
# 3 -0.012442 -0.012442 0.035333 0.000000 0.000000 0.000000
# 4 0.000000 0.000000 0.000000 0.047532 0.000000 0.000000
# 5 0.000000 0.000000 0.000000 0.000000 0.047532 0.000000
# 6 0.000000 0.000000 0.000000 0.000000 0.000000 0.050454
#
#
# Mechanical properties :
#
#
# Convention : Reuss Voigt Hill
#
# Bulk Modulus (GPa) = 77.75679 86.31312 82.03496
# Shear Modulus (GPa) = 17.52175 18.82700 18.17437
#
# Velocity S-wave (km/s) = 3.32278 3.44432 3.38409
# Velocity P-wave (km/s) = 7.98233 8.37888 8.18301
#
# Compressibility (1/GPa) = 0.01286061
#
# Stress axis : x y z
#
# Youngs Moduli (GPa) = 51.44850 51.44850 28.30184
#
# Poissons Ratio (x) = 0.29789 0.35212
# Poissons Ratio (y) = 0.29789 0.35212
# Poissons Ratio (z) = 0.64010 0.64010
#
# Static dielectric constant tensor:
#      x y z
#    x 1.499680 0.000000 0.000000 
#    y 0.000000 1.499680 0.000000 
#    z 0.000000 0.000000 1.552860 
# 
# From -- ./inp_files/4464.got.cif
#   From: 2010.05.17/outbox.cif.g08.bks.cpg/sg187_3_cif.got.tgz:4464.got - 2010.05.20 12:09:04.
