data_PCOD9585076
_publ_section_title
;
Structure prediction by ZEFSAII (Michael W. Deem and Ramdas Pophale) SiO2 
 PCOD9585076
Probable space group: P 6 M M
;
_chemical_formula_sum "Si O2"
_cell_formula_units_Z 72
_cell_length_a 21.925718
_cell_length_b 21.925718
_cell_length_c 9.637282
_cell_angle_alpha 90.000000
_cell_angle_beta 90.000000
_cell_angle_gamma 120.000000
_cell_volume 4012.294912
_symmetry_space_group_name_H-M "P 6 M M"
_symmetry_group_IT_number 183
_symmetry_cell_setting 'hexagonal'
loop_
_space_group_symop_operation_xyz
x,y,z
x-y,x,z
-y,x-y,z
-x,-y,z
-x+y,-x,z
y,-x+y,z
-x+y,y,z
x,x-y,z
-y,-x,z
y,x,z
x-y,-y,z
-x,-x+y,z
loop_
_atom_site_type_symbol
_atom_site_label
_atom_site_fract_x
_atom_site_fract_y
_atom_site_fract_z
Si Si1 0.917983 0.337952 0.383270
Si Si2 0.665180 0.477228 0.173443
Si Si3 0.218296 0.921594 0.197811
Si Si4 0.429433 0.144272 0.686727
Si Si5 0.387082 0.468318 0.928662
Si Si6 0.079549 0.788619 0.874250
O O1 0.861685 0.353464 0.308614
O O2 0.915402 0.274769 0.292499
O O3 0.890485 0.310189 0.536976
O O4 0.000000 0.400031 0.382943
O O5 0.742159 0.484318 0.180841
O O6 0.603827 0.396174 0.153299
O O7 0.659469 0.523750 0.048805
O O8 0.141001 0.859000 0.231868
O O9 0.231661 0.000000 0.217319
O O10 0.230863 0.915296 0.034077
O O11 0.455248 0.227624 0.677647
O O12 0.472398 0.119508 0.784156
O O13 0.355947 0.109686 0.770211
O O14 0.462712 0.537289 0.944788
O O15 0.402717 0.402717 0.935777
O O16 0.128285 0.871716 0.864762
O O17 0.000000 0.761673 0.840739
#
# Coordination Sequence:
#
# PCOD9585076 Si02
#       6
#    12  12  12  12  12  12
#     4  11  22  35  54  79 108 138 172 219 270 321
#     4  11  23  40  60  81 107 140 180 222 269 328
#     4   9  17  30  48  71  99 133 172 213 260 313
#     4  11  21  34  53  78 109 140 171 210 260 314
#     4  10  21  37  57  80 107 140 180 225 268 314
#     4   9  17  29  47  69  95 128 165 205 248 300
#
# _framework density 17.944841
#
# number of rings (size 3 to 8) (size 9 to 14) (size 15 to 20)
#    0.000    1.833    0.000    5.167    0.000    4.333 
#    0.000    0.000    0.000    0.667    0.000    2.333 
#    0.000    0.000    0.000    5.333    0.000    7.333 
#
# Total GULP energy -401548.576102 kJ/mol
# GULP energy per Si atom -5577.063557 kJ/mol
# Density = 1.790400 g / cm^3
# Si number density = 17.944841 Si / 1000 Ang^3
#
#
#
# Elastic Constant Matrix: (Units=GPa)
#
#
# Indices 1 2 3 4 5 6 
#
# 1 73.0178 44.7689 11.0177 0.0000 0.0000 0.0000
# 2 44.7689 73.0178 11.0177 0.0000 0.0000 0.0000
# 3 11.0177 11.0177 87.8068 0.0000 0.0000 0.0000
# 4 0.0000 0.0000 0.0000 17.5924 0.0000 0.0000
# 5 0.0000 0.0000 0.0000 0.0000 17.5924 0.0000
# 6 0.0000 0.0000 0.0000 0.0000 0.0000 14.1245
#
#
#
# Elastic Compliance Matrix: (Units=1/GPa)
#
#
# Indices 1 2 3 4 5 6 
#
# 1 0.022047 -0.013353 -0.001091 0.000000 0.000000 0.000000
# 2 -0.013353 0.022047 -0.001091 0.000000 0.000000 0.000000
# 3 -0.001091 -0.001091 0.011662 0.000000 0.000000 0.000000
# 4 0.000000 0.000000 0.000000 0.056843 0.000000 0.000000
# 5 0.000000 0.000000 0.000000 0.000000 0.056843 0.000000
# 6 0.000000 0.000000 0.000000 0.000000 0.000000 0.070799
#
#
# Mechanical properties :
#
#
# Convention : Reuss Voigt Hill
#
# Bulk Modulus (GPa) = 40.50742 40.82789 40.66766
# Shear Modulus (GPa) = 17.88660 20.99772 19.44216
#
# Velocity S-wave (km/s) = 3.16057 3.42442 3.29514
# Velocity P-wave (km/s) = 5.99510 6.19974 6.09828
#
# Compressibility (1/GPa) = 0.02468684
#
# Stress axis : x y z
#
# Youngs Moduli (GPa) = 45.35806 45.35806 85.74560
#
# Poissons Ratio (x) = 0.60566 0.09354
# Poissons Ratio (y) = 0.60566 0.09354
# Poissons Ratio (z) = 0.04948 0.04948
#
# Static dielectric constant tensor:
#      x y z
#    x 1.629900 0.000000 0.000000 
#    y 0.000000 1.629900 0.000000 
#    z 0.000000 0.000000 1.623710 
# 
# From -- ./inp_files/1196.got.cif
#   From: 2010.05.17/outbox.cif.g08.bks.cpg/sg183_1_cif.got.tgz:1196.got - 2010.05.20 12:02:58.
