data_PCOD9585460
_publ_section_title
;
Structure prediction by ZEFSAII (Michael W. Deem and Ramdas Pophale) SiO2 
 PCOD9585460
Probable space group: P -6 M 2
;
_chemical_formula_sum "Si O2"
_cell_formula_units_Z 84
_cell_length_a 17.443669
_cell_length_b 17.443669
_cell_length_c 18.112298
_cell_angle_alpha 90.000000
_cell_angle_beta 90.000000
_cell_angle_gamma 120.000000
_cell_volume 4772.872808
_symmetry_space_group_name_H-M "P -6 M 2"
_symmetry_group_IT_number 187
_symmetry_cell_setting 'hexagonal'
loop_
_space_group_symop_operation_xyz
x,y,z
-x+y,-x,-z
-y,x-y,z
x,y,-z
-x+y,-x,z
-y,x-y,-z
-y,-x,-z
-x+y,y,-z
x,x-y,-z
-x+y,y,z
x,x-y,z
-y,-x,z
loop_
_atom_site_type_symbol
_atom_site_label
_atom_site_fract_x
_atom_site_fract_y
_atom_site_fract_z
Si Si1 0.842864 0.333508 0.228942
Si Si2 0.514849 0.847190 0.734516
Si Si3 0.734319 0.094201 0.366473
Si Si4 0.561189 0.622029 0.579918
Si Si5 0.681069 0.753082 0.840567
Si Si6 0.380398 0.100813 0.916575
Si Si7 0.175857 0.176755 0.709398
O O1 0.860611 0.430306 0.246960
O O2 0.738709 0.261291 0.230997
O O3 0.887805 0.300086 0.288717
O O4 0.877051 0.328940 0.147666
O O5 0.428289 0.856577 0.744756
O O6 0.490920 0.745460 0.738793
O O7 0.554965 0.884255 0.653141
O O8 0.590965 0.900402 0.795011
O O9 0.810341 0.189660 0.395013
O O10 0.648593 0.034543 0.414180
O O11 0.780847 0.036641 0.348775
O O12 0.560672 0.662235 0.500000
O O13 0.474570 0.525431 0.582652
O O14 0.675068 0.837534 0.868355
O O15 0.701163 0.698645 0.900470
O O16 0.760540 0.789656 0.781061
O O17 0.351808 0.175904 0.907869
O O18 0.413966 0.108576 0.000000
O O19 0.087140 0.174279 0.683271
O O20 0.158603 0.079302 0.727037
#
# Coordination Sequence:
#
# PCOD9585460 Si02
#       7
#    12  12  12  12  12  12  12
#     4  10  19  32  50  72  97 129 168 211 255 303
#     4  10  20  35  54  77 103 134 170 211 257 307
#     4  10  19  32  52  73  99 132 169 212 255 299
#     4  10  20  33  50  74 104 136 169 207 253 305
#     4  10  19  32  53  76 101 131 168 211 252 295
#     4  10  20  34  51  72 102 137 167 202 253 307
#     4  10  18  30  49  74 101 128 161 202 248 294
#
# _framework density 17.599463
#
# number of rings (size 3 to 8) (size 9 to 14) (size 15 to 20)
#    0.000    2.000    2.857    1.286    0.000    2.857 
#    0.000    0.000    0.000    2.286    0.000    0.000 
#    0.000    2.286    0.000    0.000    0.000    0.000 
#
# Total GULP energy -468418.002922 kJ/mol
# GULP energy per Si atom -5576.404797 kJ/mol
# Density = 1.755941 g / cm^3
# Si number density = 17.599463 Si / 1000 Ang^3
#
#
#
# Elastic Constant Matrix: (Units=GPa)
#
#
# Indices 1 2 3 4 5 6 
#
# 1 76.0342 26.0340 15.0465 0.0000 0.0001 0.0000
# 2 26.0340 76.0342 15.0465 0.0000 -0.0001 0.0000
# 3 15.0465 15.0465 46.6975 0.0000 0.0000 0.0000
# 4 0.0000 0.0000 0.0000 13.7827 0.0000 -0.0001
# 5 0.0001 -0.0001 0.0000 0.0000 13.7827 0.0000
# 6 0.0000 0.0000 0.0000 -0.0001 0.0000 25.0001
#
#
#
# Elastic Compliance Matrix: (Units=1/GPa)
#
#
# Indices 1 2 3 4 5 6 
#
# 1 0.015413 -0.004587 -0.003488 0.000000 0.000000 0.000000
# 2 -0.004587 0.015413 -0.003488 0.000000 0.000000 0.000000
# 3 -0.003488 -0.003488 0.023662 0.000000 0.000000 0.000000
# 4 0.000000 0.000000 0.000000 0.072555 0.000000 0.000000
# 5 0.000000 0.000000 0.000000 0.000000 0.072555 0.000000
# 6 0.000000 0.000000 0.000000 0.000000 0.000000 0.040000
#
#
# Mechanical properties :
#
#
# Convention : Reuss Voigt Hill
#
# Bulk Modulus (GPa) = 31.88664 34.55777 33.22221
# Shear Modulus (GPa) = 18.30306 20.02234 19.16270
#
# Velocity S-wave (km/s) = 3.22837 3.37659 3.30331
# Velocity P-wave (km/s) = 5.66161 5.90594 5.78506
#
# Compressibility (1/GPa) = 0.03136110
#
# Stress axis : x y z
#
# Youngs Moduli (GPa) = 64.88082 64.88082 42.26124
#
# Poissons Ratio (x) = 0.29761 0.14742
# Poissons Ratio (y) = 0.29761 0.14742
# Poissons Ratio (z) = 0.22632 0.22632
#
# Static dielectric constant tensor:
#      x y z
#    x 1.601420 0.000000 0.000000 
#    y 0.000000 1.601420 0.000000 
#    z 0.000000 0.000000 1.590770 
# 
# From -- ./inp_files/2583.got.cif
#   From: 2010.05.17/outbox.cif.g08.bks.cpg/sg187_2_cif.got.tgz:2583.got - 2010.05.20 12:09:04.
