data_PCOD9585563
_publ_section_title
;
Structure prediction by ZEFSAII (Michael W. Deem and Ramdas Pophale) SiO2 
 PCOD9585563
Probable space group: P -6 M 2
;
_chemical_formula_sum "Si O2"
_cell_formula_units_Z 84
_cell_length_a 17.960678
_cell_length_b 17.960678
_cell_length_c 14.736016
_cell_angle_alpha 90.000000
_cell_angle_beta 90.000000
_cell_angle_gamma 120.000000
_cell_volume 4116.765884
_symmetry_space_group_name_H-M "P -6 M 2"
_symmetry_group_IT_number 187
_symmetry_cell_setting 'hexagonal'
loop_
_space_group_symop_operation_xyz
x,y,z
-x+y,-x,-z
-y,x-y,z
x,y,-z
-x+y,-x,z
-y,x-y,-z
-y,-x,-z
-x+y,y,-z
x,x-y,-z
-x+y,y,z
x,x-y,z
-y,-x,z
loop_
_atom_site_type_symbol
_atom_site_label
_atom_site_fract_x
_atom_site_fract_y
_atom_site_fract_z
Si Si1 0.865193 0.307757 0.599534
Si Si2 0.750660 0.681870 0.103889
Si Si3 0.840036 0.503252 0.802240
Si Si4 0.157488 0.491999 0.902977
Si Si5 0.682888 0.952799 0.397296
Si Si6 0.172820 0.175491 0.753223
Si Si7 0.333026 0.492654 0.703975
O O1 0.855639 0.340259 0.500000
O O2 0.792149 0.207852 0.602777
O O3 0.852837 0.344892 0.693209
O O4 0.957394 0.316229 0.602971
O O5 0.840343 0.680685 0.103061
O O6 0.684436 0.593225 0.153047
O O7 0.771115 0.764190 0.163870
O O8 0.728270 0.686944 0.000000
O O9 0.745649 0.491298 0.818785
O O10 0.846438 0.423219 0.838613
O O11 0.240935 0.481870 0.905807
O O12 0.184913 0.592457 0.900054
O O13 0.117420 0.459378 0.804144
O O14 0.110907 0.458769 0.000000
O O15 0.696131 0.933933 0.500000
O O16 0.588680 0.883820 0.361708
O O17 0.759581 0.966422 0.331675
O O18 0.180098 0.090049 0.737843
O O19 0.075434 0.150868 0.772525
O O20 0.260584 0.521168 0.710737
O O21 0.425342 0.574659 0.679143
#
# Coordination Sequence:
#
# PCOD9585563 Si02
#       7
#    12  12  12  12  12  12  12
#     4   9  18  35  60  87 115 153 201 252 308 369
#     4   9  19  38  62  88 123 165 204 246 301 361
#     4  10  19  33  56  89 128 169 213 259 307 360
#     4   8  13  24  46  75 105 138 181 236 295 350
#     4  11  23  40  62  87 119 157 201 251 307 372
#     4  11  23  42  68  98 127 156 194 246 311 384
#     4  10  21  37  57  82 115 158 209 261 310 360
#
# _framework density 20.404368000000002
#
# number of rings (size 3 to 8) (size 9 to 14) (size 15 to 20)
#    0.000    2.286    1.429    1.429    0.000    5.429 
#    0.000    2.143    0.000    6.000    0.000    0.000 
#    0.000    0.000    0.000    0.000    0.000    1.571 
#
# Total GULP energy -468512.970905 kJ/mol
# GULP energy per Si atom -5577.535368 kJ/mol
# Density = 2.035793 g / cm^3
# Si number density = 20.404368 Si / 1000 Ang^3
#
#
#
# Elastic Constant Matrix: (Units=GPa)
#
#
# Indices 1 2 3 4 5 6 
#
# 1 67.1323 73.5796 42.9468 0.0000 0.0247 0.0000
# 2 73.5796 67.1323 42.9468 0.0000 -0.0247 0.0000
# 3 42.9468 42.9468 142.8733 0.0000 0.0000 0.0000
# 4 0.0000 0.0000 0.0000 -83.6310 0.0000 -0.0247
# 5 0.0247 -0.0247 0.0000 0.0000 -83.6310 0.0000
# 6 0.0000 0.0000 0.0000 -0.0247 0.0000 -3.2237
#
#
#
# Elastic Compliance Matrix: (Units=1/GPa)
#
#
# Indices 1 2 3 4 5 6 
#
# 1 -0.073200 0.081904 -0.002616 0.000000 -0.000046 0.000000
# 2 0.081904 -0.073200 -0.002616 0.000000 0.000046 0.000000
# 3 -0.002616 -0.002616 0.008572 0.000000 0.000000 0.000000
# 4 0.000000 0.000000 0.000000 -0.011957 0.000000 0.000091
# 5 -0.000046 0.000046 0.000000 0.000000 -0.011957 0.000000
# 6 0.000000 0.000000 0.000000 0.000091 0.000000 -0.310208
#
#
# Mechanical properties :
#
#
# Convention : Reuss Voigt Hill
#
# Bulk Modulus (GPa) = 64.45608 66.23157 65.34382
# Shear Modulus (GPa) = -8.06294 -26.25281 -17.15787
#
# Velocity S-wave (km/s) = -1.99001 -3.59085 -2.90296
# Velocity P-wave (km/s) = 5.13593 3.91634 4.56702
#
# Compressibility (1/GPa) = 0.01551444
#
# Stress axis : x y z
#
# Youngs Moduli (GPa) = -13.66119 -13.66119 116.65773
#
# Poissons Ratio (x) = 1.11890 0.30521
# Poissons Ratio (y) = 1.11890 0.30521
# Poissons Ratio (z) = -0.03574 -0.03574
#
# Static dielectric constant tensor:
#      x y z
#    x 1.727490 0.000000 0.000000 
#    y 0.000000 1.727490 0.000000 
#    z 0.000000 0.000000 1.767270 
# 
# From -- ./inp_files/2636.got.cif
#   From: 2010.05.17/outbox.cif.g08.bks.cpg/sg187_2_cif.got.tgz:2636.got - 2010.05.20 12:09:04.
