data_PCOD9585313
_publ_section_title
;
Structure prediction by ZEFSAII (Michael W. Deem and Ramdas Pophale) SiO2 
 PCOD9585313
Probable space group: P 63 C M
;
_chemical_formula_sum "Si O2"
_cell_formula_units_Z 84
_cell_length_a 18.000000
_cell_length_b 18.000000
_cell_length_c 15.000000
_cell_angle_alpha 90.000000
_cell_angle_beta 90.000000
_cell_angle_gamma 120.000000
_cell_volume 4208.883462
_symmetry_space_group_name_H-M "P 63 C M"
_symmetry_group_IT_number 185
_symmetry_cell_setting 'hexagonal'
loop_
_space_group_symop_operation_xyz
x,y,z
x-y,x,1/2+z
-y,x-y,z
-x,-y,1/2+z
-x+y,-x,z
y,-x+y,1/2+z
-x+y,y,1/2+z
x,x-y,1/2+z
-y,-x,1/2+z
y,x,z
x-y,-y,z
-x,-x+y,z
loop_
_atom_site_type_symbol
_atom_site_label
_atom_site_fract_x
_atom_site_fract_y
_atom_site_fract_z
Si Si1 0.423044 0.900596 0.196480
Si Si2 0.580019 0.479536 0.403871
Si Si3 0.203106 0.102372 0.806666
Si Si4 0.312525 0.498249 0.075398
Si Si5 0.215353 0.312944 0.159272
Si Si6 0.829740 0.729734 0.999958
Si Si7 0.462644 0.320445 0.527541
O O1 0.398684 0.871416 0.299748
O O2 0.449058 0.839726 0.142411
O O3 0.355515 0.900841 0.124816
O O4 0.500124 0.000000 0.200108
O O5 0.545590 0.545590 0.402015
O O6 0.652981 0.512275 0.479518
O O7 0.505727 0.391908 0.450429
O O8 0.153102 0.153102 0.789474
O O9 0.284671 0.131822 0.743062
O O10 0.236879 0.114547 0.907014
O O11 0.141072 0.000000 0.791324
O O12 0.259007 0.410045 0.129074
O O13 0.243194 0.524813 0.047982
O O14 0.286867 0.286867 0.176914
O O15 0.156400 0.261162 0.076095
O O16 0.784486 0.784486 0.022391
O O17 0.754309 0.630167 0.996015
#
# Coordination Sequence:
#
# PCOD9585313 Si02
#       7
#    12  12  12  12  12  12  12
#     4  10  21  39  64  88 117 158 204 244 293 361
#     4  10  21  39  64  88 117 158 204 244 293 361
#     4  10  21  36  56  84 118 160 204 248 300 358
#     4  10  21  38  59  85 122 152 194 244 297 352
#     4  10  20  35  56  82 115 151 193 243 295 349
#     4  10  20  35  56  82 115 151 193 243 295 349
#     4  10  21  38  59  85 122 152 194 244 297 352
#
# _framework density 19.957787
#
# number of rings (size 3 to 8) (size 9 to 14) (size 15 to 20)
#    0.000    2.000    0.000    4.429    2.000    1.143 
#   14.571    0.000    0.000    4.571    0.000    0.000 
#    0.000    0.000    0.000    0.000    0.000    0.000 
#
# Total GULP energy -468028.516544 kJ/mol
# GULP energy per Si atom -5571.768054 kJ/mol
# Density = 1.991236 g / cm^3
# Si number density = 19.957787 Si / 1000 Ang^3
#
#
#
# Elastic Constant Matrix: (Units=GPa)
#
#
# Indices 1 2 3 4 5 6 
#
# 1 46.5183 -0.6065 9.1072 0.0000 0.0000 0.0000
# 2 -0.6065 46.5183 9.1072 0.0000 0.0000 0.0000
# 3 9.1072 9.1072 92.4512 0.0000 0.0000 0.0000
# 4 0.0000 0.0000 0.0000 20.3214 0.0000 0.0000
# 5 0.0000 0.0000 0.0000 0.0000 20.3214 0.0000
# 6 0.0000 0.0000 0.0000 0.0000 0.0000 23.5624
#
#
#
# Elastic Compliance Matrix: (Units=1/GPa)
#
#
# Indices 1 2 3 4 5 6 
#
# 1 0.021943 0.000723 -0.002233 0.000000 0.000000 0.000000
# 2 0.000723 0.021943 -0.002233 0.000000 0.000000 0.000000
# 3 -0.002233 -0.002233 0.011256 0.000000 0.000000 0.000000
# 4 0.000000 0.000000 0.000000 0.049209 0.000000 0.000000
# 5 0.000000 0.000000 0.000000 0.000000 0.049209 0.000000
# 6 0.000000 0.000000 0.000000 0.000000 0.000000 0.042440
#
#
# Mechanical properties :
#
#
# Convention : Reuss Voigt Hill
#
# Bulk Modulus (GPa) = 20.98265 24.52264 22.75265
# Shear Modulus (GPa) = 22.79222 24.03306 23.41264
#
# Velocity S-wave (km/s) = 3.38305 3.47392 3.42878
# Velocity P-wave (km/s) = 5.07901 5.32961 5.20582
#
# Compressibility (1/GPa) = 0.04765842
#
# Stress axis : x y z
#
# Youngs Moduli (GPa) = 45.57164 45.57164 88.83810
#
# Poissons Ratio (x) = -0.03296 0.19836
# Poissons Ratio (y) = -0.03296 0.19836
# Poissons Ratio (z) = 0.10176 0.10176
#
# Static dielectric constant tensor:
#      x y z
#    x 1.762120 0.000000 0.000000 
#    y 0.000000 1.762120 0.000000 
#    z 0.000000 0.000000 1.685680 
# 
# From -- ./inp_files/1505.got.cif
#   From: 2010.05.17/outbox.ucp.g08.bks.cvg/sg185_cif.got.tgz:1505.got - 2010.06.11 15:21:21.
