data_PCOD9585584
_publ_section_title
;
Structure prediction by ZEFSAII (Michael W. Deem and Ramdas Pophale) SiO2 
 PCOD9585584
Probable space group: P -6 M 2
;
_chemical_formula_sum "Si O2"
_cell_formula_units_Z 72
_cell_length_a 12.754643
_cell_length_b 12.754643
_cell_length_c 31.495208
_cell_angle_alpha 90.000000
_cell_angle_beta 90.000000
_cell_angle_gamma 120.000000
_cell_volume 4437.227819
_symmetry_space_group_name_H-M "P -6 M 2"
_symmetry_group_IT_number 187
_symmetry_cell_setting 'hexagonal'
loop_
_space_group_symop_operation_xyz
x,y,z
-x+y,-x,-z
-y,x-y,z
x,y,-z
-x+y,-x,z
-y,x-y,-z
-y,-x,-z
-x+y,y,-z
x,x-y,-z
-x+y,y,z
x,x-y,z
-y,-x,z
loop_
_atom_site_type_symbol
_atom_site_label
_atom_site_fract_x
_atom_site_fract_y
_atom_site_fract_z
Si Si1 0.332307 0.914930 0.500000
Si Si2 0.667092 0.582113 0.421169
Si Si3 0.332645 0.916026 0.000000
Si Si4 0.248835 0.249057 0.245068
Si Si5 0.914874 0.581378 0.324839
Si Si6 0.084166 0.417061 0.163847
Si Si7 0.749996 0.750569 0.082109
O O1 0.210659 0.789342 0.500000
O O2 0.448043 0.896086 0.500000
O O3 0.343781 0.990896 0.457850
O O4 0.791640 0.583280 0.427816
O O5 0.555158 0.444843 0.423900
O O6 0.665477 0.624214 0.372985
O O7 0.312329 0.977659 0.958614
O O8 0.223863 0.776138 0.000000
O O9 0.461545 0.923089 0.000000
O O10 0.246818 0.123409 0.237393
O O11 0.319007 0.304039 0.289083
O O12 0.316505 0.342619 0.206912
O O13 0.113646 0.227291 0.246880
O O14 0.775423 0.550845 0.323495
O O15 0.921568 0.460784 0.316803
O O16 0.223562 0.447124 0.162626
O O17 0.077247 0.538624 0.161607
O O18 0.018468 0.328728 0.124167
O O19 0.872012 0.744023 0.081023
O O20 0.780539 0.890270 0.081941
#
# Coordination Sequence:
#
# PCOD9585584 Si02
#       7
#     6  12   6  12  12  12  12
#     4  10  20  32  46  64  90 124 158 192 230 278
#     4   9  17  30  50  74  96 119 151 195 243 286
#     4  10  20  34  54  78 104 134 168 208 250 292
#     4  10  20  33  50  71  97 130 166 203 239 280
#     4   9  17  30  49  73  99 125 154 191 238 289
#     4  10  20  34  53  75  99 127 160 202 249 295
#     4  10  20  34  54  78 104 134 167 205 246 291
#
# _framework density 16.226348999999999
#
# number of rings (size 3 to 8) (size 9 to 14) (size 15 to 20)
#    0.000    2.333    0.000    3.000    0.000    2.000 
#    0.000    5.000    0.000   10.667    0.000    0.000 
#    0.000    0.000    0.000    0.000    0.000    0.000 
#
# Total GULP energy -401653.434354 kJ/mol
# GULP energy per Si atom -5578.519922 kJ/mol
# Density = 1.618942 g / cm^3
# Si number density = 16.226349 Si / 1000 Ang^3
#
#
#
# Elastic Constant Matrix: (Units=GPa)
#
#
# Indices 1 2 3 4 5 6 
#
# 1 110.4021 73.9765 77.4919 0.0000 0.0001 0.0000
# 2 73.9765 110.4021 77.4919 0.0000 -0.0001 0.0000
# 3 77.4919 77.4919 145.3795 0.0000 0.0000 0.0000
# 4 0.0000 0.0000 0.0000 21.6691 0.0000 -0.0001
# 5 0.0001 -0.0001 0.0000 0.0000 21.6691 0.0000
# 6 0.0000 0.0000 0.0000 -0.0001 0.0000 18.2128
#
#
#
# Elastic Compliance Matrix: (Units=1/GPa)
#
#
# Indices 1 2 3 4 5 6 
#
# 1 0.018640 -0.008813 -0.005238 0.000000 0.000000 0.000000
# 2 -0.008813 0.018640 -0.005238 0.000000 0.000000 0.000000
# 3 -0.005238 -0.005238 0.012462 0.000000 0.000000 0.000000
# 4 0.000000 0.000000 0.000000 0.046149 0.000000 0.000000
# 5 0.000000 0.000000 0.000000 0.000000 0.046149 0.000000
# 6 0.000000 0.000000 0.000000 0.000000 0.000000 0.054906
#
#
# Mechanical properties :
#
#
# Convention : Reuss Voigt Hill
#
# Bulk Modulus (GPa) = 89.57366 91.56716 90.57041
# Shear Modulus (GPa) = 20.89907 21.45840 21.17874
#
# Velocity S-wave (km/s) = 3.59273 3.64048 3.61668
# Velocity P-wave (km/s) = 8.51661 8.61536 8.56613
#
# Compressibility (1/GPa) = 0.01116400
#
# Stress axis : x y z
#
# Youngs Moduli (GPa) = 53.64870 53.64870 80.24174
#
# Poissons Ratio (x) = 0.47283 0.42029
# Poissons Ratio (y) = 0.47283 0.42029
# Poissons Ratio (z) = 0.28100 0.28100
#
# Static dielectric constant tensor:
#      x y z
#    x 1.510480 0.000000 0.000000 
#    y 0.000000 1.510480 0.000000 
#    z 0.000000 0.000000 1.550770 
# 
# From -- ./inp_files/4566.got.cif
#   From: 2010.05.17/outbox.cif.g08.bks.cpg/sg187_3_cif.got.tgz:4566.got - 2010.05.20 12:09:04.
