data_PCOD9585414
_publ_section_title
;
Structure prediction by ZEFSAII (Michael W. Deem and Ramdas Pophale) SiO2 
 PCOD9585414
Probable space group: P 63 M C
;
_chemical_formula_sum "Si O2"
_cell_formula_units_Z 34
_cell_length_a 13.335307
_cell_length_b 13.335307
_cell_length_c 10.060013
_cell_angle_alpha 90.000000
_cell_angle_beta 90.000000
_cell_angle_gamma 120.000000
_cell_volume 1549.298892
_symmetry_space_group_name_H-M "P 63 M C"
_symmetry_group_IT_number 186
_symmetry_cell_setting 'hexagonal'
loop_
_space_group_symop_operation_xyz
x,y,z
x-y,x,1/2+z
-y,x-y,z
-x,-y,1/2+z
-x+y,-x,z
y,-x+y,1/2+z
-x+y,y,z
x,x-y,z
-y,-x,z
y,x,1/2+z
x-y,-y,1/2+z
-x,-x+y,1/2+z
loop_
_atom_site_type_symbol
_atom_site_label
_atom_site_fract_x
_atom_site_fract_y
_atom_site_fract_z
Si Si1 0.200597 0.799404 0.497600
Si Si2 0.186448 0.372896 0.221352
Si Si3 0.039386 0.404814 0.721352
Si Si4 0.666667 0.333334 0.883601
Si Si5 0.333334 0.666667 0.059103
Si Si6 0.799404 0.200597 0.445103
O O1 0.159384 0.840617 0.368750
O O2 0.287566 0.903075 0.592040
O O3 0.267109 0.732892 0.440100
O O4 0.324572 0.423375 0.221353
O O5 0.159384 0.318767 0.073953
O O6 0.073364 0.536682 0.721353
O O7 0.096925 0.384491 0.850664
O O8 0.666667 0.333334 0.721352
O O9 0.465782 0.732891 0.002604
#
# Coordination Sequence:
#
# PCOD9585414 Si02
#       6
#     6   6  12   2   2   6
#     4  11  24  41  68  95 134 177 221 273 338 407
#     4  12  26  40  60  90 138 180 224 268 314 396
#     4  11  25  43  64  95 134 179 220 274 340 403
#     4  12  21  37  65 115 138 172 224 274 339 415
#     4  12  21  37  65 115 138 172 224 274 339 415
#     4  11  24  41  68  95 134 177 221 273 338 407
#
# _framework density 21.945409000000001
#
# number of rings (size 3 to 8) (size 9 to 14) (size 15 to 20)
#    0.000    0.706    5.294    2.118    4.941    2.824 
#    1.059    0.000    0.000    5.647    0.000   19.765 
#    0.000    0.000    0.000    0.000    0.000    0.000 
#
# Total GULP energy -189504.322667 kJ/mol
# GULP energy per Si atom -5573.656549 kJ/mol
# Density = 2.189546 g / cm^3
# Si number density = 21.945409 Si / 1000 Ang^3
#
#
#
# Elastic Constant Matrix: (Units=GPa)
#
#
# Indices 1 2 3 4 5 6 
#
# 1 90.9997 24.3330 45.3865 0.0000 0.0000 0.0001
# 2 24.3330 90.9995 45.3864 0.0000 0.0000 0.0000
# 3 45.3865 45.3864 224.1658 0.0000 0.0000 0.0000
# 4 0.0000 0.0000 0.0000 32.0336 0.0000 0.0000
# 5 0.0000 0.0000 0.0000 0.0000 32.0336 0.0000
# 6 0.0001 0.0000 0.0000 0.0000 0.0000 33.3334
#
#
#
# Elastic Compliance Matrix: (Units=1/GPa)
#
#
# Indices 1 2 3 4 5 6 
#
# 1 0.012657 -0.002343 -0.002088 0.000000 0.000000 0.000000
# 2 -0.002343 0.012657 -0.002088 0.000000 0.000000 0.000000
# 3 -0.002088 -0.002088 0.005307 0.000000 0.000000 0.000000
# 4 0.000000 0.000000 0.000000 0.031217 0.000000 0.000000
# 5 0.000000 0.000000 0.000000 0.000000 0.031217 0.000000
# 6 0.000000 0.000000 0.000000 0.000000 0.000000 0.030000
#
#
# Mechanical properties :
#
#
# Convention : Reuss Voigt Hill
#
# Bulk Modulus (GPa) = 56.87702 70.70852 63.79277
# Shear Modulus (GPa) = 35.22248 38.88406 37.05327
#
# Velocity S-wave (km/s) = 4.01060 4.21391 4.11351
# Velocity P-wave (km/s) = 6.88624 7.48105 7.18980
#
# Compressibility (1/GPa) = 0.01758179
#
# Stress axis : x y z
#
# Youngs Moduli (GPa) = 79.00717 79.00698 188.44424
#
# Poissons Ratio (x) = 0.18511 0.39353
# Poissons Ratio (y) = 0.18511 0.39353
# Poissons Ratio (z) = 0.16499 0.16499
#
# Static dielectric constant tensor:
#      x y z
#    x 1.776020 0.000000 0.000000 
#    y 0.000000 1.776020 0.000000 
#    z 0.000000 0.000000 1.854070 
# 
# From -- ./inp_files/610.got.cif
#   From: 2010.05.17/outbox.cif.g08.bks.cpg/sg186_1_cif.got.tgz:610.got - 2010.05.20 12:07:08.
