data_PCOD9585236
_publ_section_title
;
Structure prediction by ZEFSAII (Michael W. Deem and Ramdas Pophale) SiO2 
 PCOD9585236
Probable space group: P 63 C M
;
_chemical_formula_sum "Si O2"
_cell_formula_units_Z 84
_cell_length_a 15.068307
_cell_length_b 15.068307
_cell_length_c 19.452702
_cell_angle_alpha 90.000000
_cell_angle_beta 90.000000
_cell_angle_gamma 120.000000
_cell_volume 3825.070863
_symmetry_space_group_name_H-M "P 63 C M"
_symmetry_group_IT_number 185
_symmetry_cell_setting 'hexagonal'
loop_
_space_group_symop_operation_xyz
x,y,z
x-y,x,1/2+z
-y,x-y,z
-x,-y,1/2+z
-x+y,-x,z
y,-x+y,1/2+z
-x+y,y,1/2+z
x,x-y,1/2+z
-y,-x,1/2+z
y,x,z
x-y,-y,z
-x,-x+y,z
loop_
_atom_site_type_symbol
_atom_site_label
_atom_site_fract_x
_atom_site_fract_y
_atom_site_fract_z
Si Si1 0.538722 0.295239 0.045770
Si Si2 0.720185 0.543433 0.764948
Si Si3 0.118229 0.233370 0.437133
Si Si4 0.502122 0.890589 0.754734
Si Si5 0.726050 0.184930 0.891529
Si Si6 0.691446 0.879189 0.086635
Si Si7 0.769323 0.883071 0.233918
O O1 0.591180 0.225442 0.059581
O O2 0.431455 0.250173 0.084189
O O3 0.512483 0.297432 0.964916
O O4 0.790946 0.504327 0.728695
O O5 0.605998 0.487451 0.738804
O O6 0.715365 0.509339 0.844411
O O7 0.790695 0.665379 0.763248
O O8 0.192073 0.192073 0.411339
O O9 0.133169 0.337330 0.403698
O O10 0.141497 0.264364 0.517350
O O11 0.000000 0.146319 0.430706
O O12 0.518439 0.882399 0.837226
O O13 0.591623 0.000000 0.730013
O O14 0.739596 0.859573 0.153785
O O15 0.730007 0.000000 0.086751
O O16 0.806924 0.806924 0.261522
O O17 0.859029 0.000000 0.240948
#
# Coordination Sequence:
#
# PCOD9585236 Si02
#       7
#    12  12  12  12  12  12  12
#     4   9  18  35  62  86 116 153 195 241 298 355
#     4  10  22  37  61  86 118 151 203 251 291 357
#     4  10  19  33  54  82 116 154 196 246 303 361
#     4  10  20  36  56  82 114 155 193 234 297 346
#     4   9  20  34  57  82 119 154 196 242 290 355
#     4   9  20  39  58  85 119 155 200 248 301 361
#     4  11  23  42  65  89 120 158 203 254 303 359
#
# _framework density 21.960379
#
# number of rings (size 3 to 8) (size 9 to 14) (size 15 to 20)
#    1.143    1.143    0.000    3.143    0.000    1.714 
#    2.571    5.000    0.000    1.714    0.000    0.000 
#    0.000    0.000    0.000    0.000    0.000    0.000 
#
# Total GULP energy -468158.601268 kJ/mol
# GULP energy per Si atom -5573.316682 kJ/mol
# Density = 2.191040 g / cm^3
# Si number density = 21.960379 Si / 1000 Ang^3
#
#
#
# Elastic Constant Matrix: (Units=GPa)
#
#
# Indices 1 2 3 4 5 6 
#
# 1 110.5315 68.2479 0.9265 0.0000 0.0000 0.0000
# 2 68.2479 110.5315 0.9265 0.0000 0.0000 0.0000
# 3 0.9265 0.9265 63.6890 0.0000 0.0000 0.0000
# 4 0.0000 0.0000 0.0000 12.4654 0.0000 0.0000
# 5 0.0000 0.0000 0.0000 0.0000 12.4654 0.0000
# 6 0.0000 0.0000 0.0000 0.0000 0.0000 21.1418
#
#
#
# Elastic Compliance Matrix: (Units=1/GPa)
#
#
# Indices 1 2 3 4 5 6 
#
# 1 0.014622 -0.009028 -0.000081 0.000000 0.000000 0.000000
# 2 -0.009028 0.014622 -0.000081 0.000000 0.000000 0.000000
# 3 -0.000081 -0.000081 0.015704 0.000000 0.000000 0.000000
# 4 0.000000 0.000000 0.000000 0.080222 0.000000 0.000000
# 5 0.000000 0.000000 0.000000 0.000000 0.080222 0.000000
# 6 0.000000 0.000000 0.000000 0.000000 0.000000 0.047300
#
#
# Mechanical properties :
#
#
# Convention : Reuss Voigt Hill
#
# Bulk Modulus (GPa) = 37.64098 47.21711 42.42905
# Shear Modulus (GPa) = 17.86170 23.52457 20.69314
#
# Velocity S-wave (km/s) = 2.85504 3.27651 3.07301
# Velocity P-wave (km/s) = 5.29584 5.98847 5.65278
#
# Compressibility (1/GPa) = 0.02656679
#
# Stress axis : x y z
#
# Youngs Moduli (GPa) = 68.38967 68.38967 63.67935
#
# Poissons Ratio (x) = 0.61741 0.00518
# Poissons Ratio (y) = 0.61741 0.00518
# Poissons Ratio (z) = 0.00557 0.00557
#
# Static dielectric constant tensor:
#      x y z
#    x 1.783040 0.000000 0.000000 
#    y 0.000000 1.783040 0.000000 
#    z 0.000000 0.000000 1.865630 
# 
# From -- ./inp_files/2149.got.cif
#   From: 2010.05.17/outbox.cif.g08.bks.cpg/sg185_cif.got.tgz:2149.got - 2010.05.20 12:05:34.
