data_PCOD9585132
_publ_section_title
;
Structure prediction by ZEFSAII (Michael W. Deem and Ramdas Pophale) SiO2 
 PCOD9585132
Probable space group: P 6 C C
;
_chemical_formula_sum "Si O2"
_cell_formula_units_Z 60
_cell_length_a 14.153109
_cell_length_b 14.153109
_cell_length_c 15.702020
_cell_angle_alpha 90.000000
_cell_angle_beta 90.000000
_cell_angle_gamma 120.000000
_cell_volume 2723.891853
_symmetry_space_group_name_H-M "P 6 C C"
_symmetry_group_IT_number 184
_symmetry_cell_setting 'hexagonal'
loop_
_space_group_symop_operation_xyz
x,y,z
x-y,x,z
-y,x-y,z
-x,-y,z
-x+y,-x,z
y,-x+y,z
-x+y,y,1/2+z
x,x-y,1/2+z
-y,-x,1/2+z
y,x,1/2+z
x-y,-y,1/2+z
-x,-x+y,1/2+z
loop_
_atom_site_type_symbol
_atom_site_label
_atom_site_fract_x
_atom_site_fract_y
_atom_site_fract_z
Si Si1 0.131180 0.575445 0.208940
Si Si2 0.082534 0.345931 0.794889
Si Si3 0.898256 0.380197 0.036852
Si Si4 0.241590 0.206520 0.614575
Si Si5 0.697954 0.134536 0.360344
O O1 0.146224 0.685474 0.246908
O O2 0.168631 0.600094 0.111718
O O3 0.163937 0.517247 0.280003
O O4 0.000000 0.500000 0.199330
O O5 0.033954 0.260685 0.717431
O O6 0.175215 0.346990 0.851447
O O7 0.995314 0.354911 0.852829
O O8 0.941315 0.298113 0.071418
O O9 0.000000 0.500000 0.016979
O O10 0.834214 0.329877 0.949999
O O11 0.136820 0.221372 0.594640
#
# Coordination Sequence:
#
# PCOD9585132 Si02
#       5
#    12  12  12  12  12
#     4   8  18  38  58  85 121 167 215 273 337 415
#     4  10  20  36  63  91 127 176 223 282 352 429
#     4  10  22  39  67  94 131 184 236 296 362 435
#     4  11  23  42  66 101 143 195 250 307 373 446
#     4  11  21  39  64  96 130 171 232 285 356 436
#
# _framework density 22.027307
#
# number of rings (size 3 to 8) (size 9 to 14) (size 15 to 20)
#    0.000    2.000    2.000    3.200    2.800    0.000 
#    1.200    0.000    0.000    0.800    0.000    0.000 
#    0.000    0.000    0.000    0.000    0.000    0.000 
#
# Total GULP energy -334076.456689 kJ/mol
# GULP energy per Si atom -5567.940945 kJ/mol
# Density = 2.197717 g / cm^3
# Si number density = 22.027307 Si / 1000 Ang^3
#
#
#
# Elastic Constant Matrix: (Units=GPa)
#
#
# Indices 1 2 3 4 5 6 
#
# 1 65.6063 29.7206 32.6720 0.0000 0.0000 0.0000
# 2 29.7206 65.6063 32.6720 0.0000 0.0000 0.0000
# 3 32.6720 32.6720 124.7471 0.0000 0.0000 0.0000
# 4 0.0000 0.0000 0.0000 4.5044 0.0000 0.0000
# 5 0.0000 0.0000 0.0000 0.0000 4.5044 0.0000
# 6 0.0000 0.0000 0.0000 0.0000 0.0000 17.9429
#
#
#
# Elastic Compliance Matrix: (Units=1/GPa)
#
#
# Indices 1 2 3 4 5 6 
#
# 1 0.020326 -0.007540 -0.003349 0.000000 0.000000 0.000000
# 2 -0.007540 0.020326 -0.003349 0.000000 0.000000 0.000000
# 3 -0.003349 -0.003349 0.009770 0.000000 0.000000 0.000000
# 4 0.000000 0.000000 0.000000 0.222003 0.000000 0.000000
# 5 0.000000 0.000000 0.000000 0.000000 0.222003 0.000000
# 6 0.000000 0.000000 0.000000 0.000000 0.000000 0.055732
#
#
# Mechanical properties :
#
#
# Convention : Reuss Voigt Hill
#
# Bulk Modulus (GPa) = 45.56434 49.56542 47.56488
# Shear Modulus (GPa) = 8.53312 16.11669 12.32490
#
# Velocity S-wave (km/s) = 1.97035 2.70787 2.36800
# Velocity P-wave (km/s) = 5.08986 5.68572 5.39602
#
# Compressibility (1/GPa) = 0.02194699
#
# Stress axis : x y z
#
# Youngs Moduli (GPa) = 49.19826 49.19826 102.35135
#
# Poissons Ratio (x) = 0.37097 0.34274
# Poissons Ratio (y) = 0.37097 0.34274
# Poissons Ratio (z) = 0.16475 0.16475
#
# Static dielectric constant tensor:
#      x y z
#    x 1.855340 0.000000 0.000000 
#    y 0.000000 1.855340 0.000000 
#    z 0.000000 0.000000 1.959930 
# 
# From -- ./inp_files/813.got.cif
#   From: 2010.05.17/outbox.cif.g08.bks.cpg/sg184_cif.got.tgz:813.got - 2010.05.20 12:04:40.
