data_PCOD9585016
_publ_section_title
;
Structure prediction by ZEFSAII (Michael W. Deem and Ramdas Pophale) SiO2 
 PCOD9585016
Probable space group: P 6 M M
;
_chemical_formula_sum "Si O2"
_cell_formula_units_Z 60
_cell_length_a 18.149924
_cell_length_b 18.149924
_cell_length_c 12.915887
_cell_angle_alpha 90.000000
_cell_angle_beta 90.000000
_cell_angle_gamma 120.000000
_cell_volume 3684.719987
_symmetry_space_group_name_H-M "P 6 M M"
_symmetry_group_IT_number 183
_symmetry_cell_setting 'hexagonal'
loop_
_space_group_symop_operation_xyz
x,y,z
x-y,x,z
-y,x-y,z
-x,-y,z
-x+y,-x,z
y,-x+y,z
-x+y,y,z
x,x-y,z
-y,-x,z
y,x,z
x-y,-y,z
-x,-x+y,z
loop_
_atom_site_type_symbol
_atom_site_label
_atom_site_fract_x
_atom_site_fract_y
_atom_site_fract_z
Si Si1 0.101622 0.467084 0.534250
Si Si2 0.496460 0.164332 0.764457
Si Si3 0.366034 0.101191 0.336463
Si Si4 0.102741 0.634899 0.139466
Si Si5 0.098491 0.734084 0.944148
O O1 0.125794 0.562897 0.503187
O O2 0.144130 0.471817 0.644111
O O3 0.118799 0.418759 0.442738
O O4 0.000000 0.416031 0.550803
O O5 0.573176 0.146351 0.785123
O O6 0.524947 0.262474 0.784007
O O7 0.416987 0.110259 0.839104
O O8 0.328071 0.164036 0.330282
O O9 0.432188 0.123582 0.242059
O O10 0.298914 0.000000 0.330990
O O11 0.136756 0.568378 0.139182
O O12 0.000000 0.578067 0.138915
O O13 0.124596 0.692453 0.037716
O O14 0.165724 0.834277 0.942618
O O15 0.000000 0.706230 0.957777
#
# Coordination Sequence:
#
# PCOD9585016 Si02
#       5
#    12  12  12  12  12
#     4   9  17  29  46  67  90 119 155 192 230 275
#     4  10  19  30  45  67  96 127 157 189 227 272
#     4  10  19  31  48  69  93 122 158 198 237 277
#     4   9  17  30  49  71  93 118 148 181 219 266
#     4  10  20  33  50  71  94 122 157 196 235 275
#
# _framework density 16.283463000000001
#
# number of rings (size 3 to 8) (size 9 to 14) (size 15 to 20)
#    0.000    2.400    0.000    3.200    0.000    4.400 
#    0.000    0.000    0.000   10.000    0.000    0.000 
#    0.000    4.800    0.000    6.400    0.000    0.000 
#
# Total GULP energy -334440.053169 kJ/mol
# GULP energy per Si atom -5574.000886 kJ/mol
# Density = 1.624640 g / cm^3
# Si number density = 16.283463 Si / 1000 Ang^3
#
#
#
# Elastic Constant Matrix: (Units=GPa)
#
#
# Indices 1 2 3 4 5 6 
#
# 1 83.9944 49.3019 32.7367 0.0000 0.0000 0.0000
# 2 49.3019 83.9944 32.7367 0.0000 0.0000 0.0000
# 3 32.7367 32.7367 64.2734 0.0000 0.0000 0.0000
# 4 0.0000 0.0000 0.0000 13.6664 0.0000 0.0000
# 5 0.0000 0.0000 0.0000 0.0000 13.6664 0.0000
# 6 0.0000 0.0000 0.0000 0.0000 0.0000 17.3462
#
#
#
# Elastic Compliance Matrix: (Units=1/GPa)
#
#
# Indices 1 2 3 4 5 6 
#
# 1 0.019415 -0.009410 -0.005096 0.000000 0.000000 0.000000
# 2 -0.009410 0.019415 -0.005096 0.000000 0.000000 0.000000
# 3 -0.005096 -0.005096 0.020750 0.000000 0.000000 0.000000
# 4 0.000000 0.000000 0.000000 0.073172 0.000000 0.000000
# 5 0.000000 0.000000 0.000000 0.000000 0.073172 0.000000
# 6 0.000000 0.000000 0.000000 0.000000 0.000000 0.057649
#
#
# Mechanical properties :
#
#
# Convention : Reuss Voigt Hill
#
# Bulk Modulus (GPa) = 49.07718 51.31252 50.19485
# Shear Modulus (GPa) = 16.15153 16.76829 16.45991
#
# Velocity S-wave (km/s) = 3.15286 3.21249 3.18281
# Velocity P-wave (km/s) = 6.59232 6.73354 6.66331
#
# Compressibility (1/GPa) = 0.02037607
#
# Stress axis : x y z
#
# Youngs Moduli (GPa) = 51.50673 51.50673 48.19364
#
# Poissons Ratio (x) = 0.48467 0.24559
# Poissons Ratio (y) = 0.48467 0.24559
# Poissons Ratio (z) = 0.26248 0.26248
#
# Static dielectric constant tensor:
#      x y z
#    x 1.546360 0.000000 0.000000 
#    y 0.000000 1.546360 0.000000 
#    z 0.000000 0.000000 1.550600 
# 
# From -- ./inp_files/1585.got.cif
#   From: 2010.05.17/outbox.cif.g08.bks.cpg/sg183_1_cif.got.tgz:1585.got - 2010.05.20 12:02:58.
