data_PCOD9585178
_publ_section_title
;
Structure prediction by ZEFSAII (Michael W. Deem and Ramdas Pophale) SiO2 
 PCOD9585178
Probable space group: P 6 C C
;
_chemical_formula_sum "Si O2"
_cell_formula_units_Z 48
_cell_length_a 13.352455
_cell_length_b 13.352455
_cell_length_c 12.515476
_cell_angle_alpha 90.000000
_cell_angle_beta 90.000000
_cell_angle_gamma 120.000000
_cell_volume 1932.414330
_symmetry_space_group_name_H-M "P 6 C C"
_symmetry_group_IT_number 184
_symmetry_cell_setting 'hexagonal'
loop_
_space_group_symop_operation_xyz
x,y,z
x-y,x,z
-y,x-y,z
-x,-y,z
-x+y,-x,z
y,-x+y,z
-x+y,y,1/2+z
x,x-y,1/2+z
-y,-x,1/2+z
y,x,1/2+z
x-y,-y,1/2+z
-x,-x+y,1/2+z
loop_
_atom_site_type_symbol
_atom_site_label
_atom_site_fract_x
_atom_site_fract_y
_atom_site_fract_z
Si Si1 0.864514 0.452410 0.721620
Si Si2 0.782065 0.035385 0.185036
Si Si3 0.195159 0.763275 0.836068
Si Si4 0.538022 0.904228 0.524676
O O1 0.816130 0.361159 0.818410
O O2 0.834156 0.550781 0.740004
O O3 0.826758 0.390342 0.608130
O O4 0.000000 0.500000 0.723902
O O5 0.752623 0.073647 0.301710
O O6 0.914768 0.136574 0.172825
O O7 0.695316 0.041109 0.097822
O O8 0.267444 0.829968 0.938848
O O9 0.500000 0.000000 0.489016
#
# Coordination Sequence:
#
# PCOD9585178 Si02
#       4
#    12  12  12  12
#     4  10  22  40  62  99 145 187 246 316 391 470
#     4  11  25  45  70 102 145 200 263 327 399 485
#     4  11  22  40  69 100 141 196 252 317 391 473
#     4  10  23  43  72 107 149 199 258 332 404 474
#
# _framework density 24.839393000000001
#
# number of rings (size 3 to 8) (size 9 to 14) (size 15 to 20)
#    0.000    1.500    0.000    6.000    0.000   10.000 
#    0.000    0.000    0.000   10.000    0.000    0.000 
#    0.000    0.000    0.000    0.000    0.000    0.000 
#
# Total GULP energy -267927.871629 kJ/mol
# GULP energy per Si atom -5581.830659 kJ/mol
# Density = 2.478286 g / cm^3
# Si number density = 24.839393 Si / 1000 Ang^3
#
#
#
# Elastic Constant Matrix: (Units=GPa)
#
#
# Indices 1 2 3 4 5 6 
#
# 1 142.8145 43.1718 24.7064 0.0000 0.0000 0.0000
# 2 43.1718 142.8145 24.7064 0.0000 0.0000 0.0000
# 3 24.7064 24.7064 120.4404 0.0000 0.0000 0.0000
# 4 0.0000 0.0000 0.0000 29.6028 0.0000 0.0000
# 5 0.0000 0.0000 0.0000 0.0000 29.6028 0.0000
# 6 0.0000 0.0000 0.0000 0.0000 0.0000 49.8214
#
#
#
# Elastic Compliance Matrix: (Units=1/GPa)
#
#
# Indices 1 2 3 4 5 6 
#
# 1 0.007861 -0.002175 -0.001167 0.000000 0.000000 0.000000
# 2 -0.002175 0.007861 -0.001167 0.000000 0.000000 0.000000
# 3 -0.001167 -0.001167 0.008781 0.000000 0.000000 0.000000
# 4 0.000000 0.000000 0.000000 0.033781 0.000000 0.000000
# 5 0.000000 0.000000 0.000000 0.000000 0.033781 0.000000
# 6 0.000000 0.000000 0.000000 0.000000 0.000000 0.020072
#
#
# Mechanical properties :
#
#
# Convention : Reuss Voigt Hill
#
# Bulk Modulus (GPa) = 64.56331 65.69316 65.12824
# Shear Modulus (GPa) = 39.58355 42.70438 41.14397
#
# Velocity S-wave (km/s) = 3.99630 4.15085 4.07430
# Velocity P-wave (km/s) = 6.88060 7.03401 6.95772
#
# Compressibility (1/GPa) = 0.01548867
#
# Stress axis : x y z
#
# Youngs Moduli (GPa) = 127.20608 127.20608 113.87647
#
# Poissons Ratio (x) = 0.27662 0.13284
# Poissons Ratio (y) = 0.27662 0.13284
# Poissons Ratio (z) = 0.14839 0.14839
#
# Static dielectric constant tensor:
#      x y z
#    x 2.043180 0.000000 0.000000 
#    y 0.000000 2.043180 0.000000 
#    z 0.000000 0.000000 2.094870 
# 
# From -- ./inp_files/541.got.cif
#   From: 2010.05.17/outbox.cif.g08.bks.cpg/sg184_cif.got.tgz:541.got - 2010.05.20 12:04:40.
