data_PCOD9585917
_publ_section_title
;
Structure prediction by ZEFSAII (Michael W. Deem and Ramdas Pophale) SiO2 
 PCOD9585917
Probable space group: P -6 C 2
;
_chemical_formula_sum "Si O2"
_cell_formula_units_Z 70
_cell_length_a 15.127710
_cell_length_b 15.127710
_cell_length_c 17.911964
_cell_angle_alpha 90.000000
_cell_angle_beta 90.000000
_cell_angle_gamma 120.000000
_cell_volume 3549.933522
_symmetry_space_group_name_H-M "P -6 C 2"
_symmetry_group_IT_number 188
_symmetry_cell_setting 'hexagonal'
loop_
_space_group_symop_operation_xyz
x,y,z
-x+y,-x,1/2-z
-y,x-y,z
x,y,1/2-z
-x+y,-x,z
-y,x-y,1/2-z
-y,-x,-z
-x+y,y,-z
x,x-y,-z
-x+y,y,1/2+z
x,x-y,1/2+z
-y,-x,1/2+z
loop_
_atom_site_type_symbol
_atom_site_label
_atom_site_fract_x
_atom_site_fract_y
_atom_site_fract_z
Si Si1 0.171814 0.950077 0.425715
Si Si2 0.579058 0.090653 0.383345
Si Si3 0.696447 0.592923 0.026867
Si Si4 0.446636 0.574309 0.833960
Si Si5 0.000000 0.000000 0.089689
Si Si6 0.223822 0.421614 0.840624
Si Si7 0.776601 0.451512 0.250000
O O1 0.111516 0.888485 0.500000
O O2 0.102298 0.994843 0.391380
O O3 0.177211 0.868126 0.372322
O O4 0.290186 0.033864 0.444800
O O5 0.497641 0.120771 0.415973
O O6 0.625970 0.060596 0.453000
O O7 0.667030 0.169800 0.328364
O O8 0.513814 0.992573 0.333297
O O9 0.789446 0.578892 0.000000
O O10 0.421616 0.592573 0.750000
O O11 0.339632 0.493275 0.868663
O O12 0.516668 0.685469 0.867147
O O13 0.000000 0.000000 0.000000
O O14 0.220794 0.414769 0.750000
O O15 0.765869 0.338911 0.250000
#
# Coordination Sequence:
#
# PCOD9585917 Si02
#       7
#    12  12  12  12   4  12   6
#     4  11  21  40  62  89 119 160 214 257 315 373
#     4  11  21  38  58  88 120 158 206 252 310 372
#     4  11  23  37  59  86 122 158 204 258 314 371
#     4  10  19  36  60  86 123 157 198 250 302 380
#     4   9  21  39  67  86 115 162 211 260 307 372
#     4  10  21  37  61  91 124 165 203 251 320 379
#     4  10  22  38  60  82 118 164 206 250 312 368
#
# _framework density 19.718678000000001
#
# number of rings (size 3 to 8) (size 9 to 14) (size 15 to 20)
#    0.171    1.371    2.571    3.943    0.000    1.371 
#    4.114    0.857    0.000    0.000    0.000    0.000 
#    0.000    0.000    0.000    0.000    0.000    0.000 
#
# Total GULP energy -389847.201330 kJ/mol
# GULP energy per Si atom -5569.245733 kJ/mol
# Density = 1.967380 g / cm^3
# Si number density = 19.718678 Si / 1000 Ang^3
#
#
#
# Elastic Constant Matrix: (Units=GPa)
#
#
# Indices 1 2 3 4 5 6 
#
# 1 103.8735 28.6151 14.9557 0.0000 0.0000 0.0000
# 2 28.6151 103.8735 14.9557 0.0000 0.0000 0.0000
# 3 14.9557 14.9557 53.8069 0.0000 0.0000 0.0000
# 4 0.0000 0.0000 0.0000 23.0888 0.0000 0.0000
# 5 0.0000 0.0000 0.0000 0.0000 23.0888 0.0000
# 6 0.0000 0.0000 0.0000 0.0000 0.0000 37.6292
#
#
#
# Elastic Compliance Matrix: (Units=1/GPa)
#
#
# Indices 1 2 3 4 5 6 
#
# 1 0.010670 -0.002617 -0.002238 0.000000 0.000000 0.000000
# 2 -0.002617 0.010670 -0.002238 0.000000 0.000000 0.000000
# 3 -0.002238 -0.002238 0.019829 0.000000 0.000000 0.000000
# 4 0.000000 0.000000 0.000000 0.043311 0.000000 0.000000
# 5 0.000000 0.000000 0.000000 0.000000 0.043311 0.000000
# 6 0.000000 0.000000 0.000000 0.000000 0.000000 0.026575
#
#
# Mechanical properties :
#
#
# Convention : Reuss Voigt Hill
#
# Bulk Modulus (GPa) = 37.06160 42.06741 39.56451
# Shear Modulus (GPa) = 28.16121 30.29652 29.22887
#
# Velocity S-wave (km/s) = 3.78319 3.92399 3.85423
# Velocity P-wave (km/s) = 6.15787 6.47383 6.31782
#
# Compressibility (1/GPa) = 0.02698211
#
# Stress axis : x y z
#
# Youngs Moduli (GPa) = 93.71753 93.71753 50.43037
#
# Poissons Ratio (x) = 0.24528 0.11288
# Poissons Ratio (y) = 0.24528 0.11288
# Poissons Ratio (z) = 0.20978 0.20978
#
# Static dielectric constant tensor:
#      x y z
#    x 1.713420 0.000000 0.000000 
#    y 0.000000 1.713420 0.000000 
#    z 0.000000 0.000000 1.698650 
# 
# From -- ./inp_files/3219.got.cif
#   From: 2010.05.17/outbox.cif.g08.bks.cpg/sg188_2_cif.got.tgz:3219.got - 2010.05.20 12:11:46.
