data_PCOD9585404
_publ_section_title
;
Structure prediction by ZEFSAII (Michael W. Deem and Ramdas Pophale) SiO2 
 PCOD9585404
Probable space group: P 63 M C
;
_chemical_formula_sum "Si O2"
_cell_formula_units_Z 34
_cell_length_a 11.511190
_cell_length_b 11.511190
_cell_length_c 18.890525
_cell_angle_alpha 90.000000
_cell_angle_beta 90.000000
_cell_angle_gamma 120.000000
_cell_volume 2167.779496
_symmetry_space_group_name_H-M "P 63 M C"
_symmetry_group_IT_number 186
_symmetry_cell_setting 'hexagonal'
loop_
_space_group_symop_operation_xyz
x,y,z
x-y,x,1/2+z
-y,x-y,z
-x,-y,1/2+z
-x+y,-x,z
y,-x+y,1/2+z
-x+y,y,z
x,x-y,z
-y,-x,z
y,x,1/2+z
x-y,-y,1/2+z
-x,-x+y,1/2+z
loop_
_atom_site_type_symbol
_atom_site_label
_atom_site_fract_x
_atom_site_fract_y
_atom_site_fract_z
Si Si1 0.509045 0.754523 0.756341
Si Si2 0.695527 0.847764 0.893499
Si Si3 0.846466 0.692932 0.117878
Si Si4 0.000000 0.000000 0.340151
Si Si5 0.393851 0.329274 0.524453
Si Si6 0.000000 0.000000 0.169728
O O1 0.405754 0.811507 0.756109
O O2 0.598582 0.799291 0.826292
O O3 0.600674 0.800337 0.687316
O O4 0.848357 0.924179 0.868848
O O5 0.662470 0.722678 0.945234
O O6 0.718151 0.665203 0.071585
O O7 0.924186 0.848372 0.141040
O O8 0.000000 0.000000 0.254931
O O9 0.417842 0.208921 0.551596
O O10 0.531050 0.468951 0.523145
#
# Coordination Sequence:
#
# PCOD9585404 Si02
#       6
#     6   6   6   2  12   2
#     4  10  22  36  58  83 121 157 209 244 306 354
#     4  10  21  36  62  86 121 151 199 256 297 367
#     4  12  21  40  58  87 124 161 195 259 306 371
#     4  12  21  37  62  94 114 157 203 241 315 361
#     4  10  22  36  61  86 120 154 205 245 308 361
#     4  12  21  37  56  94 114 154 200 250 306 355
#
# _framework density 15.684253
#
# number of rings (size 3 to 8) (size 9 to 14) (size 15 to 20)
#    1.412    0.000    3.529    3.529    0.000    1.412 
#    1.059    0.000    0.000    0.000    0.000    0.000 
#    0.000    0.000    0.000    0.000    0.000    0.000 
#
# Total GULP energy -189427.879305 kJ/mol
# GULP energy per Si atom -5571.408215 kJ/mol
# Density = 1.564855 g / cm^3
# Si number density = 15.684253 Si / 1000 Ang^3
#
#
#
# Elastic Constant Matrix: (Units=GPa)
#
#
# Indices 1 2 3 4 5 6 
#
# 1 127.0137 60.9760 70.8687 0.0000 0.0000 0.0000
# 2 60.9760 127.0137 70.8687 0.0000 0.0000 0.0000
# 3 70.8687 70.8687 148.7981 0.0000 0.0000 0.0000
# 4 0.0000 0.0000 0.0000 30.9795 0.0000 0.0000
# 5 0.0000 0.0000 0.0000 0.0000 30.9795 0.0000
# 6 0.0000 0.0000 0.0000 0.0000 0.0000 33.0188
#
#
#
# Elastic Compliance Matrix: (Units=1/GPa)
#
#
# Indices 1 2 3 4 5 6 
#
# 1 0.011721 -0.003421 -0.003953 0.000000 0.000000 0.000000
# 2 -0.003421 0.011721 -0.003953 0.000000 0.000000 0.000000
# 3 -0.003953 -0.003953 0.010486 0.000000 0.000000 0.000000
# 4 0.000000 0.000000 0.000000 0.032279 0.000000 0.000000
# 5 0.000000 0.000000 0.000000 0.000000 0.032279 0.000000
# 6 0.000000 0.000000 0.000000 0.000000 0.000000 0.030286
#
#
# Mechanical properties :
#
#
# Convention : Reuss Voigt Hill
#
# Bulk Modulus (GPa) = 88.70251 89.80580 89.25416
# Shear Modulus (GPa) = 32.21935 32.33636 32.27785
#
# Velocity S-wave (km/s) = 4.53730 4.54553 4.54142
# Velocity P-wave (km/s) = 9.17210 9.21586 9.19400
#
# Compressibility (1/GPa) = 0.01127364
#
# Stress axis : x y z
#
# Youngs Moduli (GPa) = 85.31425 85.31425 95.36562
#
# Poissons Ratio (x) = 0.29190 0.37698
# Poissons Ratio (y) = 0.29190 0.37698
# Poissons Ratio (z) = 0.33725 0.33725
#
# Static dielectric constant tensor:
#      x y z
#    x 1.500550 0.000000 0.000000 
#    y 0.000000 1.500550 0.000000 
#    z 0.000000 0.000000 1.503460 
# 
# From -- ./inp_files/2177.got.cif
#   From: 2010.05.17/outbox.cif.g08.bks.cpg/sg186_2_cif.got.tgz:2177.got - 2010.05.20 12:07:08.
