data_PCOD9585860
_publ_section_title
;
Structure prediction by ZEFSAII (Michael W. Deem and Ramdas Pophale) SiO2 
 PCOD9585860
Probable space group: P -6 C 2
;
_chemical_formula_sum "Si O2"
_cell_formula_units_Z 72
_cell_length_a 23.867797
_cell_length_b 23.867797
_cell_length_c 8.618205
_cell_angle_alpha 90.000000
_cell_angle_beta 90.000000
_cell_angle_gamma 120.000000
_cell_volume 4251.793101
_symmetry_space_group_name_H-M "P -6 C 2"
_symmetry_group_IT_number 188
_symmetry_cell_setting 'hexagonal'
loop_
_space_group_symop_operation_xyz
x,y,z
-x+y,-x,1/2-z
-y,x-y,z
x,y,1/2-z
-x+y,-x,z
-y,x-y,1/2-z
-y,-x,-z
-x+y,y,-z
x,x-y,-z
-x+y,y,1/2+z
x,x-y,1/2+z
-y,-x,1/2+z
loop_
_atom_site_type_symbol
_atom_site_label
_atom_site_fract_x
_atom_site_fract_y
_atom_site_fract_z
Si Si1 0.540138 0.332563 0.064237
Si Si2 0.472741 0.072594 0.064557
Si Si3 0.063388 0.594100 0.064610
Si Si4 0.603278 0.739233 0.564610
Si Si5 0.999230 0.873471 0.064237
Si Si6 0.193926 0.933186 0.064557
O O1 0.542403 0.334221 0.250000
O O2 0.606878 0.393123 0.000000
O O3 0.534323 0.267162 0.000000
O O4 0.481707 0.342835 0.004592
O O5 0.474262 0.075369 0.250000
O O6 0.536029 0.072057 0.000000
O O7 0.416087 0.003833 0.006075
O O8 0.055748 0.586415 0.250000
O O9 0.119563 0.666667 0.028914
O O10 0.074987 0.537494 0.000000
O O11 0.610918 0.746919 0.750000
O O12 0.591679 0.795840 0.500000
O O13 0.670499 0.749420 0.493925
O O14 0.000887 0.875737 0.250000
O O15 0.933828 0.867656 0.000000
O O16 0.009502 0.815040 0.004592
O O17 0.059790 0.940211 0.000000
O O18 0.192405 0.934441 0.250000
O O19 0.130639 0.869361 0.000000
#
# Coordination Sequence:
#
# PCOD9585860 Si02
#       6
#    12  12  12  12  12  12
#     4  11  20  31  45  65  94 128 168 212 260 309
#     4  10  18  30  48  70  96 128 165 205 249 293
#     4  10  20  34  54  80 107 134 164 199 239 283
#     4  10  20  34  54  80 107 134 164 199 239 283
#     4  11  20  31  45  65  94 128 168 212 260 309
#     4  10  18  30  48  70  96 128 165 205 249 293
#
# _framework density 16.934031000000001
#
# number of rings (size 3 to 8) (size 9 to 14) (size 15 to 20)
#    0.000    1.667    0.000   11.333    0.000    2.667 
#    0.000    0.000    0.000    1.333    0.000    0.000 
#    0.000    0.000    0.000    0.000    0.000    0.000 
#
# Total GULP energy -401589.331648 kJ/mol
# GULP energy per Si atom -5577.629606 kJ/mol
# Density = 1.689549 g / cm^3
# Si number density = 16.934031 Si / 1000 Ang^3
#
#
#
# Elastic Constant Matrix: (Units=GPa)
#
#
# Indices 1 2 3 4 5 6 
#
# 1 100.0390 53.5958 52.8817 -0.0002 0.0000 0.0000
# 2 53.5958 100.0390 52.8817 0.0002 0.0000 0.0000
# 3 52.8817 52.8817 162.2616 0.0000 0.0000 0.0000
# 4 -0.0002 0.0002 0.0000 8.8859 0.0000 0.0000
# 5 0.0000 0.0000 0.0000 0.0000 8.8859 -0.0002
# 6 0.0000 0.0000 0.0000 0.0000 -0.0002 23.2216
#
#
#
# Elastic Compliance Matrix: (Units=1/GPa)
#
#
# Indices 1 2 3 4 5 6 
#
# 1 0.014962 -0.006570 -0.002735 0.000001 0.000000 0.000000
# 2 -0.006570 0.014962 -0.002735 -0.000001 0.000000 0.000000
# 3 -0.002735 -0.002735 0.007945 0.000000 0.000000 0.000000
# 4 0.000001 -0.000001 0.000000 0.112538 0.000000 0.000000
# 5 0.000000 0.000000 0.000000 0.000000 0.112538 0.000001
# 6 0.000000 0.000000 0.000000 0.000000 0.000001 0.043063
#
#
# Mechanical properties :
#
#
# Convention : Reuss Voigt Hill
#
# Bulk Modulus (GPa) = 72.51996 75.67314 74.09655
# Shear Modulus (GPa) = 14.93943 21.73069 18.33506
#
# Velocity S-wave (km/s) = 2.97343 3.58614 3.29406
# Velocity P-wave (km/s) = 7.39637 7.86964 7.63667
#
# Compressibility (1/GPa) = 0.01378931
#
# Stress axis : x y z
#
# Youngs Moduli (GPa) = 66.83751 66.83751 125.85741
#
# Poissons Ratio (x) = 0.43912 0.34420
# Poissons Ratio (y) = 0.43912 0.34420
# Poissons Ratio (z) = 0.18279 0.18279
#
# Static dielectric constant tensor:
#      x y z
#    x 1.552030 0.000000 0.000000 
#    y 0.000000 1.552030 0.000000 
#    z 0.000000 0.000000 1.563420 
# 
# From -- ./inp_files/1020.got.cif
#   From: 2010.05.17/outbox.cif.g08.bks.cpg/sg188_1_cif.got.tgz:1020.got - 2010.05.20 12:11:46.
