data_PCOD9585803
_publ_section_title
;
Structure prediction by ZEFSAII (Michael W. Deem and Ramdas Pophale) SiO2 
 PCOD9585803
Probable space group: P -6 M 2
;
_chemical_formula_sum "Si O2"
_cell_formula_units_Z 84
_cell_length_a 18.762779
_cell_length_b 18.762779
_cell_length_c 14.321720
_cell_angle_alpha 90.000000
_cell_angle_beta 90.000000
_cell_angle_gamma 120.000000
_cell_volume 4366.366002
_symmetry_space_group_name_H-M "P -6 M 2"
_symmetry_group_IT_number 187
_symmetry_cell_setting 'hexagonal'
loop_
_space_group_symop_operation_xyz
x,y,z
-x+y,-x,-z
-y,x-y,z
x,y,-z
-x+y,-x,z
-y,x-y,-z
-y,-x,-z
-x+y,y,-z
x,x-y,-z
-x+y,y,z
x,x-y,z
-y,-x,z
loop_
_atom_site_type_symbol
_atom_site_label
_atom_site_fract_x
_atom_site_fract_y
_atom_site_fract_z
Si Si1 0.334108 0.822840 0.887423
Si Si2 0.836986 0.835292 0.611442
Si Si3 0.831710 0.501229 0.193474
Si Si4 0.243990 0.322318 0.270652
Si Si5 0.641707 0.525316 0.601213
Si Si6 0.638580 0.999304 0.890700
Si Si7 0.082379 0.622904 0.392203
O O1 0.398575 0.797150 0.851464
O O2 0.241643 0.758358 0.855260
O O3 0.370452 0.919474 0.871692
O O4 0.331892 0.816101 0.000000
O O5 0.830450 0.825070 0.500000
O O6 0.911541 0.823082 0.644405
O O7 0.749799 0.774207 0.656584
O O8 0.856166 0.928083 0.631200
O O9 0.750942 0.501883 0.158474
O O10 0.819114 0.409557 0.191732
O O11 0.847993 0.533398 0.300993
O O12 0.914605 0.561012 0.137183
O O13 0.157587 0.315173 0.246353
O O14 0.286805 0.309254 0.180551
O O15 0.302214 0.409638 0.321912
O O16 0.685237 0.546071 0.500000
O O17 0.569974 0.430027 0.597391
O O18 0.593634 0.576251 0.608582
O O19 0.657185 0.998942 0.000000
O O20 0.108483 0.648763 0.500000
O O21 0.105317 0.552659 0.367119
#
# Coordination Sequence:
#
# PCOD9585803 Si02
#       7
#    12  12  12  12  12  12  12
#     4   9  17  31  54  83 110 135 169 219 279 340
#     4   9  18  34  58  89 123 153 179 215 274 348
#     4  11  23  40  62  88 117 150 192 242 294 348
#     4  11  22  36  58  87 117 148 192 246 291 335
#     4   8  15  31  56  84 114 149 186 224 273 337
#     4  11  24  41  58  76 108 154 200 243 294 353
#     4   9  17  32  55  83 118 159 197 230 274 340
#
# _framework density 19.237966
#
# number of rings (size 3 to 8) (size 9 to 14) (size 15 to 20)
#    0.000    2.286    1.429    2.571    0.000    5.429 
#    0.000    0.000    0.000    2.000    0.000    0.000 
#    0.000    1.143    0.000    0.000    0.000    0.000 
#
# Total GULP energy -468263.279959 kJ/mol
# GULP energy per Si atom -5574.562857 kJ/mol
# Density = 1.919418 g / cm^3
# Si number density = 19.237966 Si / 1000 Ang^3
#
#
#
# Elastic Constant Matrix: (Units=GPa)
#
#
# Indices 1 2 3 4 5 6 
#
# 1 84.1019 49.7278 31.8288 0.0000 0.0003 0.0000
# 2 49.7278 84.1019 31.8288 0.0000 -0.0003 0.0000
# 3 31.8288 31.8288 71.9790 0.0000 0.0000 0.0000
# 4 0.0000 0.0000 0.0000 15.8457 0.0000 -0.0003
# 5 0.0003 -0.0003 0.0000 0.0000 15.8457 0.0000
# 6 0.0000 0.0000 0.0000 -0.0003 0.0000 17.1870
#
#
#
# Elastic Compliance Matrix: (Units=1/GPa)
#
#
# Indices 1 2 3 4 5 6 
#
# 1 0.019277 -0.009815 -0.004184 0.000000 -0.000001 0.000000
# 2 -0.009815 0.019277 -0.004184 0.000000 0.000001 0.000000
# 3 -0.004184 -0.004184 0.017593 0.000000 0.000000 0.000000
# 4 0.000000 0.000000 0.000000 0.063109 0.000000 0.000001
# 5 -0.000001 0.000001 0.000000 0.000000 0.063109 0.000000
# 6 0.000000 0.000000 0.000000 0.000001 0.000000 0.058183
#
#
# Mechanical properties :
#
#
# Convention : Reuss Voigt Hill
#
# Bulk Modulus (GPa) = 50.55265 51.88374 51.21819
# Shear Modulus (GPa) = 17.63615 18.22883 17.93249
#
# Velocity S-wave (km/s) = 3.03105 3.08156 3.05641
# Velocity P-wave (km/s) = 6.21162 6.29995 6.25594
#
# Compressibility (1/GPa) = 0.01978136
#
# Stress axis : x y z
#
# Youngs Moduli (GPa) = 51.87506 51.87506 56.83923
#
# Poissons Ratio (x) = 0.50913 0.23783
# Poissons Ratio (y) = 0.50913 0.23783
# Poissons Ratio (z) = 0.21706 0.21706
#
# Static dielectric constant tensor:
#      x y z
#    x 1.675250 0.000000 0.000000 
#    y 0.000000 1.675250 0.000000 
#    z 0.000000 0.000000 1.709480 
# 
# From -- ./inp_files/2601.got.cif
#   From: 2010.05.17/outbox.cif.g08.bks.cpg/sg187_2_cif.got.tgz:2601.got - 2010.05.20 12:09:04.
