data_PCOD9585172
_publ_section_title
;
Structure prediction by ZEFSAII (Michael W. Deem and Ramdas Pophale) SiO2 
 PCOD9585172
Probable space group: P 6 C C
;
_chemical_formula_sum "Si O2"
_cell_formula_units_Z 78
_cell_length_a 22.643043
_cell_length_b 22.643043
_cell_length_c 8.531791
_cell_angle_alpha 90.000000
_cell_angle_beta 90.000000
_cell_angle_gamma 120.000000
_cell_volume 3788.265619
_symmetry_space_group_name_H-M "P 6 C C"
_symmetry_group_IT_number 184
_symmetry_cell_setting 'hexagonal'
loop_
_space_group_symop_operation_xyz
x,y,z
x-y,x,z
-y,x-y,z
-x,-y,z
-x+y,-x,z
y,-x+y,z
-x+y,y,1/2+z
x,x-y,1/2+z
-y,-x,1/2+z
y,x,1/2+z
x-y,-y,1/2+z
-x,-x+y,1/2+z
loop_
_atom_site_type_symbol
_atom_site_label
_atom_site_fract_x
_atom_site_fract_y
_atom_site_fract_z
Si Si1 0.799587 0.464850 0.149090
Si Si2 0.617921 0.685862 0.128686
Si Si3 0.875825 0.620403 0.445917
Si Si4 0.794882 0.462208 0.790898
Si Si5 0.605539 0.059915 0.527526
Si Si6 0.382439 0.125844 0.308063
Si Si7 0.500000 0.000000 0.258282
O O1 0.867729 0.540287 0.141299
O O2 0.735862 0.468550 0.220244
O O3 0.804940 0.402778 0.223140
O O4 0.779911 0.444278 0.970888
O O5 0.650612 0.722719 0.295968
O O6 0.621792 0.617577 0.103516
O O7 0.647184 0.724987 0.962073
O O8 0.874176 0.548772 0.476301
O O9 0.807756 0.613444 0.375440
O O10 0.887492 0.647860 0.628447
O O11 0.859211 0.539983 0.788625
O O12 0.563805 0.026240 0.370595
O O13 0.550175 0.059369 0.642282
#
# Coordination Sequence:
#
# PCOD9585172 Si02
#       7
#    12  12  12  12  12  12   6
#     4  11  23  35  54  70 104 127 178 218 271 336
#     4  11  24  41  59  87 108 145 185 229 287 345
#     4  12  22  41  64  80 114 137 182 225 276 346
#     4  11  22  37  51  73  96 135 168 218 272 326
#     4  11  23  40  58  83 112 144 182 237 286 354
#     4  11  23  40  60  82 106 144 184 224 277 345
#     4  10  22  38  56  80 116 142 186 228 292 352
#
# _framework density 20.589894999999999
#
# number of rings (size 3 to 8) (size 9 to 14) (size 15 to 20)
#    0.000    0.923    4.615    3.077    2.154    4.923 
#    0.000    0.000    0.000    0.000    0.000    0.000 
#    0.000    0.000    0.000    0.000    0.000    0.000 
#
# Total GULP energy -435094.336048 kJ/mol
# GULP energy per Si atom -5578.132513 kJ/mol
# Density = 2.054303 g / cm^3
# Si number density = 20.589895 Si / 1000 Ang^3
#
#
#
# Elastic Constant Matrix: (Units=GPa)
#
#
# Indices 1 2 3 4 5 6 
#
# 1 67.3825 17.6543 25.3622 0.0000 0.0000 0.0000
# 2 17.6543 67.3825 25.3622 0.0000 0.0000 0.0000
# 3 25.3622 25.3622 216.1607 0.0000 0.0000 0.0000
# 4 0.0000 0.0000 0.0000 20.7603 0.0000 0.0000
# 5 0.0000 0.0000 0.0000 0.0000 20.7603 0.0000
# 6 0.0000 0.0000 0.0000 0.0000 0.0000 24.8641
#
#
#
# Elastic Compliance Matrix: (Units=1/GPa)
#
#
# Indices 1 2 3 4 5 6 
#
# 1 0.016377 -0.003732 -0.001484 0.000000 0.000000 0.000000
# 2 -0.003732 0.016377 -0.001484 0.000000 0.000000 0.000000
# 3 -0.001484 -0.001484 0.004974 0.000000 0.000000 0.000000
# 4 0.000000 0.000000 0.000000 0.048169 0.000000 0.000000
# 5 0.000000 0.000000 0.000000 0.000000 0.048169 0.000000
# 6 0.000000 0.000000 0.000000 0.000000 0.000000 0.040219
#
#
# Mechanical properties :
#
#
# Convention : Reuss Voigt Hill
#
# Bulk Modulus (GPa) = 41.10305 54.18703 47.64504
# Shear Modulus (GPa) = 25.53713 32.11341 28.82527
#
# Velocity S-wave (km/s) = 3.52557 3.95355 3.74568
# Velocity P-wave (km/s) = 6.04805 6.87133 6.47279
#
# Compressibility (1/GPa) = 0.02432910
#
# Stress axis : x y z
#
# Youngs Moduli (GPa) = 61.06147 61.06147 201.03211
#
# Poissons Ratio (x) = 0.22790 0.29825
# Poissons Ratio (y) = 0.22790 0.29825
# Poissons Ratio (z) = 0.09059 0.09059
#
# Static dielectric constant tensor:
#      x y z
#    x 1.781890 0.000000 0.000000 
#    y 0.000000 1.781890 0.000000 
#    z 0.000000 0.000000 1.904970 
# 
# From -- ./inp_files/383.got.cif
#   From: 2010.05.17/outbox.cif.g08.bks.cpg/sg184_cif.got.tgz:383.got - 2010.05.20 12:04:40.
