data_PCOD9585684
_publ_section_title
;
Structure prediction by ZEFSAII (Michael W. Deem and Ramdas Pophale) SiO2 
 PCOD9585684
Probable space group: P -6 M 2
;
_chemical_formula_sum "Si O2"
_cell_formula_units_Z 72
_cell_length_a 23.788277
_cell_length_b 23.788277
_cell_length_c 7.594706
_cell_angle_alpha 90.000000
_cell_angle_beta 90.000000
_cell_angle_gamma 120.000000
_cell_volume 3721.924611
_symmetry_space_group_name_H-M "P -6 M 2"
_symmetry_group_IT_number 187
_symmetry_cell_setting 'hexagonal'
loop_
_space_group_symop_operation_xyz
x,y,z
-x+y,-x,-z
-y,x-y,z
x,y,-z
-x+y,-x,z
-y,x-y,-z
-y,-x,-z
-x+y,y,-z
x,x-y,-z
-x+y,y,z
x,x-y,z
-y,-x,z
loop_
_atom_site_type_symbol
_atom_site_label
_atom_site_fract_x
_atom_site_fract_y
_atom_site_fract_z
Si Si1 0.086512 0.481002 0.290879
Si Si2 0.992627 0.736285 0.706380
Si Si3 0.394343 0.134337 0.206031
Si Si4 0.128896 0.999884 0.213163
Si Si5 0.125724 0.744919 0.283972
Si Si6 0.595591 0.530268 0.786714
O O1 0.098285 0.489305 0.500000
O O2 0.101216 0.550608 0.217396
O O3 0.123630 0.444587 0.224269
O O4 0.009563 0.432285 0.265499
O O5 0.989138 0.721435 0.500000
O O6 0.927203 0.678064 0.785431
O O7 0.996261 0.804716 0.730926
O O8 0.058948 0.741275 0.774704
O O9 0.397072 0.198536 0.282506
O O10 0.441819 0.110191 0.281132
O O11 0.411006 0.147331 0.000000
O O12 0.126107 0.063054 0.272840
O O13 0.127739 0.999736 0.000000
O O14 0.066254 0.933747 0.274051
O O15 0.125470 0.745337 0.500000
O O16 0.189249 0.810752 0.227611
O O17 0.541806 0.458195 0.728517
O O18 0.597003 0.530397 0.000000
#
# Coordination Sequence:
#
# PCOD9585684 Si02
#       6
#    12  12  12  12  12  12
#     4   9  16  28  48  71  93 120 156 194 231 275
#     4  11  21  33  49  71  97 127 162 202 248 293
#     4  10  20  33  49  70  99 132 162 195 239 291
#     4  10  21  37  54  69  88 120 162 205 249 298
#     4   9  17  29  45  67  97 128 155 189 236 284
#     4   9  17  30  49  71  95 122 153 193 237 278
#
# _framework density 19.344829000000001
#
# number of rings (size 3 to 8) (size 9 to 14) (size 15 to 20)
#    0.000    2.333    1.667    1.667    0.000    4.333 
#    0.000    0.000    0.000    3.167    0.000    4.667 
#    0.000    0.000    0.000    3.833    0.000    4.833 
#
# Total GULP energy -401849.640718 kJ/mol
# GULP energy per Si atom -5581.245010 kJ/mol
# Density = 1.930080 g / cm^3
# Si number density = 19.344829 Si / 1000 Ang^3
#
#
#
# Elastic Constant Matrix: (Units=GPa)
#
#
# Indices 1 2 3 4 5 6 
#
# 1 107.7498 55.6392 -8.5207 0.0000 0.0066 0.0000
# 2 55.6392 107.7498 -8.5207 0.0000 -0.0066 0.0000
# 3 -8.5207 -8.5207 41.2880 0.0000 0.0000 0.0000
# 4 0.0000 0.0000 0.0000 -15.1682 0.0000 -0.0066
# 5 0.0066 -0.0066 0.0000 0.0000 -15.1682 0.0000
# 6 0.0000 0.0000 0.0000 -0.0066 0.0000 26.0553
#
#
#
# Elastic Compliance Matrix: (Units=1/GPa)
#
#
# Indices 1 2 3 4 5 6 
#
# 1 0.012722 -0.006467 0.001291 0.000000 0.000008 0.000000
# 2 -0.006467 0.012722 0.001291 0.000000 -0.000008 0.000000
# 3 0.001291 0.001291 0.024753 0.000000 0.000000 0.000000
# 4 0.000000 0.000000 0.000000 -0.065927 0.000000 -0.000017
# 5 0.000008 -0.000008 0.000000 0.000000 -0.065927 0.000000
# 6 0.000000 0.000000 0.000000 -0.000017 0.000000 0.038380
#
#
# Mechanical properties :
#
#
# Convention : Reuss Voigt Hill
#
# Bulk Modulus (GPa) = 23.57025 37.10923 30.33974
# Shear Modulus (GPa) = -234.04493 13.68978 -110.17757
#
# Velocity S-wave (km/s) = -11.01129 2.66310 -7.55501
# Velocity P-wave (km/s) = 12.22513 5.35544 7.77088
#
# Compressibility (1/GPa) = 0.04242636
#
# Stress axis : x y z
#
# Youngs Moduli (GPa) = 78.60114 78.60114 40.39930
#
# Poissons Ratio (x) = 0.50835 -0.05215
# Poissons Ratio (y) = 0.50835 -0.05215
# Poissons Ratio (z) = -0.10146 -0.10146
#
# Static dielectric constant tensor:
#      x y z
#    x 1.666880 0.000000 0.000000 
#    y 0.000000 1.666880 0.000000 
#    z 0.000000 0.000000 1.792290 
# 
# From -- ./inp_files/947.got.cif
#   From: 2010.05.17/outbox.cif.g08.bks.cpg/sg187_1_cif.got.tgz:947.got - 2010.05.20 12:09:04.
