data_PCOD9585714
_publ_section_title
;
Structure prediction by ZEFSAII (Michael W. Deem and Ramdas Pophale) SiO2 
 PCOD9585714
Probable space group: P -6 M 2
;
_chemical_formula_sum "Si O2"
_cell_formula_units_Z 44
_cell_length_a 17.634014
_cell_length_b 17.634014
_cell_length_c 7.436256
_cell_angle_alpha 90.000000
_cell_angle_beta 90.000000
_cell_angle_gamma 120.000000
_cell_volume 2002.568251
_symmetry_space_group_name_H-M "P -6 M 2"
_symmetry_group_IT_number 187
_symmetry_cell_setting 'hexagonal'
loop_
_space_group_symop_operation_xyz
x,y,z
-x+y,-x,-z
-y,x-y,z
x,y,-z
-x+y,-x,z
-y,x-y,-z
-y,-x,-z
-x+y,y,-z
x,x-y,-z
-x+y,y,z
x,x-y,z
-y,-x,z
loop_
_atom_site_type_symbol
_atom_site_label
_atom_site_fract_x
_atom_site_fract_y
_atom_site_fract_z
Si Si1 0.461296 0.230648 0.218772
Si Si2 0.168621 0.166933 0.718488
Si Si3 0.443782 0.056365 0.213462
Si Si4 0.100379 0.733721 0.284061
Si Si5 0.666668 0.333334 0.217347
O O1 0.422565 0.130683 0.282820
O O2 0.564644 0.282322 0.269064
O O3 0.455442 0.227721 0.000000
O O4 0.173514 0.169122 0.500000
O O5 0.195619 0.097810 0.783495
O O6 0.225405 0.266389 0.781266
O O7 0.068204 0.136407 0.763967
O O8 0.535595 0.071189 0.286589
O O9 0.367730 0.956765 0.239336
O O10 0.454775 0.070307 0.000000
O O11 0.102897 0.738376 0.500000
O O12 0.199613 0.800388 0.221353
O O13 0.666667 0.333334 0.000000
#
# Coordination Sequence:
#
# PCOD9585714 Si02
#       5
#     6  12  12  12   2
#     4   9  16  28  47  75 109 143 179 215 253 302
#     4   8  13  22  38  61  89 122 159 195 229 268
#     4  10  20  33  52  78 104 134 174 215 256 306
#     4   9  19  34  50  71 100 132 167 209 256 304
#     4   9  12  24  48  69 103 149 181 213 247 290
#
# _framework density 21.971785000000001
#
# number of rings (size 3 to 8) (size 9 to 14) (size 15 to 20)
#    0.000    3.000    1.364    1.909    1.909    2.182 
#    0.000    0.000    0.000    0.545    0.000    0.000 
#    0.000    0.000    0.000    0.000    0.000    0.000 
#
# Total GULP energy -245363.714968 kJ/mol
# GULP energy per Si atom -5576.448067 kJ/mol
# Density = 2.192178 g / cm^3
# Si number density = 21.971785 Si / 1000 Ang^3
#
#
#
# Elastic Constant Matrix: (Units=GPa)
#
#
# Indices 1 2 3 4 5 6 
#
# 1 85.3826 33.4976 1.9124 0.0000 0.0001 -0.0001
# 2 33.4976 85.3826 1.9124 0.0000 -0.0001 0.0000
# 3 1.9124 1.9124 67.9748 0.0000 0.0000 0.0000
# 4 0.0000 0.0000 0.0000 5.7085 0.0000 -0.0001
# 5 0.0001 -0.0001 0.0000 0.0000 5.7085 0.0000
# 6 -0.0001 0.0000 0.0000 -0.0001 0.0000 25.9424
#
#
#
# Elastic Compliance Matrix: (Units=1/GPa)
#
#
# Indices 1 2 3 4 5 6 
#
# 1 0.013846 -0.005427 -0.000237 0.000000 0.000000 0.000000
# 2 -0.005427 0.013846 -0.000237 0.000000 0.000000 0.000000
# 3 -0.000237 -0.000237 0.014725 0.000000 0.000000 0.000000
# 4 0.000000 0.000000 0.000000 0.175177 0.000000 0.000000
# 5 0.000000 0.000000 0.000000 0.000000 0.175177 0.000000
# 6 0.000000 0.000000 0.000000 0.000000 0.000000 0.038547
#
#
# Mechanical properties :
#
#
# Convention : Reuss Voigt Hill
#
# Bulk Modulus (GPa) = 32.66260 34.82055 33.74158
# Shear Modulus (GPa) = 11.02960 20.89972 15.96466
#
# Velocity S-wave (km/s) = 2.24294 3.08751 2.69847
# Velocity P-wave (km/s) = 4.64819 5.34720 5.00990
#
# Compressibility (1/GPa) = 0.03061606
#
# Stress axis : x y z
#
# Youngs Moduli (GPa) = 72.22074 72.22076 67.91326
#
# Poissons Ratio (x) = 0.39194 0.01609
# Poissons Ratio (y) = 0.39194 0.01609
# Poissons Ratio (z) = 0.01711 0.01711
#
# Static dielectric constant tensor:
#      x y z
#    x 1.827160 0.000000 0.000000 
#    y 0.000000 1.827160 0.000000 
#    z 0.000000 0.000000 1.861920 
# 
# From -- ./inp_files/382.got.cif
#   From: 2010.05.17/outbox.cif.g08.bks.cpg/sg187_1_cif.got.tgz:382.got - 2010.05.20 12:09:04.
