data_PCOD9585379
_publ_section_title
;
Structure prediction by ZEFSAII (Michael W. Deem and Ramdas Pophale) SiO2 
 PCOD9585379
Probable space group: P 63 M C
;
_chemical_formula_sum "Si O2"
_cell_formula_units_Z 96
_cell_length_a 17.192608
_cell_length_b 17.192608
_cell_length_c 21.771634
_cell_angle_alpha 90.000000
_cell_angle_beta 90.000000
_cell_angle_gamma 120.000000
_cell_volume 5573.207063
_symmetry_space_group_name_H-M "P 63 M C"
_symmetry_group_IT_number 186
_symmetry_cell_setting 'hexagonal'
loop_
_space_group_symop_operation_xyz
x,y,z
x-y,x,1/2+z
-y,x-y,z
-x,-y,1/2+z
-x+y,-x,z
y,-x+y,1/2+z
-x+y,y,z
x,x-y,z
-y,-x,z
y,x,1/2+z
x-y,-y,1/2+z
-x,-x+y,1/2+z
loop_
_atom_site_type_symbol
_atom_site_label
_atom_site_fract_x
_atom_site_fract_y
_atom_site_fract_z
Si Si1 0.334469 0.483683 0.966700
Si Si2 0.847098 0.334154 0.986711
Si Si3 0.333382 0.491542 0.187508
Si Si4 0.911806 0.274081 0.581431
Si Si5 0.585184 0.992347 0.377996
Si Si6 0.665774 0.513312 0.128671
Si Si7 0.709012 0.945230 0.670225
Si Si8 0.673300 0.925108 0.279887
O O1 0.249104 0.498208 0.963001
O O2 0.424157 0.575844 0.986210
O O3 0.359412 0.452751 0.903814
O O4 0.308387 0.402240 0.014517
O O5 0.813522 0.406761 0.984635
O O6 0.764951 0.235049 0.974014
O O7 0.924734 0.366517 0.936295
O O8 0.877824 0.337633 0.057411
O O9 0.261729 0.523457 0.173637
O O10 0.426686 0.573315 0.206219
O O11 0.340049 0.441041 0.127755
O O12 0.291971 0.417241 0.239641
O O13 0.822684 0.177317 0.589088
O O14 0.992774 0.264428 0.609317
O O15 0.489608 0.979215 0.353234
O O16 0.646084 0.971176 0.333189
O O17 0.742555 0.485110 0.129258
O O18 0.569680 0.430321 0.145335
O O19 0.701208 0.600431 0.171029
O O20 0.730533 0.865267 0.665233
O O21 0.749995 0.005106 0.731036
O O22 0.695880 0.847940 0.299929
#
# Coordination Sequence:
#
# PCOD9585379 Si02
#       8
#    12  12  12  12  12  12  12  12
#     4  10  20  34  53  78 109 143 175 203 232 273
#     4   9  16  27  44  68  99 133 169 208 251 299
#     4   9  16  26  43  68  99 133 166 200 240 290
#     4   9  18  32  50  74 103 131 158 195 244 294
#     4  10  20  32  48  71  99 134 175 214 249 288
#     4   9  17  28  44  68  98 131 164 200 244 294
#     4  10  20  33  51  73  96 125 162 206 256 308
#     4  10  21  36  51  68  93 126 165 212 262 306
#
# _framework density 17.225270999999999
#
# number of rings (size 3 to 8) (size 9 to 14) (size 15 to 20)
#    0.000    2.500    0.000    3.500    0.000    5.500 
#    0.000    1.875    0.000    6.000    0.000    4.375 
#    0.000    1.000    0.000    0.000    0.000    0.000 
#
# Total GULP energy -534810.081056 kJ/mol
# GULP energy per Si atom -5570.938344 kJ/mol
# Density = 1.718607 g / cm^3
# Si number density = 17.225271 Si / 1000 Ang^3
#
#
#
# Elastic Constant Matrix: (Units=GPa)
#
#
# Indices 1 2 3 4 5 6 
#
# 1 76.5647 42.1627 25.8252 0.0000 0.0000 0.0000
# 2 42.1627 76.5647 25.8252 0.0000 0.0000 0.0000
# 3 25.8252 25.8252 45.0636 0.0000 0.0000 0.0000
# 4 0.0000 0.0000 0.0000 17.5339 0.0000 0.0000
# 5 0.0000 0.0000 0.0000 0.0000 17.5339 0.0000
# 6 0.0000 0.0000 0.0000 0.0000 0.0000 17.2010
#
#
#
# Elastic Compliance Matrix: (Units=1/GPa)
#
#
# Indices 1 2 3 4 5 6 
#
# 1 0.020144 -0.008924 -0.006430 0.000000 0.000000 0.000000
# 2 -0.008924 0.020144 -0.006430 0.000000 0.000000 0.000000
# 3 -0.006430 -0.006430 0.029561 0.000000 0.000000 0.000000
# 4 0.000000 0.000000 0.000000 0.057033 0.000000 0.000000
# 5 0.000000 0.000000 0.000000 0.000000 0.057033 0.000000
# 6 0.000000 0.000000 0.000000 0.000000 0.000000 0.058136
#
#
# Mechanical properties :
#
#
# Convention : Reuss Voigt Hill
#
# Bulk Modulus (GPa) = 38.05078 42.86882 40.45980
# Shear Modulus (GPa) = 16.98496 17.41240 17.19868
#
# Velocity S-wave (km/s) = 3.14355 3.18286 3.16326
# Velocity P-wave (km/s) = 5.94255 6.20070 6.07300
#
# Compressibility (1/GPa) = 0.02628067
#
# Stress axis : x y z
#
# Youngs Moduli (GPa) = 49.64258 49.64258 33.82877
#
# Poissons Ratio (x) = 0.44302 0.21752
# Poissons Ratio (y) = 0.44302 0.21752
# Poissons Ratio (z) = 0.31920 0.31920
#
# Static dielectric constant tensor:
#      x y z
#    x 1.597220 0.000000 0.000000 
#    y 0.000000 1.597220 0.000000 
#    z 0.000000 0.000000 1.604360 
# 
# From -- ./inp_files/3578.got.cif
#   From: 2010.05.17/outbox.cif.g08.bks.cpg/sg186_2_cif.got.tgz:3578.got - 2010.05.20 12:07:08.
