data_PCOD9585006
_publ_section_title
;
Structure prediction by ZEFSAII (Michael W. Deem and Ramdas Pophale) SiO2 
 PCOD9585006
Probable space group: P 6 M M
;
_chemical_formula_sum "Si O2"
_cell_formula_units_Z 96
_cell_length_a 18.056913
_cell_length_b 18.056913
_cell_length_c 20.994658
_cell_angle_alpha 90.000000
_cell_angle_beta 90.000000
_cell_angle_gamma 120.000000
_cell_volume 5928.249144
_symmetry_space_group_name_H-M "P 6 M M"
_symmetry_group_IT_number 183
_symmetry_cell_setting 'hexagonal'
loop_
_space_group_symop_operation_xyz
x,y,z
x-y,x,z
-y,x-y,z
-x,-y,z
-x+y,-x,z
y,-x+y,z
-x+y,y,z
x,x-y,z
-y,-x,z
y,x,z
x-y,-y,z
-x,-x+y,z
loop_
_atom_site_type_symbol
_atom_site_label
_atom_site_fract_x
_atom_site_fract_y
_atom_site_fract_z
Si Si1 0.731934 0.629480 0.955180
Si Si2 0.896842 0.364431 0.080025
Si Si3 0.633389 0.900860 0.708538
Si Si4 0.097292 0.638287 0.455181
Si Si5 0.366611 0.267471 0.201822
Si Si6 0.836518 0.331196 0.593847
Si Si7 0.668804 0.163482 0.316515
Si Si8 0.364431 0.467589 0.830336
O O1 0.833831 0.667662 0.955180
O O2 0.697260 0.697260 0.955180
O O3 0.692647 0.569527 0.893195
O O4 0.692647 0.569528 0.017165
O O5 0.862446 0.431223 0.078925
O O6 0.874562 0.307987 0.143377
O O7 0.000000 0.421756 0.080752
O O8 0.666572 0.833286 0.706786
O O9 0.579854 0.889061 0.644282
O O10 0.566574 0.874562 0.766983
O O11 0.704421 0.000000 0.716590
O O12 0.096077 0.548039 0.455180
O O13 0.141243 0.680551 0.521537
O O14 0.141241 0.680551 0.388824
O O15 0.000000 0.616483 0.455181
O O16 0.333427 0.166714 0.203574
O O17 0.295580 0.295580 0.193771
O O18 0.420147 0.309206 0.266079
O O19 0.854414 0.427207 0.601584
O O20 0.737183 0.262817 0.605099
O O21 0.572793 0.145586 0.308778
O O22 0.737183 0.262818 0.305263
O O23 0.431223 0.568778 0.831436
O O24 0.421757 0.421757 0.829608
#
# Coordination Sequence:
#
# PCOD9585006 Si02
#       8
#    12  12  12  12  12  12  12  12
#     4  10  19  31  49  72  97 127 164 204 243 283
#     4   9  17  30  49  71  93 119 152 188 227 274
#     4  10  20  33  50  71  94 122 156 194 234 277
#     4   9  17  28  42  60  84 119 161 197 227 264
#     4  10  20  33  50  71  94 122 156 194 234 277
#     4  10  19  30  45  66  93 124 157 193 232 274
#     4  10  19  30  45  66  93 124 157 193 232 274
#     4   9  17  30  49  71  93 119 152 188 227 274
#
# _framework density 16.193650000000002
#
# number of rings (size 3 to 8) (size 9 to 14) (size 15 to 20)
#    0.000    2.375    0.000    3.250    0.000    4.000 
#    0.000    1.250    0.000    8.875    0.000    0.000 
#    0.000    6.000    0.000    0.000    0.000   26.500 
#
# Total GULP energy -534949.084127 kJ/mol
# GULP energy per Si atom -5572.386293 kJ/mol
# Density = 1.615679 g / cm^3
# Si number density = 16.193650 Si / 1000 Ang^3
#
#
#
# Elastic Constant Matrix: (Units=GPa)
#
#
# Indices 1 2 3 4 5 6 
#
# 1 79.7646 49.4616 29.0489 0.0000 0.0000 0.0000
# 2 49.4616 79.7646 29.0489 0.0000 0.0000 0.0000
# 3 29.0489 29.0489 114.8330 0.0000 0.0000 0.0000
# 4 0.0000 0.0000 0.0000 10.3068 0.0000 0.0000
# 5 0.0000 0.0000 0.0000 0.0000 10.3068 0.0000
# 6 0.0000 0.0000 0.0000 0.0000 0.0000 15.1515
#
#
#
# Elastic Compliance Matrix: (Units=1/GPa)
#
#
# Indices 1 2 3 4 5 6 
#
# 1 0.020866 -0.012134 -0.002209 0.000000 0.000000 0.000000
# 2 -0.012134 0.020866 -0.002209 0.000000 0.000000 0.000000
# 3 -0.002209 -0.002209 0.009826 0.000000 0.000000 0.000000
# 4 0.000000 0.000000 0.000000 0.097023 0.000000 0.000000
# 5 0.000000 0.000000 0.000000 0.000000 0.097023 0.000000
# 6 0.000000 0.000000 0.000000 0.000000 0.000000 0.066000
#
#
# Mechanical properties :
#
#
# Convention : Reuss Voigt Hill
#
# Bulk Modulus (GPa) = 54.19013 54.38680 54.28846
# Shear Modulus (GPa) = 14.25077 18.27321 16.26199
#
# Velocity S-wave (km/s) = 2.96974 3.36284 3.17238
# Velocity P-wave (km/s) = 6.73020 6.98115 6.85682
#
# Compressibility (1/GPa) = 0.01845355
#
# Stress axis : x y z
#
# Youngs Moduli (GPa) = 47.92544 47.92544 101.77314
#
# Poissons Ratio (x) = 0.58154 0.22479
# Poissons Ratio (y) = 0.58154 0.22479
# Poissons Ratio (z) = 0.10586 0.10586
#
# Static dielectric constant tensor:
#      x y z
#    x 1.541000 0.000000 0.000000 
#    y 0.000000 1.541000 0.000000 
#    z 0.000000 0.000000 1.555260 
# 
# From -- ./inp_files/2972.got.cif
#   From: 2010.05.17/outbox.cif.g08.bks.cpg/sg183_2_cif.got.tgz:2972.got - 2010.05.20 12:02:58.
