data_PCOD9585877
_publ_section_title
;
Structure prediction by ZEFSAII (Michael W. Deem and Ramdas Pophale) SiO2 
 PCOD9585877
Probable space group: P -6 C 2
;
_chemical_formula_sum "Si O2"
_cell_formula_units_Z 72
_cell_length_a 24.578192
_cell_length_b 24.578192
_cell_length_c 8.886410
_cell_angle_alpha 90.000000
_cell_angle_beta 90.000000
_cell_angle_gamma 120.000000
_cell_volume 4648.971069
_symmetry_space_group_name_H-M "P -6 C 2"
_symmetry_group_IT_number 188
_symmetry_cell_setting 'hexagonal'
loop_
_space_group_symop_operation_xyz
x,y,z
-x+y,-x,1/2-z
-y,x-y,z
x,y,1/2-z
-x+y,-x,z
-y,x-y,1/2-z
-y,-x,-z
-x+y,y,-z
x,x-y,-z
-x+y,y,1/2+z
x,x-y,1/2+z
-y,-x,1/2+z
loop_
_atom_site_type_symbol
_atom_site_label
_atom_site_fract_x
_atom_site_fract_y
_atom_site_fract_z
Si Si1 0.225110 0.885843 0.577918
Si Si2 0.336151 0.335183 0.930115
Si Si3 0.265355 0.075664 0.429994
Si Si4 0.667420 0.216279 0.068296
Si Si5 0.921023 0.518489 0.931799
Si Si6 0.037207 0.186387 0.923600
O O1 0.235621 0.876419 0.750000
O O2 0.180533 0.819468 0.500000
O O3 0.185676 0.922891 0.574113
O O4 0.290321 0.932939 0.498761
O O5 0.329977 0.334336 0.750000
O O6 0.309830 0.262470 0.976735
O O7 0.409072 0.377781 0.967998
O O8 0.265423 0.079075 0.250000
O O9 0.285806 0.142903 0.500000
O O10 0.195443 0.026067 0.488090
O O11 0.667021 0.217887 0.250000
O O12 0.734459 0.265542 0.000000
O O13 0.616614 0.233227 0.000000
O O14 0.643757 0.146356 0.007028
O O15 0.913899 0.511055 0.750000
O O16 0.941118 0.470559 0.000000
O O17 0.024026 0.166463 0.750000
O O18 0.082181 0.164361 0.000000
#
# Coordination Sequence:
#
# PCOD9585877 Si02
#       6
#    12  12  12  12  12  12
#     4   9  16  26  44  68  93 117 144 175 212 255
#     4   9  19  33  48  66  92 122 154 190 230 274
#     4  10  19  31  45  64  89 117 148 188 233 278
#     4  11  21  34  50  68  88 112 147 195 249 303
#     4  10  20  35  51  69  92 122 158 196 237 287
#     4   9  16  27  43  63  84 110 141 174 211 257
#
# _framework density 15.487297999999999
#
# number of rings (size 3 to 8) (size 9 to 14) (size 15 to 20)
#    0.000    2.333    0.000    4.667    0.000    6.667 
#    0.000    1.667    0.000    0.333    0.000    2.333 
#    0.000    0.000    0.000    0.500    0.000    8.000 
#
# Total GULP energy -401479.328767 kJ/mol
# GULP energy per Si atom -5576.101788 kJ/mol
# Density = 1.545205 g / cm^3
# Si number density = 15.487298 Si / 1000 Ang^3
#
#
#
# Elastic Constant Matrix: (Units=GPa)
#
#
# Indices 1 2 3 4 5 6 
#
# 1 85.0670 69.2088 48.8668 0.0002 0.0000 0.0000
# 2 69.2088 85.0670 48.8668 -0.0002 0.0000 0.0000
# 3 48.8668 48.8668 87.3073 0.0000 0.0000 0.0000
# 4 0.0002 -0.0002 0.0000 23.0156 0.0000 0.0000
# 5 0.0000 0.0000 0.0000 0.0000 23.0156 0.0002
# 6 0.0000 0.0000 0.0000 0.0000 0.0002 7.9291
#
#
#
# Elastic Compliance Matrix: (Units=1/GPa)
#
#
# Indices 1 2 3 4 5 6 
#
# 1 0.036551 -0.026508 -0.005621 -0.000001 0.000000 0.000000
# 2 -0.026508 0.036551 -0.005621 0.000001 0.000000 0.000000
# 3 -0.005621 -0.005621 0.017746 0.000000 0.000000 0.000000
# 4 -0.000001 0.000001 0.000000 0.043449 0.000000 0.000000
# 5 0.000000 0.000000 0.000000 0.000000 0.043449 -0.000001
# 6 0.000000 0.000000 0.000000 0.000000 -0.000001 0.126117
#
#
# Mechanical properties :
#
#
# Convention : Reuss Voigt Hill
#
# Bulk Modulus (GPa) = 65.15714 65.70289 65.43001
# Shear Modulus (GPa) = 13.00463 16.82533 14.91498
#
# Velocity S-wave (km/s) = 2.90090 3.29963 3.10666
# Velocity P-wave (km/s) = 7.30636 7.55199 7.43019
#
# Compressibility (1/GPa) = 0.01534751
#
# Stress axis : x y z
#
# Youngs Moduli (GPa) = 27.35924 27.35924 56.35031
#
# Poissons Ratio (x) = 0.72524 0.31675
# Poissons Ratio (y) = 0.72524 0.31675
# Poissons Ratio (z) = 0.15379 0.15379
#
# Static dielectric constant tensor:
#      x y z
#    x 1.507830 0.000000 0.000000 
#    y 0.000000 1.507830 0.000000 
#    z 0.000000 0.000000 1.520500 
# 
# From -- ./inp_files/1036.got.cif
#   From: 2010.05.17/outbox.cif.g08.bks.cpg/sg188_1_cif.got.tgz:1036.got - 2010.05.20 12:11:46.
