data_PCOD9585393
_publ_section_title
;
Structure prediction by ZEFSAII (Michael W. Deem and Ramdas Pophale) SiO2 
 PCOD9585393
Probable space group: P 63 M C
;
_chemical_formula_sum "Si O2"
_cell_formula_units_Z 84
_cell_length_a 21.645289
_cell_length_b 21.645289
_cell_length_c 10.798727
_cell_angle_alpha 90.000000
_cell_angle_beta 90.000000
_cell_angle_gamma 120.000000
_cell_volume 4381.572187
_symmetry_space_group_name_H-M "P 63 M C"
_symmetry_group_IT_number 186
_symmetry_cell_setting 'hexagonal'
loop_
_space_group_symop_operation_xyz
x,y,z
x-y,x,1/2+z
-y,x-y,z
-x,-y,1/2+z
-x+y,-x,z
y,-x+y,1/2+z
-x+y,y,z
x,x-y,z
-y,-x,z
y,x,1/2+z
x-y,-y,1/2+z
-x,-x+y,1/2+z
loop_
_atom_site_type_symbol
_atom_site_label
_atom_site_fract_x
_atom_site_fract_y
_atom_site_fract_z
Si Si1 0.047444 0.646555 0.419870
Si Si2 0.811069 0.478880 0.558114
Si Si3 0.599112 0.646556 0.150767
Si Si4 0.945305 0.743507 0.643842
Si Si5 0.521121 0.332189 0.012520
Si Si6 0.667712 0.191498 0.285318
Si Si7 0.743506 0.798202 0.426799
O O1 0.013282 0.618507 0.285319
O O2 0.122744 0.650195 0.427271
O O3 0.061402 0.727072 0.432676
O O4 0.000000 0.602312 0.535319
O O5 0.739275 0.478550 0.593892
O O6 0.797382 0.398691 0.553182
O O7 0.877256 0.527452 0.643364
O O8 0.832571 0.512601 0.418616
O O9 0.665671 0.727072 0.137963
O O10 0.868865 0.737729 0.625996
O O11 0.969597 0.770190 0.785321
O O12 0.000001 0.789405 0.535321
O O13 0.521450 0.260725 0.976740
O O14 0.601311 0.398690 0.017452
O O15 0.487401 0.319970 0.152018
O O16 0.587543 0.175085 0.285318
O O17 0.723130 0.276870 0.285318
O O18 0.737727 0.868864 0.444644
#
# Coordination Sequence:
#
# PCOD9585393 Si02
#       7
#    12  12  12  12  12  12  12
#     4  10  22  38  57  80 109 144 183 227 277 328
#     4  10  20  35  56  81 110 143 182 226 276 330
#     4  10  22  38  57  80 109 144 183 227 277 328
#     4   9  18  34  55  80 111 145 180 222 269 317
#     4  10  20  35  56  81 110 143 182 226 276 330
#     4   8  15  28  48  74 102 134 169 210 258 314
#     4   9  18  34  55  80 111 145 180 222 269 317
#
# _framework density 19.171199999999999
#
# number of rings (size 3 to 8) (size 9 to 14) (size 15 to 20)
#    0.000    2.571    0.000    1.286    2.000    5.714 
#    0.000    0.000    0.000    2.000    0.000    0.000 
#    0.000    0.000    0.000    0.000    0.000    0.000 
#
# Total GULP energy -468197.362508 kJ/mol
# GULP energy per Si atom -5573.778125 kJ/mol
# Density = 1.912757 g / cm^3
# Si number density = 19.171200 Si / 1000 Ang^3
#
#
#
# Elastic Constant Matrix: (Units=GPa)
#
#
# Indices 1 2 3 4 5 6 
#
# 1 49.4210 11.1107 32.2710 0.0000 0.0000 0.0000
# 2 11.1107 49.4210 32.2710 0.0000 0.0000 0.0000
# 3 32.2710 32.2710 110.5195 0.0000 0.0000 0.0000
# 4 0.0000 0.0000 0.0000 26.4556 0.0000 0.0000
# 5 0.0000 0.0000 0.0000 0.0000 26.4556 0.0000
# 6 0.0000 0.0000 0.0000 0.0000 0.0000 19.1551
#
#
#
# Elastic Compliance Matrix: (Units=1/GPa)
#
#
# Indices 1 2 3 4 5 6 
#
# 1 0.025046 -0.001057 -0.007005 0.000000 0.000000 0.000000
# 2 -0.001057 0.025046 -0.007005 0.000000 0.000000 0.000000
# 3 -0.007005 -0.007005 0.013139 0.000000 0.000000 0.000000
# 4 0.000000 0.000000 0.000000 0.037799 0.000000 0.000000
# 5 0.000000 0.000000 0.000000 0.000000 0.037799 0.000000
# 6 0.000000 0.000000 0.000000 0.000000 0.000000 0.052205
#
#
# Mechanical properties :
#
#
# Convention : Reuss Voigt Hill
#
# Bulk Modulus (GPa) = 30.21311 40.07410 35.14360
# Shear Modulus (GPa) = 21.53324 23.32718 22.43021
#
# Velocity S-wave (km/s) = 3.35507 3.49203 3.42423
# Velocity P-wave (km/s) = 5.55000 6.09981 5.83139
#
# Compressibility (1/GPa) = 0.03309822
#
# Stress axis : x y z
#
# Youngs Moduli (GPa) = 39.92682 39.92682 76.11049
#
# Poissons Ratio (x) = 0.04220 0.53313
# Poissons Ratio (y) = 0.04220 0.53313
# Poissons Ratio (z) = 0.27967 0.27967
#
# Static dielectric constant tensor:
#      x y z
#    x 1.639170 0.000000 0.000000 
#    y 0.000000 1.639170 0.000000 
#    z 0.000000 0.000000 1.766140 
# 
# From -- ./inp_files/1907.got.cif
#   From: 2010.05.17/outbox.cif.g08.bks.cpg/sg186_1_cif.got.tgz:1907.got - 2010.05.20 12:07:08.
