data_PCOD9585884
_publ_section_title
;
Structure prediction by ZEFSAII (Michael W. Deem and Ramdas Pophale) SiO2 
 PCOD9585884
Probable space group: P -6 C 2
;
_chemical_formula_sum "Si O2"
_cell_formula_units_Z 72
_cell_length_a 24.578961
_cell_length_b 24.578961
_cell_length_c 8.952321
_cell_angle_alpha 90.000000
_cell_angle_beta 90.000000
_cell_angle_gamma 120.000000
_cell_volume 4683.745823
_symmetry_space_group_name_H-M "P -6 C 2"
_symmetry_group_IT_number 188
_symmetry_cell_setting 'hexagonal'
loop_
_space_group_symop_operation_xyz
x,y,z
-x+y,-x,1/2-z
-y,x-y,z
x,y,1/2-z
-x+y,-x,z
-y,x-y,1/2-z
-y,-x,-z
-x+y,y,-z
x,x-y,-z
-x+y,y,1/2+z
x,x-y,1/2+z
-y,-x,1/2+z
loop_
_atom_site_type_symbol
_atom_site_label
_atom_site_fract_x
_atom_site_fract_y
_atom_site_fract_z
Si Si1 0.223600 0.336125 0.577655
Si Si2 0.478291 0.406356 0.071402
Si Si3 0.996342 0.665965 0.070278
Si Si4 0.146228 0.963035 0.420456
Si Si5 0.550110 0.332146 0.070686
Si Si6 0.807279 0.078626 0.931149
O O1 0.236583 0.355986 0.750000
O O2 0.179058 0.358116 0.500000
O O3 0.286461 0.352639 0.488633
O O4 0.183239 0.259618 0.577726
O O5 0.482455 0.413382 0.250000
O O6 0.406052 0.377748 0.028171
O O7 0.502451 0.357503 0.033700
O O8 0.527494 0.472507 0.000000
O O9 0.993937 0.670680 0.250000
O O10 0.950953 0.688080 0.994931
O O11 0.133493 0.971322 0.250000
O O12 0.080397 0.919604 0.500000
O O13 0.198911 0.030561 0.480521
O O14 0.555455 0.330545 0.250000
O O15 0.616694 0.383307 0.000000
O O16 0.530395 0.265198 0.000000
O O17 0.806048 0.079464 0.750000
O O18 0.853950 0.146050 0.000000
#
# Coordination Sequence:
#
# PCOD9585884 Si02
#       6
#    12  12  12  12  12  12
#     4   9  16  27  44  68  93 118 145 175 211 253
#     4   9  20  35  50  67  89 119 156 192 232 282
#     4  10  19  32  48  68  93 121 152 189 230 277
#     4   8  15  26  41  60  81 105 137 171 209 257
#     4  10  19  32  47  64  83 107 142 189 243 296
#     4  10  20  32  45  65  90 118 151 190 236 285
#
# _framework density 15.372312000000001
#
# number of rings (size 3 to 8) (size 9 to 14) (size 15 to 20)
#    0.000    2.667    0.000    3.167    0.000    7.333 
#    0.000    1.667    0.000    0.333    0.000    0.000 
#    0.000    0.000    0.000    0.500    0.000    8.000 
#
# Total GULP energy -401169.338794 kJ/mol
# GULP energy per Si atom -5571.796372 kJ/mol
# Density = 1.533732 g / cm^3
# Si number density = 15.372312 Si / 1000 Ang^3
#
#
#
# Elastic Constant Matrix: (Units=GPa)
#
#
# Indices 1 2 3 4 5 6 
#
# 1 85.3540 63.4539 40.4581 0.0002 0.0000 0.0000
# 2 63.4539 85.3540 40.4581 -0.0002 0.0000 0.0000
# 3 40.4581 40.4581 64.2489 0.0000 0.0000 0.0000
# 4 0.0002 -0.0002 0.0000 20.5927 0.0000 0.0000
# 5 0.0000 0.0000 0.0000 0.0000 20.5927 0.0002
# 6 0.0000 0.0000 0.0000 0.0000 0.0002 10.9501
#
#
#
# Elastic Compliance Matrix: (Units=1/GPa)
#
#
# Indices 1 2 3 4 5 6 
#
# 1 0.027941 -0.017721 -0.006435 0.000000 0.000000 0.000000
# 2 -0.017721 0.027941 -0.006435 0.000000 0.000000 0.000000
# 3 -0.006435 -0.006435 0.023669 0.000000 0.000000 0.000000
# 4 0.000000 0.000000 0.000000 0.048561 0.000000 0.000000
# 5 0.000000 0.000000 0.000000 0.000000 0.048561 -0.000001
# 6 0.000000 0.000000 0.000000 0.000000 -0.000001 0.091323
#
#
# Mechanical properties :
#
#
# Convention : Reuss Voigt Hill
#
# Bulk Modulus (GPa) = 54.44574 58.18857 56.31716
# Shear Modulus (GPa) = 14.91197 16.46620 15.68909
#
# Velocity S-wave (km/s) = 3.11795 3.27641 3.19816
# Velocity P-wave (km/s) = 6.96111 7.22829 7.09596
#
# Compressibility (1/GPa) = 0.01836691
#
# Stress axis : x y z
#
# Youngs Moduli (GPa) = 35.79032 35.79032 42.24928
#
# Poissons Ratio (x) = 0.63425 0.27188
# Poissons Ratio (y) = 0.63425 0.27188
# Poissons Ratio (z) = 0.23032 0.23032
#
# Static dielectric constant tensor:
#      x y z
#    x 1.505020 0.000000 0.000000 
#    y 0.000000 1.505020 0.000000 
#    z 0.000000 0.000000 1.519060 
# 
# From -- ./inp_files/987.got.cif
#   From: 2010.05.17/outbox.cif.g08.bks.cpg/sg188_1_cif.got.tgz:987.got - 2010.05.20 12:11:46.
