data_PCOD9585056
_publ_section_title
;
Structure prediction by ZEFSAII (Michael W. Deem and Ramdas Pophale) SiO2 
 PCOD9585056
Probable space group: P 6 M M
;
_chemical_formula_sum "Si O2"
_cell_formula_units_Z 96
_cell_length_a 18.093603
_cell_length_b 18.093603
_cell_length_c 20.799581
_cell_angle_alpha 90.000000
_cell_angle_beta 90.000000
_cell_angle_gamma 120.000000
_cell_volume 5897.057088
_symmetry_space_group_name_H-M "P 6 M M"
_symmetry_group_IT_number 183
_symmetry_cell_setting 'hexagonal'
loop_
_space_group_symop_operation_xyz
x,y,z
x-y,x,z
-y,x-y,z
-x,-y,z
-x+y,-x,z
y,-x+y,z
-x+y,y,z
x,x-y,z
-y,-x,z
y,x,z
x-y,-y,z
-x,-x+y,z
loop_
_atom_site_type_symbol
_atom_site_label
_atom_site_fract_x
_atom_site_fract_y
_atom_site_fract_z
Si Si1 0.096707 0.731173 0.378520
Si Si2 0.737310 0.097628 0.002711
Si Si3 0.467806 0.364212 0.884871
Si Si4 0.508334 0.667361 0.498563
Si Si5 0.633465 0.900136 0.618421
Si Si6 0.333814 0.493518 0.114202
Si Si7 0.896605 0.364264 0.740285
Si Si8 0.506425 0.666407 0.263281
O O1 0.169540 0.830461 0.381365
O O2 0.118061 0.684470 0.435703
O O3 0.109236 0.692569 0.312235
O O4 0.000000 0.709660 0.384754
O O5 0.836936 0.163065 0.009880
O O6 0.702570 0.125954 0.941365
O O7 0.710912 0.000000 0.994276
O O8 0.689888 0.107444 0.064879
O O9 0.566422 0.433579 0.897938
O O10 0.417965 0.417965 0.884223
O O11 0.461074 0.329702 0.812561
O O12 0.483002 0.741501 0.499250
O O13 0.425323 0.574678 0.498735
O O14 0.568120 0.683951 0.560352
O O15 0.666982 0.833491 0.609319
O O16 0.578493 0.875912 0.684013
O O17 0.704073 0.000000 0.620348
O O18 0.258071 0.516141 0.108487
O O19 0.424381 0.575620 0.098981
O O20 0.335277 0.470043 0.188791
O O21 0.866833 0.433417 0.726744
O O22 0.000000 0.418786 0.741595
O O23 0.481753 0.740877 0.268907
O O24 0.424671 0.575330 0.278989
#
# Coordination Sequence:
#
# PCOD9585056 Si02
#       8
#    12  12  12  12  12  12  12  12
#     4  10  21  35  50  69  93 122 156 195 237 275
#     4  10  20  32  46  65  89 117 151 192 236 278
#     4   8  14  26  45  68  92 116 142 174 214 263
#     4  10  20  33  50  73 101 130 156 182 216 263
#     4  10  20  32  47  68  93 122 157 198 241 280
#     4   9  17  29  46  69  97 127 155 182 215 260
#     4   8  14  26  45  68  92 117 145 177 215 263
#     4   9  17  29  46  69  98 130 159 184 213 256
#
# _framework density 16.279306999999999
#
# number of rings (size 3 to 8) (size 9 to 14) (size 15 to 20)
#    0.000    2.750    0.000    2.625    0.000    5.000 
#    0.000    2.500    0.000    0.875    0.000    0.000 
#    0.000    3.000    0.000   12.500    0.000    0.000 
#
# Total GULP energy -535090.641247 kJ/mol
# GULP energy per Si atom -5573.860846 kJ/mol
# Density = 1.624225 g / cm^3
# Si number density = 16.279307 Si / 1000 Ang^3
#
#
#
# Elastic Constant Matrix: (Units=GPa)
#
#
# Indices 1 2 3 4 5 6 
#
# 1 77.4295 62.9582 39.7782 0.0000 0.0000 0.0000
# 2 62.9582 77.4295 39.7782 0.0000 0.0000 0.0000
# 3 39.7782 39.7782 74.0532 0.0000 0.0000 0.0000
# 4 0.0000 0.0000 0.0000 18.2517 0.0000 0.0000
# 5 0.0000 0.0000 0.0000 0.0000 18.2517 0.0000
# 6 0.0000 0.0000 0.0000 0.0000 0.0000 7.2357
#
#
#
# Elastic Compliance Matrix: (Units=1/GPa)
#
#
# Indices 1 2 3 4 5 6 
#
# 1 0.039671 -0.029431 -0.005501 0.000000 0.000000 0.000000
# 2 -0.029431 0.039671 -0.005501 0.000000 0.000000 0.000000
# 3 -0.005501 -0.005501 0.019413 0.000000 0.000000 0.000000
# 4 0.000000 0.000000 0.000000 0.054789 0.000000 0.000000
# 5 0.000000 0.000000 0.000000 0.000000 0.054789 0.000000
# 6 0.000000 0.000000 0.000000 0.000000 0.000000 0.138204
#
#
# Mechanical properties :
#
#
# Convention : Reuss Voigt Hill
#
# Bulk Modulus (GPa) = 55.89329 57.10459 56.49894
# Shear Modulus (GPa) = 11.53757 14.50768 13.02262
#
# Velocity S-wave (km/s) = 2.66508 2.98849 2.83141
# Velocity P-wave (km/s) = 6.62410 6.86020 6.74318
#
# Compressibility (1/GPa) = 0.01789124
#
# Stress axis : x y z
#
# Youngs Moduli (GPa) = 25.20717 25.20717 51.51128
#
# Poissons Ratio (x) = 0.74187 0.28335
# Poissons Ratio (y) = 0.74187 0.28335
# Poissons Ratio (z) = 0.13866 0.13866
#
# Static dielectric constant tensor:
#      x y z
#    x 1.533960 0.000000 0.000000 
#    y 0.000000 1.533960 0.000000 
#    z 0.000000 0.000000 1.566820 
# 
# From -- ./inp_files/2984.got.cif
#   From: 2010.05.17/outbox.cif.g08.bks.cpg/sg183_2_cif.got.tgz:2984.got - 2010.05.20 12:02:58.
