data_PCOD9585626
_publ_section_title
;
Structure prediction by ZEFSAII (Michael W. Deem and Ramdas Pophale) SiO2 
 PCOD9585626
Probable space group: P -6 M 2
;
_chemical_formula_sum "Si O2"
_cell_formula_units_Z 60
_cell_length_a 21.429376
_cell_length_b 21.429376
_cell_length_c 9.109673
_cell_angle_alpha 90.000000
_cell_angle_beta 90.000000
_cell_angle_gamma 120.000000
_cell_volume 3622.867657
_symmetry_space_group_name_H-M "P -6 M 2"
_symmetry_group_IT_number 187
_symmetry_cell_setting 'hexagonal'
loop_
_space_group_symop_operation_xyz
x,y,z
-x+y,-x,-z
-y,x-y,z
x,y,-z
-x+y,-x,z
-y,x-y,-z
-y,-x,-z
-x+y,y,-z
x,x-y,-z
-x+y,y,z
x,x-y,z
-y,-x,z
loop_
_atom_site_type_symbol
_atom_site_label
_atom_site_fract_x
_atom_site_fract_y
_atom_site_fract_z
Si Si1 0.038878 0.448889 0.674165
Si Si2 0.407753 0.203877 0.177513
Si Si3 0.794333 0.969642 0.175081
Si Si4 0.875370 0.750740 0.675904
Si Si5 0.628360 0.512108 0.176235
Si Si6 0.116692 0.376667 0.826089
O O1 0.030943 0.438817 0.500000
O O2 0.063600 0.531800 0.707334
O O3 0.091318 0.423035 0.736260
O O4 0.961099 0.401966 0.749186
O O5 0.329803 0.164902 0.254684
O O6 0.454620 0.166275 0.216404
O O7 0.396508 0.198254 0.000000
O O8 0.812355 0.906178 0.210158
O O9 0.708751 0.935168 0.200429
O O10 0.836653 0.042616 0.265587
O O11 0.807083 0.984631 0.000000
O O12 0.873096 0.746192 0.500000
O O13 0.571506 0.428495 0.214069
O O14 0.625707 0.518314 0.000000
O O15 0.196861 0.393722 0.790595
O O16 0.112967 0.388005 0.000000
#
# Coordination Sequence:
#
# PCOD9585626 Si02
#       6
#    12   6  12   6  12  12
#     4  10  20  32  48  73 103 133 164 199 241 293
#     4  10  20  34  52  74 102 136 174 216 262 314
#     4   9  19  37  57  75  98 131 170 208 252 307
#     4  12  24  34  50  78 108 136 170 214 258 302
#     4   9  18  33  51  72  98 131 171 213 258 302
#     4   9  18  33  54  78 100 124 160 206 249 292
#
# _framework density 16.561467
#
# number of rings (size 3 to 8) (size 9 to 14) (size 15 to 20)
#    0.000    2.400    0.000    3.900    0.000    8.400 
#    1.200    2.000    0.000    0.400    0.000    0.000 
#    0.000    0.000    0.000    0.000    0.000    0.000 
#
# Total GULP energy -334691.252183 kJ/mol
# GULP energy per Si atom -5578.187536 kJ/mol
# Density = 1.652377 g / cm^3
# Si number density = 16.561467 Si / 1000 Ang^3
#
#
#
# Elastic Constant Matrix: (Units=GPa)
#
#
# Indices 1 2 3 4 5 6 
#
# 1 113.7067 83.4179 61.6098 0.0000 -0.0008 0.0000
# 2 83.4179 113.7067 61.6098 0.0000 0.0008 0.0000
# 3 61.6098 61.6098 46.3773 0.0000 0.0000 0.0000
# 4 0.0000 0.0000 0.0000 0.9966 0.0000 0.0008
# 5 -0.0008 0.0008 0.0000 0.0000 0.9966 0.0000
# 6 0.0000 0.0000 0.0000 0.0008 0.0000 15.1444
#
#
#
# Elastic Compliance Matrix: (Units=1/GPa)
#
#
# Indices 1 2 3 4 5 6 
#
# 1 0.031463 -0.001553 -0.039733 0.000000 0.000025 0.000000
# 2 -0.001553 0.031463 -0.039733 0.000000 -0.000025 0.000000
# 3 -0.039733 -0.039733 0.127129 0.000000 0.000000 0.000000
# 4 0.000000 0.000000 0.000000 1.003447 0.000000 -0.000050
# 5 0.000025 -0.000025 0.000000 0.000000 1.003447 0.000000
# 6 0.000000 0.000000 0.000000 -0.000050 0.000000 0.066031
#
#
# Mechanical properties :
#
#
# Convention : Reuss Voigt Hill
#
# Bulk Modulus (GPa) = 35.69475 76.34062 56.01769
# Shear Modulus (GPa) = 2.05393 7.90439 4.97916
#
# Velocity S-wave (km/s) = 1.11484 2.18703 1.73580
# Velocity P-wave (km/s) = 4.82254 7.25072 6.15751
#
# Compressibility (1/GPa) = 0.02801532
#
# Stress axis : x y z
#
# Youngs Moduli (GPa) = 31.78383 31.78383 7.86602
#
# Poissons Ratio (x) = 0.04936 0.31254
# Poissons Ratio (y) = 0.04936 0.31254
# Poissons Ratio (z) = 1.26287 1.26287
#
# Static dielectric constant tensor:
#      x y z
#    x 1.545530 0.000000 0.000000 
#    y 0.000000 1.545530 0.000000 
#    z 0.000000 0.000000 1.544850 
# 
# From -- ./inp_files/656.got.cif
#   From: 2010.05.17/outbox.cif.g08.bks.cpg/sg187_1_cif.got.tgz:656.got - 2010.05.20 12:09:04.
