data_PCOD9585437
_publ_section_title
;
Structure prediction by ZEFSAII (Michael W. Deem and Ramdas Pophale) SiO2 
 PCOD9585437
Probable space group: P -6 M 2
;
_chemical_formula_sum "Si O2"
_cell_formula_units_Z 72
_cell_length_a 24.296833
_cell_length_b 24.296833
_cell_length_c 9.049195
_cell_angle_alpha 90.000000
_cell_angle_beta 90.000000
_cell_angle_gamma 120.000000
_cell_volume 4626.365236
_symmetry_space_group_name_H-M "P -6 M 2"
_symmetry_group_IT_number 187
_symmetry_cell_setting 'hexagonal'
loop_
_space_group_symop_operation_xyz
x,y,z
-x+y,-x,-z
-y,x-y,z
x,y,-z
-x+y,-x,z
-y,x-y,-z
-y,-x,-z
-x+y,y,-z
x,x-y,-z
-x+y,y,z
x,x-y,z
-y,-x,z
loop_
_atom_site_type_symbol
_atom_site_label
_atom_site_fract_x
_atom_site_fract_y
_atom_site_fract_z
Si Si1 0.101931 0.329839 0.322812
Si Si2 0.664814 0.108002 0.177201
Si Si3 0.300331 0.478217 0.679325
Si Si4 0.776147 0.552294 0.329947
Si Si5 0.446647 0.553354 0.320137
Si Si6 0.853351 0.706702 0.329600
Si Si7 0.966962 0.483481 0.821268
Si Si8 0.293780 0.259938 0.823677
O O1 0.091875 0.325164 0.500000
O O2 0.155593 0.311186 0.289778
O O3 0.133164 0.404226 0.281822
O O4 0.036219 0.289199 0.240409
O O5 0.709803 0.176416 0.250887
O O6 0.590966 0.072925 0.219914
O O7 0.694079 0.062641 0.214867
O O8 0.669078 0.116350 0.000000
O O9 0.300833 0.481068 0.500000
O O10 0.249290 0.498579 0.730039
O O11 0.372938 0.518945 0.727396
O O12 0.766025 0.532049 0.500000
O O13 0.814752 0.629503 0.325734
O O14 0.448966 0.551035 0.500000
O O15 0.481937 0.518064 0.253257
O O16 0.863290 0.726579 0.500000
O O17 0.918771 0.726876 0.247263
O O18 0.974647 0.487324 0.000000
O O19 0.289339 0.255106 0.000000
#
# Coordination Sequence:
#
# PCOD9585437 Si02
#       8
#    12  12  12   6   6   6   6  12
#     4   9  17  29  44  60  85 122 156 185 223 276
#     4   9  18  31  46  65  91 122 151 183 225 276
#     4   8  15  28  43  62  88 117 153 198 246 292
#     4   9  17  29  47  68  88 113 145 180 217 259
#     4  10  18  28  46  68  89 117 156 204 252 294
#     4   9  17  29  45  65  90 118 145 169 204 260
#     4  10  20  32  46  67  95 124 154 189 235 287
#     4  10  18  28  44  67  93 117 145 185 227 261
#
# _framework density 15.562974000000001
#
# number of rings (size 3 to 8) (size 9 to 14) (size 15 to 20)
#    0.000    2.833    0.000    3.000    0.000    3.667 
#    0.500    0.000    0.000    1.833    0.000    1.167 
#    0.833    0.000    1.500    0.000    1.500    0.000 
#
# Total GULP energy -401183.776370 kJ/mol
# GULP energy per Si atom -5571.996894 kJ/mol
# Density = 1.552755 g / cm^3
# Si number density = 15.562974 Si / 1000 Ang^3
#
#
#
# Elastic Constant Matrix: (Units=GPa)
#
#
# Indices 1 2 3 4 5 6 
#
# 1 129.6537 85.5365 48.0694 0.0000 -0.0002 0.0000
# 2 85.5365 129.6537 48.0694 0.0000 0.0002 0.0000
# 3 48.0694 48.0694 37.0739 0.0000 0.0000 0.0000
# 4 0.0000 0.0000 0.0000 19.4733 0.0000 0.0002
# 5 -0.0002 0.0002 0.0000 0.0000 19.4733 0.0000
# 6 0.0000 0.0000 0.0000 0.0002 0.0000 22.0586
#
#
#
# Elastic Compliance Matrix: (Units=1/GPa)
#
#
# Indices 1 2 3 4 5 6 
#
# 1 0.016856 -0.005811 -0.014321 0.000000 0.000000 0.000000
# 2 -0.005811 0.016856 -0.014321 0.000000 0.000000 0.000000
# 3 -0.014321 -0.014321 0.064110 0.000000 0.000000 0.000000
# 4 0.000000 0.000000 0.000000 0.051352 0.000000 0.000000
# 5 0.000000 0.000000 0.000000 0.000000 0.051352 0.000000
# 6 0.000000 0.000000 0.000000 0.000000 0.000000 0.045334
#
#
# Mechanical properties :
#
#
# Convention : Reuss Voigt Hill
#
# Bulk Modulus (GPa) = 34.58260 73.30356 53.94308
# Shear Modulus (GPa) = 15.41286 19.84808 17.63047
#
# Velocity S-wave (km/s) = 3.15040 3.57506 3.36943
# Velocity P-wave (km/s) = 5.95841 8.01530 7.06214
#
# Compressibility (1/GPa) = 0.02891628
#
# Stress axis : x y z
#
# Youngs Moduli (GPa) = 59.32610 59.32610 15.59828
#
# Poissons Ratio (x) = 0.34474 0.22338
# Poissons Ratio (y) = 0.34474 0.22338
# Poissons Ratio (z) = 0.84960 0.84960
#
# Static dielectric constant tensor:
#      x y z
#    x 1.505450 0.000000 0.000000 
#    y 0.000000 1.505450 0.000000 
#    z 0.000000 0.000000 1.520210 
# 
# From -- ./inp_files/1085.got.cif
#   From: 2010.05.17/outbox.cif.g08.bks.cpg/sg187_1_cif.got.tgz:1085.got - 2010.05.20 12:09:04.
