data_PCOD9585326
_publ_section_title
;
Structure prediction by ZEFSAII (Michael W. Deem and Ramdas Pophale) SiO2 
 PCOD9585326
Probable space group: P 63 M C
;
_chemical_formula_sum "Si O2"
_cell_formula_units_Z 72
_cell_length_a 32.812977
_cell_length_b 32.812977
_cell_length_c 5.479482
_cell_angle_alpha 90.000000
_cell_angle_beta 90.000000
_cell_angle_gamma 120.000000
_cell_volume 5109.300010
_symmetry_space_group_name_H-M "P 63 M C"
_symmetry_group_IT_number 186
_symmetry_cell_setting 'hexagonal'
loop_
_space_group_symop_operation_xyz
x,y,z
x-y,x,1/2+z
-y,x-y,z
-x,-y,1/2+z
-x+y,-x,z
y,-x+y,1/2+z
-x+y,y,z
x,x-y,z
-y,-x,z
y,x,1/2+z
x-y,-y,1/2+z
-x,-x+y,1/2+z
loop_
_atom_site_type_symbol
_atom_site_label
_atom_site_fract_x
_atom_site_fract_y
_atom_site_fract_z
Si Si1 0.168605 0.736799 0.505240
Si Si2 0.659281 0.459150 0.005240
Si Si3 0.054582 0.527291 0.005241
Si Si4 0.603778 0.025264 0.505242
Si Si5 0.538578 0.222468 0.505240
Si Si6 0.437609 0.129708 0.505240
Si Si7 0.442845 0.557156 0.505241
O O1 0.209100 0.790901 0.505240
O O2 0.194576 0.705536 0.505240
O O3 0.138958 0.721609 0.755716
O O4 0.138958 0.721609 0.254764
O O5 0.661483 0.435509 0.755951
O O6 0.613287 0.464364 0.005241
O O7 0.661483 0.435509 0.254530
O O8 0.025833 0.471060 0.005241
O O9 0.084974 0.542487 0.755307
O O10 0.084974 0.542487 0.255173
O O11 0.646168 0.078804 0.505240
O O12 0.604518 0.000000 0.755243
O O13 0.522473 0.261237 0.505240
O O14 0.492858 0.170057 0.505240
#
# Coordination Sequence:
#
# PCOD9585326 Si02
#       7
#    12  12   6  12  12  12   6
#     4  10  17  29  48  70  88 101 123 155 212 248
#     4  10  18  28  42  66  93 104 118 148 188 229
#     4  12  22  37  50  60  80 116 152 182 204 220
#     4  12  24  37  48  62  84 119 156 176 199 229
#     4  10  18  31  50  70  87 100 121 151 205 239
#     4  10  18  30  45  63  85 108 128 163 193 234
#     4  12  22  33  50  70  92 110 138 172 202 238
#
# _framework density 14.091949
#
# number of rings (size 3 to 8) (size 9 to 14) (size 15 to 20)
#    0.000    1.333    0.000   12.500    0.000    0.000 
#    0.000    0.000    0.000    0.000    0.000    0.000 
#   37.500    0.000    0.000    0.000    0.000    0.000 
#
# Total GULP energy -401936.338390 kJ/mol
# GULP energy per Si atom -5582.449144 kJ/mol
# Density = 1.405988 g / cm^3
# Si number density = 14.091949 Si / 1000 Ang^3
#
#
#
# Elastic Constant Matrix: (Units=GPa)
#
#
# Indices 1 2 3 4 5 6 
#
# 1 58.7381 14.4125 30.1431 0.0000 0.0000 0.0000
# 2 14.4125 58.7381 30.1431 0.0000 0.0000 0.0000
# 3 30.1431 30.1431 174.3807 0.0000 0.0000 0.0000
# 4 0.0000 0.0000 0.0000 8.7155 0.0000 0.0000
# 5 0.0000 0.0000 0.0000 0.0000 8.7155 0.0000
# 6 0.0000 0.0000 0.0000 0.0000 0.0000 22.1628
#
#
#
# Elastic Compliance Matrix: (Units=1/GPa)
#
#
# Indices 1 2 3 4 5 6 
#
# 1 0.019251 -0.003309 -0.002756 0.000000 0.000000 0.000000
# 2 -0.003309 0.019251 -0.002756 0.000000 0.000000 0.000000
# 3 -0.002756 -0.002756 0.006687 0.000000 0.000000 0.000000
# 4 0.000000 0.000000 0.000000 0.114738 0.000000 0.000000
# 5 0.000000 0.000000 0.000000 0.000000 0.114738 0.000000
# 6 0.000000 0.000000 0.000000 0.000000 0.000000 0.045121
#
#
# Mechanical properties :
#
#
# Convention : Reuss Voigt Hill
#
# Bulk Modulus (GPa) = 36.30071 49.02826 42.66448
# Shear Modulus (GPa) = 14.42544 22.39595 18.41069
#
# Velocity S-wave (km/s) = 3.20295 3.99089 3.61843
# Velocity P-wave (km/s) = 6.28445 7.49023 6.91368
#
# Compressibility (1/GPa) = 0.02754767
#
# Stress axis : x y z
#
# Youngs Moduli (GPa) = 51.94564 51.94564 149.53857
#
# Poissons Ratio (x) = 0.17191 0.41207
# Poissons Ratio (y) = 0.17191 0.41207
# Poissons Ratio (z) = 0.14314 0.14314
#
# Static dielectric constant tensor:
#      x y z
#    x 1.443170 0.000000 0.000000 
#    y 0.000000 1.443170 0.000000 
#    z 0.000000 0.000000 1.586980 
# 
# From -- ./inp_files/422.got.cif
#   From: 2010.05.17/outbox.cif.g08.bks.cpg/sg186_1_cif.got.tgz:422.got - 2010.05.20 12:07:08.
