data_PCOD9585694
_publ_section_title
;
Structure prediction by ZEFSAII (Michael W. Deem and Ramdas Pophale) SiO2 
 PCOD9585694
Probable space group: P -6 M 2
;
_chemical_formula_sum "Si O2"
_cell_formula_units_Z 60
_cell_length_a 18.062936
_cell_length_b 18.062936
_cell_length_c 11.182251
_cell_angle_alpha 90.000000
_cell_angle_beta 90.000000
_cell_angle_gamma 120.000000
_cell_volume 3159.632369
_symmetry_space_group_name_H-M "P -6 M 2"
_symmetry_group_IT_number 187
_symmetry_cell_setting 'hexagonal'
loop_
_space_group_symop_operation_xyz
x,y,z
-x+y,-x,-z
-y,x-y,z
x,y,-z
-x+y,-x,z
-y,x-y,-z
-y,-x,-z
-x+y,y,-z
x,x-y,-z
-x+y,y,z
x,x-y,z
-y,-x,z
loop_
_atom_site_type_symbol
_atom_site_label
_atom_site_fract_x
_atom_site_fract_y
_atom_site_fract_z
Si Si1 0.176781 0.176427 0.633797
Si Si2 0.768814 0.056839 0.870204
Si Si3 0.333326 0.492822 0.637186
Si Si4 0.587575 0.006377 0.206593
Si Si5 0.504628 0.172534 0.357735
O O1 0.214894 0.210084 0.500000
O O2 0.158159 0.079080 0.638015
O O3 0.234862 0.221588 0.749431
O O4 0.089444 0.178888 0.641479
O O5 0.843564 0.156437 0.861928
O O6 0.671640 0.036913 0.871725
O O7 0.784252 0.026583 0.000000
O O8 0.334452 0.464429 0.500000
O O9 0.241774 0.483547 0.659318
O O10 0.408130 0.591871 0.643208
O O11 0.358636 0.443469 0.732406
O O12 0.503099 0.006197 0.156478
O O13 0.624607 0.077711 0.309936
O O14 0.498545 0.170544 0.500000
O O15 0.603302 0.206603 0.325885
O O16 0.475706 0.237853 0.311476
#
# Coordination Sequence:
#
# PCOD9585694 Si02
#       5
#    12  12  12  12  12
#     4   9  18  34  58  87 117 149 185 223 261 304
#     4  10  22  39  56  77 109 147 184 222 267 321
#     4   9  17  30  49  74 105 140 177 219 270 327
#     4  10  20  33  50  72  97 130 177 229 276 321
#     4   9  16  26  42  66  97 131 166 208 262 324
#
# _framework density 18.989552
#
# number of rings (size 3 to 8) (size 9 to 14) (size 15 to 20)
#    0.000    2.600    0.000    1.800    0.000    8.000 
#    0.000    4.000    0.000    1.600    0.000    0.000 
#    0.000    1.600    0.000    0.000    0.000    0.000 
#
# Total GULP energy -334107.433875 kJ/mol
# GULP energy per Si atom -5568.457231 kJ/mol
# Density = 1.894633 g / cm^3
# Si number density = 18.989552 Si / 1000 Ang^3
#
#
#
# Elastic Constant Matrix: (Units=GPa)
#
#
# Indices 1 2 3 4 5 6 
#
# 1 78.2820 32.0310 49.2854 0.0000 0.0012 0.0000
# 2 32.0310 78.2820 49.2854 0.0000 -0.0012 0.0000
# 3 49.2854 49.2854 114.9663 0.0000 0.0000 0.0000
# 4 0.0000 0.0000 0.0000 53.7753 0.0000 -0.0012
# 5 0.0012 -0.0012 0.0000 0.0000 53.7753 0.0000
# 6 0.0000 0.0000 0.0000 -0.0012 0.0000 23.1255
#
#
#
# Elastic Compliance Matrix: (Units=1/GPa)
#
#
# Indices 1 2 3 4 5 6 
#
# 1 0.018157 -0.003464 -0.006299 0.000000 0.000000 0.000000
# 2 -0.003464 0.018157 -0.006299 0.000000 0.000000 0.000000
# 3 -0.006299 -0.006299 0.014099 0.000000 0.000000 0.000000
# 4 0.000000 0.000000 0.000000 0.018596 0.000000 0.000001
# 5 0.000000 0.000000 0.000000 0.000000 0.018596 0.000000
# 6 0.000000 0.000000 0.000000 0.000001 0.000000 0.043242
#
#
# Mechanical properties :
#
#
# Convention : Reuss Voigt Hill
#
# Bulk Modulus (GPa) = 54.67476 59.19267 56.93372
# Shear Modulus (GPa) = 29.57382 35.53045 32.55213
#
# Velocity S-wave (km/s) = 3.95064 4.33026 4.14480
# Velocity P-wave (km/s) = 7.04731 7.49936 7.27685
#
# Compressibility (1/GPa) = 0.01828997
#
# Stress axis : x y z
#
# Youngs Moduli (GPa) = 55.07387 55.07387 70.92706
#
# Poissons Ratio (x) = 0.19076 0.44678
# Poissons Ratio (y) = 0.19076 0.44678
# Poissons Ratio (z) = 0.34692 0.34692
#
# Static dielectric constant tensor:
#      x y z
#    x 1.661930 0.000000 0.000000 
#    y 0.000000 1.661930 0.000000 
#    z 0.000000 0.000000 1.669460 
# 
# From -- ./inp_files/1624.got.cif
#   From: 2010.05.17/outbox.cif.g08.bks.cpg/sg187_1_cif.got.tgz:1624.got - 2010.05.20 12:09:04.
