data_PCOD9585230
_publ_section_title
;
Structure prediction by ZEFSAII (Michael W. Deem and Ramdas Pophale) SiO2 
 PCOD9585230
Probable space group: P 63 C M
;
_chemical_formula_sum "Si O2"
_cell_formula_units_Z 72
_cell_length_a 23.365398
_cell_length_b 23.365398
_cell_length_c 8.550052
_cell_angle_alpha 90.000000
_cell_angle_beta 90.000000
_cell_angle_gamma 120.000000
_cell_volume 4042.460211
_symmetry_space_group_name_H-M "P 63 C M"
_symmetry_group_IT_number 185
_symmetry_cell_setting 'hexagonal'
loop_
_space_group_symop_operation_xyz
x,y,z
x-y,x,1/2+z
-y,x-y,z
-x,-y,1/2+z
-x+y,-x,z
y,-x+y,1/2+z
-x+y,y,1/2+z
x,x-y,1/2+z
-y,-x,1/2+z
y,x,z
x-y,-y,z
-x,-x+y,z
loop_
_atom_site_type_symbol
_atom_site_label
_atom_site_fract_x
_atom_site_fract_y
_atom_site_fract_z
Si Si1 0.130193 0.000000 0.295701
Si Si2 0.131664 0.740229 0.671496
Si Si3 0.130193 0.000000 0.670349
Si Si4 0.260314 0.000000 0.173217
Si Si5 0.539079 0.204895 0.795449
Si Si6 0.391434 0.131664 0.794553
Si Si7 0.739686 0.000000 0.292833
Si Si8 0.204895 0.665815 0.670600
O O1 0.130844 0.065422 0.233025
O O2 0.128291 0.000000 0.483025
O O3 0.196151 0.000000 0.239529
O O4 0.132006 0.741245 0.483025
O O5 0.191840 0.808160 0.733025
O O6 0.148760 0.683716 0.719386
O O7 0.064010 0.735539 0.723362
O O8 0.196151 0.000000 0.726520
O O9 0.256097 0.000000 0.983025
O O10 0.465045 0.148761 0.746663
O O11 0.596723 0.193445 0.733024
O O12 0.548851 0.274426 0.733025
O O13 0.541965 0.207984 0.983025
O O14 0.328471 0.064010 0.742687
#
# Coordination Sequence:
#
# PCOD9585230 Si02
#       8
#     6  12   6   6  12  12   6  12
#     4  12  25  41  60  85 114 144 176 216 263 312
#     4   9  19  34  53  75 103 135 171 213 258 305
#     4  12  25  41  60  85 114 144 176 216 263 312
#     4  10  20  37  58  81 107 140 178 216 257 308
#     4  10  19  32  50  74 102 135 171 213 261 312
#     4   9  19  34  53  75 103 135 171 213 258 305
#     4  10  20  37  58  81 107 140 178 216 257 308
#     4  10  19  32  50  74 102 135 171 213 261 312
#
# _framework density 17.810935000000001
#
# number of rings (size 3 to 8) (size 9 to 14) (size 15 to 20)
#    0.000    2.000    0.000    4.000    0.000    5.333 
#    0.000    0.833    0.000    0.000    0.000    0.000 
#    0.000    0.000    0.000    0.000    0.000    0.000 
#
# Total GULP energy -401863.177248 kJ/mol
# GULP energy per Si atom -5581.433017 kJ/mol
# Density = 1.777040 g / cm^3
# Si number density = 17.810935 Si / 1000 Ang^3
#
#
#
# Elastic Constant Matrix: (Units=GPa)
#
#
# Indices 1 2 3 4 5 6 
#
# 1 180.5501 123.4247 44.1830 0.0000 0.0000 0.0000
# 2 123.4247 180.5501 44.1830 0.0000 0.0000 0.0000
# 3 44.1830 44.1830 52.6196 0.0000 0.0000 0.0000
# 4 0.0000 0.0000 0.0000 16.8161 0.0000 0.0000
# 5 0.0000 0.0000 0.0000 0.0000 16.8161 0.0000
# 6 0.0000 0.0000 0.0000 0.0000 0.0000 28.5627
#
#
#
# Elastic Compliance Matrix: (Units=1/GPa)
#
#
# Indices 1 2 3 4 5 6 
#
# 1 0.010929 -0.006577 -0.003654 0.000000 0.000000 0.000000
# 2 -0.006577 0.010929 -0.003654 0.000000 0.000000 0.000000
# 3 -0.003654 -0.003654 0.025141 0.000000 0.000000 0.000000
# 4 0.000000 0.000000 0.000000 0.059467 0.000000 0.000000
# 5 0.000000 0.000000 0.000000 0.000000 0.059467 0.000000
# 6 0.000000 0.000000 0.000000 0.000000 0.000000 0.035011
#
#
# Mechanical properties :
#
#
# Convention : Reuss Voigt Hill
#
# Bulk Modulus (GPa) = 52.00731 93.03347 72.52039
# Shear Modulus (GPa) = 21.26549 25.90091 23.58320
#
# Velocity S-wave (km/s) = 3.45912 3.81755 3.64275
# Velocity P-wave (km/s) = 6.72436 8.47224 7.64840
#
# Compressibility (1/GPa) = 0.01922806
#
# Stress axis : x y z
#
# Youngs Moduli (GPa) = 91.50218 91.50218 39.77556
#
# Poissons Ratio (x) = 0.60178 0.14535
# Poissons Ratio (y) = 0.60178 0.14535
# Poissons Ratio (z) = 0.33437 0.33437
#
# Static dielectric constant tensor:
#      x y z
#    x 1.597070 0.000000 0.000000 
#    y 0.000000 1.597070 0.000000 
#    z 0.000000 0.000000 1.602620 
# 
# From -- ./inp_files/661.got.cif
#   From: 2010.05.17/outbox.cif.g08.bks.cpg/sg185_cif.got.tgz:661.got - 2010.05.20 12:05:34.
