data_PCOD9585119
_publ_section_title
;
Structure prediction by ZEFSAII (Michael W. Deem and Ramdas Pophale) SiO2 
 PCOD9585119
Probable space group: P 6 C C
;
_chemical_formula_sum "Si O2"
_cell_formula_units_Z 74
_cell_length_a 14.450056
_cell_length_b 14.450056
_cell_length_c 25.696730
_cell_angle_alpha 90.000000
_cell_angle_beta 90.000000
_cell_angle_gamma 120.000000
_cell_volume 4646.731230
_symmetry_space_group_name_H-M "P 6 C C"
_symmetry_group_IT_number 184
_symmetry_cell_setting 'hexagonal'
loop_
_space_group_symop_operation_xyz
x,y,z
x-y,x,z
-y,x-y,z
-x,-y,z
-x+y,-x,z
y,-x+y,z
-x+y,y,1/2+z
x,x-y,1/2+z
-y,-x,1/2+z
y,x,1/2+z
x-y,-y,1/2+z
-x,-x+y,1/2+z
loop_
_atom_site_type_symbol
_atom_site_label
_atom_site_fract_x
_atom_site_fract_y
_atom_site_fract_z
Si Si1 0.748740 0.829449 0.705130
Si Si2 0.500000 0.000000 0.840641
Si Si3 0.276933 0.437663 0.288284
Si Si4 0.333334 0.666668 0.777041
Si Si5 0.751067 0.920242 0.090642
Si Si6 0.276933 0.437663 0.892998
Si Si7 0.666668 0.333334 0.404242
Si Si8 0.251260 0.170552 0.476153
O O1 0.841427 0.798624 0.709529
O O2 0.660963 0.771763 0.749420
O O3 0.697066 0.794131 0.647107
O O4 0.603629 0.075083 0.806272
O O5 0.471450 0.075081 0.875010
O O6 0.284274 0.543344 0.262622
O O7 0.206154 0.412307 0.340642
O O8 0.333334 0.666667 0.840641
O O9 0.802672 0.844874 0.090642
O O10 0.697066 0.902935 0.034176
O O11 0.284278 0.543345 0.918661
O O12 0.228238 0.339037 0.931863
O O13 0.158573 0.201376 0.471754
#
# Coordination Sequence:
#
# PCOD9585119 Si02
#       8
#    12   6  12   4  12  12   4  12
#     4  10  20  33  53  79 110 141 173 210 261 317
#     4  12  20  32  56  74 102 132 176 212 270 306
#     4  11  20  35  53  79 102 134 178 222 255 310
#     4   9  18  36  51  70  98 130 183 219 247 287
#     4   8  15  30  50  73 101 139 179 212 245 305
#     4  11  20  35  53  79 102 134 178 222 255 310
#     4   9  18  36  51  70  98 130 183 219 247 287
#     4  10  20  33  53  79 110 141 173 210 261 317
#
# _framework density 15.925174
#
# number of rings (size 3 to 8) (size 9 to 14) (size 15 to 20)
#    0.000    1.946    4.865    2.432    0.000    2.595 
#    0.000    0.000    0.000    4.865    0.000    0.000 
#    0.000    0.000    0.000    0.000    0.000    0.000 
#
# Total GULP energy -412224.175937 kJ/mol
# GULP energy per Si atom -5570.596972 kJ/mol
# Density = 1.588893 g / cm^3
# Si number density = 15.925174 Si / 1000 Ang^3
#
#
#
# Elastic Constant Matrix: (Units=GPa)
#
#
# Indices 1 2 3 4 5 6 
#
# 1 114.4791 8.4704 62.5489 0.0000 0.0000 -0.0001
# 2 8.4704 114.4790 62.5489 0.0000 0.0000 0.0000
# 3 62.5489 62.5489 116.6642 0.0000 0.0000 0.0000
# 4 0.0000 0.0000 0.0000 18.7938 0.0000 0.0000
# 5 0.0000 0.0000 0.0000 0.0000 18.7937 0.0000
# 6 -0.0001 0.0000 0.0000 0.0000 0.0000 53.0044
#
#
#
# Elastic Compliance Matrix: (Units=1/GPa)
#
#
# Indices 1 2 3 4 5 6 
#
# 1 0.013665 0.004231 -0.009595 0.000000 0.000000 0.000000
# 2 0.004231 0.013665 -0.009595 0.000000 0.000000 0.000000
# 3 -0.009595 -0.009595 0.018860 0.000000 0.000000 0.000000
# 4 0.000000 0.000000 0.000000 0.053209 0.000000 0.000000
# 5 0.000000 0.000000 0.000000 0.000000 0.053209 0.000000
# 6 0.000000 0.000000 0.000000 0.000000 0.000000 0.018866
#
#
# Mechanical properties :
#
#
# Convention : Reuss Voigt Hill
#
# Bulk Modulus (GPa) = 61.45295 68.08430 64.76862
# Shear Modulus (GPa) = 24.17626 32.25532 28.21579
#
# Velocity S-wave (km/s) = 3.90053 4.50536 4.21381
# Velocity P-wave (km/s) = 7.67840 8.36121 8.02707
#
# Compressibility (1/GPa) = 0.01627261
#
# Stress axis : x y z
#
# Youngs Moduli (GPa) = 73.18226 73.18212 53.02229
#
# Poissons Ratio (x) = -0.30966 0.50874
# Poissons Ratio (y) = -0.30966 0.50874
# Poissons Ratio (z) = 0.70217 0.70217
#
# Static dielectric constant tensor:
#      x y z
#    x 1.533560 0.000000 0.000000 
#    y 0.000000 1.533560 0.000000 
#    z 0.000000 0.000000 1.549320 
# 
# From -- ./inp_files/1254.got.cif
#   From: 2010.05.17/outbox.cif.g08.bks.cpg/sg184_cif.got.tgz:1254.got - 2010.05.20 12:04:40.
