data_PCOD9585384
_publ_section_title
;
Structure prediction by ZEFSAII (Michael W. Deem and Ramdas Pophale) SiO2 
 PCOD9585384
Probable space group: P 63 M C
;
_chemical_formula_sum "Si O2"
_cell_formula_units_Z 34
_cell_length_a 11.544463
_cell_length_b 11.544463
_cell_length_c 18.789547
_cell_angle_alpha 90.000000
_cell_angle_beta 90.000000
_cell_angle_gamma 120.000000
_cell_volume 2168.674704
_symmetry_space_group_name_H-M "P 63 M C"
_symmetry_group_IT_number 186
_symmetry_cell_setting 'hexagonal'
loop_
_space_group_symop_operation_xyz
x,y,z
x-y,x,1/2+z
-y,x-y,z
-x,-y,1/2+z
-x+y,-x,z
y,-x+y,1/2+z
-x+y,y,z
x,x-y,z
-y,-x,z
y,x,1/2+z
x-y,-y,1/2+z
-x,-x+y,1/2+z
loop_
_atom_site_type_symbol
_atom_site_label
_atom_site_fract_x
_atom_site_fract_y
_atom_site_fract_z
Si Si1 0.329760 0.932227 0.621500
Si Si2 0.844005 0.155996 0.253441
Si Si3 0.755138 0.244863 0.394406
Si Si4 0.000000 0.000000 0.558880
Si Si5 0.315103 0.157552 0.536426
Si Si6 0.000000 0.000000 0.234312
O O1 0.457122 0.914244 0.618986
O O2 0.198716 0.801285 0.590570
O O3 0.284436 0.932597 0.702893
O O4 0.353170 0.062209 0.580333
O O5 0.800606 0.199395 0.324283
O O6 0.923709 0.076292 0.260713
O O7 0.810558 0.405279 0.395220
O O8 0.803358 0.196643 0.462249
O O9 0.923434 0.846867 0.532945
O O10 0.000000 0.000000 0.646575
#
# Coordination Sequence:
#
# PCOD9585384 Si02
#       6
#    12   6   6   2   6   2
#     4  10  20  33  60  86 115 155 215 252 308 360
#     4  10  20  36  63  84 125 153 200 266 308 370
#     4  10  24  40  56  83 131 163 211 250 319 376
#     4  12  18  40  59  91 129 145 197 271 309 361
#     4  12  20  38  59  85 128 167 191 272 309 376
#     4  12  18  40  59 103 111 154 203 265 315 373
#
# _framework density 15.677778999999999
#
# number of rings (size 3 to 8) (size 9 to 14) (size 15 to 20)
#    1.412    0.000    5.294    2.471    0.000    1.412 
#    1.059    0.000    0.000    0.000    0.000    0.000 
#    0.000    0.000    0.000    0.000    0.000    0.000 
#
# Total GULP energy -189297.021460 kJ/mol
# GULP energy per Si atom -5567.559455 kJ/mol
# Density = 1.564210 g / cm^3
# Si number density = 15.677779 Si / 1000 Ang^3
#
#
#
# Elastic Constant Matrix: (Units=GPa)
#
#
# Indices 1 2 3 4 5 6 
#
# 1 102.8736 31.6741 53.0521 0.0000 0.0000 0.0000
# 2 31.6741 102.8736 53.0521 0.0000 0.0000 0.0000
# 3 53.0521 53.0521 136.0065 0.0000 0.0000 0.0000
# 4 0.0000 0.0000 0.0000 22.5909 0.0000 0.0000
# 5 0.0000 0.0000 0.0000 0.0000 22.5909 0.0000
# 6 0.0000 0.0000 0.0000 0.0000 0.0000 35.5998
#
#
#
# Elastic Compliance Matrix: (Units=1/GPa)
#
#
# Indices 1 2 3 4 5 6 
#
# 1 0.012390 -0.001655 -0.004187 0.000000 0.000000 0.000000
# 2 -0.001655 0.012390 -0.004187 0.000000 0.000000 0.000000
# 3 -0.004187 -0.004187 0.010619 0.000000 0.000000 0.000000
# 4 0.000000 0.000000 0.000000 0.044266 0.000000 0.000000
# 5 0.000000 0.000000 0.000000 0.000000 0.044266 0.000000
# 6 0.000000 0.000000 0.000000 0.000000 0.000000 0.028090
#
#
# Mechanical properties :
#
#
# Convention : Reuss Voigt Hill
#
# Bulk Modulus (GPa) = 65.19248 68.59001 66.89124
# Shear Modulus (GPa) = 28.21797 29.75468 28.98632
#
# Velocity S-wave (km/s) = 4.24709 4.36120 4.30452
# Velocity P-wave (km/s) = 8.10699 8.31895 8.21366
#
# Compressibility (1/GPa) = 0.01533919
#
# Stress axis : x y z
#
# Youngs Moduli (GPa) = 80.71253 80.71253 94.16971
#
# Poissons Ratio (x) = 0.13361 0.39430
# Poissons Ratio (y) = 0.13361 0.39430
# Poissons Ratio (z) = 0.33795 0.33795
#
# Static dielectric constant tensor:
#      x y z
#    x 1.517680 0.000000 0.000000 
#    y 0.000000 1.517680 0.000000 
#    z 0.000000 0.000000 1.506030 
# 
# From -- ./inp_files/2761.got.cif
#   From: 2010.05.17/outbox.cif.g08.bks.cpg/sg186_2_cif.got.tgz:2761.got - 2010.05.20 12:07:08.
