data_PCOD9585936
_publ_section_title
;
Structure prediction by ZEFSAII (Michael W. Deem and Ramdas Pophale) SiO2 
 PCOD9585936
Probable space group: P -6 C 2
;
_chemical_formula_sum "Si O2"
_cell_formula_units_Z 72
_cell_length_a 24.553884
_cell_length_b 24.553884
_cell_length_c 8.884650
_cell_angle_alpha 90.000000
_cell_angle_beta 90.000000
_cell_angle_gamma 120.000000
_cell_volume 4638.860955
_symmetry_space_group_name_H-M "P -6 C 2"
_symmetry_group_IT_number 188
_symmetry_cell_setting 'hexagonal'
loop_
_space_group_symop_operation_xyz
x,y,z
-x+y,-x,1/2-z
-y,x-y,z
x,y,1/2-z
-x+y,-x,z
-y,x-y,1/2-z
-y,-x,-z
-x+y,y,-z
x,x-y,-z
-x+y,y,1/2+z
x,x-y,1/2+z
-y,-x,1/2+z
loop_
_atom_site_type_symbol
_atom_site_label
_atom_site_fract_x
_atom_site_fract_y
_atom_site_fract_z
Si Si1 0.001514 0.885931 0.428294
Si Si2 0.927730 0.190019 0.929833
Si Si3 0.258015 0.399395 0.430376
Si Si4 0.370574 0.853338 0.423719
Si Si5 0.993721 0.551640 0.921203
Si Si6 0.324346 0.326729 0.567485
O O1 0.004021 0.895873 0.250000
O O2 0.068849 0.931152 0.500000
O O3 0.950913 0.901825 0.500000
O O4 0.974858 0.812253 0.456891
O O5 0.922379 0.194720 0.750000
O O6 0.861305 0.138696 0.000000
O O7 0.957039 0.257148 0.008778
O O8 0.255728 0.395642 0.250000
O O9 0.191319 0.382637 0.500000
O O10 0.308598 0.470259 0.483926
O O11 0.282369 0.354401 0.498176
O O12 0.355705 0.832696 0.250000
O O13 0.415537 0.831073 0.500000
O O14 0.411427 0.929786 0.421823
O O15 0.972227 0.539030 0.750000
O O16 0.978404 0.603746 0.983353
O O17 0.971433 0.485717 0.000000
O O18 0.322157 0.329246 0.750000
#
# Coordination Sequence:
#
# PCOD9585936 Si02
#       6
#    12  12  12  12  12  12
#     4  10  20  33  49  67  87 111 146 193 247 300
#     4  10  21  36  52  70  92 124 162 199 241 293
#     4  11  21  33  48  68  94 124 158 200 247 295
#     4   9  16  28  45  66  89 116 149 184 224 273
#     4   8  15  26  43  67  93 118 144 175 213 255
#     4  10  20  34  50  70  96 125 157 195 237 286
#
# _framework density 15.521051
#
# number of rings (size 3 to 8) (size 9 to 14) (size 15 to 20)
#    0.000    2.333    0.000    4.667    0.000    7.333 
#    0.000    1.667    0.000    0.333    0.000    2.333 
#    0.000    0.000    0.000    0.500    0.000    8.000 
#
# Total GULP energy -401445.188384 kJ/mol
# GULP energy per Si atom -5575.627616 kJ/mol
# Density = 1.548572 g / cm^3
# Si number density = 15.521051 Si / 1000 Ang^3
#
#
#
# Elastic Constant Matrix: (Units=GPa)
#
#
# Indices 1 2 3 4 5 6 
#
# 1 84.9668 66.2406 52.9369 -0.0001 0.0000 0.0000
# 2 66.2406 84.9668 52.9369 0.0001 0.0000 0.0000
# 3 52.9369 52.9369 97.7048 0.0000 0.0000 0.0000
# 4 -0.0001 0.0001 0.0000 24.2839 0.0000 0.0000
# 5 0.0000 0.0000 0.0000 0.0000 24.2839 -0.0001
# 6 0.0000 0.0000 0.0000 0.0000 -0.0001 9.3631
#
#
#
# Elastic Compliance Matrix: (Units=1/GPa)
#
#
# Indices 1 2 3 4 5 6 
#
# 1 0.032028 -0.021373 -0.005773 0.000000 0.000000 0.000000
# 2 -0.021373 0.032028 -0.005773 0.000000 0.000000 0.000000
# 3 -0.005773 -0.005773 0.016491 0.000000 0.000000 0.000000
# 4 0.000000 0.000000 0.000000 0.041180 0.000000 0.000000
# 5 0.000000 0.000000 0.000000 0.000000 0.041180 0.000000
# 6 0.000000 0.000000 0.000000 0.000000 0.000000 0.106802
#
#
# Mechanical properties :
#
#
# Convention : Reuss Voigt Hill
#
# Bulk Modulus (GPa) = 67.98474 67.98527 67.98500
# Shear Modulus (GPa) = 14.68639 17.95444 16.32041
#
# Velocity S-wave (km/s) = 3.07941 3.40484 3.24620
# Velocity P-wave (km/s) = 7.51934 7.70417 7.61232
#
# Compressibility (1/GPa) = 0.01470918
#
# Stress axis : x y z
#
# Youngs Moduli (GPa) = 31.22222 31.22222 60.63897
#
# Poissons Ratio (x) = 0.66730 0.35009
# Poissons Ratio (y) = 0.66730 0.35009
# Poissons Ratio (z) = 0.18026 0.18026
#
# Static dielectric constant tensor:
#      x y z
#    x 1.511310 0.000000 0.000000 
#    y 0.000000 1.511310 0.000000 
#    z 0.000000 0.000000 1.522990 
# 
# From -- ./inp_files/1024.got.cif
#   From: 2010.05.17/outbox.cif.g08.bks.cpg/sg188_1_cif.got.tgz:1024.got - 2010.05.20 12:11:46.
