data_PCOD9585541
_publ_section_title
;
Structure prediction by ZEFSAII (Michael W. Deem and Ramdas Pophale) SiO2 
 PCOD9585541
Probable space group: P -6 M 2
;
_chemical_formula_sum "Si O2"
_cell_formula_units_Z 84
_cell_length_a 17.781706
_cell_length_b 17.781706
_cell_length_c 15.796616
_cell_angle_alpha 90.000000
_cell_angle_beta 90.000000
_cell_angle_gamma 120.000000
_cell_volume 4325.552062
_symmetry_space_group_name_H-M "P -6 M 2"
_symmetry_group_IT_number 187
_symmetry_cell_setting 'hexagonal'
loop_
_space_group_symop_operation_xyz
x,y,z
-x+y,-x,-z
-y,x-y,z
x,y,-z
-x+y,-x,z
-y,x-y,-z
-y,-x,-z
-x+y,y,-z
x,x-y,-z
-x+y,y,z
x,x-y,z
-y,-x,z
loop_
_atom_site_type_symbol
_atom_site_label
_atom_site_fract_x
_atom_site_fract_y
_atom_site_fract_z
Si Si1 0.842112 0.333071 0.761892
Si Si2 0.172266 0.172302 0.819770
Si Si3 0.386438 0.103845 0.406844
Si Si4 0.066673 0.763970 0.659818
Si Si5 0.335271 0.834324 0.720496
Si Si6 0.138585 0.444198 0.092872
Si Si7 0.709556 0.057957 0.905491
O O1 0.852726 0.426363 0.780404
O O2 0.741253 0.258748 0.755807
O O3 0.886342 0.333600 0.672363
O O4 0.885238 0.302733 0.834222
O O5 0.085257 0.170515 0.850601
O O6 0.207568 0.237259 0.739435
O O7 0.252603 0.212487 0.884337
O O8 0.152531 0.076266 0.796302
O O9 0.424956 0.109265 0.500000
O O10 0.369889 0.184945 0.398828
O O11 0.296431 0.014262 0.398439
O O12 0.147824 0.852177 0.623982
O O13 0.105965 0.704198 0.691848
O O14 0.429901 0.859802 0.687712
O O15 0.263711 0.736290 0.696168
O O16 0.338192 0.838326 0.822711
O O17 0.200690 0.401380 0.097546
O O18 0.037829 0.374607 0.096615
O O19 0.156200 0.487110 0.000000
O O20 0.718114 0.093993 0.000000
#
# Coordination Sequence:
#
# PCOD9585541 Si02
#       7
#    12  12  12  12  12  12  12
#     4  11  24  43  64  87 117 154 196 244 299 361
#     4  11  21  36  57  84 118 157 201 248 297 354
#     4  10  21  39  64  93 123 154 189 236 297 359
#     4  10  20  35  57  85 119 158 198 239 290 350
#     4  10  19  32  50  75 106 145 191 241 293 345
#     4   9  17  30  48  72 104 142 184 233 289 343
#     4  11  22  37  60  85 115 155 198 244 295 350
#
# _framework density 19.419485999999999
#
# number of rings (size 3 to 8) (size 9 to 14) (size 15 to 20)
#    0.000    1.714    2.857    1.714    0.000    5.429 
#    0.000    1.429    0.000    3.714    0.000    0.000 
#    0.000    1.143    0.000    0.000    0.000    0.000 
#
# Total GULP energy -468659.481894 kJ/mol
# GULP energy per Si atom -5579.279546 kJ/mol
# Density = 1.937529 g / cm^3
# Si number density = 19.419486 Si / 1000 Ang^3
#
#
#
# Elastic Constant Matrix: (Units=GPa)
#
#
# Indices 1 2 3 4 5 6 
#
# 1 88.0427 44.9551 28.9371 0.0000 -0.0001 0.0000
# 2 44.9551 88.0427 28.9371 0.0000 0.0001 0.0000
# 3 28.9371 28.9371 86.8363 0.0000 0.0000 0.0000
# 4 0.0000 0.0000 0.0000 8.7256 0.0000 0.0001
# 5 -0.0001 0.0001 0.0000 0.0000 8.7256 0.0000
# 6 0.0000 0.0000 0.0000 0.0001 0.0000 21.5438
#
#
#
# Elastic Compliance Matrix: (Units=1/GPa)
#
#
# Indices 1 2 3 4 5 6 
#
# 1 0.016001 -0.007207 -0.002931 0.000000 0.000000 0.000000
# 2 -0.007207 0.016001 -0.002931 0.000000 0.000000 0.000000
# 3 -0.002931 -0.002931 0.013469 0.000000 0.000000 0.000000
# 4 0.000000 0.000000 0.000000 0.114605 0.000000 0.000000
# 5 0.000000 0.000000 0.000000 0.000000 0.114605 0.000000
# 6 0.000000 0.000000 0.000000 0.000000 0.000000 0.046417
#
#
# Mechanical properties :
#
#
# Convention : Reuss Voigt Hill
#
# Bulk Modulus (GPa) = 51.71918 52.06449 51.89184
# Shear Modulus (GPa) = 14.13705 18.47183 16.30444
#
# Velocity S-wave (km/s) = 2.70104 3.08750 2.90071
# Velocity P-wave (km/s) = 6.03473 6.29117 6.16428
#
# Compressibility (1/GPa) = 0.01933519
#
# Stress axis : x y z
#
# Youngs Moduli (GPa) = 62.49474 62.49474 74.24428
#
# Poissons Ratio (x) = 0.45041 0.21758
# Poissons Ratio (y) = 0.45041 0.21758
# Poissons Ratio (z) = 0.18314 0.18314
#
# Static dielectric constant tensor:
#      x y z
#    x 1.683780 0.000000 0.000000 
#    y 0.000000 1.683780 0.000000 
#    z 0.000000 0.000000 1.692370 
# 
# From -- ./inp_files/2582.got.cif
#   From: 2010.05.17/outbox.cif.g08.bks.cpg/sg187_2_cif.got.tgz:2582.got - 2010.05.20 12:09:04.
