data_PCOD9585482
_publ_section_title
;
Structure prediction by ZEFSAII (Michael W. Deem and Ramdas Pophale) SiO2 
 PCOD9585482
Probable space group: P -6 M 2
;
_chemical_formula_sum "Si O2"
_cell_formula_units_Z 72
_cell_length_a 16.942686
_cell_length_b 16.942686
_cell_length_c 19.046098
_cell_angle_alpha 90.000000
_cell_angle_beta 90.000000
_cell_angle_gamma 120.000000
_cell_volume 4734.794893
_symmetry_space_group_name_H-M "P -6 M 2"
_symmetry_group_IT_number 187
_symmetry_cell_setting 'hexagonal'
loop_
_space_group_symop_operation_xyz
x,y,z
-x+y,-x,-z
-y,x-y,z
x,y,-z
-x+y,-x,z
-y,x-y,-z
-y,-x,-z
-x+y,y,-z
x,x-y,-z
-x+y,y,z
x,x-y,z
-y,-x,z
loop_
_atom_site_type_symbol
_atom_site_label
_atom_site_fract_x
_atom_site_fract_y
_atom_site_fract_z
Si Si1 0.629158 0.719010 0.215918
Si Si2 0.700919 0.710863 0.581438
Si Si3 0.000589 0.186046 0.287390
Si Si4 0.144742 0.666210 0.080036
Si Si5 0.488295 0.333912 0.585219
Si Si6 0.333831 0.483405 0.646469
O O1 0.632276 0.816138 0.217218
O O2 0.730563 0.744469 0.237750
O O3 0.591705 0.675977 0.140328
O O4 0.558505 0.662332 0.277885
O O5 0.727218 0.729089 0.500000
O O6 0.772642 0.785453 0.634135
O O7 0.689532 0.613298 0.602651
O O8 0.601547 0.698981 0.593913
O O9 0.904370 0.095631 0.279665
O O10 0.083865 0.167729 0.273729
O O11 0.149114 0.574557 0.090303
O O12 0.246325 0.753676 0.086773
O O13 0.114176 0.666622 0.000000
O O14 0.491980 0.335974 0.500000
O O15 0.505095 0.252548 0.608395
O O16 0.567988 0.432013 0.610305
O O17 0.254891 0.509781 0.650146
O O18 0.430168 0.569833 0.627926
#
# Coordination Sequence:
#
# PCOD9585482 Si02
#       6
#    12  12  12  12  12  12
#     4   8  16  29  43  62  88 117 147 179 218 260
#     4  10  20  33  46  61  84 112 140 177 232 291
#     4  10  20  34  51  67  82 104 140 187 235 282
#     4   9  15  23  39  66 100 134 163 187 209 238
#     4   9  16  26  41  60  80 102 130 165 206 256
#     4  10  19  30  44  61  84 117 156 192 220 252
#
# _framework density 15.206572
#
# number of rings (size 3 to 8) (size 9 to 14) (size 15 to 20)
#    0.000    2.667    0.000    3.667    0.000    4.667 
#    0.000    1.667    0.000    2.500    0.000    0.000 
#    0.000    1.333    0.000    0.500    0.000    7.000 
#
# Total GULP energy -401172.774666 kJ/mol
# GULP energy per Si atom -5571.844093 kJ/mol
# Density = 1.517196 g / cm^3
# Si number density = 15.206572 Si / 1000 Ang^3
#
#
#
# Elastic Constant Matrix: (Units=GPa)
#
#
# Indices 1 2 3 4 5 6 
#
# 1 57.3902 11.2051 15.4000 0.0000 0.0000 0.0000
# 2 11.2051 57.3902 15.4000 0.0000 0.0000 0.0000
# 3 15.4000 15.4000 71.4791 0.0000 0.0000 0.0000
# 4 0.0000 0.0000 0.0000 10.9929 0.0000 0.0000
# 5 0.0000 0.0000 0.0000 0.0000 10.9929 0.0000
# 6 0.0000 0.0000 0.0000 0.0000 0.0000 23.0926
#
#
#
# Elastic Compliance Matrix: (Units=1/GPa)
#
#
# Indices 1 2 3 4 5 6 
#
# 1 0.018896 -0.002756 -0.003477 0.000000 0.000000 0.000000
# 2 -0.002756 0.018896 -0.003477 0.000000 0.000000 0.000000
# 3 -0.003477 -0.003477 0.015488 0.000000 0.000000 0.000000
# 4 0.000000 0.000000 0.000000 0.090968 0.000000 0.000000
# 5 0.000000 0.000000 0.000000 0.000000 0.090968 0.000000
# 6 0.000000 0.000000 0.000000 0.000000 0.000000 0.043304
#
#
# Mechanical properties :
#
#
# Convention : Reuss Voigt Hill
#
# Bulk Modulus (GPa) = 29.53455 30.02996 29.78225
# Shear Modulus (GPa) = 16.16937 18.63265 17.40101
#
# Velocity S-wave (km/s) = 3.26439 3.50423 3.38643
# Velocity P-wave (km/s) = 5.80282 6.01363 5.90916
#
# Compressibility (1/GPa) = 0.03385866
#
# Stress axis : x y z
#
# Youngs Moduli (GPa) = 52.92186 52.92186 64.56437
#
# Poissons Ratio (x) = 0.14586 0.22451
# Poissons Ratio (y) = 0.14586 0.22451
# Poissons Ratio (z) = 0.18402 0.18402
#
# Static dielectric constant tensor:
#      x y z
#    x 1.509700 0.000000 0.000000 
#    y 0.000000 1.509700 0.000000 
#    z 0.000000 0.000000 1.510490 
# 
# From -- ./inp_files/3088.got.cif
#   From: 2010.05.17/outbox.cif.g08.bks.cpg/sg187_2_cif.got.tgz:3088.got - 2010.05.20 12:09:04.
