data_PCOD9585821
_publ_section_title
;
Structure prediction by ZEFSAII (Michael W. Deem and Ramdas Pophale) SiO2 
 PCOD9585821
Probable space group: P -6 M 2
;
_chemical_formula_sum "Si O2"
_cell_formula_units_Z 96
_cell_length_a 18.000000
_cell_length_b 18.000000
_cell_length_c 21.000000
_cell_angle_alpha 90.000000
_cell_angle_beta 90.000000
_cell_angle_gamma 120.000000
_cell_volume 5892.436847
_symmetry_space_group_name_H-M "P -6 M 2"
_symmetry_group_IT_number 187
_symmetry_cell_setting 'hexagonal'
loop_
_space_group_symop_operation_xyz
x,y,z
-x+y,-x,-z
-y,x-y,z
x,y,-z
-x+y,-x,z
-y,x-y,-z
-y,-x,-z
-x+y,y,-z
x,x-y,-z
-x+y,y,z
x,x-y,z
-y,-x,z
loop_
_atom_site_type_symbol
_atom_site_label
_atom_site_fract_x
_atom_site_fract_y
_atom_site_fract_z
Si Si1 0.827329 0.827638 0.877250
Si Si2 0.666270 0.157413 0.821196
Si Si3 0.198104 0.230267 0.732375
Si Si4 0.164355 0.163463 0.596295
Si Si5 0.951774 0.387996 0.575461
Si Si6 0.896339 0.277156 0.303722
Si Si7 0.912194 0.268327 0.071330
Si Si8 0.101895 0.365886 0.425948
O O1 0.921206 0.842411 0.892333
O O2 0.811838 0.812271 0.801173
O O3 0.757840 0.740641 0.911130
O O4 0.820421 0.910211 0.894316
O O5 0.578542 0.157084 0.827747
O O6 0.747066 0.252935 0.830112
O O7 0.676739 0.127551 0.751190
O O8 0.675579 0.097859 0.874121
O O9 0.135545 0.271090 0.732856
O O10 0.163980 0.165174 0.673098
O O11 0.298476 0.285953 0.715388
O O12 0.190871 0.095436 0.574408
O O13 0.225778 0.262785 0.578191
O O14 0.069519 0.139037 0.574342
O O15 0.938244 0.362685 0.500000
O O16 0.939745 0.469873 0.582301
O O17 0.896633 0.314819 0.626860
O O18 0.048538 0.410888 0.594280
O O19 0.823283 0.176717 0.301483
O O20 0.822160 0.177841 0.072494
O O21 0.924235 0.303796 0.000000
O O22 0.119005 0.387054 0.500000
O O23 0.191465 0.382929 0.395887
#
# Coordination Sequence:
#
# PCOD9585821 Si02
#       8
#    12  12  12  12  12  12  12  12
#     4  10  18  29  45  67  98 138 181 217 245 279
#     4  10  20  34  53  74  95 122 160 207 258 310
#     4  10  19  29  45  69  97 129 167 206 238 273
#     4  10  18  27  40  61  90 122 156 193 230 268
#     4  10  21  35  51  73  97 121 156 202 248 296
#     4  11  20  33  53  74  99 131 166 204 247 295
#     4   9  18  32  48  68  98 132 163 201 251 298
#     4   9  18  31  46  63  85 117 153 187 230 285
#
# _framework density 16.292071
#
# number of rings (size 3 to 8) (size 9 to 14) (size 15 to 20)
#    0.000    2.125    2.500    1.875    0.000    1.000 
#    0.000    2.500    0.000    3.000    0.000    1.750 
#    0.000    0.000    0.000    1.750    0.000    3.250 
#
# Total GULP energy -534517.365695 kJ/mol
# GULP energy per Si atom -5567.889226 kJ/mol
# Density = 1.625499 g / cm^3
# Si number density = 16.292071 Si / 1000 Ang^3
#
#
#
# Elastic Constant Matrix: (Units=GPa)
#
#
# Indices 1 2 3 4 5 6 
#
# 1 64.8191 35.7861 25.0136 0.0000 0.0000 0.0000
# 2 35.7861 64.8191 25.0136 0.0000 0.0000 0.0000
# 3 25.0136 25.0136 75.2164 0.0000 0.0000 0.0000
# 4 0.0000 0.0000 0.0000 11.0330 0.0000 0.0000
# 5 0.0000 0.0000 0.0000 0.0000 11.0330 0.0000
# 6 0.0000 0.0000 0.0000 0.0000 0.0000 14.5165
#
#
#
# Elastic Compliance Matrix: (Units=1/GPa)
#
#
# Indices 1 2 3 4 5 6 
#
# 1 0.023176 -0.011267 -0.003960 0.000000 0.000000 0.000000
# 2 -0.011267 0.023176 -0.003960 0.000000 0.000000 0.000000
# 3 -0.003960 -0.003960 0.015929 0.000000 0.000000 0.000000
# 4 0.000000 0.000000 0.000000 0.090637 0.000000 0.000000
# 5 0.000000 0.000000 0.000000 0.000000 0.090637 0.000000
# 6 0.000000 0.000000 0.000000 0.000000 0.000000 0.068887
#
#
# Mechanical properties :
#
#
# Convention : Reuss Voigt Hill
#
# Bulk Modulus (GPa) = 41.83105 41.83126 41.83116
# Shear Modulus (GPa) = 13.93577 15.25257 14.59417
#
# Velocity S-wave (km/s) = 2.92785 3.06305 2.99621
# Velocity P-wave (km/s) = 6.09600 6.18395 6.14013
#
# Compressibility (1/GPa) = 0.02390569
#
# Stress axis : x y z
#
# Youngs Moduli (GPa) = 43.14731 43.14731 62.77809
#
# Poissons Ratio (x) = 0.48615 0.24863
# Poissons Ratio (y) = 0.48615 0.24863
# Poissons Ratio (z) = 0.17088 0.17088
#
# Static dielectric constant tensor:
#      x y z
#    x 1.559300 0.000000 0.000000 
#    y 0.000000 1.559300 0.000000 
#    z 0.000000 0.000000 1.582280 
# 
# From -- ./inp_files/3727.got.cif
#   From: 2010.05.17/outbox.ucp.g08.bks.cvg/sg187_2_cif.got.tgz:3727.got - 2010.06.11 15:21:44.
