data_PCOD9585698
_publ_section_title
;
Structure prediction by ZEFSAII (Michael W. Deem and Ramdas Pophale) SiO2 
 PCOD9585698
Probable space group: P -6 M 2
;
_chemical_formula_sum "Si O2"
_cell_formula_units_Z 54
_cell_length_a 12.954452
_cell_length_b 12.954452
_cell_length_c 23.666157
_cell_angle_alpha 90.000000
_cell_angle_beta 90.000000
_cell_angle_gamma 120.000000
_cell_volume 3439.509120
_symmetry_space_group_name_H-M "P -6 M 2"
_symmetry_group_IT_number 187
_symmetry_cell_setting 'hexagonal'
loop_
_space_group_symop_operation_xyz
x,y,z
-x+y,-x,-z
-y,x-y,z
x,y,-z
-x+y,-x,z
-y,x-y,-z
-y,-x,-z
-x+y,y,-z
x,x-y,-z
-x+y,y,z
x,x-y,z
-y,-x,z
loop_
_atom_site_type_symbol
_atom_site_label
_atom_site_fract_x
_atom_site_fract_y
_atom_site_fract_z
Si Si1 0.086945 0.421096 0.500000
Si Si2 0.332787 0.911143 0.837549
Si Si3 0.088100 0.666519 0.291889
Si Si4 0.667069 0.579362 0.936833
Si Si5 0.912662 0.579096 0.605858
O O1 0.206686 0.413371 0.500000
O O2 0.118163 0.559082 0.500000
O O3 0.004451 0.359864 0.445400
O O4 0.446298 0.892595 0.843522
O O5 0.213060 0.786941 0.844804
O O6 0.334952 0.951594 0.772879
O O7 0.345636 0.002676 0.885846
O O8 0.117066 0.558533 0.297221
O O9 0.207796 0.792205 0.302445
O O10 0.984743 0.637857 0.336583
O O11 0.786691 0.573381 0.932645
O O12 0.553063 0.446938 0.932367
O O13 0.662353 0.624484 0.000000
O O14 0.792645 0.585289 0.600803
O O15 0.883680 0.441840 0.604915
#
# Coordination Sequence:
#
# PCOD9585698 Si02
#       5
#     6  12  12  12  12
#     4  10  20  34  54  78 100 122 152 194 238 276
#     4   9  17  29  46  69  95 121 149 184 230 281
#     4   9  17  30  49  71  94 121 153 191 233 275
#     4   9  17  29  45  65  89 118 152 189 229 273
#     4  10  20  33  50  72  99 129 158 189 227 273
#
# _framework density 15.699914
#
# number of rings (size 3 to 8) (size 9 to 14) (size 15 to 20)
#    0.000    2.667    0.000    2.000    0.000    4.000 
#    0.000    3.333    0.000   10.667    0.000    0.000 
#    0.000    0.000    0.000    0.000    0.000    0.000 
#
# Total GULP energy -300912.057449 kJ/mol
# GULP energy per Si atom -5572.445508 kJ/mol
# Density = 1.566418 g / cm^3
# Si number density = 15.699914 Si / 1000 Ang^3
#
#
#
# Elastic Constant Matrix: (Units=GPa)
#
#
# Indices 1 2 3 4 5 6 
#
# 1 88.1751 50.1949 72.2883 0.0000 0.0001 0.0000
# 2 50.1949 88.1751 72.2883 0.0000 -0.0001 0.0000
# 3 72.2883 72.2883 138.1267 0.0000 0.0000 0.0000
# 4 0.0000 0.0000 0.0000 22.9976 0.0000 -0.0001
# 5 0.0001 -0.0001 0.0000 0.0000 22.9976 0.0000
# 6 0.0000 0.0000 0.0000 -0.0001 0.0000 18.9901
#
#
#
# Elastic Compliance Matrix: (Units=1/GPa)
#
#
# Indices 1 2 3 4 5 6 
#
# 1 0.021138 -0.005191 -0.008346 0.000000 0.000000 0.000000
# 2 -0.005191 0.021138 -0.008346 0.000000 0.000000 0.000000
# 3 -0.008346 -0.008346 0.015976 0.000000 0.000000 0.000000
# 4 0.000000 0.000000 0.000000 0.043483 0.000000 0.000000
# 5 0.000000 0.000000 0.000000 0.000000 0.043483 0.000000
# 6 0.000000 0.000000 0.000000 0.000000 0.000000 0.052659
#
#
# Mechanical properties :
#
#
# Convention : Reuss Voigt Hill
#
# Bulk Modulus (GPa) = 69.03148 78.22445 73.62797
# Shear Modulus (GPa) = 20.28628 20.97742 20.63185
#
# Velocity S-wave (km/s) = 3.59852 3.65930 3.62904
# Velocity P-wave (km/s) = 7.83138 8.23328 8.03485
#
# Compressibility (1/GPa) = 0.01448614
#
# Stress axis : x y z
#
# Youngs Moduli (GPa) = 47.30713 47.30713 62.59578
#
# Poissons Ratio (x) = 0.24557 0.52243
# Poissons Ratio (y) = 0.24557 0.52243
# Poissons Ratio (z) = 0.39483 0.39483
#
# Static dielectric constant tensor:
#      x y z
#    x 1.490420 0.000000 0.000000 
#    y 0.000000 1.490420 0.000000 
#    z 0.000000 0.000000 1.553050 
# 
# From -- ./inp_files/3851.got.cif
#   From: 2010.05.17/outbox.cif.g08.bks.cpg/sg187_2_cif.got.tgz:3851.got - 2010.05.20 12:09:04.
