data_PCOD9585080
_publ_section_title
;
Structure prediction by ZEFSAII (Michael W. Deem and Ramdas Pophale) SiO2 
 PCOD9585080
Probable space group: P 6 M M
;
_chemical_formula_sum "Si O2"
_cell_formula_units_Z 84
_cell_length_a 21.543225
_cell_length_b 21.543225
_cell_length_c 12.505320
_cell_angle_alpha 90.000000
_cell_angle_beta 90.000000
_cell_angle_gamma 120.000000
_cell_volume 5026.282285
_symmetry_space_group_name_H-M "P 6 M M"
_symmetry_group_IT_number 183
_symmetry_cell_setting 'hexagonal'
loop_
_space_group_symop_operation_xyz
x,y,z
x-y,x,z
-y,x-y,z
-x,-y,z
-x+y,-x,z
y,-x+y,z
-x+y,y,z
x,x-y,z
-y,-x,z
y,x,z
x-y,-y,z
-x,-x+y,z
loop_
_atom_site_type_symbol
_atom_site_label
_atom_site_fract_x
_atom_site_fract_y
_atom_site_fract_z
Si Si1 0.477161 0.664636 0.686770
Si Si2 0.664636 0.477161 0.304898
Si Si3 0.294128 0.077795 0.124679
Si Si4 0.918788 0.556106 0.869412
Si Si5 0.616480 0.534176 0.495833
Si Si6 0.556105 0.637317 0.122257
Si Si7 0.783668 0.077795 0.866992
O O1 0.485502 0.742751 0.690064
O O2 0.395566 0.604435 0.659525
O O3 0.497822 0.641887 0.797853
O O4 0.528341 0.657475 0.599214
O O5 0.742751 0.485501 0.301602
O O6 0.604435 0.395566 0.332144
O O7 0.657477 0.528342 0.392453
O O8 0.641887 0.497821 0.193815
O O9 0.290976 0.145488 0.168452
O O10 0.371427 0.084916 0.139122
O O11 0.235316 0.000000 0.166265
O O12 0.285230 0.076947 0.995836
O O13 0.915084 0.628573 0.852548
O O14 0.000000 0.576672 0.838930
O O15 0.910320 0.539456 0.995834
O O16 0.539160 0.460841 0.495831
O O17 0.598097 0.598097 0.495833
O O18 0.576672 0.576672 0.152738
O O19 0.854513 0.145488 0.823219
O O20 0.764684 0.000000 0.825407
#
# Coordination Sequence:
#
# PCOD9585080 Si02
#       7
#    12  12  12  12  12  12  12
#     4  11  22  35  51  71  98 129 159 193 238 298
#     4  11  22  35  51  71  98 129 159 193 238 298
#     4   8  13  22  37  57  81 109 142 180 223 271
#     4   9  18  32  50  71  93 121 161 208 251 286
#     4   9  19  36  56  74  90 115 156 202 240 274
#     4   9  18  32  50  71  93 121 161 208 251 286
#     4   8  13  22  37  57  81 109 142 180 223 271
#
# _framework density 16.712153000000001
#
# number of rings (size 3 to 8) (size 9 to 14) (size 15 to 20)
#    0.000    2.714    0.000    4.143    0.000    4.000 
#    0.000    2.857    0.000    2.000    0.000    2.000 
#    0.000    0.000    0.000    0.000    0.000    0.000 
#
# Total GULP energy -468032.860734 kJ/mol
# GULP energy per Si atom -5571.819771 kJ/mol
# Density = 1.667412 g / cm^3
# Si number density = 16.712153 Si / 1000 Ang^3
#
#
#
# Elastic Constant Matrix: (Units=GPa)
#
#
# Indices 1 2 3 4 5 6 
#
# 1 88.2413 68.8764 31.8854 0.0000 0.0000 0.0000
# 2 68.8764 88.2413 31.8854 0.0000 0.0000 0.0000
# 3 31.8854 31.8854 50.3760 0.0000 0.0000 0.0000
# 4 0.0000 0.0000 0.0000 15.5786 0.0000 0.0000
# 5 0.0000 0.0000 0.0000 0.0000 15.5786 0.0000
# 6 0.0000 0.0000 0.0000 0.0000 0.0000 9.6824
#
#
#
# Elastic Compliance Matrix: (Units=1/GPa)
#
#
# Indices 1 2 3 4 5 6 
#
# 1 0.030102 -0.021537 -0.005421 0.000000 0.000000 0.000000
# 2 -0.021537 0.030102 -0.005421 0.000000 0.000000 0.000000
# 3 -0.005421 -0.005421 0.026713 0.000000 0.000000 0.000000
# 4 0.000000 0.000000 0.000000 0.064191 0.000000 0.000000
# 5 0.000000 0.000000 0.000000 0.000000 0.064191 0.000000
# 6 0.000000 0.000000 0.000000 0.000000 0.000000 0.103280
#
#
# Mechanical properties :
#
#
# Convention : Reuss Voigt Hill
#
# Bulk Modulus (GPa) = 45.12921 54.68366 49.90643
# Shear Modulus (GPa) = 12.79673 14.44869 13.62271
#
# Velocity S-wave (km/s) = 2.77016 2.94353 2.85816
# Velocity P-wave (km/s) = 6.10689 6.65916 6.38900
#
# Compressibility (1/GPa) = 0.02215860
#
# Stress axis : x y z
#
# Youngs Moduli (GPa) = 33.21991 33.21991 37.43436
#
# Poissons Ratio (x) = 0.71547 0.20294
# Poissons Ratio (y) = 0.71547 0.20294
# Poissons Ratio (z) = 0.18009 0.18009
#
# Static dielectric constant tensor:
#      x y z
#    x 1.579740 0.000000 0.000000 
#    y 0.000000 1.579740 0.000000 
#    z 0.000000 0.000000 1.581300 
# 
# From -- ./inp_files/1786.got.cif
#   From: 2010.05.17/outbox.cif.g08.bks.cpg/sg183_1_cif.got.tgz:1786.got - 2010.05.20 12:02:58.
