data_PCOD9585107
_publ_section_title
;
Structure prediction by ZEFSAII (Michael W. Deem and Ramdas Pophale) SiO2 
 PCOD9585107
Probable space group: P 6 C C
;
_chemical_formula_sum "Si O2"
_cell_formula_units_Z 68
_cell_length_a 13.160484
_cell_length_b 13.160484
_cell_length_c 26.486362
_cell_angle_alpha 90.000000
_cell_angle_beta 90.000000
_cell_angle_gamma 120.000000
_cell_volume 3972.799661
_symmetry_space_group_name_H-M "P 6 C C"
_symmetry_group_IT_number 184
_symmetry_cell_setting 'hexagonal'
loop_
_space_group_symop_operation_xyz
x,y,z
x-y,x,z
-y,x-y,z
-x,-y,z
-x+y,-x,z
y,-x+y,z
-x+y,y,1/2+z
x,x-y,1/2+z
-y,-x,1/2+z
y,x,1/2+z
x-y,-y,1/2+z
-x,-x+y,1/2+z
loop_
_atom_site_type_symbol
_atom_site_label
_atom_site_fract_x
_atom_site_fract_y
_atom_site_fract_z
Si Si1 0.913863 0.360683 0.370310
Si Si2 0.333334 0.666668 0.489551
Si Si3 0.913863 0.553180 0.986336
Si Si4 0.242400 0.000000 0.178323
Si Si5 0.333334 0.666668 0.867097
Si Si6 0.236166 0.986816 0.068183
Si Si7 0.750650 0.763834 0.788463
O O1 0.902564 0.317424 0.428323
O O2 0.785038 0.333201 0.352194
O O3 0.969920 0.306962 0.333245
O O4 0.000000 0.500000 0.371317
O O5 0.451837 0.785038 0.504453
O O6 0.333334 0.666667 0.428324
O O7 0.000000 0.500000 0.985330
O O8 0.969921 0.662958 0.023402
O O9 0.292244 0.992660 0.123805
O O10 0.114429 0.885571 0.178323
O O11 0.299583 0.007340 0.232842
O O12 0.105924 0.874723 0.064937
O O13 0.874723 0.768800 0.791710
#
# Coordination Sequence:
#
# PCOD9585107 Si02
#       7
#    12   4  12  12   4  12  12
#     4  10  20  34  52  73  98 131 170 210 251 298
#     4   9  18  33  51  72 100 134 172 210 250 299
#     4  10  20  34  52  73  98 131 170 210 251 298
#     4   8  15  28  47  70  96 128 164 198 236 284
#     4   9  18  33  51  72 100 134 172 210 250 299
#     4  10  19  32  51  75 102 130 162 201 246 296
#     4  10  19  32  51  75 102 130 162 201 246 296
#
# _framework density 17.116394
#
# number of rings (size 3 to 8) (size 9 to 14) (size 15 to 20)
#    0.000    2.471    0.000    2.647    0.000    7.059 
#    0.000    0.882    0.000    2.118    0.000    4.941 
#    0.000    0.000    0.000    0.000    0.000    0.000 
#
# Total GULP energy -378644.505048 kJ/mol
# GULP energy per Si atom -5568.301545 kJ/mol
# Density = 1.707744 g / cm^3
# Si number density = 17.116394 Si / 1000 Ang^3
#
#
#
# Elastic Constant Matrix: (Units=GPa)
#
#
# Indices 1 2 3 4 5 6 
#
# 1 33.4421 42.5797 51.1167 0.0000 0.0001 -0.0001
# 2 42.5797 33.4417 51.1170 0.0000 0.0000 0.0000
# 3 51.1167 51.1170 136.2751 0.0000 0.0000 0.0000
# 4 0.0000 0.0000 0.0000 21.9519 0.0000 0.0001
# 5 0.0001 0.0000 0.0000 0.0000 21.9517 0.0000
# 6 -0.0001 0.0000 0.0000 0.0001 0.0000 -4.5685
#
#
#
# Elastic Compliance Matrix: (Units=1/GPa)
#
#
# Indices 1 2 3 4 5 6 
#
# 1 -0.041445 0.067990 -0.009957 0.000000 0.000000 0.000001
# 2 0.067990 -0.041447 -0.009956 0.000000 0.000000 -0.000001
# 3 -0.009957 -0.009956 0.014808 0.000000 0.000000 0.000000
# 4 0.000000 0.000000 0.000000 0.045554 0.000000 0.000001
# 5 0.000000 0.000000 0.000000 0.000000 0.045554 0.000000
# 6 0.000001 -0.000001 0.000000 0.000001 0.000000 -0.218892
#
#
# Mechanical properties :
#
#
# Convention : Reuss Voigt Hill
#
# Bulk Modulus (GPa) = 35.62681 54.75396 45.19039
# Shear Modulus (GPa) = -17.68887 11.75674 -2.96607
#
# Velocity S-wave (km/s) = -3.21821 2.62366 -1.31782
# Velocity P-wave (km/s) = 2.65526 6.42159 4.91361
#
# Compressibility (1/GPa) = 0.02806875
#
# Stress axis : x y z
#
# Youngs Moduli (GPa) = -24.12843 -24.12744 67.53316
#
# Poissons Ratio (x) = 1.64041 0.67243
# Poissons Ratio (y) = 1.64048 0.67237
# Poissons Ratio (z) = -0.24025 -0.24022
#
# Static dielectric constant tensor:
#      x y z
#    x 1.563090 0.000000 0.000000 
#    y 0.000000 1.563090 0.000000 
#    z 0.000000 0.000000 1.636320 
# 
# From -- ./inp_files/1322.got.cif
#   From: 2010.05.17/outbox.cif.g08.bks.cpg/sg184_cif.got.tgz:1322.got - 2010.05.20 12:04:40.
