data_PCOD9585946
_publ_section_title
;
Structure prediction by ZEFSAII (Michael W. Deem and Ramdas Pophale) SiO2 
 PCOD9585946
Probable space group: P -6 C 2
;
_chemical_formula_sum "Si O2"
_cell_formula_units_Z 72
_cell_length_a 24.577172
_cell_length_b 24.577172
_cell_length_c 9.052850
_cell_angle_alpha 90.000000
_cell_angle_beta 90.000000
_cell_angle_gamma 120.000000
_cell_volume 4735.651925
_symmetry_space_group_name_H-M "P -6 C 2"
_symmetry_group_IT_number 188
_symmetry_cell_setting 'hexagonal'
loop_
_space_group_symop_operation_xyz
x,y,z
-x+y,-x,1/2-z
-y,x-y,z
x,y,1/2-z
-x+y,-x,z
-y,x-y,1/2-z
-y,-x,-z
-x+y,y,-z
x,x-y,-z
-x+y,y,1/2+z
x,x-y,1/2+z
-y,-x,1/2+z
loop_
_atom_site_type_symbol
_atom_site_label
_atom_site_fract_x
_atom_site_fract_y
_atom_site_fract_z
Si Si1 0.084780 0.599539 0.929484
Si Si2 0.147753 0.736939 0.072244
Si Si3 0.740604 0.149549 0.418693
Si Si4 0.816345 0.072048 0.078528
Si Si5 0.257296 0.294846 0.580016
Si Si6 0.958284 0.590006 0.917892
O O1 0.090075 0.603429 0.750000
O O2 0.011423 0.574427 0.968429
O O3 0.103991 0.551996 0.000000
O O4 0.123697 0.668276 0.001934
O O5 0.150157 0.735518 0.250000
O O6 0.213710 0.786291 0.000000
O O7 0.097368 0.757162 0.018560
O O8 0.733961 0.161911 0.250000
O O9 0.785434 0.214567 0.500000
O O10 0.778062 0.110381 0.424465
O O11 0.672971 0.103831 0.488728
O O12 0.824143 0.061157 0.250000
O O13 0.882280 0.117721 0.000000
O O14 0.772782 0.007655 0.991531
O O15 0.236460 0.291344 0.750000
O O16 0.333565 0.329617 0.583479
O O17 0.940595 0.568537 0.750000
#
# Coordination Sequence:
#
# PCOD9585946 Si02
#       6
#    12  12  12  12  12  12
#     4  10  20  34  51  71  92 116 146 184 230 283
#     4  11  21  34  51  70  91 116 147 186 232 286
#     4   9  15  21  32  50  75 107 142 173 201 232
#     4   9  15  22  33  52  78 111 146 177 206 238
#     4   9  16  27  41  59  83 111 143 179 216 259
#     4   8  15  26  39  56  81 109 139 173 209 250
#
# _framework density 15.20382
#
# number of rings (size 3 to 8) (size 9 to 14) (size 15 to 20)
#    0.000    2.667    0.000    4.500    0.000    8.667 
#    0.000    0.000    0.000    0.333    0.000    2.333 
#    0.000    0.000    0.000    1.000    0.000   15.667 
#
# Total GULP energy -400927.129187 kJ/mol
# GULP energy per Si atom -5568.432350 kJ/mol
# Density = 1.516922 g / cm^3
# Si number density = 15.203820 Si / 1000 Ang^3
#
#
#
# Elastic Constant Matrix: (Units=GPa)
#
#
# Indices 1 2 3 4 5 6 
#
# 1 69.5274 41.6023 50.6381 0.0002 0.0000 0.0000
# 2 41.6023 69.5274 50.6381 -0.0002 0.0000 0.0000
# 3 50.6381 50.6381 121.8267 0.0000 0.0000 0.0000
# 4 0.0002 -0.0002 0.0000 16.6534 0.0000 0.0000
# 5 0.0000 0.0000 0.0000 0.0000 16.6534 0.0002
# 6 0.0000 0.0000 0.0000 0.0000 0.0002 13.9626
#
#
#
# Elastic Compliance Matrix: (Units=1/GPa)
#
#
# Indices 1 2 3 4 5 6 
#
# 1 0.025148 -0.010662 -0.006021 0.000000 0.000000 0.000000
# 2 -0.010662 0.025148 -0.006021 0.000000 0.000000 0.000000
# 3 -0.006021 -0.006021 0.013214 0.000000 0.000000 0.000000
# 4 0.000000 0.000000 0.000000 0.060048 0.000000 0.000000
# 5 0.000000 0.000000 0.000000 0.000000 0.060048 -0.000001
# 6 0.000000 0.000000 0.000000 0.000000 -0.000001 0.071620
#
#
# Mechanical properties :
#
#
# Convention : Reuss Voigt Hill
#
# Bulk Modulus (GPa) = 55.24599 60.73764 57.99181
# Shear Modulus (GPa) = 16.30431 17.32074 16.81252
#
# Velocity S-wave (km/s) = 3.27828 3.37892 3.32898
# Velocity P-wave (km/s) = 7.12357 7.43360 7.28024
#
# Compressibility (1/GPa) = 0.01810086
#
# Stress axis : x y z
#
# Youngs Moduli (GPa) = 39.76478 39.76478 75.67845
#
# Poissons Ratio (x) = 0.42398 0.45567
# Poissons Ratio (y) = 0.42398 0.45567
# Poissons Ratio (z) = 0.23943 0.23943
#
# Static dielectric constant tensor:
#      x y z
#    x 1.501010 0.000000 0.000000 
#    y 0.000000 1.501010 0.000000 
#    z 0.000000 0.000000 1.513300 
# 
# From -- ./inp_files/979.got.cif
#   From: 2010.05.17/outbox.cif.g08.bks.cpg/sg188_1_cif.got.tgz:979.got - 2010.05.20 12:11:46.
