data_PCOD9585377
_publ_section_title
;
Structure prediction by ZEFSAII (Michael W. Deem and Ramdas Pophale) SiO2 
 PCOD9585377
Probable space group: P 63 M C
;
_chemical_formula_sum "Si O2"
_cell_formula_units_Z 84
_cell_length_a 23.819419
_cell_length_b 23.819419
_cell_length_c 10.325357
_cell_angle_alpha 90.000000
_cell_angle_beta 90.000000
_cell_angle_gamma 120.000000
_cell_volume 5073.387518
_symmetry_space_group_name_H-M "P 63 M C"
_symmetry_group_IT_number 186
_symmetry_cell_setting 'hexagonal'
loop_
_space_group_symop_operation_xyz
x,y,z
x-y,x,1/2+z
-y,x-y,z
-x,-y,1/2+z
-x+y,-x,z
y,-x+y,1/2+z
-x+y,y,z
x,x-y,z
-y,-x,z
y,x,1/2+z
x-y,-y,1/2+z
-x,-x+y,1/2+z
loop_
_atom_site_type_symbol
_atom_site_label
_atom_site_fract_x
_atom_site_fract_y
_atom_site_fract_z
Si Si1 0.591750 0.051871 0.024950
Si Si2 0.057782 0.463407 0.818377
Si Si3 0.732644 0.140020 0.939761
Si Si4 0.643155 0.757331 0.166415
Si Si5 0.937156 0.190094 0.985595
Si Si6 0.738936 0.760724 0.754391
Si Si7 0.603707 0.736785 0.868598
O O1 0.533550 0.067099 0.003371
O O2 0.586851 0.029963 0.173529
O O3 0.662808 0.112085 0.001730
O O4 0.580059 0.995588 0.924659
O O5 0.073619 0.536810 0.837708
O O6 0.118552 0.452773 0.831239
O O7 0.787567 0.212434 0.976390
O O8 0.727221 0.135266 0.783418
O O9 0.762177 0.093556 0.977255
O O10 0.669979 0.834990 0.177051
O O11 0.697254 0.738038 0.196164
O O12 0.615969 0.737945 0.022730
O O13 0.880126 0.119875 0.945411
O O14 0.955441 0.190092 0.134727
O O15 0.995929 0.218316 0.884316
O O16 0.668550 0.747699 0.796341
O O17 0.592408 0.796204 0.836909
#
# Coordination Sequence:
#
# PCOD9585377 Si02
#       7
#    12  12  12  12  12  12  12
#     4  10  21  35  52  75 101 134 177 217 262 315
#     4  10  22  36  52  74 104 137 172 220 268 314
#     4   9  18  32  50  70  99 132 169 211 257 312
#     4   9  19  33  48  74 106 141 176 208 257 316
#     4  10  20  31  47  72  99 137 174 203 250 311
#     4  11  18  32  49  70 102 141 172 211 251 309
#     4  11  22  33  52  79 106 140 180 220 265 319
#
# _framework density 16.556985999999998
#
# number of rings (size 3 to 8) (size 9 to 14) (size 15 to 20)
#    0.000    2.000    1.429    4.286    4.000    1.714 
#    0.000    0.000    0.000    0.571    0.000    0.000 
#    0.000    0.000    0.000   73.714    0.000    1.429 
#
# Total GULP energy -468573.751686 kJ/mol
# GULP energy per Si atom -5578.258949 kJ/mol
# Density = 1.651930 g / cm^3
# Si number density = 16.556986 Si / 1000 Ang^3
#
#
#
# Elastic Constant Matrix: (Units=GPa)
#
#
# Indices 1 2 3 4 5 6 
#
# 1 72.7975 34.8045 28.6832 0.0000 0.0000 0.0000
# 2 34.8045 72.7975 28.6832 0.0000 0.0000 0.0000
# 3 28.6832 28.6832 102.0567 0.0000 0.0000 0.0000
# 4 0.0000 0.0000 0.0000 20.0390 0.0000 0.0000
# 5 0.0000 0.0000 0.0000 0.0000 20.0390 0.0000
# 6 0.0000 0.0000 0.0000 0.0000 0.0000 18.9965
#
#
#
# Elastic Compliance Matrix: (Units=1/GPa)
#
#
# Indices 1 2 3 4 5 6 
#
# 1 0.018626 -0.007695 -0.003072 0.000000 0.000000 0.000000
# 2 -0.007695 0.018626 -0.003072 0.000000 0.000000 0.000000
# 3 -0.003072 -0.003072 0.011525 0.000000 0.000000 0.000000
# 4 0.000000 0.000000 0.000000 0.049903 0.000000 0.000000
# 5 0.000000 0.000000 0.000000 0.000000 0.049903 0.000000
# 6 0.000000 0.000000 0.000000 0.000000 0.000000 0.052641
#
#
# Mechanical properties :
#
#
# Convention : Reuss Voigt Hill
#
# Bulk Modulus (GPa) = 47.39531 47.99927 47.69729
# Shear Modulus (GPa) = 21.19224 22.18030 21.68627
#
# Velocity S-wave (km/s) = 3.58153 3.66407 3.62304
# Velocity P-wave (km/s) = 6.76689 6.85229 6.80972
#
# Compressibility (1/GPa) = 0.02109913
#
# Stress axis : x y z
#
# Youngs Moduli (GPa) = 53.68831 53.68831 86.76473
#
# Poissons Ratio (x) = 0.41311 0.26657
# Poissons Ratio (y) = 0.41311 0.26657
# Poissons Ratio (z) = 0.16495 0.16495
#
# Static dielectric constant tensor:
#      x y z
#    x 1.551540 0.000000 0.000000 
#    y 0.000000 1.551540 0.000000 
#    z 0.000000 0.000000 1.616530 
# 
# From -- ./inp_files/2021.got.cif
#   From: 2010.05.17/outbox.cif.g08.bks.cpg/sg186_2_cif.got.tgz:2021.got - 2010.05.20 12:07:08.
