data_PCOD9585836
_publ_section_title
;
Structure prediction by ZEFSAII (Michael W. Deem and Ramdas Pophale) SiO2 
 PCOD9585836
Probable space group: P -6 C 2
;
_chemical_formula_sum "Si O2"
_cell_formula_units_Z 48
_cell_length_a 24.419496
_cell_length_b 24.419496
_cell_length_c 5.445507
_cell_angle_alpha 90.000000
_cell_angle_beta 90.000000
_cell_angle_gamma 120.000000
_cell_volume 2812.175011
_symmetry_space_group_name_H-M "P -6 C 2"
_symmetry_group_IT_number 188
_symmetry_cell_setting 'hexagonal'
loop_
_space_group_symop_operation_xyz
x,y,z
-x+y,-x,1/2-z
-y,x-y,z
x,y,1/2-z
-x+y,-x,z
-y,x-y,1/2-z
-y,-x,-z
-x+y,y,-z
x,x-y,-z
-x+y,y,1/2+z
x,x-y,1/2+z
-y,-x,1/2+z
loop_
_atom_site_type_symbol
_atom_site_label
_atom_site_fract_x
_atom_site_fract_y
_atom_site_fract_z
Si Si1 0.849786 0.640162 0.750000
Si Si2 0.630972 0.954075 0.250000
Si Si3 0.164162 0.355510 0.750000
Si Si4 0.072047 0.505476 0.750000
Si Si5 0.785873 0.862864 0.250000
Si Si6 0.655070 0.031249 0.750000
Si Si7 0.207008 0.072326 0.250000
Si Si8 0.931730 0.479209 0.750000
O O1 0.809858 0.619716 0.500000
O O2 0.901409 0.618865 0.750000
O O3 0.889020 0.716823 0.750000
O O4 0.658870 0.907174 0.250000
O O5 0.554017 0.916763 0.250000
O O6 0.652269 0.994373 0.500693
O O7 0.195370 0.390740 0.500000
O O8 0.168230 0.290880 0.750000
O O9 0.093360 0.546680 0.500000
O O10 0.995132 0.473181 0.750000
O O11 0.806996 0.903498 0.500000
O O12 0.814346 0.816471 0.250000
O O13 0.595789 0.042325 0.750000
O O14 0.186232 0.093116 0.500000
O O15 0.896361 0.448181 0.500000
#
# Coordination Sequence:
#
# PCOD9585836 Si02
#       8
#     6   6   6   6   6   6   6   6
#     4  10  23  38  49  74 102 134 182 219 257 319
#     4  12  21  31  54  80 103 153 182 208 270 315
#     4  10  23  37  47  74 110 137 179 218 260 334
#     4  10  16  30  46  73 115 133 176 216 237 294
#     4  10  21  35  55  76  98 122 155 218 272 330
#     4  12  21  31  56  76 104 149 179 215 258 314
#     4  10  21  38  58  73  93 124 166 220 270 327
#     4  10  16  30  45  76 111 134 173 214 240 287
#
# _framework density 17.068639999999998
#
# number of rings (size 3 to 8) (size 9 to 14) (size 15 to 20)
#    0.000    1.500    5.000    2.250    7.000    0.000 
#    0.000    0.000    0.000    5.000    0.000    0.000 
#    0.000    0.000    0.000   15.000    0.000    0.000 
#
# Total GULP energy -267594.955592 kJ/mol
# GULP energy per Si atom -5574.894908 kJ/mol
# Density = 1.702979 g / cm^3
# Si number density = 17.068640 Si / 1000 Ang^3
#
#
#
# Elastic Constant Matrix: (Units=GPa)
#
#
# Indices 1 2 3 4 5 6 
#
# 1 36.0266 20.4766 23.8915 -0.0001 0.0000 0.0000
# 2 20.4766 36.0266 23.8915 0.0001 0.0000 0.0000
# 3 23.8915 23.8915 182.0150 0.0000 0.0000 0.0000
# 4 -0.0001 0.0001 0.0000 9.2077 0.0000 0.0000
# 5 0.0000 0.0000 0.0000 0.0000 9.2077 -0.0001
# 6 0.0000 0.0000 0.0000 0.0000 -0.0001 7.7750
#
#
#
# Elastic Compliance Matrix: (Units=1/GPa)
#
#
# Indices 1 2 3 4 5 6 
#
# 1 0.042108 -0.022200 -0.002613 0.000001 0.000000 0.000000
# 2 -0.022200 0.042108 -0.002613 -0.000001 0.000000 0.000000
# 3 -0.002613 -0.002613 0.006180 0.000000 0.000000 0.000000
# 4 0.000001 -0.000001 0.000000 0.108605 0.000000 0.000000
# 5 0.000000 0.000000 0.000000 0.000000 0.108605 0.000002
# 6 0.000000 0.000000 0.000000 0.000000 0.000002 0.128618
#
#
# Mechanical properties :
#
#
# Convention : Reuss Voigt Hill
#
# Bulk Modulus (GPa) = 28.13462 43.39861 35.76661
# Shear Modulus (GPa) = 9.94184 17.62532 13.78358
#
# Velocity S-wave (km/s) = 2.41604 3.21692 2.84480
# Velocity P-wave (km/s) = 4.92971 6.26731 5.63832
#
# Compressibility (1/GPa) = 0.03554340
#
# Stress axis : x y z
#
# Youngs Moduli (GPa) = 23.74825 23.74825 161.81078
#
# Poissons Ratio (x) = 0.52722 0.42283
# Poissons Ratio (y) = 0.52722 0.42283
# Poissons Ratio (z) = 0.06206 0.06206
#
# Static dielectric constant tensor:
#      x y z
#    x 1.572200 0.000000 0.000000 
#    y 0.000000 1.572200 0.000000 
#    z 0.000000 0.000000 1.677000 
# 
# From -- ./inp_files/53.got.cif
#   From: 2010.05.17/outbox.cif.g08.bks.cpg/sg188_1_cif.got.tgz:53.got - 2010.05.20 12:11:46.
