data_PCOD9585105
_publ_section_title
;
Structure prediction by ZEFSAII (Michael W. Deem and Ramdas Pophale) SiO2 
 PCOD9585105
Probable space group: P 6 C C
;
_chemical_formula_sum "Si O2"
_cell_formula_units_Z 96
_cell_length_a 18.061771
_cell_length_b 18.061771
_cell_length_c 14.284316
_cell_angle_alpha 90.000000
_cell_angle_beta 90.000000
_cell_angle_gamma 120.000000
_cell_volume 4035.624447
_symmetry_space_group_name_H-M "P 6 C C"
_symmetry_group_IT_number 184
_symmetry_cell_setting 'hexagonal'
loop_
_space_group_symop_operation_xyz
x,y,z
x-y,x,z
-y,x-y,z
-x,-y,z
-x+y,-x,z
y,-x+y,z
-x+y,y,1/2+z
x,x-y,1/2+z
-y,-x,1/2+z
y,x,1/2+z
x-y,-y,1/2+z
-x,-x+y,1/2+z
loop_
_atom_site_type_symbol
_atom_site_label
_atom_site_fract_x
_atom_site_fract_y
_atom_site_fract_z
Si Si1 0.366208 0.854031 0.471490
Si Si2 0.658154 0.665102 0.746527
Si Si3 0.183949 0.484434 0.742574
Si Si4 0.487823 0.854031 0.742265
Si Si5 0.665102 0.006949 0.967229
Si Si6 0.484434 0.183949 0.471181
Si Si7 0.986240 0.824932 0.495562
Si Si8 0.986240 0.161308 0.718194
O O1 0.367436 0.855962 0.356878
O O2 0.370726 0.941369 0.503995
O O3 0.442384 0.837604 0.499141
O O4 0.275608 0.774893 0.501848
O O5 0.604526 0.708146 0.710092
O O6 0.629274 0.570642 0.709760
O O7 0.639169 0.652408 0.856878
O O8 0.757805 0.732299 0.737099
O O9 0.162396 0.557616 0.714614
O O10 0.275608 0.500715 0.711907
O O11 0.188080 0.484989 0.856878
O O12 0.708146 0.103620 0.003663
O O13 0.732299 0.974495 0.976658
O O14 0.904308 0.829128 0.460544
O O15 0.000000 0.838504 0.606878
O O16 0.075179 0.170872 0.753212
#
# Coordination Sequence:
#
# PCOD9585105 Si02
#       8
#    12  12  12  12  12  12  12  12
#     4   9  16  26  42  66  97 132 167 201 238 283
#     4  10  19  31  49  75 103 126 154 200 252 290
#     4   9  16  26  42  66  97 132 167 201 238 283
#     4   9  16  26  42  66  97 132 167 201 238 283
#     4  10  19  31  49  75 103 126 154 200 252 290
#     4   9  16  26  42  66  97 132 167 201 238 283
#     4  10  21  37  55  73  95 126 162 196 232 282
#     4  10  21  37  55  73  95 126 162 196 232 282
#
# _framework density 23.788139000000001
#
# number of rings (size 3 to 8) (size 9 to 14) (size 15 to 20)
#    0.000    2.500    0.000    3.000    0.000    9.000 
#    0.000    0.000    0.000    4.500    0.000    0.000 
#    0.000    4.000    0.000    0.000    0.000    0.000 
#
# Total GULP energy -536824.070530 kJ/mol
# GULP energy per Si atom -5591.917401 kJ/mol
# Density = 2.373400 g / cm^3
# Si number density = 23.788139 Si / 1000 Ang^3
#
#
#
# Elastic Constant Matrix: (Units=GPa)
#
#
# Indices 1 2 3 4 5 6 
#
# 1 101.2213 10.6801 -34.0745 0.0000 0.0000 0.0000
# 2 10.6801 101.2213 -34.0745 0.0000 0.0000 0.0000
# 3 -34.0745 -34.0745 73.6581 0.0000 0.0000 0.0000
# 4 0.0000 0.0000 0.0000 12.6778 0.0000 0.0000
# 5 0.0000 0.0000 0.0000 0.0000 12.6778 0.0000
# 6 0.0000 0.0000 0.0000 0.0000 0.0000 45.2706
#
#
#
# Elastic Compliance Matrix: (Units=1/GPa)
#
#
# Indices 1 2 3 4 5 6 
#
# 1 0.011743 0.000698 0.005756 0.000000 0.000000 0.000000
# 2 0.000698 0.011743 0.005756 0.000000 0.000000 0.000000
# 3 0.005756 0.005756 0.018901 0.000000 0.000000 0.000000
# 4 0.000000 0.000000 0.000000 0.078878 0.000000 0.000000
# 5 0.000000 0.000000 0.000000 0.000000 0.078878 0.000000
# 6 0.000000 0.000000 0.000000 0.000000 0.000000 0.022089
#
#
# Mechanical properties :
#
#
# Convention : Reuss Voigt Hill
#
# Bulk Modulus (GPa) = 14.96854 17.90697 16.43776
# Shear Modulus (GPa) = 22.71869 36.36322 29.54095
#
# Velocity S-wave (km/s) = 3.09373 3.91401 3.52779
# Velocity P-wave (km/s) = 4.36665 5.28867 4.84962
#
# Compressibility (1/GPa) = 0.06680678
#
# Stress axis : x y z
#
# Youngs Moduli (GPa) = 85.15597 85.15597 52.90633
#
# Poissons Ratio (x) = -0.05948 -0.30450
# Poissons Ratio (y) = -0.05948 -0.30450
# Poissons Ratio (z) = -0.49012 -0.49012
#
# Static dielectric constant tensor:
#      x y z
#    x 1.838590 0.000000 0.000000 
#    y 0.000000 1.838590 0.000000 
#    z 0.000000 0.000000 1.996560 
# 
# From -- ./inp_files/1288.got.cif
#   From: 2010.05.17/outbox.cif.g08.bks.cpg/sg184_cif.got.tgz:1288.got - 2010.05.20 12:04:40.
