data_PCOD9585458
_publ_section_title
;
Structure prediction by ZEFSAII (Michael W. Deem and Ramdas Pophale) SiO2 
 PCOD9585458
Probable space group: P -6 M 2
;
_chemical_formula_sum "Si O2"
_cell_formula_units_Z 96
_cell_length_a 18.711713
_cell_length_b 18.711713
_cell_length_c 19.878545
_cell_angle_alpha 90.000000
_cell_angle_beta 90.000000
_cell_angle_gamma 120.000000
_cell_volume 6027.570799
_symmetry_space_group_name_H-M "P -6 M 2"
_symmetry_group_IT_number 187
_symmetry_cell_setting 'hexagonal'
loop_
_space_group_symop_operation_xyz
x,y,z
-x+y,-x,-z
-y,x-y,z
x,y,-z
-x+y,-x,z
-y,x-y,-z
-y,-x,-z
-x+y,y,-z
x,x-y,-z
-x+y,y,z
x,x-y,z
-y,-x,z
loop_
_atom_site_type_symbol
_atom_site_label
_atom_site_fract_x
_atom_site_fract_y
_atom_site_fract_z
Si Si1 0.664182 0.499737 0.336570
Si Si2 0.916472 0.256911 0.422896
Si Si3 0.830208 0.833613 0.644082
Si Si4 0.593954 0.015430 0.923021
Si Si5 0.796453 0.764471 0.213604
Si Si6 0.422984 0.295630 0.195722
Si Si7 0.830115 0.998212 0.927153
Si Si8 0.498076 0.667682 0.081765
O O1 0.744787 0.489573 0.345438
O O2 0.581687 0.418314 0.358536
O O3 0.682369 0.581607 0.377428
O O4 0.659416 0.515389 0.257074
O O5 0.934514 0.284939 0.500000
O O6 0.829625 0.170376 0.421309
O O7 0.981720 0.232106 0.394706
O O8 0.921689 0.843377 0.640052
O O9 0.801528 0.817313 0.722118
O O10 0.832093 0.916047 0.619867
O O11 0.507069 0.014137 0.924700
O O12 0.652616 0.083886 0.870391
O O13 0.568936 0.922770 0.900227
O O14 0.625892 0.030133 0.000000
O O15 0.887278 0.774556 0.209942
O O16 0.735548 0.668253 0.225041
O O17 0.780410 0.788970 0.140105
O O18 0.427337 0.213669 0.178594
O O19 0.913078 0.086923 0.927303
O O20 0.853649 0.926825 0.923727
O O21 0.788097 0.989056 0.000000
O O22 0.509967 0.754984 0.104743
O O23 0.409062 0.590939 0.102852
O O24 0.496976 0.667690 0.000000
#
# Coordination Sequence:
#
# PCOD9585458 Si02
#       8
#    12  12  12  12  12  12  12  12
#     4  10  19  33  54  78  99 122 154 193 237 291
#     4   9  18  33  51  72 102 134 157 185 233 284
#     4  10  18  30  48  71  99 134 176 214 240 267
#     4   9  18  31  46  66  92 121 155 197 245 293
#     4   9  17  29  43  60  85 117 158 204 245 287
#     4  10  19  32  49  66  86 119 160 197 240 291
#     4   9  16  25  37  54  78 110 151 201 251 288
#     4   8  13  23  41  64  88 114 145 183 230 286
#
# _framework density 15.926814
#
# number of rings (size 3 to 8) (size 9 to 14) (size 15 to 20)
#    0.000    2.750    1.250    2.000    0.000    2.250 
#    0.000    3.750    0.000    3.250    0.000    0.000 
#    0.000    0.000    0.000    0.750    0.000    6.500 
#
# Total GULP energy -534514.056858 kJ/mol
# GULP energy per Si atom -5567.854759 kJ/mol
# Density = 1.589056 g / cm^3
# Si number density = 15.926814 Si / 1000 Ang^3
#
#
#
# Elastic Constant Matrix: (Units=GPa)
#
#
# Indices 1 2 3 4 5 6 
#
# 1 75.2398 35.9575 39.3821 0.0000 0.0002 0.0000
# 2 35.9575 75.2398 39.3821 0.0000 -0.0002 0.0000
# 3 39.3821 39.3821 79.8264 0.0000 0.0000 0.0000
# 4 0.0000 0.0000 0.0000 9.9977 0.0000 -0.0002
# 5 0.0002 -0.0002 0.0000 0.0000 9.9977 0.0000
# 6 0.0000 0.0000 0.0000 -0.0002 0.0000 19.6411
#
#
#
# Elastic Compliance Matrix: (Units=1/GPa)
#
#
# Indices 1 2 3 4 5 6 
#
# 1 0.019640 -0.005817 -0.006820 0.000000 0.000000 0.000000
# 2 -0.005817 0.019640 -0.006820 0.000000 0.000000 0.000000
# 3 -0.006820 -0.006820 0.019256 0.000000 0.000000 0.000000
# 4 0.000000 0.000000 0.000000 0.100023 0.000000 0.000001
# 5 0.000000 0.000000 0.000000 0.000000 0.100023 0.000000
# 6 0.000000 0.000000 0.000000 0.000001 0.000000 0.050914
#
#
# Mechanical properties :
#
#
# Convention : Reuss Voigt Hill
#
# Bulk Modulus (GPa) = 50.95744 51.08329 51.02037
# Shear Modulus (GPa) = 14.08644 15.63291 14.85967
#
# Velocity S-wave (km/s) = 2.97719 3.13636 3.05781
# Velocity P-wave (km/s) = 6.62438 6.72749 6.67613
#
# Compressibility (1/GPa) = 0.01962422
#
# Stress axis : x y z
#
# Youngs Moduli (GPa) = 50.91581 50.91581 51.93088
#
# Poissons Ratio (x) = 0.29615 0.35416
# Poissons Ratio (y) = 0.29615 0.35416
# Poissons Ratio (z) = 0.34724 0.34724
#
# Static dielectric constant tensor:
#      x y z
#    x 1.534910 0.000000 0.000000 
#    y 0.000000 1.534910 0.000000 
#    z 0.000000 0.000000 1.557940 
# 
# From -- ./inp_files/3801.got.cif
#   From: 2010.05.17/outbox.cif.g08.bks.cpg/sg187_2_cif.got.tgz:3801.got - 2010.05.20 12:09:04.
