data_PCOD9585166
_publ_section_title
;
Structure prediction by ZEFSAII (Michael W. Deem and Ramdas Pophale) SiO2 
 PCOD9585166
Probable space group: P 6 C C
;
_chemical_formula_sum "Si O2"
_cell_formula_units_Z 74
_cell_length_a 12.587077
_cell_length_b 12.587077
_cell_length_c 26.789207
_cell_angle_alpha 90.000000
_cell_angle_beta 90.000000
_cell_angle_gamma 120.000000
_cell_volume 3675.701772
_symmetry_space_group_name_H-M "P 6 C C"
_symmetry_group_IT_number 184
_symmetry_cell_setting 'hexagonal'
loop_
_space_group_symop_operation_xyz
x,y,z
x-y,x,z
-y,x-y,z
-x,-y,z
-x+y,-x,z
y,-x+y,z
-x+y,y,1/2+z
x,x-y,1/2+z
-y,-x,1/2+z
y,x,1/2+z
x-y,-y,1/2+z
-x,-x+y,1/2+z
loop_
_atom_site_type_symbol
_atom_site_label
_atom_site_fract_x
_atom_site_fract_y
_atom_site_fract_z
Si Si1 0.077781 0.638863 0.920230
Si Si2 0.100781 0.470359 0.581182
Si Si3 0.333334 0.666667 0.914575
Si Si4 0.247219 0.001711 0.839588
Si Si5 0.734618 0.985751 0.720076
Si Si6 0.333334 0.666667 0.533032
Si Si7 0.054957 0.783362 0.013922
Si Si8 0.500000 0.500000 0.176745
O O1 0.211703 0.670580 0.901078
O O2 0.006960 0.654394 0.873776
O O3 0.000000 0.500000 0.937348
O O4 0.081443 0.717412 0.967823
O O5 0.229849 0.539978 0.554622
O O6 0.055900 0.331252 0.567790
O O7 0.000000 0.500000 0.557854
O O8 0.106519 0.516977 0.637493
O O9 0.333334 0.666667 0.974519
O O10 0.239517 0.121373 0.852531
O O11 0.268769 0.007510 0.780347
O O12 0.603707 0.975149 0.702488
O O13 0.861743 0.117624 0.706534
O O14 0.922328 0.765559 0.009358
#
# Coordination Sequence:
#
# PCOD9585166 Si02
#       8
#    12  12   4  12  12   4  12   6
#     4  12  25  39  61  91 132 170 215 261 317 389
#     4  10  24  39  63  89 123 165 213 259 317 384
#     4  12  24  39  63  94 125 178 219 258 318 382
#     4  10  21  41  68  96 129 169 216 265 322 392
#     4  10  23  46  74 104 137 179 230 286 349 418
#     4  12  21  39  66  88 122 175 219 255 306 385
#     4  12  24  41  62  92 127 167 213 269 324 389
#     4  10  26  40  68 102 136 172 222 286 346 410
#
# _framework density 20.132210000000001
#
# number of rings (size 3 to 8) (size 9 to 14) (size 15 to 20)
#    0.486    0.649    1.622    4.865    3.405    1.297 
#    0.973    1.622    0.000    1.946    0.000    0.000 
#    0.000    0.000    0.000    0.000    0.000    0.000 
#
# Total GULP energy -412253.686895 kJ/mol
# GULP energy per Si atom -5570.995769 kJ/mol
# Density = 2.008639 g / cm^3
# Si number density = 20.132210 Si / 1000 Ang^3
#
#
#
# Elastic Constant Matrix: (Units=GPa)
#
#
# Indices 1 2 3 4 5 6 
#
# 1 123.7760 56.2863 22.8054 -0.0003 -0.0006 0.0000
# 2 56.2863 123.7763 22.8055 0.0004 0.0000 0.0001
# 3 22.8054 22.8055 38.5224 -0.0002 -0.0004 0.0000
# 4 -0.0003 0.0004 -0.0002 44.7627 0.0014 -0.0003
# 5 -0.0006 0.0000 -0.0004 0.0014 44.7615 0.0003
# 6 0.0000 0.0001 0.0000 -0.0003 0.0003 33.7451
#
#
#
# Elastic Compliance Matrix: (Units=1/GPa)
#
#
# Indices 1 2 3 4 5 6 
#
# 1 0.010675 -0.004142 -0.003868 0.000000 0.000000 0.000000
# 2 -0.004142 0.010675 -0.003868 0.000000 0.000000 0.000000
# 3 -0.003868 -0.003868 0.030538 0.000000 0.000000 0.000000
# 4 0.000000 0.000000 0.000000 0.022340 -0.000001 0.000000
# 5 0.000000 0.000000 0.000000 -0.000001 0.022341 0.000000
# 6 0.000000 0.000000 0.000000 0.000000 0.000000 0.029634
#
#
# Mechanical properties :
#
#
# Convention : Reuss Voigt Hill
#
# Bulk Modulus (GPa) = 35.54416 54.42989 44.98703
# Shear Modulus (GPa) = 31.38018 36.93237 34.15628
#
# Velocity S-wave (km/s) = 3.95233 4.28774 4.12345
# Velocity P-wave (km/s) = 6.20657 7.18386 6.71303
#
# Compressibility (1/GPa) = 0.02813402
#
# Stress axis : x y z
#
# Youngs Moduli (GPa) = 93.67499 93.67515 32.74561
#
# Poissons Ratio (x) = 0.38799 0.12665
# Poissons Ratio (y) = 0.38799 0.12665
# Poissons Ratio (z) = 0.36231 0.36232
#
# Static dielectric constant tensor:
#      x y z
#    x 1.733250 0.000000 0.000000 
#    y 0.000000 1.733260 0.000000 
#    z 0.000000 0.000000 1.721300 
# 
# From -- ./inp_files/1408.got.cif
#   From: 2010.05.17/outbox.cif.g08.bks.cpg/sg184_cif.got.tgz:1408.got - 2010.05.20 12:04:40.
