data_PCOD9585712
_publ_section_title
;
Structure prediction by ZEFSAII (Michael W. Deem and Ramdas Pophale) SiO2 
 PCOD9585712
Probable space group: P -6 M 2
;
_chemical_formula_sum "Si O2"
_cell_formula_units_Z 72
_cell_length_a 23.633916
_cell_length_b 23.633916
_cell_length_c 9.208944
_cell_angle_alpha 90.000000
_cell_angle_beta 90.000000
_cell_angle_gamma 120.000000
_cell_volume 4454.632066
_symmetry_space_group_name_H-M "P -6 M 2"
_symmetry_group_IT_number 187
_symmetry_cell_setting 'hexagonal'
loop_
_space_group_symop_operation_xyz
x,y,z
-x+y,-x,-z
-y,x-y,z
x,y,-z
-x+y,-x,z
-y,x-y,-z
-y,-x,-z
-x+y,y,-z
x,x-y,-z
-x+y,y,z
x,x-y,z
-y,-x,z
loop_
_atom_site_type_symbol
_atom_site_label
_atom_site_fract_x
_atom_site_fract_y
_atom_site_fract_z
Si Si1 0.401536 0.940334 0.333522
Si Si2 0.867966 0.266341 0.327985
Si Si3 0.203812 0.667378 0.322864
Si Si4 0.469756 0.396903 0.827620
Si Si5 0.936283 0.735059 0.166666
Si Si6 0.866891 0.999405 0.326374
O O1 0.387671 0.951162 0.500000
O O2 0.468417 0.936834 0.338268
O O3 0.347761 0.868425 0.280614
O O4 0.417611 0.001237 0.233209
O O5 0.878640 0.275356 0.500000
O O6 0.796564 0.203437 0.303258
O O7 0.876585 0.331075 0.253071
O O8 0.920077 0.249389 0.256350
O O9 0.203537 0.666789 0.500000
O O10 0.213059 0.606530 0.277374
O O11 0.264164 0.735836 0.274583
O O12 0.541393 0.458608 0.795907
O O13 0.463381 0.387527 0.000000
O O14 0.868023 0.736045 0.166420
O O15 0.987356 0.802530 0.242903
O O16 0.953327 0.730975 0.000000
O O17 0.856884 0.999819 0.500000
O O18 0.863540 0.931770 0.287549
O O19 0.939297 0.060703 0.295763
#
# Coordination Sequence:
#
# PCOD9585712 Si02
#       6
#    12  12  12  12  12  12
#     4   8  14  25  41  62  89 121 156 194 234 273
#     4  10  20  34  54  78 100 122 149 183 224 269
#     4   8  12  18  32  57  88 120 155 197 243 285
#     4  10  20  33  51  75 100 125 152 183 220 262
#     4   9  17  29  45  66  93 124 157 195 238 281
#     4   9  16  26  41  62  90 125 165 207 249 292
#
# _framework density 16.162952000000001
#
# number of rings (size 3 to 8) (size 9 to 14) (size 15 to 20)
#    0.000    3.000    0.000    2.833    0.000    5.667 
#    0.000    0.000    0.000    2.833    0.000    2.333 
#    0.000    1.333    0.000    0.000    0.000    0.000 
#
# Total GULP energy -401004.026090 kJ/mol
# GULP energy per Si atom -5569.500362 kJ/mol
# Density = 1.612616 g / cm^3
# Si number density = 16.162952 Si / 1000 Ang^3
#
#
#
# Elastic Constant Matrix: (Units=GPa)
#
#
# Indices 1 2 3 4 5 6 
#
# 1 81.0263 46.6867 55.7455 0.0000 0.0002 0.0000
# 2 46.6867 81.0263 55.7455 0.0000 -0.0002 0.0000
# 3 55.7455 55.7455 75.2126 0.0000 0.0000 0.0000
# 4 0.0000 0.0000 0.0000 17.5094 0.0000 -0.0002
# 5 0.0002 -0.0002 0.0000 0.0000 17.5094 0.0000
# 6 0.0000 0.0000 0.0000 -0.0002 0.0000 17.1698
#
#
#
# Elastic Compliance Matrix: (Units=1/GPa)
#
#
# Indices 1 2 3 4 5 6 
#
# 1 0.025652 -0.003469 -0.016442 0.000000 0.000000 0.000000
# 2 -0.003469 0.025652 -0.016442 0.000000 0.000000 0.000000
# 3 -0.016442 -0.016442 0.037668 0.000000 0.000000 0.000000
# 4 0.000000 0.000000 0.000000 0.057112 0.000000 0.000001
# 5 0.000000 0.000000 0.000000 0.000000 0.057112 0.000000
# 6 0.000000 0.000000 0.000000 0.000001 0.000000 0.058242
#
#
# Mechanical properties :
#
#
# Convention : Reuss Voigt Hill
#
# Bulk Modulus (GPa) = 61.47095 61.51338 61.49216
# Shear Modulus (GPa) = 14.72473 15.71022 15.21747
#
# Velocity S-wave (km/s) = 3.02158 3.12106 3.07172
# Velocity P-wave (km/s) = 7.09139 7.15045 7.12098
#
# Compressibility (1/GPa) = 0.01626785
#
# Stress axis : x y z
#
# Youngs Moduli (GPa) = 38.98316 38.98316 26.54792
#
# Poissons Ratio (x) = 0.13523 0.43649
# Poissons Ratio (y) = 0.13523 0.43649
# Poissons Ratio (z) = 0.64095 0.64095
#
# Static dielectric constant tensor:
#      x y z
#    x 1.542580 0.000000 0.000000 
#    y 0.000000 1.542580 0.000000 
#    z 0.000000 0.000000 1.539040 
# 
# From -- ./inp_files/989.got.cif
#   From: 2010.05.17/outbox.cif.g08.bks.cpg/sg187_1_cif.got.tgz:989.got - 2010.05.20 12:09:04.
