data_PCOD9585605
_publ_section_title
;
Structure prediction by ZEFSAII (Michael W. Deem and Ramdas Pophale) SiO2 
 PCOD9585605
Probable space group: P -6 M 2
;
_chemical_formula_sum "Si O2"
_cell_formula_units_Z 66
_cell_length_a 13.051920
_cell_length_b 13.051920
_cell_length_c 28.237458
_cell_angle_alpha 90.000000
_cell_angle_beta 90.000000
_cell_angle_gamma 120.000000
_cell_volume 4165.863504
_symmetry_space_group_name_H-M "P -6 M 2"
_symmetry_group_IT_number 187
_symmetry_cell_setting 'hexagonal'
loop_
_space_group_symop_operation_xyz
x,y,z
-x+y,-x,-z
-y,x-y,z
x,y,-z
-x+y,-x,z
-y,x-y,-z
-y,-x,-z
-x+y,y,-z
x,x-y,-z
-x+y,y,z
x,x-y,z
-y,-x,z
loop_
_atom_site_type_symbol
_atom_site_label
_atom_site_fract_x
_atom_site_fract_y
_atom_site_fract_z
Si Si1 0.090577 0.423362 0.500000
Si Si2 0.240548 0.999838 0.054995
Si Si3 0.910127 0.333546 0.861621
Si Si4 0.089945 0.423457 0.225209
Si Si5 0.425878 0.092945 0.417967
Si Si6 0.907957 0.574881 0.692671
O O1 0.210785 0.421570 0.500000
O O2 0.114302 0.557151 0.500000
O O3 0.012001 0.360441 0.453778
O O4 0.126071 0.873930 0.065912
O O5 0.208291 0.104146 0.059440
O O6 0.347171 0.033304 0.090958
O O7 0.273538 0.998827 0.000000
O O8 0.890802 0.445401 0.866064
O O9 0.786041 0.213959 0.852839
O O10 0.001173 0.361230 0.818638
O O11 0.208151 0.416302 0.221434
O O12 0.119077 0.559539 0.225914
O O13 0.015733 0.362180 0.272652
O O14 0.560773 0.121546 0.424188
O O15 0.417793 0.208897 0.428546
O O16 0.395362 0.061759 0.362697
O O17 0.791517 0.583034 0.703426
O O18 0.879617 0.439809 0.699396
#
# Coordination Sequence:
#
# PCOD9585605 Si02
#       6
#     6  12  12  12  12  12
#     4  10  20  32  46  66  94 128 162 194 230 274
#     4   9  17  30  49  72  97 126 160 196 232 272
#     4  10  20  33  50  72  97 125 157 195 240 287
#     4  10  20  33  49  69  94 125 160 196 233 275
#     4   9  17  30  50  75  98 120 150 192 240 283
#     4   9  17  30  50  75 100 124 151 187 233 283
#
# _framework density 15.843052999999999
#
# number of rings (size 3 to 8) (size 9 to 14) (size 15 to 20)
#    0.000    2.545    0.000    2.364    0.000    3.273 
#    0.000    2.727    0.000    9.091    0.000    0.000 
#    0.000    0.000    0.000    0.000    0.000    0.000 
#
# Total GULP energy -368024.763797 kJ/mol
# GULP energy per Si atom -5576.132785 kJ/mol
# Density = 1.580699 g / cm^3
# Si number density = 15.843053 Si / 1000 Ang^3
#
#
#
# Elastic Constant Matrix: (Units=GPa)
#
#
# Indices 1 2 3 4 5 6 
#
# 1 121.7046 80.7651 79.7681 0.0000 0.0000 0.0000
# 2 80.7651 121.7046 79.7681 0.0000 0.0000 0.0000
# 3 79.7681 79.7681 94.2566 0.0000 0.0000 0.0000
# 4 0.0000 0.0000 0.0000 21.8352 0.0000 0.0000
# 5 0.0000 0.0000 0.0000 0.0000 21.8352 0.0000
# 6 0.0000 0.0000 0.0000 0.0000 0.0000 20.4697
#
#
#
# Elastic Compliance Matrix: (Units=1/GPa)
#
#
# Indices 1 2 3 4 5 6 
#
# 1 0.019625 -0.004801 -0.012546 0.000000 0.000000 0.000000
# 2 -0.004801 0.019625 -0.012546 0.000000 0.000000 0.000000
# 3 -0.012546 -0.012546 0.031844 0.000000 0.000000 0.000000
# 4 0.000000 0.000000 0.000000 0.045798 0.000000 0.000000
# 5 0.000000 0.000000 0.000000 0.000000 0.045798 0.000000
# 6 0.000000 0.000000 0.000000 0.000000 0.000000 0.048853
#
#
# Mechanical properties :
#
#
# Convention : Reuss Voigt Hill
#
# Bulk Modulus (GPa) = 88.41835 90.91872 89.66853
# Shear Modulus (GPa) = 18.17542 19.31901 18.74721
#
# Velocity S-wave (km/s) = 3.39073 3.49578 3.44366
# Velocity P-wave (km/s) = 8.44153 8.59102 8.51661
#
# Compressibility (1/GPa) = 0.01130987
#
# Stress axis : x y z
#
# Youngs Moduli (GPa) = 50.95452 50.95452 31.40328
#
# Poissons Ratio (x) = 0.24463 0.39398
# Poissons Ratio (y) = 0.24463 0.39398
# Poissons Ratio (z) = 0.63926 0.63926
#
# Static dielectric constant tensor:
#      x y z
#    x 1.499150 0.000000 0.000000 
#    y 0.000000 1.499150 0.000000 
#    z 0.000000 0.000000 1.537320 
# 
# From -- ./inp_files/4398.got.cif
#   From: 2010.05.17/outbox.cif.g08.bks.cpg/sg187_3_cif.got.tgz:4398.got - 2010.05.20 12:09:04.
