data_PCOD9585723
_publ_section_title
;
Structure prediction by ZEFSAII (Michael W. Deem and Ramdas Pophale) SiO2 
 PCOD9585723
Probable space group: P -6 M 2
;
_chemical_formula_sum "Si O2"
_cell_formula_units_Z 72
_cell_length_a 12.644642
_cell_length_b 12.644642
_cell_length_c 31.393265
_cell_angle_alpha 90.000000
_cell_angle_beta 90.000000
_cell_angle_gamma 120.000000
_cell_volume 4346.905447
_symmetry_space_group_name_H-M "P -6 M 2"
_symmetry_group_IT_number 187
_symmetry_cell_setting 'hexagonal'
loop_
_space_group_symop_operation_xyz
x,y,z
-x+y,-x,-z
-y,x-y,z
x,y,-z
-x+y,-x,z
-y,x-y,-z
-y,-x,-z
-x+y,y,-z
x,x-y,-z
-x+y,y,z
x,x-y,z
-y,-x,z
loop_
_atom_site_type_symbol
_atom_site_label
_atom_site_fract_x
_atom_site_fract_y
_atom_site_fract_z
Si Si1 0.333212 0.918335 0.916672
Si Si2 0.000412 0.748937 0.833068
Si Si3 0.584854 0.667028 0.249678
Si Si4 0.748509 0.000123 0.666887
Si Si5 0.666108 0.082106 0.000000
Si Si6 0.414867 0.081799 0.583191
Si Si7 0.082068 0.666246 0.500000
O O1 0.453241 0.906481 0.911013
O O2 0.214395 0.785606 0.922331
O O3 0.310544 0.978763 0.875216
O O4 0.354459 0.000981 0.958147
O O5 0.110747 0.889254 0.831721
O O6 0.016898 0.684316 0.791520
O O7 0.871261 0.742522 0.833503
O O8 0.555276 0.777638 0.248286
O O9 0.461883 0.538118 0.249493
O O10 0.663278 0.686413 0.292203
O O11 0.879914 0.120086 0.673402
O O12 0.689252 0.022038 0.624930
O O13 0.762280 0.881140 0.661643
O O14 0.796177 0.203824 0.000000
O O15 0.556668 0.113335 0.000000
O O16 0.546648 0.093296 0.588414
O O17 0.428440 0.214220 0.577236
O O18 0.352484 0.998479 0.541916
O O19 0.204325 0.795676 0.500000
O O20 0.112367 0.556184 0.500000
#
# Coordination Sequence:
#
# PCOD9585723 Si02
#       7
#    12  12  12  12   6  12   6
#     4  10  20  34  54  78 104 134 168 209 254 300
#     4  10  20  34  53  76 103 135 170 209 252 300
#     4  10  20  34  53  76 102 132 167 209 255 302
#     4  10  20  34  53  76 103 135 170 209 252 300
#     4  10  20  34  52  74 102 136 172 208 248 296
#     4  10  20  34  53  76 103 135 170 208 250 298
#     4  10  20  34  52  74 100 130 166 208 254 300
#
# _framework density 16.563507000000001
#
# number of rings (size 3 to 8) (size 9 to 14) (size 15 to 20)
#    0.000    2.000    0.000    4.000    0.000    0.000 
#    0.000    5.000    0.000   18.000    0.000    0.000 
#    0.000    0.000    0.000    0.000    0.000    0.000 
#
# Total GULP energy -402034.249413 kJ/mol
# GULP energy per Si atom -5583.809020 kJ/mol
# Density = 1.652581 g / cm^3
# Si number density = 16.563507 Si / 1000 Ang^3
#
#
#
# Elastic Constant Matrix: (Units=GPa)
#
#
# Indices 1 2 3 4 5 6 
#
# 1 149.0939 110.9372 105.3819 0.0000 -0.0001 0.0000
# 2 110.9372 149.0939 105.3819 0.0000 0.0001 0.0000
# 3 105.3819 105.3819 166.8099 0.0000 0.0000 0.0000
# 4 0.0000 0.0000 0.0000 22.7232 0.0000 0.0001
# 5 -0.0001 0.0001 0.0000 0.0000 22.7232 0.0000
# 6 0.0000 0.0000 0.0000 0.0001 0.0000 19.0783
#
#
#
# Elastic Compliance Matrix: (Units=1/GPa)
#
#
# Indices 1 2 3 4 5 6 
#
# 1 0.017045 -0.009163 -0.004979 0.000000 0.000000 0.000000
# 2 -0.009163 0.017045 -0.004979 0.000000 0.000000 0.000000
# 3 -0.004979 -0.004979 0.012286 0.000000 0.000000 0.000000
# 4 0.000000 0.000000 0.000000 0.044008 0.000000 0.000000
# 5 0.000000 0.000000 0.000000 0.000000 0.044008 0.000000
# 6 0.000000 0.000000 0.000000 0.000000 0.000000 0.052415
#
#
# Mechanical properties :
#
#
# Convention : Reuss Voigt Hill
#
# Bulk Modulus (GPa) = 122.96459 123.15552 123.06006
# Shear Modulus (GPa) = 21.95297 22.45805 22.20551
#
# Velocity S-wave (km/s) = 3.64453 3.68622 3.66543
# Velocity P-wave (km/s) = 9.59737 9.62458 9.61099
#
# Compressibility (1/GPa) = 0.00813242
#
# Stress axis : x y z
#
# Youngs Moduli (GPa) = 58.66973 58.66973 81.39433
#
# Poissons Ratio (x) = 0.53760 0.40527
# Poissons Ratio (y) = 0.53760 0.40527
# Poissons Ratio (z) = 0.29212 0.29212
#
# Static dielectric constant tensor:
#      x y z
#    x 1.523410 0.000000 0.000000 
#    y 0.000000 1.523410 0.000000 
#    z 0.000000 0.000000 1.539170 
# 
# From -- ./inp_files/4536.got.cif
#   From: 2010.05.17/outbox.cif.g08.bks.cpg/sg187_3_cif.got.tgz:4536.got - 2010.05.20 12:09:04.
