data_PCOD9585697
_publ_section_title
;
Structure prediction by ZEFSAII (Michael W. Deem and Ramdas Pophale) SiO2 
 PCOD9585697
Probable space group: P -6 M 2
;
_chemical_formula_sum "Si O2"
_cell_formula_units_Z 54
_cell_length_a 12.984614
_cell_length_b 12.984614
_cell_length_c 23.633385
_cell_angle_alpha 90.000000
_cell_angle_beta 90.000000
_cell_angle_gamma 120.000000
_cell_volume 3450.759156
_symmetry_space_group_name_H-M "P -6 M 2"
_symmetry_group_IT_number 187
_symmetry_cell_setting 'hexagonal'
loop_
_space_group_symop_operation_xyz
x,y,z
-x+y,-x,-z
-y,x-y,z
x,y,-z
-x+y,-x,z
-y,x-y,-z
-y,-x,-z
-x+y,y,-z
x,x-y,-z
-x+y,y,z
x,x-y,z
-y,-x,z
loop_
_atom_site_type_symbol
_atom_site_label
_atom_site_fract_x
_atom_site_fract_y
_atom_site_fract_z
Si Si1 0.756568 0.756173 0.708479
Si Si2 0.912095 0.333693 0.063435
Si Si3 0.666580 0.578742 0.394520
Si Si4 0.755313 0.999523 0.162477
Si Si5 0.334216 0.912396 0.500000
O O1 0.747194 0.873597 0.698015
O O2 0.686571 0.654240 0.662560
O O3 0.715992 0.714177 0.772946
O O4 0.894336 0.788672 0.705117
O O5 0.906803 0.453402 0.068025
O O6 0.779759 0.220242 0.068125
O O7 0.987587 0.322896 0.113962
O O8 0.956234 0.328994 0.000000
O O9 0.786813 0.573625 0.405119
O O10 0.553339 0.446662 0.389998
O O11 0.639301 0.644181 0.445357
O O12 0.759865 0.879933 0.155611
O O13 0.887109 0.112892 0.156576
O O14 0.206313 0.793688 0.500000
O O15 0.440513 0.881025 0.500000
#
# Coordination Sequence:
#
# PCOD9585697 Si02
#       5
#    12  12  12  12   6
#     4   9  17  30  48  69  93 122 155 191 231 274
#     4   9  17  29  45  65  89 118 152 189 229 273
#     4  10  20  33  50  72  99 129 158 189 227 273
#     4   9  17  29  46  68  93 120 150 186 230 278
#     4  10  20  34  52  72  94 122 158 198 234 268
#
# _framework density 15.648731
#
# number of rings (size 3 to 8) (size 9 to 14) (size 15 to 20)
#    0.000    2.667    0.000    2.000    0.000    4.000 
#    0.000    1.111    0.000    8.000    0.000    0.000 
#    0.000    0.000    0.000    0.000    0.000    0.000 
#
# Total GULP energy -300883.463248 kJ/mol
# GULP energy per Si atom -5571.915986 kJ/mol
# Density = 1.561311 g / cm^3
# Si number density = 15.648731 Si / 1000 Ang^3
#
#
#
# Elastic Constant Matrix: (Units=GPa)
#
#
# Indices 1 2 3 4 5 6 
#
# 1 88.2526 49.3083 74.9911 0.0000 0.0002 0.0000
# 2 49.3083 88.2526 74.9911 0.0000 -0.0002 0.0000
# 3 74.9911 74.9911 141.8049 0.0000 0.0000 0.0000
# 4 0.0000 0.0000 0.0000 26.3024 0.0000 -0.0002
# 5 0.0002 -0.0002 0.0000 0.0000 26.3024 0.0000
# 6 0.0000 0.0000 0.0000 -0.0002 0.0000 19.4721
#
#
#
# Elastic Compliance Matrix: (Units=1/GPa)
#
#
# Indices 1 2 3 4 5 6 
#
# 1 0.021423 -0.004254 -0.009079 0.000000 0.000000 0.000000
# 2 -0.004254 0.021423 -0.009079 0.000000 0.000000 0.000000
# 3 -0.009079 -0.009079 0.016655 0.000000 0.000000 0.000000
# 4 0.000000 0.000000 0.000000 0.038019 0.000000 0.000000
# 5 0.000000 0.000000 0.000000 0.000000 0.038019 0.000000
# 6 0.000000 0.000000 0.000000 0.000000 0.000000 0.051355
#
#
# Mechanical properties :
#
#
# Convention : Reuss Voigt Hill
#
# Bulk Modulus (GPa) = 68.14398 79.65455 73.89926
# Shear Modulus (GPa) = 21.13149 22.35003 21.74076
#
# Velocity S-wave (km/s) = 3.67872 3.78330 3.73137
# Velocity P-wave (km/s) = 7.85395 8.37237 8.11730
#
# Compressibility (1/GPa) = 0.01467481
#
# Stress axis : x y z
#
# Youngs Moduli (GPa) = 46.67829 46.67829 60.04237
#
# Poissons Ratio (x) = 0.19859 0.54515
# Poissons Ratio (y) = 0.19859 0.54515
# Poissons Ratio (z) = 0.42381 0.42381
#
# Static dielectric constant tensor:
#      x y z
#    x 1.490830 0.000000 0.000000 
#    y 0.000000 1.490830 0.000000 
#    z 0.000000 0.000000 1.537720 
# 
# From -- ./inp_files/3848.got.cif
#   From: 2010.05.17/outbox.cif.g08.bks.cpg/sg187_2_cif.got.tgz:3848.got - 2010.05.20 12:09:04.
