data_PCOD9585422
_publ_section_title
;
Structure prediction by ZEFSAII (Michael W. Deem and Ramdas Pophale) SiO2 
 PCOD9585422
Probable space group: P -6 M 2
;
_chemical_formula_sum "Si O2"
_cell_formula_units_Z 60
_cell_length_a 22.824755
_cell_length_b 22.824755
_cell_length_c 7.538400
_cell_angle_alpha 90.000000
_cell_angle_beta 90.000000
_cell_angle_gamma 120.000000
_cell_volume 3401.120812
_symmetry_space_group_name_H-M "P -6 M 2"
_symmetry_group_IT_number 187
_symmetry_cell_setting 'hexagonal'
loop_
_space_group_symop_operation_xyz
x,y,z
-x+y,-x,-z
-y,x-y,z
x,y,-z
-x+y,-x,z
-y,x-y,-z
-y,-x,-z
-x+y,y,-z
x,x-y,-z
-x+y,y,z
x,x-y,z
-y,-x,z
loop_
_atom_site_type_symbol
_atom_site_label
_atom_site_fract_x
_atom_site_fract_y
_atom_site_fract_z
Si Si1 0.968041 0.294466 0.208542
Si Si2 0.535796 0.203310 0.713922
Si Si3 0.953841 0.412855 0.792658
Si Si4 0.042586 0.214842 0.783385
Si Si5 0.832292 0.167709 0.300509
Si Si6 0.910868 0.821736 0.784975
O O1 0.981081 0.365490 0.285529
O O2 0.887886 0.239352 0.222269
O O3 0.011224 0.261014 0.279642
O O4 0.983251 0.304620 0.000000
O O5 0.529140 0.198748 0.500000
O O6 0.614184 0.228368 0.755109
O O7 0.515530 0.257765 0.776265
O O8 0.493914 0.127571 0.784623
O O9 0.970937 0.485469 0.715008
O O10 0.973040 0.424035 0.000000
O O11 0.117213 0.234426 0.723638
O O12 0.988752 0.136778 0.735458
O O13 0.043509 0.217542 0.000000
O O14 0.819200 0.180801 0.500000
O O15 0.873110 0.126891 0.292006
O O16 0.907374 0.814747 0.000000
#
# Coordination Sequence:
#
# PCOD9585422 Si02
#       6
#    12  12  12  12   6   6
#     4   9  17  29  43  57  77 102 124 157 202 234
#     4   9  17  28  40  53  70  92 119 154 196 234
#     4   9  18  30  41  54  72  96 126 156 191 237
#     4   8  13  23  40  60  78  97 124 155 188 228
#     4  10  18  26  40  60  78  98 132 166 188 226
#     4   8  14  26  40  56  82 108 128 156 196 230
#
# _framework density 17.641244
#
# number of rings (size 3 to 8) (size 9 to 14) (size 15 to 20)
#    0.000    3.200    0.000    2.300    1.400    2.000 
#    0.600    0.000    0.000   10.800    0.000    0.000 
#    0.000    0.000    0.000    0.600    0.000   19.200 
#
# Total GULP energy -334043.690357 kJ/mol
# GULP energy per Si atom -5567.394839 kJ/mol
# Density = 1.760109 g / cm^3
# Si number density = 17.641244 Si / 1000 Ang^3
#
#
#
# Elastic Constant Matrix: (Units=GPa)
#
#
# Indices 1 2 3 4 5 6 
#
# 1 97.0427 57.2116 3.2573 0.0000 -0.0012 0.0000
# 2 57.2116 97.0427 3.2573 0.0000 0.0012 0.0000
# 3 3.2573 3.2573 40.1138 0.0000 0.0000 0.0000
# 4 0.0000 0.0000 0.0000 14.1239 0.0000 0.0012
# 5 -0.0012 0.0012 0.0000 0.0000 14.1239 0.0000
# 6 0.0000 0.0000 0.0000 0.0012 0.0000 19.9156
#
#
#
# Elastic Compliance Matrix: (Units=1/GPa)
#
#
# Indices 1 2 3 4 5 6 
#
# 1 0.015806 -0.009300 -0.000528 0.000000 0.000002 0.000000
# 2 -0.009300 0.015806 -0.000528 0.000000 -0.000002 0.000000
# 3 -0.000528 -0.000528 0.025015 0.000000 0.000000 0.000000
# 4 0.000000 0.000000 0.000000 0.070802 0.000000 -0.000004
# 5 0.000002 -0.000002 0.000000 0.000000 0.070802 0.000000
# 6 0.000000 0.000000 0.000000 -0.000004 0.000000 0.050212
#
#
# Mechanical properties :
#
#
# Convention : Reuss Voigt Hill
#
# Bulk Modulus (GPa) = 27.84569 40.18350 34.01460
# Shear Modulus (GPa) = 17.78563 20.99757 19.39160
#
# Velocity S-wave (km/s) = 3.17864 3.45375 3.31904
# Velocity P-wave (km/s) = 5.41205 6.22351 5.83191
#
# Compressibility (1/GPa) = 0.03591219
#
# Stress axis : x y z
#
# Youngs Moduli (GPa) = 63.26899 63.26899 39.97623
#
# Poissons Ratio (x) = 0.58843 0.02112
# Poissons Ratio (y) = 0.58843 0.02112
# Poissons Ratio (z) = 0.03342 0.03342
#
# Static dielectric constant tensor:
#      x y z
#    x 1.633120 0.000000 0.000000 
#    y 0.000000 1.633120 0.000000 
#    z 0.000000 0.000000 1.656230 
# 
# From -- ./inp_files/883.got.cif
#   From: 2010.05.17/outbox.cif.g08.bks.cpg/sg187_1_cif.got.tgz:883.got - 2010.05.20 12:09:04.
