data_PCOD9585291
_publ_section_title
;
Structure prediction by ZEFSAII (Michael W. Deem and Ramdas Pophale) SiO2 
 PCOD9585291
Probable space group: P 63 C M
;
_chemical_formula_sum "Si O2"
_cell_formula_units_Z 96
_cell_length_a 14.256561
_cell_length_b 14.256561
_cell_length_c 26.932797
_cell_angle_alpha 90.000000
_cell_angle_beta 90.000000
_cell_angle_gamma 120.000000
_cell_volume 4740.690934
_symmetry_space_group_name_H-M "P 63 C M"
_symmetry_group_IT_number 185
_symmetry_cell_setting 'hexagonal'
loop_
_space_group_symop_operation_xyz
x,y,z
x-y,x,1/2+z
-y,x-y,z
-x,-y,1/2+z
-x+y,-x,z
y,-x+y,1/2+z
-x+y,y,1/2+z
x,x-y,1/2+z
-y,-x,1/2+z
y,x,z
x-y,-y,z
-x,-x+y,z
loop_
_atom_site_type_symbol
_atom_site_label
_atom_site_fract_x
_atom_site_fract_y
_atom_site_fract_z
Si Si1 0.231323 0.430588 0.501080
Si Si2 0.875466 0.414867 0.806113
Si Si3 0.748632 0.197389 0.751291
Si Si4 0.123182 0.551993 0.553694
Si Si5 0.871783 0.742961 0.078981
Si Si6 0.748592 0.874540 0.311819
Si Si7 0.684776 0.131118 0.640622
Si Si8 0.583416 0.872771 0.393510
O O1 0.191091 0.506958 0.526024
O O2 0.353693 0.478768 0.520173
O O3 0.157541 0.311658 0.524273
O O4 0.235646 0.433067 0.441982
O O5 0.805573 0.322118 0.766702
O O6 0.863715 0.515942 0.791074
O O7 0.841672 0.365720 0.861211
O O8 0.000000 0.446938 0.801589
O O9 0.831664 0.154774 0.761919
O O10 0.705438 0.175363 0.695892
O O11 0.164729 0.613256 0.606402
O O12 0.000000 0.456109 0.559832
O O13 0.824464 0.824464 0.084110
O O14 0.798432 0.638868 0.114336
O O15 0.000000 0.802737 0.088324
O O16 0.803920 0.803920 0.322844
O O17 0.665031 0.864488 0.354714
O O18 0.836541 0.000000 0.307122
O O19 0.616069 0.000000 0.642119
O O20 0.639066 0.000000 0.408069
#
# Coordination Sequence:
#
# PCOD9585291 Si02
#       8
#    12  12  12  12  12  12  12  12
#     4  11  21  38  60  82 113 153 196 241 295 356
#     4  10  22  38  57  86 121 154 193 243 293 344
#     4  11  21  38  61  85 116 156 200 241 290 353
#     4  10  22  38  56  83 115 146 187 239 293 347
#     4  10  21  37  58  85 117 154 198 247 298 353
#     4  10  21  37  58  86 120 157 198 243 292 348
#     4   9  20  38  58  83 118 154 191 243 298 348
#     4   9  20  38  58  84 120 156 193 243 297 349
#
# _framework density 20.250212999999999
#
# number of rings (size 3 to 8) (size 9 to 14) (size 15 to 20)
#    0.000    2.000    0.000    5.250    0.000    6.000 
#    0.000    0.000    0.000    3.000    0.000    0.000 
#    0.000    0.000    0.000    0.000    0.000    0.000 
#
# Total GULP energy -536065.639952 kJ/mol
# GULP energy per Si atom -5584.017083 kJ/mol
# Density = 2.020412 g / cm^3
# Si number density = 20.250213 Si / 1000 Ang^3
#
#
#
# Elastic Constant Matrix: (Units=GPa)
#
#
# Indices 1 2 3 4 5 6 
#
# 1 76.0787 21.4699 35.4088 0.0000 0.0000 0.0000
# 2 21.4699 76.0787 35.4088 0.0000 0.0000 0.0000
# 3 35.4088 35.4088 114.6989 0.0000 0.0000 0.0000
# 4 0.0000 0.0000 0.0000 18.1477 0.0000 0.0000
# 5 0.0000 0.0000 0.0000 0.0000 18.1477 0.0000
# 6 0.0000 0.0000 0.0000 0.0000 0.0000 27.3044
#
#
#
# Elastic Compliance Matrix: (Units=1/GPa)
#
#
# Indices 1 2 3 4 5 6 
#
# 1 0.015762 -0.002550 -0.004079 0.000000 0.000000 0.000000
# 2 -0.002550 0.015762 -0.004079 0.000000 0.000000 0.000000
# 3 -0.004079 -0.004079 0.011237 0.000000 0.000000 0.000000
# 4 0.000000 0.000000 0.000000 0.055103 0.000000 0.000000
# 5 0.000000 0.000000 0.000000 0.000000 0.055103 0.000000
# 6 0.000000 0.000000 0.000000 0.000000 0.000000 0.036624
#
#
# Mechanical properties :
#
#
# Convention : Reuss Voigt Hill
#
# Bulk Modulus (GPa) = 46.84634 50.15903 48.50269
# Shear Modulus (GPa) = 22.92290 24.35789 23.64040
#
# Velocity S-wave (km/s) = 3.36815 3.47197 3.42045
# Velocity P-wave (km/s) = 6.18950 6.39501 6.29309
#
# Compressibility (1/GPa) = 0.02134638
#
# Stress axis : x y z
#
# Youngs Moduli (GPa) = 63.44280 63.44280 88.99306
#
# Poissons Ratio (x) = 0.16177 0.36299
# Poissons Ratio (y) = 0.16177 0.36299
# Poissons Ratio (z) = 0.25877 0.25877
#
# Static dielectric constant tensor:
#      x y z
#    x 1.729250 0.000000 0.000000 
#    y 0.000000 1.729250 0.000000 
#    z 0.000000 0.000000 1.714700 
# 
# From -- ./inp_files/2185.got.cif
#   From: 2010.05.17/outbox.cif.g08.bks.cpg/sg185_cif.got.tgz:2185.got - 2010.05.20 12:05:34.
