data_PCOD9585880
_publ_section_title
;
Structure prediction by ZEFSAII (Michael W. Deem and Ramdas Pophale) SiO2 
 PCOD9585880
Probable space group: P -6 C 2
;
_chemical_formula_sum "Si O2"
_cell_formula_units_Z 72
_cell_length_a 24.363752
_cell_length_b 24.363752
_cell_length_c 8.674489
_cell_angle_alpha 90.000000
_cell_angle_beta 90.000000
_cell_angle_gamma 120.000000
_cell_volume 4459.260798
_symmetry_space_group_name_H-M "P -6 C 2"
_symmetry_group_IT_number 188
_symmetry_cell_setting 'hexagonal'
loop_
_space_group_symop_operation_xyz
x,y,z
-x+y,-x,1/2-z
-y,x-y,z
x,y,1/2-z
-x+y,-x,z
-y,x-y,1/2-z
-y,-x,-z
-x+y,y,-z
x,x-y,-z
-x+y,y,1/2+z
x,x-y,1/2+z
-y,-x,1/2+z
loop_
_atom_site_type_symbol
_atom_site_label
_atom_site_fract_x
_atom_site_fract_y
_atom_site_fract_z
Si Si1 0.297827 0.814105 0.923267
Si Si2 0.409817 0.937842 0.065426
Si Si3 0.877279 0.878068 0.064424
Si Si4 0.927084 0.193966 0.063399
Si Si5 0.994910 0.664704 0.931307
Si Si6 0.220409 0.889505 0.924517
O O1 0.316547 0.808030 0.750000
O O2 0.252732 0.845407 0.912788
O O3 0.254173 0.745827 0.000000
O O4 0.358679 0.866191 0.015205
O O5 0.411488 0.940357 0.250000
O O6 0.384353 0.984409 0.005444
O O7 0.477501 0.955002 0.000000
O O8 0.880316 0.881688 0.250000
O O9 0.825584 0.805519 0.019513
O O10 0.864431 0.932216 0.000000
O O11 0.944528 0.889055 0.000000
O O12 0.925980 0.194341 0.250000
O O13 0.940866 0.262732 0.006324
O O14 0.861604 0.138397 0.000000
O O15 0.983912 0.651533 0.750000
O O16 0.055990 0.733389 0.960614
O O17 0.218684 0.911086 0.750000
O O18 0.152196 0.847805 0.000000
#
# Coordination Sequence:
#
# PCOD9585880 Si02
#       6
#    12  12  12  12  12  12
#     4   9  16  27  43  63  87 115 147 179 213 254
#     4  10  19  31  48  69  94 121 149 184 225 269
#     4  10  19  31  46  63  85 113 148 189 231 273
#     4   9  19  34  49  65  86 114 149 187 226 269
#     4   9  18  32  47  64  88 117 147 181 223 267
#     4   9  16  25  39  60  85 112 142 176 213 254
#
# _framework density 16.146173999999998
#
# number of rings (size 3 to 8) (size 9 to 14) (size 15 to 20)
#    0.000    2.667    0.000    2.167    0.000    6.667 
#    0.000    1.667    0.000    0.333    0.000    2.333 
#    0.000    0.000    0.000    0.500    0.000    6.000 
#
# Total GULP energy -400931.541350 kJ/mol
# GULP energy per Si atom -5568.493630 kJ/mol
# Density = 1.610942 g / cm^3
# Si number density = 16.146174 Si / 1000 Ang^3
#
#
#
# Elastic Constant Matrix: (Units=GPa)
#
#
# Indices 1 2 3 4 5 6 
#
# 1 75.2985 63.4744 14.6557 -0.0003 0.0000 0.0000
# 2 63.4744 75.2985 14.6557 0.0003 0.0000 0.0000
# 3 14.6557 14.6557 31.0193 0.0000 0.0000 0.0000
# 4 -0.0003 0.0003 0.0000 12.6098 0.0000 0.0000
# 5 0.0000 0.0000 0.0000 0.0000 12.6098 -0.0003
# 6 0.0000 0.0000 0.0000 0.0000 -0.0003 5.9121
#
#
#
# Elastic Compliance Matrix: (Units=1/GPa)
#
#
# Indices 1 2 3 4 5 6 
#
# 1 0.046289 -0.038284 -0.003782 0.000002 0.000000 0.000000
# 2 -0.038284 0.046289 -0.003782 -0.000002 0.000000 0.000000
# 3 -0.003782 -0.003782 0.035812 0.000000 0.000000 0.000000
# 4 0.000002 -0.000002 0.000000 0.079303 0.000000 0.000000
# 5 0.000000 0.000000 0.000000 0.000000 0.079303 0.000004
# 6 0.000000 0.000000 0.000000 0.000000 0.000004 0.169146
#
#
# Mechanical properties :
#
#
# Convention : Reuss Voigt Hill
#
# Bulk Modulus (GPa) = 27.25293 40.79867 34.02580
# Shear Modulus (GPa) = 8.92746 12.14838 10.53792
#
# Velocity S-wave (km/s) = 2.35397 2.74597 2.55749
# Velocity P-wave (km/s) = 4.92988 5.94785 5.46263
#
# Compressibility (1/GPa) = 0.03669330
#
# Stress axis : x y z
#
# Youngs Moduli (GPa) = 21.60344 21.60344 27.92374
#
# Poissons Ratio (x) = 0.82707 0.10561
# Poissons Ratio (y) = 0.82707 0.10561
# Poissons Ratio (z) = 0.08171 0.08171
#
# Static dielectric constant tensor:
#      x y z
#    x 1.562160 0.000000 0.000000 
#    y 0.000000 1.562160 0.000000 
#    z 0.000000 0.000000 1.573190 
# 
# From -- ./inp_files/983.got.cif
#   From: 2010.05.17/outbox.cif.g08.bks.cpg/sg188_1_cif.got.tgz:983.got - 2010.05.20 12:11:46.
