data_PCOD9585632
_publ_section_title
;
Structure prediction by ZEFSAII (Michael W. Deem and Ramdas Pophale) SiO2 
 PCOD9585632
Probable space group: P -6 M 2
;
_chemical_formula_sum "Si O2"
_cell_formula_units_Z 54
_cell_length_a 12.890907
_cell_length_b 12.890907
_cell_length_c 23.841261
_cell_angle_alpha 90.000000
_cell_angle_beta 90.000000
_cell_angle_gamma 120.000000
_cell_volume 3431.048083
_symmetry_space_group_name_H-M "P -6 M 2"
_symmetry_group_IT_number 187
_symmetry_cell_setting 'hexagonal'
loop_
_space_group_symop_operation_xyz
x,y,z
-x+y,-x,-z
-y,x-y,z
x,y,-z
-x+y,-x,z
-y,x-y,-z
-y,-x,-z
-x+y,y,-z
x,x-y,-z
-x+y,y,z
x,x-y,z
-y,-x,z
loop_
_atom_site_type_symbol
_atom_site_label
_atom_site_fract_x
_atom_site_fract_y
_atom_site_fract_z
Si Si1 0.665937 0.581330 0.876856
Si Si2 0.332886 0.419845 0.333311
Si Si3 0.913044 0.579013 0.000000
Si Si4 0.421534 0.088166 0.564415
Si Si5 0.000404 0.247372 0.227624
O O1 0.779678 0.559355 0.876838
O O2 0.543579 0.456422 0.867615
O O3 0.690536 0.674973 0.827778
O O4 0.658966 0.628974 0.939156
O O5 0.219661 0.439321 0.337324
O O6 0.454675 0.545326 0.325120
O O7 0.347729 0.360670 0.390001
O O8 0.309533 0.331772 0.281152
O O9 0.790635 0.581269 0.000000
O O10 0.885029 0.442515 0.000000
O O11 0.383659 0.049152 0.500000
O O12 0.558878 0.117755 0.569120
O O13 0.414482 0.207241 0.574782
O O14 0.879736 0.120265 0.234556
O O15 0.115267 0.230533 0.222375
#
# Coordination Sequence:
#
# PCOD9585632 Si02
#       5
#    12  12   6  12  12
#     4   9  16  27  45  69  94 117 143 179 225 274
#     4  10  20  33  49  69  93 121 153 190 232 277
#     4   8  13  22  39  64  92 118 142 172 216 270
#     4   9  17  30  49  72  96 121 149 182 221 265
#     4  10  20  33  48  65  88 120 157 194 230 271
#
# _framework density 15.738631
#
# number of rings (size 3 to 8) (size 9 to 14) (size 15 to 20)
#    0.000    2.667    0.000    2.333    0.000    3.111 
#    0.000    0.556    0.000    9.333    0.000    1.556 
#    0.000    0.000    0.000    0.000    0.000    0.000 
#
# Total GULP energy -300758.492001 kJ/mol
# GULP energy per Si atom -5569.601704 kJ/mol
# Density = 1.570281 g / cm^3
# Si number density = 15.738631 Si / 1000 Ang^3
#
#
#
# Elastic Constant Matrix: (Units=GPa)
#
#
# Indices 1 2 3 4 5 6 
#
# 1 82.4456 51.7518 80.2733 0.0000 0.0000 0.0000
# 2 51.7518 82.4456 80.2733 0.0000 0.0000 0.0000
# 3 80.2733 80.2733 150.3649 0.0000 0.0000 0.0000
# 4 0.0000 0.0000 0.0000 23.1569 0.0000 0.0000
# 5 0.0000 0.0000 0.0000 0.0000 23.1569 0.0000
# 6 0.0000 0.0000 0.0000 0.0000 0.0000 15.3469
#
#
#
# Elastic Compliance Matrix: (Units=1/GPa)
#
#
# Indices 1 2 3 4 5 6 
#
# 1 0.026602 -0.005978 -0.011010 0.000000 0.000000 0.000000
# 2 -0.005978 0.026602 -0.011010 0.000000 0.000000 0.000000
# 3 -0.011010 -0.011010 0.018406 0.000000 0.000000 0.000000
# 4 0.000000 0.000000 0.000000 0.043184 0.000000 0.000000
# 5 0.000000 0.000000 0.000000 0.000000 0.043184 0.000000
# 6 0.000000 0.000000 0.000000 0.000000 0.000000 0.065160
#
#
# Mechanical properties :
#
#
# Convention : Reuss Voigt Hill
#
# Bulk Modulus (GPa) = 64.04919 82.20587 73.12753
# Shear Modulus (GPa) = 17.58478 19.19600 18.39039
#
# Velocity S-wave (km/s) = 3.34623 3.49617 3.42202
# Velocity P-wave (km/s) = 7.46415 8.28510 7.88532
#
# Compressibility (1/GPa) = 0.01561300
#
# Stress axis : x y z
#
# Youngs Moduli (GPa) = 37.59166 37.59166 54.33022
#
# Poissons Ratio (x) = 0.22473 0.59817
# Poissons Ratio (y) = 0.22473 0.59817
# Poissons Ratio (z) = 0.41388 0.41388
#
# Static dielectric constant tensor:
#      x y z
#    x 1.492870 0.000000 0.000000 
#    y 0.000000 1.492870 0.000000 
#    z 0.000000 0.000000 1.547240 
# 
# From -- ./inp_files/3868.got.cif
#   From: 2010.05.17/outbox.cif.g08.bks.cpg/sg187_2_cif.got.tgz:3868.got - 2010.05.20 12:09:04.
