data_PCOD9585090
_publ_section_title
;
Structure prediction by ZEFSAII (Michael W. Deem and Ramdas Pophale) SiO2 
 PCOD9585090
Probable space group: P 6 M M
;
_chemical_formula_sum "Si O2"
_cell_formula_units_Z 96
_cell_length_a 18.000000
_cell_length_b 18.000000
_cell_length_c 21.000000
_cell_angle_alpha 90.000000
_cell_angle_beta 90.000000
_cell_angle_gamma 120.000000
_cell_volume 5892.436847
_symmetry_space_group_name_H-M "P 6 M M"
_symmetry_group_IT_number 183
_symmetry_cell_setting 'hexagonal'
loop_
_space_group_symop_operation_xyz
x,y,z
x-y,x,z
-y,x-y,z
-x,-y,z
-x+y,-x,z
y,-x+y,z
-x+y,y,z
x,x-y,z
-y,-x,z
y,x,z
x-y,-y,z
-x,-x+y,z
loop_
_atom_site_type_symbol
_atom_site_label
_atom_site_fract_x
_atom_site_fract_y
_atom_site_fract_z
Si Si1 0.666913 0.508334 0.168940
Si Si2 0.266070 0.900416 0.808463
Si Si3 0.366538 0.268714 0.284922
Si Si4 0.900367 0.632997 0.049308
Si Si5 0.333462 0.491390 0.547011
Si Si6 0.636339 0.903351 0.662288
Si Si7 0.733392 0.636860 0.432021
Si Si8 0.103648 0.468299 0.926882
O O1 0.741861 0.483721 0.167429
O O2 0.574376 0.425625 0.162297
O O3 0.677720 0.557768 0.235185
O O4 0.687843 0.574691 0.111225
O O5 0.165033 0.834968 0.814904
O O6 0.289810 0.893655 0.735278
O O7 0.313758 0.873948 0.860581
O O8 0.296250 0.000000 0.819826
O O9 0.338760 0.169380 0.274415
O O10 0.292674 0.292674 0.274871
O O11 0.394594 0.288877 0.358863
O O12 0.833565 0.667130 0.054285
O O13 0.000000 0.704220 0.043985
O O14 0.875078 0.571733 0.987423
O O15 0.256198 0.512395 0.547276
O O16 0.424025 0.575976 0.547010
O O17 0.320398 0.434804 0.609694
O O18 0.320089 0.435196 0.484052
O O19 0.663051 0.831526 0.652331
O O20 0.712729 0.000000 0.655349
O O21 0.831956 0.663911 0.442079
O O22 0.712910 0.712910 0.439940
O O23 0.138388 0.569194 0.932060
O O24 0.000000 0.421454 0.927231
#
# Coordination Sequence:
#
# PCOD9585090 Si02
#       8
#    12  12  12  12  12  12  12  12
#     4  10  20  33  49  70  96 125 156 191 232 276
#     4   9  17  30  48  69  93 122 156 192 230 273
#     4   9  18  32  49  69  93 122 155 190 229 272
#     4  10  20  33  50  72  97 125 157 193 233 276
#     4  10  20  33  48  67  92 121 152 186 226 271
#     4   9  18  31  47  68  93 121 153 190 232 275
#     4   9  18  32  49  69  93 121 153 189 229 271
#     4   9  17  29  46  68  92 118 150 188 227 267
#
# _framework density 16.292071
#
# number of rings (size 3 to 8) (size 9 to 14) (size 15 to 20)
#    0.000    2.625    0.000    1.750    0.000    3.500 
#    0.000    2.500    0.000    4.875    0.000    3.500 
#    0.000    9.000    0.000    0.500    0.000    0.500 
#
# Total GULP energy -534763.540532 kJ/mol
# GULP energy per Si atom -5570.453547 kJ/mol
# Density = 1.625499 g / cm^3
# Si number density = 16.292071 Si / 1000 Ang^3
#
#
#
# Elastic Constant Matrix: (Units=GPa)
#
#
# Indices 1 2 3 4 5 6 
#
# 1 78.7995 71.3402 52.7972 0.0000 0.0000 0.0000
# 2 71.3402 78.7995 52.7972 0.0000 0.0000 0.0000
# 3 52.7972 52.7972 93.8523 0.0000 0.0000 0.0000
# 4 0.0000 0.0000 0.0000 18.0358 0.0000 0.0000
# 5 0.0000 0.0000 0.0000 0.0000 18.0358 0.0000
# 6 0.0000 0.0000 0.0000 0.0000 0.0000 3.7297
#
#
#
# Elastic Compliance Matrix: (Units=1/GPa)
#
#
# Indices 1 2 3 4 5 6 
#
# 1 0.072541 -0.061520 -0.006200 0.000000 0.000000 0.000000
# 2 -0.061520 0.072541 -0.006200 0.000000 0.000000 0.000000
# 3 -0.006200 -0.006200 0.017631 0.000000 0.000000 0.000000
# 4 0.000000 0.000000 0.000000 0.055445 0.000000 0.000000
# 5 0.000000 0.000000 0.000000 0.000000 0.055445 0.000000
# 6 0.000000 0.000000 0.000000 0.000000 0.000000 0.268121
#
#
# Mechanical properties :
#
#
# Convention : Reuss Voigt Hill
#
# Bulk Modulus (GPa) = 67.23644 67.25782 67.24713
# Shear Modulus (GPa) = 7.19921 12.92803 10.06362
#
# Velocity S-wave (km/s) = 2.10438 2.82000 2.48805
# Velocity P-wave (km/s) = 6.87485 7.20939 7.04411
#
# Compressibility (1/GPa) = 0.01487289
#
# Stress axis : x y z
#
# Youngs Moduli (GPa) = 13.78535 13.78535 56.71960
#
# Poissons Ratio (x) = 0.84807 0.35165
# Poissons Ratio (y) = 0.84807 0.35165
# Poissons Ratio (z) = 0.08547 0.08547
#
# Static dielectric constant tensor:
#      x y z
#    x 1.533320 0.000000 0.000000 
#    y 0.000000 1.533320 0.000000 
#    z 0.000000 0.000000 1.562530 
# 
# From -- ./inp_files/3100.got.cif
#   From: 2010.05.17/outbox.ucp.g08.bks.cvg/sg183_2_cif.got.tgz:3100.got - 2010.06.11 15:21:10.
