data_PCOD9585004
_publ_section_title
;
Structure prediction by ZEFSAII (Michael W. Deem and Ramdas Pophale) SiO2 
 PCOD9585004
Probable space group: P 6 M M
;
_chemical_formula_sum "Si O2"
_cell_formula_units_Z 96
_cell_length_a 18.209174
_cell_length_b 18.209174
_cell_length_c 20.901619
_cell_angle_alpha 90.000000
_cell_angle_beta 90.000000
_cell_angle_gamma 120.000000
_cell_volume 6001.931721
_symmetry_space_group_name_H-M "P 6 M M"
_symmetry_group_IT_number 183
_symmetry_cell_setting 'hexagonal'
loop_
_space_group_symop_operation_xyz
x,y,z
x-y,x,z
-y,x-y,z
-x,-y,z
-x+y,-x,z
y,-x+y,z
-x+y,y,z
x,x-y,z
-y,-x,z
y,x,z
x-y,-y,z
-x,-x+y,z
loop_
_atom_site_type_symbol
_atom_site_label
_atom_site_fract_x
_atom_site_fract_y
_atom_site_fract_z
Si Si1 0.101759 0.368249 0.159770
Si Si2 0.331583 0.495500 0.518626
Si Si3 0.102246 0.467594 0.283400
Si Si4 0.357058 0.097688 0.774198
Si Si5 0.633951 0.531636 0.036881
Si Si6 0.098900 0.363501 0.920806
Si Si7 0.897981 0.365163 0.659784
Si Si8 0.267001 0.365881 0.405010
O O1 0.165494 0.330988 0.161759
O O2 0.122106 0.430502 0.220372
O O3 0.122289 0.425858 0.096427
O O4 0.000000 0.300896 0.160410
O O5 0.262178 0.524356 0.507931
O O6 0.426399 0.573602 0.509316
O O7 0.323959 0.464446 0.591668
O O8 0.308432 0.419765 0.469286
O O9 0.136165 0.568083 0.282753
O O10 0.124170 0.432353 0.346450
O O11 0.000000 0.422313 0.284084
O O12 0.319172 0.159586 0.769954
O O13 0.391190 0.105563 0.846664
O O14 0.427462 0.123682 0.719793
O O15 0.288816 0.000000 0.764262
O O16 0.568231 0.431770 0.042837
O O17 0.577193 0.577193 0.037347
O O18 0.684750 0.560534 0.970532
O O19 0.165065 0.330130 0.929606
O O20 0.000000 0.294575 0.932392
O O21 0.871760 0.435880 0.672403
O O22 0.000000 0.414809 0.653185
O O23 0.166887 0.333773 0.406265
O O24 0.295245 0.295245 0.397654
#
# Coordination Sequence:
#
# PCOD9585004 Si02
#       8
#    12  12  12  12  12  12  12  12
#     4  10  19  31  49  72  97 126 161 199 236 275
#     4  10  19  30  45  66  93 123 153 185 222 266
#     4   9  17  30  49  71  93 119 152 188 226 269
#     4   9  17  29  45  65  89 117 151 190 229 268
#     4   9  17  29  46  67  88 112 145 184 225 270
#     4   9  17  29  46  67  90 118 152 189 227 268
#     4   9  17  28  43  64  88 115 149 187 225 267
#     4  10  20  33  50  71  94 122 156 193 231 272
#
# _framework density 15.994851000000001
#
# number of rings (size 3 to 8) (size 9 to 14) (size 15 to 20)
#    0.000    2.625    0.000    2.375    0.000    3.250 
#    0.000    2.500    0.000    8.500    0.000    1.750 
#    0.000    6.000    0.000    4.125    0.000    3.250 
#
# Total GULP energy -534518.664005 kJ/mol
# GULP energy per Si atom -5567.902750 kJ/mol
# Density = 1.595845 g / cm^3
# Si number density = 15.994851 Si / 1000 Ang^3
#
#
#
# Elastic Constant Matrix: (Units=GPa)
#
#
# Indices 1 2 3 4 5 6 
#
# 1 76.5948 44.2964 42.4020 0.0000 0.0000 0.0000
# 2 44.2964 76.5948 42.4020 0.0000 0.0000 0.0000
# 3 42.4020 42.4020 98.5706 0.0000 0.0000 0.0000
# 4 0.0000 0.0000 0.0000 16.1745 0.0000 0.0000
# 5 0.0000 0.0000 0.0000 0.0000 16.1745 0.0000
# 6 0.0000 0.0000 0.0000 0.0000 0.0000 16.1492
#
#
#
# Elastic Compliance Matrix: (Units=1/GPa)
#
#
# Indices 1 2 3 4 5 6 
#
# 1 0.021404 -0.009557 -0.005096 0.000000 0.000000 0.000000
# 2 -0.009557 0.021404 -0.005096 0.000000 0.000000 0.000000
# 3 -0.005096 -0.005096 0.014529 0.000000 0.000000 0.000000
# 4 0.000000 0.000000 0.000000 0.061826 0.000000 0.000000
# 5 0.000000 0.000000 0.000000 0.000000 0.061826 0.000000
# 6 0.000000 0.000000 0.000000 0.000000 0.000000 0.061922
#
#
# Mechanical properties :
#
#
# Convention : Reuss Voigt Hill
#
# Bulk Modulus (GPa) = 56.05858 56.66234 56.36046
# Shear Modulus (GPa) = 17.33965 17.87697 17.60831
#
# Velocity S-wave (km/s) = 3.29610 3.34678 3.32154
# Velocity P-wave (km/s) = 7.04342 7.10189 7.07272
#
# Compressibility (1/GPa) = 0.01783848
#
# Stress axis : x y z
#
# Youngs Moduli (GPa) = 46.72022 46.72022 68.82602
#
# Poissons Ratio (x) = 0.44652 0.35074
# Poissons Ratio (y) = 0.44652 0.35074
# Poissons Ratio (z) = 0.23809 0.23809
#
# Static dielectric constant tensor:
#      x y z
#    x 1.533060 0.000000 0.000000 
#    y 0.000000 1.533060 0.000000 
#    z 0.000000 0.000000 1.549160 
# 
# From -- ./inp_files/2939.got.cif
#   From: 2010.05.17/outbox.cif.g08.bks.cpg/sg183_2_cif.got.tgz:2939.got - 2010.05.20 12:02:58.
