data_PCOD9585217
_publ_section_title
;
Structure prediction by ZEFSAII (Michael W. Deem and Ramdas Pophale) SiO2 
 PCOD9585217
Probable space group: P 63 C M
;
_chemical_formula_sum "Si O2"
_cell_formula_units_Z 84
_cell_length_a 14.805975
_cell_length_b 14.805975
_cell_length_c 24.697442
_cell_angle_alpha 90.000000
_cell_angle_beta 90.000000
_cell_angle_gamma 120.000000
_cell_volume 4688.745166
_symmetry_space_group_name_H-M "P 63 C M"
_symmetry_group_IT_number 185
_symmetry_cell_setting 'hexagonal'
loop_
_space_group_symop_operation_xyz
x,y,z
x-y,x,1/2+z
-y,x-y,z
-x,-y,1/2+z
-x+y,-x,z
y,-x+y,1/2+z
-x+y,y,1/2+z
x,x-y,1/2+z
-y,-x,1/2+z
y,x,z
x-y,-y,z
-x,-x+y,z
loop_
_atom_site_type_symbol
_atom_site_label
_atom_site_fract_x
_atom_site_fract_y
_atom_site_fract_z
Si Si1 0.122226 0.246835 0.367760
Si Si2 0.881597 0.763072 0.239955
Si Si3 0.605115 0.879367 0.448920
Si Si4 0.874929 0.436685 0.512931
Si Si5 0.403954 0.525133 0.634566
Si Si6 0.829188 0.248489 0.658699
Si Si7 0.769301 0.121084 0.034711
O O1 0.172260 0.172260 0.378407
O O2 0.129808 0.266315 0.303367
O O3 0.189431 0.353740 0.401115
O O4 0.000000 0.187065 0.382743
O O5 0.801989 0.801989 0.222849
O O6 0.871502 0.669553 0.203513
O O7 0.000000 0.857392 0.235515
O O8 0.485037 0.835624 0.466699
O O9 0.663173 0.868873 0.502290
O O10 0.650558 0.000000 0.434638
O O11 0.837103 0.447087 0.572594
O O12 0.860939 0.322558 0.509994
O O13 0.000000 0.511604 0.514797
O O14 0.437477 0.437477 0.633291
O O15 0.499729 0.628614 0.659645
O O16 0.295371 0.484757 0.663700
O O17 0.858001 0.225866 0.598697
O O18 0.733362 0.000000 0.025979
#
# Coordination Sequence:
#
# PCOD9585217 Si02
#       7
#    12  12  12  12  12  12  12
#     4   9  18  32  53  77 103 135 175 218 261 314
#     4  10  20  35  55  79 107 141 181 222 266 322
#     4  10  18  31  51  74 102 135 173 215 263 317
#     4   8  16  30  45  67  97 128 161 202 250 305
#     4  10  19  32  49  74 104 132 169 214 259 311
#     4  11  20  33  53  76 103 139 178 219 270 318
#     4  10  19  31  49  75 107 136 169 214 266 323
#
# _framework density 17.915241999999999
#
# number of rings (size 3 to 8) (size 9 to 14) (size 15 to 20)
#    0.000    2.286    1.429    3.571    0.000    1.714 
#    0.857    0.000    3.143    0.286    0.000    0.000 
#    0.000    0.000    0.000    0.000    0.000    0.000 
#
# Total GULP energy -467978.853424 kJ/mol
# GULP energy per Si atom -5571.176826 kJ/mol
# Density = 1.787447 g / cm^3
# Si number density = 17.915242 Si / 1000 Ang^3
#
#
#
# Elastic Constant Matrix: (Units=GPa)
#
#
# Indices 1 2 3 4 5 6 
#
# 1 53.5827 9.9077 25.3173 0.0000 0.0000 0.0000
# 2 9.9077 53.5827 25.3173 0.0000 0.0000 0.0000
# 3 25.3173 25.3173 53.8171 0.0000 0.0000 0.0000
# 4 0.0000 0.0000 0.0000 26.8118 0.0000 0.0000
# 5 0.0000 0.0000 0.0000 0.0000 26.8118 0.0000
# 6 0.0000 0.0000 0.0000 0.0000 0.0000 21.8375
#
#
#
# Elastic Compliance Matrix: (Units=1/GPa)
#
#
# Indices 1 2 3 4 5 6 
#
# 1 0.024052 0.001156 -0.011859 0.000000 0.000000 0.000000
# 2 0.001156 0.024052 -0.011859 0.000000 0.000000 0.000000
# 3 -0.011859 -0.011859 0.029739 0.000000 0.000000 0.000000
# 4 0.000000 0.000000 0.000000 0.037297 0.000000 0.000000
# 5 0.000000 0.000000 0.000000 0.000000 0.037297 0.000000
# 6 0.000000 0.000000 0.000000 0.000000 0.000000 0.045793
#
#
# Mechanical properties :
#
#
# Convention : Reuss Voigt Hill
#
# Bulk Modulus (GPa) = 30.56224 31.34078 30.95151
# Shear Modulus (GPa) = 19.66495 21.78821 20.72658
#
# Velocity S-wave (km/s) = 3.31670 3.49116 3.40505
# Velocity P-wave (km/s) = 5.63593 5.81230 5.72480
#
# Compressibility (1/GPa) = 0.03272011
#
# Stress axis : x y z
#
# Youngs Moduli (GPa) = 41.57640 41.57640 33.62616
#
# Poissons Ratio (x) = -0.04805 0.39876
# Poissons Ratio (y) = -0.04805 0.39876
# Poissons Ratio (z) = 0.49304 0.49304
#
# Static dielectric constant tensor:
#      x y z
#    x 1.644860 0.000000 0.000000 
#    y 0.000000 1.644860 0.000000 
#    z 0.000000 0.000000 1.605550 
# 
# From -- ./inp_files/2070.got.cif
#   From: 2010.05.17/outbox.cif.g08.bks.cpg/sg185_cif.got.tgz:2070.got - 2010.05.20 12:05:34.
