data_PCOD9585738
_publ_section_title
;
Structure prediction by ZEFSAII (Michael W. Deem and Ramdas Pophale) SiO2 
 PCOD9585738
Probable space group: P -6 M 2
;
_chemical_formula_sum "Si O2"
_cell_formula_units_Z 72
_cell_length_a 23.554000
_cell_length_b 23.554000
_cell_length_c 8.780921
_cell_angle_alpha 90.000000
_cell_angle_beta 90.000000
_cell_angle_gamma 120.000000
_cell_volume 4218.907884
_symmetry_space_group_name_H-M "P -6 M 2"
_symmetry_group_IT_number 187
_symmetry_cell_setting 'hexagonal'
loop_
_space_group_symop_operation_xyz
x,y,z
-x+y,-x,-z
-y,x-y,z
x,y,-z
-x+y,-x,z
-y,x-y,-z
-y,-x,-z
-x+y,y,-z
x,x-y,-z
-x+y,y,z
x,x-y,z
-y,-x,z
loop_
_atom_site_type_symbol
_atom_site_label
_atom_site_fract_x
_atom_site_fract_y
_atom_site_fract_z
Si Si1 0.743018 0.001684 0.680968
Si Si2 0.402856 0.469266 0.816873
Si Si3 0.474410 0.078678 0.317949
Si Si4 0.386277 0.259309 0.817560
Si Si5 0.866578 0.999962 0.817971
Si Si6 0.618051 0.874254 0.183971
O O1 0.737250 0.002254 0.500000
O O2 0.742414 0.064498 0.749946
O O3 0.809916 0.004331 0.729609
O O4 0.682839 0.935279 0.747656
O O5 0.455864 0.544137 0.777058
O O6 0.428254 0.424070 0.740204
O O7 0.327618 0.442555 0.774994
O O8 0.405480 0.462568 0.000000
O O9 0.469314 0.079857 0.500000
O O10 0.548361 0.096722 0.277923
O O11 0.448424 0.122979 0.242917
O O12 0.387816 0.193908 0.773896
O O13 0.383464 0.261649 0.000000
O O14 0.937010 0.062991 0.786222
O O15 0.866552 0.933276 0.781374
O O16 0.854432 0.999588 0.000000
O O17 0.610806 0.805403 0.232965
O O18 0.624047 0.877679 0.000000
#
# Coordination Sequence:
#
# PCOD9585738 Si02
#       6
#    12  12  12  12  12  12
#     4  12  24  36  52  77 108 141 177 224 280 331
#     4   9  17  31  53  78 105 140 181 222 264 314
#     4  10  20  34  55  84 114 141 172 215 267 319
#     4  11  23  38  57  81 110 146 186 225 267 318
#     4  10  21  38  58  76  96 129 176 226 274 328
#     4  10  20  34  53  77 108 146 185 224 268 321
#
# _framework density 17.066027999999999
#
# number of rings (size 3 to 8) (size 9 to 14) (size 15 to 20)
#    0.000    1.667    1.667    3.667    0.000    8.000 
#    0.000    0.000    0.000    1.667    0.000    2.333 
#    0.000    0.000    0.000    3.833    0.000    4.667 
#
# Total GULP energy -402132.569204 kJ/mol
# GULP energy per Si atom -5585.174572 kJ/mol
# Density = 1.702719 g / cm^3
# Si number density = 17.066028 Si / 1000 Ang^3
#
#
#
# Elastic Constant Matrix: (Units=GPa)
#
#
# Indices 1 2 3 4 5 6 
#
# 1 133.3690 80.6178 45.1472 0.0000 0.0002 0.0000
# 2 80.6178 133.3690 45.1472 0.0000 -0.0002 0.0000
# 3 45.1472 45.1472 35.3348 0.0000 0.0000 0.0000
# 4 0.0000 0.0000 0.0000 1.1159 0.0000 -0.0002
# 5 0.0002 -0.0002 0.0000 0.0000 1.1159 0.0000
# 6 0.0000 0.0000 0.0000 -0.0002 0.0000 26.3756
#
#
#
# Elastic Compliance Matrix: (Units=1/GPa)
#
#
# Indices 1 2 3 4 5 6 
#
# 1 0.014549 -0.004408 -0.012956 0.000000 -0.000004 0.000000
# 2 -0.004408 0.014549 -0.012956 0.000000 0.000004 0.000000
# 3 -0.012956 -0.012956 0.061409 0.000000 0.000000 0.000000
# 4 0.000000 0.000000 0.000000 0.896177 0.000000 0.000008
# 5 -0.000004 0.000004 0.000000 0.000000 0.896177 0.000000
# 6 0.000000 0.000000 0.000000 0.000008 0.000000 0.037914
#
#
# Mechanical properties :
#
#
# Convention : Reuss Voigt Hill
#
# Bulk Modulus (GPa) = 33.48435 71.54414 52.51424
# Shear Modulus (GPa) = 2.51084 14.46550 8.48817
#
# Velocity S-wave (km/s) = 1.21427 2.91455 2.23260
# Velocity P-wave (km/s) = 4.65070 7.30336 6.12242
#
# Compressibility (1/GPa) = 0.02986470
#
# Stress axis : x y z
#
# Youngs Moduli (GPa) = 68.73543 68.73543 16.28433
#
# Poissons Ratio (x) = 0.30301 0.21098
# Poissons Ratio (y) = 0.30301 0.21098
# Poissons Ratio (z) = 0.89054 0.89054
#
# Static dielectric constant tensor:
#      x y z
#    x 1.567300 0.000000 0.000000 
#    y 0.000000 1.567300 0.000000 
#    z 0.000000 0.000000 1.571550 
# 
# From -- ./inp_files/976.got.cif
#   From: 2010.05.17/outbox.cif.g08.bks.cpg/sg187_1_cif.got.tgz:976.got - 2010.05.20 12:09:04.
