data_PCOD9585732
_publ_section_title
;
Structure prediction by ZEFSAII (Michael W. Deem and Ramdas Pophale) SiO2 
 PCOD9585732
Probable space group: P -6 M 2
;
_chemical_formula_sum "Si O2"
_cell_formula_units_Z 50
_cell_length_a 11.933826
_cell_length_b 11.933826
_cell_length_c 22.140660
_cell_angle_alpha 90.000000
_cell_angle_beta 90.000000
_cell_angle_gamma 120.000000
_cell_volume 2730.741542
_symmetry_space_group_name_H-M "P -6 M 2"
_symmetry_group_IT_number 187
_symmetry_cell_setting 'hexagonal'
loop_
_space_group_symop_operation_xyz
x,y,z
-x+y,-x,-z
-y,x-y,z
x,y,-z
-x+y,-x,z
-y,x-y,-z
-y,-x,-z
-x+y,y,-z
x,x-y,-z
-x+y,y,z
x,x-y,z
-y,-x,z
loop_
_atom_site_type_symbol
_atom_site_label
_atom_site_fract_x
_atom_site_fract_y
_atom_site_fract_z
Si Si1 0.666232 0.596102 0.129251
Si Si2 0.931219 0.599210 0.624933
Si Si3 0.331580 0.932859 0.500000
Si Si4 0.183938 0.367876 0.072358
Si Si5 0.737921 0.998993 0.749276
Si Si6 0.333334 0.666667 0.073224
O O1 0.787042 0.574083 0.117365
O O2 0.530113 0.469888 0.112404
O O3 0.687623 0.726184 0.096288
O O4 0.668060 0.628206 0.200374
O O5 0.784665 0.569330 0.627433
O O6 0.935601 0.467801 0.628914
O O7 0.002467 0.687594 0.682582
O O8 0.992896 0.664769 0.561082
O O9 0.207598 0.792403 0.500000
O O10 0.461882 0.923763 0.500000
O O11 0.259185 0.518369 0.092829
O O12 0.181285 0.362569 0.000000
O O13 0.887992 0.112009 0.750538
O O14 0.723924 0.861962 0.764509
O O15 0.333334 0.666667 0.000000
#
# Coordination Sequence:
#
# PCOD9585732 Si02
#       6
#    12  12   6   6  12   2
#     4  11  23  40  63  91 124 160 200 247 300 357
#     4  10  20  34  54  79 109 145 185 231 281 337
#     4  10  20  34  52  74 104 142 184 230 282 336
#     4  11  22  40  64  90 120 156 200 248 296 354
#     4  10  20  35  56  82 114 151 193 240 290 344
#     4   9  18  36  66  90 114 153 198 244 296 349
#
# _framework density 18.310044999999999
#
# number of rings (size 3 to 8) (size 9 to 14) (size 15 to 20)
#    0.000    1.680    2.400    2.640    0.000    0.480 
#    0.720    3.600    0.000    6.720    0.000    0.000 
#    0.000    0.000    0.000    0.000    0.000    0.000 
#
# Total GULP energy -279070.459191 kJ/mol
# GULP energy per Si atom -5581.409184 kJ/mol
# Density = 1.826837 g / cm^3
# Si number density = 18.310045 Si / 1000 Ang^3
#
#
#
# Elastic Constant Matrix: (Units=GPa)
#
#
# Indices 1 2 3 4 5 6 
#
# 1 89.8047 16.2411 17.8478 0.0000 -0.0007 0.0001
# 2 16.2411 89.8048 17.8479 0.0000 0.0007 0.0000
# 3 17.8478 17.8479 76.7608 0.0000 0.0000 0.0000
# 4 0.0000 0.0000 0.0000 24.4949 0.0000 0.0007
# 5 -0.0007 0.0007 0.0000 0.0000 24.4949 0.0000
# 6 0.0001 0.0000 0.0000 0.0007 0.0000 36.7818
#
#
#
# Elastic Compliance Matrix: (Units=1/GPa)
#
#
# Indices 1 2 3 4 5 6 
#
# 1 0.011912 -0.001682 -0.002379 0.000000 0.000000 0.000000
# 2 -0.001682 0.011912 -0.002379 0.000000 0.000000 0.000000
# 3 -0.002379 -0.002379 0.014134 0.000000 0.000000 0.000000
# 4 0.000000 0.000000 0.000000 0.040825 0.000000 -0.000001
# 5 0.000000 0.000000 0.000000 0.000000 0.040825 0.000000
# 6 0.000000 0.000000 0.000000 -0.000001 0.000000 0.027187
#
#
# Mechanical properties :
#
#
# Convention : Reuss Voigt Hill
#
# Bulk Modulus (GPa) = 39.87262 40.02710 39.94986
# Shear Modulus (GPa) = 29.75606 30.78322 30.26964
#
# Velocity S-wave (km/s) = 4.03565 4.10472 4.07033
# Velocity P-wave (km/s) = 6.59841 6.66132 6.62994
#
# Compressibility (1/GPa) = 0.02507987
#
# Stress axis : x y z
#
# Youngs Moduli (GPa) = 83.94807 83.94814 70.75311
#
# Poissons Ratio (x) = 0.14116 0.16830
# Poissons Ratio (y) = 0.14116 0.16830
# Poissons Ratio (z) = 0.19969 0.19969
#
# Static dielectric constant tensor:
#      x y z
#    x 1.603770 0.000000 0.000000 
#    y 0.000000 1.603770 0.000000 
#    z 0.000000 0.000000 1.636730 
# 
# From -- ./inp_files/3462.got.cif
#   From: 2010.05.17/outbox.cif.g08.bks.cpg/sg187_2_cif.got.tgz:3462.got - 2010.05.20 12:09:04.
