data_PCOD9585343
_publ_section_title
;
Structure prediction by ZEFSAII (Michael W. Deem and Ramdas Pophale) SiO2 
 PCOD9585343
Probable space group: P 63 M C
;
_chemical_formula_sum "Si O2"
_cell_formula_units_Z 84
_cell_length_a 17.428085
_cell_length_b 17.428085
_cell_length_c 17.430788
_cell_angle_alpha 90.000000
_cell_angle_beta 90.000000
_cell_angle_gamma 120.000000
_cell_volume 4585.080779
_symmetry_space_group_name_H-M "P 63 M C"
_symmetry_group_IT_number 186
_symmetry_cell_setting 'hexagonal'
loop_
_space_group_symop_operation_xyz
x,y,z
x-y,x,1/2+z
-y,x-y,z
-x,-y,1/2+z
-x+y,-x,z
y,-x+y,1/2+z
-x+y,y,z
x,x-y,z
-y,-x,z
y,x,1/2+z
x-y,-y,1/2+z
-x,-x+y,1/2+z
loop_
_atom_site_type_symbol
_atom_site_label
_atom_site_fract_x
_atom_site_fract_y
_atom_site_fract_z
Si Si1 0.843003 0.510299 0.276640
Si Si2 0.637441 0.732379 0.922932
Si Si3 0.315969 0.070356 0.702869
Si Si4 0.484491 0.333564 0.809698
Si Si5 0.439145 0.379718 0.974853
Si Si6 0.376362 0.275761 0.124606
Si Si7 0.821550 0.820619 0.843953
O O1 0.738219 0.476437 0.277558
O O2 0.861874 0.430937 0.291295
O O3 0.885267 0.585163 0.341963
O O4 0.879001 0.555329 0.194470
O O5 0.621817 0.810909 0.952529
O O6 0.605645 0.644928 0.972069
O O7 0.741635 0.774786 0.904757
O O8 0.318894 0.159447 0.675311
O O9 0.408345 0.099189 0.746570
O O10 0.295244 0.998180 0.638433
O O11 0.239092 0.026140 0.767389
O O12 0.501814 0.250907 0.812465
O O13 0.574382 0.425619 0.794391
O O14 0.447530 0.342667 0.892279
O O15 0.528913 0.471088 0.987625
O O16 0.422495 0.312910 0.043639
O O17 0.345299 0.172650 0.131468
O O18 0.837293 0.918647 0.829773
O O19 0.911281 0.822561 0.868311
#
# Coordination Sequence:
#
# PCOD9585343 Si02
#       7
#    12  12  12  12  12  12  12
#     4  10  19  33  53  78 106 138 175 217 265 319
#     4  10  20  35  56  78 106 140 176 224 273 318
#     4  10  20  35  57  79 105 139 180 226 273 325
#     4  10  20  35  55  81 110 143 182 227 275 324
#     4  11  22  35  54  80 109 145 186 224 270 328
#     4  11  22  36  54  77 109 144 178 221 274 325
#     4  10  18  31  52  79 107 135 171 215 265 315
#
# _framework density 18.320288000000001
#
# number of rings (size 3 to 8) (size 9 to 14) (size 15 to 20)
#    0.000    1.714    2.857    2.143    0.000    3.429 
#    0.000    0.000    0.000    5.143    0.000    2.000 
#    0.000    0.000    0.000    0.000    0.000    0.000 
#
# Total GULP energy -469031.880196 kJ/mol
# GULP energy per Si atom -5583.712859 kJ/mol
# Density = 1.827859 g / cm^3
# Si number density = 18.320288 Si / 1000 Ang^3
#
#
#
# Elastic Constant Matrix: (Units=GPa)
#
#
# Indices 1 2 3 4 5 6 
#
# 1 109.6182 52.7275 21.0511 0.0000 0.0000 0.0000
# 2 52.7275 109.6182 21.0511 0.0000 0.0000 0.0000
# 3 21.0511 21.0511 31.3355 0.0000 0.0000 0.0000
# 4 0.0000 0.0000 0.0000 19.3159 0.0000 0.0000
# 5 0.0000 0.0000 0.0000 0.0000 19.3159 0.0000
# 6 0.0000 0.0000 0.0000 0.0000 0.0000 28.4454
#
#
#
# Elastic Compliance Matrix: (Units=1/GPa)
#
#
# Indices 1 2 3 4 5 6 
#
# 1 0.012518 -0.005059 -0.005011 0.000000 0.000000 0.000000
# 2 -0.005059 0.012518 -0.005011 0.000000 0.000000 0.000000
# 3 -0.005011 -0.005011 0.038646 0.000000 0.000000 0.000000
# 4 0.000000 0.000000 0.000000 0.051771 0.000000 0.000000
# 5 0.000000 0.000000 0.000000 0.000000 0.051771 0.000000
# 6 0.000000 0.000000 0.000000 0.000000 0.000000 0.035155
#
#
# Mechanical properties :
#
#
# Convention : Reuss Voigt Hill
#
# Bulk Modulus (GPa) = 29.83325 48.91461 39.37393
# Shear Modulus (GPa) = 20.51577 23.79826 22.15701
#
# Velocity S-wave (km/s) = 3.35003 3.60809 3.48145
# Velocity P-wave (km/s) = 5.59314 6.64194 6.13998
#
# Compressibility (1/GPa) = 0.03351965
#
# Stress axis : x y z
#
# Youngs Moduli (GPa) = 79.88235 79.88235 25.87618
#
# Poissons Ratio (x) = 0.40414 0.12967
# Poissons Ratio (y) = 0.40414 0.12967
# Poissons Ratio (z) = 0.40030 0.40030
#
# Static dielectric constant tensor:
#      x y z
#    x 1.627260 0.000000 0.000000 
#    y 0.000000 1.627260 0.000000 
#    z 0.000000 0.000000 1.616160 
# 
# From -- ./inp_files/2548.got.cif
#   From: 2010.05.17/outbox.cif.g08.bks.cpg/sg186_2_cif.got.tgz:2548.got - 2010.05.20 12:07:08.
