data_PCOD9585533
_publ_section_title
;
Structure prediction by ZEFSAII (Michael W. Deem and Ramdas Pophale) SiO2 
 PCOD9585533
Probable space group: P -6 M 2
;
_chemical_formula_sum "Si O2"
_cell_formula_units_Z 84
_cell_length_a 17.635782
_cell_length_b 17.635782
_cell_length_c 20.596614
_cell_angle_alpha 90.000000
_cell_angle_beta 90.000000
_cell_angle_gamma 120.000000
_cell_volume 5547.737521
_symmetry_space_group_name_H-M "P -6 M 2"
_symmetry_group_IT_number 187
_symmetry_cell_setting 'hexagonal'
loop_
_space_group_symop_operation_xyz
x,y,z
-x+y,-x,-z
-y,x-y,z
x,y,-z
-x+y,-x,z
-y,x-y,-z
-y,-x,-z
-x+y,y,-z
x,x-y,-z
-x+y,y,z
x,x-y,z
-y,-x,z
loop_
_atom_site_type_symbol
_atom_site_label
_atom_site_fract_x
_atom_site_fract_y
_atom_site_fract_z
Si Si1 0.333867 0.486898 0.924574
Si Si2 0.333951 0.362023 0.574633
Si Si3 0.667249 0.160153 0.421049
Si Si4 0.274874 0.366036 0.193159
Si Si5 0.824045 0.001025 0.236181
Si Si6 0.175152 0.174957 0.393120
Si Si7 0.514015 0.666751 0.315561
O O1 0.251294 0.502588 0.916300
O O2 0.423270 0.576731 0.911202
O O3 0.319750 0.411908 0.874093
O O4 0.334265 0.463050 0.000000
O O5 0.349803 0.392514 0.500000
O O6 0.414906 0.350109 0.597667
O O7 0.247797 0.266794 0.578151
O O8 0.324829 0.429059 0.621193
O O9 0.669394 0.161803 0.500000
O O10 0.586395 0.172790 0.400962
O O11 0.759994 0.240007 0.398460
O O12 0.180932 0.361864 0.194524
O O13 0.250517 0.266702 0.205282
O O14 0.327798 0.428222 0.253109
O O15 0.908371 0.091630 0.216993
O O16 0.816134 0.000524 0.314659
O O17 0.837375 0.918688 0.220058
O O18 0.187078 0.093539 0.412885
O O19 0.078585 0.157170 0.409532
O O20 0.499369 0.749685 0.312118
O O21 0.422913 0.577088 0.316339
#
# Coordination Sequence:
#
# PCOD9585533 Si02
#       7
#    12  12  12  12  12  12  12
#     4   9  16  26  43  69 100 131 160 191 229 274
#     4  11  22  35  49  65  89 120 152 191 241 288
#     4   9  17  30  48  68  87 108 138 179 228 283
#     4   9  17  30  47  68  94 122 153 189 228 270
#     4   9  16  28  47  70  94 121 155 194 234 277
#     4  10  19  32  49  69  91 116 148 189 238 292
#     4  11  22  36  51  67  88 119 159 199 234 271
#
# _framework density 15.141306999999999
#
# number of rings (size 3 to 8) (size 9 to 14) (size 15 to 20)
#    0.000    2.286    1.429    2.429    0.000    5.143 
#    0.000    1.429    0.000    2.143    0.000    0.000 
#    0.000    1.143    0.000    0.571    0.000    2.000 
#
# Total GULP energy -468479.739219 kJ/mol
# GULP energy per Si atom -5577.139753 kJ/mol
# Density = 1.510685 g / cm^3
# Si number density = 15.141307 Si / 1000 Ang^3
#
#
#
# Elastic Constant Matrix: (Units=GPa)
#
#
# Indices 1 2 3 4 5 6 
#
# 1 92.8255 36.8673 36.2970 0.0000 0.0002 0.0000
# 2 36.8673 92.8255 36.2970 0.0000 -0.0002 0.0000
# 3 36.2970 36.2970 61.2678 0.0000 0.0000 0.0000
# 4 0.0000 0.0000 0.0000 14.7818 0.0000 -0.0002
# 5 0.0002 -0.0002 0.0000 0.0000 14.7818 0.0000
# 6 0.0000 0.0000 0.0000 -0.0002 0.0000 27.9791
#
#
#
# Elastic Compliance Matrix: (Units=1/GPa)
#
#
# Indices 1 2 3 4 5 6 
#
# 1 0.014703 -0.003167 -0.006834 0.000000 0.000000 0.000000
# 2 -0.003167 0.014703 -0.006834 0.000000 0.000000 0.000000
# 3 -0.006834 -0.006834 0.024419 0.000000 0.000000 0.000000
# 4 0.000000 0.000000 0.000000 0.067651 0.000000 0.000001
# 5 0.000000 0.000000 0.000000 0.000000 0.067651 0.000000
# 6 0.000000 0.000000 0.000000 0.000001 0.000000 0.035741
#
#
# Mechanical properties :
#
#
# Convention : Reuss Voigt Hill
#
# Bulk Modulus (GPa) = 49.61726 51.76018 50.68872
# Shear Modulus (GPa) = 18.84957 20.67237 19.76097
#
# Velocity S-wave (km/s) = 3.53216 3.69900 3.61654
# Velocity P-wave (km/s) = 7.03388 7.24586 7.14065
#
# Compressibility (1/GPa) = 0.02015428
#
# Stress axis : x y z
#
# Youngs Moduli (GPa) = 68.01244 68.01244 40.95100
#
# Poissons Ratio (x) = 0.21541 0.27987
# Poissons Ratio (y) = 0.21541 0.27987
# Poissons Ratio (z) = 0.46481 0.46481
#
# Static dielectric constant tensor:
#      x y z
#    x 1.497400 0.000000 0.000000 
#    y 0.000000 1.497400 0.000000 
#    z 0.000000 0.000000 1.502560 
# 
# From -- ./inp_files/3662.got.cif
#   From: 2010.05.17/outbox.cif.g08.bks.cpg/sg187_2_cif.got.tgz:3662.got - 2010.05.20 12:09:04.
