data_PCOD9585872
_publ_section_title
;
Structure prediction by ZEFSAII (Michael W. Deem and Ramdas Pophale) SiO2 
 PCOD9585872
Probable space group: P -6 C 2
;
_chemical_formula_sum "Si O2"
_cell_formula_units_Z 72
_cell_length_a 16.089549
_cell_length_b 16.089549
_cell_length_c 15.432846
_cell_angle_alpha 90.000000
_cell_angle_beta 90.000000
_cell_angle_gamma 120.000000
_cell_volume 3459.906763
_symmetry_space_group_name_H-M "P -6 C 2"
_symmetry_group_IT_number 188
_symmetry_cell_setting 'hexagonal'
loop_
_space_group_symop_operation_xyz
x,y,z
-x+y,-x,1/2-z
-y,x-y,z
x,y,1/2-z
-x+y,-x,z
-y,x-y,1/2-z
-y,-x,-z
-x+y,y,-z
x,x-y,-z
-x+y,y,1/2+z
x,x-y,1/2+z
-y,-x,1/2+z
loop_
_atom_site_type_symbol
_atom_site_label
_atom_site_fract_x
_atom_site_fract_y
_atom_site_fract_z
Si Si1 0.423521 0.433140 0.346104
Si Si2 0.387835 0.928360 0.068985
Si Si3 0.715014 0.095507 0.027200
Si Si4 0.858201 0.790257 0.854658
Si Si5 0.138346 0.937078 0.146258
Si Si6 0.197390 0.780626 0.145587
O O1 0.404274 0.392527 0.250000
O O2 0.507900 0.542414 0.348449
O O3 0.451086 0.369971 0.407503
O O4 0.324948 0.433088 0.373108
O O5 0.296174 0.825826 0.091905
O O6 0.461054 0.922107 0.000000
O O7 0.365008 0.012570 0.042059
O O8 0.772802 0.061396 0.089256
O O9 0.796451 0.203550 0.000000
O O10 0.844082 0.772612 0.750000
O O11 0.865623 0.891936 0.871458
O O12 0.956177 0.797560 0.887034
O O13 0.149165 0.946599 0.250000
O O14 0.163790 0.856746 0.122149
O O15 0.214982 0.784030 0.250000
#
# Coordination Sequence:
#
# PCOD9585872 Si02
#       6
#    12  12  12  12  12  12
#     4  10  21  42  68  88 117 162 213 255 303 370
#     4  10  23  39  59  90 124 157 199 259 322 372
#     4  11  22  37  57  88 125 159 194 245 314 372
#     4  10  18  33  53  80 119 167 215 244 279 339
#     4   9  17  29  53  84 116 157 205 253 280 320
#     4  10  19  37  63  88 117 159 210 255 296 353
#
# _framework density 20.809811
#
# number of rings (size 3 to 8) (size 9 to 14) (size 15 to 20)
#    0.000    2.000    1.667    2.333    0.000    4.000 
#    4.000    2.500    0.000    9.000    0.000    0.000 
#    0.000    0.000    0.000    0.000    0.000    0.000 
#
# Total GULP energy -400945.080053 kJ/mol
# GULP energy per Si atom -5568.681667 kJ/mol
# Density = 2.076245 g / cm^3
# Si number density = 20.809811 Si / 1000 Ang^3
#
#
#
# Elastic Constant Matrix: (Units=GPa)
#
#
# Indices 1 2 3 4 5 6 
#
# 1 92.5677 37.6053 41.3308 -0.0001 0.0000 0.0000
# 2 37.6053 92.5677 41.3308 0.0001 0.0000 0.0000
# 3 41.3308 41.3308 62.2441 0.0000 0.0000 0.0000
# 4 -0.0001 0.0001 0.0000 31.5607 0.0000 0.0000
# 5 0.0000 0.0000 0.0000 0.0000 31.5607 -0.0001
# 6 0.0000 0.0000 0.0000 0.0000 -0.0001 27.4812
#
#
#
# Elastic Compliance Matrix: (Units=1/GPa)
#
#
# Indices 1 2 3 4 5 6 
#
# 1 0.015739 -0.002456 -0.008820 0.000000 0.000000 0.000000
# 2 -0.002456 0.015739 -0.008820 0.000000 0.000000 0.000000
# 3 -0.008820 -0.008820 0.027779 0.000000 0.000000 0.000000
# 4 0.000000 0.000000 0.000000 0.031685 0.000000 0.000000
# 5 0.000000 0.000000 0.000000 0.000000 0.031685 0.000000
# 6 0.000000 0.000000 0.000000 0.000000 0.000000 0.036388
#
#
# Mechanical properties :
#
#
# Convention : Reuss Voigt Hill
#
# Bulk Modulus (GPa) = 52.45280 54.21257 53.33269
# Shear Modulus (GPa) = 24.32372 26.59472 25.45922
#
# Velocity S-wave (km/s) = 3.42257 3.57878 3.50154
# Velocity P-wave (km/s) = 6.39368 6.57152 6.48321
#
# Compressibility (1/GPa) = 0.01906476
#
# Stress axis : x y z
#
# Youngs Moduli (GPa) = 63.53821 63.53821 35.99851
#
# Poissons Ratio (x) = 0.15603 0.31751
# Poissons Ratio (y) = 0.15603 0.31751
# Poissons Ratio (z) = 0.56041 0.56041
#
# Static dielectric constant tensor:
#      x y z
#    x 1.767360 0.000000 0.000000 
#    y 0.000000 1.767360 0.000000 
#    z 0.000000 0.000000 1.857550 
# 
# From -- ./inp_files/3199.got.cif
#   From: 2010.05.17/outbox.cif.g08.bks.cpg/sg188_2_cif.got.tgz:3199.got - 2010.05.20 12:11:46.
