data_PCOD9585582
_publ_section_title
;
Structure prediction by ZEFSAII (Michael W. Deem and Ramdas Pophale) SiO2 
 PCOD9585582
Probable space group: P -6 M 2
;
_chemical_formula_sum "Si O2"
_cell_formula_units_Z 66
_cell_length_a 13.041311
_cell_length_b 13.041311
_cell_length_c 28.272202
_cell_angle_alpha 90.000000
_cell_angle_beta 90.000000
_cell_angle_gamma 120.000000
_cell_volume 4164.211416
_symmetry_space_group_name_H-M "P -6 M 2"
_symmetry_group_IT_number 187
_symmetry_cell_setting 'hexagonal'
loop_
_space_group_symop_operation_xyz
x,y,z
-x+y,-x,-z
-y,x-y,z
x,y,-z
-x+y,-x,z
-y,x-y,-z
-y,-x,-z
-x+y,y,-z
x,x-y,-z
-x+y,y,z
x,x-y,z
-y,-x,z
loop_
_atom_site_type_symbol
_atom_site_label
_atom_site_fract_x
_atom_site_fract_y
_atom_site_fract_z
Si Si1 0.909936 0.333466 0.863013
Si Si2 0.000274 0.758636 0.583137
Si Si3 0.576669 0.910086 0.223697
Si Si4 0.332900 0.425609 0.055569
Si Si5 0.240994 0.240770 0.307569
Si Si6 0.423578 0.333625 0.500000
O O1 0.880559 0.440280 0.863644
O O2 0.791947 0.208054 0.858946
O O3 0.999248 0.360336 0.819395
O O4 0.983309 0.346011 0.910613
O O5 0.124940 0.875061 0.573288
O O6 0.998750 0.722792 0.637817
O O7 0.894217 0.788434 0.578331
O O8 0.972308 0.655812 0.546103
O O9 0.445887 0.891773 0.228560
O O10 0.571138 0.785569 0.214724
O O11 0.653929 0.966185 0.270883
O O12 0.208178 0.416355 0.067050
O O13 0.439382 0.560619 0.062829
O O14 0.332886 0.398170 0.000000
O O15 0.103743 0.207485 0.304395
O O16 0.252686 0.126343 0.296716
O O17 0.543044 0.456957 0.500000
O O18 0.449165 0.224583 0.500000
#
# Coordination Sequence:
#
# PCOD9585582 Si02
#       6
#    12  12  12  12  12   6
#     4  10  20  33  49  69  94 124 157 194 236 281
#     4   9  17  30  50  74  96 119 151 194 239 278
#     4  10  20  33  50  71  95 124 158 196 235 276
#     4   9  17  30  50  75 100 126 157 194 234 275
#     4   9  17  30  49  73  99 125 153 187 230 279
#     4  10  20  32  46  64  90 124 158 192 230 276
#
# _framework density 15.849339000000001
#
# number of rings (size 3 to 8) (size 9 to 14) (size 15 to 20)
#    0.000    2.545    0.000    2.364    0.000    3.273 
#    0.000    2.727    0.000    6.909    0.000    0.000 
#    0.000    0.000    0.000    0.000    0.000    0.000 
#
# Total GULP energy -368040.327646 kJ/mol
# GULP energy per Si atom -5576.368601 kJ/mol
# Density = 1.581326 g / cm^3
# Si number density = 15.849339 Si / 1000 Ang^3
#
#
#
# Elastic Constant Matrix: (Units=GPa)
#
#
# Indices 1 2 3 4 5 6 
#
# 1 121.0155 80.9742 78.4466 0.0000 0.0002 0.0000
# 2 80.9742 121.0155 78.4466 0.0000 -0.0002 0.0000
# 3 78.4466 78.4466 95.6500 0.0000 0.0000 0.0000
# 4 0.0000 0.0000 0.0000 21.7708 0.0000 -0.0002
# 5 0.0002 -0.0002 0.0000 0.0000 21.7708 0.0000
# 6 0.0000 0.0000 0.0000 -0.0002 0.0000 20.0206
#
#
#
# Elastic Compliance Matrix: (Units=1/GPa)
#
#
# Indices 1 2 3 4 5 6 
#
# 1 0.019307 -0.005667 -0.011187 0.000000 0.000000 0.000000
# 2 -0.005667 0.019307 -0.011187 0.000000 0.000000 0.000000
# 3 -0.011187 -0.011187 0.028804 0.000000 0.000000 0.000000
# 4 0.000000 0.000000 0.000000 0.045933 0.000000 0.000000
# 5 0.000000 0.000000 0.000000 0.000000 0.045933 0.000000
# 6 0.000000 0.000000 0.000000 0.000000 0.000000 0.049949
#
#
# Mechanical properties :
#
#
# Convention : Reuss Voigt Hill
#
# Bulk Modulus (GPa) = 88.20485 90.37953 89.29219
# Shear Modulus (GPa) = 18.58098 19.36668 18.97383
#
# Velocity S-wave (km/s) = 3.42767 3.49939 3.46372
# Velocity P-wave (km/s) = 8.45211 8.57179 8.51216
#
# Compressibility (1/GPa) = 0.01133724
#
# Stress axis : x y z
#
# Youngs Moduli (GPa) = 51.79464 51.79464 34.71753
#
# Poissons Ratio (x) = 0.29353 0.38837
# Poissons Ratio (y) = 0.29353 0.38837
# Poissons Ratio (z) = 0.57940 0.57940
#
# Static dielectric constant tensor:
#      x y z
#    x 1.499930 0.000000 0.000000 
#    y 0.000000 1.499930 0.000000 
#    z 0.000000 0.000000 1.536540 
# 
# From -- ./inp_files/4400.got.cif
#   From: 2010.05.17/outbox.cif.g08.bks.cpg/sg187_3_cif.got.tgz:4400.got - 2010.05.20 12:09:04.
