data_PCOD9585614
_publ_section_title
;
Structure prediction by ZEFSAII (Michael W. Deem and Ramdas Pophale) SiO2 
 PCOD9585614
Probable space group: P -6 M 2
;
_chemical_formula_sum "Si O2"
_cell_formula_units_Z 60
_cell_length_a 12.813936
_cell_length_b 12.813936
_cell_length_c 26.175843
_cell_angle_alpha 90.000000
_cell_angle_beta 90.000000
_cell_angle_gamma 120.000000
_cell_volume 3722.171761
_symmetry_space_group_name_H-M "P -6 M 2"
_symmetry_group_IT_number 187
_symmetry_cell_setting 'hexagonal'
loop_
_space_group_symop_operation_xyz
x,y,z
-x+y,-x,-z
-y,x-y,z
x,y,-z
-x+y,-x,z
-y,x-y,-z
-y,-x,-z
-x+y,y,-z
x,x-y,-z
-x+y,y,z
x,x-y,z
-y,-x,z
loop_
_atom_site_type_symbol
_atom_site_label
_atom_site_fract_x
_atom_site_fract_y
_atom_site_fract_z
Si Si1 0.085880 0.418021 0.500000
Si Si2 0.581488 0.666953 0.194874
Si Si3 0.084871 0.667234 0.000000
Si Si4 0.248110 0.999433 0.097721
Si Si5 0.420207 0.086557 0.710274
Si Si6 0.913968 0.580743 0.406497
O O1 0.211944 0.423887 0.500000
O O2 0.103082 0.551541 0.500000
O O3 0.009919 0.352476 0.550511
O O4 0.559748 0.779874 0.197340
O O5 0.456198 0.543803 0.185658
O O6 0.675025 0.693375 0.149035
O O7 0.636927 0.651434 0.247581
O O8 0.022916 0.687001 0.950294
O O9 0.223887 0.776113 0.000000
O O10 0.078582 0.539291 0.000000
O O11 0.255443 0.127722 0.095645
O O12 0.109142 0.890859 0.096381
O O13 0.559246 0.118491 0.713838
O O14 0.411477 0.205739 0.719279
O O15 0.380566 0.044736 0.651932
O O16 0.790883 0.581766 0.414172
O O17 0.889373 0.444687 0.411739
#
# Coordination Sequence:
#
# PCOD9585614 Si02
#       6
#     6  12   6  12  12  12
#     4  10  20  32  46  66  94 128 162 194 232 280
#     4  10  20  33  50  72  99 131 165 201 239 282
#     4  10  20  34  54  78 104 134 166 200 238 284
#     4  10  20  34  53  75  99 128 163 204 246 287
#     4   9  17  30  49  73  99 125 154 191 238 289
#     4   9  17  30  50  74  96 119 151 195 243 286
#
# _framework density 16.119622
#
# number of rings (size 3 to 8) (size 9 to 14) (size 15 to 20)
#    0.000    2.400    0.000    2.800    0.000    2.400 
#    0.000    4.000    0.000   11.200    0.000    0.000 
#    0.000    0.000    0.000    0.000    0.000    0.000 
#
# Total GULP energy -334640.395836 kJ/mol
# GULP energy per Si atom -5577.339931 kJ/mol
# Density = 1.608293 g / cm^3
# Si number density = 16.119622 Si / 1000 Ang^3
#
#
#
# Elastic Constant Matrix: (Units=GPa)
#
#
# Indices 1 2 3 4 5 6 
#
# 1 107.8964 68.0186 78.8251 0.0000 0.0001 0.0000
# 2 68.0186 107.8964 78.8251 0.0000 -0.0001 0.0000
# 3 78.8251 78.8251 135.8703 0.0000 0.0000 0.0000
# 4 0.0000 0.0000 0.0000 22.9007 0.0000 -0.0001
# 5 0.0001 -0.0001 0.0000 0.0000 22.9007 0.0000
# 6 0.0000 0.0000 0.0000 -0.0001 0.0000 19.9389
#
#
#
# Elastic Compliance Matrix: (Units=1/GPa)
#
#
# Indices 1 2 3 4 5 6 
#
# 1 0.018459 -0.006618 -0.006869 0.000000 0.000000 0.000000
# 2 -0.006618 0.018459 -0.006869 0.000000 0.000000 0.000000
# 3 -0.006869 -0.006869 0.015330 0.000000 0.000000 0.000000
# 4 0.000000 0.000000 0.000000 0.043667 0.000000 0.000000
# 5 0.000000 0.000000 0.000000 0.000000 0.043667 0.000000
# 6 0.000000 0.000000 0.000000 0.000000 0.000000 0.050153
#
#
# Mechanical properties :
#
#
# Convention : Reuss Voigt Hill
#
# Bulk Modulus (GPa) = 86.69724 89.22228 87.95976
# Shear Modulus (GPa) = 21.34081 21.54768 21.44425
#
# Velocity S-wave (km/s) = 3.64249 3.66011 3.65131
# Velocity P-wave (km/s) = 8.46113 8.56342 8.51243
#
# Compressibility (1/GPa) = 0.01153439
#
# Stress axis : x y z
#
# Youngs Moduli (GPa) = 54.17507 54.17507 65.22946
#
# Poissons Ratio (x) = 0.35853 0.44809
# Poissons Ratio (y) = 0.35853 0.44809
# Poissons Ratio (z) = 0.37215 0.37215
#
# Static dielectric constant tensor:
#      x y z
#    x 1.507120 0.000000 0.000000 
#    y 0.000000 1.507120 0.000000 
#    z 0.000000 0.000000 1.547530 
# 
# From -- ./inp_files/4154.got.cif
#   From: 2010.05.17/outbox.cif.g08.bks.cpg/sg187_3_cif.got.tgz:4154.got - 2010.05.20 12:09:04.
