data_PCOD9585146
_publ_section_title
;
Structure prediction by ZEFSAII (Michael W. Deem and Ramdas Pophale) SiO2 
 PCOD9585146
Probable space group: P 6 C C
;
_chemical_formula_sum "Si O2"
_cell_formula_units_Z 72
_cell_length_a 21.772518
_cell_length_b 21.772518
_cell_length_c 9.114120
_cell_angle_alpha 90.000000
_cell_angle_beta 90.000000
_cell_angle_gamma 120.000000
_cell_volume 3741.645952
_symmetry_space_group_name_H-M "P 6 C C"
_symmetry_group_IT_number 184
_symmetry_cell_setting 'hexagonal'
loop_
_space_group_symop_operation_xyz
x,y,z
x-y,x,z
-y,x-y,z
-x,-y,z
-x+y,-x,z
y,-x+y,z
-x+y,y,1/2+z
x,x-y,1/2+z
-y,-x,1/2+z
y,x,1/2+z
x-y,-y,1/2+z
-x,-x+y,1/2+z
loop_
_atom_site_type_symbol
_atom_site_label
_atom_site_fract_x
_atom_site_fract_y
_atom_site_fract_z
Si Si1 0.901837 0.270262 0.183660
Si Si2 0.947289 0.834954 0.922829
Si Si3 0.933801 0.401878 0.792255
Si Si4 0.288674 0.322466 0.870061
Si Si5 0.505464 0.592112 0.635462
Si Si6 0.261934 0.148972 0.192715
O O1 0.871059 0.323734 0.168705
O O2 0.851146 0.186388 0.174549
O O3 0.952114 0.289815 0.325431
O O4 0.953628 0.288185 0.042761
O O5 0.896049 0.868239 0.938339
O O6 0.926283 0.773457 0.042658
O O7 0.925417 0.795483 0.766378
O O8 0.921975 0.323030 0.797110
O O9 0.888012 0.427298 0.698031
O O10 0.012568 0.446010 0.722267
O O11 0.929154 0.419498 0.962490
O O12 0.210831 0.275477 0.805400
#
# Coordination Sequence:
#
# PCOD9585146 Si02
#       6
#    12  12  12  12  12  12
#     4  10  21  35  52  74 103 137 173 216 266 328
#     4  12  25  42  60  76  98 132 186 250 312 372
#     4   9  16  28  46  72 102 131 161 189 228 285
#     4  10  21  35  52  74 103 137 173 216 266 328
#     4   9  16  28  46  72 102 131 161 189 228 285
#     4  12  24  38  55  78 104 136 180 230 296 354
#
# _framework density 19.242868000000001
#
# number of rings (size 3 to 8) (size 9 to 14) (size 15 to 20)
#    0.000    1.667    1.667    5.167    2.333    1.333 
#    0.000    1.667    0.000    0.000    0.000    0.000 
#    1.667    0.000    0.000    0.000    0.000    0.000 
#
# Total GULP energy -401555.935097 kJ/mol
# GULP energy per Si atom -5577.165765 kJ/mol
# Density = 1.919907 g / cm^3
# Si number density = 19.242868 Si / 1000 Ang^3
#
#
#
# Elastic Constant Matrix: (Units=GPa)
#
#
# Indices 1 2 3 4 5 6 
#
# 1 72.4985 7.4221 -0.0222 0.0000 0.0000 0.0000
# 2 7.4221 72.4985 -0.0222 0.0000 0.0000 0.0000
# 3 -0.0222 -0.0222 71.2846 0.0000 0.0000 0.0000
# 4 0.0000 0.0000 0.0000 22.3912 0.0000 0.0000
# 5 0.0000 0.0000 0.0000 0.0000 22.3912 0.0000
# 6 0.0000 0.0000 0.0000 0.0000 0.0000 32.5382
#
#
#
# Elastic Compliance Matrix: (Units=1/GPa)
#
#
# Indices 1 2 3 4 5 6 
#
# 1 0.013939 -0.001427 0.000004 0.000000 0.000000 0.000000
# 2 -0.001427 0.013939 0.000004 0.000000 0.000000 0.000000
# 3 0.000004 0.000004 0.014028 0.000000 0.000000 0.000000
# 4 0.000000 0.000000 0.000000 0.044660 0.000000 0.000000
# 5 0.000000 0.000000 0.000000 0.000000 0.044660 0.000000
# 6 0.000000 0.000000 0.000000 0.000000 0.000000 0.030733
#
#
# Mechanical properties :
#
#
# Convention : Reuss Voigt Hill
#
# Bulk Modulus (GPa) = 25.59594 25.67078 25.63336
# Shear Modulus (GPa) = 28.11791 29.39106 28.75448
#
# Velocity S-wave (km/s) = 3.82673 3.91240 3.86980
# Velocity P-wave (km/s) = 5.73197 5.81193 5.77209
#
# Compressibility (1/GPa) = 0.03906870
#
# Stress axis : x y z
#
# Youngs Moduli (GPa) = 71.73867 71.73867 71.28462
#
# Poissons Ratio (x) = 0.10238 -0.00028
# Poissons Ratio (y) = 0.10238 -0.00028
# Poissons Ratio (z) = -0.00028 -0.00028
#
# Static dielectric constant tensor:
#      x y z
#    x 1.725220 0.000000 0.000000 
#    y 0.000000 1.725220 0.000000 
#    z 0.000000 0.000000 1.686610 
# 
# From -- ./inp_files/352.got.cif
#   From: 2010.05.17/outbox.cif.g08.bks.cpg/sg184_cif.got.tgz:352.got - 2010.05.20 12:04:40.
