data_PCOD9585450
_publ_section_title
;
Structure prediction by ZEFSAII (Michael W. Deem and Ramdas Pophale) SiO2 
 PCOD9585450
Probable space group: P -6 M 2
;
_chemical_formula_sum "Si O2"
_cell_formula_units_Z 66
_cell_length_a 20.834031
_cell_length_b 20.834031
_cell_length_c 11.488878
_cell_angle_alpha 90.000000
_cell_angle_beta 90.000000
_cell_angle_gamma 120.000000
_cell_volume 4318.718146
_symmetry_space_group_name_H-M "P -6 M 2"
_symmetry_group_IT_number 187
_symmetry_cell_setting 'hexagonal'
loop_
_space_group_symop_operation_xyz
x,y,z
-x+y,-x,-z
-y,x-y,z
x,y,-z
-x+y,-x,z
-y,x-y,-z
-y,-x,-z
-x+y,y,-z
x,x-y,-z
-x+y,y,z
x,x-y,z
-y,-x,z
loop_
_atom_site_type_symbol
_atom_site_label
_atom_site_fract_x
_atom_site_fract_y
_atom_site_fract_z
Si Si1 0.523152 0.898703 0.358984
Si Si2 0.583791 0.791896 0.357980
Si Si3 0.811771 0.478154 0.641280
Si Si4 0.678238 0.632986 0.359698
Si Si5 0.121271 0.878730 0.361668
Si Si6 0.998546 0.150837 0.000000
Si Si7 0.964846 0.187153 0.749200
O O1 0.518105 0.894672 0.500000
O O2 0.447056 0.894111 0.317042
O O3 0.541097 0.835010 0.320560
O O4 0.597170 0.976254 0.332407
O O5 0.585142 0.792571 0.500000
O O6 0.670657 0.835329 0.320843
O O7 0.808860 0.474324 0.500000
O O8 0.734423 0.468845 0.682157
O O9 0.823247 0.411624 0.683067
O O10 0.879745 0.558069 0.668820
O O11 0.690150 0.647526 0.500000
O O12 0.743327 0.700099 0.289929
O O13 0.123009 0.876992 0.500000
O O14 0.037271 0.837862 0.318698
O O15 0.983238 0.184754 0.884769
O O16 0.936567 0.063434 0.000000
O O17 0.080469 0.160938 0.000000
O O18 0.889668 0.110332 0.721997
#
# Coordination Sequence:
#
# PCOD9585450 Si02
#       7
#    12   6  12  12   6   6  12
#     4   9  16  26  41  62  90 126 164 196 233 289
#     4   9  16  28  43  63  95 131 162 195 235 285
#     4   9  16  25  38  60  93 131 166 197 233 283
#     4  10  18  29  46  69  98 127 156 194 244 297
#     4  11  20  33  51  73 103 132 157 191 243 297
#     4  10  21  38  56  70  87 120 164 208 246 282
#     4  11  22  35  52  71  94 125 164 203 240 284
#
# _framework density 15.282313
#
# number of rings (size 3 to 8) (size 9 to 14) (size 15 to 20)
#    0.000    2.182    2.727    1.909    0.000    5.091 
#    1.091    0.000    0.000    0.000    0.000    2.545 
#    0.000    0.000    0.000    1.818    0.000    0.727 
#
# Total GULP energy -367698.444871 kJ/mol
# GULP energy per Si atom -5571.188559 kJ/mol
# Density = 1.524753 g / cm^3
# Si number density = 15.282313 Si / 1000 Ang^3
#
#
#
# Elastic Constant Matrix: (Units=GPa)
#
#
# Indices 1 2 3 4 5 6 
#
# 1 129.0800 77.6774 37.1096 0.0000 -0.0001 0.0000
# 2 77.6774 129.0800 37.1096 0.0000 0.0001 0.0000
# 3 37.1096 37.1096 38.5166 0.0000 0.0000 0.0000
# 4 0.0000 0.0000 0.0000 6.9175 0.0000 0.0001
# 5 -0.0001 0.0001 0.0000 0.0000 6.9175 0.0000
# 6 0.0000 0.0000 0.0000 0.0001 0.0000 25.7013
#
#
#
# Elastic Compliance Matrix: (Units=1/GPa)
#
#
# Indices 1 2 3 4 5 6 
#
# 1 0.013424 -0.006030 -0.007124 0.000000 0.000000 0.000000
# 2 -0.006030 0.013424 -0.007124 0.000000 0.000000 0.000000
# 3 -0.007124 -0.007124 0.039690 0.000000 0.000000 0.000000
# 4 0.000000 0.000000 0.000000 0.144562 0.000000 -0.000001
# 5 0.000000 0.000000 0.000000 0.000000 0.144562 0.000000
# 6 0.000000 0.000000 0.000000 -0.000001 0.000000 0.038909
#
#
# Mechanical properties :
#
#
# Convention : Reuss Voigt Hill
#
# Bulk Modulus (GPa) = 38.48733 66.71887 52.60310
# Shear Modulus (GPa) = 11.26670 17.55925 14.41297
#
# Velocity S-wave (km/s) = 2.71816 3.39336 3.07435
# Velocity P-wave (km/s) = 5.92369 7.68801 6.86278
#
# Compressibility (1/GPa) = 0.02598258
#
# Stress axis : x y z
#
# Youngs Moduli (GPa) = 74.49343 74.49343 25.19545
#
# Poissons Ratio (x) = 0.44921 0.17948
# Poissons Ratio (y) = 0.44921 0.17948
# Poissons Ratio (z) = 0.53067 0.53067
#
# Static dielectric constant tensor:
#      x y z
#    x 1.515720 0.000000 0.000000 
#    y 0.000000 1.515720 0.000000 
#    z 0.000000 0.000000 1.484530 
# 
# From -- ./inp_files/812.got.cif
#   From: 2010.05.17/outbox.cif.g08.bks.cpg/sg187_1_cif.got.tgz:812.got - 2010.05.20 12:09:04.
