data_PCOD9585257
_publ_section_title
;
Structure prediction by ZEFSAII (Michael W. Deem and Ramdas Pophale) SiO2 
 PCOD9585257
Probable space group: P 63 C M
;
_chemical_formula_sum "Si O2"
_cell_formula_units_Z 84
_cell_length_a 14.907164
_cell_length_b 14.907164
_cell_length_c 24.349129
_cell_angle_alpha 90.000000
_cell_angle_beta 90.000000
_cell_angle_gamma 120.000000
_cell_volume 4686.019818
_symmetry_space_group_name_H-M "P 63 C M"
_symmetry_group_IT_number 185
_symmetry_cell_setting 'hexagonal'
loop_
_space_group_symop_operation_xyz
x,y,z
x-y,x,1/2+z
-y,x-y,z
-x,-y,1/2+z
-x+y,-x,z
y,-x+y,1/2+z
-x+y,y,1/2+z
x,x-y,1/2+z
-y,-x,1/2+z
y,x,z
x-y,-y,z
-x,-x+y,z
loop_
_atom_site_type_symbol
_atom_site_label
_atom_site_fract_x
_atom_site_fract_y
_atom_site_fract_z
Si Si1 0.540936 0.820624 0.151190
Si Si2 0.427100 0.304502 0.373652
Si Si3 0.656542 0.445153 0.766073
Si Si4 0.878823 0.755208 0.819378
Si Si5 0.607494 0.118734 0.600475
Si Si6 0.215704 0.666620 0.485236
Si Si7 0.239722 0.119611 0.690239
O O1 0.504397 0.839996 0.210320
O O2 0.493575 0.698744 0.138271
O O3 0.491638 0.865784 0.108482
O O4 0.663377 0.865255 0.154492
O O5 0.362520 0.362520 0.379647
O O6 0.500180 0.348743 0.320627
O O7 0.344508 0.186439 0.357289
O O8 0.491701 0.322594 0.428614
O O9 0.566137 0.325672 0.766464
O O10 0.829924 0.829924 0.826122
O O11 0.865565 0.725696 0.754501
O O12 0.000000 0.816078 0.831517
O O13 0.652611 0.147980 0.538809
O O14 0.571365 0.000000 0.613905
O O15 0.237005 0.570101 0.487326
O O16 0.194617 0.194617 0.675695
O O17 0.150148 0.000000 0.686982
#
# Coordination Sequence:
#
# PCOD9585257 Si02
#       7
#    12  12  12  12  12  12  12
#     4  12  20  38  56  88 122 156 194 244 281 352
#     4  11  21  35  57  86 112 144 193 243 290 344
#     4  10  20  36  55  75 116 161 184 220 288 349
#     4   9  18  32  52  78 113 152 189 232 285 346
#     4  12  23  38  63  89 115 157 201 243 297 344
#     4  10  21  42  64  76 111 151 190 239 296 344
#     4  10  20  35  55  82 119 159 198 239 287 345
#
# _framework density 17.925660000000001
#
# number of rings (size 3 to 8) (size 9 to 14) (size 15 to 20)
#    0.571    0.857    4.286    2.714    0.000    1.714 
#    0.000    3.571    0.000    0.000    0.000    0.000 
#    0.000    2.286    0.000    0.000    0.000    0.000 
#
# Total GULP energy -468223.136869 kJ/mol
# GULP energy per Si atom -5574.084963 kJ/mol
# Density = 1.788486 g / cm^3
# Si number density = 17.925660 Si / 1000 Ang^3
#
#
#
# Elastic Constant Matrix: (Units=GPa)
#
#
# Indices 1 2 3 4 5 6 
#
# 1 51.0158 1.1661 12.5347 0.0000 0.0000 0.0000
# 2 1.1661 51.0158 12.5347 0.0000 0.0000 0.0000
# 3 12.5347 12.5347 86.3681 0.0000 0.0000 0.0000
# 4 0.0000 0.0000 0.0000 19.2051 0.0000 0.0000
# 5 0.0000 0.0000 0.0000 0.0000 19.2051 0.0000
# 6 0.0000 0.0000 0.0000 0.0000 0.0000 24.9249
#
#
#
# Elastic Compliance Matrix: (Units=1/GPa)
#
#
# Indices 1 2 3 4 5 6 
#
# 1 0.020330 0.000270 -0.002990 0.000000 0.000000 0.000000
# 2 0.000270 0.020330 -0.002990 0.000000 0.000000 0.000000
# 3 -0.002990 -0.002990 0.012446 0.000000 0.000000 0.000000
# 4 0.000000 0.000000 0.000000 0.052070 0.000000 0.000000
# 5 0.000000 0.000000 0.000000 0.000000 0.052070 0.000000
# 6 0.000000 0.000000 0.000000 0.000000 0.000000 0.040121
#
#
# Mechanical properties :
#
#
# Convention : Reuss Voigt Hill
#
# Bulk Modulus (GPa) = 23.98808 26.76344 25.37576
# Shear Modulus (GPa) = 22.45363 23.47794 22.96578
#
# Velocity S-wave (km/s) = 3.54304 3.62296 3.58322
# Velocity P-wave (km/s) = 5.49077 5.69770 5.59519
#
# Compressibility (1/GPa) = 0.04168737
#
# Stress axis : x y z
#
# Youngs Moduli (GPa) = 49.18799 49.18799 80.34606
#
# Poissons Ratio (x) = -0.01327 0.24021
# Poissons Ratio (y) = -0.01327 0.24021
# Poissons Ratio (z) = 0.14706 0.14706
#
# Static dielectric constant tensor:
#      x y z
#    x 1.621910 0.000000 0.000000 
#    y 0.000000 1.621910 0.000000 
#    z 0.000000 0.000000 1.603260 
# 
# From -- ./inp_files/2088.got.cif
#   From: 2010.05.17/outbox.cif.g08.bks.cpg/sg185_cif.got.tgz:2088.got - 2010.05.20 12:05:34.
