data_PCOD9585870
_publ_section_title
;
Structure prediction by ZEFSAII (Michael W. Deem and Ramdas Pophale) SiO2 
 PCOD9585870
Probable space group: P -6 C 2
;
_chemical_formula_sum "Si O2"
_cell_formula_units_Z 46
_cell_length_a 15.835606
_cell_length_b 15.835606
_cell_length_c 14.417700
_cell_angle_alpha 90.000000
_cell_angle_beta 90.000000
_cell_angle_gamma 120.000000
_cell_volume 3131.093176
_symmetry_space_group_name_H-M "P -6 C 2"
_symmetry_group_IT_number 188
_symmetry_cell_setting 'hexagonal'
loop_
_space_group_symop_operation_xyz
x,y,z
-x+y,-x,1/2-z
-y,x-y,z
x,y,1/2-z
-x+y,-x,z
-y,x-y,1/2-z
-y,-x,-z
-x+y,y,-z
x,x-y,-z
-x+y,y,1/2+z
x,x-y,1/2+z
-y,-x,1/2+z
loop_
_atom_site_type_symbol
_atom_site_label
_atom_site_fract_x
_atom_site_fract_y
_atom_site_fract_z
Si Si1 0.153443 0.668473 0.454513
Si Si2 0.666668 0.333335 0.387889
Si Si3 0.330030 0.553888 0.250000
Si Si4 0.926921 0.565127 0.491745
Si Si5 0.790514 0.232852 0.145423
O O1 0.228826 0.771175 0.500000
O O2 0.175154 0.587577 0.500000
O O3 0.171989 0.670626 0.344495
O O4 0.041373 0.633010 0.475749
O O5 0.666668 0.333334 0.500000
O O6 0.559278 0.258736 0.354186
O O7 0.240802 0.576746 0.250000
O O8 0.908316 0.454158 0.500000
O O9 0.863049 0.573448 0.408905
O O10 0.886446 0.591710 0.583242
O O11 0.808632 0.213366 0.250000
#
# Coordination Sequence:
#
# PCOD9585870 Si02
#       5
#    12   4   6  12  12
#     4  11  20  36  51  71 101 131 163 209 246 291
#     4  12  16  29  46  61  98 133 163 191 235 274
#     4  10  18  32  54  72  88 136 172 200 254 292
#     4  10  21  32  46  71  99 129 170 203 236 290
#     4  11  19  32  47  69  97 134 166 199 237 283
#
# _framework density 14.691354
#
# number of rings (size 3 to 8) (size 9 to 14) (size 15 to 20)
#    0.261    1.043    7.826    1.043    1.826    0.000 
#    9.391    0.000    0.000    0.000    0.000    0.000 
#   10.435    0.000    0.000    0.000    0.000    0.000 
#
# Total GULP energy -256470.316574 kJ/mol
# GULP energy per Si atom -5575.441665 kJ/mol
# Density = 1.465792 g / cm^3
# Si number density = 14.691354 Si / 1000 Ang^3
#
#
#
# Elastic Constant Matrix: (Units=GPa)
#
#
# Indices 1 2 3 4 5 6 
#
# 1 88.7769 46.8965 51.7554 -0.0001 0.0000 0.0000
# 2 46.8965 88.7768 51.7557 0.0000 0.0000 0.0000
# 3 51.7554 51.7557 161.3010 0.0000 0.0000 0.0001
# 4 -0.0001 0.0000 0.0000 10.8243 0.0000 0.0000
# 5 0.0000 0.0000 0.0000 0.0000 10.8243 -0.0001
# 6 0.0000 0.0000 0.0001 0.0000 -0.0001 20.9402
#
#
#
# Elastic Compliance Matrix: (Units=1/GPa)
#
#
# Indices 1 2 3 4 5 6 
#
# 1 0.016819 -0.007059 -0.003132 0.000000 0.000000 0.000000
# 2 -0.007059 0.016819 -0.003132 0.000000 0.000000 0.000000
# 3 -0.003132 -0.003132 0.008209 0.000000 0.000000 0.000000
# 4 0.000000 0.000000 0.000000 0.092385 0.000000 0.000000
# 5 0.000000 0.000000 0.000000 0.000000 0.092384 0.000000
# 6 0.000000 0.000000 0.000000 0.000000 0.000000 0.047755
#
#
# Mechanical properties :
#
#
# Convention : Reuss Voigt Hill
#
# Bulk Modulus (GPa) = 65.77817 71.07443 68.42630
# Shear Modulus (GPa) = 16.33548 21.08090 18.70819
#
# Velocity S-wave (km/s) = 3.33815 3.79214 3.57237
# Velocity P-wave (km/s) = 7.72841 8.22540 7.98077
#
# Compressibility (1/GPa) = 0.01520261
#
# Stress axis : x y z
#
# Youngs Moduli (GPa) = 59.45773 59.45755 121.81439
#
# Poissons Ratio (x) = 0.41970 0.38147
# Poissons Ratio (y) = 0.41970 0.38148
# Poissons Ratio (z) = 0.18620 0.18620
#
# Static dielectric constant tensor:
#      x y z
#    x 1.468690 0.000000 0.000000 
#    y 0.000000 1.468690 0.000000 
#    z 0.000000 0.000000 1.505660 
# 
# From -- ./inp_files/1567.got.cif
#   From: 2010.05.17/outbox.cif.g08.bks.cpg/sg188_1_cif.got.tgz:1567.got - 2010.05.20 12:11:46.
