data_PCOD9585983
_publ_section_title
;
Structure prediction by ZEFSAII (Michael W. Deem and Ramdas Pophale) SiO2 
 PCOD9585983
Probable space group: P -6 C 2
;
_chemical_formula_sum "Si O2"
_cell_formula_units_Z 46
_cell_length_a 13.467728
_cell_length_b 13.467728
_cell_length_c 13.903996
_cell_angle_alpha 90.000000
_cell_angle_beta 90.000000
_cell_angle_gamma 120.000000
_cell_volume 2184.031707
_symmetry_space_group_name_H-M "P -6 C 2"
_symmetry_group_IT_number 188
_symmetry_cell_setting 'hexagonal'
loop_
_space_group_symop_operation_xyz
x,y,z
-x+y,-x,1/2-z
-y,x-y,z
x,y,1/2-z
-x+y,-x,z
-y,x-y,1/2-z
-y,-x,-z
-x+y,y,-z
x,x-y,-z
-x+y,y,1/2+z
x,x-y,1/2+z
-y,-x,1/2+z
loop_
_atom_site_type_symbol
_atom_site_label
_atom_site_fract_x
_atom_site_fract_y
_atom_site_fract_z
Si Si1 0.755339 0.157363 0.859300
Si Si2 0.666668 0.333335 0.613857
Si Si3 0.065771 0.468567 0.135405
Si Si4 0.211224 0.422448 0.000000
Si Si5 0.663413 0.993784 0.365063
O O1 0.772953 0.131998 0.750000
O O2 0.701034 0.240423 0.855565
O O3 0.882419 0.235886 0.899847
O O4 0.656577 0.036143 0.897344
O O5 0.666668 0.333334 0.500000
O O6 0.089330 0.468155 0.250000
O O7 0.172400 0.493646 0.068587
O O8 0.018844 0.556588 0.122634
O O9 0.235092 0.345379 0.074255
O O10 0.676196 0.983189 0.250000
#
# Coordination Sequence:
#
# PCOD9585983 Si02
#       5
#    12   4  12   6  12
#     4  10  20  38  64  95 131 161 187 237 313 387
#     4  12  22  26  58 105 145 155 178 219 307 410
#     4  10  22  40  64  92 122 161 205 251 310 372
#     4  12  24  38  56  76 124 168 212 250 290 338
#     4  10  22  40  64  92 122 161 205 251 310 372
#
# _framework density 21.061965000000001
#
# number of rings (size 3 to 8) (size 9 to 14) (size 15 to 20)
#    0.000    1.565    2.609    2.348    3.652    0.000 
#    6.261    0.000    0.000    4.174    0.000    7.304 
#    0.000    0.000    0.000    0.000    0.000    0.000 
#
# Total GULP energy -256928.046104 kJ/mol
# GULP energy per Si atom -5585.392307 kJ/mol
# Density = 2.101403 g / cm^3
# Si number density = 21.061965 Si / 1000 Ang^3
#
#
#
# Elastic Constant Matrix: (Units=GPa)
#
#
# Indices 1 2 3 4 5 6 
#
# 1 88.6438 33.8358 45.3942 -0.0001 0.0000 0.0000
# 2 33.8358 88.6443 45.3944 0.0001 0.0000 0.0001
# 3 45.3942 45.3944 116.4985 0.0000 0.0001 0.0000
# 4 -0.0001 0.0001 0.0000 37.5428 0.0001 0.0000
# 5 0.0000 0.0000 0.0001 0.0001 37.5426 -0.0001
# 6 0.0000 0.0001 0.0000 0.0000 -0.0001 27.4042
#
#
#
# Elastic Compliance Matrix: (Units=1/GPa)
#
#
# Indices 1 2 3 4 5 6 
#
# 1 0.014863 -0.003382 -0.004473 0.000000 0.000000 0.000000
# 2 -0.003382 0.014863 -0.004473 0.000000 0.000000 0.000000
# 3 -0.004473 -0.004473 0.012070 0.000000 0.000000 0.000000
# 4 0.000000 0.000000 0.000000 0.026636 0.000000 0.000000
# 5 0.000000 0.000000 0.000000 0.000000 0.026636 0.000000
# 6 0.000000 0.000000 0.000000 0.000000 0.000000 0.036491
#
#
# Mechanical properties :
#
#
# Convention : Reuss Voigt Hill
#
# Bulk Modulus (GPa) = 58.35224 60.33727 59.34475
# Shear Modulus (GPa) = 30.87740 31.77538 31.32639
#
# Velocity S-wave (km/s) = 3.83303 3.88836 3.86079
# Velocity P-wave (km/s) = 6.88147 6.99063 6.93626
#
# Compressibility (1/GPa) = 0.01713730
#
# Stress axis : x y z
#
# Youngs Moduli (GPa) = 67.28097 67.28132 82.84983
#
# Poissons Ratio (x) = 0.22757 0.37063
# Poissons Ratio (y) = 0.22757 0.37063
# Poissons Ratio (z) = 0.30098 0.30098
#
# Static dielectric constant tensor:
#      x y z
#    x 1.752900 0.000000 0.000000 
#    y 0.000000 1.752900 0.000000 
#    z 0.000000 0.000000 1.821270 
# 
# From -- ./inp_files/2117.got.cif
#   From: 2010.05.17/outbox.cif.g08.bks.cpg/sg188_2_cif.got.tgz:2117.got - 2010.05.20 12:11:46.
