data_PCOD9585570
_publ_section_title
;
Structure prediction by ZEFSAII (Michael W. Deem and Ramdas Pophale) SiO2 
 PCOD9585570
Probable space group: P -6 M 2
;
_chemical_formula_sum "Si O2"
_cell_formula_units_Z 72
_cell_length_a 24.764887
_cell_length_b 24.764887
_cell_length_c 7.568744
_cell_angle_alpha 90.000000
_cell_angle_beta 90.000000
_cell_angle_gamma 120.000000
_cell_volume 4020.010147
_symmetry_space_group_name_H-M "P -6 M 2"
_symmetry_group_IT_number 187
_symmetry_cell_setting 'hexagonal'
loop_
_space_group_symop_operation_xyz
x,y,z
-x+y,-x,-z
-y,x-y,z
x,y,-z
-x+y,-x,z
-y,x-y,-z
-y,-x,-z
-x+y,y,-z
x,x-y,-z
-x+y,y,z
x,x-y,z
-y,-x,z
loop_
_atom_site_type_symbol
_atom_site_label
_atom_site_fract_x
_atom_site_fract_y
_atom_site_fract_z
Si Si1 0.143129 0.406683 0.787931
Si Si2 0.597765 0.074557 0.792949
Si Si3 0.735900 0.929030 0.784218
Si Si4 0.066778 0.593803 0.290973
Si Si5 0.404616 0.141479 0.784063
Si Si6 0.260587 0.190906 0.784446
O O1 0.212110 0.424219 0.724379
O O2 0.095989 0.335660 0.728211
O O3 0.117371 0.452434 0.743597
O O4 0.144228 0.404161 0.000000
O O5 0.540845 0.081689 0.716669
O O6 0.666938 0.115849 0.718371
O O7 0.575863 0.001336 0.782884
O O8 0.602012 0.090332 0.000000
O O9 0.752262 0.876131 0.730265
O O10 0.781838 0.999097 0.723746
O O11 0.736173 0.929867 0.000000
O O12 0.058673 0.586657 0.500000
O O13 0.083029 0.541515 0.225265
O O14 0.422353 0.211177 0.730758
O O15 0.332589 0.096127 0.732294
O O16 0.405114 0.140585 0.000000
O O17 0.242737 0.121369 0.728217
O O18 0.259640 0.190589 0.000000
#
# Coordination Sequence:
#
# PCOD9585570 Si02
#       6
#    12  12  12  12  12  12
#     4   9  17  29  46  66  84 105 137 175 211 246
#     4   9  16  26  42  62  82 107 140 176 211 248
#     4   8  13  21  34  53  76  99 125 162 203 236
#     4  10  20  31  43  62  88 115 139 165 204 254
#     4   8  13  21  35  56  79 101 129 167 205 241
#     4   8  12  17  27  45  69  97 126 154 186 225
#
# _framework density 17.910402999999999
#
# number of rings (size 3 to 8) (size 9 to 14) (size 15 to 20)
#    0.000    3.333    0.000    3.500    0.000    4.000 
#    0.000    0.000    0.000    1.500    0.000    4.667 
#    0.000    0.000    0.000    0.000    0.000    0.000 
#
# Total GULP energy -401158.796326 kJ/mol
# GULP energy per Si atom -5571.649949 kJ/mol
# Density = 1.786964 g / cm^3
# Si number density = 17.910403 Si / 1000 Ang^3
#
#
#
# Elastic Constant Matrix: (Units=GPa)
#
#
# Indices 1 2 3 4 5 6 
#
# 1 149.5572 98.1249 2.7939 0.0000 -0.0003 0.0000
# 2 98.1249 149.5572 2.7939 0.0000 0.0003 0.0000
# 3 2.7939 2.7939 39.6719 0.0000 0.0000 0.0000
# 4 0.0000 0.0000 0.0000 -171.7651 0.0000 0.0003
# 5 -0.0003 0.0003 0.0000 0.0000 -171.7651 0.0000
# 6 0.0000 0.0000 0.0000 0.0003 0.0000 25.7161
#
#
#
# Elastic Compliance Matrix: (Units=1/GPa)
#
#
# Indices 1 2 3 4 5 6 
#
# 1 0.011743 -0.007700 -0.000285 0.000000 0.000000 0.000000
# 2 -0.007700 0.011743 -0.000285 0.000000 0.000000 0.000000
# 3 -0.000285 -0.000285 0.025247 0.000000 0.000000 0.000000
# 4 0.000000 0.000000 0.000000 -0.005822 0.000000 0.000000
# 5 0.000000 0.000000 0.000000 0.000000 -0.005822 0.000000
# 6 0.000000 0.000000 0.000000 0.000000 0.000000 0.038886
#
#
# Mechanical properties :
#
#
# Convention : Reuss Voigt Hill
#
# Bulk Modulus (GPa) = 31.06027 60.69016 45.87522
# Shear Modulus (GPa) = 48.42790 -47.89127 0.26832
#
# Velocity S-wave (km/s) = 5.20554 -5.17662 0.38747
# Velocity P-wave (km/s) = 7.31505 1.33075 5.08621
#
# Compressibility (1/GPa) = 0.03219547
#
# Stress axis : x y z
#
# Youngs Moduli (GPa) = 85.15380 85.15380 39.60884
#
# Poissons Ratio (x) = 0.65565 0.01128
# Poissons Ratio (y) = 0.65565 0.01128
# Poissons Ratio (z) = 0.02425 0.02425
#
# Static dielectric constant tensor:
#      x y z
#    x 1.616740 0.000000 0.000000 
#    y 0.000000 1.616740 0.000000 
#    z 0.000000 0.000000 1.676180 
# 
# From -- ./inp_files/939.got.cif
#   From: 2010.05.17/outbox.cif.g08.bks.cpg/sg187_1_cif.got.tgz:939.got - 2010.05.20 12:09:04.
