data_PCOD9585776
_publ_section_title
;
Structure prediction by ZEFSAII (Michael W. Deem and Ramdas Pophale) SiO2 
 PCOD9585776
Probable space group: P -6 M 2
;
_chemical_formula_sum "Si O2"
_cell_formula_units_Z 90
_cell_length_a 28.346859
_cell_length_b 28.346859
_cell_length_c 8.155558
_cell_angle_alpha 90.000000
_cell_angle_beta 90.000000
_cell_angle_gamma 120.000000
_cell_volume 5675.370250
_symmetry_space_group_name_H-M "P -6 M 2"
_symmetry_group_IT_number 187
_symmetry_cell_setting 'hexagonal'
loop_
_space_group_symop_operation_xyz
x,y,z
-x+y,-x,-z
-y,x-y,z
x,y,-z
-x+y,-x,z
-y,x-y,-z
-y,-x,-z
-x+y,y,-z
x,x-y,-z
-x+y,y,z
x,x-y,z
-y,-x,z
loop_
_atom_site_type_symbol
_atom_site_label
_atom_site_fract_x
_atom_site_fract_y
_atom_site_fract_z
Si Si1 0.847510 0.326373 0.810266
Si Si2 0.666718 0.446958 0.500000
Si Si3 0.721524 0.809695 0.195602
Si Si4 0.051908 0.643087 0.186995
Si Si5 0.253700 0.405107 0.696479
Si Si6 0.466318 0.424034 0.309430
Si Si7 0.711535 0.004445 0.687358
Si Si8 0.356825 0.231228 0.195823
O O1 0.811976 0.332471 0.665993
O O2 0.909451 0.376176 0.793615
O O3 0.851259 0.272287 0.777921
O O4 0.828833 0.324597 0.000000
O O5 0.611379 0.388622 0.500000
O O6 0.720773 0.441545 0.500000
O O7 0.743655 0.871828 0.251690
O O8 0.657279 0.778056 0.240530
O O9 0.741995 0.771227 0.272367
O O10 0.726957 0.809880 0.000000
O O11 0.113603 0.684807 0.242676
O O12 0.015299 0.588132 0.286065
O O13 0.019471 0.676532 0.203891
O O14 0.052127 0.627976 0.000000
O O15 0.254527 0.404100 0.500000
O O16 0.214586 0.429172 0.747322
O O17 0.470219 0.411762 0.500000
O O18 0.519087 0.480914 0.266892
O O19 0.692360 0.993031 0.500000
O O20 0.746953 0.068228 0.717148
O O21 0.342911 0.171456 0.248357
O O22 0.347879 0.230994 0.000000
#
# Coordination Sequence:
#
# PCOD9585776 Si02
#       8
#    12   6  12  12  12  12  12  12
#     4  11  23  41  62  83 104 129 164 204 249 311
#     4  12  27  46  66  86 106 128 155 198 258 322
#     4   9  16  26  41  60  85 120 158 191 222 257
#     4  11  20  30  45  66  94 125 160 199 239 285
#     4   9  16  26  41  61  87 121 159 195 229 265
#     4  11  22  36  53  74  99 128 163 204 254 308
#     4  11  20  29  44  66  93 122 155 194 235 280
#     4  10  21  36  52  71  95 124 159 200 248 300
#
# _framework density 15.857996
#
# number of rings (size 3 to 8) (size 9 to 14) (size 15 to 20)
#    0.000    1.600    2.000    6.067    0.933    4.533 
#    0.000    0.000    0.000    0.800    0.000    0.000 
#    0.000    0.000    0.000    0.800    0.000   15.467 
#
# Total GULP energy -501840.782464 kJ/mol
# GULP energy per Si atom -5576.008694 kJ/mol
# Density = 1.582190 g / cm^3
# Si number density = 15.857996 Si / 1000 Ang^3
#
#
#
# Elastic Constant Matrix: (Units=GPa)
#
#
# Indices 1 2 3 4 5 6 
#
# 1 48.6516 23.6764 15.9177 0.0000 0.0001 0.0000
# 2 23.6764 48.6516 15.9177 0.0000 -0.0001 0.0000
# 3 15.9177 15.9177 55.6966 0.0000 0.0000 0.0000
# 4 0.0000 0.0000 0.0000 17.8262 0.0000 -0.0001
# 5 0.0001 -0.0001 0.0000 0.0000 17.8262 0.0000
# 6 0.0000 0.0000 0.0000 -0.0001 0.0000 12.4876
#
#
#
# Elastic Compliance Matrix: (Units=1/GPa)
#
#
# Indices 1 2 3 4 5 6 
#
# 1 0.027928 -0.012112 -0.004520 0.000000 0.000000 0.000000
# 2 -0.012112 0.027928 -0.004520 0.000000 0.000000 0.000000
# 3 -0.004520 -0.004520 0.020538 0.000000 0.000000 0.000000
# 4 0.000000 0.000000 0.000000 0.056097 0.000000 0.000000
# 5 0.000000 0.000000 0.000000 0.000000 0.056097 0.000000
# 6 0.000000 0.000000 0.000000 0.000000 0.000000 0.080079
#
#
# Mechanical properties :
#
#
# Convention : Reuss Voigt Hill
#
# Bulk Modulus (GPa) = 29.33497 29.33591 29.33544
# Shear Modulus (GPa) = 15.51185 16.12718 15.81951
#
# Velocity S-wave (km/s) = 3.13097 3.19246 3.16186
# Velocity P-wave (km/s) = 5.62221 5.66819 5.64525
#
# Compressibility (1/GPa) = 0.03408901
#
# Stress axis : x y z
#
# Youngs Moduli (GPa) = 35.80692 35.80692 48.69035
#
# Poissons Ratio (x) = 0.43370 0.22008
# Poissons Ratio (y) = 0.43370 0.22008
# Poissons Ratio (z) = 0.16184 0.16184
#
# Static dielectric constant tensor:
#      x y z
#    x 1.539580 0.000000 0.000000 
#    y 0.000000 1.539580 0.000000 
#    z 0.000000 0.000000 1.537700 
# 
# From -- ./inp_files/1290.got.cif
#   From: 2010.05.17/outbox.cif.g08.bks.cpg/sg187_1_cif.got.tgz:1290.got - 2010.05.20 12:09:04.
