data_PCOD9585689
_publ_section_title
;
Structure prediction by ZEFSAII (Michael W. Deem and Ramdas Pophale) SiO2 
 PCOD9585689
Probable space group: P -6 M 2
;
_chemical_formula_sum "Si O2"
_cell_formula_units_Z 54
_cell_length_a 12.960900
_cell_length_b 12.960900
_cell_length_c 23.658996
_cell_angle_alpha 90.000000
_cell_angle_beta 90.000000
_cell_angle_gamma 120.000000
_cell_volume 3441.892185
_symmetry_space_group_name_H-M "P -6 M 2"
_symmetry_group_IT_number 187
_symmetry_cell_setting 'hexagonal'
loop_
_space_group_symop_operation_xyz
x,y,z
-x+y,-x,-z
-y,x-y,z
x,y,-z
-x+y,-x,z
-y,x-y,-z
-y,-x,-z
-x+y,y,-z
x,x-y,-z
-x+y,y,z
x,x-y,z
-y,-x,z
loop_
_atom_site_type_symbol
_atom_site_label
_atom_site_fract_x
_atom_site_fract_y
_atom_site_fract_z
Si Si1 0.754466 0.754171 0.105752
Si Si2 0.912216 0.579675 0.000000
Si Si3 0.910825 0.332864 0.337260
Si Si4 0.333068 0.912069 0.563114
Si Si5 0.911854 0.333772 0.792049
O O1 0.891718 0.783436 0.104436
O O2 0.688633 0.662170 0.054595
O O3 0.696434 0.682012 0.163388
O O4 0.747788 0.873894 0.100824
O O5 0.774324 0.548648 0.000000
O O6 0.919746 0.459873 0.000000
O O7 0.889140 0.444570 0.342676
O O8 0.788441 0.211560 0.344785
O O9 0.952449 0.336525 0.272665
O O10 0.002755 0.347591 0.385686
O O11 0.338230 0.962491 0.500000
O O12 0.446080 0.892159 0.567318
O O13 0.212616 0.787385 0.567269
O O14 0.916813 0.458407 0.804167
O O15 0.774987 0.225014 0.795770
#
# Coordination Sequence:
#
# PCOD9585689 Si02
#       5
#    12   6  12  12  12
#     4  10  20  33  50  71  96 126 158 192 228 268
#     4  10  20  34  54  78 100 122 152 194 238 276
#     4   9  17  29  46  69  95 121 149 184 230 281
#     4   9  17  29  45  64  86 115 152 192 230 268
#     4   9  17  30  49  71  94 121 153 191 233 275
#
# _framework density 15.689045999999999
#
# number of rings (size 3 to 8) (size 9 to 14) (size 15 to 20)
#    0.000    2.667    0.000    2.000    0.000    4.000 
#    0.000    3.333    0.000    8.000    0.000    0.000 
#    0.000    0.000    0.000    0.000    0.000    0.000 
#
# Total GULP energy -300918.659245 kJ/mol
# GULP energy per Si atom -5572.567764 kJ/mol
# Density = 1.565334 g / cm^3
# Si number density = 15.689046 Si / 1000 Ang^3
#
#
#
# Elastic Constant Matrix: (Units=GPa)
#
#
# Indices 1 2 3 4 5 6 
#
# 1 88.9406 53.4678 72.3339 0.0000 -0.0001 0.0000
# 2 53.4678 88.9406 72.3339 0.0000 0.0001 0.0000
# 3 72.3339 72.3339 137.6300 0.0000 0.0000 0.0000
# 4 0.0000 0.0000 0.0000 22.9397 0.0000 0.0001
# 5 -0.0001 0.0001 0.0000 0.0000 22.9397 0.0000
# 6 0.0000 0.0000 0.0000 0.0001 0.0000 17.7364
#
#
#
# Elastic Compliance Matrix: (Units=1/GPa)
#
#
# Indices 1 2 3 4 5 6 
#
# 1 0.021628 -0.006562 -0.007918 0.000000 0.000000 0.000000
# 2 -0.006562 0.021628 -0.007918 0.000000 0.000000 0.000000
# 3 -0.007918 -0.007918 0.015589 0.000000 0.000000 0.000000
# 4 0.000000 0.000000 0.000000 0.043593 0.000000 0.000000
# 5 0.000000 0.000000 0.000000 0.000000 0.043593 0.000000
# 6 0.000000 0.000000 0.000000 0.000000 0.000000 0.056381
#
#
# Mechanical properties :
#
#
# Convention : Reuss Voigt Hill
#
# Bulk Modulus (GPa) = 71.18428 79.08691 75.13560
# Shear Modulus (GPa) = 19.84982 20.54819 20.19900
#
# Velocity S-wave (km/s) = 3.56083 3.62293 3.59201
# Velocity P-wave (km/s) = 7.89788 8.24738 8.07452
#
# Compressibility (1/GPa) = 0.01404805
#
# Stress axis : x y z
#
# Youngs Moduli (GPa) = 46.23597 46.23597 64.14846
#
# Poissons Ratio (x) = 0.30342 0.50793
# Poissons Ratio (y) = 0.30342 0.50793
# Poissons Ratio (z) = 0.36610 0.36610
#
# Static dielectric constant tensor:
#      x y z
#    x 1.491360 0.000000 0.000000 
#    y 0.000000 1.491360 0.000000 
#    z 0.000000 0.000000 1.550410 
# 
# From -- ./inp_files/3858.got.cif
#   From: 2010.05.17/outbox.cif.g08.bks.cpg/sg187_2_cif.got.tgz:3858.got - 2010.05.20 12:09:04.
