data_PCOD9585717
_publ_section_title
;
Structure prediction by ZEFSAII (Michael W. Deem and Ramdas Pophale) SiO2 
 PCOD9585717
Probable space group: P -6 M 2
;
_chemical_formula_sum "Si O2"
_cell_formula_units_Z 84
_cell_length_a 18.288728
_cell_length_b 18.288728
_cell_length_c 17.671272
_cell_angle_alpha 90.000000
_cell_angle_beta 90.000000
_cell_angle_gamma 120.000000
_cell_volume 5118.767987
_symmetry_space_group_name_H-M "P -6 M 2"
_symmetry_group_IT_number 187
_symmetry_cell_setting 'hexagonal'
loop_
_space_group_symop_operation_xyz
x,y,z
-x+y,-x,-z
-y,x-y,z
x,y,-z
-x+y,-x,z
-y,x-y,-z
-y,-x,-z
-x+y,y,-z
x,x-y,-z
-x+y,y,z
x,x-y,z
-y,-x,z
loop_
_atom_site_type_symbol
_atom_site_label
_atom_site_fract_x
_atom_site_fract_y
_atom_site_fract_z
Si Si1 0.495477 0.333255 0.177829
Si Si2 0.164583 0.666995 0.092051
Si Si3 0.346141 0.335103 0.087310
Si Si4 0.930841 0.246809 0.415614
Si Si5 0.836903 0.502682 0.639966
Si Si6 0.169562 0.999094 0.695598
Si Si7 0.171468 0.171555 0.122623
O O1 0.504254 0.252127 0.158008
O O2 0.579869 0.420132 0.156970
O O3 0.414020 0.326513 0.137669
O O4 0.486627 0.332879 0.268940
O O5 0.166347 0.583174 0.116129
O O6 0.247469 0.752531 0.117753
O O7 0.077633 0.663170 0.113820
O O8 0.166535 0.668280 0.000000
O O9 0.255246 0.250596 0.090308
O O10 0.375431 0.350716 0.000000
O O11 0.966118 0.255891 0.500000
O O12 0.841107 0.158894 0.413432
O O13 0.906450 0.317628 0.397944
O O14 0.986046 0.236871 0.350850
O O15 0.744542 0.489084 0.621069
O O16 0.842656 0.421328 0.618229
O O17 0.155159 0.077580 0.678283
O O18 0.180448 0.999702 0.786002
O O19 0.087705 0.912296 0.674124
O O20 0.085877 0.171753 0.101344
O O21 0.165522 0.082761 0.102471
#
# Coordination Sequence:
#
# PCOD9585717 Si02
#       7
#    12  12  12  12  12  12  12
#     4  10  20  34  51  69  90 119 157 199 240 283
#     4   9  17  30  48  68  89 113 142 178 222 274
#     4  11  22  34  48  68  94 122 152 190 240 297
#     4   9  17  28  42  64  95 125 150 180 220 264
#     4   9  17  30  48  68  90 119 156 194 230 270
#     4   9  17  30  48  68  90 119 156 194 230 270
#     4  10  20  34  51  69  90 119 157 199 240 283
#
# _framework density 16.410198999999999
#
# number of rings (size 3 to 8) (size 9 to 14) (size 15 to 20)
#    0.000    2.429    0.000    2.857    0.000    8.571 
#    0.000    0.000    0.000    3.429    0.000    0.000 
#    0.000    0.000    0.000    0.429    0.000    1.857 
#
# Total GULP energy -468561.852499 kJ/mol
# GULP energy per Si atom -5578.117292 kJ/mol
# Density = 1.637285 g / cm^3
# Si number density = 16.410199 Si / 1000 Ang^3
#
#
#
# Elastic Constant Matrix: (Units=GPa)
#
#
# Indices 1 2 3 4 5 6 
#
# 1 87.9439 25.7920 13.1277 0.0000 -0.0001 0.0000
# 2 25.7920 87.9439 13.1277 0.0000 0.0001 0.0000
# 3 13.1277 13.1277 18.6625 0.0000 0.0000 0.0000
# 4 0.0000 0.0000 0.0000 13.4089 0.0000 0.0001
# 5 -0.0001 0.0001 0.0000 0.0000 13.4089 0.0000
# 6 0.0000 0.0000 0.0000 0.0001 0.0000 31.0760
#
#
#
# Elastic Compliance Matrix: (Units=1/GPa)
#
#
# Indices 1 2 3 4 5 6 
#
# 1 0.013293 -0.002796 -0.007384 0.000000 0.000000 0.000000
# 2 -0.002796 0.013293 -0.007384 0.000000 0.000000 0.000000
# 3 -0.007384 -0.007384 0.063971 0.000000 0.000000 0.000000
# 4 0.000000 0.000000 0.000000 0.074577 0.000000 0.000000
# 5 0.000000 0.000000 0.000000 0.000000 0.074577 0.000000
# 6 0.000000 0.000000 0.000000 0.000000 0.000000 0.032179
#
#
# Mechanical properties :
#
#
# Convention : Reuss Voigt Hill
#
# Bulk Modulus (GPa) = 18.04080 33.18278 25.61179
# Shear Modulus (GPa) = 15.36115 21.07893 18.22004
#
# Velocity S-wave (km/s) = 3.06285 3.58788 3.33571
# Velocity P-wave (km/s) = 4.85032 6.11789 5.52061
#
# Compressibility (1/GPa) = 0.05542990
#
# Stress axis : x y z
#
# Youngs Moduli (GPa) = 75.22636 75.22636 15.63201
#
# Poissons Ratio (x) = 0.21036 0.11542
# Poissons Ratio (y) = 0.21036 0.11542
# Poissons Ratio (z) = 0.55545 0.55545
#
# Static dielectric constant tensor:
#      x y z
#    x 1.536930 0.000000 0.000000 
#    y 0.000000 1.536930 0.000000 
#    z 0.000000 0.000000 1.557640 
# 
# From -- ./inp_files/2588.got.cif
#   From: 2010.05.17/outbox.cif.g08.bks.cpg/sg187_2_cif.got.tgz:2588.got - 2010.05.20 12:09:04.
