data_PCOD9585370
_publ_section_title
;
Structure prediction by ZEFSAII (Michael W. Deem and Ramdas Pophale) SiO2 
 PCOD9585370
Probable space group: P 63 M C
;
_chemical_formula_sum "Si O2"
_cell_formula_units_Z 84
_cell_length_a 19.093514
_cell_length_b 19.093514
_cell_length_c 14.041894
_cell_angle_alpha 90.000000
_cell_angle_beta 90.000000
_cell_angle_gamma 120.000000
_cell_volume 4433.309484
_symmetry_space_group_name_H-M "P 63 M C"
_symmetry_group_IT_number 186
_symmetry_cell_setting 'hexagonal'
loop_
_space_group_symop_operation_xyz
x,y,z
x-y,x,1/2+z
-y,x-y,z
-x,-y,1/2+z
-x+y,-x,z
y,-x+y,1/2+z
-x+y,y,z
x,x-y,z
-y,-x,z
y,x,1/2+z
x-y,-y,1/2+z
-x,-x+y,1/2+z
loop_
_atom_site_type_symbol
_atom_site_label
_atom_site_fract_x
_atom_site_fract_y
_atom_site_fract_z
Si Si1 0.667883 0.175332 0.996990
Si Si2 0.002838 0.166757 0.333679
Si Si3 0.949295 0.689570 0.689695
Si Si4 0.891041 0.525774 0.790392
Si Si5 0.538958 0.925630 0.862655
Si Si6 0.125268 0.712745 0.687077
Si Si7 0.078992 0.317122 0.967128
O O1 0.577019 0.154037 0.009312
O O2 0.730469 0.269532 0.012489
O O3 0.675418 0.154509 0.888548
O O4 0.686827 0.130215 0.079796
O O5 0.073714 0.147428 0.361539
O O6 0.041580 0.234643 0.250267
O O7 0.981121 0.214098 0.414161
O O8 0.917918 0.082083 0.312378
O O9 0.891474 0.596353 0.725611
O O10 0.931095 0.694063 0.579825
O O11 0.039481 0.705012 0.699029
O O12 0.865804 0.432902 0.757682
O O13 0.984168 0.564287 0.820793
O O14 0.452907 0.905814 0.905318
O O15 0.527740 0.869534 0.771198
O O16 0.606286 0.927976 0.932865
O O17 0.196830 0.803171 0.699924
O O18 0.168011 0.336021 0.939120
#
# Coordination Sequence:
#
# PCOD9585370 Si02
#       7
#    12  12  12  12  12  12  12
#     4  10  20  33  51  78 114 154 193 237 289 350
#     4  11  24  43  65  90 123 160 203 252 313 380
#     4  11  22  38  60  90 117 157 196 254 305 361
#     4   9  19  35  54  82 115 149 194 240 294 357
#     4  10  19  35  57  82 114 152 193 241 299 361
#     4  10  19  32  55  85 119 152 192 244 301 358
#     4  11  23  40  60  87 122 160 203 254 306 361
#
# _framework density 18.947471
#
# number of rings (size 3 to 8) (size 9 to 14) (size 15 to 20)
#    0.000    1.714    2.857    2.857    0.000    3.429 
#    0.000    0.000    0.000    4.857    0.000    1.000 
#    0.000    0.000    0.000    0.000    0.000    0.000 
#
# Total GULP energy -467753.572863 kJ/mol
# GULP energy per Si atom -5568.494915 kJ/mol
# Density = 1.890435 g / cm^3
# Si number density = 18.947471 Si / 1000 Ang^3
#
#
#
# Elastic Constant Matrix: (Units=GPa)
#
#
# Indices 1 2 3 4 5 6 
#
# 1 89.6968 42.6401 36.6272 0.0000 0.0000 0.0000
# 2 42.6401 89.6968 36.6272 0.0000 0.0000 0.0000
# 3 36.6272 36.6272 86.4301 0.0000 0.0000 0.0000
# 4 0.0000 0.0000 0.0000 -30.1654 0.0000 0.0000
# 5 0.0000 0.0000 0.0000 0.0000 -30.1654 0.0000
# 6 0.0000 0.0000 0.0000 0.0000 0.0000 23.5283
#
#
#
# Elastic Compliance Matrix: (Units=1/GPa)
#
#
# Indices 1 2 3 4 5 6 
#
# 1 0.015562 -0.005689 -0.004184 0.000000 0.000000 0.000000
# 2 -0.005689 0.015562 -0.004184 0.000000 0.000000 0.000000
# 3 -0.004184 -0.004184 0.015116 0.000000 0.000000 0.000000
# 4 0.000000 0.000000 0.000000 -0.033151 0.000000 0.000000
# 5 0.000000 0.000000 0.000000 0.000000 -0.033151 0.000000
# 6 0.000000 0.000000 0.000000 0.000000 0.000000 0.042502
#
#
# Mechanical properties :
#
#
# Convention : Reuss Voigt Hill
#
# Bulk Modulus (GPa) = 55.16970 55.29029 55.22999
# Shear Modulus (GPa) = 88.34627 2.63477 45.49052
#
# Velocity S-wave (km/s) = 6.83580 1.18050 4.90519
# Velocity P-wave (km/s) = 9.56476 5.57694 7.82901
#
# Compressibility (1/GPa) = 0.01812589
#
# Stress axis : x y z
#
# Youngs Moduli (GPa) = 64.26054 64.26054 66.15530
#
# Poissons Ratio (x) = 0.36560 0.27677
# Poissons Ratio (y) = 0.36560 0.27677
# Poissons Ratio (z) = 0.26885 0.26885
#
# Static dielectric constant tensor:
#      x y z
#    x 1.671420 0.000000 0.000000 
#    y 0.000000 1.671420 0.000000 
#    z 0.000000 0.000000 1.688480 
# 
# From -- ./inp_files/2542.got.cif
#   From: 2010.05.17/outbox.cif.g08.bks.cpg/sg186_2_cif.got.tgz:2542.got - 2010.05.20 12:07:08.
