data_PCOD9585361
_publ_section_title
;
Structure prediction by ZEFSAII (Michael W. Deem and Ramdas Pophale) SiO2 
 PCOD9585361
Probable space group: P 63 M C
;
_chemical_formula_sum "Si O2"
_cell_formula_units_Z 60
_cell_length_a 18.544520
_cell_length_b 18.544520
_cell_length_c 9.924028
_cell_angle_alpha 90.000000
_cell_angle_beta 90.000000
_cell_angle_gamma 120.000000
_cell_volume 2955.628230
_symmetry_space_group_name_H-M "P 63 M C"
_symmetry_group_IT_number 186
_symmetry_cell_setting 'hexagonal'
loop_
_space_group_symop_operation_xyz
x,y,z
x-y,x,1/2+z
-y,x-y,z
-x,-y,1/2+z
-x+y,-x,z
y,-x+y,1/2+z
-x+y,y,z
x,x-y,z
-y,-x,z
y,x,1/2+z
x-y,-y,1/2+z
-x,-x+y,1/2+z
loop_
_atom_site_type_symbol
_atom_site_label
_atom_site_fract_x
_atom_site_fract_y
_atom_site_fract_z
Si Si1 0.452071 0.147731 0.570730
Si Si2 0.793034 0.049662 0.534119
Si Si3 0.078392 0.760867 0.733302
Si Si4 0.832585 0.499125 0.878625
Si Si5 0.018473 0.428799 0.853984
O O1 0.476224 0.238112 0.512237
O O2 0.351956 0.099772 0.588687
O O3 0.494530 0.162646 0.715265
O O4 0.463917 0.088438 0.469242
O O5 0.890734 0.109266 0.561663
O O6 0.778980 0.045568 0.373979
O O7 0.745106 0.963370 0.610416
O O8 0.177119 0.822882 0.732506
O O9 0.049859 0.663941 0.746626
O O10 0.757351 0.514702 0.920656
O O11 0.815584 0.407792 0.919691
O O12 0.928129 0.566313 0.915162
O O13 0.008445 0.504223 0.797677
#
# Coordination Sequence:
#
# PCOD9585361 Si02
#       5
#    12  12  12  12  12
#     4   9  17  32  51  73 102 134 175 228 271 316
#     4   9  18  33  54  79 111 141 176 224 277 326
#     4  10  20  35  54  82 113 144 182 231 276 323
#     4  10  19  31  50  75 104 136 173 221 272 319
#     4  10  19  31  50  73 102 141 180 220 269 324
#
# _framework density 20.300253999999999
#
# number of rings (size 3 to 8) (size 9 to 14) (size 15 to 20)
#    0.000    2.400    2.000    2.600    0.000    0.800 
#    0.000    3.000    0.000    4.800    0.000    0.000 
#    0.000    0.000    0.000    0.000    0.000    0.000 
#
# Total GULP energy -334445.512432 kJ/mol
# GULP energy per Si atom -5574.091874 kJ/mol
# Density = 2.025405 g / cm^3
# Si number density = 20.300254 Si / 1000 Ang^3
#
#
#
# Elastic Constant Matrix: (Units=GPa)
#
#
# Indices 1 2 3 4 5 6 
#
# 1 80.9082 70.6484 15.8910 0.0000 0.0000 0.0000
# 2 70.6484 80.9082 15.8910 0.0000 0.0000 0.0000
# 3 15.8910 15.8910 29.6193 0.0000 0.0000 0.0000
# 4 0.0000 0.0000 0.0000 0.7520 0.0000 0.0000
# 5 0.0000 0.0000 0.0000 0.0000 0.7520 0.0000
# 6 0.0000 0.0000 0.0000 0.0000 0.0000 5.1299
#
#
#
# Elastic Compliance Matrix: (Units=1/GPa)
#
#
# Indices 1 2 3 4 5 6 
#
# 1 0.052451 -0.045016 -0.003989 0.000000 0.000000 0.000000
# 2 -0.045016 0.052451 -0.003989 0.000000 0.000000 0.000000
# 3 -0.003989 -0.003989 0.038042 0.000000 0.000000 0.000000
# 4 0.000000 0.000000 0.000000 1.329794 0.000000 0.000000
# 5 0.000000 0.000000 0.000000 0.000000 1.329794 0.000000
# 6 0.000000 0.000000 0.000000 0.000000 0.000000 0.194935
#
#
# Mechanical properties :
#
#
# Convention : Reuss Voigt Hill
#
# Bulk Modulus (GPa) = 27.05914 44.03296 35.54605
# Shear Modulus (GPa) = 1.60474 7.26046 4.43260
#
# Velocity S-wave (km/s) = 0.89007 1.89323 1.47928
# Velocity P-wave (km/s) = 3.79667 5.14947 4.52392
#
# Compressibility (1/GPa) = 0.03695610
#
# Stress axis : x y z
#
# Youngs Moduli (GPa) = 19.06537 19.06537 26.28684
#
# Poissons Ratio (x) = 0.85826 0.10485
# Poissons Ratio (y) = 0.85826 0.10485
# Poissons Ratio (z) = 0.07605 0.07605
#
# Static dielectric constant tensor:
#      x y z
#    x 1.753560 0.000000 0.000000 
#    y 0.000000 1.753560 0.000000 
#    z 0.000000 0.000000 1.740180 
# 
# From -- ./inp_files/1747.got.cif
#   From: 2010.05.17/outbox.cif.g08.bks.cpg/sg186_1_cif.got.tgz:1747.got - 2010.05.20 12:07:08.
