data_PCOD9585734
_publ_section_title
;
Structure prediction by ZEFSAII (Michael W. Deem and Ramdas Pophale) SiO2 
 PCOD9585734
Probable space group: P -6 M 2
;
_chemical_formula_sum "Si O2"
_cell_formula_units_Z 84
_cell_length_a 19.274872
_cell_length_b 19.274872
_cell_length_c 14.282333
_cell_angle_alpha 90.000000
_cell_angle_beta 90.000000
_cell_angle_gamma 120.000000
_cell_volume 4595.288599
_symmetry_space_group_name_H-M "P -6 M 2"
_symmetry_group_IT_number 187
_symmetry_cell_setting 'hexagonal'
loop_
_space_group_symop_operation_xyz
x,y,z
-x+y,-x,-z
-y,x-y,z
x,y,-z
-x+y,-x,z
-y,x-y,-z
-y,-x,-z
-x+y,y,-z
x,x-y,-z
-x+y,y,z
x,x-y,z
-y,-x,z
loop_
_atom_site_type_symbol
_atom_site_label
_atom_site_fract_x
_atom_site_fract_y
_atom_site_fract_z
Si Si1 0.820474 0.333819 0.111871
Si Si2 0.246584 0.912149 0.388189
Si Si3 0.560166 0.861080 0.895952
Si Si4 0.335899 0.508652 0.696703
Si Si5 0.957681 0.301215 0.893611
Si Si6 0.756928 0.671149 0.694644
Si Si7 0.829212 0.333370 0.611313
O O1 0.808883 0.404442 0.151640
O O2 0.753116 0.246885 0.148013
O O3 0.909126 0.348655 0.120813
O O4 0.808358 0.332523 0.000000
O O5 0.248690 0.912342 0.500000
O O6 0.158135 0.841866 0.357551
O O7 0.308108 0.885130 0.349615
O O8 0.273262 0.000183 0.351969
O O9 0.583704 0.791852 0.891298
O O10 0.503187 0.844515 0.807980
O O11 0.637677 0.948286 0.886341
O O12 0.525689 0.856631 0.000000
O O13 0.263182 0.526363 0.681346
O O14 0.419015 0.580985 0.661452
O O15 0.927226 0.242032 0.806214
O O16 0.938999 0.267775 0.000000
O O17 0.842971 0.685941 0.662721
O O18 0.694191 0.578078 0.667666
O O19 0.846244 0.333291 0.500000
O O20 0.840641 0.420321 0.633944
O O21 0.736974 0.263026 0.625296
#
# Coordination Sequence:
#
# PCOD9585734 Si02
#       7
#    12  12  12  12  12  12  12
#     4   9  17  29  44  62  90 134 186 232 270 308
#     4  10  22  41  62  83 110 144 180 221 277 342
#     4   9  18  34  56  80 107 143 187 231 273 324
#     4  10  20  35  56  83 114 148 187 232 280 332
#     4  10  20  34  52  76 108 144 182 227 272 319
#     4  11  22  36  57  85 113 142 181 229 274 322
#     4   9  18  33  53  77 107 143 183 227 275 324
#
# _framework density 18.279592000000001
#
# number of rings (size 3 to 8) (size 9 to 14) (size 15 to 20)
#    0.000    2.286    1.429    1.286    0.000    5.143 
#    0.000    1.429    0.000    3.714    0.000    0.000 
#    0.000    0.000    0.000    0.000    0.000    0.000 
#
# Total GULP energy -468442.464348 kJ/mol
# GULP energy per Si atom -5576.696004 kJ/mol
# Density = 1.823799 g / cm^3
# Si number density = 18.279592 Si / 1000 Ang^3
#
#
#
# Elastic Constant Matrix: (Units=GPa)
#
#
# Indices 1 2 3 4 5 6 
#
# 1 86.1517 75.3298 31.5246 0.0000 -0.0001 0.0000
# 2 75.3298 86.1517 31.5246 0.0000 0.0001 0.0000
# 3 31.5246 31.5246 87.2180 0.0000 0.0000 0.0000
# 4 0.0000 0.0000 0.0000 11.4586 0.0000 0.0001
# 5 -0.0001 0.0001 0.0000 0.0000 11.4586 0.0000
# 6 0.0000 0.0000 0.0000 0.0001 0.0000 5.4109
#
#
#
# Elastic Compliance Matrix: (Units=1/GPa)
#
#
# Indices 1 2 3 4 5 6 
#
# 1 0.049808 -0.042598 -0.002606 0.000000 0.000001 0.000000
# 2 -0.042598 0.049808 -0.002606 0.000000 -0.000001 0.000000
# 3 -0.002606 -0.002606 0.013349 0.000000 0.000000 0.000000
# 4 0.000000 0.000000 0.000000 0.087271 0.000000 -0.000002
# 5 0.000001 -0.000001 0.000000 0.000000 0.087271 0.000000
# 6 0.000000 0.000000 0.000000 -0.000002 0.000000 0.184811
#
#
# Mechanical properties :
#
#
# Convention : Reuss Voigt Hill
#
# Bulk Modulus (GPa) = 57.65199 59.58659 58.61929
# Shear Modulus (GPa) = 8.71506 13.74178 11.22842
#
# Velocity S-wave (km/s) = 2.18586 2.74479 2.48112
# Velocity P-wave (km/s) = 6.16264 6.53554 6.35183
#
# Compressibility (1/GPa) = 0.01734546
#
# Stress axis : x y z
#
# Youngs Moduli (GPa) = 20.07714 20.07714 74.90944
#
# Poissons Ratio (x) = 0.85524 0.19522
# Poissons Ratio (y) = 0.85524 0.19522
# Poissons Ratio (z) = 0.05232 0.05232
#
# Static dielectric constant tensor:
#      x y z
#    x 1.605290 0.000000 0.000000 
#    y 0.000000 1.605290 0.000000 
#    z 0.000000 0.000000 1.692330 
# 
# From -- ./inp_files/2599.got.cif
#   From: 2010.05.17/outbox.cif.g08.bks.cpg/sg187_2_cif.got.tgz:2599.got - 2010.05.20 12:09:04.
