data_PCOD9585005
_publ_section_title
;
Structure prediction by ZEFSAII (Michael W. Deem and Ramdas Pophale) SiO2 
 PCOD9585005
Probable space group: P 6 M M
;
_chemical_formula_sum "Si O2"
_cell_formula_units_Z 84
_cell_length_a 18.403307
_cell_length_b 18.403307
_cell_length_c 18.011543
_cell_angle_alpha 90.000000
_cell_angle_beta 90.000000
_cell_angle_gamma 120.000000
_cell_volume 5282.910983
_symmetry_space_group_name_H-M "P 6 M M"
_symmetry_group_IT_number 183
_symmetry_cell_setting 'hexagonal'
loop_
_space_group_symop_operation_xyz
x,y,z
x-y,x,z
-y,x-y,z
-x,-y,z
-x+y,-x,z
y,-x+y,z
-x+y,y,z
x,x-y,z
-y,-x,z
y,x,z
x-y,-y,z
-x,-x+y,z
loop_
_atom_site_type_symbol
_atom_site_label
_atom_site_fract_x
_atom_site_fract_y
_atom_site_fract_z
Si Si1 0.100111 0.632314 0.941580
Si Si2 0.503349 0.668487 0.677453
Si Si3 0.496990 0.331419 0.356295
Si Si4 0.904809 0.264923 0.229519
Si Si5 0.263482 0.902601 0.804614
Si Si6 0.332604 0.833935 0.106248
Si Si7 0.540088 0.635687 0.516783
O O1 0.121953 0.560977 0.916447
O O2 0.117633 0.699507 0.878219
O O3 0.000000 0.583543 0.955152
O O4 0.145112 0.668191 0.019677
O O5 0.475344 0.737672 0.689107
O O6 0.424804 0.575197 0.686950
O O7 0.576974 0.689631 0.735714
O O8 0.537674 0.677756 0.593601
O O9 0.525521 0.262760 0.343661
O O10 0.575252 0.424749 0.346192
O O11 0.422477 0.309435 0.298912
O O12 0.463581 0.322151 0.440426
O O13 0.832606 0.167395 0.230745
O O14 0.888351 0.306441 0.157109
O O15 0.000000 0.285751 0.230928
O O16 0.165316 0.834685 0.798636
O O17 0.289910 0.000000 0.807119
O O18 0.424777 0.849553 0.124082
O O19 0.262529 0.737472 0.120089
O O20 0.453485 0.546516 0.517031
O O21 0.614764 0.614764 0.516034
#
# Coordination Sequence:
#
# PCOD9585005 Si02
#       7
#    12  12  12  12  12  12  12
#     4   9  17  29  46  68  93 122 156 191 225 263
#     4  10  19  30  45  66  93 124 156 189 225 267
#     4  10  19  30  45  66  94 127 161 194 226 262
#     4  10  21  35  51  70  91 117 149 188 233 279
#     4  10  20  33  49  68  90 117 150 189 232 277
#     4  10  19  30  45  67  97 131 164 194 222 254
#     4   9  17  28  42  60  84 119 162 201 231 259
#
# _framework density 15.900323999999999
#
# number of rings (size 3 to 8) (size 9 to 14) (size 15 to 20)
#    0.000    2.286    0.000    3.429    0.000    3.714 
#    0.000    2.857    0.000    4.857    0.000    0.000 
#    0.000    0.000    0.000    4.571    0.000   29.714 
#
# Total GULP energy -468452.643899 kJ/mol
# GULP energy per Si atom -5576.817189 kJ/mol
# Density = 1.586413 g / cm^3
# Si number density = 15.900324 Si / 1000 Ang^3
#
#
#
# Elastic Constant Matrix: (Units=GPa)
#
#
# Indices 1 2 3 4 5 6 
#
# 1 78.0162 54.9755 31.2267 0.0000 0.0000 0.0000
# 2 54.9755 78.0162 31.2267 0.0000 0.0000 0.0000
# 3 31.2267 31.2267 70.7317 0.0000 0.0000 0.0000
# 4 0.0000 0.0000 0.0000 19.4670 0.0000 0.0000
# 5 0.0000 0.0000 0.0000 0.0000 19.4670 0.0000
# 6 0.0000 0.0000 0.0000 0.0000 0.0000 11.5204
#
#
#
# Elastic Compliance Matrix: (Units=1/GPa)
#
#
# Indices 1 2 3 4 5 6 
#
# 1 0.026444 -0.016958 -0.004188 0.000000 0.000000 0.000000
# 2 -0.016958 0.026444 -0.004188 0.000000 0.000000 0.000000
# 3 -0.004188 -0.004188 0.017836 0.000000 0.000000 0.000000
# 4 0.000000 0.000000 0.000000 0.051369 0.000000 0.000000
# 5 0.000000 0.000000 0.000000 0.000000 0.051369 0.000000
# 6 0.000000 0.000000 0.000000 0.000000 0.000000 0.086803
#
#
# Mechanical properties :
#
#
# Convention : Reuss Voigt Hill
#
# Bulk Modulus (GPa) = 49.86023 51.29132 50.57578
# Shear Modulus (GPa) = 15.74229 17.37990 16.56109
#
# Velocity S-wave (km/s) = 3.14994 3.30972 3.23082
# Velocity P-wave (km/s) = 6.68248 6.85082 6.76717
#
# Compressibility (1/GPa) = 0.02005606
#
# Stress axis : x y z
#
# Youngs Moduli (GPa) = 37.81624 37.81624 56.06755
#
# Poissons Ratio (x) = 0.64128 0.23480
# Poissons Ratio (y) = 0.64128 0.23480
# Poissons Ratio (z) = 0.15837 0.15837
#
# Static dielectric constant tensor:
#      x y z
#    x 1.522370 0.000000 0.000000 
#    y 0.000000 1.522370 0.000000 
#    z 0.000000 0.000000 1.541740 
# 
# From -- ./inp_files/2907.got.cif
#   From: 2010.05.17/outbox.cif.g08.bks.cpg/sg183_2_cif.got.tgz:2907.got - 2010.05.20 12:02:58.
