data_PCOD9585802
_publ_section_title
;
Structure prediction by ZEFSAII (Michael W. Deem and Ramdas Pophale) SiO2 
 PCOD9585802
Probable space group: P -6 M 2
;
_chemical_formula_sum "Si O2"
_cell_formula_units_Z 60
_cell_length_a 21.884871
_cell_length_b 21.884871
_cell_length_c 8.010179
_cell_angle_alpha 90.000000
_cell_angle_beta 90.000000
_cell_angle_gamma 120.000000
_cell_volume 3322.468215
_symmetry_space_group_name_H-M "P -6 M 2"
_symmetry_group_IT_number 187
_symmetry_cell_setting 'hexagonal'
loop_
_space_group_symop_operation_xyz
x,y,z
-x+y,-x,-z
-y,x-y,z
x,y,-z
-x+y,-x,z
-y,x-y,-z
-y,-x,-z
-x+y,y,-z
x,x-y,-z
-x+y,y,z
x,x-y,z
-y,-x,z
loop_
_atom_site_type_symbol
_atom_site_label
_atom_site_fract_x
_atom_site_fract_y
_atom_site_fract_z
Si Si1 0.792555 0.207446 0.204849
Si Si2 0.412915 0.452458 0.200625
Si Si3 0.036721 0.825961 0.298678
Si Si4 0.492396 0.369843 0.203712
Si Si5 0.874161 0.748322 0.198028
Si Si6 0.628081 0.746528 0.299363
O O1 0.710831 0.168553 0.258744
O O2 0.833510 0.166491 0.262748
O O3 0.793073 0.206928 0.000000
O O4 0.469169 0.530832 0.260344
O O5 0.442702 0.401475 0.256745
O O6 0.333156 0.422899 0.250325
O O7 0.415668 0.452855 0.000000
O O8 0.038334 0.827135 0.500000
O O9 0.094360 0.905641 0.242810
O O10 0.067097 0.775583 0.240566
O O11 0.956079 0.792319 0.247445
O O12 0.572342 0.427659 0.255275
O O13 0.492906 0.369120 0.000000
O O14 0.870961 0.741922 0.000000
O O15 0.630947 0.749549 0.500000
O O16 0.606389 0.803195 0.240332
#
# Coordination Sequence:
#
# PCOD9585802 Si02
#       6
#     6  12  12  12   6  12
#     4   9  16  25  39  63  93 123 157 197 241 277
#     4   9  17  29  46  68  95 127 158 189 233 286
#     4   9  19  36  53  69  94 128 162 196 243 301
#     4   8  14  25  39  58  88 123 157 192 228 269
#     4  11  21  31  49  75  99 125 161 207 251 291
#     4   9  18  32  50  72  96 121 153 196 241 285
#
# _framework density 18.058865000000001
#
# number of rings (size 3 to 8) (size 9 to 14) (size 15 to 20)
#    0.000    3.000    0.000    3.900    0.000    3.600 
#    1.200    2.000    0.000    0.400    0.000    0.000 
#    0.000    0.000    0.000    0.000    1.000    0.000 
#
# Total GULP energy -334346.121473 kJ/mol
# GULP energy per Si atom -5572.435358 kJ/mol
# Density = 1.801776 g / cm^3
# Si number density = 18.058865 Si / 1000 Ang^3
#
#
#
# Elastic Constant Matrix: (Units=GPa)
#
#
# Indices 1 2 3 4 5 6 
#
# 1 179.5135 133.9599 13.8201 0.0000 -0.0002 0.0000
# 2 133.9599 179.5135 13.8201 0.0000 0.0002 0.0000
# 3 13.8201 13.8201 10.9443 0.0000 0.0000 0.0000
# 4 0.0000 0.0000 0.0000 12.3288 0.0000 0.0002
# 5 -0.0002 0.0002 0.0000 0.0000 12.3288 0.0000
# 6 0.0000 0.0000 0.0000 0.0002 0.0000 22.7768
#
#
#
# Elastic Compliance Matrix: (Units=1/GPa)
#
#
# Indices 1 2 3 4 5 6 
#
# 1 0.012771 -0.009181 -0.004533 0.000000 0.000000 0.000000
# 2 -0.009181 0.012771 -0.004533 0.000000 0.000000 0.000000
# 3 -0.004533 -0.004533 0.102820 0.000000 0.000000 0.000000
# 4 0.000000 0.000000 0.000000 0.081111 0.000000 -0.000001
# 5 0.000000 0.000000 0.000000 0.000000 0.081111 0.000000
# 6 0.000000 0.000000 0.000000 -0.000001 0.000000 0.043904
#
#
# Mechanical properties :
#
#
# Convention : Reuss Voigt Hill
#
# Bulk Modulus (GPa) = 10.88529 77.01908 43.95218
# Shear Modulus (GPa) = 12.45006 23.37829 17.91418
#
# Velocity S-wave (km/s) = 2.62852 3.60190 3.15300
# Velocity P-wave (km/s) = 3.90550 7.74853 6.13566
#
# Compressibility (1/GPa) = 0.09186710
#
# Stress axis : x y z
#
# Youngs Moduli (GPa) = 78.30256 78.30256 9.72577
#
# Poissons Ratio (x) = 0.71891 0.04409
# Poissons Ratio (y) = 0.71891 0.04409
# Poissons Ratio (z) = 0.35495 0.35495
#
# Static dielectric constant tensor:
#      x y z
#    x 1.617200 0.000000 0.000000 
#    y 0.000000 1.617200 0.000000 
#    z 0.000000 0.000000 1.658570 
# 
# From -- ./inp_files/661.got.cif
#   From: 2010.05.17/outbox.cif.g08.bks.cpg/sg187_1_cif.got.tgz:661.got - 2010.05.20 12:09:04.
