data_PCOD9585769
_publ_section_title
;
Structure prediction by ZEFSAII (Michael W. Deem and Ramdas Pophale) SiO2 
 PCOD9585769
Probable space group: P -6 M 2
;
_chemical_formula_sum "Si O2"
_cell_formula_units_Z 66
_cell_length_a 22.432601
_cell_length_b 22.432601
_cell_length_c 7.907455
_cell_angle_alpha 90.000000
_cell_angle_beta 90.000000
_cell_angle_gamma 120.000000
_cell_volume 3446.090070
_symmetry_space_group_name_H-M "P -6 M 2"
_symmetry_group_IT_number 187
_symmetry_cell_setting 'hexagonal'
loop_
_space_group_symop_operation_xyz
x,y,z
-x+y,-x,-z
-y,x-y,z
x,y,-z
-x+y,-x,z
-y,x-y,-z
-y,-x,-z
-x+y,y,-z
x,x-y,-z
-x+y,y,z
x,x-y,z
-y,-x,z
loop_
_atom_site_type_symbol
_atom_site_label
_atom_site_fract_x
_atom_site_fract_y
_atom_site_fract_z
Si Si1 0.714370 0.142415 0.686479
Si Si2 0.469374 0.665870 0.204705
Si Si3 0.665846 0.189871 0.000000
Si Si4 0.742719 0.025233 0.195249
Si Si5 0.623871 0.880819 0.699730
Si Si6 0.863928 0.864347 0.793411
O O1 0.685125 0.139200 0.500000
O O2 0.788979 0.211022 0.695807
O O3 0.670613 0.149996 0.835709
O O4 0.726646 0.078518 0.711842
O O5 0.456363 0.728182 0.255358
O O6 0.407030 0.592971 0.261953
O O7 0.544573 0.686283 0.269999
O O8 0.471207 0.665464 0.000000
O O9 0.733965 0.266036 0.000000
O O10 0.597586 0.195171 0.000000
O O11 0.806756 0.018522 0.263166
O O12 0.676669 0.949605 0.206170
O O13 0.757956 0.048312 0.000000
O O14 0.638615 0.891034 0.500000
O O15 0.631430 0.815715 0.755989
O O16 0.939554 0.879108 0.745781
O O17 0.850644 0.925322 0.735885
O O18 0.861013 0.863650 0.000000
#
# Coordination Sequence:
#
# PCOD9585769 Si02
#       6
#    12  12   6  12  12  12
#     4  10  21  38  61  90 124 159 196 241 288 338
#     4   9  17  31  52  76 100 128 165 213 271 337
#     4  10  21  40  66  96 127 158 192 234 286 348
#     4  11  20  33  55  80 109 150 201 246 287 345
#     4  10  21  35  50  72 105 142 184 237 292 348
#     4   9  17  28  46  75 111 148 188 238 296 353
#
# _framework density 19.152139999999999
#
# number of rings (size 3 to 8) (size 9 to 14) (size 15 to 20)
#    0.000    2.182    0.909    2.636    0.000    4.727 
#    0.000    0.909    0.000    4.364    0.000    0.000 
#    0.000    8.727    0.000    0.000    0.000    0.000 
#
# Total GULP energy -368554.107322 kJ/mol
# GULP energy per Si atom -5584.153141 kJ/mol
# Density = 1.910855 g / cm^3
# Si number density = 19.152140 Si / 1000 Ang^3
#
#
#
# Elastic Constant Matrix: (Units=GPa)
#
#
# Indices 1 2 3 4 5 6 
#
# 1 84.0325 31.4815 30.6658 0.0000 -0.0001 0.0000
# 2 31.4815 84.0325 30.6658 0.0000 0.0001 0.0000
# 3 30.6658 30.6658 75.3065 0.0000 0.0000 0.0000
# 4 0.0000 0.0000 0.0000 7.8087 0.0000 0.0001
# 5 -0.0001 0.0001 0.0000 0.0000 7.8087 0.0000
# 6 0.0000 0.0000 0.0000 0.0001 0.0000 26.2755
#
#
#
# Elastic Compliance Matrix: (Units=1/GPa)
#
#
# Indices 1 2 3 4 5 6 
#
# 1 0.015037 -0.003992 -0.004498 0.000000 0.000000 0.000000
# 2 -0.003992 0.015037 -0.004498 0.000000 0.000000 0.000000
# 3 -0.004498 -0.004498 0.016942 0.000000 0.000000 0.000000
# 4 0.000000 0.000000 0.000000 0.128062 0.000000 0.000000
# 5 0.000000 0.000000 0.000000 0.000000 0.128062 0.000000
# 6 0.000000 0.000000 0.000000 0.000000 0.000000 0.038058
#
#
# Mechanical properties :
#
#
# Convention : Reuss Voigt Hill
#
# Bulk Modulus (GPa) = 47.52538 47.66640 47.59589
# Shear Modulus (GPa) = 13.36231 18.41582 15.88907
#
# Velocity S-wave (km/s) = 2.64425 3.10426 2.88344
# Velocity P-wave (km/s) = 5.84733 6.14743 5.99926
#
# Compressibility (1/GPa) = 0.02104139
#
# Stress axis : x y z
#
# Youngs Moduli (GPa) = 66.50241 66.50241 59.02470
#
# Poissons Ratio (x) = 0.26548 0.26547
# Poissons Ratio (y) = 0.26548 0.26547
# Poissons Ratio (z) = 0.29910 0.29910
#
# Static dielectric constant tensor:
#      x y z
#    x 1.634990 0.000000 0.000000 
#    y 0.000000 1.634990 0.000000 
#    z 0.000000 0.000000 1.709230 
# 
# From -- ./inp_files/774.got.cif
#   From: 2010.05.17/outbox.cif.g08.bks.cpg/sg187_1_cif.got.tgz:774.got - 2010.05.20 12:09:04.
