data_PCOD9585187
_publ_section_title
;
Structure prediction by ZEFSAII (Michael W. Deem and Ramdas Pophale) SiO2 
 PCOD9585187
Probable space group: P 6 C C
;
_chemical_formula_sum "Si O2"
_cell_formula_units_Z 84
_cell_length_a 16.877840
_cell_length_b 16.877840
_cell_length_c 15.177270
_cell_angle_alpha 90.000000
_cell_angle_beta 90.000000
_cell_angle_gamma 120.000000
_cell_volume 3744.191240
_symmetry_space_group_name_H-M "P 6 C C"
_symmetry_group_IT_number 184
_symmetry_cell_setting 'hexagonal'
loop_
_space_group_symop_operation_xyz
x,y,z
x-y,x,z
-y,x-y,z
-x,-y,z
-x+y,-x,z
y,-x+y,z
-x+y,y,1/2+z
x,x-y,1/2+z
-y,-x,1/2+z
y,x,1/2+z
x-y,-y,1/2+z
-x,-x+y,1/2+z
loop_
_atom_site_type_symbol
_atom_site_label
_atom_site_fract_x
_atom_site_fract_y
_atom_site_fract_z
Si Si1 0.829085 0.657874 0.875000
Si Si2 0.658845 0.019618 0.155746
Si Si3 0.622973 0.216500 0.934200
Si Si4 0.128628 0.834158 0.191009
Si Si5 0.628621 0.522493 0.814865
Si Si6 0.858111 0.794656 0.010477
Si Si7 0.370389 0.418092 0.460762
O O1 0.874084 0.729253 0.793980
O O2 0.738363 0.576493 0.830392
O O3 0.895048 0.624606 0.915407
O O4 0.802219 0.702570 0.954356
O O5 0.766547 0.100610 0.160012
O O6 0.610706 0.057980 0.220753
O O7 0.646788 0.923629 0.190597
O O8 0.630754 0.006868 0.054756
O O9 0.726819 0.297170 0.950834
O O10 0.584207 0.173507 0.837025
O O11 0.604559 0.126649 0.984482
O O12 0.071301 0.849584 0.115302
O O13 0.593818 0.566734 0.889232
O O14 0.828839 0.866983 0.986138
#
# Coordination Sequence:
#
# PCOD9585187 Si02
#       7
#    12  12  12  12  12  12  12
#     4  11  21  39  66  93 124 170 223 278 340 401
#     4  11  24  38  66 101 133 173 238 291 344 417
#     4  10  23  46  70  94 136 183 219 269 360 430
#     4  11  21  37  60  94 126 172 222 287 344 403
#     4  11  23  43  69 101 133 176 228 285 341 414
#     4  12  24  37  54  86 129 173 223 276 334 394
#     4  12  22  42  72 101 133 179 227 288 340 417
#
# _framework density 22.434750999999999
#
# number of rings (size 3 to 8) (size 9 to 14) (size 15 to 20)
#    0.286    0.571    5.714    2.286    2.000    0.000 
#    0.000    4.286    0.000    1.714    0.000    0.000 
#    0.000    0.000    0.000    0.000    0.000    0.000 
#
# Total GULP energy -468269.657863 kJ/mol
# GULP energy per Si atom -5574.638784 kJ/mol
# Density = 2.238369 g / cm^3
# Si number density = 22.434751 Si / 1000 Ang^3
#
#
#
# Elastic Constant Matrix: (Units=GPa)
#
#
# Indices 1 2 3 4 5 6 
#
# 1 61.1636 -2.9945 15.7231 0.0000 0.0000 0.0000
# 2 -2.9945 61.1636 15.7231 0.0000 0.0000 0.0000
# 3 15.7231 15.7231 126.7877 0.0000 0.0000 0.0000
# 4 0.0000 0.0000 0.0000 18.6856 0.0000 0.0000
# 5 0.0000 0.0000 0.0000 0.0000 18.6856 0.0000
# 6 0.0000 0.0000 0.0000 0.0000 0.0000 32.0791
#
#
#
# Elastic Compliance Matrix: (Units=1/GPa)
#
#
# Indices 1 2 3 4 5 6 
#
# 1 0.017007 0.001420 -0.002285 0.000000 0.000000 0.000000
# 2 0.001420 0.017007 -0.002285 0.000000 0.000000 0.000000
# 3 -0.002285 -0.002285 0.008454 0.000000 0.000000 0.000000
# 4 0.000000 0.000000 0.000000 0.053517 0.000000 0.000000
# 5 0.000000 0.000000 0.000000 0.000000 0.053517 0.000000
# 6 0.000000 0.000000 0.000000 0.000000 0.000000 0.031173
#
#
# Mechanical properties :
#
#
# Convention : Reuss Voigt Hill
#
# Bulk Modulus (GPa) = 27.64975 34.00205 30.82590
# Shear Modulus (GPa) = 25.12180 28.60093 26.86137
#
# Velocity S-wave (km/s) = 3.34993 3.57438 3.46397
# Velocity P-wave (km/s) = 5.22628 5.67660 5.45609
#
# Compressibility (1/GPa) = 0.03616669
#
# Stress axis : x y z
#
# Youngs Moduli (GPa) = 58.80094 58.80094 118.28784
#
# Poissons Ratio (x) = -0.08350 0.27030
# Poissons Ratio (y) = -0.08350 0.27030
# Poissons Ratio (z) = 0.13437 0.13437
#
# Static dielectric constant tensor:
#      x y z
#    x 1.909640 0.000000 0.000000 
#    y 0.000000 1.909640 0.000000 
#    z 0.000000 0.000000 1.805080 
# 
# From -- ./inp_files/925.got.cif
#   From: 2010.05.17/outbox.cif.g08.bks.cpg/sg184_cif.got.tgz:925.got - 2010.05.20 12:04:40.
