data_PCOD9585336
_publ_section_title
;
Structure prediction by ZEFSAII (Michael W. Deem and Ramdas Pophale) SiO2 
 PCOD9585336
Probable space group: P 63 M C
;
_chemical_formula_sum "Si O2"
_cell_formula_units_Z 96
_cell_length_a 14.432934
_cell_length_b 14.432934
_cell_length_c 28.323660
_cell_angle_alpha 90.000000
_cell_angle_beta 90.000000
_cell_angle_gamma 120.000000
_cell_volume 5109.627675
_symmetry_space_group_name_H-M "P 63 M C"
_symmetry_group_IT_number 186
_symmetry_cell_setting 'hexagonal'
loop_
_space_group_symop_operation_xyz
x,y,z
x-y,x,1/2+z
-y,x-y,z
-x,-y,1/2+z
-x+y,-x,z
y,-x+y,1/2+z
-x+y,y,z
x,x-y,z
-y,-x,z
y,x,1/2+z
x-y,-y,1/2+z
-x,-x+y,1/2+z
loop_
_atom_site_type_symbol
_atom_site_label
_atom_site_fract_x
_atom_site_fract_y
_atom_site_fract_z
Si Si1 0.291798 0.908862 0.697020
Si Si2 0.212428 0.213368 0.954040
Si Si3 0.617065 0.908863 0.324802
Si Si4 0.541283 0.667435 0.803044
Si Si5 0.786633 0.999061 0.067784
Si Si6 0.544703 0.879197 0.428498
Si Si7 0.544702 0.665506 0.593325
Si Si8 0.126153 0.458718 0.218778
O O1 0.163738 0.836263 0.696272
O O2 0.328820 0.880692 0.746058
O O3 0.332149 0.878032 0.650411
O O4 0.345415 0.035905 0.698854
O O5 0.198176 0.099088 0.937750
O O6 0.333960 0.302684 0.941442
O O7 0.115006 0.230012 0.937193
O O8 0.206805 0.209101 0.010912
O O9 0.672525 0.836263 0.325550
O O10 0.545885 0.878034 0.371411
O O11 0.551872 0.880693 0.275764
O O12 0.690491 0.035905 0.322968
O O13 0.513491 0.756746 0.817756
O O14 0.449784 0.550217 0.817606
O O15 0.900914 0.099087 0.084075
O O16 0.697317 0.031277 0.080382
O O17 0.769988 0.884994 0.084631
O O18 0.448038 0.896076 0.445031
O O19 0.529911 0.764956 0.444886
O O20 0.529910 0.764955 0.576936
O O21 0.448039 0.551962 0.576791
O O22 0.243255 0.486509 0.204067
O O23 0.100433 0.550217 0.204216
#
# Coordination Sequence:
#
# PCOD9585336 Si02
#       8
#    12  12  12  12  12  12  12  12
#     4   9  18  31  46  64  91 128 164 197 233 276
#     4   9  18  33  53  74  94 118 150 189 230 271
#     4   9  18  31  46  64  91 128 164 197 233 276
#     4  10  18  29  46  68  94 123 158 200 244 285
#     4   9  18  33  53  74  94 118 150 189 230 271
#     4  10  19  31  48  71  99 128 157 190 232 282
#     4  10  19  31  48  71  99 128 157 190 232 282
#     4  10  18  29  46  68  94 123 158 200 244 285
#
# _framework density 18.788062
#
# number of rings (size 3 to 8) (size 9 to 14) (size 15 to 20)
#    0.000    2.500    0.000    3.750    0.000    2.500 
#    0.000    2.500    0.000    3.000    0.000    3.500 
#    0.000    0.000    0.000    0.000    0.000    0.000 
#
# Total GULP energy -534589.492802 kJ/mol
# GULP energy per Si atom -5568.640550 kJ/mol
# Density = 1.874530 g / cm^3
# Si number density = 18.788062 Si / 1000 Ang^3
#
#
#
# Elastic Constant Matrix: (Units=GPa)
#
#
# Indices 1 2 3 4 5 6 
#
# 1 123.0816 79.4954 13.1546 0.0000 0.0000 0.0000
# 2 79.4954 123.0816 13.1546 0.0000 0.0000 0.0000
# 3 13.1546 13.1546 20.1519 0.0000 0.0000 0.0000
# 4 0.0000 0.0000 0.0000 14.3053 0.0000 0.0000
# 5 0.0000 0.0000 0.0000 0.0000 14.3053 0.0000
# 6 0.0000 0.0000 0.0000 0.0000 0.0000 21.7931
#
#
#
# Elastic Compliance Matrix: (Units=1/GPa)
#
#
# Indices 1 2 3 4 5 6 
#
# 1 0.014168 -0.008775 -0.003521 0.000000 0.000000 0.000000
# 2 -0.008775 0.014168 -0.003521 0.000000 0.000000 0.000000
# 3 -0.003521 -0.003521 0.054220 0.000000 0.000000 0.000000
# 4 0.000000 0.000000 0.000000 0.069904 0.000000 0.000000
# 5 0.000000 0.000000 0.000000 0.000000 0.069904 0.000000
# 6 0.000000 0.000000 0.000000 0.000000 0.000000 0.045886
#
#
# Mechanical properties :
#
#
# Convention : Reuss Voigt Hill
#
# Bulk Modulus (GPa) = 19.63724 53.10272 36.36998
# Shear Modulus (GPa) = 15.77993 20.78143 18.28068
#
# Velocity S-wave (km/s) = 2.90123 3.32941 3.12267
# Velocity P-wave (km/s) = 4.65806 6.56547 5.69223
#
# Compressibility (1/GPa) = 0.05092366
#
# Stress axis : x y z
#
# Youngs Moduli (GPa) = 70.57986 70.57986 18.44349
#
# Poissons Ratio (x) = 0.61932 0.06494
# Poissons Ratio (y) = 0.61932 0.06494
# Poissons Ratio (z) = 0.24850 0.24850
#
# Static dielectric constant tensor:
#      x y z
#    x 1.659630 0.000000 0.000000 
#    y 0.000000 1.659630 0.000000 
#    z 0.000000 0.000000 1.679250 
# 
# From -- ./inp_files/4194.got.cif
#   From: 2010.05.17/outbox.cif.g08.bks.cpg/sg186_3_cif.got.tgz:4194.got - 2010.05.20 12:07:08.
