data_PCOD9585602
_publ_section_title
;
Structure prediction by ZEFSAII (Michael W. Deem and Ramdas Pophale) SiO2 
 PCOD9585602
Probable space group: P -6 M 2
;
_chemical_formula_sum "Si O2"
_cell_formula_units_Z 66
_cell_length_a 12.959886
_cell_length_b 12.959886
_cell_length_c 28.596036
_cell_angle_alpha 90.000000
_cell_angle_beta 90.000000
_cell_angle_gamma 120.000000
_cell_volume 4159.477980
_symmetry_space_group_name_H-M "P -6 M 2"
_symmetry_group_IT_number 187
_symmetry_cell_setting 'hexagonal'
loop_
_space_group_symop_operation_xyz
x,y,z
-x+y,-x,-z
-y,x-y,z
x,y,-z
-x+y,-x,z
-y,x-y,-z
-y,-x,-z
-x+y,y,-z
x,x-y,-z
-x+y,y,z
x,x-y,z
-y,-x,z
loop_
_atom_site_type_symbol
_atom_site_label
_atom_site_fract_x
_atom_site_fract_y
_atom_site_fract_z
Si Si1 0.422722 0.333215 0.829413
Si Si2 0.333350 0.421210 0.362386
Si Si3 0.421466 0.334120 0.000000
Si Si4 0.423110 0.332965 0.279054
Si Si5 0.578708 0.666542 0.087256
Si Si6 0.755285 0.755196 0.553471
O O1 0.415300 0.207650 0.839487
O O2 0.559237 0.440764 0.834965
O O3 0.388993 0.333408 0.775159
O O4 0.345867 0.363026 0.864824
O O5 0.216528 0.433056 0.359776
O O6 0.450601 0.549400 0.365905
O O7 0.346229 0.358041 0.316076
O O8 0.320159 0.342113 0.407752
O O9 0.360370 0.355436 0.954803
O O10 0.559352 0.440648 0.000000
O O11 0.413430 0.206715 0.000000
O O12 0.417040 0.208520 0.288434
O O13 0.558677 0.441324 0.283917
O O14 0.585033 0.792517 0.082558
O O15 0.441577 0.558424 0.086401
O O16 0.714289 0.716319 0.500000
O O17 0.875977 0.751953 0.560891
O O18 0.781020 0.890510 0.557572
#
# Coordination Sequence:
#
# PCOD9585602 Si02
#       6
#    12  12   6  12  12  12
#     4   9  17  30  50  74  97 121 152 195 244 288
#     4  10  20  32  46  66  94 128 162 193 227 271
#     4  10  20  34  54  78 100 122 152 196 246 288
#     4   9  17  30  49  72  95 120 153 195 243 289
#     4  10  20  33  50  72  99 131 164 196 230 273
#     4   9  17  30  49  71  92 115 147 190 237 280
#
# _framework density 15.867376
#
# number of rings (size 3 to 8) (size 9 to 14) (size 15 to 20)
#    0.000    2.545    0.000    2.364    0.000    3.273 
#    0.000    2.727    0.000    9.091    0.000    0.000 
#    0.000    0.000    0.000    0.000    0.000    0.000 
#
# Total GULP energy -367974.516491 kJ/mol
# GULP energy per Si atom -5575.371462 kJ/mol
# Density = 1.583126 g / cm^3
# Si number density = 15.867376 Si / 1000 Ang^3
#
#
#
# Elastic Constant Matrix: (Units=GPa)
#
#
# Indices 1 2 3 4 5 6 
#
# 1 100.7577 64.1569 75.7455 0.0000 -0.0001 0.0000
# 2 64.1569 100.7577 75.7455 0.0000 0.0001 0.0000
# 3 75.7455 75.7455 114.4494 0.0000 0.0000 0.0000
# 4 0.0000 0.0000 0.0000 21.6398 0.0000 0.0001
# 5 -0.0001 0.0001 0.0000 0.0000 21.6398 0.0000
# 6 0.0000 0.0000 0.0000 0.0001 0.0000 18.3004
#
#
#
# Elastic Compliance Matrix: (Units=1/GPa)
#
#
# Indices 1 2 3 4 5 6 
#
# 1 0.021394 -0.005927 -0.010236 0.000000 0.000000 0.000000
# 2 -0.005927 0.021394 -0.010236 0.000000 0.000000 0.000000
# 3 -0.010236 -0.010236 0.022287 0.000000 0.000000 0.000000
# 4 0.000000 0.000000 0.000000 0.046211 0.000000 0.000000
# 5 0.000000 0.000000 0.000000 0.000000 0.046211 0.000000
# 6 0.000000 0.000000 0.000000 0.000000 0.000000 0.054644
#
#
# Mechanical properties :
#
#
# Convention : Reuss Voigt Hill
#
# Bulk Modulus (GPa) = 81.46539 83.02896 82.24718
# Shear Modulus (GPa) = 18.58501 19.00377 18.79439
#
# Velocity S-wave (km/s) = 3.42610 3.46448 3.44534
# Velocity P-wave (km/s) = 8.19169 8.27309 8.23249
#
# Compressibility (1/GPa) = 0.01227515
#
# Stress axis : x y z
#
# Youngs Moduli (GPa) = 46.74125 46.74125 44.86933
#
# Poissons Ratio (x) = 0.27706 0.45930
# Poissons Ratio (y) = 0.27706 0.45930
# Poissons Ratio (z) = 0.47846 0.47846
#
# Static dielectric constant tensor:
#      x y z
#    x 1.498180 0.000000 0.000000 
#    y 0.000000 1.498180 0.000000 
#    z 0.000000 0.000000 1.541100 
# 
# From -- ./inp_files/4457.got.cif
#   From: 2010.05.17/outbox.cif.g08.bks.cpg/sg187_3_cif.got.tgz:4457.got - 2010.05.20 12:09:04.
