data_PCOD9585281
_publ_section_title
;
Structure prediction by ZEFSAII (Michael W. Deem and Ramdas Pophale) SiO2 
 PCOD9585281
Probable space group: P 63 C M
;
_chemical_formula_sum "Si O2"
_cell_formula_units_Z 46
_cell_length_a 13.958193
_cell_length_b 13.958193
_cell_length_c 13.932960
_cell_angle_alpha 90.000000
_cell_angle_beta 90.000000
_cell_angle_gamma 120.000000
_cell_volume 2350.890603
_symmetry_space_group_name_H-M "P 63 C M"
_symmetry_group_IT_number 185
_symmetry_cell_setting 'hexagonal'
loop_
_space_group_symop_operation_xyz
x,y,z
x-y,x,1/2+z
-y,x-y,z
-x,-y,1/2+z
-x+y,-x,z
y,-x+y,1/2+z
-x+y,y,1/2+z
x,x-y,1/2+z
-y,-x,1/2+z
y,x,z
x-y,-y,z
-x,-x+y,z
loop_
_atom_site_type_symbol
_atom_site_label
_atom_site_fract_x
_atom_site_fract_y
_atom_site_fract_z
Si Si1 0.818275 0.000000 0.050071
Si Si2 0.383308 0.878929 0.979752
Si Si3 0.000000 0.000000 0.915138
Si Si4 0.000000 0.000000 0.685276
Si Si5 0.792455 0.459059 0.268226
Si Si6 0.160162 0.721818 0.069871
O O1 0.692475 0.897494 0.052246
O O2 0.892363 0.000000 0.139949
O O3 0.892154 0.000000 0.960312
O O4 0.341991 0.845346 0.871237
O O5 0.405607 0.000000 0.000306
O O6 0.290326 0.792683 0.049712
O O7 0.496579 0.878418 0.998865
O O8 0.000000 0.000000 0.800205
O O9 0.666654 0.436583 0.263778
O O10 0.857660 0.533392 0.178160
#
# Coordination Sequence:
#
# PCOD9585281 Si02
#       6
#     6  12   2   2  12  12
#     4  10  26  44  74 100 128 172 246 282 340 404
#     4  12  24  38  67  97 136 183 223 267 351 411
#     4  10  26  58  73  86 133 187 224 313 349 374
#     4  10  26  58  73  92 127 187 230 301 343 392
#     4  10  20  39  63  91 137 183 207 261 331 403
#     4  12  22  44  63 101 141 176 223 286 334 416
#
# _framework density 19.567053000000001
#
# number of rings (size 3 to 8) (size 9 to 14) (size 15 to 20)
#    0.522    0.522    6.522    0.522    5.478    2.087 
#    0.000    0.000    2.870    0.000    0.000    0.000 
#    0.000    0.000    0.000    0.000    0.000    0.000 
#
# Total GULP energy -256478.419325 kJ/mol
# GULP energy per Si atom -5575.617811 kJ/mol
# Density = 1.952252 g / cm^3
# Si number density = 19.567053 Si / 1000 Ang^3
#
#
#
# Elastic Constant Matrix: (Units=GPa)
#
#
# Indices 1 2 3 4 5 6 
#
# 1 102.7436 29.0452 29.7001 0.0000 0.0000 0.0000
# 2 29.0452 102.7436 29.7001 0.0000 0.0000 0.0000
# 3 29.7001 29.7001 150.4120 0.0000 0.0000 0.0000
# 4 0.0000 0.0000 0.0000 6.9674 0.0000 0.0000
# 5 0.0000 0.0000 0.0000 0.0000 6.9674 0.0000
# 6 0.0000 0.0000 0.0000 0.0000 0.0000 36.8492
#
#
#
# Elastic Compliance Matrix: (Units=1/GPa)
#
#
# Indices 1 2 3 4 5 6 
#
# 1 0.010949 -0.002620 -0.001645 0.000000 0.000000 0.000000
# 2 -0.002620 0.010949 -0.001645 0.000000 0.000000 0.000000
# 3 -0.001645 -0.001645 0.007298 0.000000 0.000000 0.000000
# 4 0.000000 0.000000 0.000000 0.143525 0.000000 0.000000
# 5 0.000000 0.000000 0.000000 0.000000 0.143525 0.000000
# 6 0.000000 0.000000 0.000000 0.000000 0.000000 0.027138
#
#
# Mechanical properties :
#
#
# Convention : Reuss Voigt Hill
#
# Bulk Modulus (GPa) = 57.54529 59.19890 58.37209
# Shear Modulus (GPa) = 13.85066 27.98707 20.91887
#
# Velocity S-wave (km/s) = 2.66344 3.78606 3.27324
# Velocity P-wave (km/s) = 6.23953 7.03081 6.64696
#
# Compressibility (1/GPa) = 0.01737762
#
# Stress axis : x y z
#
# Youngs Moduli (GPa) = 91.33256 91.33256 137.02543
#
# Poissons Ratio (x) = 0.23927 0.22536
# Poissons Ratio (y) = 0.23927 0.22536
# Poissons Ratio (z) = 0.15021 0.15021
#
# Static dielectric constant tensor:
#      x y z
#    x 1.687870 0.000000 0.000000 
#    y 0.000000 1.687870 0.000000 
#    z 0.000000 0.000000 1.673530 
# 
# From -- ./inp_files/1252.got.cif
#   From: 2010.05.17/outbox.cif.g08.bks.cpg/sg185_cif.got.tgz:1252.got - 2010.05.20 12:05:34.
