data_PCOD9585440
_publ_section_title
;
Structure prediction by ZEFSAII (Michael W. Deem and Ramdas Pophale) SiO2 
 PCOD9585440
Probable space group: P -6 M 2
;
_chemical_formula_sum "Si O2"
_cell_formula_units_Z 60
_cell_length_a 21.891348
_cell_length_b 21.891348
_cell_length_c 7.425026
_cell_angle_alpha 90.000000
_cell_angle_beta 90.000000
_cell_angle_gamma 120.000000
_cell_volume 3081.581230
_symmetry_space_group_name_H-M "P -6 M 2"
_symmetry_group_IT_number 187
_symmetry_cell_setting 'hexagonal'
loop_
_space_group_symop_operation_xyz
x,y,z
-x+y,-x,-z
-y,x-y,z
x,y,-z
-x+y,-x,z
-y,x-y,-z
-y,-x,-z
-x+y,y,-z
x,x-y,-z
-x+y,y,z
x,x-y,z
-y,-x,z
loop_
_atom_site_type_symbol
_atom_site_label
_atom_site_fract_x
_atom_site_fract_y
_atom_site_fract_z
Si Si1 0.542466 0.084931 0.284530
Si Si2 0.214405 0.293649 0.283463
Si Si3 0.703268 0.159761 0.280432
Si Si4 0.297947 0.838873 0.785612
Si Si5 0.921100 0.214308 0.719637
Si Si6 0.458450 0.541551 0.216748
O O1 0.546697 0.093394 0.500000
O O2 0.623013 0.124374 0.217030
O O3 0.500354 0.000707 0.253792
O O4 0.210172 0.287143 0.500000
O O5 0.137658 0.275316 0.215751
O O6 0.266519 0.375895 0.243340
O O7 0.245529 0.245880 0.215535
O O8 0.702192 0.160189 0.500000
O O9 0.760178 0.239823 0.225071
O O10 0.736347 0.111128 0.227416
O O11 0.238169 0.761831 0.714908
O O12 0.377714 0.876367 0.715579
O O13 0.301840 0.830567 0.000000
O O14 0.922318 0.214918 0.500000
O O15 0.864793 0.135208 0.775703
O O16 0.455824 0.544177 0.000000
#
# Coordination Sequence:
#
# PCOD9585440 Si02
#       6
#     6  12  12  12  12   6
#     4  10  18  28  46  68  88 114 148 184 224 264
#     4   9  16  26  43  66  86 106 139 180 215 250
#     4   8  14  24  37  58  85 109 137 172 209 249
#     4   9  18  32  46  62  86 114 142 174 218 265
#     4   8  13  22  37  56  81 110 135 162 200 246
#     4  10  20  32  46  66  90 114 144 184 224 264
#
# _framework density 19.470523
#
# number of rings (size 3 to 8) (size 9 to 14) (size 15 to 20)
#    0.000    3.200    0.000    2.400    0.000    2.400 
#    1.200    0.000    0.000    1.600    0.000    8.400 
#    0.000    0.000    0.000    0.000    0.000    0.000 
#
# Total GULP energy -334555.165245 kJ/mol
# GULP energy per Si atom -5575.919421 kJ/mol
# Density = 1.942621 g / cm^3
# Si number density = 19.470523 Si / 1000 Ang^3
#
#
#
# Elastic Constant Matrix: (Units=GPa)
#
#
# Indices 1 2 3 4 5 6 
#
# 1 187.0462 139.6245 4.4848 0.0000 -0.0009 0.0000
# 2 139.6245 187.0462 4.4848 0.0000 0.0009 0.0000
# 3 4.4848 4.4848 63.2334 0.0000 0.0000 0.0000
# 4 0.0000 0.0000 0.0000 3.1595 0.0000 0.0009
# 5 -0.0009 0.0009 0.0000 0.0000 3.1595 0.0000
# 6 0.0000 0.0000 0.0000 0.0009 0.0000 23.7109
#
#
#
# Elastic Compliance Matrix: (Units=1/GPa)
#
#
# Indices 1 2 3 4 5 6 
#
# 1 0.012077 -0.009010 -0.000218 0.000000 0.000006 0.000000
# 2 -0.009010 0.012077 -0.000218 0.000000 -0.000006 0.000000
# 3 -0.000218 -0.000218 0.015845 0.000000 0.000000 0.000000
# 4 0.000000 0.000000 0.000000 0.316501 0.000000 -0.000011
# 5 0.000006 -0.000006 0.000000 0.000000 0.316501 0.000000
# 6 0.000000 0.000000 0.000000 -0.000011 0.000000 0.042175
#
#
# Mechanical properties :
#
#
# Convention : Reuss Voigt Hill
#
# Bulk Modulus (GPa) = 47.37215 81.61265 64.49240
# Shear Modulus (GPa) = 6.74669 25.25477 16.00073
#
# Velocity S-wave (km/s) = 1.86349 3.60540 2.86980
# Velocity P-wave (km/s) = 5.38639 7.70318 6.64650
#
# Compressibility (1/GPa) = 0.02110945
#
# Stress axis : x y z
#
# Youngs Moduli (GPa) = 82.80014 82.80014 63.11030
#
# Poissons Ratio (x) = 0.74604 0.01373
# Poissons Ratio (y) = 0.74604 0.01373
# Poissons Ratio (z) = 0.01801 0.01801
#
# Static dielectric constant tensor:
#      x y z
#    x 1.667800 0.000000 0.000000 
#    y 0.000000 1.667800 0.000000 
#    z 0.000000 0.000000 1.752510 
# 
# From -- ./inp_files/666.got.cif
#   From: 2010.05.17/outbox.cif.g08.bks.cpg/sg187_1_cif.got.tgz:666.got - 2010.05.20 12:09:04.
