data_PCOD9585505
_publ_section_title
;
Structure prediction by ZEFSAII (Michael W. Deem and Ramdas Pophale) SiO2 
 PCOD9585505
Probable space group: P -6 M 2
;
_chemical_formula_sum "Si O2"
_cell_formula_units_Z 72
_cell_length_a 23.853119
_cell_length_b 23.853119
_cell_length_c 7.543951
_cell_angle_alpha 90.000000
_cell_angle_beta 90.000000
_cell_angle_gamma 120.000000
_cell_volume 3717.233481
_symmetry_space_group_name_H-M "P -6 M 2"
_symmetry_group_IT_number 187
_symmetry_cell_setting 'hexagonal'
loop_
_space_group_symop_operation_xyz
x,y,z
-x+y,-x,-z
-y,x-y,z
x,y,-z
-x+y,-x,z
-y,x-y,-z
-y,-x,-z
-x+y,y,-z
x,x-y,-z
-x+y,y,z
x,x-y,z
-y,-x,z
loop_
_atom_site_type_symbol
_atom_site_label
_atom_site_fract_x
_atom_site_fract_y
_atom_site_fract_z
Si Si1 0.599688 0.073730 0.213173
Si Si2 0.741154 0.000001 0.717284
Si Si3 0.129129 0.000001 0.716467
Si Si4 0.870412 0.614533 0.289266
Si Si5 0.614534 0.744122 0.289265
Si Si6 0.400309 0.474047 0.213174
O O1 0.545545 0.091090 0.274238
O O2 0.673511 0.120695 0.262529
O O3 0.575066 0.999996 0.275863
O O4 0.597047 0.071400 0.000000
O O5 0.739695 0.000001 0.500000
O O6 0.806071 0.999999 0.770429
O O7 0.677480 0.935132 0.779665
O O8 0.742351 0.064871 0.779665
O O9 0.128710 0.000001 0.500000
O O10 0.064646 0.935355 0.773812
O O11 0.129294 0.064647 0.773817
O O12 0.870574 0.624015 0.500000
O O13 0.804355 0.608710 0.218405
O O14 0.624017 0.753442 0.500000
O O15 0.608716 0.804358 0.218402
O O16 0.552814 0.673515 0.262529
O O17 0.454451 0.545550 0.274241
O O18 0.402950 0.474358 0.000000
#
# Coordination Sequence:
#
# PCOD9585505 Si02
#       6
#    12  12  12  12  12  12
#     4   9  18  33  52  73  97 125 159 199 243 293
#     4   9  16  27  40  59  91 128 160 195 240 286
#     4   9  15  22  33  50  76 115 162 205 240 276
#     4  10  19  30  47  73 102 132 166 200 239 290
#     4  10  19  30  47  73 102 132 166 200 239 290
#     4   9  18  33  52  73  97 125 159 199 243 293
#
# _framework density 19.369243999999998
#
# number of rings (size 3 to 8) (size 9 to 14) (size 15 to 20)
#    0.000    2.667    1.667    2.167    0.000    6.000 
#    0.000    1.667    0.000    0.667    0.000    0.000 
#    0.000    0.000    0.000    0.000    0.000   11.833 
#
# Total GULP energy -401798.809131 kJ/mol
# GULP energy per Si atom -5580.539016 kJ/mol
# Density = 1.932516 g / cm^3
# Si number density = 19.369244 Si / 1000 Ang^3
#
#
#
# Elastic Constant Matrix: (Units=GPa)
#
#
# Indices 1 2 3 4 5 6 
#
# 1 164.7606 114.3597 2.8133 0.0000 -0.0011 0.0000
# 2 114.3597 164.7606 2.8133 0.0000 0.0011 0.0000
# 3 2.8133 2.8133 45.4931 0.0000 0.0000 0.0000
# 4 0.0000 0.0000 0.0000 -48.3034 0.0000 0.0011
# 5 -0.0011 0.0011 0.0000 0.0000 -48.3034 0.0000
# 6 0.0000 0.0000 0.0000 0.0011 0.0000 25.2004
#
#
#
# Elastic Compliance Matrix: (Units=1/GPa)
#
#
# Indices 1 2 3 4 5 6 
#
# 1 0.011714 -0.008127 -0.000222 0.000000 0.000000 0.000000
# 2 -0.008127 0.011714 -0.000222 0.000000 0.000000 0.000000
# 3 -0.000222 -0.000222 0.022009 0.000000 0.000000 0.000000
# 4 0.000000 0.000000 0.000000 -0.020702 0.000000 0.000001
# 5 0.000000 0.000000 0.000000 0.000000 -0.020702 0.000000
# 6 0.000000 0.000000 0.000000 0.000001 0.000000 0.039682
#
#
# Mechanical properties :
#
#
# Convention : Reuss Voigt Hill
#
# Bulk Modulus (GPa) = 35.34095 68.33186 51.83641
# Shear Modulus (GPa) = 71.13709 2.72059 36.92884
#
# Velocity S-wave (km/s) = 6.06684 1.18644 4.37117
# Velocity P-wave (km/s) = 8.20737 6.10180 7.23163
#
# Compressibility (1/GPa) = 0.02829579
#
# Stress axis : x y z
#
# Youngs Moduli (GPa) = 85.36761 85.36761 45.43640
#
# Poissons Ratio (x) = 0.69377 0.01008
# Poissons Ratio (y) = 0.69377 0.01008
# Poissons Ratio (z) = 0.01894 0.01894
#
# Static dielectric constant tensor:
#      x y z
#    x 1.665020 0.000000 0.000000 
#    y 0.000000 1.665020 0.000000 
#    z 0.000000 0.000000 1.751300 
# 
# From -- ./inp_files/934.got.cif
#   From: 2010.05.17/outbox.cif.g08.bks.cpg/sg187_1_cif.got.tgz:934.got - 2010.05.20 12:09:04.
