data_PCOD9585000
_publ_section_title
;
Structure prediction by ZEFSAII (Michael W. Deem and Ramdas Pophale) SiO2 
 PCOD9585000
Probable space group: P 6 M M
;
_chemical_formula_sum "Si O2"
_cell_formula_units_Z 60
_cell_length_a 18.495599
_cell_length_b 18.495599
_cell_length_c 13.180169
_cell_angle_alpha 90.000000
_cell_angle_beta 90.000000
_cell_angle_gamma 120.000000
_cell_volume 3904.706655
_symmetry_space_group_name_H-M "P 6 M M"
_symmetry_group_IT_number 183
_symmetry_cell_setting 'hexagonal'
loop_
_space_group_symop_operation_xyz
x,y,z
x-y,x,z
-y,x-y,z
-x,-y,z
-x+y,-x,z
y,-x+y,z
-x+y,y,z
x,x-y,z
-y,-x,z
y,x,z
x-y,-y,z
-x,-x+y,z
loop_
_atom_site_type_symbol
_atom_site_label
_atom_site_fract_x
_atom_site_fract_y
_atom_site_fract_z
Si Si1 0.331988 0.495255 0.506100
Si Si2 0.838353 0.505662 0.732840
Si Si3 0.906963 0.365980 0.293425
Si Si4 0.734026 0.638315 0.911148
Si Si5 0.168429 0.499428 0.080457
O O1 0.257750 0.515500 0.500316
O O2 0.419364 0.580637 0.502755
O O3 0.328718 0.460037 0.618542
O O4 0.326412 0.444791 0.404909
O O5 0.741219 0.482438 0.739155
O O6 0.845192 0.422596 0.748145
O O7 0.886891 0.576435 0.815939
O O8 0.907960 0.453980 0.300341
O O9 0.848542 0.320979 0.198146
O O10 0.000000 0.387841 0.268376
O O11 0.831570 0.663140 0.909308
O O12 0.711722 0.711722 0.910267
O O13 0.692633 0.579312 0.009273
O O14 0.264326 0.528651 0.055796
O O15 0.150485 0.575243 0.064530
#
# Coordination Sequence:
#
# PCOD9585000 Si02
#       5
#    12  12  12  12  12
#     4   9  16  26  40  58  81 110 145 184 223 260
#     4   9  17  28  43  64  91 123 156 187 218 255
#     4   9  17  27  38  54  78 110 149 192 232 263
#     4  10  21  35  50  68  89 114 143 177 220 266
#     4  10  19  30  45  65  90 120 153 186 218 255
#
# _framework density 15.366072000000001
#
# number of rings (size 3 to 8) (size 9 to 14) (size 15 to 20)
#    0.000    2.600    0.000    2.400    0.000    4.800 
#    0.000    6.000    0.000    0.200    0.000    0.000 
#    0.000    0.000    0.000    0.000    0.000    0.000 
#
# Total GULP energy -334063.350933 kJ/mol
# GULP energy per Si atom -5567.722516 kJ/mol
# Density = 1.533110 g / cm^3
# Si number density = 15.366072 Si / 1000 Ang^3
#
#
#
# Elastic Constant Matrix: (Units=GPa)
#
#
# Indices 1 2 3 4 5 6 
#
# 1 49.7620 40.3614 30.9714 0.0000 0.0000 0.0000
# 2 40.3614 49.7620 30.9714 0.0000 0.0000 0.0000
# 3 30.9714 30.9714 89.2765 0.0000 0.0000 0.0000
# 4 0.0000 0.0000 0.0000 15.7742 0.0000 0.0000
# 5 0.0000 0.0000 0.0000 0.0000 15.7742 0.0000
# 6 0.0000 0.0000 0.0000 0.0000 0.0000 4.7003
#
#
#
# Elastic Compliance Matrix: (Units=1/GPa)
#
#
# Indices 1 2 3 4 5 6 
#
# 1 0.060473 -0.045903 -0.005055 0.000000 0.000000 0.000000
# 2 -0.045903 0.060473 -0.005055 0.000000 0.000000 0.000000
# 3 -0.005055 -0.005055 0.014708 0.000000 0.000000 0.000000
# 4 0.000000 0.000000 0.000000 0.063395 0.000000 0.000000
# 5 0.000000 0.000000 0.000000 0.000000 0.063395 0.000000
# 6 0.000000 0.000000 0.000000 0.000000 0.000000 0.212751
#
#
# Mechanical properties :
#
#
# Convention : Reuss Voigt Hill
#
# Bulk Modulus (GPa) = 42.31932 43.71212 43.01572
# Shear Modulus (GPa) = 8.40202 13.01617 10.70910
#
# Velocity S-wave (km/s) = 2.34089 2.91361 2.64281
# Velocity P-wave (km/s) = 5.90821 6.31092 6.11288
#
# Compressibility (1/GPa) = 0.02362987
#
# Stress axis : x y z
#
# Youngs Moduli (GPa) = 16.53637 16.53637 67.98951
#
# Poissons Ratio (x) = 0.75907 0.34366
# Poissons Ratio (y) = 0.75907 0.34366
# Poissons Ratio (z) = 0.08358 0.08358
#
# Static dielectric constant tensor:
#      x y z
#    x 1.492460 0.000000 0.000000 
#    y 0.000000 1.492460 0.000000 
#    z 0.000000 0.000000 1.566030 
# 
# From -- ./inp_files/1599.got.cif
#   From: 2010.05.17/outbox.cif.g08.bks.cpg/sg183_1_cif.got.tgz:1599.got - 2010.05.20 12:02:58.
