data_PCOD9585711
_publ_section_title
;
Structure prediction by ZEFSAII (Michael W. Deem and Ramdas Pophale) SiO2 
 PCOD9585711
Probable space group: P -6 M 2
;
_chemical_formula_sum "Si O2"
_cell_formula_units_Z 78
_cell_length_a 23.331055
_cell_length_b 23.331055
_cell_length_c 9.361096
_cell_angle_alpha 90.000000
_cell_angle_beta 90.000000
_cell_angle_gamma 120.000000
_cell_volume 4412.920318
_symmetry_space_group_name_H-M "P -6 M 2"
_symmetry_group_IT_number 187
_symmetry_cell_setting 'hexagonal'
loop_
_space_group_symop_operation_xyz
x,y,z
-x+y,-x,-z
-y,x-y,z
x,y,-z
-x+y,-x,z
-y,x-y,-z
-y,-x,-z
-x+y,y,-z
x,x-y,-z
-x+y,y,z
x,x-y,z
-y,-x,z
loop_
_atom_site_type_symbol
_atom_site_label
_atom_site_fract_x
_atom_site_fract_y
_atom_site_fract_z
Si Si1 0.732384 0.133051 0.336536
Si Si2 0.800703 0.064310 0.828846
Si Si3 0.918753 0.527676 0.834894
Si Si4 0.205575 0.277352 0.670031
Si Si5 0.040992 0.586366 0.346772
Si Si6 0.330918 0.800331 0.000000
Si Si7 0.278682 0.428359 0.735746
O O1 0.722261 0.108572 0.500000
O O2 0.792811 0.207190 0.336114
O O3 0.754758 0.091505 0.236773
O O4 0.667945 0.128575 0.267622
O O5 0.876687 0.123314 0.802552
O O6 0.776219 0.995569 0.745870
O O7 0.792088 0.054900 0.000000
O O8 0.912002 0.456001 0.818731
O O9 0.992355 0.579842 0.779693
O O10 0.909703 0.538114 0.000000
O O11 0.224459 0.286236 0.500000
O O12 0.129090 0.258180 0.676624
O O13 0.245918 0.348603 0.750699
O O14 0.005052 0.571839 0.500000
O O15 0.059737 0.529869 0.323958
O O16 0.104925 0.656779 0.353833
O O17 0.309529 0.830540 0.868347
O O18 0.278692 0.721309 0.000000
O O19 0.406713 0.813426 0.000000
O O20 0.218359 0.436717 0.677670
#
# Coordination Sequence:
#
# PCOD9585711 Si02
#       7
#    12  12  12  12  12   6  12
#     4  10  20  34  54  79 107 141 177 216 263 314
#     4  10  21  36  57  85 114 146 184 224 271 325
#     4  10  21  35  53  78 106 138 174 216 266 317
#     4  10  21  36  56  83 115 151 187 226 278 337
#     4  10  20  33  51  74 100 135 175 216 267 326
#     4  10  21  36  54  76 103 140 186 238 292 344
#     4  10  21  34  51  75 102 137 179 224 278 331
#
# _framework density 17.675370000000001
#
# number of rings (size 3 to 8) (size 9 to 14) (size 15 to 20)
#    0.000    2.000    0.000    3.308    2.154    4.000 
#    0.000    0.000    0.000    0.923    0.000    0.000 
#    0.000    0.000    0.000    0.000    0.000    0.000 
#
# Total GULP energy -434502.838171 kJ/mol
# GULP energy per Si atom -5570.549207 kJ/mol
# Density = 1.763514 g / cm^3
# Si number density = 17.675370 Si / 1000 Ang^3
#
#
#
# Elastic Constant Matrix: (Units=GPa)
#
#
# Indices 1 2 3 4 5 6 
#
# 1 86.2275 45.4539 47.9006 0.0000 0.0002 0.0000
# 2 45.4539 86.2275 47.9006 0.0000 -0.0002 0.0000
# 3 47.9006 47.9006 97.2181 0.0000 0.0000 0.0000
# 4 0.0000 0.0000 0.0000 27.8972 0.0000 -0.0002
# 5 0.0002 -0.0002 0.0000 0.0000 27.8972 0.0000
# 6 0.0000 0.0000 0.0000 -0.0002 0.0000 20.3868
#
#
#
# Elastic Compliance Matrix: (Units=1/GPa)
#
#
# Indices 1 2 3 4 5 6 
#
# 1 0.018181 -0.006344 -0.005832 0.000000 0.000000 0.000000
# 2 -0.006344 0.018181 -0.005832 0.000000 0.000000 0.000000
# 3 -0.005832 -0.005832 0.016034 0.000000 0.000000 0.000000
# 4 0.000000 0.000000 0.000000 0.035846 0.000000 0.000000
# 5 0.000000 0.000000 0.000000 0.000000 0.035846 0.000000
# 6 0.000000 0.000000 0.000000 0.000000 0.000000 0.049051
#
#
# Mechanical properties :
#
#
# Convention : Reuss Voigt Hill
#
# Bulk Modulus (GPa) = 61.05541 61.35370 61.20455
# Shear Modulus (GPa) = 23.29733 23.79746 23.54739
#
# Velocity S-wave (km/s) = 3.63446 3.67326 3.65391
# Velocity P-wave (km/s) = 7.22703 7.26479 7.24594
#
# Compressibility (1/GPa) = 0.01637857
#
# Stress axis : x y z
#
# Youngs Moduli (GPa) = 55.00105 55.00105 62.36928
#
# Poissons Ratio (x) = 0.34894 0.36376
# Poissons Ratio (y) = 0.34894 0.36376
# Poissons Ratio (z) = 0.32079 0.32079
#
# Static dielectric constant tensor:
#      x y z
#    x 1.606310 0.000000 0.000000 
#    y 0.000000 1.606310 0.000000 
#    z 0.000000 0.000000 1.637890 
# 
# From -- ./inp_files/1183.got.cif
#   From: 2010.05.17/outbox.cif.g08.bks.cpg/sg187_1_cif.got.tgz:1183.got - 2010.05.20 12:09:04.
