data_PCOD9585286
_publ_section_title
;
Structure prediction by ZEFSAII (Michael W. Deem and Ramdas Pophale) SiO2 
 PCOD9585286
Probable space group: P 63 C M
;
_chemical_formula_sum "Si O2"
_cell_formula_units_Z 84
_cell_length_a 19.224971
_cell_length_b 19.224971
_cell_length_c 14.425420
_cell_angle_alpha 90.000000
_cell_angle_beta 90.000000
_cell_angle_gamma 120.000000
_cell_volume 4617.325433
_symmetry_space_group_name_H-M "P 63 C M"
_symmetry_group_IT_number 185
_symmetry_cell_setting 'hexagonal'
loop_
_space_group_symop_operation_xyz
x,y,z
x-y,x,1/2+z
-y,x-y,z
-x,-y,1/2+z
-x+y,-x,z
y,-x+y,1/2+z
-x+y,y,1/2+z
x,x-y,1/2+z
-y,-x,1/2+z
y,x,z
x-y,-y,z
-x,-x+y,z
loop_
_atom_site_type_symbol
_atom_site_label
_atom_site_fract_x
_atom_site_fract_y
_atom_site_fract_z
Si Si1 0.586690 0.097806 0.321440
Si Si2 0.097797 0.444067 0.008332
Si Si3 0.694687 0.792800 0.322072
Si Si4 0.511116 0.413310 0.111445
Si Si5 0.694687 0.901887 0.610813
Si Si6 0.902203 0.346269 0.424553
Si Si7 0.809580 0.904790 0.966443
O O1 0.652517 0.124072 0.402675
O O2 0.612857 0.126156 0.216443
O O3 0.520928 0.119488 0.360310
O O4 0.539886 0.000000 0.319083
O O5 0.119488 0.520928 0.072575
O O6 0.125010 0.386315 0.054083
O O7 0.000000 0.393888 0.006608
O O8 0.742266 0.742266 0.320700
O O9 0.679446 0.805486 0.216443
O O10 0.613685 0.738695 0.378802
O O11 0.752037 0.873524 0.377143
O O12 0.460114 0.460114 0.113802
O O13 0.471555 0.347483 0.030210
O O14 0.752037 0.878513 0.555742
O O15 0.742266 0.000000 0.612185
O O16 0.000000 0.393888 0.426277
O O17 0.863614 0.863614 0.965819
O O18 0.863614 0.000000 0.967066
#
# Coordination Sequence:
#
# PCOD9585286 Si02
#       7
#    12  12  12  12  12  12  12
#     4   8  12  18  31  55  88 122 148 165 182 215
#     4   8  13  21  35  57  85 116 147 173 201 252
#     4   9  17  30  47  64  82 107 142 187 244 314
#     4   8  12  18  31  55  88 122 148 165 182 215
#     4   9  17  30  47  64  82 107 142 187 244 314
#     4   8  13  21  35  57  85 116 147 173 201 252
#     4  10  21  36  52  68  84 106 148 214 290 356
#
# _framework density 18.192350000000001
#
# number of rings (size 3 to 8) (size 9 to 14) (size 15 to 20)
#    0.000    3.429    0.000    2.714    0.000    4.000 
#    0.000    1.429    0.000    6.857    0.000    0.000 
#    0.000    0.000    0.000    6.857    0.000   32.571 
#
# Total GULP energy -467821.042197 kJ/mol
# GULP energy per Si atom -5569.298121 kJ/mol
# Density = 1.815094 g / cm^3
# Si number density = 18.192350 Si / 1000 Ang^3
#
#
#
# Elastic Constant Matrix: (Units=GPa)
#
#
# Indices 1 2 3 4 5 6 
#
# 1 44.4348 31.4953 50.1953 0.0000 0.0000 0.0000
# 2 31.4953 44.4348 50.1953 0.0000 0.0000 0.0000
# 3 50.1953 50.1953 200.5851 0.0000 0.0000 0.0000
# 4 0.0000 0.0000 0.0000 13.6967 0.0000 0.0000
# 5 0.0000 0.0000 0.0000 0.0000 13.6967 0.0000
# 6 0.0000 0.0000 0.0000 0.0000 0.0000 6.4698
#
#
#
# Elastic Compliance Matrix: (Units=1/GPa)
#
#
# Indices 1 2 3 4 5 6 
#
# 1 0.048482 -0.028800 -0.004925 0.000000 0.000000 0.000000
# 2 -0.028800 0.048482 -0.004925 0.000000 0.000000 0.000000
# 3 -0.004925 -0.004925 0.007450 0.000000 0.000000 0.000000
# 4 0.000000 0.000000 0.000000 0.073010 0.000000 0.000000
# 5 0.000000 0.000000 0.000000 0.000000 0.073010 0.000000
# 6 0.000000 0.000000 0.000000 0.000000 0.000000 0.154565
#
#
# Mechanical properties :
#
#
# Convention : Reuss Voigt Hill
#
# Bulk Modulus (GPa) = 36.88242 61.46963 49.17603
# Shear Modulus (GPa) = 10.17623 17.27721 13.72672
#
# Velocity S-wave (km/s) = 2.36766 3.08506 2.74986
# Velocity P-wave (km/s) = 5.27182 6.82292 6.09689
#
# Compressibility (1/GPa) = 0.02711319
#
# Stress axis : x y z
#
# Youngs Moduli (GPa) = 20.62607 20.62607 134.21964
#
# Poissons Ratio (x) = 0.59404 0.66107
# Poissons Ratio (y) = 0.59404 0.66107
# Poissons Ratio (z) = 0.10159 0.10159
#
# Static dielectric constant tensor:
#      x y z
#    x 1.618310 0.000000 0.000000 
#    y 0.000000 1.618310 0.000000 
#    z 0.000000 0.000000 1.637940 
# 
# From -- ./inp_files/1502.got.cif
#   From: 2010.05.17/outbox.cif.g08.bks.cpg/sg185_cif.got.tgz:1502.got - 2010.05.20 12:05:34.
