data_PCOD9585659
_publ_section_title
;
Structure prediction by ZEFSAII (Michael W. Deem and Ramdas Pophale) SiO2 
 PCOD9585659
Probable space group: P -6 M 2
;
_chemical_formula_sum "Si O2"
_cell_formula_units_Z 72
_cell_length_a 12.689841
_cell_length_b 12.689841
_cell_length_c 31.759400
_cell_angle_alpha 90.000000
_cell_angle_beta 90.000000
_cell_angle_gamma 120.000000
_cell_volume 4429.097920
_symmetry_space_group_name_H-M "P -6 M 2"
_symmetry_group_IT_number 187
_symmetry_cell_setting 'hexagonal'
loop_
_space_group_symop_operation_xyz
x,y,z
-x+y,-x,-z
-y,x-y,z
x,y,-z
-x+y,-x,z
-y,x-y,-z
-y,-x,-z
-x+y,y,-z
x,x-y,-z
-x+y,y,z
x,x-y,z
-y,-x,z
loop_
_atom_site_type_symbol
_atom_site_label
_atom_site_fract_x
_atom_site_fract_y
_atom_site_fract_z
Si Si1 0.666335 0.583855 0.172828
Si Si2 0.250239 0.000435 0.254095
Si Si3 0.000399 0.250909 0.000000
Si Si4 0.749631 0.999461 0.500000
Si Si5 0.333619 0.416075 0.418240
Si Si6 0.666484 0.583776 0.664028
Si Si7 0.252358 0.999416 0.092348
O O1 0.779120 0.558239 0.172950
O O2 0.540171 0.459830 0.176022
O O3 0.687748 0.670857 0.212514
O O4 0.676530 0.655580 0.129884
O O5 0.219561 0.109781 0.253293
O O6 0.332357 0.021964 0.295234
O O7 0.128459 0.871541 0.255032
O O8 0.004563 0.307478 0.045692
O O9 0.114002 0.228004 0.000000
O O10 0.876761 0.123240 0.000000
O O11 0.871065 0.128936 0.500000
O O12 0.780702 0.890351 0.500000
O O13 0.668694 0.979982 0.458670
O O14 0.214088 0.428175 0.412972
O O15 0.452287 0.547714 0.424644
O O16 0.356713 0.357324 0.376926
O O17 0.785895 0.571790 0.658159
O O18 0.547994 0.452006 0.670375
O O19 0.124602 0.875399 0.098274
O O20 0.230728 0.115364 0.093228
#
# Coordination Sequence:
#
# PCOD9585659 Si02
#       7
#    12  12   6   6  12  12  12
#     4  10  20  33  49  68  93 126 162 198 234 278
#     4  10  20  34  53  76 100 124 153 194 244 294
#     4   8  13  22  39  66  96 122 148 182 230 284
#     4  10  20  34  52  74 100 130 166 208 254 300
#     4  10  20  34  53  76 103 135 170 208 249 294
#     4  10  20  34  53  76 103 135 169 204 240 283
#     4   9  16  27  46  71  97 122 150 189 237 286
#
# _framework density 16.256131
#
# number of rings (size 3 to 8) (size 9 to 14) (size 15 to 20)
#    0.000    2.333    0.000    3.250    0.000    1.333 
#    0.000    4.583    0.000   14.667    0.000    1.167 
#    0.000    0.000    0.000    0.000    0.000    0.000 
#
# Total GULP energy -401492.973794 kJ/mol
# GULP energy per Si atom -5576.291303 kJ/mol
# Density = 1.621913 g / cm^3
# Si number density = 16.256131 Si / 1000 Ang^3
#
#
#
# Elastic Constant Matrix: (Units=GPa)
#
#
# Indices 1 2 3 4 5 6 
#
# 1 115.1201 80.1112 90.5212 0.0000 0.0004 0.0000
# 2 80.1112 115.1201 90.5212 0.0000 -0.0004 0.0000
# 3 90.5212 90.5212 165.4387 0.0000 0.0000 0.0000
# 4 0.0000 0.0000 0.0000 20.9698 0.0000 -0.0004
# 5 0.0004 -0.0004 0.0000 0.0000 20.9698 0.0000
# 6 0.0000 0.0000 0.0000 -0.0004 0.0000 17.5045
#
#
#
# Elastic Compliance Matrix: (Units=1/GPa)
#
#
# Indices 1 2 3 4 5 6 
#
# 1 0.019481 -0.009083 -0.005689 0.000000 -0.000001 0.000000
# 2 -0.009083 0.019481 -0.005689 0.000000 0.000001 0.000000
# 3 -0.005689 -0.005689 0.012270 0.000000 0.000000 0.000000
# 4 0.000000 0.000000 0.000000 0.047688 0.000000 0.000001
# 5 -0.000001 0.000001 0.000000 0.000000 0.047688 0.000000
# 6 0.000000 0.000000 0.000000 0.000001 0.000000 0.057128
#
#
# Mechanical properties :
#
#
# Convention : Reuss Voigt Hill
#
# Bulk Modulus (GPa) = 97.00195 101.99845 99.50020
# Shear Modulus (GPa) = 20.15349 20.85718 20.50533
#
# Velocity S-wave (km/s) = 3.52482 3.58583 3.55546
# Velocity P-wave (km/s) = 8.73879 8.94567 8.84283
#
# Compressibility (1/GPa) = 0.01030907
#
# Stress axis : x y z
#
# Youngs Moduli (GPa) = 51.33187 51.33187 81.49637
#
# Poissons Ratio (x) = 0.46625 0.46366
# Poissons Ratio (y) = 0.46625 0.46366
# Poissons Ratio (z) = 0.29204 0.29204
#
# Static dielectric constant tensor:
#      x y z
#    x 1.510140 0.000000 0.000000 
#    y 0.000000 1.510140 0.000000 
#    z 0.000000 0.000000 1.558580 
# 
# From -- ./inp_files/4588.got.cif
#   From: 2010.05.17/outbox.cif.g08.bks.cpg/sg187_3_cif.got.tgz:4588.got - 2010.05.20 12:09:04.
