data_PCOD9585454
_publ_section_title
;
Structure prediction by ZEFSAII (Michael W. Deem and Ramdas Pophale) SiO2 
 PCOD9585454
Probable space group: P -6 M 2
;
_chemical_formula_sum "Si O2"
_cell_formula_units_Z 72
_cell_length_a 24.282912
_cell_length_b 24.282912
_cell_length_c 9.026975
_cell_angle_alpha 90.000000
_cell_angle_beta 90.000000
_cell_angle_gamma 120.000000
_cell_volume 4609.718480
_symmetry_space_group_name_H-M "P -6 M 2"
_symmetry_group_IT_number 187
_symmetry_cell_setting 'hexagonal'
loop_
_space_group_symop_operation_xyz
x,y,z
-x+y,-x,-z
-y,x-y,z
x,y,-z
-x+y,-x,z
-y,x-y,-z
-y,-x,-z
-x+y,y,-z
x,x-y,-z
-x+y,y,z
x,x-y,z
-y,-x,z
loop_
_atom_site_type_symbol
_atom_site_label
_atom_site_fract_x
_atom_site_fract_y
_atom_site_fract_z
Si Si1 0.368271 0.506593 0.321931
Si Si2 0.148960 0.297919 0.680631
Si Si3 0.001791 0.226408 0.677966
Si Si4 0.374787 0.301078 0.323032
Si Si5 0.889773 0.779546 0.829803
Si Si6 0.222660 0.445320 0.319709
Si Si7 0.374896 0.187448 0.170829
Si Si8 0.563185 0.999669 0.823615
O O1 0.368451 0.497426 0.500000
O O2 0.419591 0.580410 0.291679
O O3 0.296311 0.482388 0.274671
O O4 0.394271 0.465182 0.242712
O O5 0.149565 0.299130 0.500000
O O6 0.185443 0.260589 0.726309
O O7 0.185811 0.371621 0.729450
O O8 0.999354 0.218859 0.500000
O O9 0.972325 0.271898 0.712357
O O10 0.955939 0.157761 0.749886
O O11 0.380644 0.303317 0.500000
O O12 0.394627 0.252599 0.254528
O O13 0.414925 0.370178 0.253177
O O14 0.851167 0.702333 0.826970
O O15 0.900175 0.800350 0.000000
O O16 0.222122 0.444244 0.500000
O O17 0.395246 0.197623 0.000000
O O18 0.509415 0.018830 0.794224
O O19 0.570976 0.998538 0.000000
#
# Coordination Sequence:
#
# PCOD9585454 Si02
#       8
#    12   6  12  12   6   6   6  12
#     4   9  17  30  47  66  88 120 159 200 245 296
#     4   9  16  26  43  66  90 117 151 190 234 278
#     4   9  17  29  46  67  89 117 151 187 224 272
#     4  10  18  29  47  70  95 123 155 190 229 274
#     4   9  17  29  45  64  88 117 143 174 218 266
#     4   9  16  28  45  67  94 120 151 197 250 297
#     4   9  17  29  45  67  96 124 149 179 218 265
#     4  10  20  32  46  65  92 125 158 194 236 284
#
# _framework density 15.619175
#
# number of rings (size 3 to 8) (size 9 to 14) (size 15 to 20)
#    0.000    2.667    0.000    2.500    0.000    6.333 
#    0.500    0.833    0.000    1.333    0.000    1.167 
#    0.833    0.000    1.500    0.000    1.500    0.000 
#
# Total GULP energy -401313.589105 kJ/mol
# GULP energy per Si atom -5573.799849 kJ/mol
# Density = 1.558363 g / cm^3
# Si number density = 15.619175 Si / 1000 Ang^3
#
#
#
# Elastic Constant Matrix: (Units=GPa)
#
#
# Indices 1 2 3 4 5 6 
#
# 1 132.0099 87.8652 52.6875 0.0000 0.0000 0.0000
# 2 87.8652 132.0099 52.6875 0.0000 0.0000 0.0000
# 3 52.6875 52.6875 47.1723 0.0000 0.0000 0.0000
# 4 0.0000 0.0000 0.0000 14.5203 0.0000 0.0000
# 5 0.0000 0.0000 0.0000 0.0000 14.5203 0.0000
# 6 0.0000 0.0000 0.0000 0.0000 0.0000 22.0723
#
#
#
# Elastic Compliance Matrix: (Units=1/GPa)
#
#
# Indices 1 2 3 4 5 6 
#
# 1 0.016220 -0.006433 -0.010931 0.000000 0.000000 0.000000
# 2 -0.006433 0.016220 -0.010931 0.000000 0.000000 0.000000
# 3 -0.010931 -0.010931 0.045617 0.000000 0.000000 0.000000
# 4 0.000000 0.000000 0.000000 0.068869 0.000000 0.000000
# 5 0.000000 0.000000 0.000000 0.000000 0.068869 0.000000
# 6 0.000000 0.000000 0.000000 0.000000 0.000000 0.045306
#
#
# Mechanical properties :
#
#
# Convention : Reuss Voigt Hill
#
# Bulk Modulus (GPa) = 46.58432 77.51915 62.05174
# Shear Modulus (GPa) = 15.39196 18.08604 16.73900
#
# Velocity S-wave (km/s) = 3.14260 3.40654 3.27723
# Velocity P-wave (km/s) = 6.56184 8.07534 7.35761
#
# Compressibility (1/GPa) = 0.02146645
#
# Stress axis : x y z
#
# Youngs Moduli (GPa) = 61.65331 61.65331 21.92182
#
# Poissons Ratio (x) = 0.39662 0.23962
# Poissons Ratio (y) = 0.39662 0.23962
# Poissons Ratio (z) = 0.67392 0.67392
#
# Static dielectric constant tensor:
#      x y z
#    x 1.507860 0.000000 0.000000 
#    y 0.000000 1.507860 0.000000 
#    z 0.000000 0.000000 1.517580 
# 
# From -- ./inp_files/1111.got.cif
#   From: 2010.05.17/outbox.cif.g08.bks.cpg/sg187_1_cif.got.tgz:1111.got - 2010.05.20 12:09:04.
