data_PCOD9585044
_publ_section_title
;
Structure prediction by ZEFSAII (Michael W. Deem and Ramdas Pophale) SiO2 
 PCOD9585044
Probable space group: P 6 M M
;
_chemical_formula_sum "Si O2"
_cell_formula_units_Z 48
_cell_length_a 22.120805
_cell_length_b 22.120805
_cell_length_c 7.082833
_cell_angle_alpha 90.000000
_cell_angle_beta 90.000000
_cell_angle_gamma 120.000000
_cell_volume 3001.507884
_symmetry_space_group_name_H-M "P 6 M M"
_symmetry_group_IT_number 183
_symmetry_cell_setting 'hexagonal'
loop_
_space_group_symop_operation_xyz
x,y,z
x-y,x,z
-y,x-y,z
-x,-y,z
-x+y,-x,z
y,-x+y,z
-x+y,y,z
x,x-y,z
-y,-x,z
y,x,z
x-y,-y,z
-x,-x+y,z
loop_
_atom_site_type_symbol
_atom_site_label
_atom_site_fract_x
_atom_site_fract_y
_atom_site_fract_z
Si Si1 0.190152 0.524311 0.714130
Si Si2 0.277707 0.413879 0.387901
Si Si3 0.079273 0.780730 0.707445
Si Si4 0.331855 0.411740 0.981735
O O1 0.261504 0.523008 0.748284
O O2 0.203724 0.601862 0.697508
O O3 0.156472 0.479664 0.523875
O O4 0.135576 0.482693 0.880682
O O5 0.208446 0.416891 0.332634
O O6 0.251873 0.345878 0.519944
O O7 0.317204 0.412897 0.202025
O O8 0.139097 0.860904 0.719106
O O9 0.088122 0.737456 0.878962
O O10 0.000000 0.763589 0.707539
O O11 0.391344 0.391344 0.949285
#
# Coordination Sequence:
#
# PCOD9585044 Si02
#       4
#    12  12  12  12
#     4  10  21  36  52  70  94 126 162 195 228 272
#     4   9  17  31  50  71  95 121 153 195 239 280
#     4   9  17  29  47  71  97 125 157 193 233 278
#     4  10  19  32  51  74  98 122 151 192 241 286
#
# _framework density 15.991961
#
# number of rings (size 3 to 8) (size 9 to 14) (size 15 to 20)
#    0.000    2.500    0.000    4.750    0.000    2.500 
#    0.000    0.000    0.000    3.250    0.000    0.000 
#    0.000    0.000    0.000    8.000    0.000    0.000 
#
# Total GULP energy -267696.578912 kJ/mol
# GULP energy per Si atom -5577.012061 kJ/mol
# Density = 1.595556 g / cm^3
# Si number density = 15.991961 Si / 1000 Ang^3
#
#
#
# Elastic Constant Matrix: (Units=GPa)
#
#
# Indices 1 2 3 4 5 6 
#
# 1 84.8950 49.6934 32.5036 0.0000 0.0000 0.0000
# 2 49.6934 84.8950 32.5036 0.0000 0.0000 0.0000
# 3 32.5036 32.5036 77.7152 0.0000 0.0000 0.0000
# 4 0.0000 0.0000 0.0000 11.8968 0.0000 0.0000
# 5 0.0000 0.0000 0.0000 0.0000 11.8968 0.0000
# 6 0.0000 0.0000 0.0000 0.0000 0.0000 17.6008
#
#
#
# Elastic Compliance Matrix: (Units=1/GPa)
#
#
# Indices 1 2 3 4 5 6 
#
# 1 0.018859 -0.009548 -0.003894 0.000000 0.000000 0.000000
# 2 -0.009548 0.018859 -0.003894 0.000000 0.000000 0.000000
# 3 -0.003894 -0.003894 0.016125 0.000000 0.000000 0.000000
# 4 0.000000 0.000000 0.000000 0.084057 0.000000 0.000000
# 5 0.000000 0.000000 0.000000 0.000000 0.084057 0.000000
# 6 0.000000 0.000000 0.000000 0.000000 0.000000 0.056816
#
#
# Mechanical properties :
#
#
# Convention : Reuss Voigt Hill
#
# Bulk Modulus (GPa) = 52.16479 52.98959 52.57719
# Shear Modulus (GPa) = 15.63300 17.13250 16.38275
#
# Velocity S-wave (km/s) = 3.12998 3.27665 3.20415
# Velocity P-wave (km/s) = 6.76406 6.89365 6.82916
#
# Compressibility (1/GPa) = 0.01917002
#
# Stress axis : x y z
#
# Youngs Moduli (GPa) = 53.02394 53.02394 62.01569
#
# Poissons Ratio (x) = 0.50629 0.24150
# Poissons Ratio (y) = 0.50629 0.24150
# Poissons Ratio (z) = 0.20649 0.20649
#
# Static dielectric constant tensor:
#      x y z
#    x 1.524950 0.000000 0.000000 
#    y 0.000000 1.524950 0.000000 
#    z 0.000000 0.000000 1.527250 
# 
# From -- ./inp_files/276.got.cif
#   From: 2010.05.17/outbox.cif.g08.bks.cpg/sg183_1_cif.got.tgz:276.got - 2010.05.20 12:02:58.
