data_PCOD9585100
_publ_section_title
;
Structure prediction by ZEFSAII (Michael W. Deem and Ramdas Pophale) SiO2 
 PCOD9585100
Probable space group: P 6 C C
;
_chemical_formula_sum "Si O2"
_cell_formula_units_Z 96
_cell_length_a 18.646074
_cell_length_b 18.646074
_cell_length_c 17.922239
_cell_angle_alpha 90.000000
_cell_angle_beta 90.000000
_cell_angle_gamma 120.000000
_cell_volume 5396.320097
_symmetry_space_group_name_H-M "P 6 C C"
_symmetry_group_IT_number 184
_symmetry_cell_setting 'hexagonal'
loop_
_space_group_symop_operation_xyz
x,y,z
x-y,x,z
-y,x-y,z
-x,-y,z
-x+y,-x,z
y,-x+y,z
-x+y,y,1/2+z
x,x-y,1/2+z
-y,-x,1/2+z
y,x,1/2+z
x-y,-y,1/2+z
-x,-x+y,1/2+z
loop_
_atom_site_type_symbol
_atom_site_label
_atom_site_fract_x
_atom_site_fract_y
_atom_site_fract_z
Si Si1 0.158229 0.992912 0.129490
Si Si2 0.993275 0.753148 0.491045
Si Si3 0.404610 0.436051 0.182187
Si Si4 0.749886 0.599187 0.084229
Si Si5 0.752187 0.090858 0.187823
Si Si6 0.156902 0.743819 0.457208
Si Si7 0.403371 0.963850 0.858980
Si Si8 0.245477 0.339987 0.861264
O O1 0.161056 0.074911 0.153653
O O2 0.170094 0.992833 0.040418
O O3 0.231002 0.981471 0.161759
O O4 0.920954 0.671992 0.533456
O O5 0.957319 0.744577 0.408306
O O6 0.079044 0.752089 0.488006
O O7 0.500000 0.500000 0.164267
O O8 0.336910 0.441275 0.129126
O O9 0.395974 0.345482 0.175008
O O10 0.388501 0.446221 0.270205
O O11 0.825699 0.636003 0.142856
O O12 0.777434 0.549974 0.025722
O O13 0.771948 0.103590 0.274545
O O14 0.111708 0.656031 0.413995
O O15 0.204824 0.814719 0.395849
O O16 0.500000 0.000000 0.874154
O O17 0.382616 0.037724 0.871332
#
# Coordination Sequence:
#
# PCOD9585100 Si02
#       8
#    12  12  12  12  12  12  12  12
#     4  12  21  33  50  73 106 142 183 221 266 320
#     4  10  18  34  51  74 105 139 179 222 270 324
#     4  10  20  34  55  85 115 148 188 243 296 339
#     4  11  18  33  55  80 111 142 188 231 279 340
#     4  11  19  35  57  80 108 145 189 232 281 342
#     4  10  18  32  53  81 108 141 187 231 278 333
#     4   9  19  35  54  80 117 149 186 235 294 352
#     4   9  20  32  55  82 103 138 188 235 281 328
#
# _framework density 17.789899999999999
#
# number of rings (size 3 to 8) (size 9 to 14) (size 15 to 20)
#    0.000    1.750    3.750    1.625    0.000    2.000 
#    0.000   10.000    0.000    1.000    0.000    8.750 
#    0.000    0.000    0.000    0.000    0.000    0.000 
#
# Total GULP energy -534707.300582 kJ/mol
# GULP energy per Si atom -5569.867714 kJ/mol
# Density = 1.774941 g / cm^3
# Si number density = 17.789900 Si / 1000 Ang^3
#
#
#
# Elastic Constant Matrix: (Units=GPa)
#
#
# Indices 1 2 3 4 5 6 
#
# 1 72.6198 34.6644 43.1999 0.0000 0.0000 0.0000
# 2 34.6644 72.6198 43.1999 0.0000 0.0000 0.0000
# 3 43.1999 43.1999 104.7859 0.0000 0.0000 0.0000
# 4 0.0000 0.0000 0.0000 20.7341 0.0000 0.0000
# 5 0.0000 0.0000 0.0000 0.0000 20.7341 0.0000
# 6 0.0000 0.0000 0.0000 0.0000 0.0000 18.9777
#
#
#
# Elastic Compliance Matrix: (Units=1/GPa)
#
#
# Indices 1 2 3 4 5 6 
#
# 1 0.020150 -0.006196 -0.005753 0.000000 0.000000 0.000000
# 2 -0.006196 0.020150 -0.005753 0.000000 0.000000 0.000000
# 3 -0.005753 -0.005753 0.014287 0.000000 0.000000 0.000000
# 4 0.000000 0.000000 0.000000 0.048230 0.000000 0.000000
# 5 0.000000 0.000000 0.000000 0.000000 0.048230 0.000000
# 6 0.000000 0.000000 0.000000 0.000000 0.000000 0.052693
#
#
# Mechanical properties :
#
#
# Convention : Reuss Voigt Hill
#
# Bulk Modulus (GPa) = 52.12824 54.68376 53.40600
# Shear Modulus (GPa) = 20.36340 20.68660 20.52500
#
# Velocity S-wave (km/s) = 3.38695 3.41373 3.40037
# Velocity P-wave (km/s) = 6.68289 6.80760 6.74553
#
# Compressibility (1/GPa) = 0.01918346
#
# Stress axis : x y z
#
# Youngs Moduli (GPa) = 49.62698 49.62698 69.99539
#
# Poissons Ratio (x) = 0.30751 0.40267
# Poissons Ratio (y) = 0.30751 0.40267
# Poissons Ratio (z) = 0.28549 0.28549
#
# Static dielectric constant tensor:
#      x y z
#    x 1.612770 0.000000 0.000000 
#    y 0.000000 1.612770 0.000000 
#    z 0.000000 0.000000 1.676490 
# 
# From -- ./inp_files/1297.got.cif
#   From: 2010.05.17/outbox.cif.g08.bks.cpg/sg184_cif.got.tgz:1297.got - 2010.05.20 12:04:40.
