data_PCOD9585640
_publ_section_title
;
Structure prediction by ZEFSAII (Michael W. Deem and Ramdas Pophale) SiO2 
 PCOD9585640
Probable space group: P -6 M 2
;
_chemical_formula_sum "Si O2"
_cell_formula_units_Z 60
_cell_length_a 12.676310
_cell_length_b 12.676310
_cell_length_c 26.592697
_cell_angle_alpha 90.000000
_cell_angle_beta 90.000000
_cell_angle_gamma 120.000000
_cell_volume 3700.656027
_symmetry_space_group_name_H-M "P -6 M 2"
_symmetry_group_IT_number 187
_symmetry_cell_setting 'hexagonal'
loop_
_space_group_symop_operation_xyz
x,y,z
-x+y,-x,-z
-y,x-y,z
x,y,-z
-x+y,-x,z
-y,x-y,-z
-y,-x,-z
-x+y,y,-z
x,x-y,-z
-x+y,y,z
x,x-y,z
-y,-x,z
loop_
_atom_site_type_symbol
_atom_site_label
_atom_site_fract_x
_atom_site_fract_y
_atom_site_fract_z
Si Si1 0.917720 0.584402 0.304447
Si Si2 0.082133 0.665928 0.206510
Si Si3 0.253084 0.000523 0.889882
Si Si4 0.748902 0.000324 0.000000
Si Si5 0.415553 0.082533 0.500000
Si Si6 0.250856 0.000437 0.597671
O O1 0.783928 0.567856 0.299642
O O2 0.909486 0.454743 0.312241
O O3 0.995233 0.643248 0.254108
O O4 0.981430 0.671669 0.351993
O O5 0.103973 0.551987 0.203433
O O6 0.208998 0.791003 0.212704
O O7 0.019924 0.676899 0.155526
O O8 0.249378 0.124689 0.883293
O O9 0.115681 0.884320 0.889245
O O10 0.308249 0.004103 0.945483
O O11 0.753935 0.876968 0.000000
O O12 0.885212 0.114789 0.000000
O O13 0.538625 0.077250 0.500000
O O14 0.444929 0.222465 0.500000
O O15 0.334981 0.020279 0.549346
O O16 0.128581 0.871420 0.596563
O O17 0.220594 0.110297 0.596540
#
# Coordination Sequence:
#
# PCOD9585640 Si02
#       6
#    12  12  12   6   6  12
#     4  10  20  34  53  75  98 124 156 198 245 291
#     4  10  20  33  48  66  92 127 164 198 232 276
#     4   9  16  27  45  69  94 118 147 187 237 287
#     4   8  13  22  39  64  92 118 144 180 230 286
#     4  10  20  34  54  78 104 134 168 208 250 290
#     4  10  20  34  53  76 102 131 162 197 238 285
#
# _framework density 16.213342999999998
#
# number of rings (size 3 to 8) (size 9 to 14) (size 15 to 20)
#    0.000    2.400    0.000    3.100    0.000    1.600 
#    0.000    3.500    0.000   13.600    0.000    1.400 
#    0.000    0.000    0.000    0.000    0.000    0.000 
#
# Total GULP energy -334464.351054 kJ/mol
# GULP energy per Si atom -5574.405851 kJ/mol
# Density = 1.617644 g / cm^3
# Si number density = 16.213343 Si / 1000 Ang^3
#
#
#
# Elastic Constant Matrix: (Units=GPa)
#
#
# Indices 1 2 3 4 5 6 
#
# 1 203.5959 -34.8521 83.3717 0.0000 -0.0098 0.0001
# 2 -34.8521 203.5959 83.3717 0.0000 0.0098 -0.0001
# 3 83.3717 83.3717 171.4996 0.0000 0.0000 0.0000
# 4 0.0000 0.0000 0.0000 21.6388 0.0000 0.0098
# 5 -0.0098 0.0098 0.0000 0.0000 21.6388 0.0000
# 6 0.0001 -0.0001 0.0000 0.0098 0.0000 119.2239
#
#
#
# Elastic Compliance Matrix: (Units=1/GPa)
#
#
# Indices 1 2 3 4 5 6 
#
# 1 0.007799 0.003605 -0.005544 0.000000 0.000002 0.000000
# 2 0.003605 0.007799 -0.005544 0.000000 -0.000002 0.000000
# 3 -0.005544 -0.005544 0.011221 0.000000 0.000000 0.000000
# 4 0.000000 0.000000 0.000000 0.046213 0.000000 -0.000004
# 5 0.000002 -0.000002 0.000000 0.000000 0.046213 0.000000
# 6 0.000000 0.000000 0.000000 -0.000004 0.000000 0.008388
#
#
# Mechanical properties :
#
#
# Convention : Reuss Voigt Hill
#
# Bulk Modulus (GPa) = 84.36072 93.60824 88.98448
# Shear Modulus (GPa) = 34.11782 62.28696 48.20239
#
# Velocity S-wave (km/s) = 4.59225 6.20488 5.45844
# Velocity P-wave (km/s) = 8.95896 10.44962 9.73287
#
# Compressibility (1/GPa) = 0.01185386
#
# Stress axis : x y z
#
# Youngs Moduli (GPa) = 128.21882 128.21882 89.11625
#
# Poissons Ratio (x) = -0.46228 0.49407
# Poissons Ratio (y) = -0.46228 0.49407
# Poissons Ratio (z) = 0.71086 0.71086
#
# Static dielectric constant tensor:
#      x y z
#    x 1.413050 0.000000 0.000000 
#    y 0.000000 1.413050 0.000000 
#    z 0.000000 0.000000 1.560730 
# 
# From -- ./inp_files/4162.got.cif
#   From: 2010.05.17/outbox.cif.g08.bks.cpg/sg187_3_cif.got.tgz:4162.got - 2010.05.20 12:09:04.
