data_PCOD9585926
_publ_section_title
;
Structure prediction by ZEFSAII (Michael W. Deem and Ramdas Pophale) SiO2 
 PCOD9585926
Probable space group: P -6 C 2
;
_chemical_formula_sum "Si O2"
_cell_formula_units_Z 76
_cell_length_a 19.437150
_cell_length_b 19.437150
_cell_length_c 13.800266
_cell_angle_alpha 90.000000
_cell_angle_beta 90.000000
_cell_angle_gamma 120.000000
_cell_volume 4515.265183
_symmetry_space_group_name_H-M "P -6 C 2"
_symmetry_group_IT_number 188
_symmetry_cell_setting 'hexagonal'
loop_
_space_group_symop_operation_xyz
x,y,z
-x+y,-x,1/2-z
-y,x-y,z
x,y,1/2-z
-x+y,-x,z
-y,x-y,1/2-z
-y,-x,-z
-x+y,y,-z
x,x-y,-z
-x+y,y,1/2+z
x,x-y,1/2+z
-y,-x,1/2+z
loop_
_atom_site_type_symbol
_atom_site_label
_atom_site_fract_x
_atom_site_fract_y
_atom_site_fract_z
Si Si1 0.532478 0.160093 0.362999
Si Si2 0.809872 0.292646 0.864169
Si Si3 0.259813 0.487534 0.359327
Si Si4 0.333333 0.666667 0.885805
Si Si5 0.330386 0.414452 0.867742
Si Si6 0.408629 0.046119 0.507818
Si Si7 0.496034 0.919360 0.366141
O O1 0.516935 0.137674 0.250000
O O2 0.505466 0.224858 0.382342
O O3 0.624395 0.189300 0.380467
O O4 0.479098 0.087015 0.430384
O O5 0.826734 0.288990 0.750000
O O6 0.879016 0.295128 0.931334
O O7 0.257327 0.459240 0.250000
O O8 0.274540 0.576949 0.354336
O O9 0.171449 0.430860 0.397197
O O10 0.341801 0.499637 0.401861
O O11 0.333334 0.666667 0.000000
O O12 0.326726 0.399278 0.750000
O O13 0.336313 0.351244 0.938339
O O14 0.412208 0.498075 0.886306
O O15 0.423630 0.993859 0.585364
O O16 0.503744 0.924481 0.250000
#
# Coordination Sequence:
#
# PCOD9585926 Si02
#       7
#    12  12  12   4  12  12  12
#     4  10  20  34  51  69  87 110 141 179 222 269
#     4  10  20  34  51  69  87 110 141 179 222 269
#     4  10  20  34  46  58  82 116 154 199 241 270
#     4  12  22  26  46  66  82 104 154 210 250 275
#     4  10  20  31  45  62  83 114 150 189 233 273
#     4  12  22  31  45  63  92 114 138 175 228 280
#     4  10  20  31  45  62  83 114 150 189 233 273
#
# _framework density 16.831790000000002
#
# number of rings (size 3 to 8) (size 9 to 14) (size 15 to 20)
#    0.000    1.579    1.579    5.053    2.211    3.789 
#    0.000    1.579    0.000    0.000    0.000    0.000 
#    0.000    0.000    0.000    0.000    0.000    0.000 
#
# Total GULP energy -424038.591051 kJ/mol
# GULP energy per Si atom -5579.455145 kJ/mol
# Density = 1.679348 g / cm^3
# Si number density = 16.831790 Si / 1000 Ang^3
#
#
#
# Elastic Constant Matrix: (Units=GPa)
#
#
# Indices 1 2 3 4 5 6 
#
# 1 52.0336 21.1156 20.6598 0.0000 0.0000 0.0000
# 2 21.1156 52.0335 20.6598 0.0000 0.0000 0.0000
# 3 20.6598 20.6598 74.3661 0.0000 0.0000 0.0000
# 4 0.0000 0.0000 0.0000 24.6287 0.0000 0.0000
# 5 0.0000 0.0000 0.0000 0.0000 24.6287 0.0000
# 6 0.0000 0.0000 0.0000 0.0000 0.0000 15.4589
#
#
#
# Elastic Compliance Matrix: (Units=1/GPa)
#
#
# Indices 1 2 3 4 5 6 
#
# 1 0.024279 -0.008064 -0.004505 0.000000 0.000000 0.000000
# 2 -0.008064 0.024280 -0.004505 0.000000 0.000000 0.000000
# 3 -0.004505 -0.004505 0.015950 0.000000 0.000000 0.000000
# 4 0.000000 0.000000 0.000000 0.040603 0.000000 0.000000
# 5 0.000000 0.000000 0.000000 0.000000 0.040603 0.000000
# 6 0.000000 0.000000 0.000000 0.000000 0.000000 0.064687
#
#
# Mechanical properties :
#
#
# Convention : Reuss Voigt Hill
#
# Bulk Modulus (GPa) = 32.93659 33.70040 33.31849
# Shear Modulus (GPa) = 19.63320 20.67645 20.15482
#
# Velocity S-wave (km/s) = 3.41902 3.50868 3.46414
# Velocity P-wave (km/s) = 5.93269 6.03985 5.98651
#
# Compressibility (1/GPa) = 0.03036137
#
# Stress axis : x y z
#
# Youngs Moduli (GPa) = 41.18701 41.18695 62.69597
#
# Poissons Ratio (x) = 0.33214 0.28243
# Poissons Ratio (y) = 0.33214 0.28243
# Poissons Ratio (z) = 0.18554 0.18554
#
# Static dielectric constant tensor:
#      x y z
#    x 1.587810 0.000000 0.000000 
#    y 0.000000 1.587810 0.000000 
#    z 0.000000 0.000000 1.661420 
# 
# From -- ./inp_files/2478.got.cif
#   From: 2010.05.17/outbox.cif.g08.bks.cpg/sg188_2_cif.got.tgz:2478.got - 2010.05.20 12:11:46.
