data_PCOD9585112
_publ_section_title
;
Structure prediction by ZEFSAII (Michael W. Deem and Ramdas Pophale) SiO2 
 PCOD9585112
Probable space group: P 6 C C
;
_chemical_formula_sum "Si O2"
_cell_formula_units_Z 96
_cell_length_a 14.862554
_cell_length_b 14.862554
_cell_length_c 26.924163
_cell_angle_alpha 90.000000
_cell_angle_beta 90.000000
_cell_angle_gamma 120.000000
_cell_volume 5150.622657
_symmetry_space_group_name_H-M "P 6 C C"
_symmetry_group_IT_number 184
_symmetry_cell_setting 'hexagonal'
loop_
_space_group_symop_operation_xyz
x,y,z
x-y,x,z
-y,x-y,z
-x,-y,z
-x+y,-x,z
y,-x+y,z
-x+y,y,1/2+z
x,x-y,1/2+z
-y,-x,1/2+z
y,x,1/2+z
x-y,-y,1/2+z
-x,-x+y,1/2+z
loop_
_atom_site_type_symbol
_atom_site_label
_atom_site_fract_x
_atom_site_fract_y
_atom_site_fract_z
Si Si1 0.116094 0.489182 0.517420
Si Si2 0.809853 0.158336 0.886910
Si Si3 0.067713 0.236206 0.790047
Si Si4 0.405462 0.387521 0.412243
Si Si5 0.095660 0.236989 0.987136
Si Si6 0.008316 0.400673 0.117506
Si Si7 0.544755 0.836598 0.539114
Si Si8 0.193908 0.961076 0.674241
O O1 0.068052 0.425913 0.467380
O O2 0.057559 0.427265 0.566606
O O3 0.114070 0.595348 0.514525
O O4 0.233146 0.517771 0.527759
O O5 0.785402 0.108315 0.832206
O O6 0.892336 0.282481 0.884183
O O7 0.859474 0.114937 0.927559
O O8 0.693517 0.098575 0.909757
O O9 0.144891 0.192529 0.798671
O O10 0.062042 0.263085 0.732788
O O11 0.500000 0.500000 0.397215
O O12 0.163741 0.186281 0.001698
O O13 0.130981 0.344698 0.014975
O O14 0.967133 0.295042 0.148426
O O15 0.000000 0.500000 0.137899
O O16 0.124829 0.440651 0.096311
O O17 0.074913 0.869194 0.663234
#
# Coordination Sequence:
#
# PCOD9585112 Si02
#       8
#    12  12  12  12  12  12  12  12
#     4  11  22  35  59  83 117 160 213 256 309 357
#     4  12  21  39  61  84 119 162 204 256 310 364
#     4  10  19  35  62  91 120 150 196 250 308 372
#     4  12  25  40  59  89 127 168 211 260 311 374
#     4  12  22  35  53  81 119 161 198 244 301 375
#     4  10  21  37  59  84 121 167 211 259 314 372
#     4  11  21  37  55  82 116 159 209 262 301 361
#     4  10  21  38  63  95 125 159 201 258 325 387
#
# _framework density 18.638522999999999
#
# number of rings (size 3 to 8) (size 9 to 14) (size 15 to 20)
#    0.000    1.000    3.750    4.750    0.000    1.000 
#    0.750    1.875    0.000    2.000    0.000    0.000 
#    0.000    0.000    0.000    0.000    0.000    0.000 
#
# Total GULP energy -534420.097923 kJ/mol
# GULP energy per Si atom -5566.876020 kJ/mol
# Density = 1.859610 g / cm^3
# Si number density = 18.638523 Si / 1000 Ang^3
#
#
#
# Elastic Constant Matrix: (Units=GPa)
#
#
# Indices 1 2 3 4 5 6 
#
# 1 128.7419 43.6048 39.8367 0.0000 0.0000 0.0000
# 2 43.6048 128.7419 39.8367 0.0000 0.0000 0.0000
# 3 39.8367 39.8367 53.5421 0.0000 0.0000 0.0000
# 4 0.0000 0.0000 0.0000 26.2228 0.0000 0.0000
# 5 0.0000 0.0000 0.0000 0.0000 26.2228 0.0000
# 6 0.0000 0.0000 0.0000 0.0000 0.0000 42.5686
#
#
#
# Elastic Compliance Matrix: (Units=1/GPa)
#
#
# Indices 1 2 3 4 5 6 
#
# 1 0.010295 -0.001451 -0.006580 0.000000 0.000000 0.000000
# 2 -0.001451 0.010295 -0.006580 0.000000 0.000000 0.000000
# 3 -0.006580 -0.006580 0.028469 0.000000 0.000000 0.000000
# 4 0.000000 0.000000 0.000000 0.038135 0.000000 0.000000
# 5 0.000000 0.000000 0.000000 0.000000 0.038135 0.000000
# 6 0.000000 0.000000 0.000000 0.000000 0.000000 0.023492
#
#
# Mechanical properties :
#
#
# Convention : Reuss Voigt Hill
#
# Bulk Modulus (GPa) = 50.41366 61.95360 56.18363
# Shear Modulus (GPa) = 27.07755 31.51935 29.29845
#
# Velocity S-wave (km/s) = 3.81566 4.11674 3.96906
# Velocity P-wave (km/s) = 6.82050 7.47720 7.15638
#
# Compressibility (1/GPa) = 0.01983589
#
# Stress axis : x y z
#
# Youngs Moduli (GPa) = 97.13444 97.13444 35.12613
#
# Poissons Ratio (x) = 0.14092 0.23114
# Poissons Ratio (y) = 0.14092 0.23114
# Poissons Ratio (z) = 0.63918 0.63918
#
# Static dielectric constant tensor:
#      x y z
#    x 1.706650 0.000000 0.000000 
#    y 0.000000 1.706650 0.000000 
#    z 0.000000 0.000000 1.691950 
# 
# From -- ./inp_files/1380.got.cif
#   From: 2010.05.17/outbox.cif.g08.bks.cpg/sg184_cif.got.tgz:1380.got - 2010.05.20 12:04:40.
