data_PCOD9585025
_publ_section_title
;
Structure prediction by ZEFSAII (Michael W. Deem and Ramdas Pophale) SiO2 
 PCOD9585025
Probable space group: P 6 M M
;
_chemical_formula_sum "Si O2"
_cell_formula_units_Z 84
_cell_length_a 17.959850
_cell_length_b 17.959850
_cell_length_c 18.169485
_cell_angle_alpha 90.000000
_cell_angle_beta 90.000000
_cell_angle_gamma 120.000000
_cell_volume 5075.497985
_symmetry_space_group_name_H-M "P 6 M M"
_symmetry_group_IT_number 183
_symmetry_cell_setting 'hexagonal'
loop_
_space_group_symop_operation_xyz
x,y,z
x-y,x,z
-y,x-y,z
-x,-y,z
-x+y,-x,z
y,-x+y,z
-x+y,y,z
x,x-y,z
-y,-x,z
y,x,z
x-y,-y,z
-x,-x+y,z
loop_
_atom_site_type_symbol
_atom_site_label
_atom_site_fract_x
_atom_site_fract_y
_atom_site_fract_z
Si Si1 0.366463 0.096889 0.853680
Si Si2 0.533104 0.897008 0.149545
Si Si3 0.668358 0.505423 0.985826
Si Si4 0.900119 0.632117 0.292357
Si Si5 0.509479 0.842125 0.431360
Si Si6 0.158240 0.490815 0.715183
Si Si7 0.901717 0.630041 0.573359
O O1 0.339741 0.169871 0.849372
O O2 0.416910 0.109881 0.930138
O O3 0.434895 0.117490 0.788387
O O4 0.290336 0.000000 0.846769
O O5 0.434539 0.869077 0.168088
O O6 0.579180 0.878655 0.216218
O O7 0.583572 0.000000 0.140432
O O8 0.533235 0.857556 0.070755
O O9 0.737417 0.474834 0.971481
O O10 0.572247 0.427754 0.973815
O O11 0.832442 0.664884 0.302699
O O12 0.883905 0.565946 0.358519
O O13 0.000000 0.704186 0.291590
O O14 0.425996 0.851991 0.433746
O O15 0.483657 0.741829 0.431288
O O16 0.570208 0.884182 0.501976
O O17 0.258728 0.517455 0.714804
O O18 0.147827 0.573914 0.712635
O O19 0.115897 0.429438 0.644996
O O20 0.828965 0.657930 0.573189
O O21 0.000000 0.705663 0.573274
#
# Coordination Sequence:
#
# PCOD9585025 Si02
#       7
#    12  12  12  12  12  12  12
#     4  10  21  35  51  71  94 122 156 196 241 285
#     4   9  17  29  46  68  93 122 157 195 232 273
#     4  10  19  30  45  67  97 131 164 195 227 266
#     4  10  20  33  49  69  93 122 157 197 240 283
#     4  10  20  33  50  73 101 131 160 190 226 271
#     4  10  20  33  50  73 102 134 165 195 228 269
#     4  10  21  35  51  72  97 127 162 201 244 285
#
# _framework density 16.550101000000002
#
# number of rings (size 3 to 8) (size 9 to 14) (size 15 to 20)
#    0.000    2.143    0.000    3.429    0.000    4.857 
#    0.000    2.857    0.000    5.000    0.000    0.000 
#    0.000    6.857    0.000    4.571    0.000    0.571 
#
# Total GULP energy -468791.375336 kJ/mol
# GULP energy per Si atom -5580.849706 kJ/mol
# Density = 1.651243 g / cm^3
# Si number density = 16.550101 Si / 1000 Ang^3
#
#
#
# Elastic Constant Matrix: (Units=GPa)
#
#
# Indices 1 2 3 4 5 6 
#
# 1 101.0446 75.7986 40.4356 0.0000 0.0000 0.0000
# 2 75.7986 101.0446 40.4356 0.0000 0.0000 0.0000
# 3 40.4356 40.4356 84.2740 0.0000 0.0000 0.0000
# 4 0.0000 0.0000 0.0000 11.3044 0.0000 0.0000
# 5 0.0000 0.0000 0.0000 0.0000 11.3044 0.0000
# 6 0.0000 0.0000 0.0000 0.0000 0.0000 12.6230
#
#
#
# Elastic Compliance Matrix: (Units=1/GPa)
#
#
# Indices 1 2 3 4 5 6 
#
# 1 0.023427 -0.016183 -0.003476 0.000000 0.000000 0.000000
# 2 -0.016183 0.023427 -0.003476 0.000000 0.000000 0.000000
# 3 -0.003476 -0.003476 0.015202 0.000000 0.000000 0.000000
# 4 0.000000 0.000000 0.000000 0.088461 0.000000 0.000000
# 5 0.000000 0.000000 0.000000 0.000000 0.088461 0.000000
# 6 0.000000 0.000000 0.000000 0.000000 0.000000 0.079220
#
#
# Mechanical properties :
#
#
# Convention : Reuss Voigt Hill
#
# Bulk Modulus (GPa) = 63.34483 66.63361 64.98922
# Shear Modulus (GPa) = 13.52339 15.69261 14.60800
#
# Velocity S-wave (km/s) = 2.86163 3.08261 2.97417
# Velocity P-wave (km/s) = 7.01970 7.28142 7.15176
#
# Compressibility (1/GPa) = 0.01578661
#
# Stress axis : x y z
#
# Youngs Moduli (GPa) = 42.68536 42.68536 65.78260
#
# Poissons Ratio (x) = 0.69078 0.22865
# Poissons Ratio (y) = 0.69078 0.22865
# Poissons Ratio (z) = 0.14837 0.14837
#
# Static dielectric constant tensor:
#      x y z
#    x 1.545400 0.000000 0.000000 
#    y 0.000000 1.545400 0.000000 
#    z 0.000000 0.000000 1.559820 
# 
# From -- ./inp_files/2257.got.cif
#   From: 2010.05.17/outbox.cif.g08.bks.cpg/sg183_2_cif.got.tgz:2257.got - 2010.05.20 12:02:58.
