data_PCOD9585058
_publ_section_title
;
Structure prediction by ZEFSAII (Michael W. Deem and Ramdas Pophale) SiO2 
 PCOD9585058
Probable space group: P 6 M M
;
_chemical_formula_sum "Si O2"
_cell_formula_units_Z 72
_cell_length_a 17.969058
_cell_length_b 17.969058
_cell_length_c 15.999703
_cell_angle_alpha 90.000000
_cell_angle_beta 90.000000
_cell_angle_gamma 120.000000
_cell_volume 4473.971092
_symmetry_space_group_name_H-M "P 6 M M"
_symmetry_group_IT_number 183
_symmetry_cell_setting 'hexagonal'
loop_
_space_group_symop_operation_xyz
x,y,z
x-y,x,z
-y,x-y,z
-x,-y,z
-x+y,-x,z
y,-x+y,z
-x+y,y,z
x,x-y,z
-y,-x,z
y,x,z
x-y,-y,z
-x,-x+y,z
loop_
_atom_site_type_symbol
_atom_site_label
_atom_site_fract_x
_atom_site_fract_y
_atom_site_fract_z
Si Si1 0.632010 0.903038 0.510630
Si Si2 0.268427 0.899618 0.192108
Si Si3 0.157318 0.489513 0.667535
Si Si4 0.466547 0.363966 0.030560
Si Si5 0.842005 0.509390 0.351098
Si Si6 0.162113 0.668558 0.851891
O O1 0.657336 0.828668 0.510114
O O2 0.578280 0.891711 0.595024
O O3 0.567268 0.882961 0.433154
O O4 0.709081 0.000000 0.504100
O O5 0.167394 0.832607 0.202185
O O6 0.301156 0.874395 0.108493
O O7 0.316231 0.884870 0.270187
O O8 0.297678 0.000000 0.187583
O O9 0.257268 0.514536 0.659440
O O10 0.149422 0.574711 0.659907
O O11 0.128482 0.451181 0.761276
O O12 0.568987 0.431014 0.039195
O O13 0.421093 0.421093 0.032031
O O14 0.446679 0.319439 0.939791
O O15 0.741786 0.483571 0.350327
O O16 0.851936 0.425968 0.351028
O O17 0.145113 0.572557 0.854034
O O18 0.263103 0.736898 0.850861
#
# Coordination Sequence:
#
# PCOD9585058 Si02
#       6
#    12  12  12  12  12  12
#     4  10  21  35  50  69  92 119 151 189 233 276
#     4  10  20  33  49  68  90 118 152 191 234 277
#     4   9  17  28  43  64  92 126 160 191 222 259
#     4   9  17  28  42  62  88 117 149 185 225 269
#     4  10  20  33  50  73 101 131 159 185 213 249
#     4   9  16  26  40  59  85 118 154 187 217 252
#
# _framework density 16.093084999999999
#
# number of rings (size 3 to 8) (size 9 to 14) (size 15 to 20)
#    0.000    2.500    0.000    2.500    0.000    5.000 
#    0.000    3.333    0.000    5.667    0.000    0.000 
#    0.000    4.000    0.000    0.000    0.000   21.667 
#
# Total GULP energy -401104.377012 kJ/mol
# GULP energy per Si atom -5570.894125 kJ/mol
# Density = 1.605646 g / cm^3
# Si number density = 16.093085 Si / 1000 Ang^3
#
#
#
# Elastic Constant Matrix: (Units=GPa)
#
#
# Indices 1 2 3 4 5 6 
#
# 1 68.3730 51.2432 37.1293 0.0000 0.0000 0.0000
# 2 51.2432 68.3730 37.1293 0.0000 0.0000 0.0000
# 3 37.1293 37.1293 140.7078 0.0000 0.0000 0.0000
# 4 0.0000 0.0000 0.0000 12.8565 0.0000 0.0000
# 5 0.0000 0.0000 0.0000 0.0000 12.8565 0.0000
# 6 0.0000 0.0000 0.0000 0.0000 0.0000 8.5649
#
#
#
# Elastic Compliance Matrix: (Units=1/GPa)
#
#
# Indices 1 2 3 4 5 6 
#
# 1 0.034188 -0.024190 -0.002638 0.000000 0.000000 0.000000
# 2 -0.024190 0.034188 -0.002638 0.000000 0.000000 0.000000
# 3 -0.002638 -0.002638 0.008499 0.000000 0.000000 0.000000
# 4 0.000000 0.000000 0.000000 0.077782 0.000000 0.000000
# 5 0.000000 0.000000 0.000000 0.000000 0.077782 0.000000
# 6 0.000000 0.000000 0.000000 0.000000 0.000000 0.116756
#
#
# Mechanical properties :
#
#
# Convention : Reuss Voigt Hill
#
# Bulk Modulus (GPa) = 55.73443 58.71748 57.22596
# Shear Modulus (GPa) = 12.07418 16.98573 14.52995
#
# Velocity S-wave (km/s) = 2.74208 3.25232 3.00804
# Velocity P-wave (km/s) = 6.68828 7.11820 6.90659
#
# Compressibility (1/GPa) = 0.01794223
#
# Stress axis : x y z
#
# Youngs Moduli (GPa) = 29.25019 29.25019 117.65774
#
# Poissons Ratio (x) = 0.70756 0.31040
# Poissons Ratio (y) = 0.70756 0.31040
# Poissons Ratio (z) = 0.07717 0.07717
#
# Static dielectric constant tensor:
#      x y z
#    x 1.567520 0.000000 0.000000 
#    y 0.000000 1.567520 0.000000 
#    z 0.000000 0.000000 1.577040 
# 
# From -- ./inp_files/2474.got.cif
#   From: 2010.05.17/outbox.cif.g08.bks.cpg/sg183_2_cif.got.tgz:2474.got - 2010.05.20 12:02:58.
