data_PCOD9585363
_publ_section_title
;
Structure prediction by ZEFSAII (Michael W. Deem and Ramdas Pophale) SiO2 
 PCOD9585363
Probable space group: P 63 M C
;
_chemical_formula_sum "Si O2"
_cell_formula_units_Z 96
_cell_length_a 24.229195
_cell_length_b 24.229195
_cell_length_c 12.092532
_cell_angle_alpha 90.000000
_cell_angle_beta 90.000000
_cell_angle_gamma 120.000000
_cell_volume 6147.886589
_symmetry_space_group_name_H-M "P 63 M C"
_symmetry_group_IT_number 186
_symmetry_cell_setting 'hexagonal'
loop_
_space_group_symop_operation_xyz
x,y,z
x-y,x,1/2+z
-y,x-y,z
-x,-y,1/2+z
-x+y,-x,z
y,-x+y,1/2+z
-x+y,y,z
x,x-y,z
-y,-x,z
y,x,1/2+z
x-y,-y,1/2+z
-x,-x+y,1/2+z
loop_
_atom_site_type_symbol
_atom_site_label
_atom_site_fract_x
_atom_site_fract_y
_atom_site_fract_z
Si Si1 0.278307 0.072005 0.164770
Si Si2 0.195769 0.934732 0.132897
Si Si3 0.227807 0.901245 0.904083
Si Si4 0.392677 0.261875 0.768046
Si Si5 0.065742 0.379772 0.501382
Si Si6 0.908908 0.393829 0.656817
Si Si7 0.357264 0.430761 0.927106
Si Si8 0.406298 0.467354 0.682794
O O1 0.275262 0.137631 0.155357
O O2 0.306857 0.067939 0.283732
O O3 0.323936 0.067286 0.072226
O O4 0.211262 0.005851 0.159877
O O5 0.123129 0.876872 0.144408
O O6 0.239098 0.914561 0.207005
O O7 0.218187 0.937173 0.006391
O O8 0.162102 0.837899 0.893451
O O9 0.281609 0.884400 0.933197
O O10 0.402448 0.201224 0.762695
O O11 0.448635 0.323752 0.707837
O O12 0.391285 0.282633 0.893888
O O13 0.084929 0.437248 0.588688
O O14 0.997037 0.366770 0.454362
O O15 0.886826 0.443413 0.694179
O O16 0.907931 0.388826 0.524334
O O17 0.983943 0.425940 0.684590
O O18 0.379896 0.459213 0.806469
O O19 0.460471 0.539530 0.658417
#
# Coordination Sequence:
#
# PCOD9585363 Si02
#       8
#    12  12  12  12  12  12  12  12
#     4  11  21  33  50  75 103 135 174 215 266 318
#     4  10  20  35  52  72  99 133 174 215 263 316
#     4  10  19  31  51  72  98 133 168 207 251 303
#     4  11  21  34  52  73  99 135 173 209 255 309
#     4  11  20  31  47  72 102 136 164 211 249 300
#     4  10  20  31  47  73  99 128 164 203 241 290
#     4  11  17  31  51  68 103 131 169 198 246 293
#     4  10  20  32  49  71 100 139 168 196 247 303
#
# _framework density 15.615123000000001
#
# number of rings (size 3 to 8) (size 9 to 14) (size 15 to 20)
#    0.000    1.500    5.000    2.250    0.000    1.000 
#    0.000    0.000    0.000    0.500    0.000    0.000 
#    0.000    0.000    0.000    1.000    0.000    0.125 
#
# Total GULP energy -534673.015907 kJ/mol
# GULP energy per Si atom -5569.510582 kJ/mol
# Density = 1.557958 g / cm^3
# Si number density = 15.615123 Si / 1000 Ang^3
#
#
#
# Elastic Constant Matrix: (Units=GPa)
#
#
# Indices 1 2 3 4 5 6 
#
# 1 66.3391 35.3447 23.6854 0.0000 0.0000 0.0000
# 2 35.3447 66.3391 23.6854 0.0000 0.0000 0.0000
# 3 23.6854 23.6854 88.7576 0.0000 0.0000 0.0000
# 4 0.0000 0.0000 0.0000 17.5687 0.0000 0.0000
# 5 0.0000 0.0000 0.0000 0.0000 17.5687 0.0000
# 6 0.0000 0.0000 0.0000 0.0000 0.0000 15.4972
#
#
#
# Elastic Compliance Matrix: (Units=1/GPa)
#
#
# Indices 1 2 3 4 5 6 
#
# 1 0.021747 -0.010517 -0.002997 0.000000 0.000000 0.000000
# 2 -0.010517 0.021747 -0.002997 0.000000 0.000000 0.000000
# 3 -0.002997 -0.002997 0.012866 0.000000 0.000000 0.000000
# 4 0.000000 0.000000 0.000000 0.056919 0.000000 0.000000
# 5 0.000000 0.000000 0.000000 0.000000 0.056919 0.000000
# 6 0.000000 0.000000 0.000000 0.000000 0.000000 0.064528
#
#
# Mechanical properties :
#
#
# Convention : Reuss Voigt Hill
#
# Bulk Modulus (GPa) = 42.84574 42.98520 42.91547
# Shear Modulus (GPa) = 18.14699 19.37496 18.76098
#
# Velocity S-wave (km/s) = 3.41272 3.52629 3.46997
# Velocity P-wave (km/s) = 6.55950 6.64585 6.60282
#
# Compressibility (1/GPa) = 0.02333954
#
# Stress axis : x y z
#
# Youngs Moduli (GPa) = 45.98291 45.98291 77.72347
#
# Poissons Ratio (x) = 0.48359 0.23293
# Poissons Ratio (y) = 0.48359 0.23293
# Poissons Ratio (z) = 0.13781 0.13781
#
# Static dielectric constant tensor:
#      x y z
#    x 1.523630 0.000000 0.000000 
#    y 0.000000 1.523630 0.000000 
#    z 0.000000 0.000000 1.593220 
# 
# From -- ./inp_files/2039.got.cif
#   From: 2010.05.17/outbox.cif.g08.bks.cpg/sg186_2_cif.got.tgz:2039.got - 2010.05.20 12:07:08.
