data_PCOD9585648
_publ_section_title
;
Structure prediction by ZEFSAII (Michael W. Deem and Ramdas Pophale) SiO2 
 PCOD9585648
Probable space group: P -6 M 2
;
_chemical_formula_sum "Si O2"
_cell_formula_units_Z 66
_cell_length_a 12.665266
_cell_length_b 12.665266
_cell_length_c 29.502462
_cell_angle_alpha 90.000000
_cell_angle_beta 90.000000
_cell_angle_gamma 120.000000
_cell_volume 4098.430003
_symmetry_space_group_name_H-M "P -6 M 2"
_symmetry_group_IT_number 187
_symmetry_cell_setting 'hexagonal'
loop_
_space_group_symop_operation_xyz
x,y,z
-x+y,-x,-z
-y,x-y,z
x,y,-z
-x+y,-x,z
-y,x-y,-z
-y,-x,-z
-x+y,y,-z
x,x-y,-z
-x+y,y,z
x,x-y,z
-y,-x,z
loop_
_atom_site_type_symbol
_atom_site_label
_atom_site_fract_x
_atom_site_fract_y
_atom_site_fract_z
Si Si1 0.333368 0.415297 0.911634
Si Si2 0.584546 0.666234 0.735317
Si Si3 0.666391 0.583988 0.823140
Si Si4 0.250383 0.999509 0.000000
Si Si5 0.253088 0.000252 0.351923
Si Si6 0.252770 0.000240 0.548687
O O1 0.214399 0.428798 0.906276
O O2 0.453005 0.546996 0.917665
O O3 0.353933 0.354870 0.867113
O O4 0.312070 0.331803 0.955475
O O5 0.580181 0.790091 0.740747
O O6 0.449298 0.550703 0.733571
O O7 0.651424 0.646454 0.778009
O O8 0.656545 0.677212 0.689053
O O9 0.795169 0.590337 0.824651
O O10 0.555795 0.444206 0.822676
O O11 0.258220 0.129110 0.000000
O O12 0.110101 0.889900 0.000000
O O13 0.251413 0.125706 0.346346
O O14 0.307244 0.001117 0.401990
O O15 0.114899 0.885102 0.351147
O O16 0.314026 0.004663 0.500000
O O17 0.122084 0.877917 0.547919
O O18 0.234524 0.117262 0.549299
#
# Coordination Sequence:
#
# PCOD9585648 Si02
#       6
#    12  12  12   6  12  12
#     4  10  20  34  54  78 104 134 167 204 241 279
#     4  10  20  33  49  67  89 120 157 196 233 271
#     4  10  20  34  52  73  97 124 154 191 236 285
#     4  10  20  34  52  74 102 136 172 210 252 296
#     4   9  16  26  42  65  92 119 146 181 228 280
#     4   8  12  18  31  54  84 115 144 175 216 269
#
# _framework density 16.103726999999999
#
# number of rings (size 3 to 8) (size 9 to 14) (size 15 to 20)
#    0.000    2.545    0.000    2.909    0.000    2.182 
#    0.000    2.727    0.000    8.545    0.000    0.000 
#    0.000    1.455    0.000    0.000    0.000    0.000 
#
# Total GULP energy -367645.441153 kJ/mol
# GULP energy per Si atom -5570.385472 kJ/mol
# Density = 1.606707 g / cm^3
# Si number density = 16.103727 Si / 1000 Ang^3
#
#
#
# Elastic Constant Matrix: (Units=GPa)
#
#
# Indices 1 2 3 4 5 6 
#
# 1 86.6913 58.2325 77.7897 0.0000 0.0001 0.0000
# 2 58.2325 86.6913 77.7897 0.0000 -0.0001 0.0000
# 3 77.7897 77.7897 186.4946 0.0000 0.0000 0.0000
# 4 0.0000 0.0000 0.0000 20.0186 0.0000 -0.0001
# 5 0.0001 -0.0001 0.0000 0.0000 20.0186 0.0000
# 6 0.0000 0.0000 0.0000 -0.0001 0.0000 14.2294
#
#
#
# Elastic Compliance Matrix: (Units=1/GPa)
#
#
# Indices 1 2 3 4 5 6 
#
# 1 0.023817 -0.011322 -0.005212 0.000000 0.000000 0.000000
# 2 -0.011322 0.023817 -0.005212 0.000000 0.000000 0.000000
# 3 -0.005212 -0.005212 0.009710 0.000000 0.000000 0.000000
# 4 0.000000 0.000000 0.000000 0.049953 0.000000 0.000001
# 5 0.000000 0.000000 0.000000 0.000000 0.049953 0.000000
# 6 0.000000 0.000000 0.000000 0.000001 0.000000 0.070277
#
#
# Mechanical properties :
#
#
# Convention : Reuss Voigt Hill
#
# Bulk Modulus (GPa) = 72.18733 87.50011 79.84372
# Shear Modulus (GPa) = 18.13982 20.59102 19.36542
#
# Velocity S-wave (km/s) = 3.35988 3.57970 3.47153
# Velocity P-wave (km/s) = 7.74439 8.45807 8.10908
#
# Compressibility (1/GPa) = 0.01385285
#
# Stress axis : x y z
#
# Youngs Moduli (GPa) = 41.98689 41.98689 102.98533
#
# Poissons Ratio (x) = 0.47536 0.53676
# Poissons Ratio (y) = 0.47536 0.53676
# Poissons Ratio (z) = 0.21884 0.21884
#
# Static dielectric constant tensor:
#      x y z
#    x 1.503330 0.000000 0.000000 
#    y 0.000000 1.503330 0.000000 
#    z 0.000000 0.000000 1.573010 
# 
# From -- ./inp_files/4411.got.cif
#   From: 2010.05.17/outbox.cif.g08.bks.cpg/sg187_3_cif.got.tgz:4411.got - 2010.05.20 12:09:04.
