data_PCOD9585121
_publ_section_title
;
Structure prediction by ZEFSAII (Michael W. Deem and Ramdas Pophale) SiO2 
 PCOD9585121
Probable space group: P 6 C C
;
_chemical_formula_sum "Si O2"
_cell_formula_units_Z 72
_cell_length_a 20.567391
_cell_length_b 20.567391
_cell_length_c 8.517052
_cell_angle_alpha 90.000000
_cell_angle_beta 90.000000
_cell_angle_gamma 120.000000
_cell_volume 3120.170592
_symmetry_space_group_name_H-M "P 6 C C"
_symmetry_group_IT_number 184
_symmetry_cell_setting 'hexagonal'
loop_
_space_group_symop_operation_xyz
x,y,z
x-y,x,z
-y,x-y,z
-x,-y,z
-x+y,-x,z
y,-x+y,z
-x+y,y,1/2+z
x,x-y,1/2+z
-y,-x,1/2+z
y,x,1/2+z
x-y,-y,1/2+z
-x,-x+y,1/2+z
loop_
_atom_site_type_symbol
_atom_site_label
_atom_site_fract_x
_atom_site_fract_y
_atom_site_fract_z
Si Si1 0.413135 0.335450 0.284820
Si Si2 0.038585 0.271393 0.423997
Si Si3 0.208512 0.518032 0.484999
Si Si4 0.185849 0.892047 0.773150
Si Si5 0.438993 0.579858 0.777320
Si Si6 0.437886 0.297938 0.955525
O O1 0.336091 0.316927 0.365437
O O2 0.440339 0.297270 0.414340
O O3 0.379970 0.139036 0.328949
O O4 0.397679 0.297237 0.115670
O O5 0.073247 0.282297 0.598007
O O6 0.101779 0.276536 0.304159
O O7 0.959312 0.198446 0.390685
O O8 0.174825 0.538339 0.633223
O O9 0.211097 0.575527 0.353627
O O10 0.275326 0.501136 0.503835
O O11 0.412817 0.491832 0.757026
O O12 0.511277 0.618925 0.887983
#
# Coordination Sequence:
#
# PCOD9585121 Si02
#       6
#    12  12  12  12  12  12
#     4  10  20  38  59  86 128 172 230 287 348 415
#     4  12  25  46  72 107 143 181 233 287 359 429
#     4  10  20  34  54  82 125 168 230 284 350 410
#     4  12  26  44  74 107 141 184 230 293 354 435
#     4  10  20  36  52  82 123 172 224 291 349 409
#     4  12  21  38  62  89 126 180 234 298 355 421
#
# _framework density 23.075662000000001
#
# number of rings (size 3 to 8) (size 9 to 14) (size 15 to 20)
#    1.000    0.000    3.333    5.000    0.000    0.000 
#    1.000    2.500    0.000    4.333    0.000    2.333 
#    0.000    0.000    0.000    0.000    0.000    0.000 
#
# Total GULP energy -401384.279686 kJ/mol
# GULP energy per Si atom -5574.781662 kJ/mol
# Density = 2.302314 g / cm^3
# Si number density = 23.075662 Si / 1000 Ang^3
#
#
#
# Elastic Constant Matrix: (Units=GPa)
#
#
# Indices 1 2 3 4 5 6 
#
# 1 83.1389 35.6156 25.7803 0.0000 0.0000 0.0000
# 2 35.6156 83.1389 25.7803 0.0000 0.0000 0.0000
# 3 25.7803 25.7803 139.0960 0.0000 0.0000 0.0000
# 4 0.0000 0.0000 0.0000 21.7452 0.0000 0.0000
# 5 0.0000 0.0000 0.0000 0.0000 21.7452 0.0000
# 6 0.0000 0.0000 0.0000 0.0000 0.0000 23.7617
#
#
#
# Elastic Compliance Matrix: (Units=1/GPa)
#
#
# Indices 1 2 3 4 5 6 
#
# 1 0.015100 -0.005942 -0.001697 0.000000 0.000000 0.000000
# 2 -0.005942 0.015100 -0.001697 0.000000 0.000000 0.000000
# 3 -0.001697 -0.001697 0.007818 0.000000 0.000000 0.000000
# 4 0.000000 0.000000 0.000000 0.045987 0.000000 0.000000
# 5 0.000000 0.000000 0.000000 0.000000 0.045987 0.000000
# 6 0.000000 0.000000 0.000000 0.000000 0.000000 0.042085
#
#
# Mechanical properties :
#
#
# Convention : Reuss Voigt Hill
#
# Bulk Modulus (GPa) = 51.69409 53.30292 52.49851
# Shear Modulus (GPa) = 25.35506 27.99693 26.67599
#
# Velocity S-wave (km/s) = 3.31838 3.48698 3.40372
# Velocity P-wave (km/s) = 6.09367 6.27386 6.18442
#
# Compressibility (1/GPa) = 0.01934457
#
# Stress axis : x y z
#
# Youngs Moduli (GPa) = 66.22527 66.22527 127.90275
#
# Poissons Ratio (x) = 0.39353 0.21709
# Poissons Ratio (y) = 0.39353 0.21709
# Poissons Ratio (z) = 0.11240 0.11240
#
# Static dielectric constant tensor:
#      x y z
#    x 1.909030 0.000000 0.000000 
#    y 0.000000 1.909030 0.000000 
#    z 0.000000 0.000000 1.927580 
# 
# From -- ./inp_files/357.got.cif
#   From: 2010.05.17/outbox.cif.g08.bks.cpg/sg184_cif.got.tgz:357.got - 2010.05.20 12:04:40.
