data_PCOD9585297
_publ_section_title
;
Structure prediction by ZEFSAII (Michael W. Deem and Ramdas Pophale) SiO2 
 PCOD9585297
Probable space group: P 63 C M
;
_chemical_formula_sum "Si O2"
_cell_formula_units_Z 84
_cell_length_a 22.520356
_cell_length_b 22.520356
_cell_length_c 10.997742
_cell_angle_alpha 90.000000
_cell_angle_beta 90.000000
_cell_angle_gamma 120.000000
_cell_volume 4830.417421
_symmetry_space_group_name_H-M "P 63 C M"
_symmetry_group_IT_number 185
_symmetry_cell_setting 'hexagonal'
loop_
_space_group_symop_operation_xyz
x,y,z
x-y,x,1/2+z
-y,x-y,z
-x,-y,1/2+z
-x+y,-x,z
y,-x+y,1/2+z
-x+y,y,1/2+z
x,x-y,1/2+z
-y,-x,1/2+z
y,x,z
x-y,-y,z
-x,-x+y,z
loop_
_atom_site_type_symbol
_atom_site_label
_atom_site_fract_x
_atom_site_fract_y
_atom_site_fract_z
Si Si1 0.250681 0.418622 0.669530
Si Si2 0.136282 0.701906 0.270346
Si Si3 0.631501 0.922972 0.885637
Si Si4 0.081475 0.271697 0.785400
Si Si5 0.382306 0.465971 0.518602
Si Si6 0.081920 0.604549 0.041355
Si Si7 0.297844 0.162728 0.030011
O O1 0.214524 0.458081 0.728849
O O2 0.246002 0.368243 0.776254
O O3 0.328965 0.455442 0.625824
O O4 0.203417 0.370604 0.560410
O O5 0.100416 0.748928 0.272849
O O6 0.116771 0.661360 0.396633
O O7 0.108102 0.644628 0.166589
O O8 0.660438 0.000000 0.843913
O O9 0.554831 0.893013 0.936374
O O10 0.679428 0.919305 0.989102
O O11 0.110487 0.258561 0.658562
O O12 0.000000 0.224223 0.789900
O O13 0.113925 0.265359 0.913240
O O14 0.413895 0.413895 0.524083
O O15 0.446551 0.542669 0.522908
O O16 0.000000 0.570314 0.041170
#
# Coordination Sequence:
#
# PCOD9585297 Si02
#       7
#    12  12  12  12  12  12  12
#     4  11  21  35  55  80 112 147 192 227 280 360
#     4  11  21  36  56  78 109 149 189 223 284 356
#     4  11  20  34  54  81 113 146 181 229 282 343
#     4  11  21  36  57  81 120 160 193 230 277 347
#     4  11  23  37  56  86 114 142 188 247 301 344
#     4  10  22  36  55  81 107 140 187 244 301 344
#     4  11  20  36  53  85 113 154 203 222 284 360
#
# _framework density 17.389802
#
# number of rings (size 3 to 8) (size 9 to 14) (size 15 to 20)
#    0.000    1.143    7.143    2.143    2.000    0.571 
#    0.000    0.000    0.000    0.571    3.714    0.000 
#    0.000    0.000    0.000   16.286    0.000    0.000 
#
# Total GULP energy -467836.424593 kJ/mol
# GULP energy per Si atom -5569.481245 kJ/mol
# Density = 1.735022 g / cm^3
# Si number density = 17.389802 Si / 1000 Ang^3
#
#
#
# Elastic Constant Matrix: (Units=GPa)
#
#
# Indices 1 2 3 4 5 6 
#
# 1 77.2053 28.1322 38.5442 0.0000 0.0000 0.0000
# 2 28.1322 77.2053 38.5442 0.0000 0.0000 0.0000
# 3 38.5442 38.5442 114.1522 0.0000 0.0000 0.0000
# 4 0.0000 0.0000 0.0000 23.8414 0.0000 0.0000
# 5 0.0000 0.0000 0.0000 0.0000 23.8414 0.0000
# 6 0.0000 0.0000 0.0000 0.0000 0.0000 24.5366
#
#
#
# Elastic Compliance Matrix: (Units=1/GPa)
#
#
# Indices 1 2 3 4 5 6 
#
# 1 0.016493 -0.003884 -0.004258 0.000000 0.000000 0.000000
# 2 -0.003884 0.016493 -0.004258 0.000000 0.000000 0.000000
# 3 -0.004258 -0.004258 0.011635 0.000000 0.000000 0.000000
# 4 0.000000 0.000000 0.000000 0.041944 0.000000 0.000000
# 5 0.000000 0.000000 0.000000 0.000000 0.041944 0.000000
# 6 0.000000 0.000000 0.000000 0.000000 0.000000 0.040756
#
#
# Mechanical properties :
#
#
# Convention : Reuss Voigt Hill
#
# Bulk Modulus (GPa) = 50.44545 53.22266 51.83406
# Shear Modulus (GPa) = 24.91629 25.33336 25.12483
#
# Velocity S-wave (km/s) = 3.78935 3.82094 3.80518
# Velocity P-wave (km/s) = 6.94386 7.08083 7.01268
#
# Compressibility (1/GPa) = 0.01982339
#
# Stress axis : x y z
#
# Youngs Moduli (GPa) = 60.63033 60.63033 85.94471
#
# Poissons Ratio (x) = 0.23551 0.36591
# Poissons Ratio (y) = 0.23551 0.36591
# Poissons Ratio (z) = 0.25813 0.25813
#
# Static dielectric constant tensor:
#      x y z
#    x 1.592470 0.000000 0.000000 
#    y 0.000000 1.592470 0.000000 
#    z 0.000000 0.000000 1.671110 
# 
# From -- ./inp_files/1027.got.cif
#   From: 2010.05.17/outbox.cif.g08.bks.cpg/sg185_cif.got.tgz:1027.got - 2010.05.20 12:05:34.
