data_PCOD9585818
_publ_section_title
;
Structure prediction by ZEFSAII (Michael W. Deem and Ramdas Pophale) SiO2 
 PCOD9585818
Probable space group: P -6 M 2
;
_chemical_formula_sum "Si O2"
_cell_formula_units_Z 60
_cell_length_a 23.980031
_cell_length_b 23.980031
_cell_length_c 7.528508
_cell_angle_alpha 90.000000
_cell_angle_beta 90.000000
_cell_angle_gamma 120.000000
_cell_volume 3749.203625
_symmetry_space_group_name_H-M "P -6 M 2"
_symmetry_group_IT_number 187
_symmetry_cell_setting 'hexagonal'
loop_
_space_group_symop_operation_xyz
x,y,z
-x+y,-x,-z
-y,x-y,z
x,y,-z
-x+y,-x,z
-y,x-y,-z
-y,-x,-z
-x+y,y,-z
x,x-y,-z
-x+y,y,z
x,x-y,z
-y,-x,z
loop_
_atom_site_type_symbol
_atom_site_label
_atom_site_fract_x
_atom_site_fract_y
_atom_site_fract_z
Si Si1 0.481099 0.087454 0.209512
Si Si2 0.820615 0.515078 0.500000
Si Si3 0.259534 0.865774 0.789546
Si Si4 0.330361 0.011718 0.786784
Si Si5 0.772470 0.101784 0.500000
Si Si6 0.207061 0.541267 0.714232
O O1 0.531534 0.063067 0.246988
O O2 0.501265 0.150381 0.328279
O O3 0.406236 0.036840 0.248351
O O4 0.485042 0.102322 0.000000
O O5 0.744714 0.489428 0.500000
O O6 0.855546 0.592858 0.500000
O O7 0.192188 0.807813 0.715289
O O8 0.312361 0.843742 0.764983
O O9 0.287160 0.938097 0.724935
O O10 0.250550 0.868220 0.000000
O O11 0.312626 0.057377 0.674056
O O12 0.323854 0.016291 0.000000
O O13 0.848181 0.151820 0.500000
O O14 0.208788 0.543731 0.500000
O O15 0.276966 0.553931 0.774671
O O16 0.193666 0.596833 0.778961
#
# Coordination Sequence:
#
# PCOD9585818 Si02
#       6
#    12   6  12  12   6  12
#     4   9  17  29  45  65  88 115 148 186 228 271
#     4   9  17  29  45  64  84 107 136 172 216 265
#     4   9  18  31  45  63  89 122 159 196 234 282
#     4   9  18  31  47  68  95 124 152 186 228 271
#     4   9  18  31  48  70  91 111 141 176 212 265
#     4   9  17  28  41  57  79 112 158 212 263 302
#
# _framework density 16.003399000000002
#
# number of rings (size 3 to 8) (size 9 to 14) (size 15 to 20)
#    0.000    3.000    0.000    0.500    1.400    2.800 
#    0.000    6.000    0.000    2.800    0.000    0.000 
#    0.000    0.000    0.000    2.400    0.000   15.600 
#
# Total GULP energy -334145.678803 kJ/mol
# GULP energy per Si atom -5569.094647 kJ/mol
# Density = 1.596697 g / cm^3
# Si number density = 16.003399 Si / 1000 Ang^3
#
#
#
# Elastic Constant Matrix: (Units=GPa)
#
#
# Indices 1 2 3 4 5 6 
#
# 1 88.3713 68.2123 31.0792 0.0000 0.0004 0.0000
# 2 68.2123 88.3713 31.0792 0.0000 -0.0004 0.0000
# 3 31.0792 31.0792 54.3141 0.0000 0.0000 0.0000
# 4 0.0000 0.0000 0.0000 19.1007 0.0000 -0.0004
# 5 0.0004 -0.0004 0.0000 0.0000 19.1007 0.0000
# 6 0.0000 0.0000 0.0000 -0.0004 0.0000 10.0795
#
#
#
# Elastic Compliance Matrix: (Units=1/GPa)
#
#
# Indices 1 2 3 4 5 6 
#
# 1 0.028935 -0.020671 -0.004728 0.000000 -0.000001 0.000000
# 2 -0.020671 0.028935 -0.004728 0.000000 0.000001 0.000000
# 3 -0.004728 -0.004728 0.023823 0.000000 0.000000 0.000000
# 4 0.000000 0.000000 0.000000 0.052354 0.000000 0.000002
# 5 -0.000001 0.000001 0.000000 0.000000 0.052354 0.000000
# 6 0.000000 0.000000 0.000000 0.000002 0.000000 0.099212
#
#
# Mechanical properties :
#
#
# Convention : Reuss Voigt Hill
#
# Bulk Modulus (GPa) = 46.65079 54.64423 50.64751
# Shear Modulus (GPa) = 14.16377 16.36855 15.26616
#
# Velocity S-wave (km/s) = 2.97820 3.20162 3.09193
# Velocity P-wave (km/s) = 6.40625 6.92002 6.66809
#
# Compressibility (1/GPa) = 0.02143587
#
# Stress axis : x y z
#
# Youngs Moduli (GPa) = 34.56072 34.56072 41.97667
#
# Poissons Ratio (x) = 0.71441 0.19848
# Poissons Ratio (y) = 0.71441 0.19848
# Poissons Ratio (z) = 0.16342 0.16342
#
# Static dielectric constant tensor:
#      x y z
#    x 1.530490 0.000000 0.000000 
#    y 0.000000 1.530490 0.000000 
#    z 0.000000 0.000000 1.575970 
# 
# From -- ./inp_files/707.got.cif
#   From: 2010.05.17/outbox.cif.g08.bks.cpg/sg187_1_cif.got.tgz:707.got - 2010.05.20 12:09:04.
