data_PCOD9585037
_publ_section_title
;
Structure prediction by ZEFSAII (Michael W. Deem and Ramdas Pophale) SiO2 
 PCOD9585037
Probable space group: P 6 M M
;
_chemical_formula_sum "Si O2"
_cell_formula_units_Z 96
_cell_length_a 17.889789
_cell_length_b 17.889789
_cell_length_c 21.333625
_cell_angle_alpha 90.000000
_cell_angle_beta 90.000000
_cell_angle_gamma 120.000000
_cell_volume 5912.970676
_symmetry_space_group_name_H-M "P 6 M M"
_symmetry_group_IT_number 183
_symmetry_cell_setting 'hexagonal'
loop_
_space_group_symop_operation_xyz
x,y,z
x-y,x,z
-y,x-y,z
-x,-y,z
-x+y,-x,z
y,-x+y,z
-x+y,y,z
x,x-y,z
-y,-x,z
y,x,z
x-y,-y,z
-x,-x+y,z
loop_
_atom_site_type_symbol
_atom_site_label
_atom_site_fract_x
_atom_site_fract_y
_atom_site_fract_z
Si Si1 0.363419 0.895812 0.159780
Si Si2 0.367688 0.099210 0.791972
Si Si3 0.155670 0.489486 0.536305
Si Si4 0.371035 0.102944 0.036304
Si Si5 0.154681 0.488495 0.398920
Si Si6 0.104188 0.467607 0.912828
Si Si7 0.488495 0.333814 0.673690
Si Si8 0.268479 0.367689 0.280637
O O1 0.430430 0.860859 0.158637
O O2 0.306643 0.875555 0.097556
O O3 0.307287 0.873181 0.222488
O O4 0.421108 0.000000 0.160537
O O5 0.334315 0.167158 0.788247
O O6 0.434105 0.126820 0.850121
O O7 0.420816 0.108007 0.728887
O O8 0.295235 0.000000 0.801202
O O9 0.243811 0.487621 0.536305
O O10 0.175696 0.587848 0.536305
O O11 0.114816 0.453981 0.468265
O O12 0.114816 0.453982 0.604345
O O13 0.330678 0.165339 0.036304
O O14 0.303555 0.000000 0.036304
O O15 0.431088 0.124444 0.975053
O O16 0.253492 0.506983 0.399722
O O17 0.153306 0.576653 0.387707
O O18 0.108008 0.420818 0.343723
O O19 0.139141 0.569571 0.913971
O O20 0.000000 0.421107 0.912070
O O21 0.506982 0.253491 0.672888
O O22 0.576654 0.423347 0.684904
O O23 0.167159 0.334317 0.284362
O O24 0.295236 0.295236 0.271408
#
# Coordination Sequence:
#
# PCOD9585037 Si02
#       8
#    12  12  12  12  12  12  12  12
#     4   9  17  30  49  71  93 118 148 181 219 267
#     4  10  20  33  49  68  90 118 152 190 231 274
#     4   8  13  22  37  59  88 121 154 184 215 254
#     4  10  19  31  49  72  97 127 164 204 243 281
#     4   9  16  26  42  65  93 124 155 185 217 257
#     4   9  17  30  49  71  93 118 148 181 219 267
#     4   9  16  26  42  65  93 124 155 185 217 257
#     4  10  20  33  49  68  90 118 152 190 231 274
#
# _framework density 16.235493999999999
#
# number of rings (size 3 to 8) (size 9 to 14) (size 15 to 20)
#    0.000    2.750    0.000    2.250    0.000    5.000 
#    0.000    0.625    0.000   11.125    0.000    0.000 
#    0.000    6.000    0.000    0.000    0.000   15.250 
#
# Total GULP energy -534562.864877 kJ/mol
# GULP energy per Si atom -5568.363176 kJ/mol
# Density = 1.619854 g / cm^3
# Si number density = 16.235494 Si / 1000 Ang^3
#
#
#
# Elastic Constant Matrix: (Units=GPa)
#
#
# Indices 1 2 3 4 5 6 
#
# 1 66.2463 47.4721 35.5504 0.0000 0.0000 0.0000
# 2 47.4721 66.2463 35.5504 0.0000 0.0000 0.0000
# 3 35.5504 35.5504 122.7253 0.0000 0.0000 0.0000
# 4 0.0000 0.0000 0.0000 17.9023 0.0000 0.0000
# 5 0.0000 0.0000 0.0000 0.0000 17.9023 0.0000
# 6 0.0000 0.0000 0.0000 0.0000 0.0000 9.3871
#
#
#
# Elastic Compliance Matrix: (Units=1/GPa)
#
#
# Indices 1 2 3 4 5 6 
#
# 1 0.032002 -0.021263 -0.003111 0.000000 0.000000 0.000000
# 2 -0.021263 0.032002 -0.003111 0.000000 0.000000 0.000000
# 3 -0.003111 -0.003111 0.009950 0.000000 0.000000 0.000000
# 4 0.000000 0.000000 0.000000 0.055859 0.000000 0.000000
# 5 0.000000 0.000000 0.000000 0.000000 0.055859 0.000000
# 6 0.000000 0.000000 0.000000 0.000000 0.000000 0.106529
#
#
# Mechanical properties :
#
#
# Convention : Reuss Voigt Hill
#
# Bulk Modulus (GPa) = 52.67364 54.70708 53.69036
# Shear Modulus (GPa) = 14.14440 18.14803 16.14621
#
# Velocity S-wave (km/s) = 2.95482 3.34698 3.15699
# Velocity P-wave (km/s) = 6.64494 6.97893 6.81398
#
# Compressibility (1/GPa) = 0.01898483
#
# Stress axis : x y z
#
# Youngs Moduli (GPa) = 31.24848 31.24848 100.49793
#
# Poissons Ratio (x) = 0.66444 0.31262
# Poissons Ratio (y) = 0.66444 0.31262
# Poissons Ratio (z) = 0.09720 0.09720
#
# Static dielectric constant tensor:
#      x y z
#    x 1.536550 0.000000 0.000000 
#    y 0.000000 1.536550 0.000000 
#    z 0.000000 0.000000 1.582890 
# 
# From -- ./inp_files/3048.got.cif
#   From: 2010.05.17/outbox.cif.g08.bks.cpg/sg183_2_cif.got.tgz:3048.got - 2010.05.20 12:02:58.
