data_PCOD9585210
_publ_section_title
;
Structure prediction by ZEFSAII (Michael W. Deem and Ramdas Pophale) SiO2 
 PCOD9585210
Probable space group: P 6 C C
;
_chemical_formula_sum "Si O2"
_cell_formula_units_Z 56
_cell_length_a 15.000000
_cell_length_b 15.000000
_cell_length_c 15.000000
_cell_angle_alpha 90.000000
_cell_angle_beta 90.000000
_cell_angle_gamma 120.000000
_cell_volume 2922.835738
_symmetry_space_group_name_H-M "P 6 C C"
_symmetry_group_IT_number 184
_symmetry_cell_setting 'hexagonal'
loop_
_space_group_symop_operation_xyz
x,y,z
x-y,x,z
-y,x-y,z
-x,-y,z
-x+y,-x,z
y,-x+y,z
-x+y,y,1/2+z
x,x-y,1/2+z
-y,-x,1/2+z
y,x,1/2+z
x-y,-y,1/2+z
-x,-x+y,1/2+z
loop_
_atom_site_type_symbol
_atom_site_label
_atom_site_fract_x
_atom_site_fract_y
_atom_site_fract_z
Si Si1 0.162239 0.581117 0.795430
Si Si2 0.333335 0.666667 0.436180
Si Si3 0.352500 0.000003 0.795432
Si Si4 0.224391 0.193348 0.148951
Si Si5 0.666667 0.333335 0.654678
Si Si6 0.224390 0.031041 0.441913
O O1 0.227802 0.588657 0.883754
O O2 0.092396 0.463217 0.768030
O O3 0.227800 0.639138 0.707105
O O4 0.092400 0.629178 0.822831
O O5 0.333334 0.666667 0.545429
O O6 0.309429 0.037191 0.715259
O O7 0.272242 0.962814 0.875606
O O8 0.200396 0.078116 0.164687
O O9 0.254238 0.218702 0.045432
O O10 0.200397 0.122279 0.426177
#
# Coordination Sequence:
#
# PCOD9585210 Si02
#       6
#    12   4  12  12   4  12
#     4   9  24  42  60  90 120 154 198 249 300 360
#     4  10  23  43  67  86 118 160 197 247 304 356
#     4  11  22  40  61  88 124 152 197 248 298 351
#     4  10  22  37  59  89 123 160 197 240 291 354
#     4  10  23  43  67  86 118 160 197 247 304 356
#     4  10  22  37  59  89 123 160 197 240 291 354
#
# _framework density 19.159476000000002
#
# number of rings (size 3 to 8) (size 9 to 14) (size 15 to 20)
#    0.000    2.143    0.000    1.714   12.000    5.143 
#    0.000    6.429    0.000    0.000    0.000    0.000 
#    0.000    0.000    0.000    0.000    0.000    0.000 
#
# Total GULP energy -312224.988203 kJ/mol
# GULP energy per Si atom -5575.446218 kJ/mol
# Density = 1.911587 g / cm^3
# Si number density = 19.159476 Si / 1000 Ang^3
#
#
#
# Elastic Constant Matrix: (Units=GPa)
#
#
# Indices 1 2 3 4 5 6 
#
# 1 31.4320 1.2847 10.4649 0.0002 -0.0001 0.0000
# 2 1.2847 31.4326 10.4651 0.0003 -0.0001 0.0000
# 3 10.4649 10.4651 67.4962 0.0002 0.0001 0.0000
# 4 0.0002 0.0003 0.0002 -14.5148 -0.0002 0.0000
# 5 -0.0001 -0.0001 0.0001 -0.0002 -14.5145 0.0001
# 6 0.0000 0.0000 0.0000 0.0000 0.0001 15.0737
#
#
#
# Elastic Compliance Matrix: (Units=1/GPa)
#
#
# Indices 1 2 3 4 5 6 
#
# 1 0.033551 0.000380 -0.005261 0.000000 0.000000 0.000000
# 2 0.000380 0.033550 -0.005261 0.000001 0.000000 0.000000
# 3 -0.005261 -0.005261 0.016447 0.000000 0.000000 0.000000
# 4 0.000000 0.000001 0.000000 -0.068895 0.000001 0.000000
# 5 0.000000 0.000000 0.000000 0.000001 -0.068897 0.000000
# 6 0.000000 0.000000 0.000000 0.000000 0.000000 0.066341
#
#
# Mechanical properties :
#
#
# Convention : Reuss Voigt Hill
#
# Bulk Modulus (GPa) = 15.80650 19.42112 17.61381
# Shear Modulus (GPa) = 93.51466 4.41863 48.96664
#
# Velocity S-wave (km/s) = 6.99389 1.52028 5.06092
# Velocity P-wave (km/s) = 8.57247 3.63871 6.58511
#
# Compressibility (1/GPa) = 0.06326513
#
# Stress axis : x y z
#
# Youngs Moduli (GPa) = 29.80561 29.80614 60.80140
#
# Poissons Ratio (x) = -0.01133 0.31986
# Poissons Ratio (y) = -0.01133 0.31987
# Poissons Ratio (z) = 0.15680 0.15680
#
# Static dielectric constant tensor:
#      x y z
#    x 1.685240 0.000000 0.000000 
#    y 0.000000 1.685240 0.000000 
#    z 0.000000 0.000000 1.628950 
# 
# From -- ./inp_files/833.got.cif
#   From: 2010.05.17/outbox.ucp.g08.bks.cvg/sg184_cif.got.tgz:833.got - 2010.06.11 15:21:18.
