data_PCOD9585967
_publ_section_title
;
Structure prediction by ZEFSAII (Michael W. Deem and Ramdas Pophale) SiO2 
 PCOD9585967
Probable space group: P -6 C 2
;
_chemical_formula_sum "Si O2"
_cell_formula_units_Z 36
_cell_length_a 10.313220
_cell_length_b 10.313220
_cell_length_c 20.524514
_cell_angle_alpha 90.000000
_cell_angle_beta 90.000000
_cell_angle_gamma 120.000000
_cell_volume 1890.567023
_symmetry_space_group_name_H-M "P -6 C 2"
_symmetry_group_IT_number 188
_symmetry_cell_setting 'hexagonal'
loop_
_space_group_symop_operation_xyz
x,y,z
-x+y,-x,1/2-z
-y,x-y,z
x,y,1/2-z
-x+y,-x,z
-y,x-y,1/2-z
-y,-x,-z
-x+y,y,-z
x,x-y,-z
-x+y,y,1/2+z
x,x-y,1/2+z
-y,-x,1/2+z
loop_
_atom_site_type_symbol
_atom_site_label
_atom_site_fract_x
_atom_site_fract_y
_atom_site_fract_z
Si Si1 0.351374 0.175687 0.500000
Si Si2 0.993403 0.400705 0.388742
Si Si3 0.645184 0.489400 0.250000
Si Si4 0.260428 0.384164 0.064962
O O1 0.434558 0.306251 0.554381
O O2 0.258657 0.234864 0.459033
O O3 0.067818 0.576318 0.405986
O O4 0.123353 0.357498 0.390301
O O5 0.924920 0.368005 0.317405
O O6 0.797752 0.482962 0.250000
O O7 0.225082 0.450163 0.000000
#
# Coordination Sequence:
#
# PCOD9585967 Si02
#       4
#     6  12   6  12
#     4  10  20  36  60  98 128 168 210 272 340 384
#     4  11  22  42  64  96 132 175 219 281 328 388
#     4  10  24  42  66  94 132 168 222 260 326 422
#     4  10  21  37  62  94 124 165 225 267 330 385
#
# _framework density 19.041906000000001
#
# number of rings (size 3 to 8) (size 9 to 14) (size 15 to 20)
#    0.333    1.333    0.000    6.667    0.000    4.000 
#   35.000    1.667    0.000    0.000    0.000    0.000 
#    0.000    0.000    0.000    0.000    0.000    0.000 
#
# Total GULP energy -200689.200768 kJ/mol
# GULP energy per Si atom -5574.700021 kJ/mol
# Density = 1.899857 g / cm^3
# Si number density = 19.041906 Si / 1000 Ang^3
#
#
#
# Elastic Constant Matrix: (Units=GPa)
#
#
# Indices 1 2 3 4 5 6 
#
# 1 111.1277 46.9162 79.0938 0.0000 0.0000 0.0000
# 2 46.9162 111.1277 79.0938 0.0000 0.0000 0.0000
# 3 79.0938 79.0938 179.2392 0.0000 0.0000 0.0000
# 4 0.0000 0.0000 0.0000 39.5968 0.0000 0.0000
# 5 0.0000 0.0000 0.0000 0.0000 39.5968 0.0000
# 6 0.0000 0.0000 0.0000 0.0000 0.0000 32.1058
#
#
#
# Elastic Compliance Matrix: (Units=1/GPa)
#
#
# Indices 1 2 3 4 5 6 
#
# 1 0.013453 -0.002120 -0.005001 0.000000 0.000000 0.000000
# 2 -0.002120 0.013453 -0.005001 0.000000 0.000000 0.000000
# 3 -0.005001 -0.005001 0.009993 0.000000 0.000000 0.000000
# 4 0.000000 0.000000 0.000000 0.025255 0.000000 0.000000
# 5 0.000000 0.000000 0.000000 0.000000 0.025255 0.000000
# 6 0.000000 0.000000 0.000000 0.000000 0.000000 0.031147
#
#
# Mechanical properties :
#
#
# Convention : Reuss Voigt Hill
#
# Bulk Modulus (GPa) = 79.02191 90.18913 84.60552
# Shear Modulus (GPa) = 34.00955 35.35262 34.68109
#
# Velocity S-wave (km/s) = 4.23074 4.31347 4.27230
# Velocity P-wave (km/s) = 8.09040 8.50143 8.29846
#
# Compressibility (1/GPa) = 0.01265472
#
# Stress axis : x y z
#
# Youngs Moduli (GPa) = 74.33207 74.33207 100.07350
#
# Poissons Ratio (x) = 0.15761 0.50045
# Poissons Ratio (y) = 0.15761 0.50045
# Poissons Ratio (z) = 0.37173 0.37173
#
# Static dielectric constant tensor:
#      x y z
#    x 1.697790 0.000000 0.000000 
#    y 0.000000 1.697790 0.000000 
#    z 0.000000 0.000000 1.664140 
# 
# From -- ./inp_files/2818.got.cif
#   From: 2010.05.17/outbox.cif.g08.bks.cpg/sg188_2_cif.got.tgz:2818.got - 2010.05.20 12:11:46.
