data_PCOD9585153
_publ_section_title
;
Structure prediction by ZEFSAII (Michael W. Deem and Ramdas Pophale) SiO2 
 PCOD9585153
Probable space group: P 6 C C
;
_chemical_formula_sum "Si O2"
_cell_formula_units_Z 72
_cell_length_a 14.560386
_cell_length_b 14.560386
_cell_length_c 17.461610
_cell_angle_alpha 90.000000
_cell_angle_beta 90.000000
_cell_angle_gamma 120.000000
_cell_volume 3205.979143
_symmetry_space_group_name_H-M "P 6 C C"
_symmetry_group_IT_number 184
_symmetry_cell_setting 'hexagonal'
loop_
_space_group_symop_operation_xyz
x,y,z
x-y,x,z
-y,x-y,z
-x,-y,z
-x+y,-x,z
y,-x+y,z
-x+y,y,1/2+z
x,x-y,1/2+z
-y,-x,1/2+z
y,x,1/2+z
x-y,-y,1/2+z
-x,-x+y,1/2+z
loop_
_atom_site_type_symbol
_atom_site_label
_atom_site_fract_x
_atom_site_fract_y
_atom_site_fract_z
Si Si1 0.621271 0.048021 0.852530
Si Si2 0.006003 0.219455 0.422376
Si Si3 0.773457 0.974429 0.605288
Si Si4 0.502087 0.399717 0.680330
Si Si5 0.684089 0.460131 0.465216
Si Si6 0.825246 0.545711 0.133010
O O1 0.680298 0.985282 0.877581
O O2 0.617702 0.066230 0.762791
O O3 0.689646 0.160335 0.894313
O O4 0.500000 0.000000 0.880262
O O5 0.991739 0.229148 0.514147
O O6 0.109223 0.210246 0.404555
O O7 0.794248 0.877926 0.623940
O O8 0.659416 0.929948 0.645241
O O9 0.500000 0.500000 0.641052
O O10 0.630330 0.452923 0.684411
O O11 0.454156 0.284875 0.642581
O O12 0.575354 0.347409 0.463454
O O13 0.690263 0.515562 0.544681
#
# Coordination Sequence:
#
# PCOD9585153 Si02
#       6
#    12  12  12  12  12  12
#     4  11  26  41  64  98 138 180 229 279 351 412
#     4  10  22  41  69 100 138 176 231 287 346 404
#     4  10  21  38  64  97 130 173 220 281 337 390
#     4  11  26  42  62  96 133 177 223 269 338 416
#     4  10  22  38  62  93 125 168 223 273 337 403
#     4  12  21  42  65  93 131 176 217 274 337 404
#
# _framework density 22.458037000000001
#
# number of rings (size 3 to 8) (size 9 to 14) (size 15 to 20)
#    0.333    1.000    3.333    1.667    4.667    3.333 
#    0.000    0.000    0.000    0.000    0.000    2.333 
#    0.000    0.000    0.000    0.000    0.000    0.000 
#
# Total GULP energy -401981.432607 kJ/mol
# GULP energy per Si atom -5583.075453 kJ/mol
# Density = 2.240692 g / cm^3
# Si number density = 22.458037 Si / 1000 Ang^3
#
#
#
# Elastic Constant Matrix: (Units=GPa)
#
#
# Indices 1 2 3 4 5 6 
#
# 1 107.0872 34.6670 28.4186 0.0000 0.0000 0.0000
# 2 34.6670 107.0872 28.4186 0.0000 0.0000 0.0000
# 3 28.4186 28.4186 41.4732 0.0000 0.0000 0.0000
# 4 0.0000 0.0000 0.0000 -2.6688 0.0000 0.0000
# 5 0.0000 0.0000 0.0000 0.0000 -2.6688 0.0000
# 6 0.0000 0.0000 0.0000 0.0000 0.0000 36.2101
#
#
#
# Elastic Compliance Matrix: (Units=1/GPa)
#
#
# Indices 1 2 3 4 5 6 
#
# 1 0.011768 -0.002041 -0.006665 0.000000 0.000000 0.000000
# 2 -0.002041 0.011768 -0.006665 0.000000 0.000000 0.000000
# 3 -0.006665 -0.006665 0.033246 0.000000 0.000000 0.000000
# 4 0.000000 0.000000 0.000000 -0.374696 0.000000 0.000000
# 5 0.000000 0.000000 0.000000 0.000000 -0.374696 0.000000
# 6 0.000000 0.000000 0.000000 0.000000 0.000000 0.027617
#
#
# Mechanical properties :
#
#
# Convention : Reuss Voigt Hill
#
# Bulk Modulus (GPa) = 38.40325 48.73955 43.57140
# Shear Modulus (GPa) = -7.99268 17.11737 4.56235
#
# Velocity S-wave (km/s) = -1.88856 2.76378 1.42685
# Velocity P-wave (km/s) = 3.51875 5.65104 4.70722
#
# Compressibility (1/GPa) = 0.02603946
#
# Stress axis : x y z
#
# Youngs Moduli (GPa) = 84.97907 84.97907 30.07858
#
# Poissons Ratio (x) = 0.17342 0.20048
# Poissons Ratio (y) = 0.17342 0.20048
# Poissons Ratio (z) = 0.56640 0.56640
#
# Static dielectric constant tensor:
#      x y z
#    x 1.899270 0.000000 0.000000 
#    y 0.000000 1.899270 0.000000 
#    z 0.000000 0.000000 1.779580 
# 
# From -- ./inp_files/1099.got.cif
#   From: 2010.05.17/outbox.cif.g08.bks.cpg/sg184_cif.got.tgz:1099.got - 2010.05.20 12:04:40.
