data_PCOD9585558
_publ_section_title
;
Structure prediction by ZEFSAII (Michael W. Deem and Ramdas Pophale) SiO2 
 PCOD9585558
Probable space group: P -6 M 2
;
_chemical_formula_sum "Si O2"
_cell_formula_units_Z 66
_cell_length_a 22.567837
_cell_length_b 22.567837
_cell_length_c 7.660762
_cell_angle_alpha 90.000000
_cell_angle_beta 90.000000
_cell_angle_gamma 120.000000
_cell_volume 3378.955518
_symmetry_space_group_name_H-M "P -6 M 2"
_symmetry_group_IT_number 187
_symmetry_cell_setting 'hexagonal'
loop_
_space_group_symop_operation_xyz
x,y,z
-x+y,-x,-z
-y,x-y,z
x,y,-z
-x+y,-x,z
-y,x-y,-z
-y,-x,-z
-x+y,y,-z
x,x-y,-z
-x+y,y,z
x,x-y,z
-y,-x,z
loop_
_atom_site_type_symbol
_atom_site_label
_atom_site_fract_x
_atom_site_fract_y
_atom_site_fract_z
Si Si1 0.121833 0.743855 0.707762
Si Si2 0.797163 0.463459 0.710046
Si Si3 0.921881 0.315709 0.792190
Si Si4 0.542877 0.591444 0.210224
Si Si5 0.764784 0.008322 0.798606
Si Si6 0.858599 0.858174 0.500000
O O1 0.115341 0.749434 0.500000
O O2 0.195720 0.804281 0.763646
O O3 0.107633 0.667992 0.746362
O O4 0.062394 0.754125 0.792674
O O5 0.795875 0.460282 0.500000
O O6 0.721500 0.443000 0.770424
O O7 0.818746 0.409373 0.775678
O O8 0.849258 0.541104 0.758189
O O9 0.979456 0.390200 0.723437
O O10 0.936385 0.256220 0.731342
O O11 0.932013 0.317239 0.000000
O O12 0.471946 0.528055 0.275468
O O13 0.541983 0.585955 0.000000
O O14 0.817306 0.003405 0.669212
O O15 0.788660 0.022272 0.000000
O O16 0.934269 0.868538 0.500000
O O17 0.859480 0.929740 0.500000
#
# Coordination Sequence:
#
# PCOD9585558 Si02
#       6
#    12  12  12  12  12   6
#     4  10  19  32  54  85 116 148 192 243 293 350
#     4  10  21  35  51  72 104 149 198 244 290 344
#     4   9  19  35  56  83 111 141 183 236 294 349
#     4   9  18  32  50  75 110 149 187 233 292 354
#     4  10  22  41  65  93 124 155 190 242 303 353
#     4  12  27  46  68  94 125 160 198 236 278 342
#
# _framework density 19.532662999999999
#
# number of rings (size 3 to 8) (size 9 to 14) (size 15 to 20)
#    0.000    2.182    0.909    3.000    1.273    6.909 
#    0.000    1.818    0.000    2.545    0.000    0.000 
#    0.000    0.000    0.000    0.000    0.000    0.000 
#
# Total GULP energy -368419.122206 kJ/mol
# GULP energy per Si atom -5582.107912 kJ/mol
# Density = 1.948821 g / cm^3
# Si number density = 19.532663 Si / 1000 Ang^3
#
#
#
# Elastic Constant Matrix: (Units=GPa)
#
#
# Indices 1 2 3 4 5 6 
#
# 1 107.8490 65.2478 27.0738 0.0000 -0.0002 0.0000
# 2 65.2478 107.8490 27.0738 0.0000 0.0002 0.0000
# 3 27.0738 27.0738 69.5625 0.0000 0.0000 0.0000
# 4 0.0000 0.0000 0.0000 17.6761 0.0000 0.0002
# 5 -0.0002 0.0002 0.0000 0.0000 17.6761 0.0000
# 6 0.0000 0.0000 0.0000 0.0002 0.0000 21.3006
#
#
#
# Elastic Compliance Matrix: (Units=1/GPa)
#
#
# Indices 1 2 3 4 5 6 
#
# 1 0.015026 -0.008448 -0.002560 0.000000 0.000000 0.000000
# 2 -0.008448 0.015026 -0.002560 0.000000 0.000000 0.000000
# 3 -0.002560 -0.002560 0.016368 0.000000 0.000000 0.000000
# 4 0.000000 0.000000 0.000000 0.056573 0.000000 -0.000001
# 5 0.000000 0.000000 0.000000 0.000000 0.056573 0.000000
# 6 0.000000 0.000000 0.000000 -0.000001 0.000000 0.046947
#
#
# Mechanical properties :
#
#
# Convention : Reuss Voigt Hill
#
# Bulk Modulus (GPa) = 51.85724 58.22794 55.04259
# Shear Modulus (GPa) = 20.82657 22.38825 21.60741
#
# Velocity S-wave (km/s) = 3.26888 3.38922 3.32960
# Velocity P-wave (km/s) = 6.39172 6.72243 6.55916
#
# Compressibility (1/GPa) = 0.01928371
#
# Stress axis : x y z
#
# Youngs Moduli (GPa) = 66.55246 66.55246 61.09340
#
# Poissons Ratio (x) = 0.56222 0.15641
# Poissons Ratio (y) = 0.56222 0.15641
# Poissons Ratio (z) = 0.17038 0.17038
#
# Static dielectric constant tensor:
#      x y z
#    x 1.688050 0.000000 0.000000 
#    y 0.000000 1.688050 0.000000 
#    z 0.000000 0.000000 1.716410 
# 
# From -- ./inp_files/759.got.cif
#   From: 2010.05.17/outbox.cif.g08.bks.cpg/sg187_1_cif.got.tgz:759.got - 2010.05.20 12:09:04.
