data_PCOD9585780
_publ_section_title
;
Structure prediction by ZEFSAII (Michael W. Deem and Ramdas Pophale) SiO2 
 PCOD9585780
Probable space group: P -6 M 2
;
_chemical_formula_sum "Si O2"
_cell_formula_units_Z 66
_cell_length_a 22.504359
_cell_length_b 22.504359
_cell_length_c 7.930482
_cell_angle_alpha 90.000000
_cell_angle_beta 90.000000
_cell_angle_gamma 120.000000
_cell_volume 3478.271754
_symmetry_space_group_name_H-M "P -6 M 2"
_symmetry_group_IT_number 187
_symmetry_cell_setting 'hexagonal'
loop_
_space_group_symop_operation_xyz
x,y,z
-x+y,-x,-z
-y,x-y,z
x,y,-z
-x+y,-x,z
-y,x-y,-z
-y,-x,-z
-x+y,y,-z
x,x-y,-z
-x+y,y,z
x,x-y,z
-y,-x,z
loop_
_atom_site_type_symbol
_atom_site_label
_atom_site_fract_x
_atom_site_fract_y
_atom_site_fract_z
Si Si1 0.714394 0.142729 0.186375
Si Si2 0.468024 0.665751 0.796456
Si Si3 0.523847 0.189649 0.500000
Si Si4 0.741220 0.022988 0.298696
Si Si5 0.620440 0.877605 0.297715
Si Si6 0.000247 0.865421 0.796139
O O1 0.785352 0.214649 0.187789
O O2 0.670170 0.149401 0.335908
O O3 0.734353 0.084439 0.219744
O O4 0.682988 0.132815 0.000000
O O5 0.458478 0.729239 0.738322
O O6 0.406181 0.593820 0.735059
O O7 0.543676 0.684037 0.743512
O O8 0.465785 0.665392 0.000000
O O9 0.597683 0.195366 0.500000
O O10 0.531305 0.265653 0.500000
O O11 0.735633 0.027766 0.500000
O O12 0.678873 0.950640 0.234929
O O13 0.810466 0.021281 0.262185
O O14 0.627129 0.878249 0.500000
O O15 0.628577 0.814289 0.231343
O O16 0.075227 0.924774 0.736514
O O17 0.941140 0.882279 0.744687
O O18 0.001940 0.865432 0.000000
#
# Coordination Sequence:
#
# PCOD9585780 Si02
#       6
#    12  12   6  12  12  12
#     4  10  21  38  61  90 123 157 196 242 287 338
#     4   9  17  30  49  72  97 126 163 211 268 329
#     4  10  21  40  66  96 127 158 192 234 288 348
#     4  11  21  35  56  80 109 150 197 243 292 346
#     4   9  19  34  50  71 102 138 179 229 282 335
#     4  10  21  36  54  78 110 148 191 242 300 359
#
# _framework density 18.97494
#
# number of rings (size 3 to 8) (size 9 to 14) (size 15 to 20)
#    0.000    2.182    0.909    2.091    0.000    7.273 
#    0.000    2.727    0.000    3.273    0.000    0.000 
#    0.000    0.000    0.000    0.000    0.000    0.000 
#
# Total GULP energy -368391.201082 kJ/mol
# GULP energy per Si atom -5581.684865 kJ/mol
# Density = 1.893175 g / cm^3
# Si number density = 18.974940 Si / 1000 Ang^3
#
#
#
# Elastic Constant Matrix: (Units=GPa)
#
#
# Indices 1 2 3 4 5 6 
#
# 1 79.7560 23.9589 32.5760 0.0000 0.0016 0.0000
# 2 23.9589 79.7560 32.5760 0.0000 -0.0016 0.0000
# 3 32.5760 32.5760 76.9094 0.0000 0.0000 0.0000
# 4 0.0000 0.0000 0.0000 10.1468 0.0000 -0.0016
# 5 0.0016 -0.0016 0.0000 0.0000 10.1468 0.0000
# 6 0.0000 0.0000 0.0000 -0.0016 0.0000 27.8986
#
#
#
# Elastic Compliance Matrix: (Units=1/GPa)
#
#
# Indices 1 2 3 4 5 6 
#
# 1 0.015530 -0.002392 -0.005564 0.000000 -0.000003 0.000000
# 2 -0.002392 0.015530 -0.005564 0.000000 0.000003 0.000000
# 3 -0.005564 -0.005564 0.017716 0.000000 0.000000 0.000000
# 4 0.000000 0.000000 0.000000 0.098553 0.000000 0.000006
# 5 -0.000003 0.000003 0.000000 0.000000 0.098553 0.000000
# 6 0.000000 0.000000 0.000000 0.000006 0.000000 0.035844
#
#
# Mechanical properties :
#
#
# Convention : Reuss Voigt Hill
#
# Bulk Modulus (GPa) = 46.01328 46.07144 46.04236
# Shear Modulus (GPa) = 15.82211 19.45913 17.64062
#
# Velocity S-wave (km/s) = 2.89077 3.20584 3.05237
# Velocity P-wave (km/s) = 5.95350 6.16734 6.06137
#
# Compressibility (1/GPa) = 0.02173285
#
# Stress axis : x y z
#
# Youngs Moduli (GPa) = 64.39270 64.39270 56.44565
#
# Poissons Ratio (x) = 0.15405 0.31409
# Poissons Ratio (y) = 0.15405 0.31409
# Poissons Ratio (z) = 0.35831 0.35831
#
# Static dielectric constant tensor:
#      x y z
#    x 1.637350 0.000000 0.000000 
#    y 0.000000 1.637350 0.000000 
#    z 0.000000 0.000000 1.692110 
# 
# From -- ./inp_files/775.got.cif
#   From: 2010.05.17/outbox.cif.g08.bks.cpg/sg187_1_cif.got.tgz:775.got - 2010.05.20 12:09:04.
