data_PCOD9585888
_publ_section_title
;
Structure prediction by ZEFSAII (Michael W. Deem and Ramdas Pophale) SiO2 
 PCOD9585888
Probable space group: P -6 C 2
;
_chemical_formula_sum "Si O2"
_cell_formula_units_Z 72
_cell_length_a 24.294468
_cell_length_b 24.294468
_cell_length_c 8.607521
_cell_angle_alpha 90.000000
_cell_angle_beta 90.000000
_cell_angle_gamma 120.000000
_cell_volume 4399.704506
_symmetry_space_group_name_H-M "P -6 C 2"
_symmetry_group_IT_number 188
_symmetry_cell_setting 'hexagonal'
loop_
_space_group_symop_operation_xyz
x,y,z
-x+y,-x,1/2-z
-y,x-y,z
x,y,1/2-z
-x+y,-x,z
-y,x-y,1/2-z
-y,-x,-z
-x+y,y,-z
x,x-y,-z
-x+y,y,1/2+z
x,x-y,1/2+z
-y,-x,1/2+z
loop_
_atom_site_type_symbol
_atom_site_label
_atom_site_fract_x
_atom_site_fract_y
_atom_site_fract_z
Si Si1 0.543114 0.209129 0.063390
Si Si2 0.256428 0.393783 0.435727
Si Si3 0.859152 0.595708 0.061875
Si Si4 0.557150 0.003469 0.574297
Si Si5 0.368778 0.850291 0.424180
Si Si6 0.673532 0.004374 0.068195
O O1 0.543709 0.210293 0.250000
O O2 0.599590 0.199179 0.000000
O O3 0.553108 0.276554 0.000000
O O4 0.473127 0.156726 0.003629
O O5 0.254827 0.390572 0.250000
O O6 0.188422 0.376843 0.500000
O O7 0.307722 0.465954 0.483924
O O8 0.281950 0.347247 0.497797
O O9 0.858237 0.592599 0.250000
O O10 0.927176 0.654089 0.007825
O O11 0.802449 0.604898 0.000000
O O12 0.579232 0.027114 0.750000
O O13 0.515040 0.030079 0.500000
O O14 0.611672 0.011322 0.458699
O O15 0.512811 0.926884 0.586571
O O16 0.349655 0.825203 0.250000
O O17 0.412790 0.825580 0.500000
O O18 0.685579 0.001934 0.250000
#
# Coordination Sequence:
#
# PCOD9585888 Si02
#       6
#    12  12  12  12  12  12
#     4  11  21  34  50  69  92 121 157 200 245 289
#     4  10  19  32  49  71  96 123 152 187 228 274
#     4  10  20  35  51  68  89 118 154 193 233 277
#     4   9  16  25  40  61  86 113 144 179 217 257
#     4   9  16  27  43  64  88 117 149 182 217 258
#     4   9  19  33  48  65  90 120 150 183 226 273
#
# _framework density 16.364736000000001
#
# number of rings (size 3 to 8) (size 9 to 14) (size 15 to 20)
#    0.000    2.333    0.000    4.667    0.000    6.667 
#    0.000    0.000    0.000    0.333    0.000    2.333 
#    0.000    0.000    0.000    0.500    0.000    6.000 
#
# Total GULP energy -401155.988142 kJ/mol
# GULP energy per Si atom -5571.610946 kJ/mol
# Density = 1.632749 g / cm^3
# Si number density = 16.364736 Si / 1000 Ang^3
#
#
#
# Elastic Constant Matrix: (Units=GPa)
#
#
# Indices 1 2 3 4 5 6 
#
# 1 75.4582 59.8618 19.8022 0.0002 0.0000 0.0000
# 2 59.8618 75.4582 19.8022 -0.0002 0.0000 0.0000
# 3 19.8022 19.8022 66.7274 0.0000 0.0000 0.0000
# 4 0.0002 -0.0002 0.0000 13.8947 0.0000 0.0000
# 5 0.0000 0.0000 0.0000 0.0000 13.8947 0.0002
# 6 0.0000 0.0000 0.0000 0.0000 0.0002 7.7982
#
#
#
# Elastic Compliance Matrix: (Units=1/GPa)
#
#
# Indices 1 2 3 4 5 6 
#
# 1 0.036105 -0.028012 -0.002402 -0.000001 0.000000 0.000000
# 2 -0.028012 0.036105 -0.002402 0.000001 0.000000 0.000000
# 3 -0.002402 -0.002402 0.016412 0.000000 0.000000 0.000000
# 4 -0.000001 0.000001 0.000000 0.071970 0.000000 0.000000
# 5 0.000000 0.000000 0.000000 0.000000 0.071970 -0.000002
# 6 0.000000 0.000000 0.000000 0.000000 -0.000002 0.128235
#
#
# Mechanical properties :
#
#
# Convention : Reuss Voigt Hill
#
# Bulk Modulus (GPa) = 43.49565 46.28623 44.89094
# Shear Modulus (GPa) = 11.51831 14.99602 13.25716
#
# Velocity S-wave (km/s) = 2.65589 3.03043 2.84932
# Velocity P-wave (km/s) = 6.00347 6.37104 6.18999
#
# Compressibility (1/GPa) = 0.02299080
#
# Stress axis : x y z
#
# Youngs Moduli (GPa) = 27.69694 27.69694 60.93185
#
# Poissons Ratio (x) = 0.77585 0.14634
# Poissons Ratio (y) = 0.77585 0.14634
# Poissons Ratio (z) = 0.06652 0.06652
#
# Static dielectric constant tensor:
#      x y z
#    x 1.573540 0.000000 0.000000 
#    y 0.000000 1.573540 0.000000 
#    z 0.000000 0.000000 1.578070 
# 
# From -- ./inp_files/1030.got.cif
#   From: 2010.05.17/outbox.cif.g08.bks.cpg/sg188_1_cif.got.tgz:1030.got - 2010.05.20 12:11:46.
