data_PCOD9585619
_publ_section_title
;
Structure prediction by ZEFSAII (Michael W. Deem and Ramdas Pophale) SiO2 
 PCOD9585619
Probable space group: P -6 M 2
;
_chemical_formula_sum "Si O2"
_cell_formula_units_Z 72
_cell_length_a 24.473904
_cell_length_b 24.473904
_cell_length_c 8.778409
_cell_angle_alpha 90.000000
_cell_angle_beta 90.000000
_cell_angle_gamma 120.000000
_cell_volume 4553.579754
_symmetry_space_group_name_H-M "P -6 M 2"
_symmetry_group_IT_number 187
_symmetry_cell_setting 'hexagonal'
loop_
_space_group_symop_operation_xyz
x,y,z
-x+y,-x,-z
-y,x-y,z
x,y,-z
-x+y,-x,z
-y,x-y,-z
-y,-x,-z
-x+y,y,-z
x,x-y,-z
-x+y,y,z
x,x-y,z
-y,-x,z
loop_
_atom_site_type_symbol
_atom_site_label
_atom_site_fract_x
_atom_site_fract_y
_atom_site_fract_z
Si Si1 0.138604 0.735025 0.317855
Si Si2 0.470166 0.064712 0.684170
Si Si3 0.074339 0.474513 0.182180
Si Si4 0.069904 0.265908 0.818040
Si Si5 0.403197 0.262854 0.685340
Si Si6 0.256691 0.065708 0.683447
O O1 0.133419 0.730946 0.500000
O O2 0.208438 0.791563 0.276955
O O3 0.121183 0.667969 0.249652
O O4 0.090435 0.756466 0.254248
O O5 0.465375 0.060169 0.500000
O O6 0.541418 0.082836 0.725619
O O7 0.447691 0.113186 0.735675
O O8 0.424647 0.995605 0.751964
O O9 0.090963 0.545482 0.222716
O O10 0.072549 0.469223 0.000000
O O11 0.125604 0.251207 0.776833
O O12 0.001602 0.215002 0.758087
O O13 0.068979 0.270914 0.000000
O O14 0.404683 0.262820 0.500000
O O15 0.420491 0.210246 0.736960
O O16 0.330147 0.236915 0.727367
O O17 0.253186 0.059323 0.500000
O O18 0.240690 0.120345 0.724084
#
# Coordination Sequence:
#
# PCOD9585619 Si02
#       6
#    12  12  12  12  12  12
#     4  10  20  33  50  71  94 122 155 190 227 268
#     4   9  16  26  43  66  89 117 154 190 224 268
#     4  10  20  32  47  69  96 123 149 183 230 278
#     4  10  20  32  47  69  96 124 152 185 230 282
#     4   8  14  25  41  61  86 115 146 182 223 263
#     4   9  17  29  46  67  89 117 154 192 230 272
#
# _framework density 15.811737000000001
#
# number of rings (size 3 to 8) (size 9 to 14) (size 15 to 20)
#    0.000    2.667    0.000    3.500    0.000    4.667 
#    0.000    0.000    0.000    2.500    0.000    2.333 
#    0.000    0.000    0.000    0.000    0.000    0.167 
#
# Total GULP energy -401400.494190 kJ/mol
# GULP energy per Si atom -5575.006864 kJ/mol
# Density = 1.577575 g / cm^3
# Si number density = 15.811737 Si / 1000 Ang^3
#
#
#
# Elastic Constant Matrix: (Units=GPa)
#
#
# Indices 1 2 3 4 5 6 
#
# 1 118.5374 76.6344 33.8730 0.0000 0.0002 0.0000
# 2 76.6344 118.5374 33.8730 0.0000 -0.0002 0.0000
# 3 33.8730 33.8730 23.1937 0.0000 0.0000 0.0000
# 4 0.0000 0.0000 0.0000 17.4608 0.0000 -0.0002
# 5 0.0002 -0.0002 0.0000 0.0000 17.4608 0.0000
# 6 0.0000 0.0000 0.0000 -0.0002 0.0000 20.9515
#
#
#
# Elastic Compliance Matrix: (Units=1/GPa)
#
#
# Indices 1 2 3 4 5 6 
#
# 1 0.017128 -0.006737 -0.015176 0.000000 0.000000 0.000000
# 2 -0.006737 0.017128 -0.015176 0.000000 0.000000 0.000000
# 3 -0.015176 -0.015176 0.087443 0.000000 0.000000 0.000000
# 4 0.000000 0.000000 0.000000 0.057271 0.000000 0.000000
# 5 0.000000 0.000000 0.000000 0.000000 0.057271 0.000000
# 6 0.000000 0.000000 0.000000 0.000000 0.000000 0.047729
#
#
# Mechanical properties :
#
#
# Convention : Reuss Voigt Hill
#
# Bulk Modulus (GPa) = 21.04326 61.00327 41.02327
# Shear Modulus (GPa) = 13.36942 18.90051 16.13497
#
# Velocity S-wave (km/s) = 2.91097 3.46113 3.19790
# Velocity P-wave (km/s) = 4.96345 7.39171 6.29576
#
# Compressibility (1/GPa) = 0.04752116
#
# Stress axis : x y z
#
# Youngs Moduli (GPa) = 58.38377 58.38377 11.43608
#
# Poissons Ratio (x) = 0.39331 0.17355
# Poissons Ratio (y) = 0.39331 0.17355
# Poissons Ratio (z) = 0.88604 0.88604
#
# Static dielectric constant tensor:
#      x y z
#    x 1.520350 0.000000 0.000000 
#    y 0.000000 1.520350 0.000000 
#    z 0.000000 0.000000 1.528700 
# 
# From -- ./inp_files/940.got.cif
#   From: 2010.05.17/outbox.cif.g08.bks.cpg/sg187_1_cif.got.tgz:940.got - 2010.05.20 12:09:04.
