data_PCOD9585358
_publ_section_title
;
Structure prediction by ZEFSAII (Michael W. Deem and Ramdas Pophale) SiO2 
 PCOD9585358
Probable space group: P 63 M C
;
_chemical_formula_sum "Si O2"
_cell_formula_units_Z 72
_cell_length_a 22.126061
_cell_length_b 22.126061
_cell_length_c 9.414732
_cell_angle_alpha 90.000000
_cell_angle_beta 90.000000
_cell_angle_gamma 120.000000
_cell_volume 3991.598073
_symmetry_space_group_name_H-M "P 63 M C"
_symmetry_group_IT_number 186
_symmetry_cell_setting 'hexagonal'
loop_
_space_group_symop_operation_xyz
x,y,z
x-y,x,1/2+z
-y,x-y,z
-x,-y,1/2+z
-x+y,-x,z
y,-x+y,1/2+z
-x+y,y,z
x,x-y,z
-y,-x,z
y,x,1/2+z
x-y,-y,1/2+z
-x,-x+y,1/2+z
loop_
_atom_site_type_symbol
_atom_site_label
_atom_site_fract_x
_atom_site_fract_y
_atom_site_fract_z
Si Si1 0.798211 0.462763 0.559410
Si Si2 0.586342 0.724031 0.843071
Si Si3 0.396064 0.463135 0.605993
Si Si4 0.697339 0.016739 0.534946
Si Si5 0.228887 0.321150 0.320203
Si Si6 0.689938 0.176068 0.872998
O O1 0.716014 0.432027 0.540096
O O2 0.821931 0.410966 0.500041
O O3 0.834334 0.534267 0.476193
O O4 0.812879 0.473945 0.726035
O O5 0.593359 0.796680 0.787492
O O6 0.555055 0.660104 0.732478
O O7 0.655189 0.731123 0.913931
O O8 0.476696 0.523305 0.636837
O O9 0.379129 0.385019 0.559015
O O10 0.367905 0.493040 0.482065
O O11 0.738733 0.044260 0.681488
O O12 0.698948 0.951186 0.466231
O O13 0.147201 0.294401 0.307999
O O14 0.268045 0.405079 0.329241
O O15 0.747840 0.252161 0.931575
#
# Coordination Sequence:
#
# PCOD9585358 Si02
#       6
#    12  12  12  12  12  12
#     4  10  19  31  49  71  98 137 189 244 295 343
#     4  11  22  38  57  77 107 148 191 236 295 357
#     4  11  23  36  53  80 114 147 193 252 301 352
#     4  11  21  39  55  85 112 150 201 229 292 353
#     4  10  20  38  59  83 119 151 185 233 282 347
#     4   9  18  34  54  74 100 143 189 232 297 358
#
# _framework density 18.037887999999999
#
# number of rings (size 3 to 8) (size 9 to 14) (size 15 to 20)
#    0.000    1.667    3.333    2.167    0.000    2.000 
#    0.000    0.000    0.000    4.667    0.000    0.000 
#    0.000    0.000    0.000   19.000    0.000    0.000 
#
# Total GULP energy -401256.949436 kJ/mol
# GULP energy per Si atom -5573.013187 kJ/mol
# Density = 1.799683 g / cm^3
# Si number density = 18.037888 Si / 1000 Ang^3
#
#
#
# Elastic Constant Matrix: (Units=GPa)
#
#
# Indices 1 2 3 4 5 6 
#
# 1 62.3736 36.5304 22.1624 0.0000 0.0000 0.0000
# 2 36.5304 62.3736 22.1624 0.0000 0.0000 0.0000
# 3 22.1624 22.1624 57.6479 0.0000 0.0000 0.0000
# 4 0.0000 0.0000 0.0000 20.5146 0.0000 0.0000
# 5 0.0000 0.0000 0.0000 0.0000 20.5146 0.0000
# 6 0.0000 0.0000 0.0000 0.0000 0.0000 12.9216
#
#
#
# Elastic Compliance Matrix: (Units=1/GPa)
#
#
# Indices 1 2 3 4 5 6 
#
# 1 0.025455 -0.013240 -0.004696 0.000000 0.000000 0.000000
# 2 -0.013240 0.025455 -0.004696 0.000000 0.000000 0.000000
# 3 -0.004696 -0.004696 0.020957 0.000000 0.000000 0.000000
# 4 0.000000 0.000000 0.000000 0.048746 0.000000 0.000000
# 5 0.000000 0.000000 0.000000 0.000000 0.048746 0.000000
# 6 0.000000 0.000000 0.000000 0.000000 0.000000 0.077390
#
#
# Mechanical properties :
#
#
# Convention : Reuss Voigt Hill
#
# Bulk Modulus (GPa) = 37.58863 38.23392 37.91127
# Shear Modulus (GPa) = 16.61788 17.55951 17.08869
#
# Velocity S-wave (km/s) = 3.03855 3.12345 3.08129
# Velocity P-wave (km/s) = 5.76145 5.85238 5.80709
#
# Compressibility (1/GPa) = 0.02660379
#
# Stress axis : x y z
#
# Youngs Moduli (GPa) = 39.28483 39.28483 47.71562
#
# Poissons Ratio (x) = 0.52012 0.22408
# Poissons Ratio (y) = 0.52012 0.22408
# Poissons Ratio (z) = 0.18449 0.18449
#
# Static dielectric constant tensor:
#      x y z
#    x 1.649330 0.000000 0.000000 
#    y 0.000000 1.649330 0.000000 
#    z 0.000000 0.000000 1.631590 
# 
# From -- ./inp_files/1207.got.cif
#   From: 2010.05.17/outbox.cif.g08.bks.cpg/sg186_1_cif.got.tgz:1207.got - 2010.05.20 12:07:08.
