data_PCOD9585368
_publ_section_title
;
Structure prediction by ZEFSAII (Michael W. Deem and Ramdas Pophale) SiO2 
 PCOD9585368
Probable space group: P 63 M C
;
_chemical_formula_sum "Si O2"
_cell_formula_units_Z 84
_cell_length_a 18.131217
_cell_length_b 18.131217
_cell_length_c 15.999864
_cell_angle_alpha 90.000000
_cell_angle_beta 90.000000
_cell_angle_gamma 120.000000
_cell_volume 4555.130612
_symmetry_space_group_name_H-M "P 63 M C"
_symmetry_group_IT_number 186
_symmetry_cell_setting 'hexagonal'
loop_
_space_group_symop_operation_xyz
x,y,z
x-y,x,1/2+z
-y,x-y,z
-x,-y,1/2+z
-x+y,-x,z
y,-x+y,1/2+z
-x+y,y,z
x,x-y,z
-y,-x,z
y,x,1/2+z
x-y,-y,1/2+z
-x,-x+y,1/2+z
loop_
_atom_site_type_symbol
_atom_site_label
_atom_site_fract_x
_atom_site_fract_y
_atom_site_fract_z
Si Si1 0.499653 0.167241 0.294130
Si Si2 0.288163 0.231300 0.841639
Si Si3 0.103803 0.469823 0.983847
Si Si4 0.021867 0.595992 0.274051
Si Si5 0.824363 0.492664 0.658397
Si Si6 0.771290 0.051415 0.503513
Si Si7 0.824501 0.000574 0.674800
O O1 0.597636 0.195271 0.278535
O O2 0.479057 0.239529 0.270413
O O3 0.483139 0.146278 0.393116
O O4 0.441404 0.076417 0.251971
O O5 0.305933 0.152967 0.847325
O O6 0.373986 0.323457 0.834281
O O7 0.234369 0.231424 0.921736
O O8 0.234941 0.218360 0.756265
O O9 0.062094 0.531047 0.986017
O O10 0.052651 0.369739 0.002150
O O11 0.170969 0.504860 0.059040
O O12 0.028431 0.514216 0.306320
O O13 0.082148 0.630876 0.194268
O O14 0.762482 0.524964 0.689291
O O15 0.792961 0.396481 0.686044
O O16 0.851749 0.148252 0.496767
O O17 0.784460 0.013395 0.589398
O O18 0.818195 0.909098 0.677377
O O19 0.923030 0.076971 0.675474
#
# Coordination Sequence:
#
# PCOD9585368 Si02
#       7
#    12  12  12  12  12  12  12
#     4  10  19  32  51  77 106 139 177 219 268 322
#     4  11  22  36  57  83 110 145 189 234 281 334
#     4  10  20  33  53  79 108 142 179 218 273 335
#     4  10  21  35  52  74 105 142 177 215 269 329
#     4  10  19  32  51  77 107 139 175 218 268 327
#     4  11  21  35  57  82 113 150 187 231 282 336
#     4  10  22  39  58  82 112 147 188 233 281 333
#
# _framework density 18.440745
#
# number of rings (size 3 to 8) (size 9 to 14) (size 15 to 20)
#    0.000    1.714    1.429    3.857    0.000    1.714 
#    0.000    1.429    0.000    5.143    0.000    0.000 
#    0.000    0.000    0.000    0.857    0.000    0.143 
#
# Total GULP energy -468302.018254 kJ/mol
# GULP energy per Si atom -5575.024027 kJ/mol
# Density = 1.839877 g / cm^3
# Si number density = 18.440745 Si / 1000 Ang^3
#
#
#
# Elastic Constant Matrix: (Units=GPa)
#
#
# Indices 1 2 3 4 5 6 
#
# 1 118.5149 72.0383 40.7870 0.0000 0.0000 0.0000
# 2 72.0383 118.5149 40.7870 0.0000 0.0000 0.0000
# 3 40.7870 40.7870 87.4151 0.0000 0.0000 0.0000
# 4 0.0000 0.0000 0.0000 17.4867 0.0000 0.0000
# 5 0.0000 0.0000 0.0000 0.0000 17.4867 0.0000
# 6 0.0000 0.0000 0.0000 0.0000 0.0000 23.2383
#
#
#
# Elastic Compliance Matrix: (Units=1/GPa)
#
#
# Indices 1 2 3 4 5 6 
#
# 1 0.014037 -0.007479 -0.003060 0.000000 0.000000 0.000000
# 2 -0.007479 0.014037 -0.003060 0.000000 0.000000 0.000000
# 3 -0.003060 -0.003060 0.014295 0.000000 0.000000 0.000000
# 4 0.000000 0.000000 0.000000 0.057186 0.000000 0.000000
# 5 0.000000 0.000000 0.000000 0.000000 0.057186 0.000000
# 6 0.000000 0.000000 0.000000 0.000000 0.000000 0.043032
#
#
# Mechanical properties :
#
#
# Convention : Reuss Voigt Hill
#
# Bulk Modulus (GPa) = 65.91365 70.18553 68.04959
# Shear Modulus (GPa) = 21.54905 23.03117 22.29011
#
# Velocity S-wave (km/s) = 3.42212 3.53785 3.48047
# Velocity P-wave (km/s) = 7.17187 7.40481 7.28927
#
# Compressibility (1/GPa) = 0.01517136
#
# Stress axis : x y z
#
# Youngs Moduli (GPa) = 71.24049 71.24049 69.95454
#
# Poissons Ratio (x) = 0.53282 0.21405
# Poissons Ratio (y) = 0.53282 0.21405
# Poissons Ratio (z) = 0.21798 0.21798
#
# Static dielectric constant tensor:
#      x y z
#    x 1.659520 0.000000 0.000000 
#    y 0.000000 1.659520 0.000000 
#    z 0.000000 0.000000 1.629150 
# 
# From -- ./inp_files/2581.got.cif
#   From: 2010.05.17/outbox.cif.g08.bks.cpg/sg186_2_cif.got.tgz:2581.got - 2010.05.20 12:07:08.
