data_PCOD9585481
_publ_section_title
;
Structure prediction by ZEFSAII (Michael W. Deem and Ramdas Pophale) SiO2 
 PCOD9585481
Probable space group: P -6 M 2
;
_chemical_formula_sum "Si O2"
_cell_formula_units_Z 78
_cell_length_a 17.505812
_cell_length_b 17.505812
_cell_length_c 20.715344
_cell_angle_alpha 90.000000
_cell_angle_beta 90.000000
_cell_angle_gamma 120.000000
_cell_volume 5497.779298
_symmetry_space_group_name_H-M "P -6 M 2"
_symmetry_group_IT_number 187
_symmetry_cell_setting 'hexagonal'
loop_
_space_group_symop_operation_xyz
x,y,z
-x+y,-x,-z
-y,x-y,z
x,y,-z
-x+y,-x,z
-y,x-y,-z
-y,-x,-z
-x+y,y,-z
x,x-y,-z
-x+y,y,z
x,x-y,z
-y,-x,z
loop_
_atom_site_type_symbol
_atom_site_label
_atom_site_fract_x
_atom_site_fract_y
_atom_site_fract_z
Si Si1 0.999735 0.819694 0.426489
Si Si2 0.667296 0.519461 0.000000
Si Si3 0.490084 0.333975 0.259884
Si Si4 0.681229 0.928397 0.182908
Si Si5 0.761943 0.703564 0.697577
Si Si6 0.825841 0.998541 0.071726
Si Si7 0.433471 0.044908 0.869402
O O1 0.998524 0.788707 0.500000
O O2 0.921771 0.843541 0.422629
O O3 0.978280 0.747906 0.371400
O O4 0.093185 0.906816 0.415122
O O5 0.659450 0.568617 0.936276
O O6 0.580607 0.419394 0.000000
O O7 0.757925 0.515850 0.000000
O O8 0.514660 0.257330 0.261004
O O9 0.572740 0.427261 0.278927
O O10 0.401982 0.301168 0.301925
O O11 0.461741 0.344238 0.187445
O O12 0.650075 0.825038 0.189721
O O13 0.724595 0.981710 0.248818
O O14 0.756245 0.967377 0.128215
O O15 0.615208 0.959935 0.155757
O O16 0.859819 0.719637 0.715010
O O17 0.902283 0.097718 0.080446
O O18 0.864932 0.932466 0.072955
O O19 0.786331 0.988958 0.000000
O O20 0.511531 0.023061 0.876377
#
# Coordination Sequence:
#
# PCOD9585481 Si02
#       7
#    12   6  12  12  12  12  12
#     4   9  16  26  41  61  85 113 143 174 208 247
#     4  10  19  30  45  64  86 110 136 168 211 260
#     4   9  16  27  43  62  84 111 143 175 208 249
#     4  10  19  30  44  61  80 106 140 173 206 246
#     4   9  17  28  42  62  88 113 139 173 210 247
#     4   9  17  27  38  53  76 106 138 167 193 223
#     4   9  19  32  43  59  82 106 133 171 219 261
#
# _framework density 14.187547
#
# number of rings (size 3 to 8) (size 9 to 14) (size 15 to 20)
#    0.000    2.769    0.000    1.923    1.077    3.077 
#    0.000    1.538    0.000    5.692    0.000    0.000 
#    0.000    1.231    0.000    0.000    0.000    4.769 
#
# Total GULP energy -434235.171589 kJ/mol
# GULP energy per Si atom -5567.117584 kJ/mol
# Density = 1.415526 g / cm^3
# Si number density = 14.187547 Si / 1000 Ang^3
#
#
#
# Elastic Constant Matrix: (Units=GPa)
#
#
# Indices 1 2 3 4 5 6 
#
# 1 74.4709 39.9198 46.8986 0.0000 0.0000 0.0000
# 2 39.9198 74.4709 46.8986 0.0000 0.0000 0.0000
# 3 46.8986 46.8986 88.0698 0.0000 0.0000 0.0000
# 4 0.0000 0.0000 0.0000 17.7093 0.0000 0.0000
# 5 0.0000 0.0000 0.0000 0.0000 17.7093 0.0000
# 6 0.0000 0.0000 0.0000 0.0000 0.0000 17.2755
#
#
#
# Elastic Compliance Matrix: (Units=1/GPa)
#
#
# Indices 1 2 3 4 5 6 
#
# 1 0.022230 -0.006712 -0.008263 0.000000 0.000000 0.000000
# 2 -0.006712 0.022230 -0.008263 0.000000 0.000000 0.000000
# 3 -0.008263 -0.008263 0.020155 0.000000 0.000000 0.000000
# 4 0.000000 0.000000 0.000000 0.056468 0.000000 0.000000
# 5 0.000000 0.000000 0.000000 0.000000 0.056468 0.000000
# 6 0.000000 0.000000 0.000000 0.000000 0.000000 0.057885
#
#
# Mechanical properties :
#
#
# Convention : Reuss Voigt Hill
#
# Bulk Modulus (GPa) = 55.13539 56.04952 55.59245
# Shear Modulus (GPa) = 17.36348 17.42513 17.39431
#
# Velocity S-wave (km/s) = 3.50216 3.50837 3.50526
# Velocity P-wave (km/s) = 7.43637 7.48354 7.46000
#
# Compressibility (1/GPa) = 0.01813717
#
# Stress axis : x y z
#
# Youngs Moduli (GPa) = 44.98383 44.98383 49.61427
#
# Poissons Ratio (x) = 0.30195 0.40999
# Poissons Ratio (y) = 0.30195 0.40999
# Poissons Ratio (z) = 0.37172 0.37172
#
# Static dielectric constant tensor:
#      x y z
#    x 1.473500 0.000000 0.000000 
#    y 0.000000 1.473500 0.000000 
#    z 0.000000 0.000000 1.462480 
# 
# From -- ./inp_files/3134.got.cif
#   From: 2010.05.17/outbox.cif.g08.bks.cpg/sg187_2_cif.got.tgz:3134.got - 2010.05.20 12:09:04.
