data_PCOD9585747
_publ_section_title
;
Structure prediction by ZEFSAII (Michael W. Deem and Ramdas Pophale) SiO2 
 PCOD9585747
Probable space group: P -6 M 2
;
_chemical_formula_sum "Si O2"
_cell_formula_units_Z 72
_cell_length_a 23.475716
_cell_length_b 23.475716
_cell_length_c 7.771110
_cell_angle_alpha 90.000000
_cell_angle_beta 90.000000
_cell_angle_gamma 120.000000
_cell_volume 3708.953445
_symmetry_space_group_name_H-M "P -6 M 2"
_symmetry_group_IT_number 187
_symmetry_cell_setting 'hexagonal'
loop_
_space_group_symop_operation_xyz
x,y,z
-x+y,-x,-z
-y,x-y,z
x,y,-z
-x+y,-x,z
-y,x-y,-z
-y,-x,-z
-x+y,y,-z
x,x-y,-z
-x+y,y,z
x,x-y,z
-y,-x,z
loop_
_atom_site_type_symbol
_atom_site_label
_atom_site_fract_x
_atom_site_fract_y
_atom_site_fract_z
Si Si1 0.725235 0.797733 0.206935
Si Si2 0.870489 0.000733 0.293000
Si Si3 0.333333 0.931192 0.207835
Si Si4 0.464399 0.405832 0.793065
Si Si5 0.333334 0.797544 0.707218
Si Si6 0.667400 0.203822 0.293000
O O1 0.722096 0.861048 0.272930
O O2 0.797784 0.811352 0.249293
O O3 0.662924 0.731491 0.271756
O O4 0.720450 0.797386 0.000000
O O5 0.875055 0.000832 0.500000
O O6 0.875951 0.937976 0.229208
O O7 0.930951 0.069050 0.228976
O O8 0.333333 0.864408 0.250615
O O9 0.398158 0.996257 0.271756
O O10 0.333333 0.934838 0.000000
O O11 0.527715 0.472286 0.727068
O O12 0.478019 0.346902 0.750709
O O13 0.464053 0.410271 0.000000
O O14 0.333334 0.792859 0.500000
O O15 0.399616 0.799231 0.770434
O O16 0.267052 0.732948 0.770430
O O17 0.667500 0.208388 0.500000
O O18 0.604642 0.209284 0.229210
O O19 0.735717 0.264284 0.228976
#
# Coordination Sequence:
#
# PCOD9585747 Si02
#       6
#    12  12  12  12  12  12
#     4   9  18  32  49  70  96 125 159 200 243 287
#     4   9  17  30  49  72  97 125 158 198 244 292
#     4  10  20  35  54  74  98 131 169 206 243 284
#     4   9  18  32  49  70  96 125 159 200 243 287
#     4  10  21  36  54  77 105 134 163 199 245 294
#     4   9  17  30  49  72  97 125 158 198 244 292
#
# _framework density 19.412485
#
# number of rings (size 3 to 8) (size 9 to 14) (size 15 to 20)
#    0.000    2.667    0.000    1.500    0.000    6.000 
#    0.000    4.167    0.000    8.000    0.000    0.000 
#    0.000    0.000    0.000    0.000    0.000    0.000 
#
# Total GULP energy -401652.502756 kJ/mol
# GULP energy per Si atom -5578.506983 kJ/mol
# Density = 1.936830 g / cm^3
# Si number density = 19.412485 Si / 1000 Ang^3
#
#
#
# Elastic Constant Matrix: (Units=GPa)
#
#
# Indices 1 2 3 4 5 6 
#
# 1 178.4239 115.0187 3.5057 0.0000 -0.0031 0.0000
# 2 115.0187 178.4239 3.5057 0.0000 0.0031 0.0000
# 3 3.5057 3.5057 24.7797 0.0000 0.0000 0.0000
# 4 0.0000 0.0000 0.0000 -62.4881 0.0000 0.0031
# 5 -0.0031 0.0031 0.0000 0.0000 -62.4881 0.0000
# 6 0.0000 0.0000 0.0000 0.0031 0.0000 31.7026
#
#
#
# Elastic Compliance Matrix: (Units=1/GPa)
#
#
# Indices 1 2 3 4 5 6 
#
# 1 0.009595 -0.006176 -0.000484 0.000000 -0.000001 0.000000
# 2 -0.006176 0.009595 -0.000484 0.000000 0.000001 0.000000
# 3 -0.000484 -0.000484 0.040493 0.000000 0.000000 0.000000
# 4 0.000000 0.000000 0.000000 -0.016003 0.000000 0.000002
# 5 -0.000001 0.000001 0.000000 0.000000 -0.016003 0.000000
# 6 0.000000 0.000000 0.000000 0.000002 0.000000 0.031543
#
#
# Mechanical properties :
#
#
# Convention : Reuss Voigt Hill
#
# Bulk Modulus (GPa) = 22.02825 69.52082 45.77453
# Shear Modulus (GPa) = 56.40806 -1.34823 27.52991
#
# Velocity S-wave (km/s) = 5.39636 -0.83428 3.76993
# Velocity P-wave (km/s) = 7.08517 5.91288 6.52541
#
# Compressibility (1/GPa) = 0.04539626
#
# Stress axis : x y z
#
# Youngs Moduli (GPa) = 104.21577 104.21577 24.69593
#
# Poissons Ratio (x) = 0.64365 0.01195
# Poissons Ratio (y) = 0.64365 0.01195
# Poissons Ratio (z) = 0.05041 0.05041
#
# Static dielectric constant tensor:
#      x y z
#    x 1.668840 0.000000 0.000000 
#    y 0.000000 1.668840 0.000000 
#    z 0.000000 0.000000 1.712420 
# 
# From -- ./inp_files/965.got.cif
#   From: 2010.05.17/outbox.cif.g08.bks.cpg/sg187_1_cif.got.tgz:965.got - 2010.05.20 12:09:04.
