data_PCOD9585613
_publ_section_title
;
Structure prediction by ZEFSAII (Michael W. Deem and Ramdas Pophale) SiO2 
 PCOD9585613
Probable space group: P -6 M 2
;
_chemical_formula_sum "Si O2"
_cell_formula_units_Z 72
_cell_length_a 12.788673
_cell_length_b 12.788673
_cell_length_c 31.355402
_cell_angle_alpha 90.000000
_cell_angle_beta 90.000000
_cell_angle_gamma 120.000000
_cell_volume 4441.134955
_symmetry_space_group_name_H-M "P -6 M 2"
_symmetry_group_IT_number 187
_symmetry_cell_setting 'hexagonal'
loop_
_space_group_symop_operation_xyz
x,y,z
-x+y,-x,-z
-y,x-y,z
x,y,-z
-x+y,-x,z
-y,x-y,-z
-y,-x,-z
-x+y,y,-z
x,x-y,-z
-x+y,y,z
x,x-y,z
-y,-x,z
loop_
_atom_site_type_symbol
_atom_site_label
_atom_site_fract_x
_atom_site_fract_y
_atom_site_fract_z
Si Si1 0.333165 0.418786 0.675905
Si Si2 0.999764 0.248344 0.754728
Si Si3 0.000156 0.249101 0.082043
Si Si4 0.418077 0.332328 0.000000
Si Si5 0.332577 0.418305 0.835697
Si Si6 0.580900 0.914375 0.578179
Si Si7 0.249019 0.247739 0.500000
O O1 0.223971 0.447942 0.680085
O O2 0.460088 0.539913 0.683329
O O3 0.306679 0.317186 0.710579
O O4 0.330602 0.378261 0.627024
O O5 0.873513 0.126488 0.759060
O O6 0.110520 0.221039 0.755688
O O7 0.024046 0.340106 0.793483
O O8 0.118162 0.236324 0.074990
O O9 0.025825 0.332800 0.123395
O O10 0.882070 0.117930 0.088282
O O11 0.974720 0.310209 0.041530
O O12 0.537433 0.462567 0.000000
O O13 0.451642 0.225821 0.000000
O O14 0.225455 0.450910 0.834706
O O15 0.461805 0.538196 0.837538
O O16 0.457712 0.915424 0.571732
O O17 0.556191 0.778096 0.573731
O O18 0.676766 0.991423 0.542260
O O19 0.242281 0.121141 0.500000
O O20 0.115645 0.231290 0.500000
#
# Coordination Sequence:
#
# PCOD9585613 Si02
#       7
#    12  12  12   6  12  12   6
#     4   9  17  30  50  75 100 124 152 191 240 291
#     4  10  20  33  50  72  99 131 165 201 239 282
#     4  10  20  34  54  78 104 134 167 205 247 293
#     4  10  20  34  52  74 102 136 172 208 246 290
#     4  10  20  34  53  76 101 129 162 203 250 297
#     4   9  17  30  50  75  98 120 150 193 244 290
#     4  10  20  32  46  66  94 128 162 194 232 280
#
# _framework density 16.212071999999999
#
# number of rings (size 3 to 8) (size 9 to 14) (size 15 to 20)
#    0.000    2.333    0.000    3.000    0.000    2.000 
#    0.000    5.000    0.000   12.667    0.000    0.000 
#    0.000    0.000    0.000    0.000    0.000    0.000 
#
# Total GULP energy -401669.783261 kJ/mol
# GULP energy per Si atom -5578.746990 kJ/mol
# Density = 1.617517 g / cm^3
# Si number density = 16.212072 Si / 1000 Ang^3
#
#
#
# Elastic Constant Matrix: (Units=GPa)
#
#
# Indices 1 2 3 4 5 6 
#
# 1 114.6898 75.9522 79.1409 0.0000 0.0000 0.0000
# 2 75.9522 114.6898 79.1409 0.0000 0.0000 0.0000
# 3 79.1409 79.1409 131.1404 0.0000 0.0000 0.0000
# 4 0.0000 0.0000 0.0000 21.1268 0.0000 0.0000
# 5 0.0000 0.0000 0.0000 0.0000 21.1268 0.0000
# 6 0.0000 0.0000 0.0000 0.0000 0.0000 19.3688
#
#
#
# Elastic Compliance Matrix: (Units=1/GPa)
#
#
# Indices 1 2 3 4 5 6 
#
# 1 0.018164 -0.007651 -0.006344 0.000000 0.000000 0.000000
# 2 -0.007651 0.018164 -0.006344 0.000000 0.000000 0.000000
# 3 -0.006344 -0.006344 0.015283 0.000000 0.000000 0.000000
# 4 0.000000 0.000000 0.000000 0.047333 0.000000 0.000000
# 5 0.000000 0.000000 0.000000 0.000000 0.047333 0.000000
# 6 0.000000 0.000000 0.000000 0.000000 0.000000 0.051629
#
#
# Mechanical properties :
#
#
# Convention : Reuss Voigt Hill
#
# Bulk Modulus (GPa) = 91.48119 92.10978 91.79549
# Shear Modulus (GPa) = 20.64160 20.74353 20.69257
#
# Velocity S-wave (km/s) = 3.57210 3.58091 3.57650
# Velocity P-wave (km/s) = 8.57692 8.60442 8.59068
#
# Compressibility (1/GPa) = 0.01093121
#
# Stress axis : x y z
#
# Youngs Moduli (GPa) = 55.05460 55.05460 65.43310
#
# Poissons Ratio (x) = 0.42122 0.41513
# Poissons Ratio (y) = 0.42122 0.41513
# Poissons Ratio (z) = 0.34928 0.34928
#
# Static dielectric constant tensor:
#      x y z
#    x 1.509910 0.000000 0.000000 
#    y 0.000000 1.509910 0.000000 
#    z 0.000000 0.000000 1.550700 
# 
# From -- ./inp_files/4582.got.cif
#   From: 2010.05.17/outbox.cif.g08.bks.cpg/sg187_3_cif.got.tgz:4582.got - 2010.05.20 12:09:04.
