data_PCOD9585655
_publ_section_title
;
Structure prediction by ZEFSAII (Michael W. Deem and Ramdas Pophale) SiO2 
 PCOD9585655
Probable space group: P -6 M 2
;
_chemical_formula_sum "Si O2"
_cell_formula_units_Z 72
_cell_length_a 12.729174
_cell_length_b 12.729174
_cell_length_c 32.211306
_cell_angle_alpha 90.000000
_cell_angle_beta 90.000000
_cell_angle_gamma 120.000000
_cell_volume 4520.010164
_symmetry_space_group_name_H-M "P -6 M 2"
_symmetry_group_IT_number 187
_symmetry_cell_setting 'hexagonal'
loop_
_space_group_symop_operation_xyz
x,y,z
-x+y,-x,-z
-y,x-y,z
x,y,-z
-x+y,-x,z
-y,x-y,-z
-y,-x,-z
-x+y,y,-z
x,x-y,-z
-x+y,y,z
x,x-y,z
-y,-x,z
loop_
_atom_site_type_symbol
_atom_site_label
_atom_site_fract_x
_atom_site_fract_y
_atom_site_fract_z
Si Si1 0.667230 0.081902 0.340891
Si Si2 0.667317 0.585536 0.841214
Si Si3 0.666272 0.582493 0.000000
Si Si4 0.916253 0.583387 0.750076
Si Si5 0.583193 0.916350 0.920080
Si Si6 0.249688 0.999808 0.500000
Si Si7 0.583731 0.916625 0.579950
O O1 0.551808 0.103616 0.341213
O O2 0.791187 0.208814 0.346802
O O3 0.671850 0.031460 0.294920
O O4 0.645002 0.990056 0.377995
O O5 0.790900 0.581799 0.847354
O O6 0.551673 0.448328 0.842033
O O7 0.672123 0.639951 0.795158
O O8 0.645073 0.656125 0.877947
O O9 0.647335 0.643944 0.959262
O O10 0.557106 0.442895 0.000000
O O11 0.794484 0.588968 0.000000
O O12 0.779642 0.559283 0.749974
O O13 0.913703 0.456852 0.750158
O O14 0.444745 0.889489 0.919894
O O15 0.586596 0.793298 0.923263
O O16 0.110888 0.889113 0.500000
O O17 0.312212 0.982190 0.459242
O O18 0.255196 0.127598 0.500000
O O19 0.456000 0.911999 0.574826
O O20 0.564278 0.782139 0.582122
#
# Coordination Sequence:
#
# PCOD9585655 Si02
#       7
#    12  12   6  12  12   6  12
#     4   9  16  27  45  69  96 123 152 190 237 286
#     4   9  16  27  46  71  96 120 149 191 241 287
#     4  10  20  34  54  78 100 118 140 180 234 284
#     4   8  13  22  39  65  94 121 149 184 232 286
#     4  10  20  33  49  68  93 126 161 193 222 261
#     4  10  20  34  52  72  92 114 144 186 234 278
#     4  10  20  33  49  68  93 126 161 193 222 261
#
# _framework density 15.929168000000001
#
# number of rings (size 3 to 8) (size 9 to 14) (size 15 to 20)
#    0.000    2.667    0.000    2.500    0.000    2.667 
#    0.000    4.167    0.000    7.333    0.000    2.333 
#    0.000    0.000    0.000    0.000    0.000    0.000 
#
# Total GULP energy -400938.568185 kJ/mol
# GULP energy per Si atom -5568.591225 kJ/mol
# Density = 1.589291 g / cm^3
# Si number density = 15.929168 Si / 1000 Ang^3
#
#
#
# Elastic Constant Matrix: (Units=GPa)
#
#
# Indices 1 2 3 4 5 6 
#
# 1 75.5366 56.3252 74.1846 0.0000 0.0011 0.0000
# 2 56.3252 75.5366 74.1846 0.0000 -0.0011 0.0000
# 3 74.1846 74.1846 177.2390 0.0000 0.0000 0.0000
# 4 0.0000 0.0000 0.0000 14.3564 0.0000 -0.0011
# 5 0.0011 -0.0011 0.0000 0.0000 14.3564 0.0000
# 6 0.0000 0.0000 0.0000 -0.0011 0.0000 9.6057
#
#
#
# Elastic Compliance Matrix: (Units=1/GPa)
#
#
# Indices 1 2 3 4 5 6 
#
# 1 0.033194 -0.018859 -0.006000 0.000000 -0.000004 0.000000
# 2 -0.018859 0.033194 -0.006000 0.000000 0.000004 0.000000
# 3 -0.006000 -0.006000 0.010665 0.000000 0.000000 0.000000
# 4 0.000000 0.000000 0.000000 0.069655 0.000000 0.000008
# 5 -0.000004 0.000004 0.000000 0.000000 0.069655 0.000000
# 6 0.000000 0.000000 0.000000 0.000008 0.000000 0.104105
#
#
# Mechanical properties :
#
#
# Convention : Reuss Voigt Hill
#
# Bulk Modulus (GPa) = 65.21233 81.96678 73.58956
# Shear Modulus (GPa) = 12.91001 15.90488 14.40745
#
# Velocity S-wave (km/s) = 2.84995 3.16329 3.01070
# Velocity P-wave (km/s) = 7.20121 8.05672 7.64095
#
# Compressibility (1/GPa) = 0.01533452
#
# Stress axis : x y z
#
# Youngs Moduli (GPa) = 30.12633 30.12633 93.76748
#
# Poissons Ratio (x) = 0.56815 0.56259
# Poissons Ratio (y) = 0.56815 0.56259
# Poissons Ratio (z) = 0.18075 0.18075
#
# Static dielectric constant tensor:
#      x y z
#    x 1.494900 0.000000 0.000000 
#    y 0.000000 1.494900 0.000000 
#    z 0.000000 0.000000 1.576040 
# 
# From -- ./inp_files/4609.got.cif
#   From: 2010.05.17/outbox.cif.g08.bks.cpg/sg187_3_cif.got.tgz:4609.got - 2010.05.20 12:09:04.
