data_PCOD9585398
_publ_section_title
;
Structure prediction by ZEFSAII (Michael W. Deem and Ramdas Pophale) SiO2 
 PCOD9585398
Probable space group: P 63 M C
;
_chemical_formula_sum "Si O2"
_cell_formula_units_Z 84
_cell_length_a 29.334848
_cell_length_b 29.334848
_cell_length_c 5.567978
_cell_angle_alpha 90.000000
_cell_angle_beta 90.000000
_cell_angle_gamma 120.000000
_cell_volume 4149.500553
_symmetry_space_group_name_H-M "P 63 M C"
_symmetry_group_IT_number 186
_symmetry_cell_setting 'hexagonal'
loop_
_space_group_symop_operation_xyz
x,y,z
x-y,x,1/2+z
-y,x-y,z
-x,-y,1/2+z
-x+y,-x,z
y,-x+y,1/2+z
-x+y,y,z
x,x-y,z
-y,-x,z
y,x,1/2+z
x-y,-y,1/2+z
-x,-x+y,1/2+z
loop_
_atom_site_type_symbol
_atom_site_label
_atom_site_fract_x
_atom_site_fract_y
_atom_site_fract_z
Si Si1 0.435288 0.666911 0.195430
Si Si2 0.022541 0.565375 0.271695
Si Si3 0.866006 0.349051 0.943192
Si Si4 0.249712 0.969518 0.237583
Si Si5 0.531836 0.815505 0.826784
Si Si6 0.170910 0.030864 0.736696
Si Si7 0.858810 0.613723 0.717646
O O1 0.422733 0.711367 0.283657
O O2 0.382975 0.617026 0.099425
O O3 0.462165 0.648701 0.394330
O O4 0.482752 0.694307 0.007357
O O5 0.010876 0.505438 0.260128
O O6 0.083687 0.603516 0.327632
O O7 0.006289 0.576350 0.011022
O O8 0.859999 0.293807 0.855375
O O9 0.863082 0.338036 0.223579
O O10 0.190700 0.960915 0.236634
O O11 0.247754 0.914044 0.233089
O O12 0.275725 0.999381 0.489027
O O13 0.528045 0.764023 0.690523
O O14 0.588469 0.843407 0.952729
O O15 0.172250 0.086125 0.736579
O O16 0.144689 0.999993 0.486702
O O17 0.811084 0.622167 0.800753
#
# Coordination Sequence:
#
# PCOD9585398 Si02
#       7
#    12  12  12  12  12  12  12
#     4  10  21  37  59  88 120 154 196 249 308 369
#     4  10  24  43  63  89 121 158 204 254 305 358
#     4  11  22  38  62  86 116 159 203 251 302 370
#     4  10  23  40  60  91 125 161 208 256 307 365
#     4   9  20  38  57  84 117 155 200 243 302 372
#     4  10  20  37  61  88 121 162 208 256 310 369
#     4  10  22  39  60  86 120 159 199 247 306 365
#
# _framework density 20.243400999999999
#
# number of rings (size 3 to 8) (size 9 to 14) (size 15 to 20)
#    0.000    2.000    0.000    3.571    6.000    2.286 
#    0.000    1.429    0.000    4.571    0.000    0.000 
#    0.000    0.000    0.000    0.000    0.000    0.000 
#
# Total GULP energy -467704.073904 kJ/mol
# GULP energy per Si atom -5567.905642 kJ/mol
# Density = 2.019733 g / cm^3
# Si number density = 20.243401 Si / 1000 Ang^3
#
#
#
# Elastic Constant Matrix: (Units=GPa)
#
#
# Indices 1 2 3 4 5 6 
#
# 1 74.2720 31.7754 30.9414 0.0000 0.0000 0.0000
# 2 31.7754 74.2720 30.9414 0.0000 0.0000 0.0000
# 3 30.9414 30.9414 78.3409 0.0000 0.0000 0.0000
# 4 0.0000 0.0000 0.0000 14.8740 0.0000 0.0000
# 5 0.0000 0.0000 0.0000 0.0000 14.8740 0.0000
# 6 0.0000 0.0000 0.0000 0.0000 0.0000 21.2483
#
#
#
# Elastic Compliance Matrix: (Units=1/GPa)
#
#
# Indices 1 2 3 4 5 6 
#
# 1 0.017893 -0.005639 -0.004840 0.000000 0.000000 0.000000
# 2 -0.005639 0.017893 -0.004840 0.000000 0.000000 0.000000
# 3 -0.004840 -0.004840 0.016588 0.000000 0.000000 0.000000
# 4 0.000000 0.000000 0.000000 0.067231 0.000000 0.000000
# 5 0.000000 0.000000 0.000000 0.000000 0.067231 0.000000
# 6 0.000000 0.000000 0.000000 0.000000 0.000000 0.047063
#
#
# Mechanical properties :
#
#
# Convention : Reuss Voigt Hill
#
# Bulk Modulus (GPa) = 46.00559 46.02232 46.01396
# Shear Modulus (GPa) = 18.39722 19.08105 18.73914
#
# Velocity S-wave (km/s) = 3.01790 3.07348 3.04582
# Velocity P-wave (km/s) = 5.90925 5.94801 5.92866
#
# Compressibility (1/GPa) = 0.02173649
#
# Stress axis : x y z
#
# Youngs Moduli (GPa) = 55.88893 55.88893 60.28538
#
# Poissons Ratio (x) = 0.31514 0.29177
# Poissons Ratio (y) = 0.31514 0.29177
# Poissons Ratio (z) = 0.27049 0.27049
#
# Static dielectric constant tensor:
#      x y z
#    x 1.716970 0.000000 0.000000 
#    y 0.000000 1.716970 0.000000 
#    z 0.000000 0.000000 1.896410 
# 
# From -- ./inp_files/446.got.cif
#   From: 2010.05.17/outbox.cif.g08.bks.cpg/sg186_1_cif.got.tgz:446.got - 2010.05.20 12:07:08.
