data_PCOD9585181
_publ_section_title
;
Structure prediction by ZEFSAII (Michael W. Deem and Ramdas Pophale) SiO2 
 PCOD9585181
Probable space group: P 6 C C
;
_chemical_formula_sum "Si O2"
_cell_formula_units_Z 60
_cell_length_a 14.594533
_cell_length_b 14.594533
_cell_length_c 13.239296
_cell_angle_alpha 90.000000
_cell_angle_beta 90.000000
_cell_angle_gamma 120.000000
_cell_volume 2442.170211
_symmetry_space_group_name_H-M "P 6 C C"
_symmetry_group_IT_number 184
_symmetry_cell_setting 'hexagonal'
loop_
_space_group_symop_operation_xyz
x,y,z
x-y,x,z
-y,x-y,z
-x,-y,z
-x+y,-x,z
y,-x+y,z
-x+y,y,1/2+z
x,x-y,1/2+z
-y,-x,1/2+z
y,x,1/2+z
x-y,-y,1/2+z
-x,-x+y,1/2+z
loop_
_atom_site_type_symbol
_atom_site_label
_atom_site_fract_x
_atom_site_fract_y
_atom_site_fract_z
Si Si1 0.454497 0.376986 0.097630
Si Si2 0.455824 0.783907 0.789204
Si Si3 0.809348 0.773512 0.585918
Si Si4 0.996725 0.598171 0.868037
Si Si5 0.815801 0.769700 0.341277
O O1 0.500000 0.500000 0.120020
O O2 0.517159 0.337905 0.171393
O O3 0.334572 0.289579 0.121608
O O4 0.445520 0.380726 0.974681
O O5 0.336963 0.766372 0.806786
O O6 0.548994 0.872701 0.861488
O O7 0.922879 0.791921 0.615599
O O8 0.811339 0.769821 0.463738
O O9 0.000000 0.500000 0.819775
O O10 0.944726 0.658693 0.814699
O O11 0.930667 0.793422 0.311374
#
# Coordination Sequence:
#
# PCOD9585181 Si02
#       5
#    12  12  12  12  12
#     4  10  22  42  67  99 143 193 247 311 398 476
#     4  10  25  44  72 104 145 191 262 327 394 467
#     4   9  18  33  59  93 134 180 236 298 370 457
#     4  10  22  42  67  99 143 193 247 311 398 476
#     4   9  18  33  59  93 134 180 236 298 370 457
#
# _framework density 24.56831
#
# number of rings (size 3 to 8) (size 9 to 14) (size 15 to 20)
#    0.400    2.000    0.000    1.000    5.600    1.600 
#    7.200    0.000    0.000    0.000    0.000    2.800 
#    0.000    0.000    0.000    0.000    0.000    0.000 
#
# Total GULP energy -334231.395531 kJ/mol
# GULP energy per Si atom -5570.523259 kJ/mol
# Density = 2.451239 g / cm^3
# Si number density = 24.568310 Si / 1000 Ang^3
#
#
#
# Elastic Constant Matrix: (Units=GPa)
#
#
# Indices 1 2 3 4 5 6 
#
# 1 158.6055 66.3759 -13.8418 0.0000 0.0000 0.0000
# 2 66.3759 158.6055 -13.8418 0.0000 0.0000 0.0000
# 3 -13.8418 -13.8418 110.6214 0.0000 0.0000 0.0000
# 4 0.0000 0.0000 0.0000 11.9584 0.0000 0.0000
# 5 0.0000 0.0000 0.0000 0.0000 11.9584 0.0000
# 6 0.0000 0.0000 0.0000 0.0000 0.0000 46.1148
#
#
#
# Elastic Compliance Matrix: (Units=1/GPa)
#
#
# Indices 1 2 3 4 5 6 
#
# 1 0.007678 -0.003164 0.000565 0.000000 0.000000 0.000000
# 2 -0.003164 0.007678 0.000565 0.000000 0.000000 0.000000
# 3 0.000565 0.000565 0.009181 0.000000 0.000000 0.000000
# 4 0.000000 0.000000 0.000000 0.083623 0.000000 0.000000
# 5 0.000000 0.000000 0.000000 0.000000 0.083623 0.000000
# 6 0.000000 0.000000 0.000000 0.000000 0.000000 0.021685
#
#
# Mechanical properties :
#
#
# Convention : Reuss Voigt Hill
#
# Bulk Modulus (GPa) = 48.85366 56.13523 52.49445
# Shear Modulus (GPa) = 22.28550 39.94899 31.11725
#
# Velocity S-wave (km/s) = 3.01505 4.03679 3.56274
# Velocity P-wave (km/s) = 5.66116 6.68025 6.19171
#
# Compressibility (1/GPa) = 0.02046930
#
# Stress axis : x y z
#
# Youngs Moduli (GPa) = 130.23523 130.23523 108.91820
#
# Poissons Ratio (x) = 0.41208 -0.06152
# Poissons Ratio (y) = 0.41208 -0.06152
# Poissons Ratio (z) = -0.07357 -0.07357
#
# Static dielectric constant tensor:
#      x y z
#    x 1.993900 0.000000 0.000000 
#    y 0.000000 1.993900 0.000000 
#    z 0.000000 0.000000 2.003370 
# 
# From -- ./inp_files/802.got.cif
#   From: 2010.05.17/outbox.cif.g08.bks.cpg/sg184_cif.got.tgz:802.got - 2010.05.20 12:04:40.
