data_PCOD9585494
_publ_section_title
;
Structure prediction by ZEFSAII (Michael W. Deem and Ramdas Pophale) SiO2 
 PCOD9585494
Probable space group: P -6 M 2
;
_chemical_formula_sum "Si O2"
_cell_formula_units_Z 72
_cell_length_a 24.330375
_cell_length_b 24.330375
_cell_length_c 9.332916
_cell_angle_alpha 90.000000
_cell_angle_beta 90.000000
_cell_angle_gamma 120.000000
_cell_volume 4784.599539
_symmetry_space_group_name_H-M "P -6 M 2"
_symmetry_group_IT_number 187
_symmetry_cell_setting 'hexagonal'
loop_
_space_group_symop_operation_xyz
x,y,z
-x+y,-x,-z
-y,x-y,z
x,y,-z
-x+y,-x,z
-y,x-y,-z
-y,-x,-z
-x+y,y,-z
x,x-y,-z
-x+y,y,z
x,x-y,z
-y,-x,z
loop_
_atom_site_type_symbol
_atom_site_label
_atom_site_fract_x
_atom_site_fract_y
_atom_site_fract_z
Si Si1 0.000441 0.129090 0.168000
Si Si2 0.144597 0.511444 0.665890
Si Si3 0.990183 0.324182 0.828511
Si Si4 0.443250 0.009388 0.334345
Si Si5 0.258600 0.194266 0.330406
Si Si6 0.601372 0.861616 0.171605
O O1 0.943555 0.056446 0.183314
O O2 0.982495 0.171481 0.265819
O O3 0.067336 0.134671 0.202287
O O4 0.001311 0.146381 0.000000
O O5 0.163873 0.514184 0.500000
O O6 0.165903 0.582952 0.715091
O O7 0.162003 0.467386 0.758625
O O8 0.067587 0.473871 0.668202
O O9 0.971664 0.374822 0.768347
O O10 0.949222 0.256968 0.752923
O O11 0.064854 0.352125 0.788666
O O12 0.984978 0.319285 0.000000
O O13 0.441955 0.027707 0.500000
O O14 0.515608 0.031215 0.293659
O O15 0.260353 0.205864 0.500000
O O16 0.270399 0.135200 0.307124
O O17 0.624711 0.812356 0.211982
O O18 0.595027 0.860548 0.000000
#
# Coordination Sequence:
#
# PCOD9585494 Si02
#       6
#    12  12  12  12  12  12
#     4   9  17  30  48  67  85 107 140 186 240 294
#     4   8  14  25  41  60  80 103 133 167 203 246
#     4  10  19  30  46  66  88 116 148 183 223 266
#     4   8  14  26  44  65  89 114 137 164 202 248
#     4  10  21  35  48  63  86 117 153 190 227 273
#     4   9  18  30  42  60  86 112 140 177 221 267
#
# _framework density 15.048282
#
# number of rings (size 3 to 8) (size 9 to 14) (size 15 to 20)
#    0.000    3.000    0.000    2.167    0.000    4.333 
#    0.000    5.000    0.000    1.333    0.000    0.000 
#    0.000    0.000    0.000    0.500    0.000    9.667 
#
# Total GULP energy -400916.655245 kJ/mol
# GULP energy per Si atom -5568.286878 kJ/mol
# Density = 1.501403 g / cm^3
# Si number density = 15.048282 Si / 1000 Ang^3
#
#
#
# Elastic Constant Matrix: (Units=GPa)
#
#
# Indices 1 2 3 4 5 6 
#
# 1 64.3733 44.8452 49.5445 0.0000 0.0002 0.0000
# 2 44.8452 64.3733 49.5445 0.0000 -0.0002 0.0000
# 3 49.5445 49.5445 61.4488 0.0000 0.0000 0.0000
# 4 0.0000 0.0000 0.0000 23.2243 0.0000 -0.0002
# 5 0.0002 -0.0002 0.0000 0.0000 23.2243 0.0000
# 6 0.0000 0.0000 0.0000 -0.0002 0.0000 9.7640
#
#
#
# Elastic Compliance Matrix: (Units=1/GPa)
#
#
# Indices 1 2 3 4 5 6 
#
# 1 0.042654 -0.008554 -0.027494 0.000000 0.000000 0.000000
# 2 -0.008554 0.042654 -0.027494 0.000000 0.000000 0.000000
# 3 -0.027494 -0.027494 0.060609 0.000000 0.000000 0.000000
# 4 0.000000 0.000000 0.000000 0.043058 0.000000 0.000001
# 5 0.000000 0.000000 0.000000 0.000000 0.043058 0.000000
# 6 0.000000 0.000000 0.000000 0.000001 0.000000 0.102417
#
#
# Mechanical properties :
#
#
# Convention : Reuss Voigt Hill
#
# Bulk Modulus (GPa) = 53.09757 53.11820 53.10788
# Shear Modulus (GPa) = 10.68805 14.32657 12.50731
#
# Velocity S-wave (km/s) = 2.66794 3.08886 2.88609
# Velocity P-wave (km/s) = 6.69716 6.93517 6.81720
#
# Compressibility (1/GPa) = 0.01883325
#
# Stress axis : x y z
#
# Youngs Moduli (GPa) = 23.44439 23.44439 16.49929
#
# Poissons Ratio (x) = 0.20055 0.45363
# Poissons Ratio (y) = 0.20055 0.45363
# Poissons Ratio (z) = 0.64457 0.64457
#
# Static dielectric constant tensor:
#      x y z
#    x 1.495730 0.000000 0.000000 
#    y 0.000000 1.495730 0.000000 
#    z 0.000000 0.000000 1.499540 
# 
# From -- ./inp_files/927.got.cif
#   From: 2010.05.17/outbox.cif.g08.bks.cpg/sg187_1_cif.got.tgz:927.got - 2010.05.20 12:09:04.
