data_PCOD9585470
_publ_section_title
;
Structure prediction by ZEFSAII (Michael W. Deem and Ramdas Pophale) SiO2 
 PCOD9585470
Probable space group: P -6 M 2
;
_chemical_formula_sum "Si O2"
_cell_formula_units_Z 78
_cell_length_a 24.494531
_cell_length_b 24.494531
_cell_length_c 7.889209
_cell_angle_alpha 90.000000
_cell_angle_beta 90.000000
_cell_angle_gamma 120.000000
_cell_volume 4099.230599
_symmetry_space_group_name_H-M "P -6 M 2"
_symmetry_group_IT_number 187
_symmetry_cell_setting 'hexagonal'
loop_
_space_group_symop_operation_xyz
x,y,z
-x+y,-x,-z
-y,x-y,z
x,y,-z
-x+y,-x,z
-y,x-y,-z
-y,-x,-z
-x+y,y,-z
x,x-y,-z
-x+y,y,z
x,x-y,z
-y,-x,z
loop_
_atom_site_type_symbol
_atom_site_label
_atom_site_fract_x
_atom_site_fract_y
_atom_site_fract_z
Si Si1 0.293588 0.830284 0.798118
Si Si2 0.153283 0.576642 0.303940
Si Si3 0.495909 0.504092 0.204502
Si Si4 0.040116 0.345205 0.205758
Si Si5 0.642196 0.568315 0.204024
Si Si6 0.999210 0.129350 0.500000
Si Si7 0.779041 0.824204 0.195353
Si Si8 0.791416 0.458242 0.702882
O O1 0.229093 0.770908 0.730455
O O2 0.354286 0.822540 0.771452
O O3 0.308372 0.898878 0.731367
O O4 0.285053 0.832224 0.000000
O O5 0.169278 0.584639 0.500000
O O6 0.077558 0.538779 0.280218
O O7 0.568658 0.535728 0.251636
O O8 0.491773 0.508228 0.000000
O O9 0.049258 0.286390 0.241567
O O10 0.971664 0.331892 0.264964
O O11 0.039479 0.351376 0.000000
O O12 0.669162 0.524149 0.264097
O O13 0.646303 0.568766 0.000000
O O14 0.937288 0.062713 0.500000
O O15 0.060987 0.121974 0.500000
O O16 0.003760 0.168514 0.668068
O O17 0.770582 0.885291 0.202268
O O18 0.795001 0.817863 0.000000
O O19 0.784993 0.451163 0.500000
O O20 0.728464 0.456927 0.768284
O O21 0.797630 0.398815 0.768451
#
# Coordination Sequence:
#
# PCOD9585470 Si02
#       8
#    12   6   6  12  12   6  12  12
#     4  10  20  37  61  82 104 142 192 235 275 333
#     4  12  24  36  52  80 118 148 180 228 290 336
#     4  10  18  34  56  78 106 140 178 222 272 332
#     4   9  17  33  58  85 110 139 178 228 282 335
#     4  10  19  33  56  81 107 137 174 227 282 326
#     4  10  21  38  60  88 118 153 196 240 284 330
#     4   9  18  35  58  85 119 155 193 236 287 343
#     4  10  21  37  55  75 103 140 182 226 276 335
#
# _framework density 19.027961000000001
#
# number of rings (size 3 to 8) (size 9 to 14) (size 15 to 20)
#    0.000    2.154    2.308    1.385    0.000    4.000 
#    3.231    0.769    0.000    4.615    0.000    0.000 
#    0.000    0.000    0.000    0.000    0.000    0.000 
#
# Total GULP energy -435090.341761 kJ/mol
# GULP energy per Si atom -5578.081305 kJ/mol
# Density = 1.898465 g / cm^3
# Si number density = 19.027961 Si / 1000 Ang^3
#
#
#
# Elastic Constant Matrix: (Units=GPa)
#
#
# Indices 1 2 3 4 5 6 
#
# 1 106.8039 46.3301 23.6854 0.0000 0.0007 0.0000
# 2 46.3301 106.8039 23.6854 0.0000 -0.0007 0.0000
# 3 23.6854 23.6854 35.7154 0.0000 0.0000 0.0000
# 4 0.0000 0.0000 0.0000 16.2091 0.0000 -0.0007
# 5 0.0007 -0.0007 0.0000 0.0000 16.2091 0.0000
# 6 0.0000 0.0000 0.0000 -0.0007 0.0000 30.2369
#
#
#
# Elastic Compliance Matrix: (Units=1/GPa)
#
#
# Indices 1 2 3 4 5 6 
#
# 1 0.012376 -0.004160 -0.005448 0.000000 -0.000001 0.000000
# 2 -0.004160 0.012376 -0.005448 0.000000 0.000001 0.000000
# 3 -0.005448 -0.005448 0.035226 0.000000 0.000000 0.000000
# 4 0.000000 0.000000 0.000000 0.061694 0.000000 0.000001
# 5 -0.000001 0.000001 0.000000 0.000000 0.061694 0.000000
# 6 0.000000 0.000000 0.000000 0.000001 0.000000 0.033072
#
#
# Mechanical properties :
#
#
# Convention : Reuss Voigt Hill
#
# Bulk Modulus (GPa) = 33.48585 48.52499 41.00542
# Shear Modulus (GPa) = 19.49278 22.90585 21.19931
#
# Velocity S-wave (km/s) = 3.20414 3.47335 3.34146
# Velocity P-wave (km/s) = 5.59689 6.45312 6.04020
#
# Compressibility (1/GPa) = 0.02986336
#
# Stress axis : x y z
#
# Youngs Moduli (GPa) = 80.80248 80.80248 28.38850
#
# Poissons Ratio (x) = 0.33616 0.15467
# Poissons Ratio (y) = 0.33616 0.15467
# Poissons Ratio (z) = 0.44024 0.44024
#
# Static dielectric constant tensor:
#      x y z
#    x 1.654140 0.000000 0.000000 
#    y 0.000000 1.654140 0.000000 
#    z 0.000000 0.000000 1.691460 
# 
# From -- ./inp_files/1204.got.cif
#   From: 2010.05.17/outbox.cif.g08.bks.cpg/sg187_1_cif.got.tgz:1204.got - 2010.05.20 12:09:04.
