data_PCOD9585719
_publ_section_title
;
Structure prediction by ZEFSAII (Michael W. Deem and Ramdas Pophale) SiO2 
 PCOD9585719
Probable space group: P -6 M 2
;
_chemical_formula_sum "Si O2"
_cell_formula_units_Z 60
_cell_length_a 21.205639
_cell_length_b 21.205639
_cell_length_c 8.835162
_cell_angle_alpha 90.000000
_cell_angle_beta 90.000000
_cell_angle_gamma 120.000000
_cell_volume 3440.708468
_symmetry_space_group_name_H-M "P -6 M 2"
_symmetry_group_IT_number 187
_symmetry_cell_setting 'hexagonal'
loop_
_space_group_symop_operation_xyz
x,y,z
-x+y,-x,-z
-y,x-y,z
x,y,-z
-x+y,-x,z
-y,x-y,-z
-y,-x,-z
-x+y,y,-z
x,x-y,-z
-x+y,y,z
x,x-y,z
-y,-x,z
loop_
_atom_site_type_symbol
_atom_site_label
_atom_site_fract_x
_atom_site_fract_y
_atom_site_fract_z
Si Si1 0.129955 0.870046 0.815044
Si Si2 0.333667 0.808468 0.678326
Si Si3 0.081298 0.374176 0.819394
Si Si4 0.587884 0.032521 0.319901
Si Si5 0.907541 0.953771 0.183480
Si Si6 0.667228 0.477598 0.820828
O O1 0.214990 0.908068 0.768401
O O2 0.087829 0.912172 0.762095
O O3 0.129345 0.870656 0.000000
O O4 0.338639 0.828187 0.500000
O O5 0.413174 0.826347 0.729826
O O6 0.277188 0.722813 0.689662
O O7 0.300622 0.850269 0.767714
O O8 0.014171 0.379762 0.752376
O O9 0.076338 0.370987 0.000000
O O10 0.585663 0.024341 0.500000
O O11 0.505466 0.010931 0.269518
O O12 0.638106 0.116083 0.272172
O O13 0.960553 0.921105 0.225797
O O14 0.903661 0.951831 0.000000
O O15 0.746059 0.492117 0.775980
O O16 0.607383 0.392618 0.802869
O O17 0.668372 0.494274 0.000000
#
# Coordination Sequence:
#
# PCOD9585719 Si02
#       6
#     6  12  12  12   6  12
#     4   9  18  32  49  75 109 135 163 211 267 327
#     4  10  20  34  51  71  97 131 175 223 268 313
#     4  11  21  34  51  73 104 138 172 215 269 320
#     4  10  21  36  52  72 101 140 185 226 263 310
#     4   7  12  26  52  79 101 129 163 197 245 309
#     4   9  17  31  53  80 108 138 175 219 267 315
#
# _framework density 17.438269999999999
#
# number of rings (size 3 to 8) (size 9 to 14) (size 15 to 20)
#    0.200    2.200    1.000    2.200    0.000    6.000 
#    0.000    1.000    0.000    6.000    0.000    0.000 
#    0.000    8.000    0.000    0.000    0.000    0.000 
#
# Total GULP energy -334332.858506 kJ/mol
# GULP energy per Si atom -5572.214308 kJ/mol
# Density = 1.739858 g / cm^3
# Si number density = 17.438270 Si / 1000 Ang^3
#
#
#
# Elastic Constant Matrix: (Units=GPa)
#
#
# Indices 1 2 3 4 5 6 
#
# 1 128.8952 75.6538 29.8350 0.0000 0.0008 0.0000
# 2 75.6538 128.8952 29.8350 0.0000 -0.0008 0.0000
# 3 29.8350 29.8350 25.5855 0.0000 0.0000 0.0000
# 4 0.0000 0.0000 0.0000 4.0326 0.0000 -0.0008
# 5 0.0008 -0.0008 0.0000 0.0000 4.0326 0.0000
# 6 0.0000 0.0000 0.0000 -0.0008 0.0000 26.6207
#
#
#
# Elastic Compliance Matrix: (Units=1/GPa)
#
#
# Indices 1 2 3 4 5 6 
#
# 1 0.013096 -0.005687 -0.008640 0.000000 -0.000004 0.000000
# 2 -0.005687 0.013096 -0.008640 0.000000 0.000004 0.000000
# 3 -0.008640 -0.008640 0.059234 0.000000 0.000000 0.000000
# 4 0.000000 0.000000 0.000000 0.247982 0.000000 0.000007
# 5 -0.000004 0.000004 0.000000 0.000000 0.247982 0.000000
# 6 0.000000 0.000000 0.000000 0.000007 0.000000 0.037565
#
#
# Mechanical properties :
#
#
# Convention : Reuss Voigt Hill
#
# Bulk Modulus (GPa) = 25.32065 61.55817 43.43941
# Shear Modulus (GPa) = 7.37409 16.80730 12.09069
#
# Velocity S-wave (km/s) = 2.05861 3.10791 2.63600
# Velocity P-wave (km/s) = 4.49468 6.94666 5.85056
#
# Compressibility (1/GPa) = 0.03949345
#
# Stress axis : x y z
#
# Youngs Moduli (GPa) = 76.36059 76.36059 16.88217
#
# Poissons Ratio (x) = 0.43423 0.14586
# Poissons Ratio (y) = 0.43423 0.14586
# Poissons Ratio (z) = 0.65973 0.65973
#
# Static dielectric constant tensor:
#      x y z
#    x 1.600240 0.000000 0.000000 
#    y 0.000000 1.600240 0.000000 
#    z 0.000000 0.000000 1.587300 
# 
# From -- ./inp_files/686.got.cif
#   From: 2010.05.17/outbox.cif.g08.bks.cpg/sg187_1_cif.got.tgz:686.got - 2010.05.20 12:09:04.
