data_PCOD9585522
_publ_section_title
;
Structure prediction by ZEFSAII (Michael W. Deem and Ramdas Pophale) SiO2 
 PCOD9585522
Probable space group: P -6 M 2
;
_chemical_formula_sum "Si O2"
_cell_formula_units_Z 42
_cell_length_a 15.594093
_cell_length_b 15.594093
_cell_length_c 12.704121
_cell_angle_alpha 90.000000
_cell_angle_beta 90.000000
_cell_angle_gamma 120.000000
_cell_volume 2675.441708
_symmetry_space_group_name_H-M "P -6 M 2"
_symmetry_group_IT_number 187
_symmetry_cell_setting 'hexagonal'
loop_
_space_group_symop_operation_xyz
x,y,z
-x+y,-x,-z
-y,x-y,z
x,y,-z
-x+y,-x,z
-y,x-y,-z
-y,-x,-z
-x+y,y,-z
x,x-y,-z
-x+y,y,z
x,x-y,z
-y,-x,z
loop_
_atom_site_type_symbol
_atom_site_label
_atom_site_fract_x
_atom_site_fract_y
_atom_site_fract_z
Si Si1 0.333690 0.463679 0.000000
Si Si2 0.609951 0.016901 0.805302
Si Si3 0.132357 0.667335 0.624240
Si Si4 0.824183 0.648367 0.872106
Si Si5 0.124116 0.062058 0.127101
O O1 0.350188 0.412452 0.898290
O O2 0.422235 0.577766 0.000000
O O3 0.228261 0.456521 0.000000
O O4 0.519448 0.038896 0.806804
O O5 0.713601 0.113355 0.828634
O O6 0.603385 0.961003 0.696763
O O7 0.112670 0.668448 0.500000
O O8 0.154864 0.577432 0.642062
O O9 0.228903 0.771098 0.652118
O O10 0.881985 0.763970 0.837396
O O11 0.821841 0.643681 0.000000
O O12 0.053782 0.107564 0.157541
O O13 0.128467 0.064234 0.000000
#
# Coordination Sequence:
#
# PCOD9585522 Si02
#       5
#     6  12  12   6   6
#     4  10  19  31  48  74 108 138 160 197 255 328
#     4  10  21  35  49  73 104 131 178 223 259 309
#     4   9  17  31  53  81 111 141 170 205 250 312
#     4  11  20  34  53  69  97 141 176 219 273 314
#     4   7  14  28  42  65  93 117 159 208 243 296
#
# _framework density 15.698342
#
# number of rings (size 3 to 8) (size 9 to 14) (size 15 to 20)
#    0.286    2.286    1.429    1.286    0.000    3.429 
#    0.857    3.571    0.000    0.000    0.000    0.000 
#    0.000    0.000    0.000    0.000    0.000    0.000 
#
# Total GULP energy -233980.794402 kJ/mol
# GULP energy per Si atom -5570.971295 kJ/mol
# Density = 1.566261 g / cm^3
# Si number density = 15.698342 Si / 1000 Ang^3
#
#
#
# Elastic Constant Matrix: (Units=GPa)
#
#
# Indices 1 2 3 4 5 6 
#
# 1 103.1979 76.9108 46.8874 0.0000 -0.0003 0.0000
# 2 76.9108 103.1979 46.8874 0.0000 0.0003 0.0000
# 3 46.8874 46.8874 58.2824 0.0000 0.0000 0.0000
# 4 0.0000 0.0000 0.0000 13.7614 0.0000 0.0003
# 5 -0.0003 0.0003 0.0000 0.0000 13.7614 0.0000
# 6 0.0000 0.0000 0.0000 0.0003 0.0000 13.1435
#
#
#
# Elastic Compliance Matrix: (Units=1/GPa)
#
#
# Indices 1 2 3 4 5 6 
#
# 1 0.023798 -0.014244 -0.007686 0.000000 0.000001 0.000000
# 2 -0.014244 0.023798 -0.007686 0.000000 -0.000001 0.000000
# 3 -0.007686 -0.007686 0.029525 0.000000 0.000000 0.000000
# 4 0.000000 0.000000 0.000000 0.072667 0.000000 -0.000002
# 5 0.000001 -0.000001 0.000000 0.000000 0.072667 0.000000
# 6 0.000000 0.000000 0.000000 -0.000002 0.000000 0.076083
#
#
# Mechanical properties :
#
#
# Convention : Reuss Voigt Hill
#
# Bulk Modulus (GPa) = 55.90263 67.33884 61.62073
# Shear Modulus (GPa) = 13.74639 14.39943 14.07291
#
# Velocity S-wave (km/s) = 2.96236 3.03191 2.99734
# Velocity P-wave (km/s) = 6.88394 7.43272 7.16359
#
# Compressibility (1/GPa) = 0.01788825
#
# Stress axis : x y z
#
# Youngs Moduli (GPa) = 42.02077 42.02077 33.87013
#
# Poissons Ratio (x) = 0.59853 0.26033
# Poissons Ratio (y) = 0.59853 0.26033
# Poissons Ratio (z) = 0.32298 0.32298
#
# Static dielectric constant tensor:
#      x y z
#    x 1.516070 0.000000 0.000000 
#    y 0.000000 1.516070 0.000000 
#    z 0.000000 0.000000 1.526520 
# 
# From -- ./inp_files/1414.got.cif
#   From: 2010.05.17/outbox.cif.g08.bks.cpg/sg187_1_cif.got.tgz:1414.got - 2010.05.20 12:09:04.
