data_PCOD9585587
_publ_section_title
;
Structure prediction by ZEFSAII (Michael W. Deem and Ramdas Pophale) SiO2 
 PCOD9585587
Probable space group: P -6 M 2
;
_chemical_formula_sum "Si O2"
_cell_formula_units_Z 66
_cell_length_a 13.037769
_cell_length_b 13.037769
_cell_length_c 28.309294
_cell_angle_alpha 90.000000
_cell_angle_beta 90.000000
_cell_angle_gamma 120.000000
_cell_volume 4167.410048
_symmetry_space_group_name_H-M "P -6 M 2"
_symmetry_group_IT_number 187
_symmetry_cell_setting 'hexagonal'
loop_
_space_group_symop_operation_xyz
x,y,z
-x+y,-x,-z
-y,x-y,z
x,y,-z
-x+y,-x,z
-y,x-y,-z
-y,-x,-z
-x+y,y,-z
x,x-y,-z
-x+y,y,z
x,x-y,z
-y,-x,z
loop_
_atom_site_type_symbol
_atom_site_label
_atom_site_fract_x
_atom_site_fract_y
_atom_site_fract_z
Si Si1 0.757089 0.756703 0.500000
Si Si2 0.241086 0.000142 0.945189
Si Si3 0.574116 0.666334 0.582489
Si Si4 0.089554 0.423089 0.861731
Si Si5 0.575372 0.667156 0.307609
Si Si6 0.910305 0.333551 0.774964
O O1 0.782238 0.891119 0.500000
O O2 0.678071 0.694384 0.546105
O O3 0.876612 0.753223 0.500000
O O4 0.104431 0.895570 0.940798
O O5 0.314289 0.967102 0.909115
O O6 0.252217 0.126109 0.934465
O O7 0.275389 0.000976 0.000000
O O8 0.544130 0.772065 0.577024
O O9 0.458371 0.541630 0.572238
O O10 0.607528 0.667736 0.637387
O O11 0.213850 0.427700 0.853128
O O12 0.108756 0.554378 0.865963
O O13 0.998742 0.359371 0.818794
O O14 0.583513 0.791757 0.296636
O O15 0.439635 0.560366 0.302120
O O16 0.652451 0.637325 0.272378
O O17 0.881014 0.440507 0.774603
O O18 0.792114 0.207887 0.778418
#
# Coordination Sequence:
#
# PCOD9585587 Si02
#       6
#     6  12  12  12  12  12
#     4  10  20  32  46  64  90 126 164 198 232 276
#     4   9  17  30  49  72  97 126 160 196 233 275
#     4   9  17  30  50  75  98 120 150 192 240 283
#     4  10  20  33  50  72  97 125 157 195 240 287
#     4   9  17  30  50  75 100 124 151 187 233 283
#     4  10  20  33  49  68  92 124 161 198 233 273
#
# _framework density 15.837175999999999
#
# number of rings (size 3 to 8) (size 9 to 14) (size 15 to 20)
#    0.000    2.545    0.000    2.364    0.000    3.273 
#    0.000    2.727    0.000    6.909    0.000    0.000 
#    0.000    0.000    0.000    0.000    0.000    0.000 
#
# Total GULP energy -368032.213910 kJ/mol
# GULP energy per Si atom -5576.245665 kJ/mol
# Density = 1.580113 g / cm^3
# Si number density = 15.837176 Si / 1000 Ang^3
#
#
#
# Elastic Constant Matrix: (Units=GPa)
#
#
# Indices 1 2 3 4 5 6 
#
# 1 121.4726 81.8521 82.5159 0.0000 0.0000 0.0000
# 2 81.8521 121.4726 82.5159 0.0000 0.0000 0.0000
# 3 82.5159 82.5159 101.3279 0.0000 0.0000 0.0000
# 4 0.0000 0.0000 0.0000 20.9778 0.0000 0.0000
# 5 0.0000 0.0000 0.0000 0.0000 20.9778 0.0000
# 6 0.0000 0.0000 0.0000 0.0000 0.0000 19.8102
#
#
#
# Elastic Compliance Matrix: (Units=1/GPa)
#
#
# Indices 1 2 3 4 5 6 
#
# 1 0.019873 -0.005366 -0.011814 0.000000 0.000000 0.000000
# 2 -0.005366 0.019873 -0.011814 0.000000 0.000000 0.000000
# 3 -0.011814 -0.011814 0.029110 0.000000 0.000000 0.000000
# 4 0.000000 0.000000 0.000000 0.047669 0.000000 0.000000
# 5 0.000000 0.000000 0.000000 0.000000 0.047669 0.000000
# 6 0.000000 0.000000 0.000000 0.000000 0.000000 0.050479
#
#
# Mechanical properties :
#
#
# Convention : Reuss Voigt Hill
#
# Bulk Modulus (GPa) = 92.00478 93.11566 92.56022
# Shear Modulus (GPa) = 18.09727 18.84578 18.47152
#
# Velocity S-wave (km/s) = 3.38406 3.45334 3.41888
# Velocity P-wave (km/s) = 8.57260 8.65009 8.61143
#
# Compressibility (1/GPa) = 0.01086900
#
# Stress axis : x y z
#
# Youngs Moduli (GPa) = 50.31884 50.31884 34.35253
#
# Poissons Ratio (x) = 0.27002 0.40583
# Poissons Ratio (y) = 0.27002 0.40583
# Poissons Ratio (z) = 0.59446 0.59446
#
# Static dielectric constant tensor:
#      x y z
#    x 1.499240 0.000000 0.000000 
#    y 0.000000 1.499240 0.000000 
#    z 0.000000 0.000000 1.535650 
# 
# From -- ./inp_files/4418.got.cif
#   From: 2010.05.17/outbox.cif.g08.bks.cpg/sg187_3_cif.got.tgz:4418.got - 2010.05.20 12:09:04.
