data_PCOD9585847
_publ_section_title
;
Structure prediction by ZEFSAII (Michael W. Deem and Ramdas Pophale) SiO2 
 PCOD9585847
Probable space group: P -6 C 2
;
_chemical_formula_sum "Si O2"
_cell_formula_units_Z 42
_cell_length_a 20.336809
_cell_length_b 20.336809
_cell_length_c 5.607690
_cell_angle_alpha 90.000000
_cell_angle_beta 90.000000
_cell_angle_gamma 120.000000
_cell_volume 2008.538906
_symmetry_space_group_name_H-M "P -6 C 2"
_symmetry_group_IT_number 188
_symmetry_cell_setting 'hexagonal'
loop_
_space_group_symop_operation_xyz
x,y,z
-x+y,-x,1/2-z
-y,x-y,z
x,y,1/2-z
-x+y,-x,z
-y,x-y,1/2-z
-y,-x,-z
-x+y,y,-z
x,x-y,-z
-x+y,y,1/2+z
x,x-y,1/2+z
-y,-x,1/2+z
loop_
_atom_site_type_symbol
_atom_site_label
_atom_site_fract_x
_atom_site_fract_y
_atom_site_fract_z
Si Si1 0.570113 0.358989 0.250000
Si Si2 0.606516 0.564216 0.750000
Si Si3 0.429216 0.191639 0.250000
Si Si4 0.974094 0.247560 0.750000
Si Si5 0.180561 0.334947 0.250000
Si Si6 0.621420 0.023399 0.750000
Si Si7 0.760029 0.994417 0.750000
O O1 0.615637 0.384364 0.500000
O O2 0.514994 0.394931 0.250000
O O3 0.509860 0.269249 0.250000
O O4 0.694616 0.635654 0.750000
O O5 0.577039 0.574041 0.496604
O O6 0.392534 0.196267 0.500000
O O7 0.435624 0.115745 0.250000
O O8 0.065414 0.304626 0.750000
O O9 0.963089 0.204791 0.498834
O O10 0.187851 0.375702 0.500000
O O11 0.093575 0.262277 0.250000
O O12 0.678036 0.990116 0.750000
#
# Coordination Sequence:
#
# PCOD9585847 Si02
#       7
#     6   6   6   6   6   6   6
#     4  12  24  36  50  68  80 100 132 183 252 302
#     4  10  18  31  47  66  79 100 131 169 213 271
#     4  12  21  36  55  68  80  99 130 177 241 309
#     4   8  14  22  37  56  82 106 133 153 180 223
#     4   8  12  20  31  53  83 115 128 148 172 203
#     4  10  17  30  48  69  80 101 128 167 209 271
#     4   8  14  21  36  58  86 105 130 151 181 221
#
# _framework density 20.910723000000001
#
# number of rings (size 3 to 8) (size 9 to 14) (size 15 to 20)
#    0.000    2.286    2.857    1.714    0.000    0.000 
#    0.000    0.000    0.000    5.714    0.000    0.000 
#    0.000    0.000    0.000    0.000    0.000    0.000 
#
# Total GULP energy -234222.111539 kJ/mol
# GULP energy per Si atom -5576.716941 kJ/mol
# Density = 2.086313 g / cm^3
# Si number density = 20.910723 Si / 1000 Ang^3
#
#
#
# Elastic Constant Matrix: (Units=GPa)
#
#
# Indices 1 2 3 4 5 6 
#
# 1 61.5641 19.7944 10.1468 0.0000 0.0000 0.0000
# 2 19.7944 61.5641 10.1468 0.0000 0.0000 0.0000
# 3 10.1468 10.1468 257.5849 0.0000 0.0000 0.0000
# 4 0.0000 0.0000 0.0000 17.0830 0.0000 0.0000
# 5 0.0000 0.0000 0.0000 0.0000 17.0830 0.0000
# 6 0.0000 0.0000 0.0000 0.0000 0.0000 20.8848
#
#
#
# Elastic Compliance Matrix: (Units=1/GPa)
#
#
# Indices 1 2 3 4 5 6 
#
# 1 0.018177 -0.005764 -0.000489 0.000000 0.000000 0.000000
# 2 -0.005764 0.018177 -0.000489 0.000000 0.000000 0.000000
# 3 -0.000489 -0.000489 0.003921 0.000000 0.000000 0.000000
# 4 0.000000 0.000000 0.000000 0.058538 0.000000 0.000000
# 5 0.000000 0.000000 0.000000 0.000000 0.058538 0.000000
# 6 0.000000 0.000000 0.000000 0.000000 0.000000 0.047882
#
#
# Mechanical properties :
#
#
# Convention : Reuss Voigt Hill
#
# Bulk Modulus (GPa) = 37.32551 51.20988 44.26770
# Shear Modulus (GPa) = 21.96394 33.71850 27.84122
#
# Velocity S-wave (km/s) = 3.24445 4.01995 3.65284
# Velocity P-wave (km/s) = 5.65013 6.78893 6.24554
#
# Compressibility (1/GPa) = 0.02679133
#
# Stress axis : x y z
#
# Youngs Moduli (GPa) = 55.01448 55.01448 255.05397
#
# Poissons Ratio (x) = 0.31709 0.12472
# Poissons Ratio (y) = 0.31709 0.12472
# Poissons Ratio (z) = 0.02690 0.02690
#
# Static dielectric constant tensor:
#      x y z
#    x 1.750030 0.000000 0.000000 
#    y 0.000000 1.750030 0.000000 
#    z 0.000000 0.000000 1.990520 
# 
# From -- ./inp_files/44.got.cif
#   From: 2010.05.17/outbox.cif.g08.bks.cpg/sg188_1_cif.got.tgz:44.got - 2010.05.20 12:11:46.
