data_PCOD9585796
_publ_section_title
;
Structure prediction by ZEFSAII (Michael W. Deem and Ramdas Pophale) SiO2 
 PCOD9585796
Probable space group: P -6 M 2
;
_chemical_formula_sum "Si O2"
_cell_formula_units_Z 54
_cell_length_a 17.567078
_cell_length_b 17.567078
_cell_length_c 12.190394
_cell_angle_alpha 90.000000
_cell_angle_beta 90.000000
_cell_angle_gamma 120.000000
_cell_volume 3257.972644
_symmetry_space_group_name_H-M "P -6 M 2"
_symmetry_group_IT_number 187
_symmetry_cell_setting 'hexagonal'
loop_
_space_group_symop_operation_xyz
x,y,z
-x+y,-x,-z
-y,x-y,z
x,y,-z
-x+y,-x,z
-y,x-y,-z
-y,-x,-z
-x+y,y,-z
x,x-y,-z
-x+y,y,z
x,x-y,z
-y,-x,z
loop_
_atom_site_type_symbol
_atom_site_label
_atom_site_fract_x
_atom_site_fract_y
_atom_site_fract_z
Si Si1 0.358598 0.457913 0.000000
Si Si2 0.817066 0.000000 0.500000
Si Si3 0.334326 0.334325 0.376039
Si Si4 0.641404 0.542086 0.000000
Si Si5 0.488194 0.158039 0.243526
Si Si6 0.511807 0.841962 0.756475
O O1 0.377932 0.377930 0.000000
O O2 0.317255 0.461365 0.885027
O O3 0.452695 0.547306 0.000000
O O4 0.911817 0.088184 0.500000
O O5 0.823632 0.911816 0.500000
O O6 0.756834 0.000001 0.397960
O O7 0.366741 0.366741 0.500000
O O8 0.406774 0.321706 0.312358
O O9 0.321707 0.406774 0.312358
O O10 0.682746 0.538633 0.114974
O O11 0.547309 0.452692 0.000000
O O12 0.573135 0.146269 0.256279
O O13 0.509962 0.254981 0.276397
O O14 0.426866 0.853731 0.743722
O O15 0.490040 0.745020 0.723606
#
# Coordination Sequence:
#
# PCOD9585796 Si02
#       6
#     6   6  12   6  12  12
#     4   9  17  32  52  77 104 140 184 229 278 327
#     4  10  21  40  63  86 106 132 176 226 277 322
#     4  10  23  38  56  77 111 147 181 220 273 333
#     4   9  17  32  52  77 104 140 184 229 278 327
#     4  11  21  35  55  80 111 146 187 231 276 328
#     4  11  21  35  55  80 111 146 187 231 276 328
#
# _framework density 16.574724
#
# number of rings (size 3 to 8) (size 9 to 14) (size 15 to 20)
#    0.667    1.111    2.222    3.222    0.000    1.778 
#    0.000    2.222    0.000    2.667    0.000    0.000 
#    0.000    0.000    0.000    9.556    0.000    0.000 
#
# Total GULP energy -300799.931991 kJ/mol
# GULP energy per Si atom -5570.369111 kJ/mol
# Density = 1.653700 g / cm^3
# Si number density = 16.574724 Si / 1000 Ang^3
#
#
#
# Elastic Constant Matrix: (Units=GPa)
#
#
# Indices 1 2 3 4 5 6 
#
# 1 124.6740 63.8249 45.5487 0.0000 0.0000 0.0000
# 2 63.8249 124.6740 45.5487 0.0000 0.0000 0.0000
# 3 45.5487 45.5487 102.9296 0.0000 0.0000 0.0000
# 4 0.0000 0.0000 0.0000 12.8723 0.0000 0.0000
# 5 0.0000 0.0000 0.0000 0.0000 12.8723 0.0000
# 6 0.0000 0.0000 0.0000 0.0000 0.0000 30.4245
#
#
#
# Elastic Compliance Matrix: (Units=1/GPa)
#
#
# Indices 1 2 3 4 5 6 
#
# 1 0.011591 -0.004843 -0.002986 0.000000 0.000000 0.000000
# 2 -0.004843 0.011591 -0.002986 0.000000 0.000000 0.000000
# 3 -0.002986 -0.002986 0.012358 0.000000 0.000000 0.000000
# 4 0.000000 0.000000 0.000000 0.077686 0.000000 0.000000
# 5 0.000000 0.000000 0.000000 0.000000 0.077686 0.000000
# 6 0.000000 0.000000 0.000000 0.000000 0.000000 0.032868
#
#
# Mechanical properties :
#
#
# Convention : Reuss Voigt Hill
#
# Bulk Modulus (GPa) = 71.89155 73.56914 72.73034
# Shear Modulus (GPa) = 19.99607 24.39083 22.19345
#
# Velocity S-wave (km/s) = 3.47712 3.84026 3.66320
# Velocity P-wave (km/s) = 7.71938 8.00913 7.86559
#
# Compressibility (1/GPa) = 0.01390984
#
# Stress axis : x y z
#
# Youngs Moduli (GPa) = 86.27245 86.27245 80.91690
#
# Poissons Ratio (x) = 0.41781 0.24164
# Poissons Ratio (y) = 0.41781 0.24164
# Poissons Ratio (z) = 0.25763 0.25763
#
# Static dielectric constant tensor:
#      x y z
#    x 1.550010 0.000000 0.000000 
#    y 0.000000 1.550010 0.000000 
#    z 0.000000 0.000000 1.561290 
# 
# From -- ./inp_files/1601.got.cif
#   From: 2010.05.17/outbox.cif.g08.bks.cpg/sg187_1_cif.got.tgz:1601.got - 2010.05.20 12:09:04.
