data_PCOD9585131
_publ_section_title
;
Structure prediction by ZEFSAII (Michael W. Deem and Ramdas Pophale) SiO2 
 PCOD9585131
Probable space group: P 6 C C
;
_chemical_formula_sum "Si O2"
_cell_formula_units_Z 96
_cell_length_a 14.647713
_cell_length_b 14.647713
_cell_length_c 26.913414
_cell_angle_alpha 90.000000
_cell_angle_beta 90.000000
_cell_angle_gamma 120.000000
_cell_volume 5000.795186
_symmetry_space_group_name_H-M "P 6 C C"
_symmetry_group_IT_number 184
_symmetry_cell_setting 'hexagonal'
loop_
_space_group_symop_operation_xyz
x,y,z
x-y,x,z
-y,x-y,z
-x,-y,z
-x+y,-x,z
y,-x+y,z
-x+y,y,1/2+z
x,x-y,1/2+z
-y,-x,1/2+z
y,x,1/2+z
x-y,-y,1/2+z
-x,-x+y,1/2+z
loop_
_atom_site_type_symbol
_atom_site_label
_atom_site_fract_x
_atom_site_fract_y
_atom_site_fract_z
Si Si1 0.403092 0.292562 0.284240
Si Si2 0.816194 0.242718 0.511271
Si Si3 0.756694 0.832555 0.085879
Si Si4 0.532888 0.409885 0.475598
Si Si5 0.842776 0.084504 0.936026
Si Si6 0.760201 0.944376 0.704561
Si Si7 0.361211 0.102736 0.340246
Si Si8 0.556469 0.126251 0.863341
O O1 0.348089 0.276226 0.230380
O O2 0.376510 0.175234 0.294159
O O3 0.333798 0.319814 0.321159
O O4 0.517813 0.367992 0.310444
O O5 0.875254 0.232280 0.559460
O O6 0.695047 0.150458 0.505774
O O7 0.819358 0.352117 0.500835
O O8 0.880720 0.226890 0.467226
O O9 0.843944 0.799442 0.072076
O O10 0.745830 0.814755 0.145127
O O11 0.500000 0.500000 0.475727
O O12 0.532964 0.376212 0.417615
O O13 0.821171 0.099834 0.879187
O O14 0.964584 0.158748 0.946981
O O15 0.794238 0.856380 0.717599
O O16 0.478493 0.155985 0.362888
O O17 0.500000 0.000000 0.865024
#
# Coordination Sequence:
#
# PCOD9585131 Si02
#       8
#    12  12  12  12  12  12  12  12
#     4  11  20  35  58  83 116 157 201 253 301 359
#     4  12  24  39  63  87 120 162 211 265 314 366
#     4  10  21  39  64  96 129 168 209 258 316 386
#     4  11  22  39  59  85 117 157 206 251 305 377
#     4  12  23  36  55  87 127 167 200 245 312 389
#     4  10  20  36  62  93 129 166 209 251 307 378
#     4  11  20  35  55  81 117 158 198 248 305 367
#     4   9  21  35  52  77 111 152 197 243 292 354
#
# _framework density 19.196946000000001
#
# number of rings (size 3 to 8) (size 9 to 14) (size 15 to 20)
#    0.000    1.250    3.750    3.625    1.750    1.000 
#    0.750    1.250    2.750    0.750    0.000    0.000 
#    0.000    0.000    0.000    0.000    0.000    0.000 
#
# Total GULP energy -534468.345805 kJ/mol
# GULP energy per Si atom -5567.378602 kJ/mol
# Density = 1.915325 g / cm^3
# Si number density = 19.196946 Si / 1000 Ang^3
#
#
#
# Elastic Constant Matrix: (Units=GPa)
#
#
# Indices 1 2 3 4 5 6 
#
# 1 66.1144 20.1864 26.7505 0.0000 0.0000 0.0000
# 2 20.1864 66.1144 26.7505 0.0000 0.0000 0.0000
# 3 26.7505 26.7505 67.3288 0.0000 0.0000 0.0000
# 4 0.0000 0.0000 0.0000 28.5035 0.0000 0.0000
# 5 0.0000 0.0000 0.0000 0.0000 28.5035 0.0000
# 6 0.0000 0.0000 0.0000 0.0000 0.0000 22.9640
#
#
#
# Elastic Compliance Matrix: (Units=1/GPa)
#
#
# Indices 1 2 3 4 5 6 
#
# 1 0.018574 -0.003200 -0.006108 0.000000 0.000000 0.000000
# 2 -0.003200 0.018574 -0.006108 0.000000 0.000000 0.000000
# 3 -0.006108 -0.006108 0.019706 0.000000 0.000000 0.000000
# 4 0.000000 0.000000 0.000000 0.035083 0.000000 0.000000
# 5 0.000000 0.000000 0.000000 0.000000 0.035083 0.000000
# 6 0.000000 0.000000 0.000000 0.000000 0.000000 0.043546
#
#
# Mechanical properties :
#
#
# Convention : Reuss Voigt Hill
#
# Bulk Modulus (GPa) = 38.43005 38.54804 38.48905
# Shear Modulus (GPa) = 23.80123 24.38553 24.09338
#
# Velocity S-wave (km/s) = 3.52496 3.56797 3.54653
# Velocity P-wave (km/s) = 6.05223 6.09079 6.07154
#
# Compressibility (1/GPa) = 0.02602130
#
# Stress axis : x y z
#
# Youngs Moduli (GPa) = 53.83960 53.83960 50.74513
#
# Poissons Ratio (x) = 0.17226 0.30997
# Poissons Ratio (y) = 0.17226 0.30997
# Poissons Ratio (z) = 0.32887 0.32887
#
# Static dielectric constant tensor:
#      x y z
#    x 1.722260 0.000000 0.000000 
#    y 0.000000 1.722260 0.000000 
#    z 0.000000 0.000000 1.696070 
# 
# From -- ./inp_files/1379.got.cif
#   From: 2010.05.17/outbox.cif.g08.bks.cpg/sg184_cif.got.tgz:1379.got - 2010.05.20 12:04:40.
