data_PCOD9585838
_publ_section_title
;
Structure prediction by ZEFSAII (Michael W. Deem and Ramdas Pophale) SiO2 
 PCOD9585838
Probable space group: P -6 C 2
;
_chemical_formula_sum "Si O2"
_cell_formula_units_Z 72
_cell_length_a 24.818166
_cell_length_b 24.818166
_cell_length_c 8.723249
_cell_angle_alpha 90.000000
_cell_angle_beta 90.000000
_cell_angle_gamma 120.000000
_cell_volume 4653.163054
_symmetry_space_group_name_H-M "P -6 C 2"
_symmetry_group_IT_number 188
_symmetry_cell_setting 'hexagonal'
loop_
_space_group_symop_operation_xyz
x,y,z
-x+y,-x,1/2-z
-y,x-y,z
x,y,1/2-z
-x+y,-x,z
-y,x-y,1/2-z
-y,-x,-z
-x+y,y,-z
x,x-y,-z
-x+y,y,1/2+z
x,x-y,1/2+z
-y,-x,1/2+z
loop_
_atom_site_type_symbol
_atom_site_label
_atom_site_fract_x
_atom_site_fract_y
_atom_site_fract_z
Si Si1 0.192610 0.041928 0.066153
Si Si2 0.450147 0.782570 0.933777
Si Si3 0.336527 0.000637 0.435698
Si Si4 0.333100 0.111710 0.567032
Si Si5 0.191654 0.269690 0.933679
Si Si6 0.404914 0.926235 0.434385
O O1 0.195449 0.047210 0.250000
O O2 0.167638 0.970265 0.024037
O O3 0.162280 0.081140 0.000000
O O4 0.262760 0.075944 0.000051
O O5 0.446838 0.778380 0.750000
O O6 0.496608 0.854310 0.978432
O O7 0.383004 0.766007 0.000000
O O8 0.469127 0.734564 0.000000
O O9 0.337144 0.006230 0.250000
O O10 0.264106 0.954210 0.481039
O O11 0.377737 0.970156 0.481719
O O12 0.359365 0.067994 0.508692
O O13 0.331455 0.113357 0.750000
O O14 0.362459 0.181230 0.500000
O O15 0.190815 0.272917 0.750000
O O16 0.145307 0.290613 0.000000
O O17 0.408519 0.927716 0.250000
O O18 0.471869 0.943738 0.500000
#
# Coordination Sequence:
#
# PCOD9585838 Si02
#       6
#    12  12  12  12  12  12
#     4   9  16  27  42  60  81 107 137 171 210 256
#     4  10  19  31  46  64  83 108 143 190 244 295
#     4   9  18  33  47  63  89 119 147 181 222 264
#     4  10  17  26  43  67  90 113 139 169 203 245
#     4   9  18  29  42  61  86 112 141 178 224 270
#     4   9  19  34  50  65  87 117 150 187 229 276
#
# _framework density 15.473345
#
# number of rings (size 3 to 8) (size 9 to 14) (size 15 to 20)
#    0.000    2.667    0.000    4.667    0.000    5.333 
#    0.000    0.000    0.000    0.333    0.000    0.000 
#    0.000    0.000    0.000    0.500    0.000    8.000 
#
# Total GULP energy -401016.497757 kJ/mol
# GULP energy per Si atom -5569.673580 kJ/mol
# Density = 1.543813 g / cm^3
# Si number density = 15.473345 Si / 1000 Ang^3
#
#
#
# Elastic Constant Matrix: (Units=GPa)
#
#
# Indices 1 2 3 4 5 6 
#
# 1 86.6893 62.2506 25.7846 0.0000 0.0000 0.0000
# 2 62.2506 86.6893 25.7846 0.0000 0.0000 0.0000
# 3 25.7846 25.7846 40.3170 0.0000 0.0000 0.0000
# 4 0.0000 0.0000 0.0000 23.1276 0.0000 0.0000
# 5 0.0000 0.0000 0.0000 0.0000 23.1276 0.0000
# 6 0.0000 0.0000 0.0000 0.0000 0.0000 12.2193
#
#
#
# Elastic Compliance Matrix: (Units=1/GPa)
#
#
# Indices 1 2 3 4 5 6 
#
# 1 0.024771 -0.016148 -0.005515 0.000000 0.000000 0.000000
# 2 -0.016148 0.024771 -0.005515 0.000000 0.000000 0.000000
# 3 -0.005515 -0.005515 0.031858 0.000000 0.000000 0.000000
# 4 0.000000 0.000000 0.000000 0.043238 0.000000 0.000000
# 5 0.000000 0.000000 0.000000 0.000000 0.043238 0.000000
# 6 0.000000 0.000000 0.000000 0.000000 0.000000 0.081838
#
#
# Mechanical properties :
#
#
# Convention : Reuss Voigt Hill
#
# Bulk Modulus (GPa) = 36.97632 49.03726 43.00679
# Shear Modulus (GPa) = 15.97006 18.35329 17.16167
#
# Velocity S-wave (km/s) = 3.21612 3.44775 3.33395
# Velocity P-wave (km/s) = 6.14328 6.89997 6.53259
#
# Compressibility (1/GPa) = 0.02704434
#
# Stress axis : x y z
#
# Youngs Moduli (GPa) = 40.36936 40.36936 31.38926
#
# Poissons Ratio (x) = 0.65186 0.17312
# Poissons Ratio (y) = 0.65186 0.17312
# Poissons Ratio (z) = 0.22265 0.22265
#
# Static dielectric constant tensor:
#      x y z
#    x 1.528350 0.000000 0.000000 
#    y 0.000000 1.528350 0.000000 
#    z 0.000000 0.000000 1.519180 
# 
# From -- ./inp_files/1041.got.cif
#   From: 2010.05.17/outbox.cif.g08.bks.cpg/sg188_1_cif.got.tgz:1041.got - 2010.05.20 12:11:46.
