data_PCOD9585423
_publ_section_title
;
Structure prediction by ZEFSAII (Michael W. Deem and Ramdas Pophale) SiO2 
 PCOD9585423
Probable space group: P -6 M 2
;
_chemical_formula_sum "Si O2"
_cell_formula_units_Z 72
_cell_length_a 24.642949
_cell_length_b 24.642949
_cell_length_c 7.860129
_cell_angle_alpha 90.000000
_cell_angle_beta 90.000000
_cell_angle_gamma 120.000000
_cell_volume 4133.763839
_symmetry_space_group_name_H-M "P -6 M 2"
_symmetry_group_IT_number 187
_symmetry_cell_setting 'hexagonal'
loop_
_space_group_symop_operation_xyz
x,y,z
-x+y,-x,-z
-y,x-y,z
x,y,-z
-x+y,-x,z
-y,x-y,-z
-y,-x,-z
-x+y,y,-z
x,x-y,-z
-x+y,y,z
x,x-y,z
-y,-x,z
loop_
_atom_site_type_symbol
_atom_site_label
_atom_site_fract_x
_atom_site_fract_y
_atom_site_fract_z
Si Si1 0.034467 0.190830 0.702835
Si Si2 0.489873 0.510128 0.696661
Si Si3 0.106621 0.333638 0.202463
Si Si4 0.817888 0.635776 0.208419
Si Si5 0.436743 0.326800 0.791577
Si Si6 0.219815 0.109908 0.202100
Si Si7 0.366927 0.402178 0.794403
Si Si8 0.560230 0.439771 0.805371
O O1 0.038812 0.195674 0.500000
O O2 0.086086 0.172171 0.762352
O O3 0.057643 0.260178 0.773092
O O4 0.962786 0.144545 0.747905
O O5 0.499259 0.500742 0.500000
O O6 0.416805 0.471985 0.737629
O O7 0.522111 0.477890 0.804208
O O8 0.172720 0.345440 0.274161
O O9 0.078176 0.374995 0.271242
O O10 0.114609 0.344835 0.000000
O O11 0.852561 0.597829 0.261617
O O12 0.854095 0.708190 0.268130
O O13 0.818441 0.636883 0.000000
O O14 0.395536 0.358369 0.739381
O O15 0.508513 0.372571 0.731264
O O16 0.438907 0.328097 0.000000
O O17 0.225200 0.112600 0.000000
O O18 0.365456 0.400553 0.000000
O O19 0.571641 0.428360 0.000000
#
# Coordination Sequence:
#
# PCOD9585423 Si02
#       8
#    12   6  12   6  12   6  12   6
#     4  10  21  36  51  68  93 125 155 190 245 304
#     4  10  18  26  40  64  89 113 147 185 217 256
#     4   9  17  30  50  73  95 121 155 190 223 272
#     4   9  16  25  41  68  93 113 145 191 237 275
#     4   8  13  22  38  59  84 115 147 176 213 267
#     4  11  21  33  51  71  90 115 157 209 251 291
#     4   9  16  28  44  63  91 123 150 179 224 272
#     4   8  14  26  42  59  82 115 147 175 217 270
#
# _framework density 17.417539999999999
#
# number of rings (size 3 to 8) (size 9 to 14) (size 15 to 20)
#    0.000    2.833    0.000    3.500    0.000    4.333 
#    0.500    0.000    0.000    1.333    0.000    2.333 
#    0.833    0.000    1.500    0.000    0.500    0.000 
#
# Total GULP energy -401135.519249 kJ/mol
# GULP energy per Si atom -5571.326656 kJ/mol
# Density = 1.737790 g / cm^3
# Si number density = 17.417540 Si / 1000 Ang^3
#
#
#
# Elastic Constant Matrix: (Units=GPa)
#
#
# Indices 1 2 3 4 5 6 
#
# 1 137.5279 90.8683 1.5720 0.0000 0.0003 0.0000
# 2 90.8683 137.5279 1.5720 0.0000 -0.0003 0.0000
# 3 1.5720 1.5720 22.1193 0.0000 0.0000 0.0000
# 4 0.0000 0.0000 0.0000 -20.3468 0.0000 -0.0003
# 5 0.0003 -0.0003 0.0000 0.0000 -20.3468 0.0000
# 6 0.0000 0.0000 0.0000 -0.0003 0.0000 23.3298
#
#
#
# Elastic Compliance Matrix: (Units=1/GPa)
#
#
# Indices 1 2 3 4 5 6 
#
# 1 0.012907 -0.008525 -0.000311 0.000000 0.000000 0.000000
# 2 -0.008525 0.012907 -0.000311 0.000000 0.000000 0.000000
# 3 -0.000311 -0.000311 0.045254 0.000000 0.000000 0.000000
# 4 0.000000 0.000000 0.000000 -0.049148 0.000000 -0.000001
# 5 0.000000 0.000000 0.000000 0.000000 -0.049148 0.000000
# 6 0.000000 0.000000 0.000000 -0.000001 0.000000 0.042864
#
#
# Mechanical properties :
#
#
# Convention : Reuss Voigt Hill
#
# Bulk Modulus (GPa) = 18.94907 53.91106 36.43006
# Shear Modulus (GPa) = 97.04574 10.07144 53.55859
#
# Velocity S-wave (km/s) = 7.47250 2.40726 5.55127
# Velocity P-wave (km/s) = 9.23872 6.22462 7.87717
#
# Compressibility (1/GPa) = 0.05277305
#
# Stress axis : x y z
#
# Youngs Moduli (GPa) = 77.47585 77.47585 22.09769
#
# Poissons Ratio (x) = 0.66045 0.00688
# Poissons Ratio (y) = 0.66045 0.00688
# Poissons Ratio (z) = 0.02413 0.02413
#
# Static dielectric constant tensor:
#      x y z
#    x 1.593990 0.000000 0.000000 
#    y 0.000000 1.593990 0.000000 
#    z 0.000000 0.000000 1.626590 
# 
# From -- ./inp_files/1120.got.cif
#   From: 2010.05.17/outbox.cif.g08.bks.cpg/sg187_1_cif.got.tgz:1120.got - 2010.05.20 12:09:04.
