data_PCOD9585871
_publ_section_title
;
Structure prediction by ZEFSAII (Michael W. Deem and Ramdas Pophale) SiO2 
 PCOD9585871
Probable space group: P -6 C 2
;
_chemical_formula_sum "Si O2"
_cell_formula_units_Z 34
_cell_length_a 8.479601
_cell_length_b 8.479601
_cell_length_c 29.075808
_cell_angle_alpha 90.000000
_cell_angle_beta 90.000000
_cell_angle_gamma 120.000000
_cell_volume 1810.561407
_symmetry_space_group_name_H-M "P -6 C 2"
_symmetry_group_IT_number 188
_symmetry_cell_setting 'hexagonal'
loop_
_space_group_symop_operation_xyz
x,y,z
-x+y,-x,1/2-z
-y,x-y,z
x,y,1/2-z
-x+y,-x,z
-y,x-y,1/2-z
-y,-x,-z
-x+y,y,-z
x,x-y,-z
-x+y,y,1/2+z
x,x-y,1/2+z
-y,-x,1/2+z
loop_
_atom_site_type_symbol
_atom_site_label
_atom_site_fract_x
_atom_site_fract_y
_atom_site_fract_z
Si Si1 0.294044 0.339183 0.652350
Si Si2 0.363698 0.034906 0.617723
Si Si3 0.666668 0.333334 0.445486
Si Si4 0.144774 0.907804 0.250000
O O1 0.281635 0.146996 0.642669
O O2 0.503989 0.487980 0.647612
O O3 0.220608 0.343773 0.702818
O O4 0.169940 0.365313 0.614265
O O5 0.482844 0.159963 0.575010
O O6 0.666668 0.333334 0.500000
O O7 0.195065 0.120536 0.250000
#
# Coordination Sequence:
#
# PCOD9585871 Si02
#       4
#    12  12   4   6
#     4  11  20  36  56  85 114 161 191 245 291 341
#     4  10  21  37  59  84 121 152 198 244 306 356
#     4   9  21  42  66  91 116 151 198 255 312 381
#     4  10  18  32  56  80 116 154 204 236 278 350
#
# _framework density 18.778706
#
# number of rings (size 3 to 8) (size 9 to 14) (size 15 to 20)
#    0.353    1.412    3.529    2.118    0.000    2.824 
#    0.000    7.059    0.000    0.000    0.000    0.000 
#    0.000    0.000    0.000    0.000    0.000    0.000 
#
# Total GULP energy -189377.917051 kJ/mol
# GULP energy per Si atom -5569.938737 kJ/mol
# Density = 1.873597 g / cm^3
# Si number density = 18.778706 Si / 1000 Ang^3
#
#
#
# Elastic Constant Matrix: (Units=GPa)
#
#
# Indices 1 2 3 4 5 6 
#
# 1 71.7773 -5.5816 28.0319 0.0000 0.0000 0.0000
# 2 -5.5816 71.7776 28.0320 -0.0001 0.0000 0.0000
# 3 28.0319 28.0320 121.6989 -0.0002 0.0000 0.0000
# 4 0.0000 -0.0001 -0.0002 15.3315 0.0000 0.0000
# 5 0.0000 0.0000 0.0000 0.0000 15.3314 0.0000
# 6 0.0000 0.0000 0.0000 0.0000 0.0000 38.6795
#
#
#
# Elastic Compliance Matrix: (Units=1/GPa)
#
#
# Indices 1 2 3 4 5 6 
#
# 1 0.015847 0.002921 -0.004323 0.000000 0.000000 0.000000
# 2 0.002921 0.015847 -0.004323 0.000000 0.000000 0.000000
# 3 -0.004323 -0.004323 0.010209 0.000000 0.000000 0.000000
# 4 0.000000 0.000000 0.000000 0.065225 0.000000 0.000000
# 5 0.000000 0.000000 0.000000 0.000000 0.065226 0.000000
# 6 0.000000 0.000000 0.000000 0.000000 0.000000 0.025853
#
#
# Mechanical properties :
#
#
# Convention : Reuss Voigt Hill
#
# Bulk Modulus (GPa) = 32.83802 40.69095 36.76449
# Shear Modulus (GPa) = 22.74701 28.18658 25.46679
#
# Velocity S-wave (km/s) = 3.48418 3.87846 3.68659
# Velocity P-wave (km/s) = 5.80610 6.46315 6.14341
#
# Compressibility (1/GPa) = 0.03045250
#
# Stress axis : x y z
#
# Youngs Moduli (GPa) = 63.10182 63.10212 97.95748
#
# Poissons Ratio (x) = -0.18430 0.42347
# Poissons Ratio (y) = -0.18430 0.42347
# Poissons Ratio (z) = 0.27279 0.27279
#
# Static dielectric constant tensor:
#      x y z
#    x 1.690750 0.000000 0.000000 
#    y 0.000000 1.690740 0.000000 
#    z 0.000000 0.000000 1.611820 
# 
# From -- ./inp_files/4162.got.cif
#   From: 2010.05.17/outbox.cif.g08.bks.cpg/sg188_3_cif.got.tgz:4162.got - 2010.05.20 12:11:46.
