data_PCOD9585875
_publ_section_title
;
Structure prediction by ZEFSAII (Michael W. Deem and Ramdas Pophale) SiO2 
 PCOD9585875
Probable space group: P -6 C 2
;
_chemical_formula_sum "Si O2"
_cell_formula_units_Z 72
_cell_length_a 24.473461
_cell_length_b 24.473461
_cell_length_c 9.139810
_cell_angle_alpha 90.000000
_cell_angle_beta 90.000000
_cell_angle_gamma 120.000000
_cell_volume 4740.875836
_symmetry_space_group_name_H-M "P -6 C 2"
_symmetry_group_IT_number 188
_symmetry_cell_setting 'hexagonal'
loop_
_space_group_symop_operation_xyz
x,y,z
-x+y,-x,1/2-z
-y,x-y,z
x,y,1/2-z
-x+y,-x,z
-y,x-y,1/2-z
-y,-x,-z
-x+y,y,-z
x,x-y,-z
-x+y,y,1/2+z
x,x-y,1/2+z
-y,-x,1/2+z
loop_
_atom_site_type_symbol
_atom_site_label
_atom_site_fract_x
_atom_site_fract_y
_atom_site_fract_z
Si Si1 0.218454 0.553394 0.424957
Si Si2 0.330008 0.219528 0.082528
Si Si3 0.703197 0.186711 0.418875
Si Si4 0.928329 0.519619 0.575181
Si Si5 0.594681 0.740109 0.075314
Si Si6 0.000773 0.332608 0.425480
O O1 0.226112 0.563562 0.250000
O O2 0.284170 0.568339 0.500000
O O3 0.196888 0.598444 0.500000
O O4 0.170660 0.479398 0.452638
O O5 0.309010 0.209113 0.250000
O O6 0.406808 0.256393 0.082644
O O7 0.308455 0.154228 0.000000
O O8 0.312433 0.266553 0.001495
O O9 0.690230 0.194777 0.250000
O O10 0.747313 0.252688 0.500000
O O11 0.640383 0.139898 0.507142
O O12 0.923924 0.511342 0.750000
O O13 0.951180 0.475590 0.500000
O O14 0.973803 0.593891 0.543121
O O15 0.601456 0.749423 0.250000
O O16 0.636581 0.709751 0.027387
O O17 0.610832 0.805416 0.000000
O O18 0.997214 0.324055 0.250000
#
# Coordination Sequence:
#
# PCOD9585875 Si02
#       6
#    12  12  12  12  12  12
#     4  10  19  31  46  63  82 106 141 188 242 294
#     4   9  16  26  43  67  91 114 140 170 205 246
#     4   9  16  27  43  62  83 108 139 172 208 253
#     4  10  19  30  44  63  88 116 146 184 229 274
#     4   9  19  34  49  65  87 117 152 189 230 279
#     4   9  18  32  47  64  89 119 149 183 224 268
#
# _framework density 15.187067000000001
#
# number of rings (size 3 to 8) (size 9 to 14) (size 15 to 20)
#    0.000    2.667    0.000    2.167    0.000    6.667 
#    0.000    0.000    0.000    0.333    0.000    2.333 
#    0.000    0.000    0.000    0.500    0.000    8.000 
#
# Total GULP energy -401346.869388 kJ/mol
# GULP energy per Si atom -5574.262075 kJ/mol
# Density = 1.515250 g / cm^3
# Si number density = 15.187067 Si / 1000 Ang^3
#
#
#
# Elastic Constant Matrix: (Units=GPa)
#
#
# Indices 1 2 3 4 5 6 
#
# 1 83.9708 65.3325 52.5622 0.0001 0.0000 0.0000
# 2 65.3325 83.9708 52.5622 -0.0001 0.0000 0.0000
# 3 52.5622 52.5622 77.2970 0.0000 0.0000 0.0000
# 4 0.0001 -0.0001 0.0000 21.5079 0.0000 0.0000
# 5 0.0000 0.0000 0.0000 0.0000 21.5079 0.0001
# 6 0.0000 0.0000 0.0000 0.0000 0.0001 9.3192
#
#
#
# Elastic Compliance Matrix: (Units=1/GPa)
#
#
# Indices 1 2 3 4 5 6 
#
# 1 0.033252 -0.020401 -0.008738 0.000000 0.000000 0.000000
# 2 -0.020401 0.033252 -0.008738 0.000000 0.000000 0.000000
# 3 -0.008738 -0.008738 0.024821 0.000000 0.000000 0.000000
# 4 0.000000 0.000000 0.000000 0.046495 0.000000 0.000000
# 5 0.000000 0.000000 0.000000 0.000000 0.046495 0.000000
# 6 0.000000 0.000000 0.000000 0.000000 0.000000 0.107306
#
#
# Mechanical properties :
#
#
# Convention : Reuss Voigt Hill
#
# Bulk Modulus (GPa) = 64.23092 65.12807 64.67950
# Shear Modulus (GPa) = 13.42046 15.45242 14.43644
#
# Velocity S-wave (km/s) = 2.97590 3.19325 3.08648
# Velocity P-wave (km/s) = 7.36158 7.52149 7.44196
#
# Compressibility (1/GPa) = 0.01556883
#
# Stress axis : x y z
#
# Youngs Moduli (GPa) = 30.07365 30.07365 40.28789
#
# Poissons Ratio (x) = 0.61354 0.35205
# Poissons Ratio (y) = 0.61354 0.35205
# Poissons Ratio (z) = 0.26279 0.26279
#
# Static dielectric constant tensor:
#      x y z
#    x 1.490540 0.000000 0.000000 
#    y 0.000000 1.490540 0.000000 
#    z 0.000000 0.000000 1.508130 
# 
# From -- ./inp_files/995.got.cif
#   From: 2010.05.17/outbox.cif.g08.bks.cpg/sg188_1_cif.got.tgz:995.got - 2010.05.20 12:11:46.
