data_PCOD9585966
_publ_section_title
;
Structure prediction by ZEFSAII (Michael W. Deem and Ramdas Pophale) SiO2 
 PCOD9585966
Probable space group: P -6 C 2
;
_chemical_formula_sum "Si O2"
_cell_formula_units_Z 52
_cell_length_a 11.566946
_cell_length_b 11.566946
_cell_length_c 23.791841
_cell_angle_alpha 90.000000
_cell_angle_beta 90.000000
_cell_angle_gamma 120.000000
_cell_volume 2756.741833
_symmetry_space_group_name_H-M "P -6 C 2"
_symmetry_group_IT_number 188
_symmetry_cell_setting 'hexagonal'
loop_
_space_group_symop_operation_xyz
x,y,z
-x+y,-x,1/2-z
-y,x-y,z
x,y,1/2-z
-x+y,-x,z
-y,x-y,1/2-z
-y,-x,-z
-x+y,y,-z
x,x-y,-z
-x+y,y,1/2+z
x,x-y,1/2+z
-y,-x,1/2+z
loop_
_atom_site_type_symbol
_atom_site_label
_atom_site_fract_x
_atom_site_fract_y
_atom_site_fract_z
Si Si1 0.268196 0.999219 0.378854
Si Si2 0.667741 0.059380 0.000000
Si Si3 0.333335 0.666667 0.317894
Si Si4 0.731023 0.999219 0.378853
Si Si5 0.488026 0.511975 0.182770
O O1 0.398927 0.033367 0.342712
O O2 0.142010 0.857990 0.362084
O O3 0.307207 0.995803 0.443705
O O4 0.234319 0.117160 0.373088
O O5 0.785711 0.214290 0.000000
O O6 0.524342 0.048684 0.000000
O O7 0.688596 0.995803 0.056296
O O8 0.333334 0.666668 0.250000
O O9 0.179975 0.589986 0.335534
O O10 0.634439 0.033365 0.342712
O O11 0.492161 0.507841 0.250000
#
# Coordination Sequence:
#
# PCOD9585966 Si02
#       5
#    12  12   4  12  12
#     4  11  23  40  63  91 125 161 201 248 305 365
#     4  10  20  36  60  90 122 157 197 248 304 364
#     4   9  18  36  63  85 113 154 198 252 304 353
#     4  11  23  40  63  91 125 161 201 248 305 365
#     4  11  22  39  63  89 119 159 207 254 302 357
#
# _framework density 18.862846000000001
#
# number of rings (size 3 to 8) (size 9 to 14) (size 15 to 20)
#    0.000    1.385    4.615    1.385    0.000    0.923 
#    1.385    2.308    0.000    2.769    0.000    0.000 
#    0.000    0.000    0.000    0.000    0.000    0.000 
#
# Total GULP energy -290412.084075 kJ/mol
# GULP energy per Si atom -5584.847771 kJ/mol
# Density = 1.881991 g / cm^3
# Si number density = 18.862846 Si / 1000 Ang^3
#
#
#
# Elastic Constant Matrix: (Units=GPa)
#
#
# Indices 1 2 3 4 5 6 
#
# 1 73.3458 30.7200 16.8029 0.0000 0.0000 -0.0001
# 2 30.7200 73.3458 16.8029 0.0000 0.0000 0.0000
# 3 16.8029 16.8029 90.3020 0.0000 0.0000 0.0000
# 4 0.0000 0.0000 0.0000 16.6197 0.0000 0.0000
# 5 0.0000 0.0000 0.0000 0.0000 16.6197 0.0000
# 6 -0.0001 0.0000 0.0000 0.0000 0.0000 21.3129
#
#
#
# Elastic Compliance Matrix: (Units=1/GPa)
#
#
# Indices 1 2 3 4 5 6 
#
# 1 0.016842 -0.006618 -0.001902 0.000000 0.000000 0.000000
# 2 -0.006618 0.016842 -0.001902 0.000000 0.000000 0.000000
# 3 -0.001902 -0.001902 0.011782 0.000000 0.000000 0.000000
# 4 0.000000 0.000000 0.000000 0.060170 0.000000 0.000000
# 5 0.000000 0.000000 0.000000 0.000000 0.060170 0.000000
# 6 0.000000 0.000000 0.000000 0.000000 0.000000 0.046920
#
#
# Mechanical properties :
#
#
# Convention : Reuss Voigt Hill
#
# Bulk Modulus (GPa) = 40.61781 40.62725 40.62253
# Shear Modulus (GPa) = 20.68022 22.42164 21.55093
#
# Velocity S-wave (km/s) = 3.31470 3.45145 3.38377
# Velocity P-wave (km/s) = 6.01911 6.12114 6.07034
#
# Compressibility (1/GPa) = 0.02461974
#
# Stress axis : x y z
#
# Youngs Moduli (GPa) = 59.37606 59.37603 84.87584
#
# Poissons Ratio (x) = 0.39296 0.16146
# Poissons Ratio (y) = 0.39296 0.16146
# Poissons Ratio (z) = 0.11295 0.11295
#
# Static dielectric constant tensor:
#      x y z
#    x 1.628980 0.000000 0.000000 
#    y 0.000000 1.628980 0.000000 
#    z 0.000000 0.000000 1.631980 
# 
# From -- ./inp_files/3610.got.cif
#   From: 2010.05.17/outbox.cif.g08.bks.cpg/sg188_2_cif.got.tgz:3610.got - 2010.05.20 12:11:46.
