data_PCOD9585348
_publ_section_title
;
Structure prediction by ZEFSAII (Michael W. Deem and Ramdas Pophale) SiO2 
 PCOD9585348
Probable space group: P 63 M C
;
_chemical_formula_sum "Si O2"
_cell_formula_units_Z 60
_cell_length_a 26.525868
_cell_length_b 26.525868
_cell_length_c 5.469963
_cell_angle_alpha 90.000000
_cell_angle_beta 90.000000
_cell_angle_gamma 120.000000
_cell_volume 3333.145166
_symmetry_space_group_name_H-M "P 63 M C"
_symmetry_group_IT_number 186
_symmetry_cell_setting 'hexagonal'
loop_
_space_group_symop_operation_xyz
x,y,z
x-y,x,1/2+z
-y,x-y,z
-x,-y,1/2+z
-x+y,-x,z
y,-x+y,1/2+z
-x+y,y,z
x,x-y,z
-y,-x,z
y,x,1/2+z
x-y,-y,1/2+z
-x,-x+y,1/2+z
loop_
_atom_site_type_symbol
_atom_site_label
_atom_site_fract_x
_atom_site_fract_y
_atom_site_fract_z
Si Si1 0.052594 0.751528 0.117630
Si Si2 0.785865 0.332924 0.617657
Si Si3 0.650910 0.725587 0.617630
Si Si4 0.826676 0.971060 0.117666
Si Si5 0.822518 0.297095 0.117658
O O1 0.088037 0.760729 0.364614
O O2 0.025730 0.793574 0.117659
O O3 0.996362 0.685807 0.117620
O O4 0.088034 0.760734 0.870632
O O5 0.790578 0.395289 0.617656
O O6 0.718606 0.281395 0.617656
O O7 0.813015 0.323760 0.867653
O O8 0.813015 0.323760 0.367664
O O9 0.581845 0.695347 0.617654
O O10 0.808723 0.904362 0.117679
O O11 0.860001 0.000002 0.367661
O O12 0.771264 0.228737 0.117658
#
# Coordination Sequence:
#
# PCOD9585348 Si02
#       5
#    12  12  12  12  12
#     4  10  19  35  55  83 111 152 193 214 275 347
#     4  10  20  36  55  79 111 150 195 237 282 339
#     4  10  18  33  53  77 121 142 183 221 277 344
#     4  12  23  41  61  88 118 146 192 242 284 333
#     4  10  21  33  51  83 115 144 185 234 293 349
#
# _framework density 18.001017000000001
#
# number of rings (size 3 to 8) (size 9 to 14) (size 15 to 20)
#    0.000    1.600    4.000    2.600    0.000    1.600 
#    0.000    2.000    0.000    4.000    0.000   56.000 
#    0.000    0.000    0.000    0.000    0.000    0.000 
#
# Total GULP energy -334172.351196 kJ/mol
# GULP energy per Si atom -5569.539187 kJ/mol
# Density = 1.796005 g / cm^3
# Si number density = 18.001017 Si / 1000 Ang^3
#
#
#
# Elastic Constant Matrix: (Units=GPa)
#
#
# Indices 1 2 3 4 5 6 
#
# 1 62.2352 44.0472 31.0049 0.0000 0.0000 0.0000
# 2 44.0472 62.2352 31.0049 0.0000 0.0000 0.0000
# 3 31.0049 31.0049 200.8980 0.0000 0.0000 0.0000
# 4 0.0000 0.0000 0.0000 9.5414 0.0000 0.0000
# 5 0.0000 0.0000 0.0000 0.0000 9.5414 0.0000
# 6 0.0000 0.0000 0.0000 0.0000 0.0000 9.0940
#
#
#
# Elastic Compliance Matrix: (Units=1/GPa)
#
#
# Indices 1 2 3 4 5 6 
#
# 1 0.032661 -0.022321 -0.001596 0.000000 0.000000 0.000000
# 2 -0.022321 0.032661 -0.001596 0.000000 0.000000 0.000000
# 3 -0.001596 -0.001596 0.005470 0.000000 0.000000 0.000000
# 4 0.000000 0.000000 0.000000 0.104807 0.000000 0.000000
# 5 0.000000 0.000000 0.000000 0.000000 0.104807 0.000000
# 6 0.000000 0.000000 0.000000 0.000000 0.000000 0.109963
#
#
# Mechanical properties :
#
#
# Convention : Reuss Voigt Hill
#
# Bulk Modulus (GPa) = 50.58940 59.72024 55.15482
# Shear Modulus (GPa) = 11.16117 20.25610 15.70864
#
# Velocity S-wave (km/s) = 2.49274 3.35815 2.95727
# Velocity P-wave (km/s) = 6.03736 6.94869 6.50899
#
# Compressibility (1/GPa) = 0.01976699
#
# Stress axis : x y z
#
# Youngs Moduli (GPa) = 30.61786 30.61786 182.80844
#
# Poissons Ratio (x) = 0.68341 0.29172
# Poissons Ratio (y) = 0.68341 0.29172
# Poissons Ratio (z) = 0.04886 0.04886
#
# Static dielectric constant tensor:
#      x y z
#    x 1.607080 0.000000 0.000000 
#    y 0.000000 1.607080 0.000000 
#    z 0.000000 0.000000 1.700670 
# 
# From -- ./inp_files/355.got.cif
#   From: 2010.05.17/outbox.cif.g08.bks.cpg/sg186_1_cif.got.tgz:355.got - 2010.05.20 12:07:08.
