data_PCOD9585272
_publ_section_title
;
Structure prediction by ZEFSAII (Michael W. Deem and Ramdas Pophale) SiO2 
 PCOD9585272
Probable space group: P 63 C M
;
_chemical_formula_sum "Si O2"
_cell_formula_units_Z 60
_cell_length_a 15.953764
_cell_length_b 15.953764
_cell_length_c 15.182355
_cell_angle_alpha 90.000000
_cell_angle_beta 90.000000
_cell_angle_gamma 120.000000
_cell_volume 3346.540617
_symmetry_space_group_name_H-M "P 63 C M"
_symmetry_group_IT_number 185
_symmetry_cell_setting 'hexagonal'
loop_
_space_group_symop_operation_xyz
x,y,z
x-y,x,1/2+z
-y,x-y,z
-x,-y,1/2+z
-x+y,-x,z
y,-x+y,1/2+z
-x+y,y,1/2+z
x,x-y,1/2+z
-y,-x,1/2+z
y,x,z
x-y,-y,z
-x,-x+y,z
loop_
_atom_site_type_symbol
_atom_site_label
_atom_site_fract_x
_atom_site_fract_y
_atom_site_fract_z
Si Si1 0.480494 0.886399 0.877220
Si Si2 0.458227 0.570691 0.168116
Si Si3 0.741251 0.628252 0.082764
Si Si4 0.386416 0.270074 0.201904
Si Si5 0.256246 0.440828 0.399628
O O1 0.482559 0.882188 0.770511
O O2 0.368655 0.843406 0.902430
O O3 0.520196 0.818448 0.912051
O O4 0.542801 0.000000 0.902982
O O5 0.506085 0.506085 0.143515
O O6 0.516063 0.665423 0.109484
O O7 0.344331 0.495623 0.166569
O O8 0.690219 0.690219 0.105556
O O9 0.835890 0.658546 0.139969
O O10 0.759295 0.630815 0.979209
O O11 0.327432 0.327432 0.201710
O O12 0.395995 0.243734 0.302348
#
# Coordination Sequence:
#
# PCOD9585272 Si02
#       5
#    12  12  12  12  12
#     4  10  20  37  57  81 116 156 199 245 294 358
#     4   8  17  35  54  76 108 147 185 234 284 336
#     4  11  22  37  57  83 116 152 196 247 293 345
#     4  10  21  39  59  81 113 153 198 242 293 355
#     4  11  22  36  57  85 119 158 200 248 305 350
#
# _framework density 17.928961999999999
#
# number of rings (size 3 to 8) (size 9 to 14) (size 15 to 20)
#    0.000    2.000    2.000    3.400    2.800    0.800 
#    1.200    0.000    0.000    0.400    0.000    0.000 
#    0.000    0.000    0.000    0.000    0.000    0.000 
#
# Total GULP energy -334668.787315 kJ/mol
# GULP energy per Si atom -5577.813122 kJ/mol
# Density = 1.788815 g / cm^3
# Si number density = 17.928962 Si / 1000 Ang^3
#
#
#
# Elastic Constant Matrix: (Units=GPa)
#
#
# Indices 1 2 3 4 5 6 
#
# 1 85.2506 38.4299 21.6311 0.0000 0.0000 0.0000
# 2 38.4299 85.2506 21.6311 0.0000 0.0000 0.0000
# 3 21.6311 21.6311 46.1252 0.0000 0.0000 0.0000
# 4 0.0000 0.0000 0.0000 11.5052 0.0000 0.0000
# 5 0.0000 0.0000 0.0000 0.0000 11.5052 0.0000
# 6 0.0000 0.0000 0.0000 0.0000 0.0000 23.4103
#
#
#
# Elastic Compliance Matrix: (Units=1/GPa)
#
#
# Indices 1 2 3 4 5 6 
#
# 1 0.015515 -0.005843 -0.004536 0.000000 0.000000 0.000000
# 2 -0.005843 0.015515 -0.004536 0.000000 0.000000 0.000000
# 3 -0.004536 -0.004536 0.025934 0.000000 0.000000 0.000000
# 4 0.000000 0.000000 0.000000 0.086918 0.000000 0.000000
# 5 0.000000 0.000000 0.000000 0.000000 0.086918 0.000000
# 6 0.000000 0.000000 0.000000 0.000000 0.000000 0.042716
#
#
# Mechanical properties :
#
#
# Convention : Reuss Voigt Hill
#
# Bulk Modulus (GPa) = 36.85269 42.22339 39.53804
# Shear Modulus (GPa) = 16.00563 18.27974 17.14269
#
# Velocity S-wave (km/s) = 2.99109 3.19653 3.09551
# Velocity P-wave (km/s) = 5.70336 6.10125 5.90565
#
# Compressibility (1/GPa) = 0.02713506
#
# Stress axis : x y z
#
# Youngs Moduli (GPa) = 64.45371 64.45371 38.55889
#
# Poissons Ratio (x) = 0.37661 0.17489
# Poissons Ratio (y) = 0.37661 0.17489
# Poissons Ratio (z) = 0.29235 0.29235
#
# Static dielectric constant tensor:
#      x y z
#    x 1.616230 0.000000 0.000000 
#    y 0.000000 1.616230 0.000000 
#    z 0.000000 0.000000 1.639060 
# 
# From -- ./inp_files/1339.got.cif
#   From: 2010.05.17/outbox.cif.g08.bks.cpg/sg185_cif.got.tgz:1339.got - 2010.05.20 12:05:34.
