data_PCOD9585902
_publ_section_title
;
Structure prediction by ZEFSAII (Michael W. Deem and Ramdas Pophale) SiO2 
 PCOD9585902
Probable space group: P -6 C 2
;
_chemical_formula_sum "Si O2"
_cell_formula_units_Z 54
_cell_length_a 12.470425
_cell_length_b 12.470425
_cell_length_c 22.723412
_cell_angle_alpha 90.000000
_cell_angle_beta 90.000000
_cell_angle_gamma 120.000000
_cell_volume 3060.318897
_symmetry_space_group_name_H-M "P -6 C 2"
_symmetry_group_IT_number 188
_symmetry_cell_setting 'hexagonal'
loop_
_space_group_symop_operation_xyz
x,y,z
-x+y,-x,1/2-z
-y,x-y,z
x,y,1/2-z
-x+y,-x,z
-y,x-y,1/2-z
-y,-x,-z
-x+y,y,-z
x,x-y,-z
-x+y,y,1/2+z
x,x-y,1/2+z
-y,-x,1/2+z
loop_
_atom_site_type_symbol
_atom_site_label
_atom_site_fract_x
_atom_site_fract_y
_atom_site_fract_z
Si Si1 0.000000 0.000000 0.679760
Si Si2 0.335295 0.422753 0.320374
Si Si3 0.666668 0.333334 0.178804
Si Si4 0.619936 0.548175 0.321357
Si Si5 0.176257 0.253540 0.873120
Si Si6 0.835897 0.917949 0.500000
Si Si7 0.333335 0.666668 0.321529
O O1 0.121612 0.116720 0.653578
O O2 0.000000 0.000000 0.750000
O O3 0.325789 0.414220 0.250000
O O4 0.474309 0.457097 0.334606
O O5 0.213135 0.307703 0.344940
O O6 0.325901 0.541226 0.340579
O O7 0.666667 0.333334 0.250000
O O8 0.783434 0.316995 0.162039
O O9 0.631805 0.571480 0.250000
O O10 0.669708 0.679576 0.353862
O O11 0.144311 0.242983 0.942034
O O12 0.933735 0.867469 0.500000
O O13 0.333334 0.666668 0.250000
#
# Coordination Sequence:
#
# PCOD9585902 Si02
#       7
#     4  12   4  12  12   6   4
#     4  12  24  34  59  97 120 138 196 269 313 369
#     4  10  19  33  57  90 126 159 191 245 310 362
#     4   9  21  36  51  81 133 173 187 222 301 374
#     4  10  21  36  57  88 126 163 194 239 306 371
#     4  12  22  39  62  86 118 158 210 247 303 366
#     4  10  22  46  58  78 116 168 200 248 316 354
#     4   9  15  30  51  82 128 163 189 225 304 368
#
# _framework density 17.645220999999999
#
# number of rings (size 3 to 8) (size 9 to 14) (size 15 to 20)
#    0.222    1.333    4.444    2.000    3.111    0.000 
#    0.000    1.111    0.000    0.000    0.000    0.000 
#    0.000    0.000    0.000    0.000    0.000    0.000 
#
# Total GULP energy -300775.081427 kJ/mol
# GULP energy per Si atom -5569.908915 kJ/mol
# Density = 1.760506 g / cm^3
# Si number density = 17.645221 Si / 1000 Ang^3
#
#
#
# Elastic Constant Matrix: (Units=GPa)
#
#
# Indices 1 2 3 4 5 6 
#
# 1 86.3200 39.8743 34.3793 0.0000 0.0000 0.0001
# 2 39.8743 86.3203 34.3793 0.0000 0.0000 -0.0001
# 3 34.3793 34.3793 78.7027 0.0001 0.0000 0.0000
# 4 0.0000 0.0000 0.0001 15.1651 -0.0001 0.0000
# 5 0.0000 0.0000 0.0000 -0.0001 15.1654 0.0001
# 6 0.0001 -0.0001 0.0000 0.0000 0.0001 23.2229
#
#
#
# Elastic Compliance Matrix: (Units=1/GPa)
#
#
# Indices 1 2 3 4 5 6 
#
# 1 0.015965 -0.005566 -0.004543 0.000000 0.000000 0.000000
# 2 -0.005566 0.015965 -0.004543 0.000000 0.000000 0.000000
# 3 -0.004543 -0.004543 0.016675 0.000000 0.000000 0.000000
# 4 0.000000 0.000000 0.000000 0.065941 0.000001 0.000000
# 5 0.000000 0.000000 0.000000 0.000001 0.065940 0.000000
# 6 0.000000 0.000000 0.000000 0.000000 0.000000 0.043061
#
#
# Mechanical properties :
#
#
# Convention : Reuss Voigt Hill
#
# Bulk Modulus (GPa) = 51.80607 52.06762 51.93684
# Shear Modulus (GPa) = 19.28400 20.22469 19.75434
#
# Velocity S-wave (km/s) = 3.30945 3.38921 3.34957
# Velocity P-wave (km/s) = 6.63527 6.69983 6.66763
#
# Compressibility (1/GPa) = 0.01930276
#
# Stress axis : x y z
#
# Youngs Moduli (GPa) = 62.63705 62.63736 59.97071
#
# Poissons Ratio (x) = 0.34861 0.27243
# Poissons Ratio (y) = 0.34861 0.27243
# Poissons Ratio (z) = 0.28454 0.28454
#
# Static dielectric constant tensor:
#      x y z
#    x 1.644710 0.000000 0.000000 
#    y 0.000000 1.644710 0.000000 
#    z 0.000000 0.000000 1.579980 
# 
# From -- ./inp_files/4045.got.cif
#   From: 2010.05.17/outbox.cif.g08.bks.cpg/sg188_3_cif.got.tgz:4045.got - 2010.05.20 12:11:46.
