data_PCOD9585265
_publ_section_title
;
Structure prediction by ZEFSAII (Michael W. Deem and Ramdas Pophale) SiO2 
 PCOD9585265
Probable space group: P 63 C M
;
_chemical_formula_sum "Si O2"
_cell_formula_units_Z 96
_cell_length_a 14.211547
_cell_length_b 14.211547
_cell_length_c 27.819112
_cell_angle_alpha 90.000000
_cell_angle_beta 90.000000
_cell_angle_gamma 120.000000
_cell_volume 4865.826352
_symmetry_space_group_name_H-M "P 63 C M"
_symmetry_group_IT_number 185
_symmetry_cell_setting 'hexagonal'
loop_
_space_group_symop_operation_xyz
x,y,z
x-y,x,1/2+z
-y,x-y,z
-x,-y,1/2+z
-x+y,-x,z
y,-x+y,1/2+z
-x+y,y,1/2+z
x,x-y,1/2+z
-y,-x,1/2+z
y,x,z
x-y,-y,z
-x,-x+y,z
loop_
_atom_site_type_symbol
_atom_site_label
_atom_site_fract_x
_atom_site_fract_y
_atom_site_fract_z
Si Si1 0.472230 0.596561 0.022920
Si Si2 0.130705 0.467146 0.332207
Si Si3 0.118862 0.314848 0.982934
Si Si4 0.462561 0.124928 0.440883
Si Si5 0.818651 0.294455 0.124377
Si Si6 0.614705 0.119051 0.175545
Si Si7 0.242033 0.121207 0.090551
Si Si8 0.545686 0.873469 0.286384
O O1 0.504788 0.504788 0.035222
O O2 0.471222 0.648277 0.073783
O O3 0.573996 0.691980 0.994613
O O4 0.370249 0.543139 0.986699
O O5 0.168834 0.498401 0.387603
O O6 0.140522 0.575068 0.308757
O O7 0.212493 0.434166 0.306554
O O8 0.000000 0.376571 0.331143
O O9 0.224077 0.354307 0.951019
O O10 0.000000 0.230318 0.962924
O O11 0.132945 0.269466 0.033685
O O12 0.433212 0.000000 0.439150
O O13 0.698851 0.213527 0.141994
O O14 0.876295 0.381825 0.166483
O O15 0.869078 0.217190 0.115217
O O16 0.660041 0.137665 0.229268
O O17 0.587977 0.000000 0.160087
O O18 0.208457 0.208457 0.105493
O O19 0.144130 0.000000 0.098484
O O20 0.638693 0.000000 0.295824
#
# Coordination Sequence:
#
# PCOD9585265 Si02
#       8
#    12  12  12  12  12  12  12  12
#     4   9  20  36  52  78 119 158 195 234 280 348
#     4  10  22  40  64  94 125 161 204 255 316 380
#     4   9  19  35  54  77 114 159 202 243 286 335
#     4  10  21  36  56  85 120 156 197 242 296 359
#     4  11  22  37  57  84 120 160 196 243 301 354
#     4  11  23  39  61  88 116 153 199 248 303 368
#     4  10  20  36  57  83 116 160 207 250 292 339
#     4  10  22  41  66  93 121 157 203 257 320 379
#
# _framework density 19.729434000000001
#
# number of rings (size 3 to 8) (size 9 to 14) (size 15 to 20)
#    0.000    2.000    0.000    4.000    5.250    0.500 
#    0.750    1.250    0.000    0.500    0.000    0.000 
#    0.000    0.000    0.000    0.000    0.000    0.000 
#
# Total GULP energy -535369.603991 kJ/mol
# GULP energy per Si atom -5576.766708 kJ/mol
# Density = 1.968453 g / cm^3
# Si number density = 19.729434 Si / 1000 Ang^3
#
#
#
# Elastic Constant Matrix: (Units=GPa)
#
#
# Indices 1 2 3 4 5 6 
#
# 1 184.9102 -42.6502 46.0752 0.0000 0.0000 0.0000
# 2 -42.6502 184.9102 46.0752 0.0000 0.0000 0.0000
# 3 46.0752 46.0752 79.1091 0.0000 0.0000 0.0000
# 4 0.0000 0.0000 0.0000 32.6575 0.0000 0.0000
# 5 0.0000 0.0000 0.0000 0.0000 32.6575 0.0000
# 6 0.0000 0.0000 0.0000 0.0000 0.0000 113.7802
#
#
#
# Elastic Compliance Matrix: (Units=1/GPa)
#
#
# Indices 1 2 3 4 5 6 
#
# 1 0.007841 0.003447 -0.006574 0.000000 0.000000 0.000000
# 2 0.003447 0.007841 -0.006574 0.000000 0.000000 0.000000
# 3 -0.006574 -0.006574 0.020299 0.000000 0.000000 0.000000
# 4 0.000000 0.000000 0.000000 0.030621 0.000000 0.000000
# 5 0.000000 0.000000 0.000000 0.000000 0.030621 0.000000
# 6 0.000000 0.000000 0.000000 0.000000 0.000000 0.008789
#
#
# Mechanical properties :
#
#
# Convention : Reuss Voigt Hill
#
# Bulk Modulus (GPa) = 60.32335 60.88108 60.60221
# Shear Modulus (GPa) = 38.18485 62.44768 50.31626
#
# Velocity S-wave (km/s) = 4.40412 5.63212 5.05554
# Velocity P-wave (km/s) = 7.51687 8.55683 8.05365
#
# Compressibility (1/GPa) = 0.01657733
#
# Stress axis : x y z
#
# Youngs Moduli (GPa) = 127.53082 127.53082 49.26346
#
# Poissons Ratio (x) = -0.43957 0.32388
# Poissons Ratio (y) = -0.43957 0.32388
# Poissons Ratio (z) = 0.83844 0.83844
#
# Static dielectric constant tensor:
#      x y z
#    x 1.731010 0.000000 0.000000 
#    y 0.000000 1.731010 0.000000 
#    z 0.000000 0.000000 1.693790 
# 
# From -- ./inp_files/2188.got.cif
#   From: 2010.05.17/outbox.cif.g08.bks.cpg/sg185_cif.got.tgz:2188.got - 2010.05.20 12:05:34.
