data_PCOD9585139
_publ_section_title
;
Structure prediction by ZEFSAII (Michael W. Deem and Ramdas Pophale) SiO2 
 PCOD9585139
Probable space group: P 6 C C
;
_chemical_formula_sum "Si O2"
_cell_formula_units_Z 60
_cell_length_a 14.530616
_cell_length_b 14.530616
_cell_length_c 13.615496
_cell_angle_alpha 90.000000
_cell_angle_beta 90.000000
_cell_angle_gamma 120.000000
_cell_volume 2489.614761
_symmetry_space_group_name_H-M "P 6 C C"
_symmetry_group_IT_number 184
_symmetry_cell_setting 'hexagonal'
loop_
_space_group_symop_operation_xyz
x,y,z
x-y,x,z
-y,x-y,z
-x,-y,z
-x+y,-x,z
y,-x+y,z
-x+y,y,1/2+z
x,x-y,1/2+z
-y,-x,1/2+z
y,x,1/2+z
x-y,-y,1/2+z
-x,-x+y,1/2+z
loop_
_atom_site_type_symbol
_atom_site_label
_atom_site_fract_x
_atom_site_fract_y
_atom_site_fract_z
Si Si1 0.884349 0.484679 0.170220
Si Si2 0.199934 0.224200 0.380914
Si Si3 0.728349 0.190451 0.580049
Si Si4 0.933154 0.374957 0.892847
Si Si5 0.179210 0.948077 0.645664
O O1 0.837772 0.539347 0.099009
O O2 0.808890 0.359004 0.152304
O O3 0.891598 0.528528 0.280497
O O4 0.000000 0.500000 0.146818
O O5 0.212831 0.124382 0.413157
O O6 0.314696 0.325132 0.402716
O O7 0.187606 0.227348 0.263235
O O8 0.684088 0.163364 0.469664
O O9 0.742644 0.092152 0.611894
O O10 0.000000 0.500000 0.913036
O O11 0.062833 0.858664 0.613106
#
# Coordination Sequence:
#
# PCOD9585139 Si02
#       5
#    12  12  12  12  12
#     4  11  25  47  71 103 146 190 245 307 373 450
#     4  10  21  40  68 104 144 189 237 294 363 439
#     4  12  25  44  72 103 140 189 241 299 366 439
#     4  11  26  45  72 107 149 194 245 307 375 450
#     4  10  20  38  66  99 138 180 227 281 346 422
#
# _framework density 24.100114000000001
#
# number of rings (size 3 to 8) (size 9 to 14) (size 15 to 20)
#    0.000    1.200    0.000    7.400    0.000    8.000 
#    0.000    0.000    0.000    4.400    0.000    0.000 
#    0.000    0.000    0.000    0.000    0.000    0.000 
#
# Total GULP energy -335913.387578 kJ/mol
# GULP energy per Si atom -5598.556460 kJ/mol
# Density = 2.404526 g / cm^3
# Si number density = 24.100114 Si / 1000 Ang^3
#
#
#
# Elastic Constant Matrix: (Units=GPa)
#
#
# Indices 1 2 3 4 5 6 
#
# 1 168.9657 84.0746 60.5334 0.0000 0.0000 0.0000
# 2 84.0746 168.9657 60.5334 0.0000 0.0000 0.0000
# 3 60.5334 60.5334 129.6295 0.0000 0.0000 0.0000
# 4 0.0000 0.0000 0.0000 22.2379 0.0000 0.0000
# 5 0.0000 0.0000 0.0000 0.0000 22.2379 0.0000
# 6 0.0000 0.0000 0.0000 0.0000 0.0000 42.4456
#
#
#
# Elastic Compliance Matrix: (Units=1/GPa)
#
#
# Indices 1 2 3 4 5 6 
#
# 1 0.008434 -0.003345 -0.002376 0.000000 0.000000 0.000000
# 2 -0.003345 0.008434 -0.002376 0.000000 0.000000 0.000000
# 3 -0.002376 -0.002376 0.009934 0.000000 0.000000 0.000000
# 4 0.000000 0.000000 0.000000 0.044968 0.000000 0.000000
# 5 0.000000 0.000000 0.000000 0.000000 0.044968 0.000000
# 6 0.000000 0.000000 0.000000 0.000000 0.000000 0.023560
#
#
# Mechanical properties :
#
#
# Convention : Reuss Voigt Hill
#
# Bulk Modulus (GPa) = 94.28623 97.53819 95.91221
# Shear Modulus (GPa) = 31.24405 34.87889 33.06147
#
# Velocity S-wave (km/s) = 3.60450 3.80840 3.70785
# Velocity P-wave (km/s) = 7.51870 7.73941 7.62986
#
# Compressibility (1/GPa) = 0.01060600
#
# Stress axis : x y z
#
# Youngs Moduli (GPa) = 118.56267 118.56267 100.66738
#
# Poissons Ratio (x) = 0.39664 0.23922
# Poissons Ratio (y) = 0.39664 0.23922
# Poissons Ratio (z) = 0.28175 0.28175
#
# Static dielectric constant tensor:
#      x y z
#    x 1.920830 0.000000 0.000000 
#    y 0.000000 1.920830 0.000000 
#    z 0.000000 0.000000 1.946490 
# 
# From -- ./inp_files/820.got.cif
#   From: 2010.05.17/outbox.cif.g08.bks.cpg/sg184_cif.got.tgz:820.got - 2010.05.20 12:04:40.
