data_PCOD9585469
_publ_section_title
;
Structure prediction by ZEFSAII (Michael W. Deem and Ramdas Pophale) SiO2 
 PCOD9585469
Probable space group: P -6 M 2
;
_chemical_formula_sum "Si O2"
_cell_formula_units_Z 84
_cell_length_a 17.553265
_cell_length_b 17.553265
_cell_length_c 15.286093
_cell_angle_alpha 90.000000
_cell_angle_beta 90.000000
_cell_angle_gamma 120.000000
_cell_volume 4078.898965
_symmetry_space_group_name_H-M "P -6 M 2"
_symmetry_group_IT_number 187
_symmetry_cell_setting 'hexagonal'
loop_
_space_group_symop_operation_xyz
x,y,z
-x+y,-x,-z
-y,x-y,z
x,y,-z
-x+y,-x,z
-y,x-y,-z
-y,-x,-z
-x+y,y,-z
x,x-y,-z
-x+y,y,z
x,x-y,z
-y,-x,z
loop_
_atom_site_type_symbol
_atom_site_label
_atom_site_fract_x
_atom_site_fract_y
_atom_site_fract_z
Si Si1 0.514013 0.669025 0.664215
Si Si2 0.825123 0.003869 0.291358
Si Si3 0.849094 0.332463 0.266104
Si Si4 0.784826 0.806258 0.903127
Si Si5 0.949082 0.561294 0.907159
Si Si6 0.676997 0.657707 0.398939
Si Si7 0.576507 0.706000 0.865528
O O1 0.506710 0.753355 0.635228
O O2 0.419391 0.580610 0.665012
O O3 0.584430 0.655901 0.609905
O O4 0.553526 0.690455 0.763017
O O5 0.814691 0.907346 0.294538
O O6 0.814975 0.024706 0.190001
O O7 0.750473 0.006321 0.349016
O O8 0.921046 0.078955 0.321388
O O9 0.844635 0.422318 0.267885
O O10 0.752985 0.247015 0.263631
O O11 0.904713 0.333849 0.180122
O O12 0.904352 0.330306 0.348609
O O13 0.821217 0.910609 0.906090
O O14 0.679791 0.759891 0.889255
O O15 0.802263 0.782054 0.000000
O O16 0.918017 0.459009 0.909851
O O17 0.055177 0.612635 0.900770
O O18 0.924720 0.585969 0.000000
O O19 0.699915 0.659226 0.500000
O O20 0.539339 0.769670 0.896339
#
# Coordination Sequence:
#
# PCOD9585469 Si02
#       7
#    12  12  12  12  12  12  12
#     4  11  22  39  64  95 128 163 206 261 322 383
#     4  11  23  41  64  94 131 172 218 269 325 385
#     4  11  24  44  69  98 131 166 209 264 327 393
#     4   9  17  31  54  86 123 164 210 257 307 367
#     4  10  20  35  58  90 128 170 213 256 309 377
#     4  12  26  45  69  93 123 167 216 265 321 389
#     4  10  18  31  55  85 121 166 214 259 304 358
#
# _framework density 20.593793999999999
#
# number of rings (size 3 to 8) (size 9 to 14) (size 15 to 20)
#    0.000    1.429    2.857    2.571    0.000    4.857 
#    0.000    0.000    0.000    8.000    0.000    0.000 
#    0.000    0.000    0.000    0.000    0.000    0.000 
#
# Total GULP energy -468299.825676 kJ/mol
# GULP energy per Si atom -5574.997925 kJ/mol
# Density = 2.054692 g / cm^3
# Si number density = 20.593794 Si / 1000 Ang^3
#
#
#
# Elastic Constant Matrix: (Units=GPa)
#
#
# Indices 1 2 3 4 5 6 
#
# 1 111.8912 53.5608 57.9736 0.0000 0.0003 0.0000
# 2 53.5608 111.8912 57.9736 0.0000 -0.0003 0.0000
# 3 57.9736 57.9736 160.7951 0.0000 0.0000 0.0000
# 4 0.0000 0.0000 0.0000 -0.7939 0.0000 -0.0003
# 5 0.0003 -0.0003 0.0000 0.0000 -0.7939 0.0000
# 6 0.0000 0.0000 0.0000 -0.0003 0.0000 29.1652
#
#
#
# Elastic Compliance Matrix: (Units=1/GPa)
#
#
# Indices 1 2 3 4 5 6 
#
# 1 0.012616 -0.004528 -0.002916 0.000000 0.000007 0.000000
# 2 -0.004528 0.012616 -0.002916 0.000000 -0.000007 0.000000
# 3 -0.002916 -0.002916 0.008322 0.000000 0.000000 0.000000
# 4 0.000000 0.000000 0.000000 -1.259573 0.000000 -0.000014
# 5 0.000007 -0.000007 0.000000 0.000000 -1.259574 0.000000
# 6 0.000000 0.000000 0.000000 -0.000014 0.000000 0.034287
#
#
# Mechanical properties :
#
#
# Convention : Reuss Voigt Hill
#
# Bulk Modulus (GPa) = 77.92345 80.39928 79.16137
# Shear Modulus (GPa) = -2.06074 19.85344 8.89635
#
# Velocity S-wave (km/s) = -1.00142 3.10828 2.08070
# Velocity P-wave (km/s) = 6.04842 7.21160 6.65547
#
# Compressibility (1/GPa) = 0.01283311
#
# Stress axis : x y z
#
# Youngs Moduli (GPa) = 79.26696 79.26696 120.16773
#
# Poissons Ratio (x) = 0.35893 0.35040
# Poissons Ratio (y) = 0.35893 0.35040
# Poissons Ratio (z) = 0.23113 0.23113
#
# Static dielectric constant tensor:
#      x y z
#    x 1.746570 0.000000 0.000000 
#    y 0.000000 1.746570 0.000000 
#    z 0.000000 0.000000 1.759860 
# 
# From -- ./inp_files/2638.got.cif
#   From: 2010.05.17/outbox.cif.g08.bks.cpg/sg187_2_cif.got.tgz:2638.got - 2010.05.20 12:09:04.
