data_PCOD9585067
_publ_section_title
;
Structure prediction by ZEFSAII (Michael W. Deem and Ramdas Pophale) SiO2 
 PCOD9585067
Probable space group: P 6 M M
;
_chemical_formula_sum "Si O2"
_cell_formula_units_Z 84
_cell_length_a 17.845264
_cell_length_b 17.845264
_cell_length_c 18.963337
_cell_angle_alpha 90.000000
_cell_angle_beta 90.000000
_cell_angle_gamma 120.000000
_cell_volume 5229.875485
_symmetry_space_group_name_H-M "P 6 M M"
_symmetry_group_IT_number 183
_symmetry_cell_setting 'hexagonal'
loop_
_space_group_symop_operation_xyz
x,y,z
x-y,x,z
-y,x-y,z
-x,-y,z
-x+y,-x,z
y,-x+y,z
-x+y,y,z
x,x-y,z
-y,-x,z
y,x,z
x-y,-y,z
-x,-x+y,z
loop_
_atom_site_type_symbol
_atom_site_label
_atom_site_fract_x
_atom_site_fract_y
_atom_site_fract_z
Si Si1 0.487390 0.333510 0.572710
Si Si2 0.333510 0.487390 0.724141
Si Si3 0.489966 0.332671 0.148425
Si Si4 0.333365 0.845532 0.878727
Si Si5 0.487833 0.333365 0.418124
Si Si6 0.367958 0.271136 0.283560
Si Si7 0.096823 0.728865 0.013291
O O1 0.493233 0.246617 0.574116
O O2 0.583277 0.416724 0.571550
O O3 0.447568 0.337168 0.648425
O O4 0.450065 0.334302 0.495802
O O5 0.246617 0.493234 0.722735
O O6 0.416725 0.583276 0.725301
O O7 0.334301 0.450064 0.801049
O O8 0.516704 0.258352 0.148426
O O9 0.573457 0.426544 0.148424
O O10 0.431866 0.316080 0.217561
O O11 0.431865 0.316078 0.079290
O O12 0.424175 0.848349 0.889114
O O13 0.254170 0.745831 0.878932
O O14 0.313347 0.891546 0.941999
O O15 0.508340 0.254170 0.417920
O O16 0.575827 0.424174 0.407737
O O17 0.421802 0.313347 0.354852
O O18 0.342433 0.171217 0.282812
O O19 0.289698 0.289698 0.278702
O O20 0.171216 0.828785 0.014037
O O21 0.000000 0.710303 0.018150
#
# Coordination Sequence:
#
# PCOD9585067 Si02
#       7
#    12  12  12  12  12  12  12
#     4   8  12  18  30  50  78 113 152 189 219 246
#     4   8  12  18  30  50  78 113 152 189 219 246
#     4  10  20  33  50  73 102 134 163 186 206 233
#     4   9  16  25  39  61  90 123 156 187 217 251
#     4   9  16  25  39  61  90 123 156 187 217 251
#     4  10  21  35  50  68  89 115 147 185 230 274
#     4  10  21  35  50  68  89 115 147 185 230 274
#
# _framework density 16.061567
#
# number of rings (size 3 to 8) (size 9 to 14) (size 15 to 20)
#    0.000    2.857    0.000    2.000    0.000    6.286 
#    0.000    2.857    0.000    1.143    0.000    4.000 
#    0.000    3.429    0.000    0.000    0.000    0.000 
#
# Total GULP energy -467692.955767 kJ/mol
# GULP energy per Si atom -5567.773283 kJ/mol
# Density = 1.602501 g / cm^3
# Si number density = 16.061567 Si / 1000 Ang^3
#
#
#
# Elastic Constant Matrix: (Units=GPa)
#
#
# Indices 1 2 3 4 5 6 
#
# 1 54.5357 56.4546 40.9932 0.0000 0.0000 0.0000
# 2 56.4546 54.5357 40.9932 0.0000 0.0000 0.0000
# 3 40.9932 40.9932 156.4849 0.0000 0.0000 0.0000
# 4 0.0000 0.0000 0.0000 -6.0361 0.0000 0.0000
# 5 0.0000 0.0000 0.0000 0.0000 -6.0361 0.0000
# 6 0.0000 0.0000 0.0000 0.0000 0.0000 -0.9595
#
#
#
# Elastic Compliance Matrix: (Units=1/GPa)
#
#
# Indices 1 2 3 4 5 6 
#
# 1 -0.254977 0.266148 -0.002927 0.000000 0.000000 0.000000
# 2 0.266148 -0.254977 -0.002927 0.000000 0.000000 0.000000
# 3 -0.002927 -0.002927 0.007924 0.000000 0.000000 0.000000
# 4 0.000000 0.000000 0.000000 -0.165670 0.000000 0.000000
# 5 0.000000 0.000000 0.000000 0.000000 -0.165670 0.000000
# 6 0.000000 0.000000 0.000000 0.000000 0.000000 -1.042250
#
#
# Mechanical properties :
#
#
# Convention : Reuss Voigt Hill
#
# Bulk Modulus (GPa) = 53.87731 60.27090 57.07411
# Shear Modulus (GPa) = -2.09203 5.86802 1.88800
#
# Velocity S-wave (km/s) = -1.14251 1.91348 1.08537
# Velocity P-wave (km/s) = 5.64594 6.51830 6.09774
#
# Compressibility (1/GPa) = 0.01856069
#
# Stress axis : x y z
#
# Youngs Moduli (GPa) = -3.92193 -3.92193 126.20403
#
# Poissons Ratio (x) = 1.04381 0.36934
# Poissons Ratio (y) = 1.04381 0.36934
# Poissons Ratio (z) = -0.01148 -0.01148
#
# Static dielectric constant tensor:
#      x y z
#    x 1.507730 0.000000 0.000000 
#    y 0.000000 1.507730 0.000000 
#    z 0.000000 0.000000 1.607670 
# 
# From -- ./inp_files/2923.got.cif
#   From: 2010.05.17/outbox.cif.g08.bks.cpg/sg183_2_cif.got.tgz:2923.got - 2010.05.20 12:02:58.
