data_PCOD9585840
_publ_section_title
;
Structure prediction by ZEFSAII (Michael W. Deem and Ramdas Pophale) SiO2 
 PCOD9585840
Probable space group: P -6 C 2
;
_chemical_formula_sum "Si O2"
_cell_formula_units_Z 72
_cell_length_a 24.074891
_cell_length_b 24.074891
_cell_length_c 8.886195
_cell_angle_alpha 90.000000
_cell_angle_beta 90.000000
_cell_angle_gamma 120.000000
_cell_volume 4460.413586
_symmetry_space_group_name_H-M "P -6 C 2"
_symmetry_group_IT_number 188
_symmetry_cell_setting 'hexagonal'
loop_
_space_group_symop_operation_xyz
x,y,z
-x+y,-x,1/2-z
-y,x-y,z
x,y,1/2-z
-x+y,-x,z
-y,x-y,1/2-z
-y,-x,-z
-x+y,y,-z
x,x-y,-z
-x+y,y,1/2+z
x,x-y,1/2+z
-y,-x,1/2+z
loop_
_atom_site_type_symbol
_atom_site_label
_atom_site_fract_x
_atom_site_fract_y
_atom_site_fract_z
Si Si1 0.860305 0.255387 0.931390
Si Si2 0.853941 0.370044 0.428673
Si Si3 0.318811 0.990748 0.578759
Si Si4 0.138436 0.396871 0.071638
Si Si5 0.454895 0.007768 0.922316
Si Si6 0.455303 0.665825 0.068425
O O1 0.857533 0.256211 0.750000
O O2 0.935392 0.283569 0.972555
O O3 0.814042 0.185959 0.000000
O O4 0.835614 0.302287 0.996296
O O5 0.844589 0.364329 0.250000
O O6 0.825790 0.412895 0.500000
O O7 0.929223 0.410391 0.473339
O O8 0.295401 0.986141 0.750000
O O9 0.380192 0.980432 0.582682
O O10 0.271099 0.930894 0.480095
O O11 0.142123 0.396076 0.250000
O O12 0.158004 0.470546 0.030795
O O13 0.193509 0.387018 0.000000
O O14 0.477774 0.025439 0.750000
O O15 0.483999 0.967997 0.000000
O O16 0.449109 0.664418 0.250000
O O17 0.401525 0.598476 0.000000
O O18 0.444850 0.722425 0.000000
#
# Coordination Sequence:
#
# PCOD9585840 Si02
#       6
#    12  12  12  12  12  12
#     4  10  20  34  51  74 100 127 157 193 237 285
#     4  10  17  27  44  65  90 121 154 189 225 267
#     4   9  19  33  48  67  94 123 153 190 234 280
#     4  10  21  35  51  68  89 120 159 198 240 286
#     4   9  16  26  40  61  88 117 148 185 225 268
#     4  10  20  33  48  67  90 120 157 201 248 294
#
# _framework density 16.142001
#
# number of rings (size 3 to 8) (size 9 to 14) (size 15 to 20)
#    0.000    2.333    0.000    5.667    0.000    6.667 
#    0.000    3.333    0.000    0.333    0.000    2.333 
#    0.000    0.000    0.000    0.500    0.000    8.000 
#
# Total GULP energy -400854.557661 kJ/mol
# GULP energy per Si atom -5567.424412 kJ/mol
# Density = 1.610526 g / cm^3
# Si number density = 16.142001 Si / 1000 Ang^3
#
#
#
# Elastic Constant Matrix: (Units=GPa)
#
#
# Indices 1 2 3 4 5 6 
#
# 1 103.2055 22.6783 41.9897 -0.0025 0.0000 0.0000
# 2 22.6783 103.2055 41.9897 0.0025 0.0000 0.0000
# 3 41.9897 41.9897 80.8358 0.0000 0.0000 0.0000
# 4 -0.0025 0.0025 0.0000 11.0319 0.0000 0.0000
# 5 0.0000 0.0000 0.0000 0.0000 11.0319 -0.0025
# 6 0.0000 0.0000 0.0000 0.0000 -0.0025 40.2636
#
#
#
# Elastic Compliance Matrix: (Units=1/GPa)
#
#
# Indices 1 2 3 4 5 6 
#
# 1 0.012287 -0.000131 -0.006315 0.000003 0.000000 0.000000
# 2 -0.000131 0.012287 -0.006315 -0.000003 0.000000 0.000000
# 3 -0.006315 -0.006315 0.018931 0.000000 0.000000 0.000000
# 4 0.000003 -0.000003 0.000000 0.090646 0.000000 0.000000
# 5 0.000000 0.000000 0.000000 0.000000 0.090646 0.000006
# 6 0.000000 0.000000 0.000000 0.000000 0.000006 0.024836
#
#
# Mechanical properties :
#
#
# Convention : Reuss Voigt Hill
#
# Bulk Modulus (GPa) = 55.60062 55.61800 55.60931
# Shear Modulus (GPa) = 17.78418 24.50478 21.14448
#
# Velocity S-wave (km/s) = 3.32284 3.90048 3.62319
# Velocity P-wave (km/s) = 7.01720 7.40373 7.21306
#
# Compressibility (1/GPa) = 0.01798541
#
# Stress axis : x y z
#
# Youngs Moduli (GPa) = 81.38496 81.38496 52.82366
#
# Poissons Ratio (x) = 0.01065 0.33356
# Poissons Ratio (y) = 0.01065 0.33356
# Poissons Ratio (z) = 0.51391 0.51391
#
# Static dielectric constant tensor:
#      x y z
#    x 1.544240 0.000000 0.000000 
#    y 0.000000 1.544240 0.000000 
#    z 0.000000 0.000000 1.528680 
# 
# From -- ./inp_files/1060.got.cif
#   From: 2010.05.17/outbox.cif.g08.bks.cpg/sg188_1_cif.got.tgz:1060.got - 2010.05.20 12:11:46.
