data_PCOD9585204
_publ_section_title
;
Structure prediction by ZEFSAII (Michael W. Deem and Ramdas Pophale) SiO2 
 PCOD9585204
Probable space group: P 6 C C
;
_chemical_formula_sum "Si O2"
_cell_formula_units_Z 42
_cell_length_a 10.423552
_cell_length_b 10.423552
_cell_length_c 19.983413
_cell_angle_alpha 90.000000
_cell_angle_beta 90.000000
_cell_angle_gamma 120.000000
_cell_volume 1880.320021
_symmetry_space_group_name_H-M "P 6 C C"
_symmetry_group_IT_number 184
_symmetry_cell_setting 'hexagonal'
loop_
_space_group_symop_operation_xyz
x,y,z
x-y,x,z
-y,x-y,z
-x,-y,z
-x+y,-x,z
y,-x+y,z
-x+y,y,1/2+z
x,x-y,1/2+z
-y,-x,1/2+z
y,x,1/2+z
x-y,-y,1/2+z
-x,-x+y,1/2+z
loop_
_atom_site_type_symbol
_atom_site_label
_atom_site_fract_x
_atom_site_fract_y
_atom_site_fract_z
Si Si1 0.823843 0.513780 0.281540
Si Si2 0.336831 0.252259 0.422492
Si Si3 0.169636 0.493301 0.134912
Si Si4 0.500000 0.000000 0.518569
O O1 0.647452 0.459779 0.284718
O O2 0.899100 0.610489 0.345647
O O3 0.885786 0.576819 0.207729
O O4 0.204085 0.285871 0.433971
O O5 0.471817 0.365510 0.469894
O O6 0.339484 0.532424 0.134016
O O7 0.081519 0.436874 0.066666
#
# Coordination Sequence:
#
# PCOD9585204 Si02
#       4
#    12  12  12   6
#     4   8  18  39  65  96 125 157 211 272 321 374
#     4  12  26  42  62  91 131 177 218 264 322 393
#     4   8  18  36  58  92 126 151 206 271 318 373
#     4  12  22  36  64  92 126 176 212 262 318 388
#
# _framework density 22.336622999999999
#
# number of rings (size 3 to 8) (size 9 to 14) (size 15 to 20)
#    1.143    1.143    0.000    3.714    0.000    5.714 
#    1.714    0.000    0.000    0.000    0.000    4.000 
#    0.000    0.000    0.000    0.000    0.000    0.000 
#
# Total GULP energy -234002.382093 kJ/mol
# GULP energy per Si atom -5571.485288 kJ/mol
# Density = 2.228578 g / cm^3
# Si number density = 22.336623 Si / 1000 Ang^3
#
#
#
# Elastic Constant Matrix: (Units=GPa)
#
#
# Indices 1 2 3 4 5 6 
#
# 1 61.9466 10.9122 34.6295 0.0000 0.0000 0.0000
# 2 10.9122 61.9466 34.6295 0.0000 0.0000 0.0000
# 3 34.6295 34.6295 175.0030 0.0000 0.0000 0.0000
# 4 0.0000 0.0000 0.0000 30.4680 0.0000 0.0000
# 5 0.0000 0.0000 0.0000 0.0000 30.4680 0.0000
# 6 0.0000 0.0000 0.0000 0.0000 0.0000 25.5172
#
#
#
# Elastic Compliance Matrix: (Units=1/GPa)
#
#
# Indices 1 2 3 4 5 6 
#
# 1 0.018250 -0.001345 -0.003345 0.000000 0.000000 0.000000
# 2 -0.001345 0.018250 -0.003345 0.000000 0.000000 0.000000
# 3 -0.003345 -0.003345 0.007038 0.000000 0.000000 0.000000
# 4 0.000000 0.000000 0.000000 0.032821 0.000000 0.000000
# 5 0.000000 0.000000 0.000000 0.000000 0.032821 0.000000
# 6 0.000000 0.000000 0.000000 0.000000 0.000000 0.039189
#
#
# Mechanical properties :
#
#
# Convention : Reuss Voigt Hill
#
# Bulk Modulus (GPa) = 36.40657 51.02648 43.71652
# Shear Modulus (GPa) = 28.80256 31.87231 30.33743
#
# Velocity S-wave (km/s) = 3.59482 3.78154 3.68936
# Velocity P-wave (km/s) = 5.79351 6.47770 6.14514
#
# Compressibility (1/GPa) = 0.02746757
#
# Stress axis : x y z
#
# Youngs Moduli (GPa) = 54.79495 54.79495 142.08448
#
# Poissons Ratio (x) = 0.07369 0.47530
# Poissons Ratio (y) = 0.07369 0.47530
# Poissons Ratio (z) = 0.18330 0.18330
#
# Static dielectric constant tensor:
#      x y z
#    x 1.899080 0.000000 0.000000 
#    y 0.000000 1.899080 0.000000 
#    z 0.000000 0.000000 1.857760 
# 
# From -- ./inp_files/1011.got.cif
#   From: 2010.05.17/outbox.cif.g08.bks.cpg/sg184_cif.got.tgz:1011.got - 2010.05.20 12:04:40.
