data_PCOD9585441
_publ_section_title
;
Structure prediction by ZEFSAII (Michael W. Deem and Ramdas Pophale) SiO2 
 PCOD9585441
Probable space group: P -6 M 2
;
_chemical_formula_sum "Si O2"
_cell_formula_units_Z 72
_cell_length_a 24.430709
_cell_length_b 24.430709
_cell_length_c 8.845481
_cell_angle_alpha 90.000000
_cell_angle_beta 90.000000
_cell_angle_gamma 120.000000
_cell_volume 4572.189555
_symmetry_space_group_name_H-M "P -6 M 2"
_symmetry_group_IT_number 187
_symmetry_cell_setting 'hexagonal'
loop_
_space_group_symop_operation_xyz
x,y,z
-x+y,-x,-z
-y,x-y,z
x,y,-z
-x+y,-x,z
-y,x-y,-z
-y,-x,-z
-x+y,y,-z
x,x-y,-z
-x+y,y,z
x,x-y,z
-y,-x,z
loop_
_atom_site_type_symbol
_atom_site_label
_atom_site_fract_x
_atom_site_fract_y
_atom_site_fract_z
Si Si1 0.739306 0.705083 0.319742
Si Si2 0.300180 0.821864 0.183814
Si Si3 0.110480 0.555240 0.815041
Si Si4 0.657036 0.556336 0.319243
Si Si5 0.781624 0.563247 0.318591
Si Si6 0.669172 0.772127 0.181743
Si Si7 0.851220 0.148781 0.178867
Si Si8 0.518283 0.481717 0.180981
O O1 0.744791 0.706794 0.500000
O O2 0.692665 0.630972 0.277436
O O3 0.709693 0.746344 0.262089
O O4 0.807663 0.727966 0.247786
O O5 0.249148 0.750853 0.234260
O O6 0.371981 0.852439 0.235996
O O7 0.271290 0.866519 0.223429
O O8 0.301174 0.820132 0.000000
O O9 0.037039 0.518520 0.768092
O O10 0.110523 0.555262 0.000000
O O11 0.647104 0.551942 0.500000
O O12 0.707277 0.532530 0.285504
O O13 0.590061 0.518093 0.239365
O O14 0.788668 0.577335 0.500000
O O15 0.814513 0.629025 0.229641
O O16 0.687606 0.843803 0.218634
O O17 0.673582 0.767904 0.000000
O O18 0.854133 0.145868 0.000000
O O19 0.518289 0.481712 0.000000
#
# Coordination Sequence:
#
# PCOD9585441 Si02
#       8
#    12  12   6  12   6  12   6   6
#     4  10  19  31  47  68  95 124 154 190 231 274
#     4   8  14  25  39  56  81 115 154 197 244 290
#     4   9  16  25  37  57  86 116 151 197 244 290
#     4   9  18  32  48  66  91 121 151 187 231 281
#     4   8  16  32  50  67  89 118 148 181 225 271
#     4   9  17  29  45  64  90 125 160 193 235 287
#     4  10  18  28  46  70  95 121 148 178 216 266
#     4  11  21  29  43  68  94 121 155 194 239 289
#
# _framework density 15.747377999999999
#
# number of rings (size 3 to 8) (size 9 to 14) (size 15 to 20)
#    0.000    2.833    0.000    4.500    0.000    5.000 
#    0.500    0.000    0.000    0.333    0.000    1.167 
#    0.833    0.000    1.500    0.000    2.333    0.000 
#
# Total GULP energy -401058.074073 kJ/mol
# GULP energy per Si atom -5570.251029 kJ/mol
# Density = 1.571154 g / cm^3
# Si number density = 15.747378 Si / 1000 Ang^3
#
#
#
# Elastic Constant Matrix: (Units=GPa)
#
#
# Indices 1 2 3 4 5 6 
#
# 1 127.7659 83.8090 38.3312 0.0000 0.0000 0.0000
# 2 83.8090 127.7659 38.3312 0.0000 0.0000 0.0000
# 3 38.3312 38.3312 26.6586 0.0000 0.0000 0.0000
# 4 0.0000 0.0000 0.0000 19.9452 0.0000 0.0000
# 5 0.0000 0.0000 0.0000 0.0000 19.9452 0.0000
# 6 0.0000 0.0000 0.0000 0.0000 0.0000 21.9784
#
#
#
# Elastic Compliance Matrix: (Units=1/GPa)
#
#
# Indices 1 2 3 4 5 6 
#
# 1 0.016308 -0.006441 -0.014188 0.000000 0.000000 0.000000
# 2 -0.006441 0.016308 -0.014188 0.000000 0.000000 0.000000
# 3 -0.014188 -0.014188 0.078311 0.000000 0.000000 0.000000
# 4 0.000000 0.000000 0.000000 0.050137 0.000000 0.000000
# 5 0.000000 0.000000 0.000000 0.000000 0.050137 0.000000
# 6 0.000000 0.000000 0.000000 0.000000 0.000000 0.045499
#
#
# Mechanical properties :
#
#
# Convention : Reuss Voigt Hill
#
# Bulk Modulus (GPa) = 24.21612 67.01480 45.61546
# Shear Modulus (GPa) = 14.70156 20.48835 17.59496
#
# Velocity S-wave (km/s) = 3.05878 3.61094 3.34627
# Velocity P-wave (km/s) = 5.28073 7.74814 6.63023
#
# Compressibility (1/GPa) = 0.04129481
#
# Stress axis : x y z
#
# Youngs Moduli (GPa) = 61.31803 61.31803 12.76958
#
# Poissons Ratio (x) = 0.39496 0.18117
# Poissons Ratio (y) = 0.39496 0.18117
# Poissons Ratio (z) = 0.86996 0.86996
#
# Static dielectric constant tensor:
#      x y z
#    x 1.525050 0.000000 0.000000 
#    y 0.000000 1.525050 0.000000 
#    z 0.000000 0.000000 1.523410 
# 
# From -- ./inp_files/1105.got.cif
#   From: 2010.05.17/outbox.cif.g08.bks.cpg/sg187_1_cif.got.tgz:1105.got - 2010.05.20 12:09:04.
