data_PCOD9585489
_publ_section_title
;
Structure prediction by ZEFSAII (Michael W. Deem and Ramdas Pophale) SiO2 
 PCOD9585489
Probable space group: P -6 M 2
;
_chemical_formula_sum "Si O2"
_cell_formula_units_Z 72
_cell_length_a 17.275281
_cell_length_b 17.275281
_cell_length_c 18.778935
_cell_angle_alpha 90.000000
_cell_angle_beta 90.000000
_cell_angle_gamma 120.000000
_cell_volume 4853.464206
_symmetry_space_group_name_H-M "P -6 M 2"
_symmetry_group_IT_number 187
_symmetry_cell_setting 'hexagonal'
loop_
_space_group_symop_operation_xyz
x,y,z
-x+y,-x,-z
-y,x-y,z
x,y,-z
-x+y,-x,z
-y,x-y,-z
-y,-x,-z
-x+y,y,-z
x,x-y,-z
-x+y,y,z
x,x-y,z
-y,-x,z
loop_
_atom_site_type_symbol
_atom_site_label
_atom_site_fract_x
_atom_site_fract_y
_atom_site_fract_z
Si Si1 0.613738 0.044783 0.080293
Si Si2 0.513584 0.666764 0.864261
Si Si3 0.044959 0.432202 0.277567
Si Si4 0.817413 0.000260 0.080834
Si Si5 0.334009 0.849144 0.419526
Si Si6 0.338405 0.257411 0.194738
O O1 0.526374 0.052748 0.091848
O O2 0.578339 0.939217 0.094649
O O3 0.689316 0.104096 0.136041
O O4 0.644049 0.068464 0.000000
O O5 0.526874 0.763437 0.880656
O O6 0.412039 0.587962 0.878836
O O7 0.534016 0.658418 0.781144
O O8 0.013367 0.506684 0.272367
O O9 0.081523 0.436224 0.356306
O O10 0.973464 0.332243 0.253703
O O11 0.809500 0.904750 0.088894
O O12 0.770433 0.020909 0.146168
O O13 0.784968 0.004232 0.000000
O O14 0.920358 0.079643 0.082834
O O15 0.338763 0.883962 0.500000
O O16 0.411467 0.822934 0.414507
O O17 0.238264 0.761737 0.409981
O O18 0.335497 0.167749 0.219915
#
# Coordination Sequence:
#
# PCOD9585489 Si02
#       6
#    12  12  12  12  12  12
#     4   9  18  31  43  56  78 107 136 171 219 264
#     4   9  16  25  38  57  83 117 152 179 200 230
#     4   9  18  31  44  60  85 114 140 169 211 255
#     4   9  17  28  41  58  80 105 133 168 212 257
#     4   9  16  26  43  69 100 130 154 171 186 212
#     4  10  19  30  45  62  78 101 137 177 214 256
#
# _framework density 14.834764
#
# number of rings (size 3 to 8) (size 9 to 14) (size 15 to 20)
#    0.000    2.833    0.000    3.000    0.000    6.000 
#    0.000    1.667    0.000    4.167    0.000    0.000 
#    0.000    0.000    0.000    0.000    0.000    0.000 
#
# Total GULP energy -400881.013242 kJ/mol
# GULP energy per Si atom -5567.791851 kJ/mol
# Density = 1.480100 g / cm^3
# Si number density = 14.834764 Si / 1000 Ang^3
#
#
#
# Elastic Constant Matrix: (Units=GPa)
#
#
# Indices 1 2 3 4 5 6 
#
# 1 51.0060 41.4047 27.0679 0.0000 -0.0001 0.0000
# 2 41.4047 51.0060 27.0679 0.0000 0.0001 0.0000
# 3 27.0679 27.0679 89.7091 0.0000 0.0000 0.0000
# 4 0.0000 0.0000 0.0000 10.2592 0.0000 0.0001
# 5 -0.0001 0.0001 0.0000 0.0000 10.2592 0.0000
# 6 0.0000 0.0000 0.0000 0.0001 0.0000 4.8006
#
#
#
# Elastic Compliance Matrix: (Units=1/GPa)
#
#
# Indices 1 2 3 4 5 6 
#
# 1 0.058649 -0.045504 -0.003966 0.000000 0.000001 0.000000
# 2 -0.045504 0.058649 -0.003966 0.000000 -0.000001 0.000000
# 3 -0.003966 -0.003966 0.013541 0.000000 0.000000 0.000000
# 4 0.000000 0.000000 0.000000 0.097473 0.000000 -0.000002
# 5 0.000001 -0.000001 0.000000 0.000000 0.097473 0.000000
# 6 0.000000 0.000000 0.000000 -0.000002 0.000000 0.208306
#
#
# Mechanical properties :
#
#
# Convention : Reuss Voigt Hill
#
# Bulk Modulus (GPa) = 41.72688 42.53355 42.13022
# Shear Modulus (GPa) = 7.70472 11.47585 9.59029
#
# Velocity S-wave (km/s) = 2.28144 2.78435 2.54534
# Velocity P-wave (km/s) = 5.92695 6.25064 6.09095
#
# Compressibility (1/GPa) = 0.02396537
#
# Stress axis : x y z
#
# Youngs Moduli (GPa) = 17.05060 17.05060 73.85226
#
# Poissons Ratio (x) = 0.77588 0.29291
# Poissons Ratio (y) = 0.77588 0.29291
# Poissons Ratio (z) = 0.06763 0.06763
#
# Static dielectric constant tensor:
#      x y z
#    x 1.497370 0.000000 0.000000 
#    y 0.000000 1.497370 0.000000 
#    z 0.000000 0.000000 1.498570 
# 
# From -- ./inp_files/3080.got.cif
#   From: 2010.05.17/outbox.cif.g08.bks.cpg/sg187_2_cif.got.tgz:3080.got - 2010.05.20 12:09:04.
