data_PCOD9585775
_publ_section_title
;
Structure prediction by ZEFSAII (Michael W. Deem and Ramdas Pophale) SiO2 
 PCOD9585775
Probable space group: P -6 M 2
;
_chemical_formula_sum "Si O2"
_cell_formula_units_Z 72
_cell_length_a 24.217024
_cell_length_b 24.217024
_cell_length_c 9.101679
_cell_angle_alpha 90.000000
_cell_angle_beta 90.000000
_cell_angle_gamma 120.000000
_cell_volume 4622.678508
_symmetry_space_group_name_H-M "P -6 M 2"
_symmetry_group_IT_number 187
_symmetry_cell_setting 'hexagonal'
loop_
_space_group_symop_operation_xyz
x,y,z
-x+y,-x,-z
-y,x-y,z
x,y,-z
-x+y,-x,z
-y,x-y,-z
-y,-x,-z
-x+y,y,-z
x,x-y,-z
-x+y,y,z
x,x-y,z
-y,-x,z
loop_
_atom_site_type_symbol
_atom_site_label
_atom_site_fract_x
_atom_site_fract_y
_atom_site_fract_z
Si Si1 0.631221 0.591797 0.824728
Si Si2 0.843585 0.814645 0.324689
Si Si3 0.108330 0.216659 0.177204
Si Si4 0.776119 0.097707 0.826144
Si Si5 0.183083 0.366165 0.178579
Si Si6 0.558451 0.669251 0.823309
Si Si7 0.958970 0.479485 0.668948
Si Si8 0.114007 0.557004 0.329591
O O1 0.705026 0.626438 0.783182
O O2 0.602937 0.638448 0.789805
O O3 0.586913 0.524905 0.747447
O O4 0.625929 0.582375 0.000000
O O5 0.837288 0.818082 0.500000
O O6 0.916954 0.833907 0.292873
O O7 0.818818 0.856020 0.241436
O O8 0.801297 0.742411 0.267272
O O9 0.145864 0.291727 0.222727
O O10 0.107240 0.214480 0.000000
O O11 0.828050 0.171951 0.809641
O O12 0.775060 0.081461 0.000000
O O13 0.147552 0.404647 0.224586
O O14 0.182796 0.365592 0.000000
O O15 0.489951 0.623857 0.749353
O O16 0.550134 0.666978 0.000000
O O17 0.940434 0.470217 0.500000
O O18 0.036526 0.518263 0.677518
O O19 0.132804 0.566402 0.500000
#
# Coordination Sequence:
#
# PCOD9585775 Si02
#       8
#    12  12   6  12   6  12   6   6
#     4   9  16  27  44  66  93 123 152 184 228 273
#     4  10  21  36  51  69  95 127 160 198 248 299
#     4  11  21  35  55  75  96 122 159 207 254 301
#     4   9  17  30  49  71  95 124 158 193 230 278
#     4   9  18  31  49  74  98 119 151 196 240 284
#     4   9  16  28  46  66  89 119 151 182 222 273
#     4   9  17  27  41  63  90 118 149 183 218 261
#     4   9  17  29  43  62  88 115 145 180 218 256
#
# _framework density 15.575386
#
# number of rings (size 3 to 8) (size 9 to 14) (size 15 to 20)
#    0.000    2.667    0.000    2.250    0.000    6.333 
#    0.500    5.417    0.000    0.333    0.000    1.167 
#    0.833    0.000    1.500    0.000    0.500    0.000 
#
# Total GULP energy -401274.269698 kJ/mol
# GULP energy per Si atom -5573.253746 kJ/mol
# Density = 1.553994 g / cm^3
# Si number density = 15.575386 Si / 1000 Ang^3
#
#
#
# Elastic Constant Matrix: (Units=GPa)
#
#
# Indices 1 2 3 4 5 6 
#
# 1 120.5713 79.5645 53.6011 0.0000 0.0002 0.0000
# 2 79.5645 120.5713 53.6011 0.0000 -0.0002 0.0000
# 3 53.6011 53.6011 46.4821 0.0000 0.0000 0.0000
# 4 0.0000 0.0000 0.0000 12.2222 0.0000 -0.0002
# 5 0.0002 -0.0002 0.0000 0.0000 12.2222 0.0000
# 6 0.0000 0.0000 0.0000 -0.0002 0.0000 20.5034
#
#
#
# Elastic Compliance Matrix: (Units=1/GPa)
#
#
# Indices 1 2 3 4 5 6 
#
# 1 0.018728 -0.005658 -0.015071 0.000000 0.000000 0.000000
# 2 -0.005658 0.018728 -0.015071 0.000000 0.000000 0.000000
# 3 -0.015071 -0.015071 0.056272 0.000000 0.000000 0.000000
# 4 0.000000 0.000000 0.000000 0.081818 0.000000 0.000001
# 5 0.000000 0.000000 0.000000 0.000000 0.081818 0.000000
# 6 0.000000 0.000000 0.000000 0.000001 0.000000 0.048772
#
#
# Mechanical properties :
#
#
# Convention : Reuss Voigt Hill
#
# Bulk Modulus (GPa) = 45.19403 73.46201 59.32802
# Shear Modulus (GPa) = 12.98320 15.71344 14.34832
#
# Velocity S-wave (km/s) = 2.89030 3.17971 3.03845
# Velocity P-wave (km/s) = 6.34174 7.79414 7.10515
#
# Compressibility (1/GPa) = 0.02212682
#
# Stress axis : x y z
#
# Youngs Moduli (GPa) = 53.39667 53.39667 17.77076
#
# Poissons Ratio (x) = 0.30214 0.26782
# Poissons Ratio (y) = 0.30214 0.26782
# Poissons Ratio (z) = 0.80474 0.80474
#
# Static dielectric constant tensor:
#      x y z
#    x 1.507430 0.000000 0.000000 
#    y 0.000000 1.507430 0.000000 
#    z 0.000000 0.000000 1.519010 
# 
# From -- ./inp_files/1102.got.cif
#   From: 2010.05.17/outbox.cif.g08.bks.cpg/sg187_1_cif.got.tgz:1102.got - 2010.05.20 12:09:04.
