data_PCOD9585303
_publ_section_title
;
Structure prediction by ZEFSAII (Michael W. Deem and Ramdas Pophale) SiO2 
 PCOD9585303
Probable space group: P 63 C M
;
_chemical_formula_sum "Si O2"
_cell_formula_units_Z 52
_cell_length_a 13.546635
_cell_length_b 13.546635
_cell_length_c 14.101921
_cell_angle_alpha 90.000000
_cell_angle_beta 90.000000
_cell_angle_gamma 120.000000
_cell_volume 2241.154350
_symmetry_space_group_name_H-M "P 63 C M"
_symmetry_group_IT_number 185
_symmetry_cell_setting 'hexagonal'
loop_
_space_group_symop_operation_xyz
x,y,z
x-y,x,1/2+z
-y,x-y,z
-x,-y,1/2+z
-x+y,-x,z
y,-x+y,1/2+z
-x+y,y,1/2+z
x,x-y,1/2+z
-y,-x,1/2+z
y,x,z
x-y,-y,z
-x,-x+y,z
loop_
_atom_site_type_symbol
_atom_site_label
_atom_site_fract_x
_atom_site_fract_y
_atom_site_fract_z
Si Si1 0.000000 0.773155 0.182120
Si Si2 0.000000 0.000000 0.176119
Si Si3 0.871925 0.466258 0.841234
Si Si4 0.777437 0.777437 0.909024
Si Si5 0.247387 0.788022 0.958411
Si Si6 0.000000 0.000000 0.408088
Si Si7 0.861069 0.594953 0.655792
O O1 0.126802 0.793698 0.158215
O O2 0.000000 0.886190 0.147185
O O3 0.000000 0.774662 0.295883
O O4 0.000000 0.000000 0.292409
O O5 0.799102 0.337867 0.878680
O O6 0.863548 0.534951 0.931522
O O7 0.845108 0.517862 0.748144
O O8 0.000000 0.491846 0.827816
O O9 0.667358 0.778191 0.944454
O O10 0.888941 0.888941 0.940819
O O11 0.295561 0.809271 0.064194
O O12 0.000000 0.680961 0.649010
#
# Coordination Sequence:
#
# PCOD9585303 Si02
#       7
#     6   2  12   6  12   2  12
#     4  11  20  39  64 107 147 193 232 304 372 450
#     4   9  18  33  64  98 151 190 227 277 370 446
#     4  11  26  46  71 100 141 190 241 310 365 432
#     4  11  22  43  68 103 150 195 233 307 372 460
#     4  12  25  48  70 101 143 190 252 305 372 439
#     4   9  24  33  70 110 148 196 242 280 388 464
#     4  11  24  41  69 106 147 191 250 300 370 453
#
# _framework density 23.20233
#
# number of rings (size 3 to 8) (size 9 to 14) (size 15 to 20)
#    0.000    0.923    5.769    0.462    3.231    1.846 
#    0.000    1.154    0.000    0.000    0.000    0.000 
#    0.000    0.000    0.000    0.000    0.000    0.000 
#
# Total GULP energy -290329.721916 kJ/mol
# GULP energy per Si atom -5583.263883 kJ/mol
# Density = 2.314952 g / cm^3
# Si number density = 23.202330 Si / 1000 Ang^3
#
#
#
# Elastic Constant Matrix: (Units=GPa)
#
#
# Indices 1 2 3 4 5 6 
#
# 1 69.9248 47.3486 32.5626 0.0000 0.0000 0.0000
# 2 47.3486 69.9248 32.5626 0.0000 0.0000 0.0000
# 3 32.5626 32.5626 141.0501 0.0000 0.0000 0.0000
# 4 0.0000 0.0000 0.0000 15.9081 0.0000 0.0000
# 5 0.0000 0.0000 0.0000 0.0000 15.9081 0.0000
# 6 0.0000 0.0000 0.0000 0.0000 0.0000 11.2881
#
#
#
# Elastic Compliance Matrix: (Units=1/GPa)
#
#
# Indices 1 2 3 4 5 6 
#
# 1 0.027038 -0.017257 -0.002258 0.000000 0.000000 0.000000
# 2 -0.017257 0.027038 -0.002258 0.000000 0.000000 0.000000
# 3 -0.002258 -0.002258 0.008132 0.000000 0.000000 0.000000
# 4 0.000000 0.000000 0.000000 0.062861 0.000000 0.000000
# 5 0.000000 0.000000 0.000000 0.000000 0.062861 0.000000
# 6 0.000000 0.000000 0.000000 0.000000 0.000000 0.088589
#
#
# Mechanical properties :
#
#
# Convention : Reuss Voigt Hill
#
# Bulk Modulus (GPa) = 53.58434 56.20529 54.89481
# Shear Modulus (GPa) = 15.32403 19.84926 17.58665
#
# Velocity S-wave (km/s) = 2.57271 2.92804 2.75611
# Velocity P-wave (km/s) = 5.65417 5.97560 5.81711
#
# Compressibility (1/GPa) = 0.01866217
#
# Stress axis : x y z
#
# Youngs Moduli (GPa) = 36.98535 36.98535 122.96720
#
# Poissons Ratio (x) = 0.63825 0.27766
# Poissons Ratio (y) = 0.63825 0.27766
# Poissons Ratio (z) = 0.08351 0.08351
#
# Static dielectric constant tensor:
#      x y z
#    x 1.871630 0.000000 0.000000 
#    y 0.000000 1.871630 0.000000 
#    z 0.000000 0.000000 1.890170 
# 
# From -- ./inp_files/1322.got.cif
#   From: 2010.05.17/outbox.cif.g08.bks.cpg/sg185_cif.got.tgz:1322.got - 2010.05.20 12:05:34.
