data_PCOD9585970
_publ_section_title
;
Structure prediction by ZEFSAII (Michael W. Deem and Ramdas Pophale) SiO2 
 PCOD9585970
Probable space group: P -6 C 2
;
_chemical_formula_sum "Si O2"
_cell_formula_units_Z 22
_cell_length_a 6.941790
_cell_length_b 6.941790
_cell_length_c 24.751487
_cell_angle_alpha 90.000000
_cell_angle_beta 90.000000
_cell_angle_gamma 120.000000
_cell_volume 1032.939463
_symmetry_space_group_name_H-M "P -6 C 2"
_symmetry_group_IT_number 188
_symmetry_cell_setting 'hexagonal'
loop_
_space_group_symop_operation_xyz
x,y,z
-x+y,-x,1/2-z
-y,x-y,z
x,y,1/2-z
-x+y,-x,z
-y,x-y,1/2-z
-y,-x,-z
-x+y,y,-z
x,x-y,-z
-x+y,y,1/2+z
x,x-y,1/2+z
-y,-x,1/2+z
loop_
_atom_site_type_symbol
_atom_site_label
_atom_site_fract_x
_atom_site_fract_y
_atom_site_fract_z
Si Si1 0.666668 0.333335 0.936081
Si Si2 0.787391 0.065518 0.138976
Si Si3 0.556125 0.943079 0.250000
O O1 0.871933 0.319458 0.909831
O O2 0.666668 0.333334 0.000000
O O3 0.150236 0.442298 0.250000
O O4 0.054216 0.228865 0.136344
O O5 0.678159 0.069985 0.195757
#
# Coordination Sequence:
#
# PCOD9585970 Si02
#       3
#     4  12   6
#     4  12  27  46  68  97 135 186 244 296 331 381
#     4  10  23  43  70 102 136 177 226 278 346 417
#     4  10  20  36  72 104 142 176 208 272 350 420
#
# _framework density 21.298442000000001
#
# number of rings (size 3 to 8) (size 9 to 14) (size 15 to 20)
#    1.636    0.000    0.000    4.909    0.000    4.364 
#    3.273    0.000    0.000    0.000    0.000    0.000 
#    0.000    0.000    0.000    0.000    0.000    0.000 
#
# Total GULP energy -122743.237567 kJ/mol
# GULP energy per Si atom -5579.238071 kJ/mol
# Density = 2.124997 g / cm^3
# Si number density = 21.298442 Si / 1000 Ang^3
#
#
#
# Elastic Constant Matrix: (Units=GPa)
#
#
# Indices 1 2 3 4 5 6 
#
# 1 96.7001 29.4287 67.2500 -0.0001 -0.0001 -0.0001
# 2 29.4287 96.6994 67.2496 0.0000 0.0000 -0.0001
# 3 67.2500 67.2496 245.2036 -0.0006 -0.0001 -0.0002
# 4 -0.0001 0.0000 -0.0006 17.1942 0.0001 0.0000
# 5 -0.0001 0.0000 -0.0001 0.0001 17.1942 0.0000
# 6 -0.0001 -0.0001 -0.0002 0.0000 0.0000 33.6354
#
#
#
# Elastic Compliance Matrix: (Units=1/GPa)
#
#
# Indices 1 2 3 4 5 6 
#
# 1 0.013035 -0.001830 -0.003073 0.000000 0.000000 0.000000
# 2 -0.001830 0.013035 -0.003073 0.000000 0.000000 0.000000
# 3 -0.003073 -0.003073 0.005764 0.000000 0.000000 0.000000
# 4 0.000000 0.000000 0.000000 0.058159 0.000000 0.000000
# 5 0.000000 0.000000 0.000000 0.000000 0.058159 0.000000
# 6 0.000000 0.000000 0.000000 0.000000 0.000000 0.029731
#
#
# Mechanical properties :
#
#
# Convention : Reuss Voigt Hill
#
# Bulk Modulus (GPa) = 62.96340 85.16220 74.06280
# Shear Modulus (GPa) = 25.10915 31.91641 28.51278
#
# Velocity S-wave (km/s) = 3.43726 3.87529 3.66283
# Velocity P-wave (km/s) = 6.73644 7.75215 7.26207
#
# Compressibility (1/GPa) = 0.01588224
#
# Stress axis : x y z
#
# Youngs Moduli (GPa) = 76.71406 76.71361 173.49040
#
# Poissons Ratio (x) = 0.14037 0.53319
# Poissons Ratio (y) = 0.14037 0.53319
# Poissons Ratio (z) = 0.23576 0.23576
#
# Static dielectric constant tensor:
#      x y z
#    x 1.821290 0.000000 0.000000 
#    y 0.000000 1.821290 0.000000 
#    z 0.000000 0.000000 1.674680 
# 
# From -- ./inp_files/2752.got.cif
#   From: 2010.05.17/outbox.cif.g08.bks.cpg/sg188_2_cif.got.tgz:2752.got - 2010.05.20 12:11:46.
