data_PCOD9585209
_publ_section_title
;
Structure prediction by ZEFSAII (Michael W. Deem and Ramdas Pophale) SiO2 
 PCOD9585209
Probable space group: P 6 C C
;
_chemical_formula_sum "Si O2"
_cell_formula_units_Z 48
_cell_length_a 16.324720
_cell_length_b 16.324720
_cell_length_c 9.228637
_cell_angle_alpha 90.000000
_cell_angle_beta 90.000000
_cell_angle_gamma 120.000000
_cell_volume 2129.902275
_symmetry_space_group_name_H-M "P 6 C C"
_symmetry_group_IT_number 184
_symmetry_cell_setting 'hexagonal'
loop_
_space_group_symop_operation_xyz
x,y,z
x-y,x,z
-y,x-y,z
-x,-y,z
-x+y,-x,z
y,-x+y,z
-x+y,y,1/2+z
x,x-y,1/2+z
-y,-x,1/2+z
y,x,1/2+z
x-y,-y,1/2+z
-x,-x+y,1/2+z
loop_
_atom_site_type_symbol
_atom_site_label
_atom_site_fract_x
_atom_site_fract_y
_atom_site_fract_z
Si Si1 0.296967 0.989653 0.214200
Si Si2 0.648193 0.493279 0.165514
Si Si3 0.173145 0.491604 0.331584
Si Si4 0.953547 0.786699 0.955965
O O1 0.291020 0.908406 0.318808
O O2 0.256360 0.047721 0.299182
O O3 0.405137 0.060701 0.174651
O O4 0.232653 0.942227 0.074133
O O5 0.731610 0.496078 0.261992
O O6 0.551985 0.410966 0.233359
O O7 0.661184 0.475763 0.997683
O O8 0.876117 0.817793 0.972570
#
# Coordination Sequence:
#
# PCOD9585209 Si02
#       4
#    12  12  12  12
#     4  12  27  44  75 104 142 188 244 294 353 422
#     4  12  27  47  74 107 147 190 238 294 355 422
#     4  12  27  47  74 107 147 190 238 294 355 422
#     4  12  25  46  71 106 142 188 236 298 361 426
#
# _framework density 22.536245999999998
#
# number of rings (size 3 to 8) (size 9 to 14) (size 15 to 20)
#    0.000    0.000    2.500    7.500    7.000    2.000 
#    0.000    2.500    0.000    0.000    0.000    0.000 
#    0.000    0.000    0.000    0.000    0.000    0.000 
#
# Total GULP energy -269177.965597 kJ/mol
# GULP energy per Si atom -5607.874283 kJ/mol
# Density = 2.248495 g / cm^3
# Si number density = 22.536246 Si / 1000 Ang^3
#
#
#
# Elastic Constant Matrix: (Units=GPa)
#
#
# Indices 1 2 3 4 5 6 
#
# 1 77.2204 21.2578 -1.0527 0.0000 0.0000 0.0000
# 2 21.2578 77.2204 -1.0527 0.0000 0.0000 0.0000
# 3 -1.0527 -1.0527 117.6637 0.0000 0.0000 0.0000
# 4 0.0000 0.0000 0.0000 34.7815 0.0000 0.0000
# 5 0.0000 0.0000 0.0000 0.0000 34.7815 0.0000
# 6 0.0000 0.0000 0.0000 0.0000 0.0000 27.9813
#
#
#
# Elastic Compliance Matrix: (Units=1/GPa)
#
#
# Indices 1 2 3 4 5 6 
#
# 1 0.014013 -0.003856 0.000091 0.000000 0.000000 0.000000
# 2 -0.003856 0.014013 0.000091 0.000000 0.000000 0.000000
# 3 0.000091 0.000091 0.008500 0.000000 0.000000 0.000000
# 4 0.000000 0.000000 0.000000 0.028751 0.000000 0.000000
# 5 0.000000 0.000000 0.000000 0.000000 0.028751 0.000000
# 6 0.000000 0.000000 0.000000 0.000000 0.000000 0.035738
#
#
# Mechanical properties :
#
#
# Convention : Reuss Voigt Hill
#
# Bulk Modulus (GPa) = 34.27376 34.48992 34.38184
# Shear Modulus (GPa) = 34.05054 36.37237 35.21145
#
# Velocity S-wave (km/s) = 3.89128 4.02176 3.95705
# Velocity P-wave (km/s) = 5.95237 6.07482 6.01391
#
# Compressibility (1/GPa) = 0.02917684
#
# Stress axis : x y z
#
# Youngs Moduli (GPa) = 71.36350 71.36350 117.64121
#
# Poissons Ratio (x) = 0.27520 -0.01069
# Poissons Ratio (y) = 0.27520 -0.01069
# Poissons Ratio (z) = -0.00648 -0.00648
#
# Static dielectric constant tensor:
#      x y z
#    x 1.802730 0.000000 0.000000 
#    y 0.000000 1.802730 0.000000 
#    z 0.000000 0.000000 1.803010 
# 
# From -- ./inp_files/188.got.cif
#   From: 2010.05.17/outbox.cif.g08.bks.cpg/sg184_cif.got.tgz:188.got - 2010.05.20 12:04:40.
