data_PCOD9585794
_publ_section_title
;
Structure prediction by ZEFSAII (Michael W. Deem and Ramdas Pophale) SiO2 
 PCOD9585794
Probable space group: P -6 M 2
;
_chemical_formula_sum "Si O2"
_cell_formula_units_Z 84
_cell_length_a 17.785346
_cell_length_b 17.785346
_cell_length_c 14.969354
_cell_angle_alpha 90.000000
_cell_angle_beta 90.000000
_cell_angle_gamma 120.000000
_cell_volume 4100.703109
_symmetry_space_group_name_H-M "P -6 M 2"
_symmetry_group_IT_number 187
_symmetry_cell_setting 'hexagonal'
loop_
_space_group_symop_operation_xyz
x,y,z
-x+y,-x,-z
-y,x-y,z
x,y,-z
-x+y,-x,z
-y,x-y,-z
-y,-x,-z
-x+y,y,-z
x,x-y,-z
-x+y,y,z
x,x-y,z
-y,-x,z
loop_
_atom_site_type_symbol
_atom_site_label
_atom_site_fract_x
_atom_site_fract_y
_atom_site_fract_z
Si Si1 0.180234 0.180234 0.904525
Si Si2 0.641983 0.539477 0.096802
Si Si3 0.670003 0.159569 0.707265
Si Si4 0.819371 0.819371 0.707555
Si Si5 0.102507 0.641983 0.903198
Si Si6 0.999999 0.666193 0.393952
Si Si7 0.510435 0.670003 0.707264
O O1 0.170921 0.085461 0.904867
O O2 0.218003 0.218003 0.807427
O O3 0.085461 0.170921 0.904867
O O4 0.222729 0.222729 0.000000
O O5 0.556038 0.443963 0.094700
O O6 0.686972 0.542368 0.189383
O O7 0.606123 0.606123 0.102296
O O8 0.686280 0.551894 0.000000
O O9 0.577240 0.154479 0.703064
O O10 0.746938 0.253063 0.678582
O O11 0.668671 0.084162 0.648451
O O12 0.913589 0.827178 0.700193
O O13 0.752991 0.752991 0.636423
O O14 0.827178 0.913589 0.700193
O O15 0.112076 0.556038 0.905301
O O16 0.144604 0.686971 0.810617
O O17 0.134386 0.686280 0.000000
O O18 1.000000 0.659407 0.500000
O O19 0.084160 0.668668 0.351548
O O20 0.493879 0.746940 0.678580
O O21 0.422760 0.577241 0.703063
#
# Coordination Sequence:
#
# PCOD9585794 Si02
#       7
#    12  12  12  12  12  12  12
#     4   8  13  24  47  81 120 158 193 232 283 347
#     4   8  14  29  56  89 126 167 206 243 289 352
#     4  11  23  41  66  97 129 163 206 258 313 373
#     4  10  21  39  64  94 126 161 204 256 310 369
#     4   8  14  29  56  89 126 167 206 243 289 352
#     4  12  27  47  67  86 117 163 211 260 325 399
#     4  11  23  41  66  97 129 163 206 258 313 373
#
# _framework density 20.484290999999999
#
# number of rings (size 3 to 8) (size 9 to 14) (size 15 to 20)
#    0.000    2.286    1.429    2.714    0.000    5.714 
#    0.000    1.429    0.000    7.714    0.000    0.000 
#    0.000    0.000    0.000    0.000    0.000    0.000 
#
# Total GULP energy -468820.063158 kJ/mol
# GULP energy per Si atom -5581.191228 kJ/mol
# Density = 2.043767 g / cm^3
# Si number density = 20.484291 Si / 1000 Ang^3
#
#
#
# Elastic Constant Matrix: (Units=GPa)
#
#
# Indices 1 2 3 4 5 6 
#
# 1 154.3975 -11.3209 69.0675 0.0000 -0.0026 0.0000
# 2 -11.3209 154.3975 69.0675 0.0000 0.0026 0.0000
# 3 69.0675 69.0675 172.9673 0.0000 0.0000 0.0000
# 4 0.0000 0.0000 0.0000 6.7993 0.0000 0.0026
# 5 -0.0026 0.0026 0.0000 0.0000 6.7993 0.0000
# 6 0.0000 0.0000 0.0000 0.0026 0.0000 82.8592
#
#
#
# Elastic Compliance Matrix: (Units=1/GPa)
#
#
# Indices 1 2 3 4 5 6 
#
# 1 0.008704 0.002670 -0.004542 0.000000 0.000002 0.000000
# 2 0.002670 0.008704 -0.004542 0.000000 -0.000002 0.000000
# 3 -0.004542 -0.004542 0.009409 0.000000 0.000000 0.000000
# 4 0.000000 0.000000 0.000000 0.147074 0.000000 -0.000005
# 5 0.000002 -0.000002 0.000000 0.000000 0.147074 0.000000
# 6 0.000000 0.000000 0.000000 -0.000005 0.000000 0.012069
#
#
# Mechanical properties :
#
#
# Convention : Reuss Voigt Hill
#
# Bulk Modulus (GPa) = 71.48088 81.71006 76.59547
# Shear Modulus (GPa) = 14.26431 42.95476 28.60954
#
# Velocity S-wave (km/s) = 2.64171 4.58423 3.74124
# Velocity P-wave (km/s) = 6.65403 8.24596 7.49240
#
# Compressibility (1/GPa) = 0.01398976
#
# Stress axis : x y z
#
# Youngs Moduli (GPa) = 114.88583 114.88583 106.28516
#
# Poissons Ratio (x) = -0.30674 0.48273
# Poissons Ratio (y) = -0.30674 0.48273
# Poissons Ratio (z) = 0.52179 0.52179
#
# Static dielectric constant tensor:
#      x y z
#    x 1.710810 0.000000 0.000000 
#    y 0.000000 1.710810 0.000000 
#    z 0.000000 0.000000 1.754620 
# 
# From -- ./inp_files/2640.got.cif
#   From: 2010.05.17/outbox.cif.g08.bks.cpg/sg187_2_cif.got.tgz:2640.got - 2010.05.20 12:09:04.
