data_PCOD9585351
_publ_section_title
;
Structure prediction by ZEFSAII (Michael W. Deem and Ramdas Pophale) SiO2 
 PCOD9585351
Probable space group: P 63 M C
;
_chemical_formula_sum "Si O2"
_cell_formula_units_Z 84
_cell_length_a 17.246178
_cell_length_b 17.246178
_cell_length_c 22.499935
_cell_angle_alpha 90.000000
_cell_angle_beta 90.000000
_cell_angle_gamma 120.000000
_cell_volume 5795.589589
_symmetry_space_group_name_H-M "P 63 M C"
_symmetry_group_IT_number 186
_symmetry_cell_setting 'hexagonal'
loop_
_space_group_symop_operation_xyz
x,y,z
x-y,x,1/2+z
-y,x-y,z
-x,-y,1/2+z
-x+y,-x,z
y,-x+y,1/2+z
-x+y,y,z
x,x-y,z
-y,-x,z
y,x,1/2+z
x-y,-y,1/2+z
-x,-x+y,1/2+z
loop_
_atom_site_type_symbol
_atom_site_label
_atom_site_fract_x
_atom_site_fract_y
_atom_site_fract_z
Si Si1 0.846189 0.512482 0.203140
Si Si2 0.700049 0.940195 0.768568
Si Si3 0.147356 0.666362 0.461928
Si Si4 0.621341 0.902697 0.583169
Si Si5 0.487519 0.153812 0.720718
Si Si6 0.759854 0.059808 0.655287
Si Si7 0.718646 0.621344 0.840688
O O1 0.741487 0.482973 0.204604
O O2 0.861483 0.430742 0.216814
O O3 0.896415 0.596803 0.247045
O O4 0.881454 0.551790 0.137330
O O5 0.718203 0.859101 0.779822
O O6 0.756256 0.000003 0.711928
O O7 0.716007 0.006054 0.823028
O O8 0.149166 0.574583 0.461927
O O9 0.248697 0.751303 0.461928
O O10 0.100112 0.675923 0.520892
O O11 0.100111 0.675924 0.402965
O O12 0.641172 0.820586 0.583516
O O13 0.709951 0.993946 0.600828
O O14 0.569258 0.138516 0.707045
O O15 0.517030 0.258515 0.719254
O O16 0.403200 0.103589 0.676811
O O17 0.448208 0.118546 0.786527
O O18 0.859100 0.140901 0.644030
O O19 0.820588 0.641175 0.840342
#
# Coordination Sequence:
#
# PCOD9585351 Si02
#       7
#    12  12  12  12  12  12  12
#     4   9  16  25  39  60  86 114 141 170 207 251
#     4   9  17  29  45  64  86 112 141 177 220 262
#     4  10  19  30  45  66  92 120 148 176 207 246
#     4   9  18  30  43  61  85 113 142 175 216 256
#     4   9  16  25  39  60  86 114 141 170 207 251
#     4   9  17  29  45  64  86 112 141 177 220 262
#     4   9  18  30  43  61  85 113 142 175 216 256
#
# _framework density 14.493779
#
# number of rings (size 3 to 8) (size 9 to 14) (size 15 to 20)
#    0.000    2.857    0.000    3.857    0.000    6.286 
#    0.000    3.571    0.000    5.143    0.000    0.000 
#    0.000    0.000    0.000    0.000    0.000    0.000 
#
# Total GULP energy -468018.655065 kJ/mol
# GULP energy per Si atom -5571.650656 kJ/mol
# Density = 1.446079 g / cm^3
# Si number density = 14.493779 Si / 1000 Ang^3
#
#
#
# Elastic Constant Matrix: (Units=GPa)
#
#
# Indices 1 2 3 4 5 6 
#
# 1 80.8526 53.9099 39.1599 0.0000 0.0000 0.0000
# 2 53.9099 80.8526 39.1599 0.0000 0.0000 0.0000
# 3 39.1599 39.1599 77.0958 0.0000 0.0000 0.0000
# 4 0.0000 0.0000 0.0000 14.8642 0.0000 0.0000
# 5 0.0000 0.0000 0.0000 0.0000 14.8642 0.0000
# 6 0.0000 0.0000 0.0000 0.0000 0.0000 13.4714
#
#
#
# Elastic Compliance Matrix: (Units=1/GPa)
#
#
# Indices 1 2 3 4 5 6 
#
# 1 0.023822 -0.013294 -0.005348 0.000000 0.000000 0.000000
# 2 -0.013294 0.023822 -0.005348 0.000000 0.000000 0.000000
# 3 -0.005348 -0.005348 0.018404 0.000000 0.000000 0.000000
# 4 0.000000 0.000000 0.000000 0.067276 0.000000 0.000000
# 5 0.000000 0.000000 0.000000 0.000000 0.067276 0.000000
# 6 0.000000 0.000000 0.000000 0.000000 0.000000 0.074232
#
#
# Mechanical properties :
#
#
# Convention : Reuss Voigt Hill
#
# Bulk Modulus (GPa) = 55.34260 55.91783 55.63022
# Shear Modulus (GPa) = 15.20531 15.74471 15.47501
#
# Velocity S-wave (km/s) = 3.24248 3.29949 3.27111
# Velocity P-wave (km/s) = 7.23083 7.29245 7.26171
#
# Compressibility (1/GPa) = 0.01806926
#
# Stress axis : x y z
#
# Youngs Moduli (GPa) = 41.97785 41.97785 54.33733
#
# Poissons Ratio (x) = 0.55804 0.29058
# Poissons Ratio (y) = 0.55804 0.29058
# Poissons Ratio (z) = 0.22449 0.22449
#
# Static dielectric constant tensor:
#      x y z
#    x 1.478790 0.000000 0.000000 
#    y 0.000000 1.478790 0.000000 
#    z 0.000000 0.000000 1.466150 
# 
# From -- ./inp_files/3504.got.cif
#   From: 2010.05.17/outbox.cif.g08.bks.cpg/sg186_2_cif.got.tgz:3504.got - 2010.05.20 12:07:08.
