data_PCOD9585345
_publ_section_title
;
Structure prediction by ZEFSAII (Michael W. Deem and Ramdas Pophale) SiO2 
 PCOD9585345
Probable space group: P 63 M C
;
_chemical_formula_sum "Si O2"
_cell_formula_units_Z 96
_cell_length_a 17.702591
_cell_length_b 17.702591
_cell_length_c 19.492752
_cell_angle_alpha 90.000000
_cell_angle_beta 90.000000
_cell_angle_gamma 120.000000
_cell_volume 5290.265402
_symmetry_space_group_name_H-M "P 63 M C"
_symmetry_group_IT_number 186
_symmetry_cell_setting 'hexagonal'
loop_
_space_group_symop_operation_xyz
x,y,z
x-y,x,1/2+z
-y,x-y,z
-x,-y,1/2+z
-x+y,-x,z
y,-x+y,1/2+z
-x+y,y,z
x,x-y,z
-y,-x,z
y,x,1/2+z
x-y,-y,1/2+z
-x,-x+y,1/2+z
loop_
_atom_site_type_symbol
_atom_site_label
_atom_site_fract_x
_atom_site_fract_y
_atom_site_fract_z
Si Si1 0.487151 0.154070 0.472160
Si Si2 0.314113 0.009473 0.416474
Si Si3 0.180265 0.999769 0.302683
Si Si4 0.795076 0.756432 0.147455
Si Si5 0.621610 0.724007 0.109651
Si Si6 0.999758 0.166357 0.005655
Si Si7 0.165921 0.666818 0.239165
Si Si8 0.332704 0.845237 0.400474
O O1 0.575235 0.150469 0.464303
O O2 0.504177 0.252089 0.466027
O O3 0.444904 0.119893 0.547865
O O4 0.411673 0.091222 0.418985
O O5 0.256415 0.001213 0.349563
O O6 0.259742 0.023668 0.476402
O O7 0.320578 0.923098 0.430099
O O8 0.088382 0.911619 0.314693
O O9 0.174336 0.087168 0.316491
O O10 0.205521 0.004065 0.222466
O O11 0.857112 0.714223 0.148456
O O12 0.697120 0.700596 0.120642
O O13 0.834133 0.829010 0.087784
O O14 0.655308 0.827654 0.097946
O O15 0.575151 0.702646 0.183164
O O16 0.904622 0.095379 0.979809
O O17 0.071437 0.142873 0.982696
O O18 0.139897 0.569949 0.220420
O O19 0.269989 0.730012 0.236352
O O20 0.141860 0.668658 0.317992
O O21 0.424579 0.849157 0.416596
O O22 0.249594 0.750406 0.416855
#
# Coordination Sequence:
#
# PCOD9585345 Si02
#       8
#    12  12  12  12  12  12  12  12
#     4  11  23  39  59  82 110 144 183 229 282 342
#     4  12  23  37  55  79 112 147 186 234 282 335
#     4  11  22  36  55  81 115 155 197 238 281 331
#     4  10  21  35  54  79 111 150 189 228 273 329
#     4  10  18  32  53  77 108 141 177 222 272 326
#     4  11  21  35  54  78 108 144 186 231 278 330
#     4   9  17  29  50  79 111 143 175 218 273 336
#     4  10  20  35  54  79 109 144 185 228 279 337
#
# _framework density 18.146539000000001
#
# number of rings (size 3 to 8) (size 9 to 14) (size 15 to 20)
#    0.000    1.500    1.250    5.500    0.000    2.000 
#    0.000    3.750    0.000    0.250    0.000    0.000 
#    0.000    0.000    0.000    0.750    0.000    0.000 
#
# Total GULP energy -535275.070734 kJ/mol
# GULP energy per Si atom -5575.781987 kJ/mol
# Density = 1.810524 g / cm^3
# Si number density = 18.146539 Si / 1000 Ang^3
#
#
#
# Elastic Constant Matrix: (Units=GPa)
#
#
# Indices 1 2 3 4 5 6 
#
# 1 111.8077 49.0778 17.5673 0.0000 0.0000 0.0000
# 2 49.0778 111.8077 17.5673 0.0000 0.0000 0.0000
# 3 17.5673 17.5673 65.0610 0.0000 0.0000 0.0000
# 4 0.0000 0.0000 0.0000 20.9578 0.0000 0.0000
# 5 0.0000 0.0000 0.0000 0.0000 20.9578 0.0000
# 6 0.0000 0.0000 0.0000 0.0000 0.0000 31.3650
#
#
#
# Elastic Compliance Matrix: (Units=1/GPa)
#
#
# Indices 1 2 3 4 5 6 
#
# 1 0.011273 -0.004668 -0.001783 0.000000 0.000000 0.000000
# 2 -0.004668 0.011273 -0.001783 0.000000 0.000000 0.000000
# 3 -0.001783 -0.001783 0.016333 0.000000 0.000000 0.000000
# 4 0.000000 0.000000 0.000000 0.047715 0.000000 0.000000
# 5 0.000000 0.000000 0.000000 0.000000 0.047715 0.000000
# 6 0.000000 0.000000 0.000000 0.000000 0.000000 0.031883
#
#
# Mechanical properties :
#
#
# Convention : Reuss Voigt Hill
#
# Bulk Modulus (GPa) = 44.62365 50.78902 47.70634
# Shear Modulus (GPa) = 26.29751 28.28707 27.29229
#
# Velocity S-wave (km/s) = 3.81093 3.95246 3.88234
# Velocity P-wave (km/s) = 6.63388 6.99130 6.81494
#
# Compressibility (1/GPa) = 0.02240964
#
# Stress axis : x y z
#
# Youngs Moduli (GPa) = 88.70585 88.70585 61.22460
#
# Poissons Ratio (x) = 0.41409 0.10919
# Poissons Ratio (y) = 0.41409 0.10919
# Poissons Ratio (z) = 0.15820 0.15820
#
# Static dielectric constant tensor:
#      x y z
#    x 1.633910 0.000000 0.000000 
#    y 0.000000 1.633910 0.000000 
#    z 0.000000 0.000000 1.659980 
# 
# From -- ./inp_files/3550.got.cif
#   From: 2010.05.17/outbox.cif.g08.bks.cpg/sg186_2_cif.got.tgz:3550.got - 2010.05.20 12:07:08.
