data_PCOD9585476
_publ_section_title
;
Structure prediction by ZEFSAII (Michael W. Deem and Ramdas Pophale) SiO2 
 PCOD9585476
Probable space group: P -6 M 2
;
_chemical_formula_sum "Si O2"
_cell_formula_units_Z 60
_cell_length_a 18.359636
_cell_length_b 18.359636
_cell_length_c 12.873167
_cell_angle_alpha 90.000000
_cell_angle_beta 90.000000
_cell_angle_gamma 120.000000
_cell_volume 3757.890906
_symmetry_space_group_name_H-M "P -6 M 2"
_symmetry_group_IT_number 187
_symmetry_cell_setting 'hexagonal'
loop_
_space_group_symop_operation_xyz
x,y,z
-x+y,-x,-z
-y,x-y,z
x,y,-z
-x+y,-x,z
-y,x-y,-z
-y,-x,-z
-x+y,y,-z
x,x-y,-z
-x+y,y,z
x,x-y,z
-y,-x,z
loop_
_atom_site_type_symbol
_atom_site_label
_atom_site_fract_x
_atom_site_fract_y
_atom_site_fract_z
Si Si1 0.266844 0.902526 0.000000
Si Si2 0.161641 0.666638 0.185942
Si Si3 0.830007 0.495814 0.158245
Si Si4 0.355292 0.261661 0.000000
Si Si5 0.701636 0.565743 0.382903
Si Si6 0.562145 0.954248 0.617230
O O1 0.309897 0.885765 0.099204
O O2 0.285072 0.997060 0.000000
O O3 0.169338 0.830663 0.000000
O O4 0.159305 0.579653 0.161291
O O5 0.256891 0.743110 0.190128
O O6 0.114598 0.654614 0.295212
O O7 0.734441 0.468882 0.130207
O O8 0.852953 0.426477 0.125777
O O9 0.886399 0.583613 0.099745
O O10 0.837514 0.506459 0.282574
O O11 0.326530 0.163265 0.000000
O O12 0.677987 0.528009 0.500000
O O13 0.803063 0.606126 0.377346
O O14 0.654854 0.619612 0.372442
O O15 0.552884 0.920960 0.500000
O O16 0.491777 0.983553 0.628254
#
# Coordination Sequence:
#
# PCOD9585476 Si02
#       6
#     6  12  12   6  12  12
#     4  10  21  35  51  72  95 117 144 184 231 273
#     4  10  20  33  49  69  94 124 157 192 231 275
#     4  10  19  29  42  62  90 123 157 190 221 255
#     4  10  21  35  51  70  91 119 152 184 223 271
#     4   9  17  28  42  61  85 115 153 195 235 273
#     4   9  17  29  45  64  87 118 155 193 233 276
#
# _framework density 15.966403
#
# number of rings (size 3 to 8) (size 9 to 14) (size 15 to 20)
#    0.000    2.400    0.000    2.800    0.000    4.800 
#    0.000    2.000    0.000    3.000    0.000    2.800 
#    0.000    0.000    0.000    0.600    0.000    8.400 
#
# Total GULP energy -334137.122143 kJ/mol
# GULP energy per Si atom -5568.952036 kJ/mol
# Density = 1.593006 g / cm^3
# Si number density = 15.966403 Si / 1000 Ang^3
#
#
#
# Elastic Constant Matrix: (Units=GPa)
#
#
# Indices 1 2 3 4 5 6 
#
# 1 77.5317 51.9716 31.7785 0.0000 -0.0004 0.0000
# 2 51.9716 77.5317 31.7785 0.0000 0.0004 0.0000
# 3 31.7785 31.7785 89.1146 0.0000 0.0000 0.0000
# 4 0.0000 0.0000 0.0000 7.6368 0.0000 0.0004
# 5 -0.0004 0.0004 0.0000 0.0000 7.6368 0.0000
# 6 0.0000 0.0000 0.0000 0.0004 0.0000 12.7800
#
#
#
# Elastic Compliance Matrix: (Units=1/GPa)
#
#
# Indices 1 2 3 4 5 6 
#
# 1 0.024242 -0.014882 -0.003338 0.000000 0.000002 0.000000
# 2 -0.014882 0.024242 -0.003338 0.000000 -0.000002 0.000000
# 3 -0.003338 -0.003338 0.013602 0.000000 0.000000 0.000000
# 4 0.000000 0.000000 0.000000 0.130945 0.000000 -0.000004
# 5 0.000002 -0.000002 0.000000 0.000000 0.130945 0.000000
# 6 0.000000 0.000000 0.000000 -0.000004 0.000000 0.078247
#
#
# Mechanical properties :
#
#
# Convention : Reuss Voigt Hill
#
# Bulk Modulus (GPa) = 52.71267 52.80388 52.75827
# Shear Modulus (GPa) = 11.07028 14.18736 12.62882
#
# Velocity S-wave (km/s) = 2.63601 2.98413 2.81546
# Velocity P-wave (km/s) = 6.50777 6.70948 6.60939
#
# Compressibility (1/GPa) = 0.01897077
#
# Stress axis : x y z
#
# Youngs Moduli (GPa) = 41.25123 41.25123 73.51848
#
# Poissons Ratio (x) = 0.61389 0.24539
# Poissons Ratio (y) = 0.61389 0.24539
# Poissons Ratio (z) = 0.13769 0.13769
#
# Static dielectric constant tensor:
#      x y z
#    x 1.523640 0.000000 0.000000 
#    y 0.000000 1.523640 0.000000 
#    z 0.000000 0.000000 1.569600 
# 
# From -- ./inp_files/1658.got.cif
#   From: 2010.05.17/outbox.cif.g08.bks.cpg/sg187_1_cif.got.tgz:1658.got - 2010.05.20 12:09:04.
