data_PCOD9585106
_publ_section_title
;
Structure prediction by ZEFSAII (Michael W. Deem and Ramdas Pophale) SiO2 
 PCOD9585106
Probable space group: P 6 C C
;
_chemical_formula_sum "Si O2"
_cell_formula_units_Z 60
_cell_length_a 29.118187
_cell_length_b 29.118187
_cell_length_c 5.194319
_cell_angle_alpha 90.000000
_cell_angle_beta 90.000000
_cell_angle_gamma 120.000000
_cell_volume 3814.063426
_symmetry_space_group_name_H-M "P 6 C C"
_symmetry_group_IT_number 184
_symmetry_cell_setting 'hexagonal'
loop_
_space_group_symop_operation_xyz
x,y,z
x-y,x,z
-y,x-y,z
-x,-y,z
-x+y,-x,z
y,-x+y,z
-x+y,y,1/2+z
x,x-y,1/2+z
-y,-x,1/2+z
y,x,1/2+z
x-y,-y,1/2+z
-x,-x+y,1/2+z
loop_
_atom_site_type_symbol
_atom_site_label
_atom_site_fract_x
_atom_site_fract_y
_atom_site_fract_z
Si Si1 0.725898 0.508854 0.283250
Si Si2 0.453961 0.603140 0.644718
Si Si3 0.211587 0.363843 0.273704
Si Si4 0.446617 0.033844 0.223851
Si Si5 0.034353 0.697579 0.200894
O O1 0.738826 0.496325 0.565716
O O2 0.664455 0.478758 0.215259
O O3 0.749522 0.572270 0.269949
O O4 0.431470 0.590174 0.356795
O O5 0.500109 0.588373 0.674862
O O6 0.179410 0.350410 0.538879
O O7 0.248873 0.338455 0.241315
O O8 0.396937 0.044396 0.211501
O O9 0.444548 0.008466 0.500237
O O10 0.993062 0.687180 0.429022
#
# Coordination Sequence:
#
# PCOD9585106 Si02
#       5
#    12  12  12  12  12
#     4  10  21  38  57  73  94 117 149 196 248 287
#     4  12  24  37  56  78  99 123 161 193 233 298
#     4  10  19  32  53  76  96 125 170 209 238 280
#     4  10  21  35  50  71 105 137 160 186 228 291
#     4  10  19  32  50  72 105 137 161 197 252 298
#
# _framework density 15.731253000000001
#
# number of rings (size 3 to 8) (size 9 to 14) (size 15 to 20)
#    0.000    1.600    2.000    3.600    0.000    2.400 
#    0.000    0.000    0.000    8.000    0.000    0.000 
#    0.000    0.000    0.000    0.000    0.000    0.000 
#
# Total GULP energy -335328.638383 kJ/mol
# GULP energy per Si atom -5588.810640 kJ/mol
# Density = 1.569545 g / cm^3
# Si number density = 15.731253 Si / 1000 Ang^3
#
#
#
# Elastic Constant Matrix: (Units=GPa)
#
#
# Indices 1 2 3 4 5 6 
#
# 1 38.5079 5.9329 -12.6960 0.0000 0.0000 0.0000
# 2 5.9329 38.5079 -12.6960 0.0000 0.0000 0.0000
# 3 -12.6960 -12.6960 48.0185 0.0000 0.0000 0.0000
# 4 0.0000 0.0000 0.0000 14.6195 0.0000 0.0000
# 5 0.0000 0.0000 0.0000 0.0000 14.6195 0.0000
# 6 0.0000 0.0000 0.0000 0.0000 0.0000 16.2875
#
#
#
# Elastic Compliance Matrix: (Units=1/GPa)
#
#
# Indices 1 2 3 4 5 6 
#
# 1 0.028602 -0.002096 0.007008 0.000000 0.000000 0.000000
# 2 -0.002096 0.028602 0.007008 0.000000 0.000000 0.000000
# 3 0.007008 0.007008 0.024531 0.000000 0.000000 0.000000
# 4 0.000000 0.000000 0.000000 0.068402 0.000000 0.000000
# 5 0.000000 0.000000 0.000000 0.000000 0.068402 0.000000
# 6 0.000000 0.000000 0.000000 0.000000 0.000000 0.061397
#
#
# Mechanical properties :
#
#
# Convention : Reuss Voigt Hill
#
# Bulk Modulus (GPa) = 9.47183 9.56844 9.52014
# Shear Modulus (GPa) = 17.16516 18.73819 17.95168
#
# Velocity S-wave (km/s) = 3.30684 3.45504 3.38175
# Velocity P-wave (km/s) = 4.54030 4.69170 4.61662
#
# Compressibility (1/GPa) = 0.10557618
#
# Stress axis : x y z
#
# Youngs Moduli (GPa) = 34.96228 34.96228 40.76435
#
# Poissons Ratio (x) = 0.07329 -0.28568
# Poissons Ratio (y) = 0.07329 -0.28568
# Poissons Ratio (z) = -0.24502 -0.24502
#
# Static dielectric constant tensor:
#      x y z
#    x 1.501100 0.000000 0.000000 
#    y 0.000000 1.501100 0.000000 
#    z 0.000000 0.000000 1.528140 
# 
# From -- ./inp_files/31.got.cif
#   From: 2010.05.17/outbox.cif.g08.bks.cpg/sg184_cif.got.tgz:31.got - 2010.05.20 12:04:40.
