data_PCOD9585465
_publ_section_title
;
Structure prediction by ZEFSAII (Michael W. Deem and Ramdas Pophale) SiO2 
 PCOD9585465
Probable space group: P -6 M 2
;
_chemical_formula_sum "Si O2"
_cell_formula_units_Z 60
_cell_length_a 21.032909
_cell_length_b 21.032909
_cell_length_c 7.419117
_cell_angle_alpha 90.000000
_cell_angle_beta 90.000000
_cell_angle_gamma 120.000000
_cell_volume 2842.376065
_symmetry_space_group_name_H-M "P -6 M 2"
_symmetry_group_IT_number 187
_symmetry_cell_setting 'hexagonal'
loop_
_space_group_symop_operation_xyz
x,y,z
-x+y,-x,-z
-y,x-y,z
x,y,-z
-x+y,-x,z
-y,x-y,-z
-y,-x,-z
-x+y,y,-z
x,x-y,-z
-x+y,y,z
x,x-y,z
-y,-x,z
loop_
_atom_site_type_symbol
_atom_site_label
_atom_site_fract_x
_atom_site_fract_y
_atom_site_fract_z
Si Si1 0.777954 0.816930 0.288022
Si Si2 0.625751 0.671512 0.217635
Si Si3 0.899475 0.523521 0.779438
Si Si4 0.785648 0.214353 0.785569
Si Si5 0.253142 0.126571 0.282223
Si Si6 0.188157 0.521560 0.220283
O O1 0.794893 0.830316 0.500000
O O2 0.782350 0.891175 0.213908
O O3 0.696825 0.746972 0.271777
O O4 0.831103 0.788306 0.214308
O O5 0.624461 0.597611 0.277290
O O6 0.552771 0.670338 0.279369
O O7 0.625680 0.670146 0.000000
O O8 0.897395 0.448698 0.722546
O O9 0.832303 0.534539 0.718250
O O10 0.899507 0.522835 0.000000
O O11 0.829855 0.170146 0.759194
O O12 0.780230 0.219771 0.000000
O O13 0.249945 0.124973 0.500000
O O14 0.262603 0.525206 0.278176
O O15 0.184697 0.592349 0.278643
O O16 0.187856 0.521366 0.000000
#
# Coordination Sequence:
#
# PCOD9585465 Si02
#       6
#    12  12  12   6   6  12
#     4  10  21  36  53  75 102 131 163 204 255 305
#     4  10  18  30  51  75  99 126 164 208 249 294
#     4   9  17  29  47  74 105 134 166 208 255 300
#     4  10  18  32  54  78 104 138 176 212 256 308
#     4  10  20  36  56  76 102 134 170 212 258 310
#     4   9  16  25  39  63  95 129 162 198 240 284
#
# _framework density 21.109100000000002
#
# number of rings (size 3 to 8) (size 9 to 14) (size 15 to 20)
#    0.000    2.400    2.000    1.400    0.000    4.400 
#    1.200    0.000    0.000    4.200    0.000    0.000 
#    0.000    1.600    0.000    0.000    0.000    0.000 
#
# Total GULP energy -335108.870588 kJ/mol
# GULP energy per Si atom -5585.147843 kJ/mol
# Density = 2.106105 g / cm^3
# Si number density = 21.109100 Si / 1000 Ang^3
#
#
#
# Elastic Constant Matrix: (Units=GPa)
#
#
# Indices 1 2 3 4 5 6 
#
# 1 157.3238 103.7622 -8.5549 0.0000 0.0009 0.0000
# 2 103.7622 157.3238 -8.5549 0.0000 -0.0009 0.0000
# 3 -8.5549 -8.5549 65.5927 0.0000 0.0000 0.0000
# 4 0.0000 0.0000 0.0000 9.9558 0.0000 -0.0009
# 5 0.0009 -0.0009 0.0000 0.0000 9.9558 0.0000
# 6 0.0000 0.0000 0.0000 -0.0009 0.0000 26.7808
#
#
#
# Elastic Compliance Matrix: (Units=1/GPa)
#
#
# Indices 1 2 3 4 5 6 
#
# 1 0.011267 -0.007403 0.000504 0.000000 -0.000002 0.000000
# 2 -0.007403 0.011267 0.000504 0.000000 0.000002 0.000000
# 3 0.000504 0.000504 0.015377 0.000000 0.000000 0.000000
# 4 0.000000 0.000000 0.000000 0.100444 0.000000 0.000003
# 5 -0.000002 0.000002 0.000000 0.000000 0.100444 0.000000
# 6 0.000000 0.000000 0.000000 0.000003 0.000000 0.037340
#
#
# Mechanical properties :
#
#
# Convention : Reuss Voigt Hill
#
# Bulk Modulus (GPa) = 39.81081 61.50500 50.65790
# Shear Modulus (GPa) = 16.81790 28.91102 22.86446
#
# Velocity S-wave (km/s) = 2.82567 3.70483 3.29470
# Velocity P-wave (km/s) = 5.43566 6.89209 6.20674
#
# Compressibility (1/GPa) = 0.02511880
#
# Stress axis : x y z
#
# Youngs Moduli (GPa) = 88.75766 88.75766 65.03205
#
# Poissons Ratio (x) = 0.65711 -0.03277
# Poissons Ratio (y) = 0.65711 -0.03277
# Poissons Ratio (z) = -0.04472 -0.04472
#
# Static dielectric constant tensor:
#      x y z
#    x 1.722990 0.000000 0.000000 
#    y 0.000000 1.722990 0.000000 
#    z 0.000000 0.000000 1.859440 
# 
# From -- ./inp_files/691.got.cif
#   From: 2010.05.17/outbox.cif.g08.bks.cpg/sg187_1_cif.got.tgz:691.got - 2010.05.20 12:09:04.
