data_PCOD9585940
_publ_section_title
;
Structure prediction by ZEFSAII (Michael W. Deem and Ramdas Pophale) SiO2 
 PCOD9585940
Probable space group: P -6 C 2
;
_chemical_formula_sum "Si O2"
_cell_formula_units_Z 72
_cell_length_a 24.001034
_cell_length_b 24.001034
_cell_length_c 8.839681
_cell_angle_alpha 90.000000
_cell_angle_beta 90.000000
_cell_angle_gamma 120.000000
_cell_volume 4409.883625
_symmetry_space_group_name_H-M "P -6 C 2"
_symmetry_group_IT_number 188
_symmetry_cell_setting 'hexagonal'
loop_
_space_group_symop_operation_xyz
x,y,z
-x+y,-x,1/2-z
-y,x-y,z
x,y,1/2-z
-x+y,-x,z
-y,x-y,1/2-z
-y,-x,-z
-x+y,y,-z
x,x-y,-z
-x+y,y,1/2+z
x,x-y,1/2+z
-y,-x,1/2+z
loop_
_atom_site_type_symbol
_atom_site_label
_atom_site_fract_x
_atom_site_fract_y
_atom_site_fract_z
Si Si1 0.369077 0.520314 0.081224
Si Si2 0.134493 0.746743 0.066985
Si Si3 0.544106 0.209835 0.931665
Si Si4 0.330207 0.004095 0.428086
Si Si5 0.741025 0.136927 0.430647
Si Si6 0.556578 0.552979 0.578414
O O1 0.353885 0.532203 0.250000
O O2 0.304111 0.461212 0.013366
O O3 0.415230 0.488981 0.092886
O O4 0.411875 0.588126 0.000000
O O5 0.134005 0.745940 0.250000
O O6 0.184529 0.815472 0.000000
O O7 0.062263 0.720756 0.007955
O O8 0.550814 0.215631 0.750000
O O9 0.470022 0.155717 0.966389
O O10 0.598395 0.196790 0.000000
O O11 0.553261 0.276631 0.000000
O O12 0.318783 0.000622 0.250000
O O13 0.398733 0.010438 0.467858
O O14 0.341384 0.069979 0.500265
O O15 0.745049 0.135429 0.250000
O O16 0.805258 0.194743 0.500000
O O17 0.578830 0.550879 0.750000
O O18 0.515429 0.484572 0.500000
#
# Coordination Sequence:
#
# PCOD9585940 Si02
#       6
#    12  12  12  12  12  12
#     4   8  15  26  42  63  88 117 150 186 225 270
#     4  10  20  34  51  74 101 128 160 200 244 294
#     4  10  20  33  50  69  93 124 162 207 255 302
#     4  11  21  33  50  71  96 128 160 195 242 294
#     4  10  21  37  53  70  93 124 163 207 249 295
#     4   9  16  27  42  63  90 119 152 191 231 275
#
# _framework density 16.326962000000002
#
# number of rings (size 3 to 8) (size 9 to 14) (size 15 to 20)
#    0.000    2.333    0.000    4.667    0.000    7.333 
#    0.000    1.667    0.000    0.333    0.000    0.000 
#    0.000    0.000    0.000    0.500    0.000    7.000 
#
# Total GULP energy -401334.868788 kJ/mol
# GULP energy per Si atom -5574.095400 kJ/mol
# Density = 1.628980 g / cm^3
# Si number density = 16.326962 Si / 1000 Ang^3
#
#
#
# Elastic Constant Matrix: (Units=GPa)
#
#
# Indices 1 2 3 4 5 6 
#
# 1 77.1433 55.1381 38.7276 -0.0004 0.0000 0.0000
# 2 55.1381 77.1433 38.7276 0.0004 0.0000 0.0000
# 3 38.7276 38.7276 85.4579 0.0000 0.0000 0.0000
# 4 -0.0004 0.0004 0.0000 16.7514 0.0000 0.0000
# 5 0.0000 0.0000 0.0000 0.0000 16.7514 -0.0004
# 6 0.0000 0.0000 0.0000 0.0000 -0.0004 11.0026
#
#
#
# Elastic Compliance Matrix: (Units=1/GPa)
#
#
# Indices 1 2 3 4 5 6 
#
# 1 0.027867 -0.017577 -0.004663 0.000001 0.000000 0.000000
# 2 -0.017577 0.027867 -0.004663 -0.000001 0.000000 0.000000
# 3 -0.004663 -0.004663 0.015928 0.000000 0.000000 0.000000
# 4 0.000001 -0.000001 0.000000 0.059696 0.000000 0.000000
# 5 0.000000 0.000000 0.000000 0.000000 0.059696 0.000002
# 6 0.000000 0.000000 0.000000 0.000000 0.000002 0.090888
#
#
# Mechanical properties :
#
#
# Convention : Reuss Voigt Hill
#
# Bulk Modulus (GPa) = 56.00526 56.10348 56.05437
# Shear Modulus (GPa) = 14.63267 16.04449 15.33858
#
# Velocity S-wave (km/s) = 2.99695 3.13820 3.06839
# Velocity P-wave (km/s) = 6.80826 6.89697 6.85276
#
# Compressibility (1/GPa) = 0.01785547
#
# Stress axis : x y z
#
# Youngs Moduli (GPa) = 35.88480 35.88480 62.78158
#
# Poissons Ratio (x) = 0.63074 0.29277
# Poissons Ratio (y) = 0.63074 0.29277
# Poissons Ratio (z) = 0.16734 0.16734
#
# Static dielectric constant tensor:
#      x y z
#    x 1.583640 0.000000 0.000000 
#    y 0.000000 1.583640 0.000000 
#    z 0.000000 0.000000 1.559210 
# 
# From -- ./inp_files/1048.got.cif
#   From: 2010.05.17/outbox.cif.g08.bks.cpg/sg188_1_cif.got.tgz:1048.got - 2010.05.20 12:11:46.
