data_PCOD9585724
_publ_section_title
;
Structure prediction by ZEFSAII (Michael W. Deem and Ramdas Pophale) SiO2 
 PCOD9585724
Probable space group: P -6 M 2
;
_chemical_formula_sum "Si O2"
_cell_formula_units_Z 60
_cell_length_a 12.632023
_cell_length_b 12.632023
_cell_length_c 26.197692
_cell_angle_alpha 90.000000
_cell_angle_beta 90.000000
_cell_angle_gamma 120.000000
_cell_volume 3620.257643
_symmetry_space_group_name_H-M "P -6 M 2"
_symmetry_group_IT_number 187
_symmetry_cell_setting 'hexagonal'
loop_
_space_group_symop_operation_xyz
x,y,z
-x+y,-x,-z
-y,x-y,z
x,y,-z
-x+y,-x,z
-y,x-y,-z
-y,-x,-z
-x+y,y,-z
x,x-y,-z
-x+y,y,z
x,x-y,z
-y,-x,z
loop_
_atom_site_type_symbol
_atom_site_label
_atom_site_fract_x
_atom_site_fract_y
_atom_site_fract_z
Si Si1 0.000262 0.252065 0.400147
Si Si2 0.584911 0.918579 0.900030
Si Si3 0.918469 0.333788 0.000000
Si Si4 0.918373 0.584616 0.199609
Si Si5 0.667059 0.082201 0.500000
Si Si6 0.333202 0.918476 0.299680
O O1 0.119129 0.238258 0.407101
O O2 0.022441 0.334305 0.350171
O O3 0.979720 0.314408 0.449741
O O4 0.879731 0.120270 0.393901
O O5 0.444431 0.888861 0.899863
O O6 0.590386 0.795193 0.900859
O O7 0.647164 0.000691 0.949845
O O8 0.647032 0.997679 0.849522
O O9 0.795524 0.204477 0.000000
O O10 0.887869 0.443935 0.000000
O O11 0.795594 0.591188 0.198656
O O12 0.888142 0.444071 0.198251
O O13 0.995850 0.643680 0.250796
O O14 0.777383 0.222618 0.500000
O O15 0.537633 0.075266 0.500000
O O16 0.452158 0.904315 0.305628
O O17 0.212881 0.787120 0.291860
#
# Coordination Sequence:
#
# PCOD9585724 Si02
#       6
#    12  12   6  12   6  12
#     4  10  20  34  53  76 103 135 170 208 250 299
#     4  10  20  34  54  78 104 134 168 209 254 301
#     4  10  20  34  54  78 104 134 168 208 252 298
#     4  10  20  34  53  76 102 132 167 209 255 302
#     4  10  20  34  52  74 100 130 166 208 254 300
#     4  10  20  34  53  76 103 135 170 210 254 301
#
# _framework density 16.573407
#
# number of rings (size 3 to 8) (size 9 to 14) (size 15 to 20)
#    0.000    2.000    0.000    4.000    0.000    0.000 
#    0.000    6.000    0.000   20.000    0.000    0.000 
#    0.000    0.000    0.000    0.000    0.000    0.000 
#
# Total GULP energy -335035.927999 kJ/mol
# GULP energy per Si atom -5583.932133 kJ/mol
# Density = 1.653568 g / cm^3
# Si number density = 16.573407 Si / 1000 Ang^3
#
#
#
# Elastic Constant Matrix: (Units=GPa)
#
#
# Indices 1 2 3 4 5 6 
#
# 1 148.4751 110.4978 103.5644 0.0000 0.0003 0.0000
# 2 110.4978 148.4751 103.5644 0.0000 -0.0003 0.0000
# 3 103.5644 103.5644 170.6526 0.0000 0.0000 0.0000
# 4 0.0000 0.0000 0.0000 20.2484 0.0000 -0.0003
# 5 0.0003 -0.0003 0.0000 0.0000 20.2484 0.0000
# 6 0.0000 0.0000 0.0000 -0.0003 0.0000 18.9886
#
#
#
# Elastic Compliance Matrix: (Units=1/GPa)
#
#
# Indices 1 2 3 4 5 6 
#
# 1 0.016917 -0.009414 -0.004554 0.000000 0.000000 0.000000
# 2 -0.009414 0.016917 -0.004554 0.000000 0.000000 0.000000
# 3 -0.004554 -0.004554 0.011387 0.000000 0.000000 0.000000
# 4 0.000000 0.000000 0.000000 0.049387 0.000000 0.000001
# 5 0.000000 0.000000 0.000000 0.000000 0.049387 0.000000
# 6 0.000000 0.000000 0.000000 0.000001 0.000000 0.052663
#
#
# Mechanical properties :
#
#
# Convention : Reuss Voigt Hill
#
# Bulk Modulus (GPa) = 122.26194 122.53954 122.40074
# Shear Modulus (GPa) = 21.14817 21.89551 21.52184
#
# Velocity S-wave (km/s) = 3.57603 3.63867 3.60749
# Velocity P-wave (km/s) = 9.53838 9.57868 9.55856
#
# Compressibility (1/GPa) = 0.00817916
#
# Stress axis : x y z
#
# Youngs Moduli (GPa) = 59.11039 59.11039 87.82090
#
# Poissons Ratio (x) = 0.55647 0.39990
# Poissons Ratio (y) = 0.55647 0.39990
# Poissons Ratio (z) = 0.26917 0.26917
#
# Static dielectric constant tensor:
#      x y z
#    x 1.523020 0.000000 0.000000 
#    y 0.000000 1.523020 0.000000 
#    z 0.000000 0.000000 1.542710 
# 
# From -- ./inp_files/4225.got.cif
#   From: 2010.05.17/outbox.cif.g08.bks.cpg/sg187_3_cif.got.tgz:4225.got - 2010.05.20 12:09:04.
