data_PCOD9585883
_publ_section_title
;
Structure prediction by ZEFSAII (Michael W. Deem and Ramdas Pophale) SiO2 
 PCOD9585883
Probable space group: P -6 C 2
;
_chemical_formula_sum "Si O2"
_cell_formula_units_Z 52
_cell_length_a 12.811846
_cell_length_b 12.811846
_cell_length_c 22.456410
_cell_angle_alpha 90.000000
_cell_angle_beta 90.000000
_cell_angle_gamma 120.000000
_cell_volume 3192.231510
_symmetry_space_group_name_H-M "P -6 C 2"
_symmetry_group_IT_number 188
_symmetry_cell_setting 'hexagonal'
loop_
_space_group_symop_operation_xyz
x,y,z
-x+y,-x,1/2-z
-y,x-y,z
x,y,1/2-z
-x+y,-x,z
-y,x-y,1/2-z
-y,-x,-z
-x+y,y,-z
x,x-y,-z
-x+y,y,1/2+z
x,x-y,1/2+z
-y,-x,1/2+z
loop_
_atom_site_type_symbol
_atom_site_label
_atom_site_fract_x
_atom_site_fract_y
_atom_site_fract_z
Si Si1 0.333451 0.914281 0.930028
Si Si2 0.000000 0.000000 0.930860
Si Si3 0.207002 0.200494 0.854102
Si Si4 0.005797 0.258027 0.685222
Si Si5 0.583654 0.666088 0.434959
O O1 0.317204 0.982651 0.873862
O O2 0.217714 0.779747 0.928738
O O3 0.458065 0.913793 0.925840
O O4 0.331427 0.960093 0.997154
O O5 0.118868 0.114457 0.906015
O O6 0.000000 0.000000 0.000000
O O7 0.119200 0.234636 0.818368
O O8 0.312850 0.317384 0.885666
O O9 0.245458 0.116197 0.819645
O O10 0.009848 0.313481 0.750000
#
# Coordination Sequence:
#
# PCOD9585883 Si02
#       5
#    12   4  12  12  12
#     4   9  18  30  49  70  96 126 154 198 232 279
#     4   9  18  24  43  74 106 120 150 196 236 289
#     4   9  19  29  48  70  96 129 153 195 239 286
#     4  10  19  32  46  69  98 128 158 189 236 292
#     4   9  17  31  49  72  96 122 162 193 242 279
#
# _framework density 16.289545
#
# number of rings (size 3 to 8) (size 9 to 14) (size 15 to 20)
#    0.000    2.769    0.000    1.615    9.692    1.846 
#    0.000    5.769    0.000    0.923    0.000    0.000 
#    0.000    0.000    0.000    0.000    0.000    0.000 
#
# Total GULP energy -289546.056081 kJ/mol
# GULP energy per Si atom -5568.193386 kJ/mol
# Density = 1.625247 g / cm^3
# Si number density = 16.289545 Si / 1000 Ang^3
#
#
#
# Elastic Constant Matrix: (Units=GPa)
#
#
# Indices 1 2 3 4 5 6 
#
# 1 49.2529 8.1260 33.4088 0.0000 0.0000 0.0000
# 2 8.1260 49.2529 33.4088 0.0000 0.0000 0.0000
# 3 33.4088 33.4088 121.9460 0.0000 0.0000 0.0000
# 4 0.0000 0.0000 0.0000 4.6863 0.0000 0.0000
# 5 0.0000 0.0000 0.0000 0.0000 4.6863 0.0000
# 6 0.0000 0.0000 0.0000 0.0000 0.0000 20.5634
#
#
#
# Elastic Compliance Matrix: (Units=1/GPa)
#
#
# Indices 1 2 3 4 5 6 
#
# 1 0.024954 0.000639 -0.007012 0.000000 0.000000 0.000000
# 2 0.000639 0.024954 -0.007012 0.000000 0.000000 0.000000
# 3 -0.007012 -0.007012 0.012042 0.000000 0.000000 0.000000
# 4 0.000000 0.000000 0.000000 0.213389 0.000000 0.000000
# 5 0.000000 0.000000 0.000000 0.000000 0.213389 0.000000
# 6 0.000000 0.000000 0.000000 0.000000 0.000000 0.048630
#
#
# Mechanical properties :
#
#
# Convention : Reuss Voigt Hill
#
# Bulk Modulus (GPa) = 28.42370 41.14878 34.78624
# Shear Modulus (GPa) = 8.68276 15.68774 12.18525
#
# Velocity S-wave (km/s) = 2.31124 3.10668 2.73800
# Velocity P-wave (km/s) = 4.96078 6.17935 5.60329
#
# Compressibility (1/GPa) = 0.03518191
#
# Stress axis : x y z
#
# Youngs Moduli (GPa) = 40.07376 40.07376 83.04151
#
# Poissons Ratio (x) = -0.02561 0.58225
# Poissons Ratio (y) = -0.02561 0.58225
# Poissons Ratio (z) = 0.28098 0.28098
#
# Static dielectric constant tensor:
#      x y z
#    x 1.540170 0.000000 0.000000 
#    y 0.000000 1.540170 0.000000 
#    z 0.000000 0.000000 1.566530 
# 
# From -- ./inp_files/3618.got.cif
#   From: 2010.05.17/outbox.cif.g08.bks.cpg/sg188_2_cif.got.tgz:3618.got - 2010.05.20 12:11:46.
