data_PCOD9585943
_publ_section_title
;
Structure prediction by ZEFSAII (Michael W. Deem and Ramdas Pophale) SiO2 
 PCOD9585943
Probable space group: P -6 C 2
;
_chemical_formula_sum "Si O2"
_cell_formula_units_Z 72
_cell_length_a 24.019892
_cell_length_b 24.019892
_cell_length_c 8.724881
_cell_angle_alpha 90.000000
_cell_angle_beta 90.000000
_cell_angle_gamma 120.000000
_cell_volume 4359.455458
_symmetry_space_group_name_H-M "P -6 C 2"
_symmetry_group_IT_number 188
_symmetry_cell_setting 'hexagonal'
loop_
_space_group_symop_operation_xyz
x,y,z
-x+y,-x,1/2-z
-y,x-y,z
x,y,1/2-z
-x+y,-x,z
-y,x-y,1/2-z
-y,-x,-z
-x+y,y,-z
x,x-y,-z
-x+y,y,1/2+z
x,x-y,1/2+z
-y,-x,1/2+z
loop_
_atom_site_type_symbol
_atom_site_label
_atom_site_fract_x
_atom_site_fract_y
_atom_site_fract_z
Si Si1 0.890907 0.219512 0.923567
Si Si2 0.071037 0.263713 0.931689
Si Si3 0.589120 0.059055 0.566781
Si Si4 0.999349 0.124438 0.435002
Si Si5 0.665966 0.675804 0.070489
Si Si6 0.483104 0.297884 0.421769
O O1 0.913872 0.218215 0.750000
O O2 0.845569 0.251366 0.909543
O O3 0.849470 0.150530 0.000000
O O4 0.945271 0.266564 0.039092
O O5 0.070016 0.256002 0.750000
O O6 0.137697 0.275393 0.000000
O O7 0.017828 0.195384 0.005021
O O8 0.060273 0.322481 0.977336
O O9 0.587997 0.058581 0.750000
O O10 0.520534 0.041067 0.500000
O O11 0.614133 0.010254 0.517231
O O12 0.640709 0.131127 0.511867
O O13 0.999664 0.123661 0.250000
O O14 0.057036 0.114071 0.500000
O O15 0.932284 0.067717 0.500000
O O16 0.656877 0.682517 0.250000
O O17 0.508942 0.317036 0.250000
O O18 0.508434 0.254217 0.500000
#
# Coordination Sequence:
#
# PCOD9585943 Si02
#       6
#    12  12  12  12  12  12
#     4   9  16  26  41  63  89 118 150 187 228 272
#     4  11  22  37  54  72  94 124 161 202 245 292
#     4  10  20  33  51  74 101 129 160 197 241 289
#     4  11  21  35  52  72  97 127 165 209 256 303
#     4  10  20  34  50  70  95 125 158 195 238 286
#     4   9  16  27  44  65  91 121 155 190 228 272
#
# _framework density 16.515823999999999
#
# number of rings (size 3 to 8) (size 9 to 14) (size 15 to 20)
#    0.000    2.000    0.000    6.167    0.000    6.667 
#    0.000    3.333    0.000    0.333    0.000    2.333 
#    0.000    0.000    0.000    0.500    0.000    8.000 
#
# Total GULP energy -401595.159008 kJ/mol
# GULP energy per Si atom -5577.710542 kJ/mol
# Density = 1.647823 g / cm^3
# Si number density = 16.515824 Si / 1000 Ang^3
#
#
#
# Elastic Constant Matrix: (Units=GPa)
#
#
# Indices 1 2 3 4 5 6 
#
# 1 76.8109 53.3475 35.4706 -0.0003 0.0000 0.0000
# 2 53.3475 76.8109 35.4706 0.0003 0.0000 0.0000
# 3 35.4706 35.4706 110.8618 0.0000 0.0000 0.0000
# 4 -0.0003 0.0003 0.0000 14.9881 0.0000 0.0000
# 5 0.0000 0.0000 0.0000 0.0000 14.9881 -0.0003
# 6 0.0000 0.0000 0.0000 0.0000 -0.0003 11.7317
#
#
#
# Elastic Compliance Matrix: (Units=1/GPa)
#
#
# Indices 1 2 3 4 5 6 
#
# 1 0.025963 -0.016657 -0.002977 0.000001 0.000000 0.000000
# 2 -0.016657 0.025963 -0.002977 -0.000001 0.000000 0.000000
# 3 -0.002977 -0.002977 0.010926 0.000000 0.000000 0.000000
# 4 0.000001 -0.000001 0.000000 0.066719 0.000000 0.000000
# 5 0.000000 0.000000 0.000000 0.000000 0.066719 0.000002
# 6 0.000000 0.000000 0.000000 0.000000 0.000002 0.085239
#
#
# Mechanical properties :
#
#
# Convention : Reuss Voigt Hill
#
# Bulk Modulus (GPa) = 56.72997 57.00680 56.86838
# Shear Modulus (GPa) = 15.03183 17.68794 16.35988
#
# Velocity S-wave (km/s) = 3.02014 3.27612 3.15073
# Velocity P-wave (km/s) = 6.82533 6.99300 6.90967
#
# Compressibility (1/GPa) = 0.01762737
#
# Stress axis : x y z
#
# Youngs Moduli (GPa) = 38.51695 38.51695 91.52898
#
# Poissons Ratio (x) = 0.64157 0.27252
# Poissons Ratio (y) = 0.64157 0.27252
# Poissons Ratio (z) = 0.11468 0.11468
#
# Static dielectric constant tensor:
#      x y z
#    x 1.583660 0.000000 0.000000 
#    y 0.000000 1.583660 0.000000 
#    z 0.000000 0.000000 1.557100 
# 
# From -- ./inp_files/1031.got.cif
#   From: 2010.05.17/outbox.cif.g08.bks.cpg/sg188_1_cif.got.tgz:1031.got - 2010.05.20 12:11:46.
