data_PCOD9585520
_publ_section_title
;
Structure prediction by ZEFSAII (Michael W. Deem and Ramdas Pophale) SiO2 
 PCOD9585520
Probable space group: P -6 M 2
;
_chemical_formula_sum "Si O2"
_cell_formula_units_Z 72
_cell_length_a 24.737745
_cell_length_b 24.737745
_cell_length_c 8.797392
_cell_angle_alpha 90.000000
_cell_angle_beta 90.000000
_cell_angle_gamma 120.000000
_cell_volume 4662.349140
_symmetry_space_group_name_H-M "P -6 M 2"
_symmetry_group_IT_number 187
_symmetry_cell_setting 'hexagonal'
loop_
_space_group_symop_operation_xyz
x,y,z
-x+y,-x,-z
-y,x-y,z
x,y,-z
-x+y,-x,z
-y,x-y,-z
-y,-x,-z
-x+y,y,-z
x,x-y,-z
-x+y,y,z
x,x-y,z
-y,-x,z
loop_
_atom_site_type_symbol
_atom_site_label
_atom_site_fract_x
_atom_site_fract_y
_atom_site_fract_z
Si Si1 0.515872 0.031743 0.175303
Si Si2 0.075522 0.151044 0.174040
Si Si3 0.816659 0.408330 0.826107
Si Si4 0.151272 0.302544 0.826362
Si Si5 0.402618 0.368702 0.317299
Si Si6 0.841844 0.034770 0.318212
Si Si7 0.704121 0.734166 0.816168
Si Si8 0.821512 0.523921 0.682747
O O1 0.553766 0.107531 0.176515
O O2 0.561976 0.013265 0.258618
O O3 0.505685 0.011369 0.000000
O O4 0.113440 0.226880 0.169163
O O5 0.122786 0.134705 0.258639
O O6 0.064290 0.128580 0.000000
O O7 0.798554 0.454625 0.744149
O O8 0.795623 0.397812 0.000000
O O9 0.100741 0.318406 0.759371
O O10 0.162907 0.325813 0.000000
O O11 0.399293 0.368413 0.500000
O O12 0.334742 0.339929 0.245123
O O13 0.431472 0.324650 0.270031
O O14 0.834020 0.028547 0.500000
O O15 0.894671 0.105330 0.281978
O O16 0.774954 0.013197 0.242785
O O17 0.705271 0.735517 0.000000
O O18 0.821682 0.521769 0.500000
O O19 0.772662 0.545324 0.731710
#
# Coordination Sequence:
#
# PCOD9585520 Si02
#       8
#     6   6   6   6  12  12  12  12
#     4   9  17  31  49  67  89 119 152 186 225 272
#     4   9  17  31  49  65  83 111 149 190 237 292
#     4   9  17  29  45  63  81 103 137 184 233 276
#     4   7  14  29  47  65  87 115 146 182 219 262
#     4  10  19  31  48  71  96 122 154 192 234 282
#     4  10  20  33  48  66  90 120 154 198 248 295
#     4  10  19  32  50  71  94 123 158 193 232 282
#     4   9  18  32  47  61  82 115 151 186 229 284
#
# _framework density 15.44286
#
# number of rings (size 3 to 8) (size 9 to 14) (size 15 to 20)
#    0.000    2.667    0.000    3.250    0.000    5.000 
#    1.000    2.917    0.000    0.000    0.000    0.000 
#    0.000    0.000    0.000    0.500    0.000    8.167 
#
# Total GULP energy -401093.082389 kJ/mol
# GULP energy per Si atom -5570.737255 kJ/mol
# Density = 1.540771 g / cm^3
# Si number density = 15.442860 Si / 1000 Ang^3
#
#
#
# Elastic Constant Matrix: (Units=GPa)
#
#
# Indices 1 2 3 4 5 6 
#
# 1 91.3320 64.8279 34.9550 0.0000 0.0001 0.0000
# 2 64.8279 91.3320 34.9550 0.0000 -0.0001 0.0000
# 3 34.9550 34.9550 51.5845 0.0000 0.0000 0.0000
# 4 0.0000 0.0000 0.0000 22.3064 0.0000 -0.0001
# 5 0.0001 -0.0001 0.0000 0.0000 22.3064 0.0000
# 6 0.0000 0.0000 0.0000 -0.0001 0.0000 13.2521
#
#
#
# Elastic Compliance Matrix: (Units=1/GPa)
#
#
# Indices 1 2 3 4 5 6 
#
# 1 0.023461 -0.014269 -0.006229 0.000000 0.000000 0.000000
# 2 -0.014269 0.023461 -0.006229 0.000000 0.000000 0.000000
# 3 -0.006229 -0.006229 0.027827 0.000000 0.000000 0.000000
# 4 0.000000 0.000000 0.000000 0.044830 0.000000 0.000000
# 5 0.000000 0.000000 0.000000 0.000000 0.044830 0.000000
# 6 0.000000 0.000000 0.000000 0.000000 0.000000 0.075460
#
#
# Mechanical properties :
#
#
# Convention : Reuss Voigt Hill
#
# Bulk Modulus (GPa) = 46.95655 55.96937 51.46296
# Shear Modulus (GPa) = 16.64325 18.20701 17.42513
#
# Velocity S-wave (km/s) = 3.28644 3.43737 3.36275
# Velocity P-wave (km/s) = 6.69878 7.21634 6.96237
#
# Compressibility (1/GPa) = 0.02129628
#
# Stress axis : x y z
#
# Youngs Moduli (GPa) = 42.62373 42.62373 35.93576
#
# Poissons Ratio (x) = 0.60819 0.22384
# Poissons Ratio (y) = 0.60819 0.22384
# Poissons Ratio (z) = 0.26550 0.26550
#
# Static dielectric constant tensor:
#      x y z
#    x 1.511740 0.000000 0.000000 
#    y 0.000000 1.511740 0.000000 
#    z 0.000000 0.000000 1.523320 
# 
# From -- ./inp_files/1108.got.cif
#   From: 2010.05.17/outbox.cif.g08.bks.cpg/sg187_1_cif.got.tgz:1108.got - 2010.05.20 12:09:04.
