data_PCOD9585397
_publ_section_title
;
Structure prediction by ZEFSAII (Michael W. Deem and Ramdas Pophale) SiO2 
 PCOD9585397
Probable space group: P 63 M C
;
_chemical_formula_sum "Si O2"
_cell_formula_units_Z 84
_cell_length_a 18.362872
_cell_length_b 18.362872
_cell_length_c 14.831308
_cell_angle_alpha 90.000000
_cell_angle_beta 90.000000
_cell_angle_gamma 120.000000
_cell_volume 4331.031072
_symmetry_space_group_name_H-M "P 63 M C"
_symmetry_group_IT_number 186
_symmetry_cell_setting 'hexagonal'
loop_
_space_group_symop_operation_xyz
x,y,z
x-y,x,1/2+z
-y,x-y,z
-x,-y,1/2+z
-x+y,-x,z
y,-x+y,1/2+z
-x+y,y,z
x,x-y,z
-y,-x,z
y,x,1/2+z
x-y,-y,1/2+z
-x,-x+y,1/2+z
loop_
_atom_site_type_symbol
_atom_site_label
_atom_site_fract_x
_atom_site_fract_y
_atom_site_fract_z
Si Si1 0.508002 0.333764 0.840960
Si Si2 0.666090 0.165603 0.575867
Si Si3 0.009758 0.664334 0.324632
Si Si4 0.496613 0.830542 0.559691
Si Si5 0.497927 0.333545 0.357547
Si Si6 0.318046 0.246155 0.017276
Si Si7 0.069269 0.758700 0.147513
O O1 0.478360 0.239180 0.810971
O O2 0.601415 0.398586 0.810013
O O3 0.443527 0.363530 0.813401
O O4 0.509888 0.333884 0.950071
O O5 0.574534 0.149067 0.604063
O O6 0.739333 0.260668 0.598178
O O7 0.664828 0.158864 0.466948
O O8 0.696336 0.103453 0.614643
O O9 0.033958 0.711608 0.420977
O O10 0.026374 0.727941 0.244103
O O11 0.917354 0.585039 0.323234
O O12 0.425411 0.850822 0.591598
O O13 0.479949 0.739975 0.592840
O O14 0.594093 0.898638 0.571515
O O15 0.500324 0.250162 0.331435
O O16 0.582606 0.417395 0.329263
O O17 0.312284 0.156142 0.005648
O O18 0.246949 0.248410 0.076048
O O19 0.150076 0.849925 0.152286
#
# Coordination Sequence:
#
# PCOD9585397 Si02
#       7
#    12  12  12  12  12  12  12
#     4   9  16  27  44  70 105 146 189 237 292 350
#     4   9  18  33  54  82 117 159 204 250 297 351
#     4  11  21  36  59  85 116 153 201 251 298 350
#     4   8  14  25  45  72 105 145 189 234 282 338
#     4  10  20  36  59  88 124 166 210 250 288 339
#     4  10  21  38  58  83 114 151 193 243 304 366
#     4  11  23  39  59  86 118 152 196 251 310 368
#
# _framework density 19.394919000000002
#
# number of rings (size 3 to 8) (size 9 to 14) (size 15 to 20)
#    0.000    2.286    1.429    3.143    0.000    5.143 
#    0.000    0.000    0.000    2.000    0.000    2.000 
#    0.000    0.000    0.000    0.000    0.000    0.000 
#
# Total GULP energy -469019.176646 kJ/mol
# GULP energy per Si atom -5583.561627 kJ/mol
# Density = 1.935078 g / cm^3
# Si number density = 19.394919 Si / 1000 Ang^3
#
#
#
# Elastic Constant Matrix: (Units=GPa)
#
#
# Indices 1 2 3 4 5 6 
#
# 1 106.0761 69.7091 31.6330 0.0000 0.0000 0.0000
# 2 69.7091 106.0761 31.6330 0.0000 0.0000 0.0000
# 3 31.6330 31.6330 49.2667 0.0000 0.0000 0.0000
# 4 0.0000 0.0000 0.0000 9.3959 0.0000 0.0000
# 5 0.0000 0.0000 0.0000 0.0000 9.3959 0.0000
# 6 0.0000 0.0000 0.0000 0.0000 0.0000 18.1835
#
#
#
# Elastic Compliance Matrix: (Units=1/GPa)
#
#
# Indices 1 2 3 4 5 6 
#
# 1 0.017448 -0.010050 -0.004750 0.000000 0.000000 0.000000
# 2 -0.010050 0.017448 -0.004750 0.000000 0.000000 0.000000
# 3 -0.004750 -0.004750 0.026398 0.000000 0.000000 0.000000
# 4 0.000000 0.000000 0.000000 0.106429 0.000000 0.000000
# 5 0.000000 0.000000 0.000000 0.000000 0.106429 0.000000
# 6 0.000000 0.000000 0.000000 0.000000 0.000000 0.054995
#
#
# Mechanical properties :
#
#
# Convention : Reuss Voigt Hill
#
# Bulk Modulus (GPa) = 45.05861 58.59655 51.82758
# Shear Modulus (GPa) = 13.31041 15.95797 14.63419
#
# Velocity S-wave (km/s) = 2.62254 2.87155 2.74986
# Velocity P-wave (km/s) = 5.69675 6.42435 6.07146
#
# Compressibility (1/GPa) = 0.02219332
#
# Stress axis : x y z
#
# Youngs Moduli (GPa) = 57.31323 57.31323 37.88179
#
# Poissons Ratio (x) = 0.57597 0.17995
# Poissons Ratio (y) = 0.57597 0.17995
# Poissons Ratio (z) = 0.27226 0.27226
#
# Static dielectric constant tensor:
#      x y z
#    x 1.656060 0.000000 0.000000 
#    y 0.000000 1.656060 0.000000 
#    z 0.000000 0.000000 1.732380 
# 
# From -- ./inp_files/2560.got.cif
#   From: 2010.05.17/outbox.cif.g08.bks.cpg/sg186_2_cif.got.tgz:2560.got - 2010.05.20 12:07:08.
