data_PCOD9585174
_publ_section_title
;
Structure prediction by ZEFSAII (Michael W. Deem and Ramdas Pophale) SiO2 
 PCOD9585174
Probable space group: P 6 C C
;
_chemical_formula_sum "Si O2"
_cell_formula_units_Z 84
_cell_length_a 16.485043
_cell_length_b 16.485043
_cell_length_c 15.695904
_cell_angle_alpha 90.000000
_cell_angle_beta 90.000000
_cell_angle_gamma 120.000000
_cell_volume 3694.002067
_symmetry_space_group_name_H-M "P 6 C C"
_symmetry_group_IT_number 184
_symmetry_cell_setting 'hexagonal'
loop_
_space_group_symop_operation_xyz
x,y,z
x-y,x,z
-y,x-y,z
-x,-y,z
-x+y,-x,z
y,-x+y,z
-x+y,y,1/2+z
x,x-y,1/2+z
-y,-x,1/2+z
y,x,1/2+z
x-y,-y,1/2+z
-x,-x+y,1/2+z
loop_
_atom_site_type_symbol
_atom_site_label
_atom_site_fract_x
_atom_site_fract_y
_atom_site_fract_z
Si Si1 0.327255 0.335440 0.793890
Si Si2 0.894374 0.784171 0.569832
Si Si3 0.532827 0.109936 0.572199
Si Si4 0.894367 0.409676 0.891211
Si Si5 0.839895 0.353875 0.238063
Si Si6 0.143765 0.210585 0.367634
Si Si7 0.762624 0.158346 0.154703
O O1 0.331190 0.410656 0.863086
O O2 0.427933 0.373233 0.751205
O O3 0.302203 0.235907 0.834290
O O4 0.263307 0.336411 0.718806
O O5 0.842366 0.840390 0.596840
O O6 0.872067 0.778847 0.468145
O O7 0.854478 0.680665 0.606471
O O8 0.591085 0.144045 0.484893
O O9 0.594061 0.161921 0.653742
O O10 0.445840 0.127298 0.583736
O O11 0.500000 0.000000 0.579220
O O12 0.830889 0.424563 0.821292
O O13 0.000000 0.500000 0.893504
O O14 0.778055 0.245199 0.213153
O O15 0.173583 0.135157 0.338794
#
# Coordination Sequence:
#
# PCOD9585174 Si02
#       7
#    12  12  12  12  12  12  12
#     4  11  21  40  65  98 128 185 230 292 349 411
#     4  10  23  41  64  97 139 189 239 294 350 417
#     4  11  22  43  69  95 134 178 228 283 358 425
#     4   9  21  39  69  94 127 175 224 289 353 412
#     4  11  22  43  63  97 141 168 229 294 355 418
#     4  10  22  39  62  97 144 188 240 293 357 424
#     4  12  24  39  68  99 136 181 230 291 352 432
#
# _framework density 22.739564999999999
#
# number of rings (size 3 to 8) (size 9 to 14) (size 15 to 20)
#    0.000    1.429    2.857    2.429    6.000    2.286 
#    3.429    0.000    0.000    1.714    0.000    0.000 
#    0.000    0.000    0.000    0.000    0.000    0.000 
#
# Total GULP energy -468421.819645 kJ/mol
# GULP energy per Si atom -5576.450234 kJ/mol
# Density = 2.268781 g / cm^3
# Si number density = 22.739565 Si / 1000 Ang^3
#
#
#
# Elastic Constant Matrix: (Units=GPa)
#
#
# Indices 1 2 3 4 5 6 
#
# 1 85.4696 -30.1698 21.3723 0.0000 0.0000 0.0000
# 2 -30.1698 85.4696 21.3723 0.0000 0.0000 0.0000
# 3 21.3723 21.3723 114.8046 0.0000 0.0000 0.0000
# 4 0.0000 0.0000 0.0000 18.9806 0.0000 0.0000
# 5 0.0000 0.0000 0.0000 0.0000 18.9806 0.0000
# 6 0.0000 0.0000 0.0000 0.0000 0.0000 57.8197
#
#
#
# Elastic Compliance Matrix: (Units=1/GPa)
#
#
# Indices 1 2 3 4 5 6 
#
# 1 0.014885 0.006238 -0.003932 0.000000 0.000000 0.000000
# 2 0.006238 0.014885 -0.003932 0.000000 0.000000 0.000000
# 3 -0.003932 -0.003932 0.010175 0.000000 0.000000 0.000000
# 4 0.000000 0.000000 0.000000 0.052685 0.000000 0.000000
# 5 0.000000 0.000000 0.000000 0.000000 0.052685 0.000000
# 6 0.000000 0.000000 0.000000 0.000000 0.000000 0.017295
#
#
# Mechanical properties :
#
#
# Convention : Reuss Voigt Hill
#
# Bulk Modulus (GPa) = 27.25467 34.54373 30.89920
# Shear Modulus (GPa) = 28.07488 37.36744 32.72116
#
# Velocity S-wave (km/s) = 3.51754 4.05813 3.79747
# Velocity P-wave (km/s) = 5.33938 6.09770 5.73110
#
# Compressibility (1/GPa) = 0.03669095
#
# Stress axis : x y z
#
# Youngs Moduli (GPa) = 67.18101 67.18102 98.28458
#
# Poissons Ratio (x) = -0.41905 0.38648
# Poissons Ratio (y) = -0.41905 0.38648
# Poissons Ratio (z) = 0.26417 0.26417
#
# Static dielectric constant tensor:
#      x y z
#    x 1.886150 0.000000 0.000000 
#    y 0.000000 1.886150 0.000000 
#    z 0.000000 0.000000 1.871130 
# 
# From -- ./inp_files/950.got.cif
#   From: 2010.05.17/outbox.cif.g08.bks.cpg/sg184_cif.got.tgz:950.got - 2010.05.20 12:04:40.
