data_PCOD9585448
_publ_section_title
;
Structure prediction by ZEFSAII (Michael W. Deem and Ramdas Pophale) SiO2 
 PCOD9585448
Probable space group: P -6 M 2
;
_chemical_formula_sum "Si O2"
_cell_formula_units_Z 72
_cell_length_a 24.482791
_cell_length_b 24.482791
_cell_length_c 8.616575
_cell_angle_alpha 90.000000
_cell_angle_beta 90.000000
_cell_angle_gamma 120.000000
_cell_volume 4472.879049
_symmetry_space_group_name_H-M "P -6 M 2"
_symmetry_group_IT_number 187
_symmetry_cell_setting 'hexagonal'
loop_
_space_group_symop_operation_xyz
x,y,z
-x+y,-x,-z
-y,x-y,z
x,y,-z
-x+y,-x,z
-y,x-y,-z
-y,-x,-z
-x+y,y,-z
x,x-y,-z
-x+y,y,z
x,x-y,z
-y,-x,z
loop_
_atom_site_type_symbol
_atom_site_label
_atom_site_fract_x
_atom_site_fract_y
_atom_site_fract_z
Si Si1 0.364649 0.510908 0.814729
Si Si2 0.151439 0.302878 0.689067
Si Si3 0.005498 0.233502 0.688924
Si Si4 0.370567 0.305264 0.184262
Si Si5 0.890324 0.780648 0.682629
Si Si6 0.224562 0.449123 0.314345
Si Si7 0.357820 0.178910 0.815715
Si Si8 0.558545 0.992869 0.684133
O O1 0.419052 0.580949 0.763163
O O2 0.296360 0.485513 0.742685
O O3 0.390490 0.464427 0.766757
O O4 0.359961 0.511811 0.000000
O O5 0.151884 0.303768 0.500000
O O6 0.078251 0.265580 0.736949
O O7 0.187962 0.375923 0.740948
O O8 0.003153 0.234358 0.500000
O O9 0.975571 0.274502 0.753135
O O10 0.960319 0.160415 0.741656
O O11 0.391341 0.253049 0.214156
O O12 0.414033 0.371697 0.263499
O O13 0.370016 0.314022 0.000000
O O14 0.897336 0.794671 0.500000
O O15 0.852775 0.705549 0.714008
O O16 0.223764 0.447527 0.500000
O O17 0.339716 0.169858 0.000000
O O18 0.557197 0.982591 0.500000
O O19 0.506148 0.012295 0.721653
#
# Coordination Sequence:
#
# PCOD9585448 Si02
#       8
#    12   6  12  12   6   6   6  12
#     4  10  21  37  54  71  92 122 159 201 249 298
#     4   9  18  29  43  64  91 121 151 189 235 283
#     4   9  16  28  44  63  88 119 154 189 230 277
#     4  10  18  29  46  68  94 122 151 185 228 274
#     4   8  14  24  42  63  82 111 149 185 219 264
#     4  11  21  33  51  73  96 123 157 199 251 303
#     4   8  16  28  42  64  93 119 143 175 217 264
#     4  10  20  33  49  69  95 125 156 191 231 280
#
# _framework density 16.097014000000001
#
# number of rings (size 3 to 8) (size 9 to 14) (size 15 to 20)
#    0.000    2.500    0.000    2.750    0.000    4.000 
#    0.500    1.250    0.000    0.333    0.000    2.333 
#    0.833    0.000    0.500    2.500    0.667    3.000 
#
# Total GULP energy -401167.826120 kJ/mol
# GULP energy per Si atom -5571.775363 kJ/mol
# Density = 1.606038 g / cm^3
# Si number density = 16.097014 Si / 1000 Ang^3
#
#
#
# Elastic Constant Matrix: (Units=GPa)
#
#
# Indices 1 2 3 4 5 6 
#
# 1 110.0907 71.5774 22.1417 0.0000 0.0001 0.0000
# 2 71.5774 110.0907 22.1417 0.0000 -0.0001 0.0000
# 3 22.1417 22.1417 24.7416 0.0000 0.0000 0.0000
# 4 0.0000 0.0000 0.0000 18.9426 0.0000 -0.0001
# 5 0.0001 -0.0001 0.0000 0.0000 18.9426 0.0000
# 6 0.0000 0.0000 0.0000 -0.0001 0.0000 19.2566
#
#
#
# Elastic Compliance Matrix: (Units=1/GPa)
#
#
# Indices 1 2 3 4 5 6 
#
# 1 0.016503 -0.009462 -0.006301 0.000000 0.000000 0.000000
# 2 -0.009462 0.016503 -0.006301 0.000000 0.000000 0.000000
# 3 -0.006301 -0.006301 0.051695 0.000000 0.000000 0.000000
# 4 0.000000 0.000000 0.000000 0.052791 0.000000 0.000000
# 5 0.000000 0.000000 0.000000 0.000000 0.052791 0.000000
# 6 0.000000 0.000000 0.000000 0.000000 0.000000 0.051930
#
#
# Mechanical properties :
#
#
# Convention : Reuss Voigt Hill
#
# Bulk Modulus (GPa) = 24.64676 52.96052 38.80364
# Shear Modulus (GPa) = 16.67422 20.03249 18.35335
#
# Velocity S-wave (km/s) = 3.22197 3.53155 3.38031
# Velocity P-wave (km/s) = 5.40241 7.04283 6.27644
#
# Compressibility (1/GPa) = 0.04057328
#
# Stress axis : x y z
#
# Youngs Moduli (GPa) = 60.59608 60.59608 19.34429
#
# Poissons Ratio (x) = 0.57338 0.12188
# Poissons Ratio (y) = 0.57338 0.12188
# Poissons Ratio (z) = 0.38179 0.38179
#
# Static dielectric constant tensor:
#      x y z
#    x 1.539310 0.000000 0.000000 
#    y 0.000000 1.539310 0.000000 
#    z 0.000000 0.000000 1.546710 
# 
# From -- ./inp_files/1113.got.cif
#   From: 2010.05.17/outbox.cif.g08.bks.cpg/sg187_1_cif.got.tgz:1113.got - 2010.05.20 12:09:04.
