data_PCOD9585627
_publ_section_title
;
Structure prediction by ZEFSAII (Michael W. Deem and Ramdas Pophale) SiO2 
 PCOD9585627
Probable space group: P -6 M 2
;
_chemical_formula_sum "Si O2"
_cell_formula_units_Z 38
_cell_length_a 11.909167
_cell_length_b 11.909167
_cell_length_c 17.462927
_cell_angle_alpha 90.000000
_cell_angle_beta 90.000000
_cell_angle_gamma 120.000000
_cell_volume 2144.916751
_symmetry_space_group_name_H-M "P -6 M 2"
_symmetry_group_IT_number 187
_symmetry_cell_setting 'hexagonal'
loop_
_space_group_symop_operation_xyz
x,y,z
-x+y,-x,-z
-y,x-y,z
x,y,-z
-x+y,-x,z
-y,x-y,-z
-y,-x,-z
-x+y,y,-z
x,x-y,-z
-x+y,y,z
x,x-y,z
-y,-x,z
loop_
_atom_site_type_symbol
_atom_site_label
_atom_site_fract_x
_atom_site_fract_y
_atom_site_fract_z
Si Si1 0.034216 0.517108 0.408150
Si Si2 0.266502 0.001540 0.150022
Si Si3 0.589716 0.927629 0.000000
Si Si4 0.270832 0.001432 0.674560
Si Si5 0.333334 0.666667 0.592599
O O1 0.026711 0.513356 0.500000
O O2 0.185163 0.592582 0.382691
O O3 0.981533 0.372228 0.376583
O O4 0.245809 0.122905 0.142001
O O5 0.312228 0.002619 0.236723
O O6 0.128995 0.871005 0.144757
O O7 0.351793 0.003139 0.078774
O O8 0.439745 0.879490 0.000000
O O9 0.610772 0.805386 0.000000
O O10 0.246513 0.123257 0.664777
O O11 0.136186 0.863814 0.660540
O O12 0.333334 0.666667 0.500000
#
# Coordination Sequence:
#
# PCOD9585627 Si02
#       5
#     6  12   6  12   2
#     4  11  22  38  60  85 115 150 190 237 286 342
#     4   9  18  33  55  81 107 137 175 223 273 324
#     4  10  20  32  48  74 110 146 180 218 262 312
#     4  10  21  38  61  88 117 149 189 237 289 341
#     4   9  18  36  60  84 111 142 188 238 276 330
#
# _framework density 17.716304999999998
#
# number of rings (size 3 to 8) (size 9 to 14) (size 15 to 20)
#    0.000    2.211    1.579    1.263    2.211    3.158 
#    0.947    1.579    0.000    4.421    0.000    0.000 
#    0.000    0.000    0.000    0.000    0.000    0.000 
#
# Total GULP energy -211595.477008 kJ/mol
# GULP energy per Si atom -5568.302027 kJ/mol
# Density = 1.767598 g / cm^3
# Si number density = 17.716305 Si / 1000 Ang^3
#
#
#
# Elastic Constant Matrix: (Units=GPa)
#
#
# Indices 1 2 3 4 5 6 
#
# 1 65.3338 11.3093 48.4034 0.0001 -0.0004 0.0000
# 2 11.3093 65.3338 48.4034 0.0000 0.0005 0.0000
# 3 48.4034 48.4034 115.8757 0.0001 0.0001 0.0001
# 4 0.0001 0.0000 0.0001 70.1816 0.0000 0.0004
# 5 -0.0004 0.0005 0.0001 0.0000 70.1816 0.0000
# 6 0.0000 0.0000 0.0001 0.0004 0.0000 27.0122
#
#
#
# Elastic Compliance Matrix: (Units=1/GPa)
#
#
# Indices 1 2 3 4 5 6 
#
# 1 0.023065 0.004555 -0.011538 0.000000 0.000000 0.000000
# 2 0.004555 0.023065 -0.011538 0.000000 0.000000 0.000000
# 3 -0.011538 -0.011538 0.018269 0.000000 0.000000 0.000000
# 4 0.000000 0.000000 0.000000 0.014249 0.000000 0.000000
# 5 0.000000 0.000000 0.000000 0.000000 0.014249 0.000000
# 6 0.000000 0.000000 0.000000 0.000000 0.000000 0.037020
#
#
# Mechanical properties :
#
#
# Convention : Reuss Voigt Hill
#
# Bulk Modulus (GPa) = 36.55047 51.41952 43.98500
# Shear Modulus (GPa) = 28.39670 42.70359 35.55015
#
# Velocity S-wave (km/s) = 4.00791 4.91492 4.48441
# Velocity P-wave (km/s) = 6.48796 7.82914 7.18989
#
# Compressibility (1/GPa) = 0.02735943
#
# Stress axis : x y z
#
# Youngs Moduli (GPa) = 43.35524 43.35527 54.73806
#
# Poissons Ratio (x) = -0.19749 0.63154
# Poissons Ratio (y) = -0.19749 0.63154
# Poissons Ratio (z) = 0.50021 0.50021
#
# Static dielectric constant tensor:
#      x y z
#    x 1.584310 0.000000 0.000000 
#    y 0.000000 1.584310 0.000000 
#    z 0.000000 0.000000 1.647110 
# 
# From -- ./inp_files/2878.got.cif
#   From: 2010.05.17/outbox.cif.g08.bks.cpg/sg187_2_cif.got.tgz:2878.got - 2010.05.20 12:09:04.
