data_PCOD9585687
_publ_section_title
;
Structure prediction by ZEFSAII (Michael W. Deem and Ramdas Pophale) SiO2 
 PCOD9585687
Probable space group: P -6 M 2
;
_chemical_formula_sum "Si O2"
_cell_formula_units_Z 78
_cell_length_a 17.563058
_cell_length_b 17.563058
_cell_length_c 18.336988
_cell_angle_alpha 90.000000
_cell_angle_beta 90.000000
_cell_angle_gamma 120.000000
_cell_volume 4898.452528
_symmetry_space_group_name_H-M "P -6 M 2"
_symmetry_group_IT_number 187
_symmetry_cell_setting 'hexagonal'
loop_
_space_group_symop_operation_xyz
x,y,z
-x+y,-x,-z
-y,x-y,z
x,y,-z
-x+y,-x,z
-y,x-y,-z
-y,-x,-z
-x+y,y,-z
x,x-y,-z
-x+y,y,z
x,x-y,z
-y,-x,z
loop_
_atom_site_type_symbol
_atom_site_label
_atom_site_fract_x
_atom_site_fract_y
_atom_site_fract_z
Si Si1 0.823909 0.824765 0.637213
Si Si2 0.666721 0.514650 0.000000
Si Si3 0.420317 0.405294 0.285257
Si Si4 0.704317 0.940311 0.221923
Si Si5 0.726686 0.630390 0.583531
Si Si6 0.817814 0.000476 0.084433
Si Si7 0.489768 0.156161 0.842836
O O1 0.813282 0.906641 0.613299
O O2 0.782428 0.796839 0.718193
O O3 0.771201 0.736167 0.590351
O O4 0.925121 0.850242 0.637763
O O5 0.670673 0.555577 0.078979
O O6 0.575371 0.424630 0.000000
O O7 0.748430 0.496859 0.000000
O O8 0.492117 0.507884 0.291684
O O9 0.323623 0.376389 0.255230
O O10 0.411250 0.353388 0.360078
O O11 0.454024 0.364324 0.223323
O O12 0.680151 0.840076 0.214942
O O13 0.745590 0.986518 0.144840
O O14 0.700946 0.603418 0.500000
O O15 0.805446 0.610891 0.603487
O O16 0.833058 0.916529 0.092318
O O17 0.791322 0.000842 0.000000
O O18 0.908788 0.091213 0.096950
O O19 0.592663 0.185325 0.850180
O O20 0.478990 0.239495 0.828590
#
# Coordination Sequence:
#
# PCOD9585687 Si02
#       7
#    12   6  12  12  12  12  12
#     4   9  16  26  43  68  98 132 165 192 215 249
#     4   8  13  22  36  56  83 116 148 174 202 242
#     4  10  20  33  50  69  87 111 149 196 240 285
#     4   9  18  32  47  63  89 122 154 192 241 289
#     4   9  18  32  48  67  94 126 155 186 228 273
#     4   9  16  26  42  67  99 135 170 198 219 247
#     4   9  16  26  41  62  89 120 150 179 212 253
#
# _framework density 15.923396
#
# number of rings (size 3 to 8) (size 9 to 14) (size 15 to 20)
#    0.000    2.923    0.000    1.462    0.000    4.308 
#    1.385    1.538    0.000    1.538    0.000    0.000 
#    0.000    0.000    0.000    0.462    0.000    0.000 
#
# Total GULP energy -434284.849922 kJ/mol
# GULP energy per Si atom -5567.754486 kJ/mol
# Density = 1.588715 g / cm^3
# Si number density = 15.923396 Si / 1000 Ang^3
#
#
#
# Elastic Constant Matrix: (Units=GPa)
#
#
# Indices 1 2 3 4 5 6 
#
# 1 57.3819 20.9865 29.2902 0.0000 -0.0001 0.0000
# 2 20.9865 57.3819 29.2902 0.0000 0.0001 0.0000
# 3 29.2902 29.2902 59.4342 0.0000 0.0000 0.0000
# 4 0.0000 0.0000 0.0000 15.4036 0.0000 0.0001
# 5 -0.0001 0.0001 0.0000 0.0000 15.4036 0.0000
# 6 0.0000 0.0000 0.0000 0.0001 0.0000 18.1977
#
#
#
# Elastic Compliance Matrix: (Units=1/GPa)
#
#
# Indices 1 2 3 4 5 6 
#
# 1 0.023839 -0.003637 -0.009956 0.000000 0.000000 0.000000
# 2 -0.003637 0.023839 -0.009956 0.000000 0.000000 0.000000
# 3 -0.009956 -0.009956 0.026638 0.000000 0.000000 0.000000
# 4 0.000000 0.000000 0.000000 0.064920 0.000000 0.000000
# 5 0.000000 0.000000 0.000000 0.000000 0.064920 0.000000
# 6 0.000000 0.000000 0.000000 0.000000 0.000000 0.054952
#
#
# Mechanical properties :
#
#
# Convention : Reuss Voigt Hill
#
# Bulk Modulus (GPa) = 36.73924 37.03686 36.88805
# Shear Modulus (GPa) = 15.85894 16.10971 15.98432
#
# Velocity S-wave (km/s) = 3.15929 3.18418 3.17176
# Velocity P-wave (km/s) = 6.03579 6.06865 6.05224
#
# Compressibility (1/GPa) = 0.02721885
#
# Stress axis : x y z
#
# Youngs Moduli (GPa) = 41.94768 41.94768 37.53979
#
# Poissons Ratio (x) = 0.15256 0.37375
# Poissons Ratio (y) = 0.15256 0.37375
# Poissons Ratio (z) = 0.41764 0.41764
#
# Static dielectric constant tensor:
#      x y z
#    x 1.527920 0.000000 0.000000 
#    y 0.000000 1.527920 0.000000 
#    z 0.000000 0.000000 1.565240 
# 
# From -- ./inp_files/3132.got.cif
#   From: 2010.05.17/outbox.cif.g08.bks.cpg/sg187_2_cif.got.tgz:3132.got - 2010.05.20 12:09:04.
