data_PCOD9585899
_publ_section_title
;
Structure prediction by ZEFSAII (Michael W. Deem and Ramdas Pophale) SiO2 
 PCOD9585899
Probable space group: P -6 C 2
;
_chemical_formula_sum "Si O2"
_cell_formula_units_Z 72
_cell_length_a 23.552163
_cell_length_b 23.552163
_cell_length_c 8.817157
_cell_angle_alpha 90.000000
_cell_angle_beta 90.000000
_cell_angle_gamma 120.000000
_cell_volume 4235.657179
_symmetry_space_group_name_H-M "P -6 C 2"
_symmetry_group_IT_number 188
_symmetry_cell_setting 'hexagonal'
loop_
_space_group_symop_operation_xyz
x,y,z
-x+y,-x,1/2-z
-y,x-y,z
x,y,1/2-z
-x+y,-x,z
-y,x-y,1/2-z
-y,-x,-z
-x+y,y,-z
x,x-y,-z
-x+y,y,1/2+z
x,x-y,1/2+z
-y,-x,1/2+z
loop_
_atom_site_type_symbol
_atom_site_label
_atom_site_fract_x
_atom_site_fract_y
_atom_site_fract_z
Si Si1 0.666519 0.208076 0.068757
Si Si2 0.923062 0.594416 0.432198
Si Si3 0.190701 0.929121 0.431981
Si Si4 0.263567 0.856747 0.932323
Si Si5 0.052119 0.588702 0.067528
Si Si6 0.280253 0.077726 0.068943
O O1 0.666166 0.214791 0.250000
O O2 0.669570 0.142790 0.033855
O O3 0.729225 0.270776 0.000000
O O4 0.601372 0.202743 0.000000
O O5 0.927490 0.604557 0.250000
O O6 0.920371 0.654360 0.508655
O O7 0.986031 0.588938 0.480507
O O8 0.189517 0.921748 0.250000
O O9 0.119376 0.880625 0.500000
O O10 0.237611 0.903782 0.501905
O O11 0.220616 0.005317 0.469451
O O12 0.257676 0.855379 0.750000
O O13 0.339709 0.887504 0.972869
O O14 0.214566 0.785435 0.000000
O O15 0.050076 0.583108 0.250000
O O16 0.055834 0.527917 0.000000
O O17 0.284214 0.084269 0.250000
O O18 0.273700 0.136850 0.000000
#
# Coordination Sequence:
#
# PCOD9585899 Si02
#       6
#    12  12  12  12  12  12
#     4  11  23  38  56  74  97 131 176 226 277 329
#     4  10  21  38  56  78 109 143 178 224 278 328
#     4  10  20  34  55  83 110 142 180 221 269 320
#     4  10  19  33  55  81 111 143 178 222 271 321
#     4  10  21  35  54  81 113 148 183 225 273 324
#     4  11  23  36  55  83 114 149 186 224 271 324
#
# _framework density 16.998542
#
# number of rings (size 3 to 8) (size 9 to 14) (size 15 to 20)
#    0.000    1.667    1.667    4.167    0.000    6.667 
#    0.000    0.000    0.000    0.667    0.000    0.000 
#    0.000    0.000    0.000    0.000    0.000    0.000 
#
# Total GULP energy -402166.897109 kJ/mol
# GULP energy per Si atom -5585.651349 kJ/mol
# Density = 1.695985 g / cm^3
# Si number density = 16.998542 Si / 1000 Ang^3
#
#
#
# Elastic Constant Matrix: (Units=GPa)
#
#
# Indices 1 2 3 4 5 6 
#
# 1 156.9480 106.5909 62.2423 -0.0009 0.0000 0.0000
# 2 106.5909 156.9480 62.2423 0.0009 0.0000 0.0000
# 3 62.2423 62.2423 52.6537 0.0000 0.0000 0.0000
# 4 -0.0009 0.0009 0.0000 25.6247 0.0000 0.0000
# 5 0.0000 0.0000 0.0000 0.0000 25.6247 -0.0009
# 6 0.0000 0.0000 0.0000 0.0000 -0.0009 25.1786
#
#
#
# Elastic Compliance Matrix: (Units=1/GPa)
#
#
# Indices 1 2 3 4 5 6 
#
# 1 0.014225 -0.005633 -0.010157 0.000001 0.000000 0.000000
# 2 -0.005633 0.014225 -0.010157 -0.000001 0.000000 0.000000
# 3 -0.010157 -0.010157 0.043005 0.000000 0.000000 0.000000
# 4 0.000001 -0.000001 0.000000 0.039025 0.000000 0.000000
# 5 0.000000 0.000000 0.000000 0.000000 0.039025 0.000001
# 6 0.000000 0.000000 0.000000 0.000000 0.000001 0.039716
#
#
# Mechanical properties :
#
#
# Convention : Reuss Voigt Hill
#
# Bulk Modulus (GPa) = 51.11975 92.07786 71.59881
# Shear Modulus (GPa) = 20.19094 24.31720 22.25407
#
# Velocity S-wave (km/s) = 3.45019 3.78636 3.62218
# Velocity P-wave (km/s) = 6.78307 8.56744 7.72694
#
# Compressibility (1/GPa) = 0.01956191
#
# Stress axis : x y z
#
# Youngs Moduli (GPa) = 70.29785 70.29785 23.25303
#
# Poissons Ratio (x) = 0.39599 0.23618
# Poissons Ratio (y) = 0.39599 0.23618
# Poissons Ratio (z) = 0.71401 0.71401
#
# Static dielectric constant tensor:
#      x y z
#    x 1.559010 0.000000 0.000000 
#    y 0.000000 1.559010 0.000000 
#    z 0.000000 0.000000 1.571600 
# 
# From -- ./inp_files/1064.got.cif
#   From: 2010.05.17/outbox.cif.g08.bks.cpg/sg188_1_cif.got.tgz:1064.got - 2010.05.20 12:11:46.
