data_PCOD9585669
_publ_section_title
;
Structure prediction by ZEFSAII (Michael W. Deem and Ramdas Pophale) SiO2 
 PCOD9585669
Probable space group: P -6 M 2
;
_chemical_formula_sum "Si O2"
_cell_formula_units_Z 60
_cell_length_a 12.904744
_cell_length_b 12.904744
_cell_length_c 25.860670
_cell_angle_alpha 90.000000
_cell_angle_beta 90.000000
_cell_angle_gamma 120.000000
_cell_volume 3729.659557
_symmetry_space_group_name_H-M "P -6 M 2"
_symmetry_group_IT_number 187
_symmetry_cell_setting 'hexagonal'
loop_
_space_group_symop_operation_xyz
x,y,z
-x+y,-x,-z
-y,x-y,z
x,y,-z
-x+y,-x,z
-y,x-y,-z
-y,-x,-z
-x+y,y,-z
x,x-y,-z
-x+y,y,z
x,x-y,z
-y,-x,z
loop_
_atom_site_type_symbol
_atom_site_label
_atom_site_fract_x
_atom_site_fract_y
_atom_site_fract_z
Si Si1 0.245310 0.999960 0.652220
Si Si2 0.088849 0.422398 0.560195
Si Si3 0.421138 0.087203 0.153361
Si Si4 0.087191 0.420564 0.749343
Si Si5 0.244562 0.244542 0.059489
O O1 0.107739 0.892262 0.651239
O O2 0.306257 0.989553 0.599624
O O3 0.307624 0.972008 0.699899
O O4 0.252711 0.126355 0.657601
O O5 0.057081 0.389526 0.500000
O O6 0.225321 0.450641 0.566994
O O7 0.081753 0.540877 0.571127
O O8 0.554596 0.109191 0.148929
O O9 0.422623 0.211311 0.162061
O O10 0.346769 0.028876 0.101105
O O11 0.358197 0.996777 0.200900
O O12 0.216768 0.433535 0.757269
O O13 0.098982 0.549491 0.740831
O O14 0.214071 0.107036 0.063796
O O15 0.126314 0.252627 0.069546
O O16 0.282615 0.281922 0.000000
#
# Coordination Sequence:
#
# PCOD9585669 Si02
#       5
#    12  12  12  12  12
#     4  10  20  33  49  70  97 128 160 194 234 282
#     4   9  17  30  50  75 100 126 158 199 245 288
#     4  10  20  33  49  70  98 132 166 197 231 277
#     4  10  20  34  53  75  97 122 155 198 246 291
#     4   9  17  30  49  72  96 122 155 198 246 290
#
# _framework density 16.087257999999999
#
# number of rings (size 3 to 8) (size 9 to 14) (size 15 to 20)
#    0.000    2.400    0.000    2.800    0.000    2.400 
#    0.000    2.000    0.000   13.600    0.000    0.000 
#    0.000    0.000    0.000    0.000    0.000    0.000 
#
# Total GULP energy -334662.897913 kJ/mol
# GULP energy per Si atom -5577.714965 kJ/mol
# Density = 1.605064 g / cm^3
# Si number density = 16.087258 Si / 1000 Ang^3
#
#
#
# Elastic Constant Matrix: (Units=GPa)
#
#
# Indices 1 2 3 4 5 6 
#
# 1 120.4034 80.4444 80.5807 0.0000 -0.0001 0.0000
# 2 80.4444 120.4034 80.5807 0.0000 0.0001 0.0000
# 3 80.5807 80.5807 103.7880 0.0000 0.0000 0.0000
# 4 0.0000 0.0000 0.0000 24.5614 0.0000 0.0001
# 5 -0.0001 0.0001 0.0000 0.0000 24.5614 0.0000
# 6 0.0000 0.0000 0.0000 0.0001 0.0000 19.9795
#
#
#
# Elastic Compliance Matrix: (Units=1/GPa)
#
#
# Indices 1 2 3 4 5 6 
#
# 1 0.019116 -0.005910 -0.010253 0.000000 0.000000 0.000000
# 2 -0.005910 0.019116 -0.010253 0.000000 0.000000 0.000000
# 3 -0.010253 -0.010253 0.025556 0.000000 0.000000 0.000000
# 4 0.000000 0.000000 0.000000 0.040714 0.000000 0.000000
# 5 0.000000 0.000000 0.000000 0.000000 0.040714 0.000000
# 6 0.000000 0.000000 0.000000 0.000000 0.000000 0.050051
#
#
# Mechanical properties :
#
#
# Convention : Reuss Voigt Hill
#
# Bulk Modulus (GPa) = 91.27760 91.97848 91.62804
# Shear Modulus (GPa) = 19.86084 20.68641 20.27362
#
# Velocity S-wave (km/s) = 3.51746 3.58982 3.55382
# Velocity P-wave (km/s) = 8.56498 8.63025 8.59768
#
# Compressibility (1/GPa) = 0.01095559
#
# Stress axis : x y z
#
# Youngs Moduli (GPa) = 52.31257 52.31257 39.12965
#
# Poissons Ratio (x) = 0.30916 0.40120
# Poissons Ratio (y) = 0.30916 0.40120
# Poissons Ratio (z) = 0.53637 0.53637
#
# Static dielectric constant tensor:
#      x y z
#    x 1.508530 0.000000 0.000000 
#    y 0.000000 1.508530 0.000000 
#    z 0.000000 0.000000 1.535540 
# 
# From -- ./inp_files/4140.got.cif
#   From: 2010.05.17/outbox.cif.g08.bks.cpg/sg187_3_cif.got.tgz:4140.got - 2010.05.20 12:09:04.
