data_PCOD9585072
_publ_section_title
;
Structure prediction by ZEFSAII (Michael W. Deem and Ramdas Pophale) SiO2 
 PCOD9585072
Probable space group: P 6 M M
;
_chemical_formula_sum "Si O2"
_cell_formula_units_Z 84
_cell_length_a 22.962788
_cell_length_b 22.962788
_cell_length_c 10.622212
_cell_angle_alpha 90.000000
_cell_angle_beta 90.000000
_cell_angle_gamma 120.000000
_cell_volume 4850.592927
_symmetry_space_group_name_H-M "P 6 M M"
_symmetry_group_IT_number 183
_symmetry_cell_setting 'hexagonal'
loop_
_space_group_symop_operation_xyz
x,y,z
x-y,x,z
-y,x-y,z
-x,-y,z
-x+y,-x,z
y,-x+y,z
-x+y,y,z
x,x-y,z
-y,-x,z
y,x,z
x-y,-y,z
-x,-x+y,z
loop_
_atom_site_type_symbol
_atom_site_label
_atom_site_fract_x
_atom_site_fract_y
_atom_site_fract_z
Si Si1 0.666274 0.197543 0.423470
Si Si2 0.734748 0.129857 0.782499
Si Si3 0.123280 0.736566 0.503202
Si Si4 0.210475 0.925312 0.286364
Si Si5 0.076990 0.285001 0.000998
Si Si6 0.332686 0.530919 0.121766
Si Si7 0.921826 0.530238 0.934688
O O1 0.596637 0.193274 0.456381
O O2 0.729056 0.270945 0.456440
O O3 0.677690 0.140612 0.485156
O O4 0.668987 0.190597 0.272096
O O5 0.790595 0.209406 0.777919
O O6 0.735772 0.100322 0.645758
O O7 0.757492 0.098785 0.894758
O O8 0.659749 0.110473 0.819113
O O9 0.195096 0.804905 0.489181
O O10 0.080386 0.742376 0.391142
O O11 0.134547 0.865454 0.308533
O O12 0.228793 0.915745 0.143509
O O13 0.221788 0.000000 0.291996
O O14 0.128810 0.257619 0.992899
O O15 0.000000 0.229853 0.983033
O O16 0.260248 0.520496 0.082339
O O17 0.392384 0.607617 0.096429
O O18 0.353895 0.482715 0.050667
O O19 0.921210 0.460605 0.914556
O O20 0.000000 0.586931 0.955224
#
# Coordination Sequence:
#
# PCOD9585072 Si02
#       7
#    12  12  12  12  12  12  12
#     4   9  17  30  50  74 100 128 162 206 256 305
#     4  10  20  34  52  72  96 129 169 210 249 291
#     4   9  19  33  49  73 102 130 164 207 250 294
#     4   9  18  33  53  77 103 132 166 205 248 292
#     4   9  18  32  53  78 102 130 165 204 243 288
#     4   9  17  30  50  74  98 126 161 203 246 293
#     4  10  21  34  47  66  95 129 163 202 250 302
#
# _framework density 17.317471999999999
#
# number of rings (size 3 to 8) (size 9 to 14) (size 15 to 20)
#    0.000    2.714    0.000    1.143    2.000    2.857 
#    0.000    0.000    0.000    1.000    0.000    2.000 
#    0.000    0.000    0.000    7.143    0.000    7.429 
#
# Total GULP energy -467948.284448 kJ/mol
# GULP energy per Si atom -5570.812910 kJ/mol
# Density = 1.727806 g / cm^3
# Si number density = 17.317472 Si / 1000 Ang^3
#
#
#
# Elastic Constant Matrix: (Units=GPa)
#
#
# Indices 1 2 3 4 5 6 
#
# 1 77.4506 42.3621 41.7306 0.0000 0.0000 0.0000
# 2 42.3621 77.4506 41.7306 0.0000 0.0000 0.0000
# 3 41.7306 41.7306 80.9055 0.0000 0.0000 0.0000
# 4 0.0000 0.0000 0.0000 12.0465 0.0000 0.0000
# 5 0.0000 0.0000 0.0000 0.0000 12.0465 0.0000
# 6 0.0000 0.0000 0.0000 0.0000 0.0000 17.5442
#
#
#
# Elastic Compliance Matrix: (Units=1/GPa)
#
#
# Indices 1 2 3 4 5 6 
#
# 1 0.020763 -0.007736 -0.006719 0.000000 0.000000 0.000000
# 2 -0.007736 0.020763 -0.006719 0.000000 0.000000 0.000000
# 3 -0.006719 -0.006719 0.019292 0.000000 0.000000 0.000000
# 4 0.000000 0.000000 0.000000 0.083011 0.000000 0.000000
# 5 0.000000 0.000000 0.000000 0.000000 0.083011 0.000000
# 6 0.000000 0.000000 0.000000 0.000000 0.000000 0.056999
#
#
# Mechanical properties :
#
#
# Convention : Reuss Voigt Hill
#
# Bulk Modulus (GPa) = 54.14602 54.16146 54.15374
# Shear Modulus (GPa) = 15.04460 15.65969 15.35214
#
# Velocity S-wave (km/s) = 2.95066 3.01037 2.98066
# Velocity P-wave (km/s) = 6.55310 6.58989 6.57152
#
# Compressibility (1/GPa) = 0.01846858
#
# Stress axis : x y z
#
# Youngs Moduli (GPa) = 48.16220 48.16220 51.83614
#
# Poissons Ratio (x) = 0.37259 0.34830
# Poissons Ratio (y) = 0.37259 0.34830
# Poissons Ratio (z) = 0.32361 0.32361
#
# Static dielectric constant tensor:
#      x y z
#    x 1.589850 0.000000 0.000000 
#    y 0.000000 1.589850 0.000000 
#    z 0.000000 0.000000 1.604810 
# 
# From -- ./inp_files/1899.got.cif
#   From: 2010.05.17/outbox.cif.g08.bks.cpg/sg183_1_cif.got.tgz:1899.got - 2010.05.20 12:02:58.
