data_PCOD9585588
_publ_section_title
;
Structure prediction by ZEFSAII (Michael W. Deem and Ramdas Pophale) SiO2 
 PCOD9585588
Probable space group: P -6 M 2
;
_chemical_formula_sum "Si O2"
_cell_formula_units_Z 72
_cell_length_a 12.835202
_cell_length_b 12.835202
_cell_length_c 31.206997
_cell_angle_alpha 90.000000
_cell_angle_beta 90.000000
_cell_angle_gamma 120.000000
_cell_volume 4452.336979
_symmetry_space_group_name_H-M "P -6 M 2"
_symmetry_group_IT_number 187
_symmetry_cell_setting 'hexagonal'
loop_
_space_group_symop_operation_xyz
x,y,z
-x+y,-x,-z
-y,x-y,z
x,y,-z
-x+y,-x,z
-y,x-y,-z
-y,-x,-z
-x+y,y,-z
x,x-y,-z
-x+y,y,z
x,x-y,z
-y,-x,z
loop_
_atom_site_type_symbol
_atom_site_label
_atom_site_fract_x
_atom_site_fract_y
_atom_site_fract_z
Si Si1 0.086813 0.666304 0.078288
Si Si2 0.667648 0.581083 0.500000
Si Si3 0.753316 0.752471 0.000000
Si Si4 0.086629 0.419511 0.176404
Si Si5 0.086309 0.666964 0.663877
Si Si6 0.666507 0.579840 0.745256
Si Si7 0.751904 0.999552 0.581696
O O1 0.083292 0.541646 0.070819
O O2 0.223751 0.776250 0.074896
O O3 0.047861 0.667860 0.127299
O O4 0.012158 0.688684 0.042359
O O5 0.538027 0.461974 0.500000
O O6 0.773855 0.547709 0.500000
O O7 0.689652 0.663493 0.458321
O O8 0.877016 0.754032 0.000000
O O9 0.774160 0.887080 0.000000
O O10 0.207525 0.415050 0.184875
O O11 0.114220 0.557110 0.179604
O O12 0.985051 0.344634 0.211111
O O13 0.094915 0.547458 0.655992
O O14 0.218114 0.781886 0.670791
O O15 0.003556 0.641950 0.705559
O O16 0.027460 0.696668 0.623567
O O17 0.793975 0.587950 0.740927
O O18 0.558669 0.441332 0.745969
O O19 0.882584 0.117417 0.587727
O O20 0.764340 0.882170 0.573597
#
# Coordination Sequence:
#
# PCOD9585588 Si02
#       7
#    12   6   6  12  12  12  12
#     4   9  17  30  50  75  98 120 150 193 244 290
#     4  10  20  34  52  74 100 130 166 208 252 294
#     4  10  20  32  46  64  90 126 164 198 232 276
#     4   9  17  30  50  75 100 124 152 191 240 291
#     4  10  20  34  53  76 101 129 162 203 250 297
#     4  10  20  33  49  69  95 128 165 202 238 280
#     4  10  20  34  53  76 103 135 169 204 243 291
#
# _framework density 16.171282000000001
#
# number of rings (size 3 to 8) (size 9 to 14) (size 15 to 20)
#    0.000    2.333    0.000    3.000    0.000    2.000 
#    0.000    3.333    0.000   12.667    0.000    0.000 
#    0.000    0.000    0.000    0.000    0.000    0.000 
#
# Total GULP energy -401673.850958 kJ/mol
# GULP energy per Si atom -5578.803486 kJ/mol
# Density = 1.613448 g / cm^3
# Si number density = 16.171282 Si / 1000 Ang^3
#
#
#
# Elastic Constant Matrix: (Units=GPa)
#
#
# Indices 1 2 3 4 5 6 
#
# 1 120.1950 82.0769 83.1205 0.0000 -0.0003 0.0000
# 2 82.0769 120.1950 83.1205 0.0000 0.0003 0.0000
# 3 83.1205 83.1205 123.2799 0.0000 0.0000 0.0000
# 4 0.0000 0.0000 0.0000 21.3756 0.0000 0.0003
# 5 -0.0003 0.0003 0.0000 0.0000 21.3756 0.0000
# 6 0.0000 0.0000 0.0000 0.0003 0.0000 19.0591
#
#
#
# Elastic Compliance Matrix: (Units=1/GPa)
#
#
# Indices 1 2 3 4 5 6 
#
# 1 0.018661 -0.007573 -0.007476 0.000000 0.000000 0.000000
# 2 -0.007573 0.018661 -0.007476 0.000000 0.000000 0.000000
# 3 -0.007476 -0.007476 0.018193 0.000000 0.000000 0.000000
# 4 0.000000 0.000000 0.000000 0.046782 0.000000 -0.000001
# 5 0.000000 0.000000 0.000000 0.000000 0.046782 0.000000
# 6 0.000000 0.000000 0.000000 -0.000001 0.000000 0.052468
#
#
# Mechanical properties :
#
#
# Convention : Reuss Voigt Hill
#
# Bulk Modulus (GPa) = 95.55697 95.58953 95.57325
# Shear Modulus (GPa) = 19.99295 20.05216 20.02256
#
# Velocity S-wave (km/s) = 3.51996 3.52516 3.52256
# Velocity P-wave (km/s) = 8.70281 8.70678 8.70480
#
# Compressibility (1/GPa) = 0.01046496
#
# Stress axis : x y z
#
# Youngs Moduli (GPa) = 53.58690 53.58690 54.96570
#
# Poissons Ratio (x) = 0.40581 0.41093
# Poissons Ratio (y) = 0.40581 0.41093
# Poissons Ratio (z) = 0.40063 0.40063
#
# Static dielectric constant tensor:
#      x y z
#    x 1.510230 0.000000 0.000000 
#    y 0.000000 1.510230 0.000000 
#    z 0.000000 0.000000 1.541190 
# 
# From -- ./inp_files/4604.got.cif
#   From: 2010.05.17/outbox.cif.g08.bks.cpg/sg187_3_cif.got.tgz:4604.got - 2010.05.20 12:09:04.
