data_PCOD9585046
_publ_section_title
;
Structure prediction by ZEFSAII (Michael W. Deem and Ramdas Pophale) SiO2 
 PCOD9585046
Probable space group: P 6 M M
;
_chemical_formula_sum "Si O2"
_cell_formula_units_Z 72
_cell_length_a 22.612742
_cell_length_b 22.612742
_cell_length_c 10.218046
_cell_angle_alpha 90.000000
_cell_angle_beta 90.000000
_cell_angle_gamma 120.000000
_cell_volume 4524.857853
_symmetry_space_group_name_H-M "P 6 M M"
_symmetry_group_IT_number 183
_symmetry_cell_setting 'hexagonal'
loop_
_space_group_symop_operation_xyz
x,y,z
x-y,x,z
-y,x-y,z
-x,-y,z
-x+y,-x,z
y,-x+y,z
-x+y,y,z
x,x-y,z
-y,-x,z
y,x,z
x-y,-y,z
-x,-x+y,z
loop_
_atom_site_type_symbol
_atom_site_label
_atom_site_fract_x
_atom_site_fract_y
_atom_site_fract_z
Si Si1 0.332711 0.806960 0.786110
Si Si2 0.289419 0.441143 0.522195
Si Si3 0.788130 0.078330 0.441348
Si Si4 0.289420 0.441146 0.050029
Si Si5 0.921670 0.211872 0.130883
Si Si6 0.609928 0.531064 0.286111
O O1 0.406379 0.812757 0.786110
O O2 0.272393 0.727608 0.786110
O O3 0.320153 0.840578 0.657856
O O4 0.320153 0.840577 0.914364
O O5 0.227033 0.454066 0.485238
O O6 0.254767 0.359065 0.524460
O O7 0.346830 0.465672 0.412322
O O8 0.867691 0.132310 0.462328
O O9 0.774269 0.083813 0.286116
O O10 0.763663 0.000000 0.467873
O O11 0.227034 0.454068 0.086984
O O12 0.254770 0.359068 0.047772
O O13 0.346832 0.465678 0.159899
O O14 0.867689 0.132312 0.109900
O O15 0.000000 0.236339 0.104358
O O16 0.538750 0.461251 0.286116
O O17 0.592219 0.592219 0.286106
#
# Coordination Sequence:
#
# PCOD9585046 Si02
#       6
#    12  12  12  12  12  12
#     4  10  21  36  53  71  96 129 168 212 261 309
#     4  10  19  33  52  72  94 126 166 209 250 294
#     4   9  16  28  49  74  98 125 160 200 239 282
#     4  10  19  33  52  72  94 126 166 209 250 294
#     4   9  16  28  49  74  98 125 160 200 239 282
#     4  11  21  32  48  70  98 129 159 197 248 302
#
# _framework density 15.912102000000001
#
# number of rings (size 3 to 8) (size 9 to 14) (size 15 to 20)
#    0.000    2.167    1.667    2.667    0.000    0.000 
#    0.000    3.333    0.000   11.000    0.000    2.333 
#    0.000    0.000    0.000    0.000    0.000   19.667 
#
# Total GULP energy -401414.375766 kJ/mol
# GULP energy per Si atom -5575.199663 kJ/mol
# Density = 1.587589 g / cm^3
# Si number density = 15.912102 Si / 1000 Ang^3
#
#
#
# Elastic Constant Matrix: (Units=GPa)
#
#
# Indices 1 2 3 4 5 6 
#
# 1 123.0760 79.2152 66.7227 0.0000 0.0000 0.0000
# 2 79.2152 123.0760 66.7227 0.0000 0.0000 0.0000
# 3 66.7227 66.7227 100.5832 0.0000 0.0000 0.0000
# 4 0.0000 0.0000 0.0000 10.7572 0.0000 0.0000
# 5 0.0000 0.0000 0.0000 0.0000 10.7572 0.0000
# 6 0.0000 0.0000 0.0000 0.0000 0.0000 21.9304
#
#
#
# Elastic Compliance Matrix: (Units=1/GPa)
#
#
# Indices 1 2 3 4 5 6 
#
# 1 0.015795 -0.007005 -0.005831 0.000000 0.000000 0.000000
# 2 -0.007005 0.015795 -0.005831 0.000000 0.000000 0.000000
# 3 -0.005831 -0.005831 0.017678 0.000000 0.000000 0.000000
# 4 0.000000 0.000000 0.000000 0.092961 0.000000 0.000000
# 5 0.000000 0.000000 0.000000 0.000000 0.092961 0.000000
# 6 0.000000 0.000000 0.000000 0.000000 0.000000 0.045599
#
#
# Mechanical properties :
#
#
# Convention : Reuss Voigt Hill
#
# Bulk Modulus (GPa) = 83.79239 85.78405 84.78822
# Shear Modulus (GPa) = 15.52318 17.62726 16.57522
#
# Velocity S-wave (km/s) = 3.12678 3.33196 3.23100
# Velocity P-wave (km/s) = 8.11231 8.29643 8.20489
#
# Compressibility (1/GPa) = 0.01193426
#
# Stress axis : x y z
#
# Youngs Moduli (GPa) = 63.31291 63.31291 56.56832
#
# Poissons Ratio (x) = 0.44350 0.32983
# Poissons Ratio (y) = 0.44350 0.32983
# Poissons Ratio (z) = 0.36916 0.36916
#
# Static dielectric constant tensor:
#      x y z
#    x 1.529420 0.000000 0.000000 
#    y 0.000000 1.529420 0.000000 
#    z 0.000000 0.000000 1.520100 
# 
# From -- ./inp_files/1138.got.cif
#   From: 2010.05.17/outbox.cif.g08.bks.cpg/sg183_1_cif.got.tgz:1138.got - 2010.05.20 12:02:58.
