data_PCOD9585468
_publ_section_title
;
Structure prediction by ZEFSAII (Michael W. Deem and Ramdas Pophale) SiO2 
 PCOD9585468
Probable space group: P -6 M 2
;
_chemical_formula_sum "Si O2"
_cell_formula_units_Z 60
_cell_length_a 22.379898
_cell_length_b 22.379898
_cell_length_c 7.646409
_cell_angle_alpha 90.000000
_cell_angle_beta 90.000000
_cell_angle_gamma 120.000000
_cell_volume 3316.686031
_symmetry_space_group_name_H-M "P -6 M 2"
_symmetry_group_IT_number 187
_symmetry_cell_setting 'hexagonal'
loop_
_space_group_symop_operation_xyz
x,y,z
-x+y,-x,-z
-y,x-y,z
x,y,-z
-x+y,-x,z
-y,x-y,-z
-y,-x,-z
-x+y,y,-z
x,x-y,-z
-x+y,y,z
x,x-y,z
-y,-x,z
loop_
_atom_site_type_symbol
_atom_site_label
_atom_site_fract_x
_atom_site_fract_y
_atom_site_fract_z
Si Si1 0.000397 0.142726 0.000000
Si Si2 0.476523 0.667200 0.500000
Si Si3 0.802700 0.054788 0.704128
Si Si4 0.083645 0.471803 0.800758
Si Si5 0.943438 0.334756 0.711520
Si Si6 0.804962 0.471646 0.713882
O O1 0.991750 0.180534 0.830433
O O2 0.935079 0.064922 0.000000
O O3 0.071217 0.142434 0.000000
O O4 0.398941 0.601060 0.500000
O O5 0.474911 0.737456 0.500000
O O6 0.515831 0.659318 0.666954
O O7 0.795346 0.033661 0.500000
O O8 0.868178 0.131823 0.716059
O O9 0.734876 0.056796 0.760897
O O10 0.068202 0.534101 0.767399
O O11 0.013269 0.400752 0.773602
O O12 0.107094 0.477091 0.000000
O O13 0.943008 0.336815 0.500000
O O14 0.874758 0.334977 0.771513
O O15 0.805039 0.471998 0.500000
O O16 0.736371 0.472741 0.769275
O O17 0.803688 0.401844 0.768766
#
# Coordination Sequence:
#
# PCOD9585468 Si02
#       6
#     6   6  12  12  12  12
#     4  10  21  38  60  84 109 140 178 222 274 334
#     4  10  21  40  64  88 113 142 178 222 274 332
#     4   9  19  35  55  80 112 145 181 229 276 325
#     4  10  21  36  56  82 114 148 184 229 273 322
#     4  10  18  31  54  77 107 147 196 230 277 329
#     4   9  16  25  42  72 109 148 191 241 291 335
#
# _framework density 18.090347000000001
#
# number of rings (size 3 to 8) (size 9 to 14) (size 15 to 20)
#    0.000    2.400    1.000    1.600    1.400    4.800 
#    0.000    1.000    0.000    2.400    0.000    0.000 
#    0.000    1.600    0.000    0.000    0.000    0.000 
#
# Total GULP energy -334967.902124 kJ/mol
# GULP energy per Si atom -5582.798369 kJ/mol
# Density = 1.804917 g / cm^3
# Si number density = 18.090347 Si / 1000 Ang^3
#
#
#
# Elastic Constant Matrix: (Units=GPa)
#
#
# Indices 1 2 3 4 5 6 
#
# 1 148.9189 87.4376 60.5093 0.0000 0.0002 0.0000
# 2 87.4376 148.9189 60.5093 0.0000 -0.0002 0.0000
# 3 60.5093 60.5093 71.4781 0.0000 0.0000 0.0000
# 4 0.0000 0.0000 0.0000 7.2413 0.0000 -0.0002
# 5 0.0002 -0.0002 0.0000 0.0000 7.2413 0.0000
# 6 0.0000 0.0000 0.0000 -0.0002 0.0000 30.7406
#
#
#
# Elastic Compliance Matrix: (Units=1/GPa)
#
#
# Indices 1 2 3 4 5 6 
#
# 1 0.011866 -0.004399 -0.006322 0.000000 -0.000001 0.000000
# 2 -0.004399 0.011866 -0.006322 0.000000 0.000001 0.000000
# 3 -0.006322 -0.006322 0.024694 0.000000 0.000000 0.000000
# 4 0.000000 0.000000 0.000000 0.138097 0.000000 0.000001
# 5 -0.000001 0.000001 0.000000 0.000000 0.138097 0.000000
# 6 0.000000 0.000000 0.000000 0.000001 0.000000 0.032530
#
#
# Mechanical properties :
#
#
# Convention : Reuss Voigt Hill
#
# Bulk Modulus (GPa) = 69.72521 87.35869 78.54195
# Shear Modulus (GPa) = 12.62577 19.76862 16.19719
#
# Velocity S-wave (km/s) = 2.64470 3.30930 2.99549
# Velocity P-wave (km/s) = 6.92476 7.93706 7.44813
#
# Compressibility (1/GPa) = 0.01434202
#
# Stress axis : x y z
#
# Youngs Moduli (GPa) = 84.27127 84.27127 40.49635
#
# Poissons Ratio (x) = 0.37068 0.25601
# Poissons Ratio (y) = 0.37068 0.25601
# Poissons Ratio (z) = 0.53274 0.53274
#
# Static dielectric constant tensor:
#      x y z
#    x 1.581870 0.000000 0.000000 
#    y 0.000000 1.581870 0.000000 
#    z 0.000000 0.000000 1.660690 
# 
# From -- ./inp_files/673.got.cif
#   From: 2010.05.17/outbox.cif.g08.bks.cpg/sg187_1_cif.got.tgz:673.got - 2010.05.20 12:09:04.
