data_PCOD9585293
_publ_section_title
;
Structure prediction by ZEFSAII (Michael W. Deem and Ramdas Pophale) SiO2 
 PCOD9585293
Probable space group: P 63 C M
;
_chemical_formula_sum "Si O2"
_cell_formula_units_Z 60
_cell_length_a 15.197380
_cell_length_b 15.197380
_cell_length_c 14.314678
_cell_angle_alpha 90.000000
_cell_angle_beta 90.000000
_cell_angle_gamma 120.000000
_cell_volume 2863.186651
_symmetry_space_group_name_H-M "P 63 C M"
_symmetry_group_IT_number 185
_symmetry_cell_setting 'hexagonal'
loop_
_space_group_symop_operation_xyz
x,y,z
x-y,x,1/2+z
-y,x-y,z
-x,-y,1/2+z
-x+y,-x,z
y,-x+y,1/2+z
-x+y,y,1/2+z
x,x-y,1/2+z
-y,-x,1/2+z
y,x,z
x-y,-y,z
-x,-x+y,z
loop_
_atom_site_type_symbol
_atom_site_label
_atom_site_fract_x
_atom_site_fract_y
_atom_site_fract_z
Si Si1 0.797939 0.221422 0.401430
Si Si2 0.877987 0.425804 0.932161
Si Si3 0.652775 0.437172 0.137092
Si Si4 0.883516 0.116709 0.771578
Si Si5 0.884022 0.650702 0.597634
O O1 0.840025 0.341014 0.391402
O O2 0.678103 0.157525 0.376002
O O3 0.860541 0.185055 0.340414
O O4 0.803691 0.191549 0.509701
O O5 0.000000 0.487343 0.946239
O O6 0.814814 0.381989 0.028709
O O7 0.568341 0.322616 0.164322
O O8 0.684757 0.552434 0.157914
O O9 0.855384 0.132349 0.666738
O O10 0.000000 0.190471 0.793184
O O11 0.853007 0.000000 0.780349
O O12 0.000000 0.709069 0.562570
#
# Coordination Sequence:
#
# PCOD9585293 Si02
#       5
#    12  12  12  12  12
#     4  11  21  42  62  95 130 166 211 256 314 383
#     4  11  19  32  60  91 125 167 204 249 306 370
#     4   9  15  32  54  84 119 155 197 239 293 359
#     4  11  25  45  66  91 123 164 217 274 326 373
#     4  10  21  39  62  89 124 162 207 262 313 373
#
# _framework density 20.955673000000001
#
# number of rings (size 3 to 8) (size 9 to 14) (size 15 to 20)
#    0.400    1.200    4.000    4.800    0.000    1.600 
#    3.600    0.000    0.000    2.400    0.000    0.000 
#    0.000    0.000    0.000    0.000    0.000    0.000 
#
# Total GULP energy -334033.750130 kJ/mol
# GULP energy per Si atom -5567.229169 kJ/mol
# Density = 2.090798 g / cm^3
# Si number density = 20.955673 Si / 1000 Ang^3
#
#
#
# Elastic Constant Matrix: (Units=GPa)
#
#
# Indices 1 2 3 4 5 6 
#
# 1 55.0913 2.6250 7.8243 0.0000 0.0000 0.0000
# 2 2.6250 55.0913 7.8243 0.0000 0.0000 0.0000
# 3 7.8243 7.8243 44.1517 0.0000 0.0000 0.0000
# 4 0.0000 0.0000 0.0000 12.4134 0.0000 0.0000
# 5 0.0000 0.0000 0.0000 0.0000 12.4134 0.0000
# 6 0.0000 0.0000 0.0000 0.0000 0.0000 26.2332
#
#
#
# Elastic Compliance Matrix: (Units=1/GPa)
#
#
# Indices 1 2 3 4 5 6 
#
# 1 0.018630 -0.000430 -0.003225 0.000000 0.000000 0.000000
# 2 -0.000430 0.018630 -0.003225 0.000000 0.000000 0.000000
# 3 -0.003225 -0.003225 0.023792 0.000000 0.000000 0.000000
# 4 0.000000 0.000000 0.000000 0.080558 0.000000 0.000000
# 5 0.000000 0.000000 0.000000 0.000000 0.080558 0.000000
# 6 0.000000 0.000000 0.000000 0.000000 0.000000 0.038120
#
#
# Mechanical properties :
#
#
# Convention : Reuss Voigt Hill
#
# Bulk Modulus (GPa) = 21.14524 21.20907 21.17715
# Shear Modulus (GPa) = 17.25249 19.28271 18.26760
#
# Velocity S-wave (km/s) = 2.87241 3.03672 2.95570
# Velocity P-wave (km/s) = 4.59492 4.73692 4.66646
#
# Compressibility (1/GPa) = 0.04729197
#
# Stress axis : x y z
#
# Youngs Moduli (GPa) = 53.67617 53.67617 42.03029
#
# Poissons Ratio (x) = 0.02306 0.13557
# Poissons Ratio (y) = 0.02306 0.13557
# Poissons Ratio (z) = 0.17313 0.17313
#
# Static dielectric constant tensor:
#      x y z
#    x 1.747040 0.000000 0.000000 
#    y 0.000000 1.747040 0.000000 
#    z 0.000000 0.000000 1.814030 
# 
# From -- ./inp_files/1342.got.cif
#   From: 2010.05.17/outbox.cif.g08.bks.cpg/sg185_cif.got.tgz:1342.got - 2010.05.20 12:05:34.
