data_PCOD9585508
_publ_section_title
;
Structure prediction by ZEFSAII (Michael W. Deem and Ramdas Pophale) SiO2 
 PCOD9585508
Probable space group: P -6 M 2
;
_chemical_formula_sum "Si O2"
_cell_formula_units_Z 78
_cell_length_a 24.173404
_cell_length_b 24.173404
_cell_length_c 8.277207
_cell_angle_alpha 90.000000
_cell_angle_beta 90.000000
_cell_angle_gamma 120.000000
_cell_volume 4188.804280
_symmetry_space_group_name_H-M "P -6 M 2"
_symmetry_group_IT_number 187
_symmetry_cell_setting 'hexagonal'
loop_
_space_group_symop_operation_xyz
x,y,z
-x+y,-x,-z
-y,x-y,z
x,y,-z
-x+y,-x,z
-y,x-y,-z
-y,-x,-z
-x+y,y,-z
x,x-y,-z
-x+y,y,z
x,x-y,z
-y,-x,z
loop_
_atom_site_type_symbol
_atom_site_label
_atom_site_fract_x
_atom_site_fract_y
_atom_site_fract_z
Si Si1 0.664151 0.206000 0.500000
Si Si2 0.132625 0.398372 0.687611
Si Si3 0.826340 0.520056 0.824107
Si Si4 0.123906 0.000123 0.194208
Si Si5 0.738783 0.968803 0.686259
Si Si6 0.333975 0.794955 0.697803
Si Si7 0.327919 0.100454 0.811977
O O1 0.736992 0.263009 0.500000
O O2 0.616904 0.233807 0.500000
O O3 0.654194 0.167510 0.335036
O O4 0.113027 0.397557 0.500000
O O5 0.199473 0.398945 0.686943
O O6 0.080654 0.330416 0.760868
O O7 0.151229 0.468160 0.754951
O O8 0.753721 0.507442 0.828928
O O9 0.870074 0.596187 0.807138
O O10 0.838811 0.500326 0.000000
O O11 0.141401 0.070701 0.253734
O O12 0.172761 0.975935 0.239496
O O13 0.123065 0.002353 0.000000
O O14 0.053320 0.946681 0.249277
O O15 0.737327 0.949911 0.500000
O O16 0.748113 0.038947 0.703568
O O17 0.333832 0.796446 0.500000
O O18 0.401520 0.803040 0.749161
O O19 0.274650 0.725351 0.743602
O O20 0.314613 0.157307 0.765701
O O21 0.307523 0.083634 0.000000
#
# Coordination Sequence:
#
# PCOD9585508 Si02
#       7
#     6  12  12  12  12  12  12
#     4  10  19  30  48  74 104 134 165 202 246 302
#     4   8  15  27  39  56  89 129 160 189 233 289
#     4   8  16  31  49  69  95 129 165 203 253 307
#     4  10  21  37  54  70  92 125 164 205 251 303
#     4  11  21  30  46  72  98 128 160 200 247 299
#     4   8  12  19  35  59  86 117 155 195 233 274
#     4   9  18  33  51  70  92 119 156 205 255 298
#
# _framework density 18.621065999999999
#
# number of rings (size 3 to 8) (size 9 to 14) (size 15 to 20)
#    0.000    2.923    0.000    3.615    1.077    4.923 
#    0.000    0.000    0.000    2.769    0.000    0.000 
#    0.000    1.846    0.000    1.846    0.000   18.154 
#
# Total GULP energy -434258.266324 kJ/mol
# GULP energy per Si atom -5567.413671 kJ/mol
# Density = 1.857868 g / cm^3
# Si number density = 18.621066 Si / 1000 Ang^3
#
#
#
# Elastic Constant Matrix: (Units=GPa)
#
#
# Indices 1 2 3 4 5 6 
#
# 1 89.1070 55.3786 18.3516 0.0000 0.0002 0.0000
# 2 55.3786 89.1070 18.3516 0.0000 -0.0002 0.0000
# 3 18.3516 18.3516 43.7770 0.0000 0.0000 0.0000
# 4 0.0000 0.0000 0.0000 20.2185 0.0000 -0.0002
# 5 0.0002 -0.0002 0.0000 0.0000 20.2185 0.0000
# 6 0.0000 0.0000 0.0000 -0.0002 0.0000 16.8642
#
#
#
# Elastic Compliance Matrix: (Units=1/GPa)
#
#
# Indices 1 2 3 4 5 6 
#
# 1 0.018697 -0.010951 -0.003247 0.000000 0.000000 0.000000
# 2 -0.010951 0.018697 -0.003247 0.000000 0.000000 0.000000
# 3 -0.003247 -0.003247 0.025565 0.000000 0.000000 0.000000
# 4 0.000000 0.000000 0.000000 0.049460 0.000000 0.000000
# 5 0.000000 0.000000 0.000000 0.000000 0.049460 0.000000
# 6 0.000000 0.000000 0.000000 0.000000 0.000000 0.059297
#
#
# Mechanical properties :
#
#
# Convention : Reuss Voigt Hill
#
# Bulk Modulus (GPa) = 35.62675 45.12828 40.37752
# Shear Modulus (GPa) = 18.83776 20.12084 19.47930
#
# Velocity S-wave (km/s) = 3.18408 3.29073 3.23784
# Velocity P-wave (km/s) = 5.71768 6.22304 5.97570
#
# Compressibility (1/GPa) = 0.02806879
#
# Stress axis : x y z
#
# Youngs Moduli (GPa) = 53.48372 53.48372 39.11525
#
# Poissons Ratio (x) = 0.58572 0.12701
# Poissons Ratio (y) = 0.58572 0.12701
# Poissons Ratio (z) = 0.17367 0.17367
#
# Static dielectric constant tensor:
#      x y z
#    x 1.650420 0.000000 0.000000 
#    y 0.000000 1.650420 0.000000 
#    z 0.000000 0.000000 1.688520 
# 
# From -- ./inp_files/1162.got.cif
#   From: 2010.05.17/outbox.cif.g08.bks.cpg/sg187_1_cif.got.tgz:1162.got - 2010.05.20 12:09:04.
