data_PCOD9585887
_publ_section_title
;
Structure prediction by ZEFSAII (Michael W. Deem and Ramdas Pophale) SiO2 
 PCOD9585887
Probable space group: P -6 C 2
;
_chemical_formula_sum "Si O2"
_cell_formula_units_Z 76
_cell_length_a 17.840051
_cell_length_b 17.840051
_cell_length_c 16.217724
_cell_angle_alpha 90.000000
_cell_angle_beta 90.000000
_cell_angle_gamma 120.000000
_cell_volume 4470.053489
_symmetry_space_group_name_H-M "P -6 C 2"
_symmetry_group_IT_number 188
_symmetry_cell_setting 'hexagonal'
loop_
_space_group_symop_operation_xyz
x,y,z
-x+y,-x,1/2-z
-y,x-y,z
x,y,1/2-z
-x+y,-x,z
-y,x-y,1/2-z
-y,-x,-z
-x+y,y,-z
x,x-y,-z
-x+y,y,1/2+z
x,x-y,1/2+z
-y,-x,1/2+z
loop_
_atom_site_type_symbol
_atom_site_label
_atom_site_fract_x
_atom_site_fract_y
_atom_site_fract_z
Si Si1 0.035769 0.478138 0.650087
Si Si2 0.148399 0.149741 0.447667
Si Si3 0.748981 0.218350 0.095464
Si Si4 0.315776 0.278810 0.152571
Si Si5 0.852499 0.411327 0.347784
Si Si6 0.382638 0.775154 0.649792
Si Si7 0.000000 0.000000 0.654380
O O1 0.038973 0.484643 0.750000
O O2 0.128474 0.550992 0.617483
O O3 0.014665 0.381010 0.631433
O O4 0.952415 0.484774 0.624486
O O5 0.089166 0.178332 0.500000
O O6 0.232965 0.225145 0.404887
O O7 0.170007 0.085004 0.500000
O O8 0.081570 0.085915 0.379894
O O9 0.751454 0.137735 0.136587
O O10 0.650623 0.198807 0.106135
O O11 0.811414 0.310427 0.136591
O O12 0.773911 0.226090 0.000000
O O13 0.293616 0.268871 0.250000
O O14 0.848380 0.426872 0.250000
O O15 0.282032 0.709004 0.626641
O O16 0.385011 0.779748 0.750000
O O17 0.000000 0.000000 0.750000
#
# Coordination Sequence:
#
# PCOD9585887 Si02
#       7
#    12  12  12  12  12  12   4
#     4   8  15  27  45  71  98 130 166 207 253 299
#     4   9  18  32  51  73  98 128 164 209 258 316
#     4  11  21  33  50  73 103 141 183 223 271 323
#     4  10  19  32  52  74 102 137 172 214 265 319
#     4  10  19  32  49  71 103 138 182 225 263 311
#     4   7  11  21  43  67  91 122 152 188 239 292
#     4   9  16  29  52  75  94 125 166 204 247 305
#
# _framework density 17.002033999999998
#
# number of rings (size 3 to 8) (size 9 to 14) (size 15 to 20)
#    0.316    2.526    0.000    4.737    0.000    0.000 
#    0.000    0.000   10.421    0.000    0.000    0.000 
#    0.000    5.053    0.000    0.000    0.000    0.000 
#
# Total GULP energy -423165.661251 kJ/mol
# GULP energy per Si atom -5567.969227 kJ/mol
# Density = 1.696334 g / cm^3
# Si number density = 17.002034 Si / 1000 Ang^3
#
#
#
# Elastic Constant Matrix: (Units=GPa)
#
#
# Indices 1 2 3 4 5 6 
#
# 1 100.2515 47.6197 4.8097 0.0182 0.0000 0.0000
# 2 47.6197 100.2515 4.8097 -0.0182 0.0000 0.0000
# 3 4.8097 4.8097 41.9448 0.0000 0.0000 0.0000
# 4 0.0182 -0.0182 0.0000 473.3384 0.0000 0.0000
# 5 0.0000 0.0000 0.0000 0.0000 473.3383 0.0182
# 6 0.0000 0.0000 0.0000 0.0000 0.0182 26.3159
#
#
#
# Elastic Compliance Matrix: (Units=1/GPa)
#
#
# Indices 1 2 3 4 5 6 
#
# 1 0.012907 -0.006093 -0.000781 -0.000001 0.000000 0.000000
# 2 -0.006093 0.012907 -0.000781 0.000001 0.000000 0.000000
# 3 -0.000781 -0.000781 0.024020 0.000000 0.000000 0.000000
# 4 -0.000001 0.000001 0.000000 0.002113 0.000000 0.000000
# 5 0.000000 0.000000 0.000000 0.000000 0.002113 -0.000001
# 6 0.000000 0.000000 0.000000 0.000000 -0.000001 0.038000
#
#
# Mechanical properties :
#
#
# Convention : Reuss Voigt Hill
#
# Bulk Modulus (GPa) = 28.96714 39.65842 34.31278
# Shear Modulus (GPa) = 42.06015 206.94578 124.50297
#
# Velocity S-wave (km/s) = 4.97916 11.04457 8.56664
# Velocity P-wave (km/s) = 7.08029 13.63890 10.86623
#
# Compressibility (1/GPa) = 0.03452187
#
# Stress axis : x y z
#
# Youngs Moduli (GPa) = 77.47924 77.47924 41.63189
#
# Poissons Ratio (x) = 0.47210 0.03253
# Poissons Ratio (y) = 0.47210 0.03253
# Poissons Ratio (z) = 0.06053 0.06053
#
# Static dielectric constant tensor:
#      x y z
#    x 1.569680 0.000000 0.000000 
#    y 0.000000 1.569680 0.000000 
#    z 0.000000 0.000000 1.585150 
# 
# From -- ./inp_files/2545.got.cif
#   From: 2010.05.17/outbox.cif.g08.bks.cpg/sg188_2_cif.got.tgz:2545.got - 2010.05.20 12:11:46.
