data_PCOD9585525
_publ_section_title
;
Structure prediction by ZEFSAII (Michael W. Deem and Ramdas Pophale) SiO2 
 PCOD9585525
Probable space group: P -6 M 2
;
_chemical_formula_sum "Si O2"
_cell_formula_units_Z 72
_cell_length_a 23.871315
_cell_length_b 23.871315
_cell_length_c 7.485462
_cell_angle_alpha 90.000000
_cell_angle_beta 90.000000
_cell_angle_gamma 120.000000
_cell_volume 3694.042852
_symmetry_space_group_name_H-M "P -6 M 2"
_symmetry_group_IT_number 187
_symmetry_cell_setting 'hexagonal'
loop_
_space_group_symop_operation_xyz
x,y,z
-x+y,-x,-z
-y,x-y,z
x,y,-z
-x+y,-x,z
-y,x-y,-z
-y,-x,-z
-x+y,y,-z
x,x-y,-z
-x+y,y,z
x,x-y,z
-y,-x,z
loop_
_atom_site_type_symbol
_atom_site_label
_atom_site_fract_x
_atom_site_fract_y
_atom_site_fract_z
Si Si1 0.601488 0.078199 0.290344
Si Si2 0.741252 0.998006 0.718356
Si Si3 0.128721 0.000024 0.718217
Si Si4 0.871603 0.614304 0.281107
Si Si5 0.613069 0.743239 0.287320
Si Si6 0.401833 0.472861 0.212779
O O1 0.605689 0.093666 0.500000
O O2 0.543667 0.087334 0.212726
O O3 0.673905 0.118470 0.218330
O O4 0.576909 0.001628 0.278374
O O5 0.739877 0.997546 0.500000
O O6 0.805095 0.996531 0.773855
O O7 0.676626 0.934162 0.781290
O O8 0.745164 0.064607 0.773827
O O9 0.128637 0.000164 0.500000
O O10 0.062871 0.937130 0.775489
O O11 0.131789 0.065895 0.775948
O O12 0.871505 0.613891 0.500000
O O13 0.805668 0.611336 0.224316
O O14 0.621879 0.752072 0.500000
O O15 0.606707 0.803354 0.217190
O O16 0.552294 0.672071 0.259375
O O17 0.456129 0.543872 0.278347
O O18 0.405968 0.472971 0.000000
#
# Coordination Sequence:
#
# PCOD9585525 Si02
#       6
#    12  12  12  12  12  12
#     4   9  16  28  47  69  93 121 156 199 241 281
#     4   9  15  24  37  58  86 116 149 190 235 274
#     4   9  15  21  29  44  72 112 154 191 228 272
#     4   9  15  23  39  64  91 119 154 193 232 279
#     4  10  19  31  49  73  99 126 157 193 233 278
#     4  10  20  33  50  72  97 124 155 193 237 285
#
# _framework density 19.490839999999999
#
# number of rings (size 3 to 8) (size 9 to 14) (size 15 to 20)
#    0.000    2.667    1.667    1.667    0.000    6.000 
#    0.000    0.000    0.000    1.167    0.000    2.333 
#    0.000    0.000    0.000    0.000    0.000    0.667 
#
# Total GULP energy -401822.194473 kJ/mol
# GULP energy per Si atom -5580.863812 kJ/mol
# Density = 1.944648 g / cm^3
# Si number density = 19.490840 Si / 1000 Ang^3
#
#
#
# Elastic Constant Matrix: (Units=GPa)
#
#
# Indices 1 2 3 4 5 6 
#
# 1 165.7664 110.9411 2.6675 0.0000 0.0001 0.0000
# 2 110.9411 165.7664 2.6675 0.0000 -0.0001 0.0000
# 3 2.6675 2.6675 54.4940 0.0000 0.0000 0.0000
# 4 0.0000 0.0000 0.0000 -84.2863 0.0000 -0.0001
# 5 0.0001 -0.0001 0.0000 0.0000 -84.2863 0.0000
# 6 0.0000 0.0000 0.0000 -0.0001 0.0000 27.4126
#
#
#
# Elastic Compliance Matrix: (Units=1/GPa)
#
#
# Indices 1 2 3 4 5 6 
#
# 1 0.010929 -0.007311 -0.000177 0.000000 0.000000 0.000000
# 2 -0.007311 0.010929 -0.000177 0.000000 0.000000 0.000000
# 3 -0.000177 -0.000177 0.018368 0.000000 0.000000 0.000000
# 4 0.000000 0.000000 0.000000 -0.011864 0.000000 0.000000
# 5 0.000000 0.000000 0.000000 0.000000 -0.011864 0.000000
# 6 0.000000 0.000000 0.000000 0.000000 0.000000 0.036480
#
#
# Mechanical properties :
#
#
# Convention : Reuss Voigt Hill
#
# Bulk Modulus (GPa) = 40.16971 68.73100 54.45036
# Shear Modulus (GPa) = 65.27008 -10.24861 27.51073
#
# Velocity S-wave (km/s) = 5.79312 -2.29556 3.76103
# Velocity P-wave (km/s) = 8.08711 5.32106 6.84525
#
# Compressibility (1/GPa) = 0.02489438
#
# Stress axis : x y z
#
# Youngs Moduli (GPa) = 91.50345 91.50345 54.44255
#
# Poissons Ratio (x) = 0.66900 0.00964
# Poissons Ratio (y) = 0.66900 0.00964
# Poissons Ratio (z) = 0.01620 0.01620
#
# Static dielectric constant tensor:
#      x y z
#    x 1.779930 0.000000 0.000000 
#    y 0.000000 1.779930 0.000000 
#    z 0.000000 0.000000 1.746230 
# 
# From -- ./inp_files/935.got.cif
#   From: 2010.05.17/outbox.cif.g08.bks.cpg/sg187_1_cif.got.tgz:935.got - 2010.05.20 12:09:04.
