data_PCOD9585341
_publ_section_title
;
Structure prediction by ZEFSAII (Michael W. Deem and Ramdas Pophale) SiO2 
 PCOD9585341
Probable space group: P 63 M C
;
_chemical_formula_sum "Si O2"
_cell_formula_units_Z 96
_cell_length_a 18.252704
_cell_length_b 18.252704
_cell_length_c 20.532779
_cell_angle_alpha 90.000000
_cell_angle_beta 90.000000
_cell_angle_gamma 120.000000
_cell_volume 5924.241941
_symmetry_space_group_name_H-M "P 63 M C"
_symmetry_group_IT_number 186
_symmetry_cell_setting 'hexagonal'
loop_
_space_group_symop_operation_xyz
x,y,z
x-y,x,1/2+z
-y,x-y,z
-x,-y,1/2+z
-x+y,-x,z
y,-x+y,1/2+z
-x+y,y,z
x,x-y,z
-y,-x,z
y,x,1/2+z
x-y,-y,1/2+z
-x,-x+y,1/2+z
loop_
_atom_site_type_symbol
_atom_site_label
_atom_site_fract_x
_atom_site_fract_y
_atom_site_fract_z
Si Si1 0.899917 0.529897 0.671210
Si Si2 0.498103 0.164323 0.056472
Si Si3 0.758934 0.067982 0.861898
Si Si4 0.766129 0.701936 0.248449
Si Si5 0.899915 0.370020 0.203205
Si Si6 0.666220 0.164322 0.817943
Si Si7 0.298064 0.233871 0.625965
Si Si8 0.067982 0.309049 0.512516
O O1 0.875866 0.437933 0.643260
O O2 0.852585 0.515424 0.740175
O O3 0.892395 0.599635 0.629634
O O4 0.000001 0.576234 0.687208
O O5 0.575473 0.150946 0.037027
O O6 0.518402 0.259201 0.042435
O O7 0.484577 0.147416 0.134239
O O8 0.408600 0.101297 0.023786
O O9 0.850717 0.149284 0.846428
O O10 0.692698 0.101297 0.850628
O O11 0.758288 0.045663 0.937207
O O12 0.736085 0.992084 0.812875
O O13 0.862521 0.725041 0.244090
O O14 0.707242 0.599634 0.244780
O O15 0.739148 0.739147 0.187207
O O16 0.875863 0.437932 0.231156
O O17 0.575473 0.150946 0.837387
O O18 0.740799 0.259201 0.831980
O O19 0.274960 0.137480 0.630324
O O20 0.263915 0.255999 0.561540
O O21 0.149285 0.298569 0.527986
#
# Coordination Sequence:
#
# PCOD9585341 Si02
#       8
#    12  12  12  12  12  12  12  12
#     4   9  16  27  47  74 103 134 168 207 248 290
#     4  10  18  30  48  74 107 141 174 207 247 297
#     4  10  21  36  52  72 103 139 171 208 257 308
#     4  11  20  33  56  81 102 130 170 213 256 302
#     4   9  16  27  47  74 103 134 168 207 248 290
#     4  10  18  30  48  74 107 141 174 207 247 297
#     4  11  20  33  56  81 102 130 170 213 256 302
#     4  10  21  36  52  72 103 139 171 208 257 308
#
# _framework density 16.204605000000001
#
# number of rings (size 3 to 8) (size 9 to 14) (size 15 to 20)
#    0.000    2.000    5.000    1.750    0.000    1.000 
#    0.000    0.000    0.000    6.500    0.000    0.000 
#    0.000    0.000    0.000    0.000    0.000    0.000 
#
# Total GULP energy -535050.618031 kJ/mol
# GULP energy per Si atom -5573.443938 kJ/mol
# Density = 1.616772 g / cm^3
# Si number density = 16.204605 Si / 1000 Ang^3
#
#
#
# Elastic Constant Matrix: (Units=GPa)
#
#
# Indices 1 2 3 4 5 6 
#
# 1 81.1631 46.8309 38.9388 0.0000 0.0000 0.0000
# 2 46.8309 81.1631 38.9388 0.0000 0.0000 0.0000
# 3 38.9388 38.9388 67.2846 0.0000 0.0000 0.0000
# 4 0.0000 0.0000 0.0000 13.7564 0.0000 0.0000
# 5 0.0000 0.0000 0.0000 0.0000 13.7564 0.0000
# 6 0.0000 0.0000 0.0000 0.0000 0.0000 17.1661
#
#
#
# Elastic Compliance Matrix: (Units=1/GPa)
#
#
# Indices 1 2 3 4 5 6 
#
# 1 0.020593 -0.008534 -0.006979 0.000000 0.000000 0.000000
# 2 -0.008534 0.020593 -0.006979 0.000000 0.000000 0.000000
# 3 -0.006979 -0.006979 0.022940 0.000000 0.000000 0.000000
# 4 0.000000 0.000000 0.000000 0.072694 0.000000 0.000000
# 5 0.000000 0.000000 0.000000 0.000000 0.072694 0.000000
# 6 0.000000 0.000000 0.000000 0.000000 0.000000 0.058254
#
#
# Mechanical properties :
#
#
# Convention : Reuss Voigt Hill
#
# Bulk Modulus (GPa) = 52.23920 53.22530 52.73225
# Shear Modulus (GPa) = 15.66749 15.92925 15.79837
#
# Velocity S-wave (km/s) = 3.11280 3.13870 3.12578
# Velocity P-wave (km/s) = 6.72507 6.78619 6.75570
#
# Compressibility (1/GPa) = 0.01914271
#
# Stress axis : x y z
#
# Youngs Moduli (GPa) = 48.55985 48.55985 43.59233
#
# Poissons Ratio (x) = 0.41441 0.30422
# Poissons Ratio (y) = 0.41441 0.30422
# Poissons Ratio (z) = 0.33889 0.33889
#
# Static dielectric constant tensor:
#      x y z
#    x 1.556180 0.000000 0.000000 
#    y 0.000000 1.556180 0.000000 
#    z 0.000000 0.000000 1.536470 
# 
# From -- ./inp_files/3602.got.cif
#   From: 2010.05.17/outbox.cif.g08.bks.cpg/sg186_2_cif.got.tgz:3602.got - 2010.05.20 12:07:08.
