data_PCOD9585075
_publ_section_title
;
Structure prediction by ZEFSAII (Michael W. Deem and Ramdas Pophale) SiO2 
 PCOD9585075
Probable space group: P 6 M M
;
_chemical_formula_sum "Si O2"
_cell_formula_units_Z 84
_cell_length_a 18.203102
_cell_length_b 18.203102
_cell_length_c 18.390684
_cell_angle_alpha 90.000000
_cell_angle_beta 90.000000
_cell_angle_gamma 120.000000
_cell_volume 5277.391571
_symmetry_space_group_name_H-M "P 6 M M"
_symmetry_group_IT_number 183
_symmetry_cell_setting 'hexagonal'
loop_
_space_group_symop_operation_xyz
x,y,z
x-y,x,z
-y,x-y,z
-x,-y,z
-x+y,-x,z
y,-x+y,z
-x+y,y,z
x,x-y,z
-y,-x,z
y,x,z
x-y,-y,z
-x,-x+y,z
loop_
_atom_site_type_symbol
_atom_site_label
_atom_site_fract_x
_atom_site_fract_y
_atom_site_fract_z
Si Si1 0.504936 0.838685 0.881270
Si Si2 0.094706 0.360714 0.586254
Si Si3 0.334156 0.493965 0.296540
Si Si4 0.266009 0.905294 0.006825
Si Si5 0.495064 0.161315 0.711808
Si Si6 0.508027 0.665810 0.456298
Si Si7 0.665810 0.157783 0.136782
O O1 0.424062 0.848124 0.899670
O O2 0.480890 0.740445 0.888914
O O3 0.582423 0.890677 0.935188
O O4 0.526616 0.861921 0.796539
O O5 0.168424 0.336849 0.584834
O O6 0.109324 0.417577 0.657891
O O7 0.110517 0.422384 0.517805
O O8 0.000000 0.283561 0.584657
O O9 0.243098 0.486196 0.296540
O O10 0.407516 0.592485 0.296540
O O11 0.342228 0.460857 0.375397
O O12 0.342228 0.460856 0.217683
O O13 0.168426 0.831575 0.008245
O O14 0.283562 0.000000 0.008423
O O15 0.311868 0.889483 0.075274
O O16 0.575938 0.151876 0.693408
O O17 0.519112 0.259556 0.704164
O O18 0.490350 0.745175 0.455089
O O19 0.421154 0.578847 0.471789
O O20 0.578848 0.157695 0.121292
O O21 0.745176 0.254825 0.137991
#
# Coordination Sequence:
#
# PCOD9585075 Si02
#       7
#    12  12  12  12  12  12  12
#     4   9  17  29  46  69  98 131 162 186 206 234
#     4  10  21  35  49  65  86 113 145 184 231 278
#     4   8  13  22  37  59  88 123 160 190 211 234
#     4  10  21  35  49  65  86 113 145 184 231 278
#     4   9  17  29  46  69  98 131 162 186 206 234
#     4   9  16  26  42  65  94 127 159 186 210 241
#     4   9  16  26  42  65  94 127 159 186 210 241
#
# _framework density 15.916954
#
# number of rings (size 3 to 8) (size 9 to 14) (size 15 to 20)
#    0.000    2.857    0.000    1.571    0.000    6.286 
#    0.000    5.000    0.000    2.857    0.000    0.000 
#    0.000    0.000    0.000    7.143    0.000   16.857 
#
# Total GULP energy -467986.492945 kJ/mol
# GULP energy per Si atom -5571.267773 kJ/mol
# Density = 1.588073 g / cm^3
# Si number density = 15.916954 Si / 1000 Ang^3
#
#
#
# Elastic Constant Matrix: (Units=GPa)
#
#
# Indices 1 2 3 4 5 6 
#
# 1 59.8220 54.4501 41.8016 0.0000 0.0000 0.0000
# 2 54.4501 59.8220 41.8016 0.0000 0.0000 0.0000
# 3 41.8016 41.8016 74.6752 0.0000 0.0000 0.0000
# 4 0.0000 0.0000 0.0000 5.2168 0.0000 0.0000
# 5 0.0000 0.0000 0.0000 0.0000 5.2168 0.0000
# 6 0.0000 0.0000 0.0000 0.0000 0.0000 2.6859
#
#
#
# Elastic Compliance Matrix: (Units=1/GPa)
#
#
# Indices 1 2 3 4 5 6 
#
# 1 0.100487 -0.085667 -0.008296 0.000000 0.000000 0.000000
# 2 -0.085667 0.100487 -0.008296 0.000000 0.000000 0.000000
# 3 -0.008296 -0.008296 0.022680 0.000000 0.000000 0.000000
# 4 0.000000 0.000000 0.000000 0.191688 0.000000 0.000000
# 5 0.000000 0.000000 0.000000 0.000000 0.191688 0.000000
# 6 0.000000 0.000000 0.000000 0.000000 0.000000 0.372308
#
#
# Mechanical properties :
#
#
# Convention : Reuss Voigt Hill
#
# Bulk Modulus (GPa) = 52.25836 52.26956 52.26396
# Shear Modulus (GPa) = 4.20085 6.37498 5.28792
#
# Velocity S-wave (km/s) = 1.62633 2.00346 1.82467
# Velocity P-wave (km/s) = 6.03571 6.18563 6.11113
#
# Compressibility (1/GPa) = 0.01913569
#
# Stress axis : x y z
#
# Youngs Moduli (GPa) = 9.95150 9.95150 44.09255
#
# Poissons Ratio (x) = 0.85251 0.36581
# Poissons Ratio (y) = 0.85251 0.36581
# Poissons Ratio (z) = 0.08256 0.08256
#
# Static dielectric constant tensor:
#      x y z
#    x 1.508420 0.000000 0.000000 
#    y 0.000000 1.508420 0.000000 
#    z 0.000000 0.000000 1.581800 
# 
# From -- ./inp_files/2919.got.cif
#   From: 2010.05.17/outbox.cif.g08.bks.cpg/sg183_2_cif.got.tgz:2919.got - 2010.05.20 12:02:58.
