data_PCOD9585949
_publ_section_title
;
Structure prediction by ZEFSAII (Michael W. Deem and Ramdas Pophale) SiO2 
 PCOD9585949
Probable space group: P -6 C 2
;
_chemical_formula_sum "Si O2"
_cell_formula_units_Z 72
_cell_length_a 15.034921
_cell_length_b 15.034921
_cell_length_c 17.966785
_cell_angle_alpha 90.000000
_cell_angle_beta 90.000000
_cell_angle_gamma 120.000000
_cell_volume 3517.250528
_symmetry_space_group_name_H-M "P -6 C 2"
_symmetry_group_IT_number 188
_symmetry_cell_setting 'hexagonal'
loop_
_space_group_symop_operation_xyz
x,y,z
-x+y,-x,1/2-z
-y,x-y,z
x,y,1/2-z
-x+y,-x,z
-y,x-y,1/2-z
-y,-x,-z
-x+y,y,-z
x,x-y,-z
-x+y,y,1/2+z
x,x-y,1/2+z
-y,-x,1/2+z
loop_
_atom_site_type_symbol
_atom_site_label
_atom_site_fract_x
_atom_site_fract_y
_atom_site_fract_z
Si Si1 0.535865 0.698034 0.111307
Si Si2 0.904368 0.235971 0.164189
Si Si3 0.759702 0.861962 0.336045
Si Si4 0.722686 0.690691 0.884384
Si Si5 0.414134 0.383974 0.527701
Si Si6 0.501081 0.643644 0.834056
O O1 0.640015 0.776645 0.153718
O O2 0.566589 0.659777 0.037737
O O3 0.468953 0.593656 0.155612
O O4 0.482057 0.766259 0.109549
O O5 0.925911 0.271892 0.250000
O O6 0.792464 0.137034 0.158312
O O7 0.922368 0.325262 0.105739
O O8 0.983055 0.193752 0.143994
O O9 0.782924 0.894774 0.250000
O O10 0.773727 0.959032 0.382573
O O11 0.609334 0.650294 0.849865
O O12 0.702242 0.640842 0.965470
O O13 0.525694 0.474307 0.500000
O O14 0.499902 0.678115 0.750000
#
# Coordination Sequence:
#
# PCOD9585949 Si02
#       6
#    12  12  12  12  12  12
#     4  10  20  34  52  84 125 170 211 245 312 361
#     4  10  22  41  66  94 127 166 214 266 321 386
#     4   9  19  36  60  91 130 164 205 259 311 372
#     4  11  21  39  63  94 124 165 214 257 317 389
#     4  11  23  43  60  90 124 169 208 260 327 381
#     4  11  20  32  57  90 129 169 217 261 298 367
#
# _framework density 20.470535999999999
#
# number of rings (size 3 to 8) (size 9 to 14) (size 15 to 20)
#    0.000    1.667    1.667    4.833    0.000    7.333 
#    1.000    0.000    0.000    2.667    0.000    0.000 
#    0.000    0.000    0.000    0.000    0.000    0.000 
#
# Total GULP energy -401282.698690 kJ/mol
# GULP energy per Si atom -5573.370815 kJ/mol
# Density = 2.042394 g / cm^3
# Si number density = 20.470536 Si / 1000 Ang^3
#
#
#
# Elastic Constant Matrix: (Units=GPa)
#
#
# Indices 1 2 3 4 5 6 
#
# 1 77.9221 39.2541 32.6640 0.0002 0.0000 0.0000
# 2 39.2541 77.9221 32.6640 -0.0002 0.0000 0.0000
# 3 32.6640 32.6640 90.7284 0.0000 0.0000 0.0000
# 4 0.0002 -0.0002 0.0000 26.6370 0.0000 0.0000
# 5 0.0000 0.0000 0.0000 0.0000 26.6370 0.0002
# 6 0.0000 0.0000 0.0000 0.0000 0.0002 19.3340
#
#
#
# Elastic Compliance Matrix: (Units=1/GPa)
#
#
# Indices 1 2 3 4 5 6 
#
# 1 0.018269 -0.007592 -0.003844 0.000000 0.000000 0.000000
# 2 -0.007592 0.018269 -0.003844 0.000000 0.000000 0.000000
# 3 -0.003844 -0.003844 0.013790 0.000000 0.000000 0.000000
# 4 0.000000 0.000000 0.000000 0.037542 0.000000 0.000000
# 5 0.000000 0.000000 0.000000 0.000000 0.037542 0.000000
# 6 0.000000 0.000000 0.000000 0.000000 0.000000 0.051722
#
#
# Mechanical properties :
#
#
# Convention : Reuss Voigt Hill
#
# Bulk Modulus (GPa) = 50.58631 50.63743 50.61187
# Shear Modulus (GPa) = 23.33358 23.98764 23.66061
#
# Velocity S-wave (km/s) = 3.37985 3.42689 3.40345
# Velocity P-wave (km/s) = 6.32428 6.35992 6.34212
#
# Compressibility (1/GPa) = 0.01976819
#
# Stress axis : x y z
#
# Youngs Moduli (GPa) = 54.73689 54.73689 72.51758
#
# Poissons Ratio (x) = 0.41556 0.27876
# Poissons Ratio (y) = 0.41556 0.27876
# Poissons Ratio (z) = 0.21041 0.21041
#
# Static dielectric constant tensor:
#      x y z
#    x 1.780860 0.000000 0.000000 
#    y 0.000000 1.780860 0.000000 
#    z 0.000000 0.000000 1.796870 
# 
# From -- ./inp_files/3201.got.cif
#   From: 2010.05.17/outbox.cif.g08.bks.cpg/sg188_2_cif.got.tgz:3201.got - 2010.05.20 12:11:46.
