data_PCOD9585929
_publ_section_title
;
Structure prediction by ZEFSAII (Michael W. Deem and Ramdas Pophale) SiO2 
 PCOD9585929
Probable space group: P -6 C 2
;
_chemical_formula_sum "Si O2"
_cell_formula_units_Z 72
_cell_length_a 24.494541
_cell_length_b 24.494541
_cell_length_c 8.862447
_cell_angle_alpha 90.000000
_cell_angle_beta 90.000000
_cell_angle_gamma 120.000000
_cell_volume 4604.928528
_symmetry_space_group_name_H-M "P -6 C 2"
_symmetry_group_IT_number 188
_symmetry_cell_setting 'hexagonal'
loop_
_space_group_symop_operation_xyz
x,y,z
-x+y,-x,1/2-z
-y,x-y,z
x,y,1/2-z
-x+y,-x,z
-y,x-y,1/2-z
-y,-x,-z
-x+y,y,-z
x,x-y,-z
-x+y,y,1/2+z
x,x-y,1/2+z
-y,-x,1/2+z
loop_
_atom_site_type_symbol
_atom_site_label
_atom_site_fract_x
_atom_site_fract_y
_atom_site_fract_z
Si Si1 0.998391 0.663019 0.071256
Si Si2 0.548732 0.334164 0.931597
Si Si3 0.851766 0.263840 0.569808
Si Si4 0.296065 0.814767 0.422750
Si Si5 0.412316 0.473023 0.932135
Si Si6 0.107872 0.327824 0.076298
O O1 0.008659 0.661438 0.250000
O O2 0.924877 0.637196 0.044570
O O3 0.018942 0.617258 0.989535
O O4 0.044058 0.733241 0.010225
O O5 0.551285 0.334186 0.750000
O O6 0.598805 0.401195 0.000000
O O7 0.564262 0.282131 0.000000
O O8 0.478317 0.311315 0.989784
O O9 0.840567 0.263245 0.750000
O O10 0.804153 0.195848 0.500000
O O11 0.304856 0.803016 0.250000
O O12 0.251933 0.748068 0.500000
O O13 0.363716 0.867159 0.485537
O O14 0.256616 0.851987 0.425655
O O15 0.413279 0.473499 0.750000
O O16 0.480273 0.519728 0.000000
O O17 0.095342 0.308226 0.250000
O O18 0.152882 0.305764 0.000000
#
# Coordination Sequence:
#
# PCOD9585929 Si02
#       6
#    12  12  12  12  12  12
#     4  10  20  33  49  69  94 123 155 191 232 280
#     4  11  21  34  51  69  89 113 148 196 250 304
#     4  10  21  36  52  70  92 122 159 196 238 289
#     4   8  15  26  41  61  82 107 139 173 212 260
#     4  10  20  32  46  66  91 119 152 192 239 287
#     4   9  16  27  45  69  95 120 147 178 214 256
#
# _framework density 15.635422
#
# number of rings (size 3 to 8) (size 9 to 14) (size 15 to 20)
#    0.000    2.333    0.000    5.667    0.000    8.000 
#    0.000    0.000    0.000    0.333    0.000    0.000 
#    0.000    0.000    0.000    0.500    0.000    8.000 
#
# Total GULP energy -401383.709710 kJ/mol
# GULP energy per Si atom -5574.773746 kJ/mol
# Density = 1.559983 g / cm^3
# Si number density = 15.635422 Si / 1000 Ang^3
#
#
#
# Elastic Constant Matrix: (Units=GPa)
#
#
# Indices 1 2 3 4 5 6 
#
# 1 70.9842 55.7446 51.8421 0.0000 0.0000 0.0000
# 2 55.7446 70.9842 51.8421 0.0000 0.0000 0.0000
# 3 51.8421 51.8421 107.6108 0.0000 0.0000 0.0000
# 4 0.0000 0.0000 0.0000 21.3319 0.0000 0.0000
# 5 0.0000 0.0000 0.0000 0.0000 21.3319 0.0000
# 6 0.0000 0.0000 0.0000 0.0000 0.0000 7.6198
#
#
#
# Elastic Compliance Matrix: (Units=1/GPa)
#
#
# Indices 1 2 3 4 5 6 
#
# 1 0.039322 -0.026297 -0.006275 0.000000 0.000000 0.000000
# 2 -0.026297 0.039322 -0.006275 0.000000 0.000000 0.000000
# 3 -0.006275 -0.006275 0.015338 0.000000 0.000000 0.000000
# 4 0.000000 0.000000 0.000000 0.046878 0.000000 0.000000
# 5 0.000000 0.000000 0.000000 0.000000 0.046878 0.000000
# 6 0.000000 0.000000 0.000000 0.000000 0.000000 0.131237
#
#
# Mechanical properties :
#
#
# Convention : Reuss Voigt Hill
#
# Bulk Modulus (GPa) = 61.39142 63.15966 62.27554
# Shear Modulus (GPa) = 12.43480 16.06674 14.25077
#
# Velocity S-wave (km/s) = 2.82316 3.20908 3.02228
# Velocity P-wave (km/s) = 7.06941 7.36300 7.21770
#
# Compressibility (1/GPa) = 0.01628892
#
# Stress axis : x y z
#
# Youngs Moduli (GPa) = 25.43135 25.43135 65.19568
#
# Poissons Ratio (x) = 0.66877 0.40908
# Poissons Ratio (y) = 0.66877 0.40908
# Poissons Ratio (z) = 0.15957 0.15957
#
# Static dielectric constant tensor:
#      x y z
#    x 1.517040 0.000000 0.000000 
#    y 0.000000 1.517040 0.000000 
#    z 0.000000 0.000000 1.529670 
# 
# From -- ./inp_files/1066.got.cif
#   From: 2010.05.17/outbox.cif.g08.bks.cpg/sg188_1_cif.got.tgz:1066.got - 2010.05.20 12:11:46.
