data_PCOD9585219
_publ_section_title
;
Structure prediction by ZEFSAII (Michael W. Deem and Ramdas Pophale) SiO2 
 PCOD9585219
Probable space group: P 63 C M
;
_chemical_formula_sum "Si O2"
_cell_formula_units_Z 60
_cell_length_a 13.810901
_cell_length_b 13.810901
_cell_length_c 16.267642
_cell_angle_alpha 90.000000
_cell_angle_beta 90.000000
_cell_angle_gamma 120.000000
_cell_volume 2687.195493
_symmetry_space_group_name_H-M "P 63 C M"
_symmetry_group_IT_number 185
_symmetry_cell_setting 'hexagonal'
loop_
_space_group_symop_operation_xyz
x,y,z
x-y,x,1/2+z
-y,x-y,z
-x,-y,1/2+z
-x+y,-x,z
y,-x+y,1/2+z
-x+y,y,1/2+z
x,x-y,1/2+z
-y,-x,1/2+z
y,x,z
x-y,-y,z
-x,-x+y,z
loop_
_atom_site_type_symbol
_atom_site_label
_atom_site_fract_x
_atom_site_fract_y
_atom_site_fract_z
Si Si1 0.873821 0.132884 0.370250
Si Si2 0.868239 0.528405 0.604441
Si Si3 0.676749 0.876654 0.188153
Si Si4 0.544388 0.416861 0.256905
Si Si5 0.137625 0.476887 0.925037
O O1 0.871007 0.147293 0.271369
O O2 0.787526 0.167156 0.407676
O O3 0.000000 0.204464 0.400307
O O4 0.821015 0.000000 0.384931
O O5 0.853957 0.635243 0.620362
O O6 0.818728 0.453976 0.685791
O O7 0.823722 0.475685 0.515804
O O8 0.000000 0.569800 0.603188
O O9 0.567941 0.880733 0.220747
O O10 0.764095 0.000000 0.157313
O O11 0.518295 0.518295 0.268122
O O12 0.560297 0.384133 0.348050
O O13 0.000000 0.410259 0.923232
#
# Coordination Sequence:
#
# PCOD9585219 Si02
#       5
#    12  12  12  12  12
#     4   9  16  28  47  72 107 150 192 228 268 322
#     4  10  18  31  54  78 102 142 188 224 276 343
#     4   9  18  32  49  74 108 142 179 229 279 321
#     4   8  16  33  51  68  98 137 174 220 277 326
#     4   8  16  30  48  72 104 139 179 233 282 322
#
# _framework density 22.328109999999999
#
# number of rings (size 3 to 8) (size 9 to 14) (size 15 to 20)
#    0.000    3.200    0.000    3.200    0.000    0.800 
#    1.200    4.000    0.000    7.600    0.000    0.000 
#    0.000    0.000    0.000    0.000    0.000    0.000 
#
# Total GULP energy -334722.753696 kJ/mol
# GULP energy per Si atom -5578.712562 kJ/mol
# Density = 2.227729 g / cm^3
# Si number density = 22.328110 Si / 1000 Ang^3
#
#
#
# Elastic Constant Matrix: (Units=GPa)
#
#
# Indices 1 2 3 4 5 6 
#
# 1 70.4024 4.9030 36.2060 0.0000 0.0000 0.0000
# 2 4.9030 70.4024 36.2060 0.0000 0.0000 0.0000
# 3 36.2060 36.2060 184.6567 0.0000 0.0000 0.0000
# 4 0.0000 0.0000 0.0000 6.0024 0.0000 0.0000
# 5 0.0000 0.0000 0.0000 0.0000 6.0024 0.0000
# 6 0.0000 0.0000 0.0000 0.0000 0.0000 32.7497
#
#
#
# Elastic Compliance Matrix: (Units=1/GPa)
#
#
# Indices 1 2 3 4 5 6 
#
# 1 0.015816 0.000549 -0.003209 0.000000 0.000000 0.000000
# 2 0.000549 0.015816 -0.003209 0.000000 0.000000 0.000000
# 3 -0.003209 -0.003209 0.006674 0.000000 0.000000 0.000000
# 4 0.000000 0.000000 0.000000 0.166600 0.000000 0.000000
# 5 0.000000 0.000000 0.000000 0.000000 0.166600 0.000000
# 6 0.000000 0.000000 0.000000 0.000000 0.000000 0.030535
#
#
# Mechanical properties :
#
#
# Convention : Reuss Voigt Hill
#
# Bulk Modulus (GPa) = 37.63875 53.34351 45.49113
# Shear Modulus (GPa) = 11.83055 25.49398 18.66227
#
# Velocity S-wave (km/s) = 2.30434 3.38270 2.89419
# Velocity P-wave (km/s) = 4.89630 6.26095 5.62020
#
# Compressibility (1/GPa) = 0.02656837
#
# Stress axis : x y z
#
# Youngs Moduli (GPa) = 63.22723 63.22723 149.84175
#
# Poissons Ratio (x) = -0.03469 0.48079
# Poissons Ratio (y) = -0.03469 0.48079
# Poissons Ratio (z) = 0.20287 0.20287
#
# Static dielectric constant tensor:
#      x y z
#    x 1.837340 0.000000 0.000000 
#    y 0.000000 1.837340 0.000000 
#    z 0.000000 0.000000 1.844550 
# 
# From -- ./inp_files/1348.got.cif
#   From: 2010.05.17/outbox.cif.g08.bks.cpg/sg185_cif.got.tgz:1348.got - 2010.05.20 12:05:34.
