data_PCOD9585426
_publ_section_title
;
Structure prediction by ZEFSAII (Michael W. Deem and Ramdas Pophale) SiO2 
 PCOD9585426
Probable space group: P -6 M 2
;
_chemical_formula_sum "Si O2"
_cell_formula_units_Z 90
_cell_length_a 22.508031
_cell_length_b 22.508031
_cell_length_c 14.291083
_cell_angle_alpha 90.000000
_cell_angle_beta 90.000000
_cell_angle_gamma 120.000000
_cell_volume 6270.046801
_symmetry_space_group_name_H-M "P -6 M 2"
_symmetry_group_IT_number 187
_symmetry_cell_setting 'hexagonal'
loop_
_space_group_symop_operation_xyz
x,y,z
-x+y,-x,-z
-y,x-y,z
x,y,-z
-x+y,-x,z
-y,x-y,-z
-y,-x,-z
-x+y,y,-z
x,x-y,-z
-x+y,y,z
x,x-y,z
-y,-x,z
loop_
_atom_site_type_symbol
_atom_site_label
_atom_site_fract_x
_atom_site_fract_y
_atom_site_fract_z
Si Si1 0.253878 0.885214 0.267452
Si Si2 0.369999 0.252410 0.886852
Si Si3 0.939317 0.403458 0.886871
Si Si4 0.757398 0.950938 0.393659
Si Si5 0.861231 0.861732 0.768688
Si Si6 0.333833 0.807857 0.000000
Si Si7 0.520460 0.903884 0.180742
Si Si8 0.234888 0.972015 0.889552
O O1 0.191765 0.808236 0.279937
O O2 0.247259 0.932098 0.347451
O O3 0.326267 0.889219 0.257570
O O4 0.241016 0.915445 0.171124
O O5 0.369027 0.184514 0.850759
O O6 0.432857 0.325325 0.854850
O O7 0.300671 0.254284 0.867540
O O8 0.374071 0.250852 0.000000
O O9 0.916179 0.458090 0.859334
O O10 0.017093 0.433872 0.851762
O O11 0.942146 0.403104 0.000000
O O12 0.765726 0.975474 0.500000
O O13 0.757349 0.878675 0.393472
O O14 0.818416 0.998380 0.323102
O O15 0.927387 0.854774 0.784337
O O16 0.806747 0.829955 0.852992
O O17 0.881125 0.940563 0.756136
O O18 0.347269 0.854820 0.091496
O O19 0.259429 0.740572 0.000000
O O20 0.394270 0.788540 0.000000
O O21 0.446736 0.893472 0.209662
O O22 0.232787 0.959286 0.000000
#
# Coordination Sequence:
#
# PCOD9585426 Si02
#       8
#    12  12  12  12  12   6  12  12
#     4  10  19  29  45  68  87 111 147 182 220 266
#     4   9  16  25  38  55  76 104 139 175 212 250
#     4   9  15  25  39  54  76 105 139 173 204 239
#     4   8  16  32  50  66  84 104 133 179 228 267
#     4  10  20  32  45  62  85 115 150 184 222 269
#     4  10  19  28  38  54  83 122 156 184 216 254
#     4  10  18  28  40  59  86 114 146 182 213 246
#     4  10  19  30  42  60  87 117 150 189 225 254
#
# _framework density 14.353961
#
# number of rings (size 3 to 8) (size 9 to 14) (size 15 to 20)
#    0.000    2.533    2.000    2.200    0.933    2.133 
#    0.000    0.000    0.000    2.533    0.000    1.867 
#    0.000    0.000    0.000    0.000    0.000    0.000 
#
# Total GULP energy -501344.638847 kJ/mol
# GULP energy per Si atom -5570.495987 kJ/mol
# Density = 1.432129 g / cm^3
# Si number density = 14.353961 Si / 1000 Ang^3
#
#
#
# Elastic Constant Matrix: (Units=GPa)
#
#
# Indices 1 2 3 4 5 6 
#
# 1 51.9273 11.8072 -6.7338 0.0000 -0.0002 0.0000
# 2 11.8072 51.9273 -6.7338 0.0000 0.0002 0.0000
# 3 -6.7338 -6.7338 25.0057 0.0000 0.0000 0.0000
# 4 0.0000 0.0000 0.0000 7.3902 0.0000 0.0002
# 5 -0.0002 0.0002 0.0000 0.0000 7.3902 0.0000
# 6 0.0000 0.0000 0.0000 0.0002 0.0000 20.0600
#
#
#
# Elastic Compliance Matrix: (Units=1/GPa)
#
#
# Indices 1 2 3 4 5 6 
#
# 1 0.020781 -0.004144 0.004480 0.000000 0.000001 0.000000
# 2 -0.004144 0.020781 0.004480 0.000000 -0.000001 0.000000
# 3 0.004480 0.004480 0.042404 0.000000 0.000000 0.000000
# 4 0.000000 0.000000 0.000000 0.135313 0.000000 -0.000001
# 5 0.000001 -0.000001 0.000000 0.000000 0.135313 0.000000
# 6 0.000000 0.000000 0.000000 -0.000001 0.000000 0.049850
#
#
# Mechanical properties :
#
#
# Convention : Reuss Voigt Hill
#
# Bulk Modulus (GPa) = 10.68400 13.94883 12.31642
# Shear Modulus (GPa) = 11.73681 15.66950 13.70315
#
# Velocity S-wave (km/s) = 2.86260 3.30760 3.09311
# Velocity P-wave (km/s) = 4.28781 4.93212 4.62121
#
# Compressibility (1/GPa) = 0.09359790
#
# Stress axis : x y z
#
# Youngs Moduli (GPa) = 48.12095 48.12095 23.58281
#
# Poissons Ratio (x) = 0.19942 -0.10565
# Poissons Ratio (y) = 0.19942 -0.10565
# Poissons Ratio (z) = -0.21559 -0.21559
#
# Static dielectric constant tensor:
#      x y z
#    x 1.486000 0.000000 0.000000 
#    y 0.000000 1.486000 0.000000 
#    z 0.000000 0.000000 1.456460 
# 
# From -- ./inp_files/2756.got.cif
#   From: 2010.05.17/outbox.cif.g08.bks.cpg/sg187_2_cif.got.tgz:2756.got - 2010.05.20 12:09:04.
