data_PCOD9585509
_publ_section_title
;
Structure prediction by ZEFSAII (Michael W. Deem and Ramdas Pophale) SiO2 
 PCOD9585509
Probable space group: P -6 M 2
;
_chemical_formula_sum "Si O2"
_cell_formula_units_Z 78
_cell_length_a 23.989323
_cell_length_b 23.989323
_cell_length_c 8.493627
_cell_angle_alpha 90.000000
_cell_angle_beta 90.000000
_cell_angle_gamma 120.000000
_cell_volume 4233.112403
_symmetry_space_group_name_H-M "P -6 M 2"
_symmetry_group_IT_number 187
_symmetry_cell_setting 'hexagonal'
loop_
_space_group_symop_operation_xyz
x,y,z
-x+y,-x,-z
-y,x-y,z
x,y,-z
-x+y,-x,z
-y,x-y,-z
-y,-x,-z
-x+y,y,-z
x,x-y,-z
-x+y,y,z
x,x-y,z
-y,-x,z
loop_
_atom_site_type_symbol
_atom_site_label
_atom_site_fract_x
_atom_site_fract_y
_atom_site_fract_z
Si Si1 0.664260 0.205735 0.500000
Si Si2 0.133381 0.400623 0.683786
Si Si3 0.823268 0.513571 0.172874
Si Si4 0.126216 0.000195 0.189601
Si Si5 0.737775 0.972408 0.682775
Si Si6 0.333967 0.795128 0.810435
Si Si7 0.332640 0.102063 0.818757
O O1 0.738452 0.261549 0.500000
O O2 0.617589 0.235177 0.500000
O O3 0.652929 0.168410 0.664911
O O4 0.118428 0.403257 0.500000
O O5 0.199585 0.399169 0.693605
O O6 0.078719 0.332194 0.750991
O O7 0.149059 0.467837 0.761373
O O8 0.749308 0.498616 0.169291
O O9 0.866555 0.590660 0.184132
O O10 0.835484 0.493394 0.000000
O O11 0.054820 0.945181 0.238765
O O12 0.176439 0.978108 0.242069
O O13 0.141561 0.070781 0.246236
O O14 0.127379 0.002400 0.000000
O O15 0.737258 0.955581 0.500000
O O16 0.746096 0.042440 0.705290
O O17 0.401520 0.803039 0.754144
O O18 0.273380 0.726621 0.756229
O O19 0.334194 0.793069 0.000000
O O20 0.318078 0.159039 0.780120
O O21 0.311094 0.081657 0.000000
#
# Coordination Sequence:
#
# PCOD9585509 Si02
#       7
#     6  12  12  12  12  12  12
#     4  10  19  30  48  74 104 136 169 206 250 308
#     4   9  19  35  50  68 101 141 174 206 247 298
#     4   8  16  31  49  70  98 132 167 207 259 313
#     4  10  21  37  55  74 100 137 179 220 264 317
#     4  11  22  33  50  77 105 133 169 216 266 313
#     4   9  17  30  51  79 107 132 162 204 253 303
#     4   9  18  33  52  74  99 126 162 212 263 310
#
# _framework density 18.426158000000001
#
# number of rings (size 3 to 8) (size 9 to 14) (size 15 to 20)
#    0.000    2.615    0.000    2.692    1.077    6.462 
#    0.000    1.538    0.000    3.692    0.000    0.000 
#    0.000    0.000    0.000    0.000    0.000    0.000 
#
# Total GULP energy -434482.202541 kJ/mol
# GULP energy per Si atom -5570.284648 kJ/mol
# Density = 1.838422 g / cm^3
# Si number density = 18.426158 Si / 1000 Ang^3
#
#
#
# Elastic Constant Matrix: (Units=GPa)
#
#
# Indices 1 2 3 4 5 6 
#
# 1 86.5762 51.1120 24.7468 0.0000 -0.0004 0.0000
# 2 51.1120 86.5762 24.7468 0.0000 0.0004 0.0000
# 3 24.7468 24.7468 57.0797 0.0000 0.0000 0.0000
# 4 0.0000 0.0000 0.0000 18.4652 0.0000 0.0004
# 5 -0.0004 0.0004 0.0000 0.0000 18.4652 0.0000
# 6 0.0000 0.0000 0.0000 0.0004 0.0000 17.7321
#
#
#
# Elastic Compliance Matrix: (Units=1/GPa)
#
#
# Indices 1 2 3 4 5 6 
#
# 1 0.018401 -0.009797 -0.003730 0.000000 0.000001 0.000000
# 2 -0.009797 0.018401 -0.003730 0.000000 -0.000001 0.000000
# 3 -0.003730 -0.003730 0.020754 0.000000 0.000000 0.000000
# 4 0.000000 0.000000 0.000000 0.054156 0.000000 -0.000001
# 5 0.000001 -0.000001 0.000000 0.000000 0.054156 0.000000
# 6 0.000000 0.000000 0.000000 -0.000001 0.000000 0.056395
#
#
# Mechanical properties :
#
#
# Convention : Reuss Voigt Hill
#
# Bulk Modulus (GPa) = 43.40164 47.93815 45.66989
# Shear Modulus (GPa) = 18.90675 19.57427 19.24051
#
# Velocity S-wave (km/s) = 3.20673 3.26284 3.23491
# Velocity P-wave (km/s) = 6.10871 6.34568 6.22832
#
# Compressibility (1/GPa) = 0.02304060
#
# Stress axis : x y z
#
# Youngs Moduli (GPa) = 54.34633 54.34633 48.18418
#
# Poissons Ratio (x) = 0.53243 0.17973
# Poissons Ratio (y) = 0.53243 0.17973
# Poissons Ratio (z) = 0.20272 0.20272
#
# Static dielectric constant tensor:
#      x y z
#    x 1.635650 0.000000 0.000000 
#    y 0.000000 1.635650 0.000000 
#    z 0.000000 0.000000 1.678030 
# 
# From -- ./inp_files/1163.got.cif
#   From: 2010.05.17/outbox.cif.g08.bks.cpg/sg187_1_cif.got.tgz:1163.got - 2010.05.20 12:09:04.
