data_PCOD9585495
_publ_section_title
;
Structure prediction by ZEFSAII (Michael W. Deem and Ramdas Pophale) SiO2 
 PCOD9585495
Probable space group: P -6 M 2
;
_chemical_formula_sum "Si O2"
_cell_formula_units_Z 72
_cell_length_a 23.490442
_cell_length_b 23.490442
_cell_length_c 7.484501
_cell_angle_alpha 90.000000
_cell_angle_beta 90.000000
_cell_angle_gamma 120.000000
_cell_volume 3576.645192
_symmetry_space_group_name_H-M "P -6 M 2"
_symmetry_group_IT_number 187
_symmetry_cell_setting 'hexagonal'
loop_
_space_group_symop_operation_xyz
x,y,z
-x+y,-x,-z
-y,x-y,z
x,y,-z
-x+y,-x,z
-y,x-y,-z
-y,-x,-z
-x+y,y,-z
x,x-y,-z
-x+y,y,z
x,x-y,z
-y,-x,z
loop_
_atom_site_type_symbol
_atom_site_label
_atom_site_fract_x
_atom_site_fract_y
_atom_site_fract_z
Si Si1 0.728023 0.799451 0.218845
Si Si2 0.797346 0.074668 0.215371
Si Si3 0.326695 0.921704 0.209392
Si Si4 0.408922 0.338563 0.709888
Si Si5 0.333706 0.797413 0.781343
Si Si6 0.666743 0.202088 0.281417
O O1 0.739050 0.869525 0.276586
O O2 0.780742 0.778371 0.275507
O O3 0.657451 0.739807 0.280970
O O4 0.727512 0.799218 0.000000
O O5 0.864368 0.135633 0.283736
O O6 0.734625 0.082375 0.260401
O O7 0.800800 0.074964 0.000000
O O8 0.340261 0.865841 0.281231
O O9 0.384997 0.996882 0.223185
O O10 0.313785 0.907255 0.000000
O O11 0.418551 0.350542 0.500000
O O12 0.475005 0.342536 0.781591
O O13 0.395158 0.790316 0.722615
O O14 0.264538 0.735463 0.727221
O O15 0.334792 0.797608 0.000000
O O16 0.667888 0.201647 0.500000
O O17 0.605028 0.210055 0.228610
O O18 0.735898 0.264103 0.224496
#
# Coordination Sequence:
#
# PCOD9585495 Si02
#       6
#    12  12  12  12  12  12
#     4   8  13  23  41  62  83 111 148 184 214 251
#     4   9  17  29  46  68  93 121 151 181 219 271
#     4   9  17  29  45  66  91 120 152 186 229 277
#     4  10  19  30  46  69  93 116 146 187 231 270
#     4   9  16  26  43  68  96 124 156 195 235 275
#     4   9  17  29  45  64  86 113 145 180 218 262
#
# _framework density 20.130597000000002
#
# number of rings (size 3 to 8) (size 9 to 14) (size 15 to 20)
#    0.000    3.000    0.000    2.833    0.000    5.000 
#    0.000    0.000    0.000   14.333    0.000    2.333 
#    0.000    6.667    0.000    0.500    0.000    2.667 
#
# Total GULP energy -401678.235133 kJ/mol
# GULP energy per Si atom -5578.864377 kJ/mol
# Density = 2.008478 g / cm^3
# Si number density = 20.130597 Si / 1000 Ang^3
#
#
#
# Elastic Constant Matrix: (Units=GPa)
#
#
# Indices 1 2 3 4 5 6 
#
# 1 121.7385 81.7157 -21.7732 0.0000 -0.0011 0.0000
# 2 81.7157 121.7385 -21.7732 0.0000 0.0011 0.0000
# 3 -21.7732 -21.7732 40.6609 0.0000 0.0000 0.0000
# 4 0.0000 0.0000 0.0000 7.9854 0.0000 0.0011
# 5 -0.0011 0.0011 0.0000 0.0000 7.9854 0.0000
# 6 0.0000 0.0000 0.0000 0.0011 0.0000 20.0114
#
#
#
# Elastic Compliance Matrix: (Units=1/GPa)
#
#
# Indices 1 2 3 4 5 6 
#
# 1 0.015269 -0.009717 0.002973 0.000000 0.000003 0.000000
# 2 -0.009717 0.015269 0.002973 0.000000 -0.000003 0.000000
# 3 0.002973 0.002973 0.027777 0.000000 0.000000 0.000000
# 4 0.000000 0.000000 0.000000 0.125228 0.000000 -0.000007
# 5 0.000003 -0.000003 0.000000 0.000000 0.125228 0.000000
# 6 0.000000 0.000000 0.000000 -0.000007 0.000000 0.049972
#
#
# Mechanical properties :
#
#
# Convention : Reuss Voigt Hill
#
# Bulk Modulus (GPa) = 19.69640 40.05293 29.87467
# Shear Modulus (GPa) = 13.04768 23.59435 18.32102
#
# Velocity S-wave (km/s) = 2.54864 3.42726 3.02007
# Velocity P-wave (km/s) = 4.29725 5.96667 5.19940
#
# Compressibility (1/GPa) = 0.05077070
#
# Stress axis : x y z
#
# Youngs Moduli (GPa) = 65.49403 65.49403 36.00062
#
# Poissons Ratio (x) = 0.63642 -0.10702
# Poissons Ratio (y) = 0.63642 -0.10702
# Poissons Ratio (z) = -0.19469 -0.19469
#
# Static dielectric constant tensor:
#      x y z
#    x 1.644500 0.000000 0.000000 
#    y 0.000000 1.644500 0.000000 
#    z 0.000000 0.000000 1.782460 
# 
# From -- ./inp_files/962.got.cif
#   From: 2010.05.17/outbox.cif.g08.bks.cpg/sg187_1_cif.got.tgz:962.got - 2010.05.20 12:09:04.
