data_PCOD9585043
_publ_section_title
;
Structure prediction by ZEFSAII (Michael W. Deem and Ramdas Pophale) SiO2 
 PCOD9585043
Probable space group: P 6 M M
;
_chemical_formula_sum "Si O2"
_cell_formula_units_Z 84
_cell_length_a 21.617203
_cell_length_b 21.617203
_cell_length_c 12.561115
_cell_angle_alpha 90.000000
_cell_angle_beta 90.000000
_cell_angle_gamma 120.000000
_cell_volume 5083.441443
_symmetry_space_group_name_H-M "P 6 M M"
_symmetry_group_IT_number 183
_symmetry_cell_setting 'hexagonal'
loop_
_space_group_symop_operation_xyz
x,y,z
x-y,x,z
-y,x-y,z
-x,-y,z
-x+y,-x,z
y,-x+y,z
-x+y,y,z
x,x-y,z
-y,-x,z
y,x,z
x-y,-y,z
-x,-x+y,z
loop_
_atom_site_type_symbol
_atom_site_label
_atom_site_fract_x
_atom_site_fract_y
_atom_site_fract_z
Si Si1 0.452366 0.154893 0.122690
Si Si2 0.078747 0.780767 0.486509
Si Si3 0.665365 0.478360 0.722754
Si Si4 0.080671 0.782633 0.230557
Si Si5 0.359254 0.442697 0.528858
Si Si6 0.334714 0.809218 0.344760
Si Si7 0.533580 0.918160 0.912517
O O1 0.462372 0.231186 0.086776
O O2 0.373756 0.110334 0.173806
O O3 0.505631 0.170710 0.221421
O O4 0.459984 0.111833 0.026049
O O5 0.143377 0.856624 0.519507
O O6 0.083146 0.774060 0.358243
O O7 0.085095 0.716008 0.535576
O O8 0.000000 0.766768 0.510144
O O9 0.742411 0.484822 0.708557
O O10 0.604157 0.395844 0.740298
O O11 0.640921 0.506678 0.621403
O O12 0.662751 0.524852 0.821470
O O13 0.135213 0.864788 0.205599
O O14 0.000000 0.754929 0.199385
O O15 0.420355 0.420355 0.534328
O O16 0.357846 0.479777 0.418399
O O17 0.391784 0.783567 0.362552
O O18 0.254382 0.745619 0.370501
O O19 0.459903 0.919805 0.909768
O O20 0.596160 0.000000 0.894761
#
# Coordination Sequence:
#
# PCOD9585043 Si02
#       7
#    12  12  12  12  12  12  12
#     4  10  19  32  51  73  99 130 167 206 246 293
#     4   9  16  28  46  69  96 126 159 195 238 286
#     4  11  23  39  57  74  96 127 166 207 250 302
#     4   9  16  27  45  68  95 125 158 196 238 287
#     4  11  22  35  53  75 100 129 164 208 255 302
#     4  11  22  35  51  73 103 136 169 206 250 300
#     4  10  21  36  53  73  98 127 161 204 251 298
#
# _framework density 16.524239999999999
#
# number of rings (size 3 to 8) (size 9 to 14) (size 15 to 20)
#    0.000    1.857    1.429    3.714    0.000    2.286 
#    0.000    1.429    0.000    4.857    0.000    2.000 
#    0.000    0.000    0.000    0.000    0.000    0.000 
#
# Total GULP energy -468587.919819 kJ/mol
# GULP energy per Si atom -5578.427617 kJ/mol
# Density = 1.648663 g / cm^3
# Si number density = 16.524240 Si / 1000 Ang^3
#
#
#
# Elastic Constant Matrix: (Units=GPa)
#
#
# Indices 1 2 3 4 5 6 
#
# 1 77.3915 49.1462 24.2982 0.0000 0.0000 0.0000
# 2 49.1462 77.3915 24.2982 0.0000 0.0000 0.0000
# 3 24.2982 24.2982 45.2078 0.0000 0.0000 0.0000
# 4 0.0000 0.0000 0.0000 16.9190 0.0000 0.0000
# 5 0.0000 0.0000 0.0000 0.0000 16.9190 0.0000
# 6 0.0000 0.0000 0.0000 0.0000 0.0000 14.1226
#
#
#
# Elastic Compliance Matrix: (Units=1/GPa)
#
#
# Indices 1 2 3 4 5 6 
#
# 1 0.022681 -0.012723 -0.005352 0.000000 0.000000 0.000000
# 2 -0.012723 0.022681 -0.005352 0.000000 0.000000 0.000000
# 3 -0.005352 -0.005352 0.027874 0.000000 0.000000 0.000000
# 4 0.000000 0.000000 0.000000 0.059105 0.000000 0.000000
# 5 0.000000 0.000000 0.000000 0.000000 0.059105 0.000000
# 6 0.000000 0.000000 0.000000 0.000000 0.000000 0.070808
#
#
# Mechanical properties :
#
#
# Convention : Reuss Voigt Hill
#
# Bulk Modulus (GPa) = 37.90639 43.94180 40.92409
# Shear Modulus (GPa) = 15.72804 16.40868 16.06836
#
# Velocity S-wave (km/s) = 3.08850 3.15462 3.12173
# Velocity P-wave (km/s) = 5.97563 6.31814 6.14927
#
# Compressibility (1/GPa) = 0.02638078
#
# Stress axis : x y z
#
# Youngs Moduli (GPa) = 44.08930 44.08930 35.87615
#
# Poissons Ratio (x) = 0.56094 0.19202
# Poissons Ratio (y) = 0.56094 0.19202
# Poissons Ratio (z) = 0.23598 0.23598
#
# Static dielectric constant tensor:
#      x y z
#    x 1.558800 0.000000 0.000000 
#    y 0.000000 1.558800 0.000000 
#    z 0.000000 0.000000 1.554200 
# 
# From -- ./inp_files/1742.got.cif
#   From: 2010.05.17/outbox.cif.g08.bks.cpg/sg183_1_cif.got.tgz:1742.got - 2010.05.20 12:02:58.
