data_PCOD9585739
_publ_section_title
;
Structure prediction by ZEFSAII (Michael W. Deem and Ramdas Pophale) SiO2 
 PCOD9585739
Probable space group: P -6 M 2
;
_chemical_formula_sum "Si O2"
_cell_formula_units_Z 50
_cell_length_a 11.949376
_cell_length_b 11.949376
_cell_length_c 22.148306
_cell_angle_alpha 90.000000
_cell_angle_beta 90.000000
_cell_angle_gamma 120.000000
_cell_volume 2738.808081
_symmetry_space_group_name_H-M "P -6 M 2"
_symmetry_group_IT_number 187
_symmetry_cell_setting 'hexagonal'
loop_
_space_group_symop_operation_xyz
x,y,z
-x+y,-x,-z
-y,x-y,z
x,y,-z
-x+y,-x,z
-y,x-y,-z
-y,-x,-z
-x+y,y,-z
x,x-y,-z
-x+y,y,z
x,x-y,z
-y,-x,z
loop_
_atom_site_type_symbol
_atom_site_label
_atom_site_fract_x
_atom_site_fract_y
_atom_site_fract_z
Si Si1 0.815798 0.184203 0.927671
Si Si2 0.738747 0.740435 0.250932
Si Si3 0.665397 0.067661 0.374955
Si Si4 0.666667 0.333334 0.073207
Si Si5 0.265768 0.998442 0.500000
Si Si6 0.596335 0.666263 0.870575
O O1 0.740679 0.259322 0.907115
O O2 0.961024 0.274082 0.903762
O O3 0.818381 0.181620 0.000000
O O4 0.860300 0.720599 0.238741
O O5 0.689340 0.690237 0.318113
O O6 0.629649 0.668230 0.200364
O O7 0.781091 0.890546 0.246459
O O8 0.535523 0.071045 0.365781
O O9 0.787529 0.212472 0.376941
O O10 0.663476 0.003738 0.438906
O O11 0.666667 0.333334 0.000000
O O12 0.252818 0.126409 0.500000
O O13 0.126607 0.873394 0.500000
O O14 0.574972 0.787486 0.882329
O O15 0.469644 0.530357 0.887149
#
# Coordination Sequence:
#
# PCOD9585739 Si02
#       6
#     6  12  12   2   6  12
#     4  11  22  40  64  90 118 152 198 248 296 350
#     4  10  20  35  57  84 115 150 191 240 291 344
#     4  10  20  34  53  78 108 143 183 230 281 335
#     4   9  18  36  66  90 114 147 192 250 296 343
#     4  10  20  34  54  78 106 140 180 228 280 336
#     4  11  23  40  62  90 124 161 200 244 298 358
#
# _framework density 18.256118000000001
#
# number of rings (size 3 to 8) (size 9 to 14) (size 15 to 20)
#    0.000    1.680    2.400    2.640    0.000    0.480 
#    0.720    3.600    0.000    9.600    0.000    0.000 
#    0.000    0.000    0.000    0.000    0.000    0.000 
#
# Total GULP energy -279054.971491 kJ/mol
# GULP energy per Si atom -5581.099430 kJ/mol
# Density = 1.821457 g / cm^3
# Si number density = 18.256118 Si / 1000 Ang^3
#
#
#
# Elastic Constant Matrix: (Units=GPa)
#
#
# Indices 1 2 3 4 5 6 
#
# 1 110.3328 -9.7070 20.8436 0.0000 0.0013 -0.0001
# 2 -9.7070 110.3328 20.8436 0.0000 -0.0013 0.0001
# 3 20.8436 20.8436 70.4556 0.0000 0.0000 0.0000
# 4 0.0000 0.0000 0.0000 20.3716 0.0000 -0.0013
# 5 0.0013 -0.0013 0.0000 0.0000 20.3716 0.0000
# 6 -0.0001 0.0001 0.0000 -0.0013 0.0000 60.0199
#
#
#
# Elastic Compliance Matrix: (Units=1/GPa)
#
#
# Indices 1 2 3 4 5 6 
#
# 1 0.009828 0.001498 -0.003351 0.000000 -0.000001 0.000000
# 2 0.001498 0.009828 -0.003351 0.000000 0.000001 0.000000
# 3 -0.003351 -0.003351 0.016176 0.000000 0.000000 0.000000
# 4 0.000000 0.000000 0.000000 0.049088 0.000000 0.000001
# 5 -0.000001 0.000001 0.000000 0.000000 0.049088 0.000000
# 6 0.000000 0.000000 0.000000 0.000001 0.000000 0.016661
#
#
# Mechanical properties :
#
#
# Convention : Reuss Voigt Hill
#
# Bulk Modulus (GPa) = 39.33129 39.45351 39.39240
# Shear Modulus (GPa) = 29.48950 37.42867 33.45908
#
# Velocity S-wave (km/s) = 4.02347 4.53282 4.28572
# Velocity P-wave (km/s) = 6.57079 7.00381 6.79075
#
# Compressibility (1/GPa) = 0.02542505
#
# Stress axis : x y z
#
# Youngs Moduli (GPa) = 101.74764 101.74758 61.82052
#
# Poissons Ratio (x) = -0.15238 0.20714
# Poissons Ratio (y) = -0.15238 0.20714
# Poissons Ratio (z) = 0.34092 0.34092
#
# Static dielectric constant tensor:
#      x y z
#    x 1.589450 0.000000 0.000000 
#    y 0.000000 1.589450 0.000000 
#    z 0.000000 0.000000 1.638510 
# 
# From -- ./inp_files/3473.got.cif
#   From: 2010.05.17/outbox.cif.g08.bks.cpg/sg187_2_cif.got.tgz:3473.got - 2010.05.20 12:09:04.
