data_PCOD9585969
_publ_section_title
;
Structure prediction by ZEFSAII (Michael W. Deem and Ramdas Pophale) SiO2 
 PCOD9585969
Probable space group: P -6 C 2
;
_chemical_formula_sum "Si O2"
_cell_formula_units_Z 52
_cell_length_a 11.762049
_cell_length_b 11.762049
_cell_length_c 20.310011
_cell_angle_alpha 90.000000
_cell_angle_beta 90.000000
_cell_angle_gamma 120.000000
_cell_volume 2433.362209
_symmetry_space_group_name_H-M "P -6 C 2"
_symmetry_group_IT_number 188
_symmetry_cell_setting 'hexagonal'
loop_
_space_group_symop_operation_xyz
x,y,z
-x+y,-x,1/2-z
-y,x-y,z
x,y,1/2-z
-x+y,-x,z
-y,x-y,1/2-z
-y,-x,-z
-x+y,y,-z
x,x-y,-z
-x+y,y,1/2+z
x,x-y,1/2+z
-y,-x,1/2+z
loop_
_atom_site_type_symbol
_atom_site_label
_atom_site_fract_x
_atom_site_fract_y
_atom_site_fract_z
Si Si1 0.996355 0.263493 0.500796
Si Si2 0.658347 0.597142 0.859067
Si Si3 0.396606 0.074476 0.360566
Si Si4 0.204506 0.428760 0.321047
Si Si5 0.333335 0.666668 0.580636
O O1 0.144031 0.288063 0.500000
O O2 0.969224 0.326044 0.564755
O O3 0.955659 0.316135 0.437557
O O4 0.892845 0.107156 0.500000
O O5 0.531188 0.456123 0.847577
O O6 0.789551 0.594366 0.841823
O O7 0.638223 0.706734 0.823476
O O8 0.277418 0.949244 0.326448
O O9 0.224758 0.496103 0.250000
O O10 0.244027 0.525950 0.383937
O O11 0.333334 0.666667 0.500000
#
# Coordination Sequence:
#
# PCOD9585969 Si02
#       5
#    12  12  12  12   4
#     4  10  20  36  62  98 138 181 235 298 360 422
#     4  11  24  42  68  99 140 186 237 292 356 427
#     4  11  24  42  68  99 140 186 237 292 356 427
#     4  12  26  46  72 106 146 183 232 297 360 421
#     4  12  28  44  82 108 142 179 238 291 358 431
#
# _framework density 21.369607999999999
#
# number of rings (size 3 to 8) (size 9 to 14) (size 15 to 20)
#    0.000    0.923    4.615    2.077    3.231    0.923 
#    1.385    2.308    0.000    2.769    0.000    0.000 
#    0.000    0.000    0.000    0.000    0.000    0.000 
#
# Total GULP energy -290652.819078 kJ/mol
# GULP energy per Si atom -5589.477290 kJ/mol
# Density = 2.132097 g / cm^3
# Si number density = 21.369608 Si / 1000 Ang^3
#
#
#
# Elastic Constant Matrix: (Units=GPa)
#
#
# Indices 1 2 3 4 5 6 
#
# 1 102.1096 38.1473 -7.5931 -0.0007 -0.0007 0.0003
# 2 38.1473 102.1118 -7.5926 -0.0006 -0.0007 0.0003
# 3 -7.5931 -7.5926 112.3054 -0.0009 0.0001 0.0002
# 4 -0.0007 -0.0006 -0.0009 -52.7982 0.0000 0.0000
# 5 -0.0007 -0.0007 0.0001 0.0000 -52.8009 0.0002
# 6 0.0003 0.0003 0.0002 0.0000 0.0002 31.9818
#
#
#
# Elastic Compliance Matrix: (Units=1/GPa)
#
#
# Indices 1 2 3 4 5 6 
#
# 1 0.011408 -0.004226 0.000486 0.000000 0.000000 0.000000
# 2 -0.004226 0.011408 0.000486 0.000000 0.000000 0.000000
# 3 0.000486 0.000486 0.008970 0.000000 0.000000 0.000000
# 4 0.000000 0.000000 0.000000 -0.018940 0.000000 0.000000
# 5 0.000000 0.000000 0.000000 0.000000 -0.018939 0.000000
# 6 0.000000 0.000000 0.000000 0.000000 0.000000 0.031268
#
#
# Mechanical properties :
#
#
# Convention : Reuss Voigt Hill
#
# Bulk Modulus (GPa) = 39.56183 40.27222 39.91703
# Shear Modulus (GPa) = 124.65769 4.84754 64.75262
#
# Velocity S-wave (km/s) = 7.64596 1.50776 5.51063
# Velocity P-wave (km/s) = 9.82349 4.68162 7.69476
#
# Compressibility (1/GPa) = 0.02527689
#
# Stress axis : x y z
#
# Youngs Moduli (GPa) = 87.65586 87.65788 111.48329
#
# Poissons Ratio (x) = 0.37043 -0.05414
# Poissons Ratio (y) = 0.37042 -0.05413
# Poissons Ratio (z) = -0.04257 -0.04256
#
# Static dielectric constant tensor:
#      x y z
#    x 1.757130 0.000000 0.000000 
#    y 0.000000 1.757130 0.000000 
#    z 0.000000 0.000000 1.791800 
# 
# From -- ./inp_files/3617.got.cif
#   From: 2010.05.17/outbox.cif.g08.bks.cpg/sg188_2_cif.got.tgz:3617.got - 2010.05.20 12:11:46.
