data_PCOD9585556
_publ_section_title
;
Structure prediction by ZEFSAII (Michael W. Deem and Ramdas Pophale) SiO2 
 PCOD9585556
Probable space group: P -6 M 2
;
_chemical_formula_sum "Si O2"
_cell_formula_units_Z 90
_cell_length_a 17.429312
_cell_length_b 17.429312
_cell_length_c 18.870809
_cell_angle_alpha 90.000000
_cell_angle_beta 90.000000
_cell_angle_gamma 120.000000
_cell_volume 4964.570006
_symmetry_space_group_name_H-M "P -6 M 2"
_symmetry_group_IT_number 187
_symmetry_cell_setting 'hexagonal'
loop_
_space_group_symop_operation_xyz
x,y,z
-x+y,-x,-z
-y,x-y,z
x,y,-z
-x+y,-x,z
-y,x-y,-z
-y,-x,-z
-x+y,y,-z
x,x-y,-z
-x+y,y,z
x,x-y,z
-y,-x,z
loop_
_atom_site_type_symbol
_atom_site_label
_atom_site_fract_x
_atom_site_fract_y
_atom_site_fract_z
Si Si1 0.579842 0.973888 0.079469
Si Si2 0.848835 0.331674 0.154913
Si Si3 0.000910 0.181592 0.231821
Si Si4 0.150076 0.667654 0.789185
Si Si5 0.382025 0.434221 0.358612
Si Si6 0.370961 0.272590 0.300023
Si Si7 0.178483 0.998688 0.924385
Si Si8 0.152637 0.668569 0.500000
O O1 0.486661 0.973322 0.081239
O O2 0.570306 0.908360 0.142778
O O3 0.652054 0.074896 0.098659
O O4 0.589157 0.947742 0.000000
O O5 0.841944 0.420972 0.158576
O O6 0.754438 0.245562 0.138824
O O7 0.882301 0.313793 0.229818
O O8 0.094214 0.188427 0.251221
O O9 0.963523 0.230924 0.279793
O O10 0.010914 0.221740 0.152372
O O11 0.921806 0.078194 0.228786
O O12 0.160348 0.580174 0.790639
O O13 0.244345 0.755656 0.791438
O O14 0.101086 0.662773 0.715352
O O15 0.476510 0.523491 0.360158
O O16 0.394886 0.350062 0.354916
O O17 0.329848 0.434168 0.428128
O O18 0.383997 0.191999 0.324140
O O19 0.192077 0.096039 0.926081
O O20 0.211942 0.984221 0.000000
O O21 0.074247 0.925754 0.922559
O O22 0.251378 0.748623 0.500000
O O23 0.153152 0.576576 0.500000
#
# Coordination Sequence:
#
# PCOD9585556 Si02
#       8
#    12  12  12  12  12  12  12   6
#     4   9  18  33  51  73 105 142 179 228 286 332
#     4  10  19  34  55  78 103 134 178 232 291 351
#     4   9  17  28  43  64  92 130 175 223 270 316
#     4  10  19  32  53  79 110 149 191 230 271 327
#     4  10  20  37  59  84 114 149 183 222 279 338
#     4  10  20  34  53  78 107 140 182 231 279 329
#     4   8  12  19  33  53  78 110 152 202 253 302
#     4  10  21  36  59  92 128 158 186 220 263 318
#
# _framework density 18.128457999999998
#
# number of rings (size 3 to 8) (size 9 to 14) (size 15 to 20)
#    0.000    2.533    1.333    1.400    0.000    3.200 
#    0.000    2.333    0.000    4.267    0.000    0.000 
#    0.000    0.000    0.000    0.000    0.000    1.600 
#
# Total GULP energy -501783.200446 kJ/mol
# GULP energy per Si atom -5575.368894 kJ/mol
# Density = 1.808720 g / cm^3
# Si number density = 18.128458 Si / 1000 Ang^3
#
#
#
# Elastic Constant Matrix: (Units=GPa)
#
#
# Indices 1 2 3 4 5 6 
#
# 1 68.8523 28.4936 32.1716 0.0000 -0.0012 0.0000
# 2 28.4936 68.8523 32.1716 0.0000 0.0012 0.0000
# 3 32.1716 32.1716 95.3278 0.0000 0.0000 0.0000
# 4 0.0000 0.0000 0.0000 -13.4729 0.0000 0.0012
# 5 -0.0012 0.0012 0.0000 0.0000 -13.4729 0.0000
# 6 0.0000 0.0000 0.0000 0.0012 0.0000 20.1794
#
#
#
# Elastic Compliance Matrix: (Units=1/GPa)
#
#
# Indices 1 2 3 4 5 6 
#
# 1 0.019000 -0.005778 -0.004462 0.000000 -0.000002 0.000000
# 2 -0.005778 0.019000 -0.004462 0.000000 0.000002 0.000000
# 3 -0.004462 -0.004462 0.013502 0.000000 0.000000 0.000000
# 4 0.000000 0.000000 0.000000 -0.074223 0.000000 0.000004
# 5 -0.000002 0.000002 0.000000 0.000000 -0.074223 0.000000
# 6 0.000000 0.000000 0.000000 0.000004 0.000000 0.049556
#
#
# Mechanical properties :
#
#
# Convention : Reuss Voigt Hill
#
# Bulk Modulus (GPa) = 45.25466 46.52291 45.88878
# Shear Modulus (GPa) = -470.88577 7.99308 -231.44634
#
# Velocity S-wave (km/s) = -16.13423 2.10207 -11.31138
# Velocity P-wave (km/s) = 17.94622 5.62230 12.05107
#
# Compressibility (1/GPa) = 0.02209717
#
# Stress axis : x y z
#
# Youngs Moduli (GPa) = 52.63177 52.63177 74.06315
#
# Poissons Ratio (x) = 0.30410 0.33049
# Poissons Ratio (y) = 0.30410 0.33049
# Poissons Ratio (z) = 0.23486 0.23486
#
# Static dielectric constant tensor:
#      x y z
#    x 1.627360 0.000000 0.000000 
#    y 0.000000 1.627360 0.000000 
#    z 0.000000 0.000000 1.603540 
# 
# From -- ./inp_files/3240.got.cif
#   From: 2010.05.17/outbox.cif.g08.bks.cpg/sg187_2_cif.got.tgz:3240.got - 2010.05.20 12:09:04.
