data_PCOD9585317
_publ_section_title
;
Structure prediction by ZEFSAII (Michael W. Deem and Ramdas Pophale) SiO2 
 PCOD9585317
Probable space group: P 63 M C
;
_chemical_formula_sum "Si O2"
_cell_formula_units_Z 60
_cell_length_a 29.349377
_cell_length_b 29.349377
_cell_length_c 5.410925
_cell_angle_alpha 90.000000
_cell_angle_beta 90.000000
_cell_angle_gamma 120.000000
_cell_volume 4036.453184
_symmetry_space_group_name_H-M "P 63 M C"
_symmetry_group_IT_number 186
_symmetry_cell_setting 'hexagonal'
loop_
_space_group_symop_operation_xyz
x,y,z
x-y,x,1/2+z
-y,x-y,z
-x,-y,1/2+z
-x+y,-x,z
y,-x+y,1/2+z
-x+y,y,z
x,x-y,z
-y,-x,z
y,x,1/2+z
x-y,-y,1/2+z
-x,-x+y,1/2+z
loop_
_atom_site_type_symbol
_atom_site_label
_atom_site_fract_x
_atom_site_fract_y
_atom_site_fract_z
Si Si1 0.136071 0.761731 0.383720
Si Si2 0.265026 0.530051 0.883720
Si Si3 0.395954 0.028498 0.383721
Si Si4 0.713717 0.985190 0.383721
Si Si5 0.701098 0.298903 0.883720
Si Si6 0.561561 0.852906 0.883720
O O1 0.176330 0.823670 0.383720
O O2 0.075503 0.745428 0.383720
O O3 0.146633 0.738153 0.632391
O O4 0.146633 0.738153 0.135049
O O5 0.282040 0.564080 0.633370
O O6 0.291275 0.492931 0.883720
O O7 0.282040 0.564080 0.134071
O O8 0.435941 0.090753 0.383720
O O9 0.398018 0.000000 0.633722
O O10 0.336013 0.019296 0.383721
O O11 0.745989 1.000000 0.633721
O O12 0.723608 0.361804 0.883720
#
# Coordination Sequence:
#
# PCOD9585317 Si02
#       6
#    12   6  12  12   6  12
#     4  12  19  28  38  63  97 140 160 205 254 276
#     4  12  22  36  56  90 108 116 154 209 256 278
#     4  10  16  27  42  58  90 143 172 182 214 288
#     4  10  16  27  41  52  78 136 188 189 219 296
#     4  10  24  46  68  76  96 134 154 177 230 324
#     4  12  20  28  45  72 107 126 150 202 243 279
#
# _framework density 14.864535
#
# number of rings (size 3 to 8) (size 9 to 14) (size 15 to 20)
#    0.200    0.800   10.000    1.800    0.000    0.000 
#    0.000    0.000    0.000    0.000    0.000    0.000 
#    0.000   16.000    0.000    0.000    0.000    0.000 
#
# Total GULP energy -334258.307648 kJ/mol
# GULP energy per Si atom -5570.971794 kJ/mol
# Density = 1.483070 g / cm^3
# Si number density = 14.864535 Si / 1000 Ang^3
#
#
#
# Elastic Constant Matrix: (Units=GPa)
#
#
# Indices 1 2 3 4 5 6 
#
# 1 73.2722 51.7288 45.9007 0.0000 0.0000 0.0000
# 2 51.7288 73.2722 45.9007 0.0000 0.0000 0.0000
# 3 45.9007 45.9007 174.5897 0.0000 0.0000 0.0000
# 4 0.0000 0.0000 0.0000 99.0605 0.0000 0.0000
# 5 0.0000 0.0000 0.0000 0.0000 99.0605 0.0000
# 6 0.0000 0.0000 0.0000 0.0000 0.0000 10.7717
#
#
#
# Elastic Compliance Matrix: (Units=1/GPa)
#
#
# Indices 1 2 3 4 5 6 
#
# 1 0.028166 -0.018252 -0.002606 0.000000 0.000000 0.000000
# 2 -0.018252 0.028166 -0.002606 0.000000 0.000000 0.000000
# 3 -0.002606 -0.002606 0.007098 0.000000 0.000000 0.000000
# 4 0.000000 0.000000 0.000000 0.010095 0.000000 0.000000
# 5 0.000000 0.000000 0.000000 0.000000 0.010095 0.000000
# 6 0.000000 0.000000 0.000000 0.000000 0.000000 0.092836
#
#
# Mechanical properties :
#
#
# Convention : Reuss Voigt Hill
#
# Bulk Modulus (GPa) = 60.60392 67.57718 64.09055
# Shear Modulus (GPa) = 21.84498 53.61881 37.73189
#
# Velocity S-wave (km/s) = 3.83770 6.01248 5.04370
# Velocity P-wave (km/s) = 7.77795 9.68301 8.78229
#
# Compressibility (1/GPa) = 0.01650058
#
# Stress axis : x y z
#
# Youngs Moduli (GPa) = 35.50378 35.50378 140.87988
#
# Poissons Ratio (x) = 0.64801 0.36720
# Poissons Ratio (y) = 0.64801 0.36720
# Poissons Ratio (z) = 0.09254 0.09254
#
# Static dielectric constant tensor:
#      x y z
#    x 1.478090 0.000000 0.000000 
#    y 0.000000 1.478090 0.000000 
#    z 0.000000 0.000000 1.560250 
# 
# From -- ./inp_files/365.got.cif
#   From: 2010.05.17/outbox.cif.g08.bks.cpg/sg186_1_cif.got.tgz:365.got - 2010.05.20 12:07:08.
