data_PCOD9585011
_publ_section_title
;
Structure prediction by ZEFSAII (Michael W. Deem and Ramdas Pophale) SiO2 
 PCOD9585011
Probable space group: P 6 M M
;
_chemical_formula_sum "Si O2"
_cell_formula_units_Z 72
_cell_length_a 18.086317
_cell_length_b 18.086317
_cell_length_c 15.665666
_cell_angle_alpha 90.000000
_cell_angle_beta 90.000000
_cell_angle_gamma 120.000000
_cell_volume 4437.923090
_symmetry_space_group_name_H-M "P 6 M M"
_symmetry_group_IT_number 183
_symmetry_cell_setting 'hexagonal'
loop_
_space_group_symop_operation_xyz
x,y,z
x-y,x,z
-y,x-y,z
-x,-y,z
-x+y,-x,z
y,-x+y,z
-x+y,y,z
x,x-y,z
-y,-x,z
y,x,z
x-y,-y,z
-x,-x+y,z
loop_
_atom_site_type_symbol
_atom_site_label
_atom_site_fract_x
_atom_site_fract_y
_atom_site_fract_z
Si Si1 0.494834 0.163721 0.540800
Si Si2 0.633357 0.730509 0.694741
Si Si3 0.366642 0.097151 0.015409
Si Si4 0.540895 0.902842 0.355075
Si Si5 0.667496 0.508175 0.855075
Si Si6 0.331113 0.494833 0.169349
O O1 0.573196 0.146391 0.551488
O O2 0.525935 0.262968 0.556529
O O3 0.419992 0.111348 0.607894
O O4 0.461258 0.141565 0.443827
O O5 0.660123 0.830062 0.697959
O O6 0.708398 0.708398 0.700900
O O7 0.567064 0.684761 0.772248
O O8 0.339876 0.169938 0.012192
O O9 0.419991 0.111346 0.102255
O O10 0.291601 0.000000 0.009249
O O11 0.432934 0.117698 0.937901
O O12 0.452241 0.904482 0.355075
O O13 0.538743 0.858437 0.266322
O O14 0.616448 0.000000 0.355076
O O15 0.740914 0.481827 0.855074
O O16 0.574534 0.425467 0.855076
O O17 0.262967 0.525933 0.153621
O O18 0.426805 0.573196 0.158662
#
# Coordination Sequence:
#
# PCOD9585011 Si02
#       6
#    12  12  12  12  12  12
#     4  10  19  30  45  66  94 127 161 195 231 273
#     4  10  21  35  51  71  94 122 155 194 239 283
#     4  10  21  35  51  71  94 122 155 194 239 283
#     4   9  17  28  42  60  84 119 163 205 237 266
#     4  10  20  33  50  73 102 134 165 194 224 261
#     4  10  19  30  45  66  94 127 161 195 231 273
#
# _framework density 16.223804999999999
#
# number of rings (size 3 to 8) (size 9 to 14) (size 15 to 20)
#    0.000    2.167    0.000    3.500    0.000    4.667 
#    0.000    5.000    0.000    0.333    0.000    0.000 
#    0.000    4.000    0.000    0.000    0.000   34.667 
#
# Total GULP energy -401625.835440 kJ/mol
# GULP energy per Si atom -5578.136603 kJ/mol
# Density = 1.618688 g / cm^3
# Si number density = 16.223805 Si / 1000 Ang^3
#
#
#
# Elastic Constant Matrix: (Units=GPa)
#
#
# Indices 1 2 3 4 5 6 
#
# 1 87.6289 69.2305 33.7337 0.0000 0.0000 0.0000
# 2 69.2305 87.6289 33.7337 0.0000 0.0000 0.0000
# 3 33.7337 33.7337 108.5772 0.0000 0.0000 0.0000
# 4 0.0000 0.0000 0.0000 12.6857 0.0000 0.0000
# 5 0.0000 0.0000 0.0000 0.0000 12.6857 0.0000
# 6 0.0000 0.0000 0.0000 0.0000 0.0000 9.1992
#
#
#
# Elastic Compliance Matrix: (Units=1/GPa)
#
#
# Indices 1 2 3 4 5 6 
#
# 1 0.030856 -0.023497 -0.002286 0.000000 0.000000 0.000000
# 2 -0.023497 0.030856 -0.002286 0.000000 0.000000 0.000000
# 3 -0.002286 -0.002286 0.010631 0.000000 0.000000 0.000000
# 4 0.000000 0.000000 0.000000 0.078829 0.000000 0.000000
# 5 0.000000 0.000000 0.000000 0.000000 0.078829 0.000000
# 6 0.000000 0.000000 0.000000 0.000000 0.000000 0.108705
#
#
# Mechanical properties :
#
#
# Convention : Reuss Voigt Hill
#
# Bulk Modulus (GPa) = 61.71778 61.91451 61.81614
# Shear Modulus (GPa) = 12.49237 16.72327 14.60782
#
# Velocity S-wave (km/s) = 2.77790 3.21407 3.00391
# Velocity P-wave (km/s) = 6.95795 7.21244 7.08634
#
# Compressibility (1/GPa) = 0.01620279
#
# Stress axis : x y z
#
# Youngs Moduli (GPa) = 32.40910 32.40910 94.06789
#
# Poissons Ratio (x) = 0.76152 0.21506
# Poissons Ratio (y) = 0.76152 0.21506
# Poissons Ratio (z) = 0.07409 0.07409
#
# Static dielectric constant tensor:
#      x y z
#    x 1.533540 0.000000 0.000000 
#    y 0.000000 1.533540 0.000000 
#    z 0.000000 0.000000 1.559540 
# 
# From -- ./inp_files/2517.got.cif
#   From: 2010.05.17/outbox.cif.g08.bks.cpg/sg183_2_cif.got.tgz:2517.got - 2010.05.20 12:02:58.
