data_PCOD9585182
_publ_section_title
;
Structure prediction by ZEFSAII (Michael W. Deem and Ramdas Pophale) SiO2 
 PCOD9585182
Probable space group: P 6 C C
;
_chemical_formula_sum "Si O2"
_cell_formula_units_Z 72
_cell_length_a 13.933931
_cell_length_b 13.933931
_cell_length_c 17.171163
_cell_angle_alpha 90.000000
_cell_angle_beta 90.000000
_cell_angle_gamma 120.000000
_cell_volume 2887.205217
_symmetry_space_group_name_H-M "P 6 C C"
_symmetry_group_IT_number 184
_symmetry_cell_setting 'hexagonal'
loop_
_space_group_symop_operation_xyz
x,y,z
x-y,x,z
-y,x-y,z
-x,-y,z
-x+y,-x,z
y,-x+y,z
-x+y,y,1/2+z
x,x-y,1/2+z
-y,-x,1/2+z
y,x,1/2+z
x-y,-y,1/2+z
-x,-x+y,1/2+z
loop_
_atom_site_type_symbol
_atom_site_label
_atom_site_fract_x
_atom_site_fract_y
_atom_site_fract_z
Si Si1 0.634665 0.434930 0.770800
Si Si2 0.205913 0.436742 0.032097
Si Si3 0.001203 0.770452 0.308300
Si Si4 0.944732 0.571610 0.408367
Si Si5 0.245596 0.038905 0.631092
Si Si6 0.425578 0.555300 0.101658
O O1 0.550873 0.305364 0.786453
O O2 0.614244 0.507190 0.829200
O O3 0.621902 0.451087 0.681286
O O4 0.085972 0.339557 0.062965
O O5 0.297696 0.462271 0.098684
O O6 0.189550 0.543329 0.033424
O O7 0.274381 0.426154 0.960458
O O8 0.890785 0.780565 0.316433
O O9 0.015382 0.695954 0.374635
O O10 0.977292 0.719922 0.219128
O O11 0.000000 0.500000 0.440860
O O12 0.212963 0.134565 0.622974
O O13 0.500000 0.500000 0.101395
#
# Coordination Sequence:
#
# PCOD9585182 Si02
#       6
#    12  12  12  12  12  12
#     4  10  23  44  71 100 141 192 255 317 394 461
#     4  12  26  45  66 106 146 193 247 312 382 468
#     4  10  24  46  78 110 150 197 263 335 407 481
#     4  12  29  45  73 108 157 206 267 321 407 490
#     4  10  22  44  73 106 139 185 242 312 381 457
#     4  12  24  44  74 102 141 196 254 313 388 468
#
# _framework density 24.937609999999999
#
# number of rings (size 3 to 8) (size 9 to 14) (size 15 to 20)
#    0.333    0.667    1.667    3.667    4.667    6.667 
#    0.000    0.000    0.000    2.000    0.000    0.000 
#    0.000    0.000    0.000    0.000    0.000    0.000 
#
# Total GULP energy -401779.011171 kJ/mol
# GULP energy per Si atom -5580.264044 kJ/mol
# Density = 2.488085 g / cm^3
# Si number density = 24.937610 Si / 1000 Ang^3
#
#
#
# Elastic Constant Matrix: (Units=GPa)
#
#
# Indices 1 2 3 4 5 6 
#
# 1 93.7974 14.2478 11.5122 0.0000 0.0000 0.0000
# 2 14.2478 93.7974 11.5122 0.0000 0.0000 0.0000
# 3 11.5122 11.5122 71.3672 0.0000 0.0000 0.0000
# 4 0.0000 0.0000 0.0000 18.6228 0.0000 0.0000
# 5 0.0000 0.0000 0.0000 0.0000 18.6228 0.0000
# 6 0.0000 0.0000 0.0000 0.0000 0.0000 39.7748
#
#
#
# Elastic Compliance Matrix: (Units=1/GPa)
#
#
# Indices 1 2 3 4 5 6 
#
# 1 0.011078 -0.001493 -0.001546 0.000000 0.000000 0.000000
# 2 -0.001493 0.011078 -0.001546 0.000000 0.000000 0.000000
# 3 -0.001546 -0.001546 0.014511 0.000000 0.000000 0.000000
# 4 0.000000 0.000000 0.000000 0.053698 0.000000 0.000000
# 5 0.000000 0.000000 0.000000 0.000000 0.053698 0.000000
# 6 0.000000 0.000000 0.000000 0.000000 0.000000 0.025142
#
#
# Mechanical properties :
#
#
# Convention : Reuss Voigt Hill
#
# Bulk Modulus (GPa) = 36.36884 37.05627 36.71256
# Shear Modulus (GPa) = 26.66114 30.18342 28.42228
#
# Velocity S-wave (km/s) = 3.27328 3.48279 3.37966
# Velocity P-wave (km/s) = 5.37600 5.57360 5.47569
#
# Compressibility (1/GPa) = 0.02749606
#
# Stress axis : x y z
#
# Youngs Moduli (GPa) = 90.27051 90.27051 68.91402
#
# Poissons Ratio (x) = 0.13477 0.10655
# Poissons Ratio (y) = 0.13477 0.10655
# Poissons Ratio (z) = 0.13957 0.13957
#
# Static dielectric constant tensor:
#      x y z
#    x 2.255060 0.000000 0.000000 
#    y 0.000000 2.255060 0.000000 
#    z 0.000000 0.000000 2.037890 
# 
# From -- ./inp_files/1093.got.cif
#   From: 2010.05.17/outbox.cif.g08.bks.cpg/sg184_cif.got.tgz:1093.got - 2010.05.20 12:04:40.
