data_PCOD9585961
_publ_section_title
;
Structure prediction by ZEFSAII (Michael W. Deem and Ramdas Pophale) SiO2 
 PCOD9585961
Probable space group: P -6 C 2
;
_chemical_formula_sum "Si O2"
_cell_formula_units_Z 84
_cell_length_a 18.160886
_cell_length_b 18.160886
_cell_length_c 15.257419
_cell_angle_alpha 90.000000
_cell_angle_beta 90.000000
_cell_angle_gamma 120.000000
_cell_volume 4357.985383
_symmetry_space_group_name_H-M "P -6 C 2"
_symmetry_group_IT_number 188
_symmetry_cell_setting 'hexagonal'
loop_
_space_group_symop_operation_xyz
x,y,z
-x+y,-x,1/2-z
-y,x-y,z
x,y,1/2-z
-x+y,-x,z
-y,x-y,1/2-z
-y,-x,-z
-x+y,y,-z
x,x-y,-z
-x+y,y,1/2+z
x,x-y,1/2+z
-y,-x,1/2+z
loop_
_atom_site_type_symbol
_atom_site_label
_atom_site_fract_x
_atom_site_fract_y
_atom_site_fract_z
Si Si1 0.300176 0.060279 0.846971
Si Si2 0.000621 0.173786 0.001209
Si Si3 0.592661 0.018239 0.575853
Si Si4 0.304398 0.231451 0.848547
Si Si5 0.328162 0.567568 0.750000
Si Si6 0.475001 0.083121 0.613151
Si Si7 0.331687 0.820907 0.050077
Si Si8 0.645640 0.417816 0.750000
O O1 0.262744 0.041021 0.750000
O O2 0.231261 0.007638 0.918931
O O3 0.330396 0.159563 0.866336
O O4 0.381335 0.048692 0.850073
O O5 0.922274 0.077727 0.000000
O O6 0.985651 0.215666 0.086019
O O7 0.087826 0.175651 0.000000
O O8 0.673985 0.053380 0.636563
O O9 0.516321 0.023347 0.623012
O O10 0.620427 0.081235 0.491691
O O11 0.557976 0.921594 0.544386
O O12 0.273482 0.219235 0.750000
O O13 0.251264 0.588859 0.750000
O O14 0.326395 0.526104 0.844777
O O15 0.536296 0.170024 0.664977
O O16 0.243673 0.756328 0.000000
O O17 0.404043 0.808085 0.000000
O O18 0.736143 0.420168 0.750000
#
# Coordination Sequence:
#
# PCOD9585961 Si02
#       8
#    12  12  12  12   6  12  12   6
#     4  10  21  40  67  93 124 178 213 256 330 399
#     4  10  21  40  66  95 127 163 213 269 327 400
#     4  11  26  41  61  98 129 178 222 273 341 391
#     4  10  23  40  64  93 127 171 215 263 329 399
#     4  10  20  35  66  96 110 170 222 279 360 395
#     4  11  22  42  62  93 136 168 219 269 328 400
#     4  12  22  43  65  91 135 170 230 293 338 413
#     4  10  26  43  66 110 138 176 228 283 342 395
#
# _framework density 19.274961999999999
#
# number of rings (size 3 to 8) (size 9 to 14) (size 15 to 20)
#    0.286    1.143    5.000    0.286    4.000    1.143 
#    2.571    0.714    0.000    1.714    0.000    0.000 
#    0.000    0.000    0.000    0.000    0.000    0.000 
#
# Total GULP energy -468379.961094 kJ/mol
# GULP energy per Si atom -5575.951918 kJ/mol
# Density = 1.923109 g / cm^3
# Si number density = 19.274962 Si / 1000 Ang^3
#
#
#
# Elastic Constant Matrix: (Units=GPa)
#
#
# Indices 1 2 3 4 5 6 
#
# 1 87.1774 46.6587 50.9917 -0.0040 0.0000 0.0000
# 2 46.6587 87.1774 50.9917 0.0040 0.0000 0.0000
# 3 50.9917 50.9917 139.5910 0.0000 0.0000 0.0000
# 4 -0.0040 0.0040 0.0000 92.9233 0.0000 0.0000
# 5 0.0000 0.0000 0.0000 0.0000 92.9233 -0.0040
# 6 0.0000 0.0000 0.0000 0.0000 -0.0040 20.2594
#
#
#
# Elastic Compliance Matrix: (Units=1/GPa)
#
#
# Indices 1 2 3 4 5 6 
#
# 1 0.017517 -0.007163 -0.003782 0.000001 0.000000 0.000000
# 2 -0.007163 0.017517 -0.003782 -0.000001 0.000000 0.000000
# 3 -0.003782 -0.003782 0.009927 0.000000 0.000000 0.000000
# 4 0.000001 -0.000001 0.000000 0.010762 0.000000 0.000000
# 5 0.000000 0.000000 0.000000 0.000000 0.010762 0.000002
# 6 0.000000 0.000000 0.000000 0.000000 0.000002 0.049360
#
#
# Mechanical properties :
#
#
# Convention : Reuss Voigt Hill
#
# Bulk Modulus (GPa) = 64.49137 67.91443 66.20290
# Shear Modulus (GPa) = 33.22979 52.24145 42.73562
#
# Velocity S-wave (km/s) = 4.15660 5.21173 4.71378
# Velocity P-wave (km/s) = 7.52115 8.45737 8.00296
#
# Compressibility (1/GPa) = 0.01550595
#
# Stress axis : x y z
#
# Youngs Moduli (GPa) = 57.08768 57.08768 100.73518
#
# Poissons Ratio (x) = 0.40892 0.38100
# Poissons Ratio (y) = 0.40892 0.38100
# Poissons Ratio (z) = 0.21592 0.21592
#
# Static dielectric constant tensor:
#      x y z
#    x 1.675120 0.000000 0.000000 
#    y 0.000000 1.675120 0.000000 
#    z 0.000000 0.000000 1.708560 
# 
# From -- ./inp_files/2624.got.cif
#   From: 2010.05.17/outbox.cif.g08.bks.cpg/sg188_2_cif.got.tgz:2624.got - 2010.05.20 12:11:46.
