data_PCOD9585254
_publ_section_title
;
Structure prediction by ZEFSAII (Michael W. Deem and Ramdas Pophale) SiO2 
 PCOD9585254
Probable space group: P 63 C M
;
_chemical_formula_sum "Si O2"
_cell_formula_units_Z 84
_cell_length_a 13.550011
_cell_length_b 13.550011
_cell_length_c 27.344930
_cell_angle_alpha 90.000000
_cell_angle_beta 90.000000
_cell_angle_gamma 120.000000
_cell_volume 4347.972046
_symmetry_space_group_name_H-M "P 63 C M"
_symmetry_group_IT_number 185
_symmetry_cell_setting 'hexagonal'
loop_
_space_group_symop_operation_xyz
x,y,z
x-y,x,1/2+z
-y,x-y,z
-x,-y,1/2+z
-x+y,-x,z
y,-x+y,1/2+z
-x+y,y,1/2+z
x,x-y,1/2+z
-y,-x,1/2+z
y,x,z
x-y,-y,z
-x,-x+y,z
loop_
_atom_site_type_symbol
_atom_site_label
_atom_site_fract_x
_atom_site_fract_y
_atom_site_fract_z
Si Si1 0.450711 0.575888 0.068520
Si Si2 0.733909 0.867052 0.206195
Si Si3 0.863789 0.532985 0.973290
Si Si4 0.477968 0.754517 0.868613
Si Si5 0.258397 0.129771 0.530258
Si Si6 0.812955 0.227975 0.618235
Si Si7 0.135051 0.864922 0.823312
O O1 0.557222 0.557222 0.061282
O O2 0.493167 0.689160 0.098699
O O3 0.356957 0.473185 0.100855
O O4 0.396142 0.562363 0.014975
O O5 0.794311 0.794311 0.193791
O O6 0.620375 0.822419 0.174146
O O7 0.715563 0.859285 0.264473
O O8 0.815735 0.000000 0.194419
O O9 0.784734 0.494001 0.926123
O O10 0.000000 0.588181 0.961355
O O11 0.853047 0.633830 0.999201
O O12 0.380995 0.788802 0.855747
O O13 0.603858 0.816069 0.845997
O O14 0.214550 0.214550 0.516340
O O15 0.301832 0.148076 0.586113
O O16 0.160439 0.000000 0.523755
O O17 0.000000 0.809246 0.835528
O O18 0.206605 0.000000 0.837268
#
# Coordination Sequence:
#
# PCOD9585254 Si02
#       7
#    12  12  12  12  12  12  12
#     4  10  21  35  52  79 114 155 197 241 287 342
#     4  10  20  37  62  91 119 151 192 244 302 365
#     4   9  20  37  57  81 117 158 204 251 295 362
#     4  10  24  41  62  95 123 163 206 261 324 383
#     4  10  20  34  54  83 119 153 189 238 297 360
#     4  11  21  35  54  81 114 155 200 241 286 349
#     4  10  22  43  69  96 125 161 210 264 323 387
#
# _framework density 19.319351000000001
#
# number of rings (size 3 to 8) (size 9 to 14) (size 15 to 20)
#    0.286    1.714    0.000    4.571    4.000    2.857 
#    2.571    1.429    0.000    1.714    0.000    0.000 
#    0.000    0.000    0.000    0.000    0.000    0.000 
#
# Total GULP energy -468314.307004 kJ/mol
# GULP energy per Si atom -5575.170321 kJ/mol
# Density = 1.927538 g / cm^3
# Si number density = 19.319351 Si / 1000 Ang^3
#
#
#
# Elastic Constant Matrix: (Units=GPa)
#
#
# Indices 1 2 3 4 5 6 
#
# 1 121.2757 34.9545 38.5980 0.0000 0.0000 0.0000
# 2 34.9545 121.2757 38.5980 0.0000 0.0000 0.0000
# 3 38.5980 38.5980 58.6271 0.0000 0.0000 0.0000
# 4 0.0000 0.0000 0.0000 23.5366 0.0000 0.0000
# 5 0.0000 0.0000 0.0000 0.0000 23.5366 0.0000
# 6 0.0000 0.0000 0.0000 0.0000 0.0000 43.1606
#
#
#
# Elastic Compliance Matrix: (Units=1/GPa)
#
#
# Indices 1 2 3 4 5 6 
#
# 1 0.010536 -0.001049 -0.006246 0.000000 0.000000 0.000000
# 2 -0.001049 0.010536 -0.006246 0.000000 0.000000 0.000000
# 3 -0.006246 -0.006246 0.025281 0.000000 0.000000 0.000000
# 4 0.000000 0.000000 0.000000 0.042487 0.000000 0.000000
# 5 0.000000 0.000000 0.000000 0.000000 0.042487 0.000000
# 6 0.000000 0.000000 0.000000 0.000000 0.000000 0.023169
#
#
# Mechanical properties :
#
#
# Convention : Reuss Voigt Hill
#
# Bulk Modulus (GPa) = 51.89007 58.38664 55.13835
# Shear Modulus (GPa) = 26.59556 30.64862 28.62209
#
# Velocity S-wave (km/s) = 3.71432 3.98731 3.85323
# Velocity P-wave (km/s) = 6.73144 7.17535 6.95694
#
# Compressibility (1/GPa) = 0.01927151
#
# Stress axis : x y z
#
# Youngs Moduli (GPa) = 94.91414 94.91414 39.55512
#
# Poissons Ratio (x) = 0.09955 0.24706
# Poissons Ratio (y) = 0.09955 0.24706
# Poissons Ratio (z) = 0.59283 0.59283
#
# Static dielectric constant tensor:
#      x y z
#    x 2.017250 0.000000 0.000000 
#    y 0.000000 2.017250 0.000000 
#    z 0.000000 0.000000 1.665400 
# 
# From -- ./inp_files/2157.got.cif
#   From: 2010.05.17/outbox.cif.g08.bks.cpg/sg185_cif.got.tgz:2157.got - 2010.05.20 12:05:34.
