data_PCOD9585215
_publ_section_title
;
Structure prediction by ZEFSAII (Michael W. Deem and Ramdas Pophale) SiO2 
 PCOD9585215
Probable space group: P 63 C M
;
_chemical_formula_sum "Si O2"
_cell_formula_units_Z 96
_cell_length_a 17.731370
_cell_length_b 17.731370
_cell_length_c 20.529097
_cell_angle_alpha 90.000000
_cell_angle_beta 90.000000
_cell_angle_gamma 120.000000
_cell_volume 5589.655766
_symmetry_space_group_name_H-M "P 63 C M"
_symmetry_group_IT_number 185
_symmetry_cell_setting 'hexagonal'
loop_
_space_group_symop_operation_xyz
x,y,z
x-y,x,1/2+z
-y,x-y,z
-x,-y,1/2+z
-x+y,-x,z
y,-x+y,1/2+z
-x+y,y,1/2+z
x,x-y,1/2+z
-y,-x,1/2+z
y,x,z
x-y,-y,z
-x,-x+y,z
loop_
_atom_site_type_symbol
_atom_site_label
_atom_site_fract_x
_atom_site_fract_y
_atom_site_fract_z
Si Si1 0.900384 0.796964 0.125000
Si Si2 0.610139 0.390031 0.286326
Si Si3 0.353000 0.894050 0.036731
Si Si4 0.897021 0.675780 0.355344
Si Si5 0.389798 0.492506 0.681327
Si Si6 0.101868 0.323724 0.238602
Si Si7 0.101616 0.601467 0.396306
Si Si8 0.105729 0.814482 0.498785
O O1 0.864934 0.864934 0.123269
O O2 0.839093 0.722924 0.176059
O O3 0.000000 0.843967 0.145468
O O4 0.888067 0.757003 0.052536
O O5 0.572832 0.286537 0.285944
O O6 0.581432 0.422581 0.223943
O O7 0.579263 0.418078 0.349947
O O8 0.369943 0.866832 0.106613
O O9 0.403728 0.000000 0.038028
O O10 0.386573 0.870455 0.971748
O O11 0.252458 0.864768 0.025122
O O12 0.835436 0.669413 0.296279
O O13 0.891781 0.583738 0.372060
O O14 0.870178 0.703697 0.423049
O O15 0.000000 0.743098 0.342061
O O16 0.459808 0.459808 0.682745
O O17 0.302394 0.415081 0.714465
O O18 0.000000 0.263914 0.258229
O O19 0.000000 0.529437 0.391437
O O20 0.000000 0.759456 0.498857
#
# Coordination Sequence:
#
# PCOD9585215 Si02
#       8
#    12  12  12  12  12  12  12  12
#     4  10  18  28  42  64  99 140 180 222 269 319
#     4  10  22  35  50  75 114 138 163 200 249 315
#     4   8  14  28  53  78  96 120 168 217 252 287
#     4   9  17  29  49  72  99 131 170 217 262 308
#     4  10  18  33  56  78  99 133 173 215 254 297
#     4  10  19  29  46  70 100 132 173 220 262 308
#     4   9  17  33  56  79  99 129 170 216 255 297
#     4   8  14  27  44  66  93 123 166 219 261 303
#
# _framework density 17.174581
#
# number of rings (size 3 to 8) (size 9 to 14) (size 15 to 20)
#    0.250    2.500    1.250    3.125    0.000    0.500 
#    0.000    1.250    0.000    0.250    0.000    0.000 
#    0.000    0.000    0.000    0.000    0.000    0.000 
#
# Total GULP energy -534637.174473 kJ/mol
# GULP energy per Si atom -5569.137234 kJ/mol
# Density = 1.713549 g / cm^3
# Si number density = 17.174581 Si / 1000 Ang^3
#
#
#
# Elastic Constant Matrix: (Units=GPa)
#
#
# Indices 1 2 3 4 5 6 
#
# 1 36.2492 30.2342 38.2687 0.0000 0.0000 0.0000
# 2 30.2342 36.2492 38.2687 0.0000 0.0000 0.0000
# 3 38.2687 38.2687 131.9545 0.0000 0.0000 0.0000
# 4 0.0000 0.0000 0.0000 17.9488 0.0000 0.0000
# 5 0.0000 0.0000 0.0000 0.0000 17.9488 0.0000
# 6 0.0000 0.0000 0.0000 0.0000 0.0000 3.0075
#
#
#
# Elastic Compliance Matrix: (Units=1/GPa)
#
#
# Indices 1 2 3 4 5 6 
#
# 1 0.094415 -0.071835 -0.006549 0.000000 0.000000 0.000000
# 2 -0.071835 0.094415 -0.006549 0.000000 0.000000 0.000000
# 3 -0.006549 -0.006549 0.011377 0.000000 0.000000 0.000000
# 4 0.000000 0.000000 0.000000 0.055714 0.000000 0.000000
# 5 0.000000 0.000000 0.000000 0.000000 0.055714 0.000000
# 6 0.000000 0.000000 0.000000 0.000000 0.000000 0.332501
#
#
# Mechanical properties :
#
#
# Convention : Reuss Voigt Hill
#
# Bulk Modulus (GPa) = 32.95670 46.44401 39.70036
# Shear Modulus (GPa) = 6.06711 14.29311 10.18011
#
# Velocity S-wave (km/s) = 1.88156 2.88796 2.43727
# Velocity P-wave (km/s) = 4.89400 6.18235 5.57551
#
# Compressibility (1/GPa) = 0.03034284
#
# Stress axis : x y z
#
# Youngs Moduli (GPa) = 10.59149 10.59149 87.89870
#
# Poissons Ratio (x) = 0.76084 0.57561
# Poissons Ratio (y) = 0.76084 0.57561
# Poissons Ratio (z) = 0.06936 0.06936
#
# Static dielectric constant tensor:
#      x y z
#    x 1.579630 0.000000 0.000000 
#    y 0.000000 1.579630 0.000000 
#    z 0.000000 0.000000 1.591160 
# 
# From -- ./inp_files/1990.got.cif
#   From: 2010.05.17/outbox.cif.g08.bks.cpg/sg185_cif.got.tgz:1990.got - 2010.05.20 12:05:34.
