data_PCOD9585325
_publ_section_title
;
Structure prediction by ZEFSAII (Michael W. Deem and Ramdas Pophale) SiO2 
 PCOD9585325
Probable space group: P 63 M C
;
_chemical_formula_sum "Si O2"
_cell_formula_units_Z 84
_cell_length_a 32.155281
_cell_length_b 32.155281
_cell_length_c 5.460752
_cell_angle_alpha 90.000000
_cell_angle_beta 90.000000
_cell_angle_gamma 120.000000
_cell_volume 4889.761801
_symmetry_space_group_name_H-M "P 63 M C"
_symmetry_group_IT_number 186
_symmetry_cell_setting 'hexagonal'
loop_
_space_group_symop_operation_xyz
x,y,z
x-y,x,1/2+z
-y,x-y,z
-x,-y,1/2+z
-x+y,-x,z
y,-x+y,1/2+z
-x+y,y,z
x,x-y,z
-y,-x,z
y,x,1/2+z
x-y,-y,1/2+z
-x,-x+y,1/2+z
loop_
_atom_site_type_symbol
_atom_site_label
_atom_site_fract_x
_atom_site_fract_y
_atom_site_fract_z
Si Si1 0.286655 0.403378 0.025240
Si Si2 0.695884 0.204838 0.495728
Si Si3 0.870711 0.030821 0.986093
Si Si4 0.093563 0.367279 0.525675
Si Si5 0.656373 0.828187 0.535831
Si Si6 0.971372 0.745369 0.949059
Si Si7 0.170382 0.829619 0.035391
Si Si8 0.765939 0.432600 0.996336
O O1 0.302924 0.458734 0.002600
O O2 0.302730 0.391334 0.280964
O O3 0.228020 0.372682 0.035898
O O4 0.300353 0.384835 0.782299
O O5 0.750474 0.249527 0.495337
O O6 0.672268 0.209732 0.244282
O O7 0.672090 0.210696 0.744521
O O8 0.923325 0.076676 0.982104
O O9 0.830091 0.046657 0.979881
O O10 0.861920 0.001000 0.239140
O O11 0.148640 0.377857 0.536973
O O12 0.064816 0.310144 0.500117
O O13 0.686695 0.843348 0.288984
O O14 0.686947 0.843474 0.782089
O O15 0.010405 0.760459 0.168952
O O16 0.711482 0.422964 0.998449
O O17 0.766293 0.383147 0.998538
#
# Coordination Sequence:
#
# PCOD9585325 Si02
#       8
#    12  12  12  12   6  12   6  12
#     4  10  17  29  43  66  91 117 156 192 244 283
#     4  10  19  30  45  64  89 119 153 203 257 297
#     4  10  21  38  59  80 103 132 165 206 252 298
#     4  10  19  29  47  67  93 127 158 196 232 267
#     4   8  16  24  38  62  82 112 146 184 220 253
#     4  10  21  36  51  73 103 135 172 202 231 276
#     4   8  14  24  36  54  86 108 134 180 220 269
#     4  10  20  32  46  62  84 120 168 215 255 293
#
# _framework density 17.178750999999998
#
# number of rings (size 3 to 8) (size 9 to 14) (size 15 to 20)
#    0.000    2.286    0.714    2.714    1.000    0.000 
#    0.000    1.429    0.000    2.857    0.000    0.000 
#    0.000    0.000    0.000    0.000    0.000  180.000 
#
# Total GULP energy -467827.803869 kJ/mol
# GULP energy per Si atom -5569.378617 kJ/mol
# Density = 1.713965 g / cm^3
# Si number density = 17.178751 Si / 1000 Ang^3
#
#
#
# Elastic Constant Matrix: (Units=GPa)
#
#
# Indices 1 2 3 4 5 6 
#
# 1 41.2903 45.3210 23.8927 0.0000 0.0000 0.0000
# 2 45.3210 41.2903 23.8927 0.0000 0.0000 0.0000
# 3 23.8927 23.8927 165.6256 0.0000 0.0000 0.0000
# 4 0.0000 0.0000 0.0000 16.9676 0.0000 0.0000
# 5 0.0000 0.0000 0.0000 0.0000 16.9676 0.0000
# 6 0.0000 0.0000 0.0000 0.0000 0.0000 -2.0153
#
#
#
# Elastic Compliance Matrix: (Units=1/GPa)
#
#
# Indices 1 2 3 4 5 6 
#
# 1 -0.117778 0.130323 -0.001810 0.000000 0.000000 0.000000
# 2 0.130323 -0.117778 -0.001810 0.000000 0.000000 0.000000
# 3 -0.001810 -0.001810 0.006560 0.000000 0.000000 0.000000
# 4 0.000000 0.000000 0.000000 0.058936 0.000000 0.000000
# 5 0.000000 0.000000 0.000000 0.000000 0.058936 0.000000
# 6 0.000000 0.000000 0.000000 0.000000 0.000000 -0.496202
#
#
# Mechanical properties :
#
#
# Convention : Reuss Voigt Hill
#
# Bulk Modulus (GPa) = 40.96701 48.26877 44.61789
# Shear Modulus (GPa) = -5.86443 16.72399 5.42978
#
# Velocity S-wave (km/s) = -1.84964 3.12353 1.77978
# Velocity P-wave (km/s) = 4.39746 6.41619 5.50024
#
# Compressibility (1/GPa) = 0.02440989
#
# Stress axis : x y z
#
# Youngs Moduli (GPa) = -8.49052 -8.49052 152.44343
#
# Poissons Ratio (x) = 1.10651 0.27586
# Poissons Ratio (y) = 1.10651 0.27586
# Poissons Ratio (z) = -0.01536 -0.01536
#
# Static dielectric constant tensor:
#      x y z
#    x 1.565360 0.000000 0.000000 
#    y 0.000000 1.565360 0.000000 
#    z 0.000000 0.000000 1.725830 
# 
# From -- ./inp_files/452.got.cif
#   From: 2010.05.17/outbox.cif.g08.bks.cpg/sg186_1_cif.got.tgz:452.got - 2010.05.20 12:07:08.
