data_PCOD9585752
_publ_section_title
;
Structure prediction by ZEFSAII (Michael W. Deem and Ramdas Pophale) SiO2 
 PCOD9585752
Probable space group: P -6 M 2
;
_chemical_formula_sum "Si O2"
_cell_formula_units_Z 66
_cell_length_a 22.680830
_cell_length_b 22.680830
_cell_length_c 7.641210
_cell_angle_alpha 90.000000
_cell_angle_beta 90.000000
_cell_angle_gamma 120.000000
_cell_volume 3404.165405
_symmetry_space_group_name_H-M "P -6 M 2"
_symmetry_group_IT_number 187
_symmetry_cell_setting 'hexagonal'
loop_
_space_group_symop_operation_xyz
x,y,z
-x+y,-x,-z
-y,x-y,z
x,y,-z
-x+y,-x,z
-y,x-y,-z
-y,-x,-z
-x+y,y,-z
x,x-y,-z
-x+y,y,z
x,x-y,z
-y,-x,z
loop_
_atom_site_type_symbol
_atom_site_label
_atom_site_fract_x
_atom_site_fract_y
_atom_site_fract_z
Si Si1 0.792731 0.073815 0.210022
Si Si2 0.524558 0.333881 0.500000
Si Si3 0.669113 0.576007 0.797849
Si Si4 0.468834 0.667301 0.210826
Si Si5 0.407990 0.951533 0.707487
Si Si6 0.865733 0.999155 0.290576
O O1 0.860679 0.139322 0.278378
O O2 0.729480 0.080769 0.269448
O O3 0.802151 0.010198 0.255057
O O4 0.792213 0.076879 0.000000
O O5 0.600368 0.399633 0.500000
O O6 0.525426 0.262713 0.500000
O O7 0.483021 0.337671 0.330873
O O8 0.603918 0.586153 0.794298
O O9 0.682146 0.564282 0.000000
O O10 0.475688 0.737844 0.273551
O O11 0.397971 0.602030 0.274554
O O12 0.530799 0.654619 0.257662
O O13 0.465064 0.667016 0.000000
O O14 0.412368 0.963621 0.500000
O O15 0.473582 0.947163 0.766107
O O16 0.872761 0.999374 0.500000
O O17 0.934749 0.065252 0.221963
O O18 0.858856 0.929428 0.222750
#
# Coordination Sequence:
#
# PCOD9585752 Si02
#       6
#    12   6  12  12  12  12
#     4   9  19  35  54  79 109 143 190 242 287 340
#     4  12  27  46  70 100 131 160 192 232 282 344
#     4  11  23  41  66  93 123 160 199 240 290 349
#     4   9  17  30  50  77 111 153 201 253 308 362
#     4  10  20  35  55  82 114 149 196 250 297 350
#     4   9  17  29  48  75 109 149 193 242 296 350
#
# _framework density 19.388012
#
# number of rings (size 3 to 8) (size 9 to 14) (size 15 to 20)
#    0.000    2.182    0.909    2.091    1.273    5.455 
#    0.000    0.909    0.000    4.364    0.000    0.000 
#    0.000    0.000    0.000    0.000    0.000    0.000 
#
# Total GULP energy -368077.412425 kJ/mol
# GULP energy per Si atom -5576.930491 kJ/mol
# Density = 1.934388 g / cm^3
# Si number density = 19.388012 Si / 1000 Ang^3
#
#
#
# Elastic Constant Matrix: (Units=GPa)
#
#
# Indices 1 2 3 4 5 6 
#
# 1 127.7320 64.2075 24.8075 0.0000 0.0027 0.0000
# 2 64.2075 127.7320 24.8075 0.0000 -0.0027 0.0000
# 3 24.8075 24.8075 70.4192 0.0000 0.0000 0.0000
# 4 0.0000 0.0000 0.0000 2.8800 0.0000 -0.0027
# 5 0.0027 -0.0027 0.0000 0.0000 2.8800 0.0000
# 6 0.0000 0.0000 0.0000 -0.0027 0.0000 31.7622
#
#
#
# Elastic Compliance Matrix: (Units=1/GPa)
#
#
# Indices 1 2 3 4 5 6 
#
# 1 0.010737 -0.005005 -0.002019 0.000000 -0.000015 0.000000
# 2 -0.005005 0.010737 -0.002019 0.000000 0.000015 0.000000
# 3 -0.002019 -0.002019 0.015623 0.000000 0.000000 0.000000
# 4 0.000000 0.000000 0.000000 0.347222 0.000000 0.000030
# 5 -0.000015 0.000015 0.000000 0.000000 0.347222 0.000000
# 6 0.000000 0.000000 0.000000 0.000030 0.000000 0.031484
#
#
# Mechanical properties :
#
#
# Convention : Reuss Voigt Hill
#
# Bulk Modulus (GPa) = 52.60335 61.50313 57.05324
# Shear Modulus (GPa) = 6.34962 21.64182 13.99572
#
# Velocity S-wave (km/s) = 1.81167 3.34465 2.68969
# Velocity P-wave (km/s) = 5.61845 6.83423 6.25594
#
# Compressibility (1/GPa) = 0.01901020
#
# Stress axis : x y z
#
# Youngs Moduli (GPa) = 93.13622 93.13622 64.00666
#
# Poissons Ratio (x) = 0.46615 0.12925
# Poissons Ratio (y) = 0.46615 0.12925
# Poissons Ratio (z) = 0.18807 0.18807
#
# Static dielectric constant tensor:
#      x y z
#    x 1.690420 0.000000 0.000000 
#    y 0.000000 1.690420 0.000000 
#    z 0.000000 0.000000 1.713120 
# 
# From -- ./inp_files/741.got.cif
#   From: 2010.05.17/outbox.cif.g08.bks.cpg/sg187_1_cif.got.tgz:741.got - 2010.05.20 12:09:04.
