data_PCOD9585801
_publ_section_title
;
Structure prediction by ZEFSAII (Michael W. Deem and Ramdas Pophale) SiO2 
 PCOD9585801
Probable space group: P -6 M 2
;
_chemical_formula_sum "Si O2"
_cell_formula_units_Z 72
_cell_length_a 24.761512
_cell_length_b 24.761512
_cell_length_c 7.701180
_cell_angle_alpha 90.000000
_cell_angle_beta 90.000000
_cell_angle_gamma 120.000000
_cell_volume 4089.236480
_symmetry_space_group_name_H-M "P -6 M 2"
_symmetry_group_IT_number 187
_symmetry_cell_setting 'hexagonal'
loop_
_space_group_symop_operation_xyz
x,y,z
-x+y,-x,-z
-y,x-y,z
x,y,-z
-x+y,-x,z
-y,x-y,-z
-y,-x,-z
-x+y,y,-z
x,x-y,-z
-x+y,y,z
x,x-y,z
-y,-x,z
loop_
_atom_site_type_symbol
_atom_site_label
_atom_site_fract_x
_atom_site_fract_y
_atom_site_fract_z
Si Si1 0.033459 0.187396 0.708598
Si Si2 0.479993 0.520008 0.798865
Si Si3 0.104765 0.329367 0.290922
Si Si4 0.816886 0.633772 0.212911
Si Si5 0.435070 0.327009 0.786898
Si Si6 0.223073 0.111537 0.204445
Si Si7 0.367305 0.401794 0.792432
Si Si8 0.555908 0.444093 0.798736
O O1 0.037187 0.189489 0.500000
O O2 0.083776 0.167551 0.769733
O O3 0.059383 0.258357 0.770881
O O4 0.961396 0.144831 0.751557
O O5 0.413452 0.471023 0.720567
O O6 0.517972 0.482029 0.798659
O O7 0.469366 0.530635 0.000000
O O8 0.104635 0.327256 0.500000
O O9 0.174116 0.348232 0.231376
O O10 0.079080 0.374230 0.239956
O O11 0.851709 0.596283 0.267239
O O12 0.852919 0.705837 0.276099
O O13 0.817313 0.634625 0.000000
O O14 0.391393 0.355290 0.730686
O O15 0.505746 0.376155 0.726511
O O16 0.436819 0.327945 0.000000
O O17 0.231438 0.115719 0.000000
O O18 0.376945 0.405837 0.000000
O O19 0.566083 0.433918 0.000000
#
# Coordination Sequence:
#
# PCOD9585801 Si02
#       8
#    12   6  12   6  12   6  12   6
#     4   9  19  36  52  63  81 116 153 178 215 278
#     4   7  12  22  37  59  84 107 134 168 202 241
#     4   9  18  31  45  62  87 116 144 174 209 256
#     4   9  16  23  33  56  87 110 131 170 226 268
#     4   8  13  21  34  53  77 105 136 170 206 247
#     4  11  21  31  47  71  92 107 136 190 242 275
#     4   9  15  25  42  62  84 111 143 175 210 253
#     4   7  10  18  32  48  69 102 137 162 190 232
#
# _framework density 17.607199999999999
#
# number of rings (size 3 to 8) (size 9 to 14) (size 15 to 20)
#    0.000    3.333    0.000    4.250    0.000    2.667 
#    0.500    2.083    0.000    0.333    0.000    2.333 
#    0.833    0.000    0.500    0.000    0.667    0.000 
#
# Total GULP energy -400827.438477 kJ/mol
# GULP energy per Si atom -5567.047757 kJ/mol
# Density = 1.756713 g / cm^3
# Si number density = 17.607200 Si / 1000 Ang^3
#
#
#
# Elastic Constant Matrix: (Units=GPa)
#
#
# Indices 1 2 3 4 5 6 
#
# 1 157.4270 110.8077 6.1111 0.0000 -0.0004 0.0000
# 2 110.8077 157.4270 6.1111 0.0000 0.0004 0.0000
# 3 6.1111 6.1111 25.8180 0.0000 0.0000 0.0000
# 4 0.0000 0.0000 0.0000 3.8567 0.0000 0.0004
# 5 -0.0004 0.0004 0.0000 0.0000 3.8567 0.0000
# 6 0.0000 0.0000 0.0000 0.0004 0.0000 23.3097
#
#
#
# Elastic Compliance Matrix: (Units=1/GPa)
#
#
# Indices 1 2 3 4 5 6 
#
# 1 0.012610 -0.008841 -0.000892 0.000000 0.000002 0.000000
# 2 -0.008841 0.012610 -0.000892 0.000000 -0.000002 0.000000
# 3 -0.000892 -0.000892 0.039155 0.000000 0.000000 0.000000
# 4 0.000000 0.000000 0.000000 0.259290 0.000000 -0.000004
# 5 0.000002 -0.000002 0.000000 0.000000 0.259290 0.000000
# 6 0.000000 0.000000 0.000000 -0.000004 0.000000 0.042901
#
#
# Mechanical properties :
#
#
# Convention : Reuss Voigt Hill
#
# Bulk Modulus (GPa) = 23.18882 65.19240 44.19061
# Shear Modulus (GPa) = 7.55881 20.71408 14.13644
#
# Velocity S-wave (km/s) = 2.07421 3.43367 2.83659
# Velocity P-wave (km/s) = 4.35145 7.26818 5.99006
#
# Compressibility (1/GPa) = 0.04312423
#
# Stress axis : x y z
#
# Youngs Moduli (GPa) = 79.30507 79.30507 25.53954
#
# Poissons Ratio (x) = 0.70112 0.02278
# Poissons Ratio (y) = 0.70112 0.02278
# Poissons Ratio (z) = 0.07074 0.07074
#
# Static dielectric constant tensor:
#      x y z
#    x 1.622920 0.000000 0.000000 
#    y 0.000000 1.622920 0.000000 
#    z 0.000000 0.000000 1.671990 
# 
# From -- ./inp_files/1118.got.cif
#   From: 2010.05.17/outbox.cif.g08.bks.cpg/sg187_1_cif.got.tgz:1118.got - 2010.05.20 12:09:04.
