data_PCOD9585165
_publ_section_title
;
Structure prediction by ZEFSAII (Michael W. Deem and Ramdas Pophale) SiO2 
 PCOD9585165
Probable space group: P 6 C C
;
_chemical_formula_sum "Si O2"
_cell_formula_units_Z 78
_cell_length_a 17.860651
_cell_length_b 17.860651
_cell_length_c 14.196677
_cell_angle_alpha 90.000000
_cell_angle_beta 90.000000
_cell_angle_gamma 120.000000
_cell_volume 3922.038946
_symmetry_space_group_name_H-M "P 6 C C"
_symmetry_group_IT_number 184
_symmetry_cell_setting 'hexagonal'
loop_
_space_group_symop_operation_xyz
x,y,z
x-y,x,z
-y,x-y,z
-x,-y,z
-x+y,-x,z
y,-x+y,z
-x+y,y,1/2+z
x,x-y,1/2+z
-y,-x,1/2+z
y,x,1/2+z
x-y,-y,1/2+z
-x,-x+y,1/2+z
loop_
_atom_site_type_symbol
_atom_site_label
_atom_site_fract_x
_atom_site_fract_y
_atom_site_fract_z
Si Si1 0.200888 0.840792 0.019710
Si Si2 0.457831 0.599145 0.745010
Si Si3 0.739582 0.541843 0.716028
Si Si4 0.621068 0.540633 0.432837
Si Si5 0.723049 0.660655 0.872080
Si Si6 0.810105 0.835841 0.939983
Si Si7 0.000000 0.500000 0.606523
O O1 0.221043 0.816396 0.120303
O O2 0.278966 0.853494 0.952554
O O3 0.114169 0.769632 0.968065
O O4 0.199727 0.931452 0.017630
O O5 0.360456 0.534376 0.711751
O O6 0.493113 0.700674 0.738901
O O7 0.467164 0.581796 0.854502
O O8 0.516658 0.577211 0.676629
O O9 0.744006 0.611092 0.792186
O O10 0.617472 0.621880 0.389845
O O11 0.575611 0.517868 0.533709
O O12 0.759724 0.763829 0.857451
O O13 0.899437 0.834938 0.940279
#
# Coordination Sequence:
#
# PCOD9585165 Si02
#       7
#    12  12  12  12  12  12   6
#     4  10  21  42  64  96 134 180 219 278 338 410
#     4  12  26  42  67  98 135 183 226 298 331 407
#     4  12  24  44  65  98 139 181 237 278 353 398
#     4  11  22  41  63  92 131 171 232 272 338 391
#     4  10  21  41  67  94 135 179 221 279 333 409
#     4   9  19  38  66 101 131 167 210 269 341 411
#     4  12  22  40  64  94 124 178 232 282 332 390
#
# _framework density 19.887613999999999
#
# number of rings (size 3 to 8) (size 9 to 14) (size 15 to 20)
#    0.000    1.231    3.077    3.692    0.000    0.000 
#    0.000    0.000    0.000    0.000    0.000    8.615 
#    0.000    0.000    0.000    0.000    0.000    0.000 
#
# Total GULP energy -434458.028351 kJ/mol
# GULP energy per Si atom -5569.974722 kJ/mol
# Density = 1.984235 g / cm^3
# Si number density = 19.887614 Si / 1000 Ang^3
#
#
#
# Elastic Constant Matrix: (Units=GPa)
#
#
# Indices 1 2 3 4 5 6 
#
# 1 85.8578 15.7476 25.5080 0.0000 0.0000 0.0000
# 2 15.7476 85.8578 25.5080 0.0000 0.0000 0.0000
# 3 25.5080 25.5080 89.7017 0.0000 0.0000 0.0000
# 4 0.0000 0.0000 0.0000 24.2918 0.0000 0.0000
# 5 0.0000 0.0000 0.0000 0.0000 24.2918 0.0000
# 6 0.0000 0.0000 0.0000 0.0000 0.0000 35.0551
#
#
#
# Elastic Compliance Matrix: (Units=1/GPa)
#
#
# Indices 1 2 3 4 5 6 
#
# 1 0.012872 -0.001391 -0.003265 0.000000 0.000000 0.000000
# 2 -0.001391 0.012872 -0.003265 0.000000 0.000000 0.000000
# 3 -0.003265 -0.003265 0.013005 0.000000 0.000000 0.000000
# 4 0.000000 0.000000 0.000000 0.041166 0.000000 0.000000
# 5 0.000000 0.000000 0.000000 0.000000 0.041166 0.000000
# 6 0.000000 0.000000 0.000000 0.000000 0.000000 0.028527
#
#
# Mechanical properties :
#
#
# Convention : Reuss Voigt Hill
#
# Bulk Modulus (GPa) = 43.65294 43.88274 43.76784
# Shear Modulus (GPa) = 28.88739 29.70462 29.29601
#
# Velocity S-wave (km/s) = 3.81534 3.86894 3.84223
# Velocity P-wave (km/s) = 6.43480 6.48625 6.46058
#
# Compressibility (1/GPa) = 0.02290796
#
# Stress axis : x y z
#
# Youngs Moduli (GPa) = 77.68631 77.68631 76.89408
#
# Poissons Ratio (x) = 0.10806 0.25105
# Poissons Ratio (y) = 0.10806 0.25105
# Poissons Ratio (z) = 0.25364 0.25364
#
# Static dielectric constant tensor:
#      x y z
#    x 1.745050 0.000000 0.000000 
#    y 0.000000 1.745050 0.000000 
#    z 0.000000 0.000000 1.691200 
# 
# From -- ./inp_files/916.got.cif
#   From: 2010.05.17/outbox.cif.g08.bks.cpg/sg184_cif.got.tgz:916.got - 2010.05.20 12:04:40.
