data_PCOD9585927
_publ_section_title
;
Structure prediction by ZEFSAII (Michael W. Deem and Ramdas Pophale) SiO2 
 PCOD9585927
Probable space group: P -6 C 2
;
_chemical_formula_sum "Si O2"
_cell_formula_units_Z 72
_cell_length_a 24.845192
_cell_length_b 24.845192
_cell_length_c 8.690456
_cell_angle_alpha 90.000000
_cell_angle_beta 90.000000
_cell_angle_gamma 120.000000
_cell_volume 4645.772204
_symmetry_space_group_name_H-M "P -6 C 2"
_symmetry_group_IT_number 188
_symmetry_cell_setting 'hexagonal'
loop_
_space_group_symop_operation_xyz
x,y,z
-x+y,-x,1/2-z
-y,x-y,z
x,y,1/2-z
-x+y,-x,z
-y,x-y,1/2-z
-y,-x,-z
-x+y,y,-z
x,x-y,-z
-x+y,y,1/2+z
x,x-y,1/2+z
-y,-x,1/2+z
loop_
_atom_site_type_symbol
_atom_site_label
_atom_site_fract_x
_atom_site_fract_y
_atom_site_fract_z
Si Si1 0.001404 0.673607 0.064754
Si Si2 0.554409 0.000234 0.433886
Si Si3 0.882682 0.999351 0.565534
Si Si4 0.254109 0.068932 0.564696
Si Si5 0.140536 0.744589 0.933819
Si Si6 0.375573 0.859917 0.434094
O O1 0.008188 0.677710 0.250000
O O2 0.975493 0.601351 0.022775
O O3 0.956689 0.700161 0.021224
O O4 0.070352 0.715353 0.995571
O O5 0.549071 0.998327 0.250000
O O6 0.515254 0.030508 0.500000
O O7 0.520042 0.929891 0.498777
O O8 0.884186 0.999864 0.750000
O O9 0.950304 0.049697 0.500000
O O10 0.837094 0.023109 0.504691
O O11 0.864996 0.932498 0.500000
O O12 0.249280 0.069450 0.750000
O O13 0.273487 0.136744 0.500000
O O14 0.138951 0.747344 0.750000
O O15 0.164407 0.695995 0.975617
O O16 0.188335 0.811666 0.000000
O O17 0.381100 0.862493 0.250000
O O18 0.414685 0.829369 0.500000
#
# Coordination Sequence:
#
# PCOD9585927 Si02
#       6
#    12  12  12  12  12  12
#     4   9  19  33  48  65  90 120 149 180 220 265
#     4   9  15  25  42  65  89 113 137 166 201 241
#     4  11  21  34  50  68  87 110 143 189 241 291
#     4  10  20  35  51  68  89 118 153 188 226 274
#     4  10  20  31  45  65  89 115 147 185 229 274
#     4   9  16  26  41  61  81 106 137 170 207 253
#
# _framework density 15.497963
#
# number of rings (size 3 to 8) (size 9 to 14) (size 15 to 20)
#    0.000    2.333    0.000    5.667    0.000    4.667 
#    0.000    0.000    0.000    0.333    0.000    0.000 
#    0.000    0.000    0.000    0.500    0.000    6.000 
#
# Total GULP energy -401142.673720 kJ/mol
# GULP energy per Si atom -5571.426024 kJ/mol
# Density = 1.546269 g / cm^3
# Si number density = 15.497963 Si / 1000 Ang^3
#
#
#
# Elastic Constant Matrix: (Units=GPa)
#
#
# Indices 1 2 3 4 5 6 
#
# 1 88.5865 68.8921 34.1981 0.0003 0.0000 0.0000
# 2 68.8921 88.5865 34.1981 -0.0003 0.0000 0.0000
# 3 34.1981 34.1981 62.6155 0.0000 0.0000 0.0000
# 4 0.0003 -0.0003 0.0000 19.4942 0.0000 0.0000
# 5 0.0000 0.0000 0.0000 0.0000 19.4942 0.0003
# 6 0.0000 0.0000 0.0000 0.0000 0.0003 9.8472
#
#
#
# Elastic Compliance Matrix: (Units=1/GPa)
#
#
# Indices 1 2 3 4 5 6 
#
# 1 0.029550 -0.021226 -0.004547 -0.000001 0.000000 0.000000
# 2 -0.021226 0.029550 -0.004547 0.000001 0.000000 0.000000
# 3 -0.004547 -0.004547 0.020937 0.000000 0.000000 0.000000
# 4 -0.000001 0.000001 0.000000 0.051297 0.000000 0.000000
# 5 0.000000 0.000000 0.000000 0.000000 0.051297 -0.000002
# 6 0.000000 0.000000 0.000000 0.000000 -0.000002 0.101552
#
#
# Mechanical properties :
#
#
# Convention : Reuss Voigt Hill
#
# Bulk Modulus (GPa) = 51.54693 57.15170 54.34932
# Shear Modulus (GPa) = 14.23332 16.60048 15.41690
#
# Velocity S-wave (km/s) = 3.03380 3.27638 3.15742
# Velocity P-wave (km/s) = 6.75312 7.16030 6.95968
#
# Compressibility (1/GPa) = 0.01939980
#
# Stress axis : x y z
#
# Youngs Moduli (GPa) = 33.84054 33.84054 47.76259
#
# Poissons Ratio (x) = 0.71829 0.21716
# Poissons Ratio (y) = 0.71829 0.21716
# Poissons Ratio (z) = 0.15386 0.15386
#
# Static dielectric constant tensor:
#      x y z
#    x 1.528820 0.000000 0.000000 
#    y 0.000000 1.528820 0.000000 
#    z 0.000000 0.000000 1.519830 
# 
# From -- ./inp_files/1056.got.cif
#   From: 2010.05.17/outbox.cif.g08.bks.cpg/sg188_1_cif.got.tgz:1056.got - 2010.05.20 12:11:46.
