data_PCOD9585937
_publ_section_title
;
Structure prediction by ZEFSAII (Michael W. Deem and Ramdas Pophale) SiO2 
 PCOD9585937
Probable space group: P -6 C 2
;
_chemical_formula_sum "Si O2"
_cell_formula_units_Z 72
_cell_length_a 23.997921
_cell_length_b 23.997921
_cell_length_c 8.954397
_cell_angle_alpha 90.000000
_cell_angle_beta 90.000000
_cell_angle_gamma 120.000000
_cell_volume 4465.953693
_symmetry_space_group_name_H-M "P -6 C 2"
_symmetry_group_IT_number 188
_symmetry_cell_setting 'hexagonal'
loop_
_space_group_symop_operation_xyz
x,y,z
-x+y,-x,1/2-z
-y,x-y,z
x,y,1/2-z
-x+y,-x,z
-y,x-y,1/2-z
-y,-x,-z
-x+y,y,-z
x,x-y,-z
-x+y,y,1/2+z
x,x-y,1/2+z
-y,-x,1/2+z
loop_
_atom_site_type_symbol
_atom_site_label
_atom_site_fract_x
_atom_site_fract_y
_atom_site_fract_z
Si Si1 0.341232 0.341062 0.926266
Si Si2 0.852770 0.816255 0.581563
Si Si3 0.194368 0.271242 0.570807
Si Si4 0.936921 0.528620 0.427366
Si Si5 0.338367 0.223275 0.419353
Si Si6 0.788528 0.332357 0.929879
O O1 0.347834 0.352409 0.750000
O O2 0.268667 0.321454 0.971368
O O3 0.402958 0.394927 0.011703
O O4 0.345535 0.278497 0.971288
O O5 0.859830 0.841795 0.750000
O O6 0.920864 0.841728 0.500000
O O7 0.799251 0.823800 0.491011
O O8 0.822302 0.738938 0.594424
O O9 0.190412 0.268781 0.750000
O O10 0.144755 0.289509 0.500000
O O11 0.940985 0.527035 0.250000
O O12 0.944356 0.472178 0.500000
O O13 0.862885 0.510128 0.463198
O O14 0.363091 0.244901 0.250000
O O15 0.365741 0.182871 0.500000
O O16 0.781180 0.331207 0.750000
O O17 0.734761 0.265240 0.000000
O O18 0.779475 0.389738 0.000000
#
# Coordination Sequence:
#
# PCOD9585937 Si02
#       6
#    12  12  12  12  12  12
#     4  10  20  33  49  69  94 123 155 192 236 285
#     4   9  16  27  44  65  90 120 153 188 225 268
#     4  10  20  33  50  73  99 127 158 194 238 286
#     4  10  21  36  52  69  91 122 160 200 242 287
#     4   9  16  26  41  62  88 117 149 185 225 268
#     4  10  20  33  49  68  91 121 158 201 247 292
#
# _framework density 16.121974999999999
#
# number of rings (size 3 to 8) (size 9 to 14) (size 15 to 20)
#    0.000    2.333    0.000    3.167    0.000    8.667 
#    0.000    1.667    0.000    0.333    0.000    2.333 
#    0.000    0.000    0.000    0.500    0.000    8.000 
#
# Total GULP energy -401412.862329 kJ/mol
# GULP energy per Si atom -5575.178643 kJ/mol
# Density = 1.608528 g / cm^3
# Si number density = 16.121975 Si / 1000 Ang^3
#
#
#
# Elastic Constant Matrix: (Units=GPa)
#
#
# Indices 1 2 3 4 5 6 
#
# 1 71.9799 62.5165 42.5053 -0.0004 0.0000 0.0000
# 2 62.5165 71.9799 42.5053 0.0004 0.0000 0.0000
# 3 42.5053 42.5053 77.2342 0.0000 0.0000 0.0000
# 4 -0.0004 0.0004 0.0000 16.1621 0.0000 0.0000
# 5 0.0000 0.0000 0.0000 0.0000 16.1621 -0.0004
# 6 0.0000 0.0000 0.0000 0.0000 -0.0004 4.7317
#
#
#
# Elastic Compliance Matrix: (Units=1/GPa)
#
#
# Indices 1 2 3 4 5 6 
#
# 1 0.058536 -0.047135 -0.006274 0.000003 0.000000 0.000000
# 2 -0.047135 0.058536 -0.006274 -0.000003 0.000000 0.000000
# 3 -0.006274 -0.006274 0.019854 0.000000 0.000000 0.000000
# 4 0.000003 -0.000003 0.000000 0.061873 0.000000 0.000000
# 5 0.000000 0.000000 0.000000 0.000000 0.061873 0.000006
# 6 0.000000 0.000000 0.000000 0.000000 0.000006 0.211341
#
#
# Mechanical properties :
#
#
# Convention : Reuss Voigt Hill
#
# Bulk Modulus (GPa) = 56.95405 57.36089 57.15747
# Shear Modulus (GPa) = 8.37195 12.32230 10.34713
#
# Velocity S-wave (km/s) = 2.28126 2.76763 2.53613
# Velocity P-wave (km/s) = 6.50711 6.77271 6.64124
#
# Compressibility (1/GPa) = 0.01755802
#
# Stress axis : x y z
#
# Youngs Moduli (GPa) = 17.08360 17.08360 50.36810
#
# Poissons Ratio (x) = 0.80523 0.31603
# Poissons Ratio (y) = 0.80523 0.31603
# Poissons Ratio (z) = 0.10719 0.10719
#
# Static dielectric constant tensor:
#      x y z
#    x 1.594640 0.000000 0.000000 
#    y 0.000000 1.594640 0.000000 
#    z 0.000000 0.000000 1.541180 
# 
# From -- ./inp_files/997.got.cif
#   From: 2010.05.17/outbox.cif.g08.bks.cpg/sg188_1_cif.got.tgz:997.got - 2010.05.20 12:11:46.
