data_PCOD9585942
_publ_section_title
;
Structure prediction by ZEFSAII (Michael W. Deem and Ramdas Pophale) SiO2 
 PCOD9585942
Probable space group: P -6 C 2
;
_chemical_formula_sum "Si O2"
_cell_formula_units_Z 76
_cell_length_a 17.274017
_cell_length_b 17.274017
_cell_length_c 13.960796
_cell_angle_alpha 90.000000
_cell_angle_beta 90.000000
_cell_angle_gamma 120.000000
_cell_volume 3607.675758
_symmetry_space_group_name_H-M "P -6 C 2"
_symmetry_group_IT_number 188
_symmetry_cell_setting 'hexagonal'
loop_
_space_group_symop_operation_xyz
x,y,z
-x+y,-x,1/2-z
-y,x-y,z
x,y,1/2-z
-x+y,-x,z
-y,x-y,1/2-z
-y,-x,-z
-x+y,y,-z
x,x-y,-z
-x+y,y,1/2+z
x,x-y,1/2+z
-y,-x,1/2+z
loop_
_atom_site_type_symbol
_atom_site_label
_atom_site_fract_x
_atom_site_fract_y
_atom_site_fract_z
Si Si1 0.303790 0.406230 0.133538
Si Si2 0.490829 0.558004 0.141778
Si Si3 0.323363 0.233369 0.862617
Si Si4 0.666667 0.333334 0.883241
Si Si5 0.251259 0.893331 0.365135
Si Si6 0.553166 0.416123 0.387527
Si Si7 0.904520 0.634036 0.074587
O O1 0.307493 0.407198 0.250000
O O2 0.390894 0.499332 0.101495
O O3 0.204675 0.381155 0.103341
O O4 0.320611 0.328816 0.096385
O O5 0.477913 0.579679 0.250000
O O6 0.564494 0.651904 0.099097
O O7 0.533774 0.493361 0.146804
O O8 0.352304 0.257828 0.750000
O O9 0.249805 0.264071 0.880979
O O10 0.305630 0.133767 0.880854
O O11 0.383667 0.273589 0.959407
O O12 0.768373 0.401147 0.853323
O O13 0.666668 0.333334 0.000000
O O14 0.250398 0.887238 0.250000
O O15 0.566612 0.433389 0.500000
O O16 0.461955 0.321762 0.374279
#
# Coordination Sequence:
#
# PCOD9585942 Si02
#       7
#    12  12  12   4  12  12  12
#     4   9  18  35  55  83 119 153 196 241 286 344
#     4   9  18  33  52  77 111 150 193 238 283 337
#     4  10  21  35  55  83 111 140 187 238 281 342
#     4   9  21  30  49  68 106 147 181 237 276 324
#     4   9  18  33  55  80 115 155 192 241 289 334
#     4  10  20  33  51  73 105 145 191 233 278 334
#     4  10  21  34  59  83 107 153 191 228 293 342
#
# _framework density 21.066196000000001
#
# number of rings (size 3 to 8) (size 9 to 14) (size 15 to 20)
#    0.000    2.526    0.000    1.421    8.842    1.263 
#    0.947    0.789    0.000    0.632    0.000    2.211 
#    0.000    0.000    0.000    0.000    0.000    0.000 
#
# Total GULP energy -423106.250783 kJ/mol
# GULP energy per Si atom -5567.187510 kJ/mol
# Density = 2.101825 g / cm^3
# Si number density = 21.066196 Si / 1000 Ang^3
#
#
#
# Elastic Constant Matrix: (Units=GPa)
#
#
# Indices 1 2 3 4 5 6 
#
# 1 116.4578 67.3850 0.5276 0.0000 0.0000 0.0001
# 2 67.3850 116.4581 0.5278 0.0000 0.0000 0.0001
# 3 0.5276 0.5278 102.9159 0.0000 0.0000 0.0001
# 4 0.0000 0.0000 0.0000 17.5155 0.0000 0.0000
# 5 0.0000 0.0000 0.0000 0.0000 17.5155 0.0000
# 6 0.0001 0.0001 0.0001 0.0000 0.0000 24.5366
#
#
#
# Elastic Compliance Matrix: (Units=1/GPa)
#
#
# Indices 1 2 3 4 5 6 
#
# 1 0.012909 -0.007469 -0.000028 0.000000 0.000000 0.000000
# 2 -0.007469 0.012909 -0.000028 0.000000 0.000000 0.000000
# 3 -0.000028 -0.000028 0.009717 0.000000 0.000000 0.000000
# 4 0.000000 0.000000 0.000000 0.057092 0.000000 0.000000
# 5 0.000000 0.000000 0.000000 0.000000 0.057092 0.000000
# 6 0.000000 0.000000 0.000000 0.000000 0.000000 0.040755
#
#
# Mechanical properties :
#
#
# Convention : Reuss Voigt Hill
#
# Bulk Modulus (GPa) = 48.81724 52.52362 50.67043
# Shear Modulus (GPa) = 23.54577 29.73962 26.64269
#
# Velocity S-wave (km/s) = 3.34683 3.76137 3.56014
# Velocity P-wave (km/s) = 6.17727 6.62198 6.40349
#
# Compressibility (1/GPa) = 0.02048457
#
# Stress axis : x y z
#
# Youngs Moduli (GPa) = 77.46700 77.46718 102.91282
#
# Poissons Ratio (x) = 0.57861 0.00287
# Poissons Ratio (y) = 0.57861 0.00287
# Poissons Ratio (z) = 0.00216 0.00216
#
# Static dielectric constant tensor:
#      x y z
#    x 1.775800 0.000000 0.000000 
#    y 0.000000 1.775800 0.000000 
#    z 0.000000 0.000000 1.850380 
# 
# From -- ./inp_files/2515.got.cif
#   From: 2010.05.17/outbox.cif.g08.bks.cpg/sg188_2_cif.got.tgz:2515.got - 2010.05.20 12:11:46.
