data_PCOD9585567
_publ_section_title
;
Structure prediction by ZEFSAII (Michael W. Deem and Ramdas Pophale) SiO2 
 PCOD9585567
Probable space group: P -6 M 2
;
_chemical_formula_sum "Si O2"
_cell_formula_units_Z 54
_cell_length_a 17.504766
_cell_length_b 17.504766
_cell_length_c 12.008940
_cell_angle_alpha 90.000000
_cell_angle_beta 90.000000
_cell_angle_gamma 120.000000
_cell_volume 3186.749496
_symmetry_space_group_name_H-M "P -6 M 2"
_symmetry_group_IT_number 187
_symmetry_cell_setting 'hexagonal'
loop_
_space_group_symop_operation_xyz
x,y,z
-x+y,-x,-z
-y,x-y,z
x,y,-z
-x+y,-x,z
-y,x-y,-z
-y,-x,-z
-x+y,y,-z
x,x-y,-z
-x+y,y,z
x,x-y,z
-y,-x,z
loop_
_atom_site_type_symbol
_atom_site_label
_atom_site_fract_x
_atom_site_fract_y
_atom_site_fract_z
Si Si1 0.379069 0.442469 0.000000
Si Si2 0.817869 0.999871 0.500000
Si Si3 0.332977 0.332493 0.625753
Si Si4 0.703268 0.576413 0.000000
Si Si5 0.491455 0.158286 0.247158
Si Si6 0.513009 0.846117 0.761723
O O1 0.365921 0.344820 0.000000
O O2 0.340532 0.460486 0.111343
O O3 0.484217 0.515784 0.000000
O O4 0.911736 0.088265 0.500000
O O5 0.825750 0.912875 0.500000
O O6 0.757975 0.999233 0.603949
O O7 0.369074 0.361069 0.500000
O O8 0.402040 0.319101 0.697792
O O9 0.319666 0.407066 0.683524
O O10 0.671099 0.520724 0.886456
O O11 0.809723 0.619445 0.000000
O O12 0.572574 0.145148 0.278864
O O13 0.507771 0.253886 0.280333
O O14 0.425292 0.850584 0.735437
O O15 0.496099 0.748050 0.750996
#
# Coordination Sequence:
#
# PCOD9585567 Si02
#       6
#     6   6  12   6  12  12
#     4  10  19  35  56  80 109 146 186 228 284 337
#     4  10  21  40  63  86 108 136 182 234 285 330
#     4  10  23  38  57  78 113 150 186 224 277 342
#     4  10  20  33  54  82 111 144 188 234 280 337
#     4  11  21  35  55  81 113 148 189 233 280 334
#     4  11  22  37  58  83 113 148 190 238 284 336
#
# _framework density 16.945164999999999
#
# number of rings (size 3 to 8) (size 9 to 14) (size 15 to 20)
#    0.667    0.889    2.222    3.889    0.000    1.778 
#    0.000    2.222    0.000    2.889    0.000    0.000 
#    0.000    0.000    0.000    4.444    0.000    0.000 
#
# Total GULP energy -301091.377035 kJ/mol
# GULP energy per Si atom -5575.766241 kJ/mol
# Density = 1.690660 g / cm^3
# Si number density = 16.945165 Si / 1000 Ang^3
#
#
#
# Elastic Constant Matrix: (Units=GPa)
#
#
# Indices 1 2 3 4 5 6 
#
# 1 129.6499 73.7454 36.6243 0.0000 0.0005 0.0000
# 2 73.7454 129.6499 36.6243 0.0000 -0.0005 0.0000
# 3 36.6243 36.6243 74.8011 0.0000 0.0000 0.0000
# 4 0.0000 0.0000 0.0000 16.0058 0.0000 -0.0005
# 5 0.0005 -0.0005 0.0000 0.0000 16.0058 0.0000
# 6 0.0000 0.0000 0.0000 -0.0005 0.0000 27.9522
#
#
#
# Elastic Compliance Matrix: (Units=1/GPa)
#
#
# Indices 1 2 3 4 5 6 
#
# 1 0.011928 -0.005959 -0.002923 0.000000 -0.000001 0.000000
# 2 -0.005959 0.011928 -0.002923 0.000000 0.000001 0.000000
# 3 -0.002923 -0.002923 0.016231 0.000000 0.000000 0.000000
# 4 0.000000 0.000000 0.000000 0.062477 0.000000 0.000001
# 5 -0.000001 0.000001 0.000000 0.000000 0.062477 0.000000
# 6 0.000000 0.000000 0.000000 0.000001 0.000000 0.035775
#
#
# Mechanical properties :
#
#
# Convention : Reuss Voigt Hill
#
# Bulk Modulus (GPa) = 60.68519 69.78763 65.23641
# Shear Modulus (GPa) = 21.74678 24.46656 23.10667
#
# Velocity S-wave (km/s) = 3.58629 3.80395 3.69672
# Velocity P-wave (km/s) = 7.28279 7.78249 7.53678
#
# Compressibility (1/GPa) = 0.01647849
#
# Stress axis : x y z
#
# Youngs Moduli (GPa) = 83.83390 83.83390 61.61163
#
# Poissons Ratio (x) = 0.49959 0.18006
# Poissons Ratio (y) = 0.49959 0.18006
# Poissons Ratio (z) = 0.24501 0.24501
#
# Static dielectric constant tensor:
#      x y z
#    x 1.558880 0.000000 0.000000 
#    y 0.000000 1.558880 0.000000 
#    z 0.000000 0.000000 1.572330 
# 
# From -- ./inp_files/1602.got.cif
#   From: 2010.05.17/outbox.cif.g08.bks.cpg/sg187_1_cif.got.tgz:1602.got - 2010.05.20 12:09:04.
