data_PCOD9585907
_publ_section_title
;
Structure prediction by ZEFSAII (Michael W. Deem and Ramdas Pophale) SiO2 
 PCOD9585907
Probable space group: P -6 C 2
;
_chemical_formula_sum "Si O2"
_cell_formula_units_Z 54
_cell_length_a 19.704313
_cell_length_b 19.704313
_cell_length_c 9.122978
_cell_angle_alpha 90.000000
_cell_angle_beta 90.000000
_cell_angle_gamma 120.000000
_cell_volume 3067.537315
_symmetry_space_group_name_H-M "P -6 C 2"
_symmetry_group_IT_number 188
_symmetry_cell_setting 'hexagonal'
loop_
_space_group_symop_operation_xyz
x,y,z
-x+y,-x,1/2-z
-y,x-y,z
x,y,1/2-z
-x+y,-x,z
-y,x-y,1/2-z
-y,-x,-z
-x+y,y,-z
x,x-y,-z
-x+y,y,1/2+z
x,x-y,1/2+z
-y,-x,1/2+z
loop_
_atom_site_type_symbol
_atom_site_label
_atom_site_fract_x
_atom_site_fract_y
_atom_site_fract_z
Si Si1 0.706166 0.919656 0.422125
Si Si2 0.903980 0.661735 0.073326
Si Si3 0.557664 0.673983 0.412085
Si Si4 0.335768 0.756387 0.250000
Si Si5 0.940676 0.401206 0.077605
O O1 0.712008 0.914751 0.250000
O O2 0.738201 0.869101 0.500000
O O3 0.614743 0.881881 0.467581
O O4 0.747033 0.010891 0.463860
O O5 0.896643 0.655539 0.250000
O O6 0.834491 0.668981 0.000000
O O7 0.906428 0.587502 0.005526
O O8 0.596187 0.704873 0.250000
O O9 0.472411 0.663807 0.386833
O O10 0.557337 0.593022 0.433207
O O11 0.407259 0.738676 0.250000
O O12 0.921046 0.390357 0.250000
O O13 0.915717 0.457859 0.000000
#
# Coordination Sequence:
#
# PCOD9585907 Si02
#       5
#    12  12  12   6  12
#     4  10  20  35  57  85 110 141 187 231 277 333
#     4  10  21  38  60  87 115 149 179 227 288 342
#     4   8  17  34  51  75 101 146 190 237 292 310
#     4   8  16  34  54  70 100 148 200 246 296 334
#     4  10  19  34  55  82 113 146 192 237 276 334
#
# _framework density 17.603695999999999
#
# number of rings (size 3 to 8) (size 9 to 14) (size 15 to 20)
#    0.889    1.778    0.000    2.000    0.000    3.556 
#    8.000    0.000    0.000    3.556    0.000    3.111 
#    0.000    0.000    0.000    0.000    0.000    0.000 
#
# Total GULP energy -300977.754577 kJ/mol
# GULP energy per Si atom -5573.662122 kJ/mol
# Density = 1.756363 g / cm^3
# Si number density = 17.603696 Si / 1000 Ang^3
#
#
#
# Elastic Constant Matrix: (Units=GPa)
#
#
# Indices 1 2 3 4 5 6 
#
# 1 106.3488 81.6624 57.6032 -0.0001 0.0000 0.0000
# 2 81.6624 106.3488 57.6032 0.0001 0.0000 0.0000
# 3 57.6032 57.6032 83.2425 0.0000 0.0000 0.0000
# 4 -0.0001 0.0001 0.0000 27.0854 0.0000 0.0000
# 5 0.0000 0.0000 0.0000 0.0000 27.0854 -0.0001
# 6 0.0000 0.0000 0.0000 0.0000 -0.0001 12.3432
#
#
#
# Elastic Compliance Matrix: (Units=1/GPa)
#
#
# Indices 1 2 3 4 5 6 
#
# 1 0.024871 -0.015637 -0.006390 0.000000 0.000000 0.000000
# 2 -0.015637 0.024871 -0.006390 0.000000 0.000000 0.000000
# 3 -0.006390 -0.006390 0.020857 0.000000 0.000000 0.000000
# 4 0.000000 0.000000 0.000000 0.036920 0.000000 0.000000
# 5 0.000000 0.000000 0.000000 0.000000 0.036920 0.000000
# 6 0.000000 0.000000 0.000000 0.000000 0.000000 0.081016
#
#
# Mechanical properties :
#
#
# Convention : Reuss Voigt Hill
#
# Bulk Modulus (GPa) = 72.64684 76.63088 74.63886
# Shear Modulus (GPa) = 17.42892 19.90754 18.66823
#
# Velocity S-wave (km/s) = 3.14995 3.36649 3.26002
# Velocity P-wave (km/s) = 7.38831 7.66399 7.52741
#
# Compressibility (1/GPa) = 0.01376522
#
# Stress axis : x y z
#
# Youngs Moduli (GPa) = 40.20692 40.20692 47.94538
#
# Poissons Ratio (x) = 0.62871 0.30638
# Poissons Ratio (y) = 0.62871 0.30638
# Poissons Ratio (z) = 0.25693 0.25693
#
# Static dielectric constant tensor:
#      x y z
#    x 1.601230 0.000000 0.000000 
#    y 0.000000 1.601230 0.000000 
#    z 0.000000 0.000000 1.618560 
# 
# From -- ./inp_files/581.got.cif
#   From: 2010.05.17/outbox.cif.g08.bks.cpg/sg188_1_cif.got.tgz:581.got - 2010.05.20 12:11:46.
