data_PCOD9585977
_publ_section_title
;
Structure prediction by ZEFSAII (Michael W. Deem and Ramdas Pophale) SiO2 
 PCOD9585977
Probable space group: P -6 C 2
;
_chemical_formula_sum "Si O2"
_cell_formula_units_Z 70
_cell_length_a 14.364580
_cell_length_b 14.364580
_cell_length_c 17.360669
_cell_angle_alpha 90.000000
_cell_angle_beta 90.000000
_cell_angle_gamma 120.000000
_cell_volume 3102.294003
_symmetry_space_group_name_H-M "P -6 C 2"
_symmetry_group_IT_number 188
_symmetry_cell_setting 'hexagonal'
loop_
_space_group_symop_operation_xyz
x,y,z
-x+y,-x,1/2-z
-y,x-y,z
x,y,1/2-z
-x+y,-x,z
-y,x-y,1/2-z
-y,-x,-z
-x+y,y,-z
x,x-y,-z
-x+y,y,1/2+z
x,x-y,1/2+z
-y,-x,1/2+z
loop_
_atom_site_type_symbol
_atom_site_label
_atom_site_fract_x
_atom_site_fract_y
_atom_site_fract_z
Si Si1 0.327364 0.451442 0.117666
Si Si2 0.960641 0.820971 0.579740
Si Si3 0.162247 0.116220 0.750000
Si Si4 0.333334 0.666667 0.342185
Si Si5 0.677391 0.838696 0.500000
Si Si6 0.548523 0.082119 0.093918
Si Si7 0.199954 0.279885 0.250000
Si Si8 0.776939 0.207116 0.590690
O O1 0.309145 0.550901 0.129528
O O2 0.278101 0.395669 0.036140
O O3 0.453148 0.490911 0.122129
O O4 0.259232 0.357466 0.178276
O O5 0.927541 0.855082 0.500000
O O6 0.965930 0.875074 0.660762
O O7 0.868313 0.697470 0.594341
O O8 0.073624 0.829047 0.561345
O O9 0.162547 0.232201 0.750000
O O10 0.220199 0.042075 0.750000
O O11 0.333334 0.666668 0.250000
O O12 0.484954 0.141106 0.121970
O O13 0.672697 0.150627 0.121157
O O14 0.539255 0.078509 0.000000
O O15 0.771498 0.228503 0.500000
#
# Coordination Sequence:
#
# PCOD9585977 Si02
#       8
#    12  12   6   4   6  12   6  12
#     4  12  27  46  73 104 153 201 256 327 388 477
#     4  11  24  43  68 103 145 186 246 313 380 465
#     4  12  25  44  74 102 140 198 246 306 388 462
#     4  12  30  52  71 106 150 202 275 325 399 478
#     4  12  24  44  68 102 144 194 250 316 392 454
#     4  10  20  37  67 104 144 189 241 310 388 458
#     4  12  25  50  72 104 148 196 260 316 390 474
#     4   9  18  36  63  99 140 180 238 300 376 453
#
# _framework density 22.563948
#
# number of rings (size 3 to 8) (size 9 to 14) (size 15 to 20)
#    0.000    1.029    2.571    5.657    4.800    1.371 
#    0.514    0.857    0.000    0.000    0.000    2.400 
#    0.000    0.000    0.000    0.000    0.000    0.000 
#
# Total GULP energy -390201.176380 kJ/mol
# GULP energy per Si atom -5574.302520 kJ/mol
# Density = 2.251259 g / cm^3
# Si number density = 22.563948 Si / 1000 Ang^3
#
#
#
# Elastic Constant Matrix: (Units=GPa)
#
#
# Indices 1 2 3 4 5 6 
#
# 1 129.4203 29.9301 34.8169 -0.0026 -0.0025 -0.0030
# 2 29.9301 129.4249 34.8164 0.0020 0.0020 0.0056
# 3 34.8169 34.8164 107.5594 0.0001 0.0001 -0.0001
# 4 -0.0026 0.0020 0.0001 61.1127 0.0017 -0.0023
# 5 -0.0025 0.0020 0.0001 0.0017 61.1098 0.0034
# 6 -0.0030 0.0056 -0.0001 -0.0023 0.0034 49.7636
#
#
#
# Elastic Compliance Matrix: (Units=1/GPa)
#
#
# Indices 1 2 3 4 5 6 
#
# 1 0.008680 -0.001371 -0.002366 0.000000 0.000000 0.000001
# 2 -0.001371 0.008680 -0.002366 0.000000 0.000000 -0.000001
# 3 -0.002366 -0.002366 0.010829 0.000000 0.000000 0.000000
# 4 0.000000 0.000000 0.000000 0.016363 0.000000 0.000001
# 5 0.000000 0.000000 0.000000 0.000000 0.016364 -0.000001
# 6 0.000001 -0.000001 0.000000 0.000001 -0.000001 0.020095
#
#
# Mechanical properties :
#
#
# Convention : Reuss Voigt Hill
#
# Bulk Modulus (GPa) = 62.56453 62.83683 62.70068
# Shear Modulus (GPa) = 50.73828 52.18664 51.46246
#
# Velocity S-wave (km/s) = 4.74713 4.81441 4.78089
# Velocity P-wave (km/s) = 7.60492 7.66900 7.63703
#
# Compressibility (1/GPa) = 0.01598350
#
# Stress axis : x y z
#
# Youngs Moduli (GPa) = 115.20312 115.20795 92.34532
#
# Poissons Ratio (x) = 0.15794 0.21850
# Poissons Ratio (y) = 0.15793 0.21848
# Poissons Ratio (z) = 0.27258 0.27257
#
# Static dielectric constant tensor:
#      x y z
#    x 1.795070 0.000010 0.000000 
#    y 0.000010 1.795090 0.000000 
#    z 0.000000 0.000000 1.832700 
# 
# From -- ./inp_files/3266.got.cif
#   From: 2010.05.17/outbox.cif.g08.bks.cpg/sg188_2_cif.got.tgz:3266.got - 2010.05.20 12:11:46.
