data_PCOD9585008
_publ_section_title
;
Structure prediction by ZEFSAII (Michael W. Deem and Ramdas Pophale) SiO2 
 PCOD9585008
Probable space group: P 6 M M
;
_chemical_formula_sum "Si O2"
_cell_formula_units_Z 96
_cell_length_a 18.135013
_cell_length_b 18.135013
_cell_length_c 20.883573
_cell_angle_alpha 90.000000
_cell_angle_beta 90.000000
_cell_angle_gamma 120.000000
_cell_volume 5948.003000
_symmetry_space_group_name_H-M "P 6 M M"
_symmetry_group_IT_number 183
_symmetry_cell_setting 'hexagonal'
loop_
_space_group_symop_operation_xyz
x,y,z
x-y,x,z
-y,x-y,z
-x,-y,z
-x+y,-x,z
y,-x+y,z
-x+y,y,z
x,x-y,z
-y,-x,z
y,x,z
x-y,-y,z
-x,-x+y,z
loop_
_atom_site_type_symbol
_atom_site_label
_atom_site_fract_x
_atom_site_fract_y
_atom_site_fract_z
Si Si1 0.532994 0.635434 0.481010
Si Si2 0.734493 0.099306 0.218897
Si Si3 0.097280 0.730459 0.737299
Si Si4 0.508243 0.667489 0.857510
Si Si5 0.102740 0.468411 0.101553
Si Si6 0.358331 0.098115 0.365183
Si Si7 0.100086 0.731656 0.978302
Si Si8 0.836360 0.331366 0.622180
O O1 0.435505 0.564496 0.469023
O O2 0.585555 0.585555 0.487528
O O3 0.571965 0.696158 0.420389
O O4 0.536405 0.677280 0.549109
O O5 0.834516 0.165485 0.210488
O O6 0.684400 0.124637 0.168373
O O7 0.712801 0.106359 0.292917
O O8 0.704440 0.000000 0.207735
O O9 0.170008 0.829993 0.740150
O O10 0.118305 0.684246 0.794751
O O11 0.111362 0.692075 0.671778
O O12 0.000000 0.707732 0.742381
O O13 0.482827 0.741414 0.858102
O O14 0.425231 0.574770 0.858206
O O15 0.568776 0.684865 0.918692
O O16 0.137334 0.568667 0.095260
O O17 0.000000 0.422432 0.100948
O O18 0.123451 0.426032 0.042164
O O19 0.319912 0.159956 0.368885
O O20 0.289877 0.000000 0.374753
O O21 0.167816 0.832185 0.972045
O O22 0.000000 0.702352 0.980826
O O23 0.853383 0.426692 0.630998
O O24 0.737504 0.262497 0.633704
#
# Coordination Sequence:
#
# PCOD9585008 Si02
#       8
#    12  12  12  12  12  12  12  12
#     4   9  17  28  43  64  88 115 150 191 230 268
#     4   9  17  29  46  67  90 118 152 190 230 272
#     4  10  21  35  51  71  94 122 155 192 233 275
#     4  10  20  33  50  73 101 131 161 193 230 272
#     4   9  17  29  46  68  91 115 146 183 222 267
#     4   9  17  29  45  65  89 117 151 190 231 274
#     4  10  20  33  50  72  97 126 160 198 238 278
#     4  10  19  30  45  66  94 126 157 187 220 262
#
# _framework density 16.139872
#
# number of rings (size 3 to 8) (size 9 to 14) (size 15 to 20)
#    0.000    2.500    0.000    2.500    0.000    3.250 
#    0.000    3.750    0.000    3.500    0.000    1.750 
#    0.000    6.000    0.000    4.125    0.000    3.250 
#
# Total GULP energy -534850.565332 kJ/mol
# GULP energy per Si atom -5571.360056 kJ/mol
# Density = 1.610314 g / cm^3
# Si number density = 16.139872 Si / 1000 Ang^3
#
#
#
# Elastic Constant Matrix: (Units=GPa)
#
#
# Indices 1 2 3 4 5 6 
#
# 1 82.9068 56.8740 44.1467 0.0000 0.0000 0.0000
# 2 56.8740 82.9068 44.1467 0.0000 0.0000 0.0000
# 3 44.1467 44.1467 98.9281 0.0000 0.0000 0.0000
# 4 0.0000 0.0000 0.0000 20.9461 0.0000 0.0000
# 5 0.0000 0.0000 0.0000 0.0000 20.9461 0.0000
# 6 0.0000 0.0000 0.0000 0.0000 0.0000 13.0164
#
#
#
# Elastic Compliance Matrix: (Units=1/GPa)
#
#
# Indices 1 2 3 4 5 6 
#
# 1 0.024188 -0.014225 -0.004446 0.000000 0.000000 0.000000
# 2 -0.014225 0.024188 -0.004446 0.000000 0.000000 0.000000
# 3 -0.004446 -0.004446 0.014076 0.000000 0.000000 0.000000
# 4 0.000000 0.000000 0.000000 0.047742 0.000000 0.000000
# 5 0.000000 0.000000 0.000000 0.000000 0.047742 0.000000
# 6 0.000000 0.000000 0.000000 0.000000 0.000000 0.076826
#
#
# Mechanical properties :
#
#
# Convention : Reuss Voigt Hill
#
# Bulk Modulus (GPa) = 61.66020 61.67517 61.66769
# Shear Modulus (GPa) = 17.45808 18.95333 18.20570
#
# Velocity S-wave (km/s) = 3.29245 3.43055 3.36221
# Velocity P-wave (km/s) = 7.26225 7.34761 7.30505
#
# Compressibility (1/GPa) = 0.01621792
#
# Stress axis : x y z
#
# Youngs Moduli (GPa) = 41.34341 41.34341 71.04264
#
# Poissons Ratio (x) = 0.58813 0.31583
# Poissons Ratio (y) = 0.58813 0.31583
# Poissons Ratio (z) = 0.18380 0.18380
#
# Static dielectric constant tensor:
#      x y z
#    x 1.534440 0.000000 0.000000 
#    y 0.000000 1.534440 0.000000 
#    z 0.000000 0.000000 1.555940 
# 
# From -- ./inp_files/2930.got.cif
#   From: 2010.05.17/outbox.cif.g08.bks.cpg/sg183_2_cif.got.tgz:2930.got - 2010.05.20 12:02:58.
