data_PCOD9585406
_publ_section_title
;
Structure prediction by ZEFSAII (Michael W. Deem and Ramdas Pophale) SiO2 
 PCOD9585406
Probable space group: P 63 M C
;
_chemical_formula_sum "Si O2"
_cell_formula_units_Z 84
_cell_length_a 22.566400
_cell_length_b 22.566400
_cell_length_c 9.871960
_cell_angle_alpha 90.000000
_cell_angle_beta 90.000000
_cell_angle_gamma 120.000000
_cell_volume 4353.700829
_symmetry_space_group_name_H-M "P 63 M C"
_symmetry_group_IT_number 186
_symmetry_cell_setting 'hexagonal'
loop_
_space_group_symop_operation_xyz
x,y,z
x-y,x,1/2+z
-y,x-y,z
-x,-y,1/2+z
-x+y,-x,z
y,-x+y,1/2+z
-x+y,y,z
x,x-y,z
-y,-x,z
y,x,1/2+z
x-y,-y,1/2+z
-x,-x+y,1/2+z
loop_
_atom_site_type_symbol
_atom_site_label
_atom_site_fract_x
_atom_site_fract_y
_atom_site_fract_z
Si Si1 0.708247 0.555140 0.209330
Si Si2 0.489896 0.846771 0.977219
Si Si3 0.793081 0.461136 0.765622
Si Si4 0.954708 0.321069 0.425931
Si Si5 0.918634 0.528514 0.954752
Si Si6 0.860537 0.861740 0.773659
Si Si7 0.812974 0.050687 0.528703
O O1 0.784514 0.569027 0.178859
O O2 0.676715 0.498177 0.329686
O O3 0.705846 0.618606 0.283742
O O4 0.657004 0.533080 0.082767
O O5 0.437726 0.875452 0.964888
O O6 0.464353 0.796487 0.103400
O O7 0.567394 0.902740 0.012984
O O8 0.743455 0.486909 0.817570
O O9 0.765924 0.382962 0.806407
O O10 0.867593 0.502788 0.827953
O O11 0.964767 0.262150 0.490541
O O12 0.020968 0.395638 0.419743
O O13 0.939515 0.469758 0.979377
O O14 0.862467 0.931234 0.728564
O O15 0.821451 0.839930 0.915778
O O16 0.819310 0.799793 0.669623
O O17 0.936828 0.873656 0.782957
O O18 0.867699 0.132302 0.529669
#
# Coordination Sequence:
#
# PCOD9585406 Si02
#       7
#    12  12  12  12  12  12  12
#     4  10  22  40  63  87 120 166 209 254 309 371
#     4   9  20  36  61  86 116 158 207 255 301 364
#     4  10  21  38  59  87 121 159 200 250 310 372
#     4  10  24  38  61  87 123 162 199 249 308 365
#     4  11  24  39  63  94 125 159 208 262 314 377
#     4  10  21  39  62  88 119 156 200 248 298 352
#     4  10  22  38  58  87 121 156 197 244 296 361
#
# _framework density 19.293928999999999
#
# number of rings (size 3 to 8) (size 9 to 14) (size 15 to 20)
#    0.857    1.143    0.000    2.857    4.000    0.000 
#    0.000    5.000    0.000    4.000    0.000    0.000 
#    0.000    0.000    0.000    0.000    0.000    0.000 
#
# Total GULP energy -467769.595762 kJ/mol
# GULP energy per Si atom -5568.685664 kJ/mol
# Density = 1.925002 g / cm^3
# Si number density = 19.293929 Si / 1000 Ang^3
#
#
#
# Elastic Constant Matrix: (Units=GPa)
#
#
# Indices 1 2 3 4 5 6 
#
# 1 61.8726 58.6469 -1.6112 0.0000 0.0000 0.0000
# 2 58.6469 61.8726 -1.6112 0.0000 0.0000 0.0000
# 3 -1.6112 -1.6112 52.7420 0.0000 0.0000 0.0000
# 4 0.0000 0.0000 0.0000 14.3948 0.0000 0.0000
# 5 0.0000 0.0000 0.0000 0.0000 14.3948 0.0000
# 6 0.0000 0.0000 0.0000 0.0000 0.0000 1.6128
#
#
#
# Elastic Compliance Matrix: (Units=1/GPa)
#
#
# Indices 1 2 3 4 5 6 
#
# 1 0.159158 -0.150853 0.000254 0.000000 0.000000 0.000000
# 2 -0.150853 0.159158 0.000254 0.000000 0.000000 0.000000
# 3 0.000254 0.000254 0.018976 0.000000 0.000000 0.000000
# 4 0.000000 0.000000 0.000000 0.069469 0.000000 0.000000
# 5 0.000000 0.000000 0.000000 0.000000 0.069469 0.000000
# 6 0.000000 0.000000 0.000000 0.000000 0.000000 0.620022
#
#
# Mechanical properties :
#
#
# Convention : Reuss Voigt Hill
#
# Bulk Modulus (GPa) = 27.32329 31.92626 29.62477
# Shear Modulus (GPa) = 3.54826 14.15134 8.84980
#
# Velocity S-wave (km/s) = 1.35759 2.71119 2.14401
# Velocity P-wave (km/s) = 4.08041 5.13653 4.63862
#
# Compressibility (1/GPa) = 0.03659882
#
# Stress axis : x y z
#
# Youngs Moduli (GPa) = 6.28308 6.28308 52.69894
#
# Poissons Ratio (x) = 0.94782 -0.01337
# Poissons Ratio (y) = 0.94782 -0.01337
# Poissons Ratio (z) = -0.00159 -0.00159
#
# Static dielectric constant tensor:
#      x y z
#    x 1.674630 0.000000 0.000000 
#    y 0.000000 1.674630 0.000000 
#    z 0.000000 0.000000 1.670350 
# 
# From -- ./inp_files/1882.got.cif
#   From: 2010.05.17/outbox.cif.g08.bks.cpg/sg186_1_cif.got.tgz:1882.got - 2010.05.20 12:07:08.
