data_PCOD9585212
_publ_section_title
;
Structure prediction by ZEFSAII (Michael W. Deem and Ramdas Pophale) SiO2 
 PCOD9585212
Probable space group: P 63 C M
;
_chemical_formula_sum "Si O2"
_cell_formula_units_Z 48
_cell_length_a 20.994971
_cell_length_b 20.994971
_cell_length_c 5.374297
_cell_angle_alpha 90.000000
_cell_angle_beta 90.000000
_cell_angle_gamma 120.000000
_cell_volume 2051.553529
_symmetry_space_group_name_H-M "P 63 C M"
_symmetry_group_IT_number 185
_symmetry_cell_setting 'hexagonal'
loop_
_space_group_symop_operation_xyz
x,y,z
x-y,x,1/2+z
-y,x-y,z
-x,-y,1/2+z
-x+y,-x,z
y,-x+y,1/2+z
-x+y,y,1/2+z
x,x-y,1/2+z
-y,-x,1/2+z
y,x,z
x-y,-y,z
-x,-x+y,z
loop_
_atom_site_type_symbol
_atom_site_label
_atom_site_fract_x
_atom_site_fract_y
_atom_site_fract_z
Si Si1 0.529879 0.610304 0.345360
Si Si2 0.365943 0.783157 0.839876
Si Si3 0.423661 0.297845 0.351731
Si Si4 0.168384 0.257494 0.348944
O O1 0.541566 0.541566 0.365176
O O2 0.444161 0.583105 0.319580
O O3 0.565425 0.660185 0.590052
O O4 0.571194 0.656837 0.099947
O O5 0.364975 0.750964 0.573606
O O6 0.297878 0.797000 0.872919
O O7 0.346019 0.224035 0.348855
O O8 0.119680 0.239133 0.599199
O O9 0.216340 0.216340 0.348232
#
# Coordination Sequence:
#
# PCOD9585212 Si02
#       4
#    12  12  12  12
#     4  10  17  26  44  74 113 154 190 216 237 280
#     4   8  16  26  41  70 110 153 189 214 234 271
#     4  10  20  33  51  77 110 149 187 218 263 333
#     4  12  26  45  68  91 116 148 188 242 315 404
#
# _framework density 23.396903999999999
#
# number of rings (size 3 to 8) (size 9 to 14) (size 15 to 20)
#    0.000    2.000    0.000    4.500    0.000   10.000 
#    0.000    0.000    0.000    5.000    0.000    0.000 
#    0.000    0.000    0.000  405.000    0.000  135.000 
#
# Total GULP energy -268357.726443 kJ/mol
# GULP energy per Si atom -5590.785968 kJ/mol
# Density = 2.334365 g / cm^3
# Si number density = 23.396904 Si / 1000 Ang^3
#
#
#
# Elastic Constant Matrix: (Units=GPa)
#
#
# Indices 1 2 3 4 5 6 
#
# 1 105.5224 50.8410 24.5121 0.0000 0.0000 0.0000
# 2 50.8410 105.5224 24.5121 0.0000 0.0000 0.0000
# 3 24.5121 24.5121 190.4979 0.0000 0.0000 0.0000
# 4 0.0000 0.0000 0.0000 16.0853 0.0000 0.0000
# 5 0.0000 0.0000 0.0000 0.0000 16.0853 0.0000
# 6 0.0000 0.0000 0.0000 0.0000 0.0000 27.3407
#
#
#
# Elastic Compliance Matrix: (Units=1/GPa)
#
#
# Indices 1 2 3 4 5 6 
#
# 1 0.012476 -0.005812 -0.000858 0.000000 0.000000 0.000000
# 2 -0.005812 0.012476 -0.000858 0.000000 0.000000 0.000000
# 3 -0.000858 -0.000858 0.005470 0.000000 0.000000 0.000000
# 4 0.000000 0.000000 0.000000 0.062169 0.000000 0.000000
# 5 0.000000 0.000000 0.000000 0.000000 0.062169 0.000000
# 6 0.000000 0.000000 0.000000 0.000000 0.000000 0.036576
#
#
# Mechanical properties :
#
#
# Convention : Reuss Voigt Hill
#
# Bulk Modulus (GPa) = 65.06833 66.80814 65.93823
# Shear Modulus (GPa) = 23.63943 32.01409 27.82676
#
# Velocity S-wave (km/s) = 3.18207 3.70307 3.45242
# Velocity P-wave (km/s) = 6.43209 6.84835 6.64348
#
# Compressibility (1/GPa) = 0.01536846
#
# Stress axis : x y z
#
# Youngs Moduli (GPa) = 80.15395 80.15395 182.81270
#
# Poissons Ratio (x) = 0.46584 0.15676
# Poissons Ratio (y) = 0.46584 0.15676
# Poissons Ratio (z) = 0.06873 0.06873
#
# Static dielectric constant tensor:
#      x y z
#    x 1.887360 0.000000 0.000000 
#    y 0.000000 1.887360 0.000000 
#    z 0.000000 0.000000 1.985250 
# 
# From -- ./inp_files/86.got.cif
#   From: 2010.05.17/outbox.cif.g08.bks.cpg/sg185_cif.got.tgz:86.got - 2010.05.20 12:05:34.
