data_PCOD9585396
_publ_section_title
;
Structure prediction by ZEFSAII (Michael W. Deem and Ramdas Pophale) SiO2 
 PCOD9585396
Probable space group: P 63 M C
;
_chemical_formula_sum "Si O2"
_cell_formula_units_Z 30
_cell_length_a 17.761940
_cell_length_b 17.761940
_cell_length_c 5.129521
_cell_angle_alpha 90.000000
_cell_angle_beta 90.000000
_cell_angle_gamma 120.000000
_cell_volume 1401.484314
_symmetry_space_group_name_H-M "P 63 M C"
_symmetry_group_IT_number 186
_symmetry_cell_setting 'hexagonal'
loop_
_space_group_symop_operation_xyz
x,y,z
x-y,x,1/2+z
-y,x-y,z
-x,-y,1/2+z
-x+y,-x,z
y,-x+y,1/2+z
-x+y,y,z
x,x-y,z
-y,-x,z
y,x,1/2+z
x-y,-y,1/2+z
-x,-x+y,1/2+z
loop_
_atom_site_type_symbol
_atom_site_label
_atom_site_fract_x
_atom_site_fract_y
_atom_site_fract_z
Si Si1 0.664657 0.506015 0.174310
Si Si2 0.940075 0.240356 0.354221
Si Si3 0.469319 0.938638 0.305630
O O1 0.746893 0.493785 0.164563
O O2 0.581897 0.418104 0.283647
O O3 0.693281 0.596317 0.317121
O O4 0.631860 0.510931 0.881747
O O5 0.856088 0.143913 0.332870
O O6 0.990835 0.254432 0.622779
O O7 0.503754 0.007508 0.545801
#
# Coordination Sequence:
#
# PCOD9585396 Si02
#       3
#    12  12   6
#     4   9  20  36  62  90 130 169 213 259 305 366
#     4  11  23  41  66  95 125 163 206 256 314 374
#     4  10  20  36  58  80 114 162 208 252 300 358
#
# _framework density 21.405875999999999
#
# number of rings (size 3 to 8) (size 9 to 14) (size 15 to 20)
#    1.200    0.800    0.000    4.000    0.000    0.000 
#    0.000    6.000    0.000    8.000    0.000    0.000 
#    0.000    0.000    0.000    0.000    0.000    0.000 
#
# Total GULP energy -167563.809843 kJ/mol
# GULP energy per Si atom -5585.460328 kJ/mol
# Density = 2.135716 g / cm^3
# Si number density = 21.405876 Si / 1000 Ang^3
#
#
#
# Elastic Constant Matrix: (Units=GPa)
#
#
# Indices 1 2 3 4 5 6 
#
# 1 124.1929 64.0493 24.9083 0.0000 0.0000 0.0000
# 2 64.0493 124.1929 24.9083 0.0000 0.0000 0.0000
# 3 24.9083 24.9083 78.8040 0.0000 0.0000 0.0000
# 4 0.0000 0.0000 0.0000 19.5085 0.0000 0.0000
# 5 0.0000 0.0000 0.0000 0.0000 19.5085 0.0000
# 6 0.0000 0.0000 0.0000 0.0000 0.0000 30.0718
#
#
#
# Elastic Compliance Matrix: (Units=1/GPa)
#
#
# Indices 1 2 3 4 5 6 
#
# 1 0.011212 -0.005415 -0.001832 0.000000 0.000000 0.000000
# 2 -0.005415 0.011212 -0.001832 0.000000 0.000000 0.000000
# 3 -0.001832 -0.001832 0.013848 0.000000 0.000000 0.000000
# 4 0.000000 0.000000 0.000000 0.051260 0.000000 0.000000
# 5 0.000000 0.000000 0.000000 0.000000 0.051260 0.000000
# 6 0.000000 0.000000 0.000000 0.000000 0.000000 0.033254
#
#
# Mechanical properties :
#
#
# Convention : Reuss Voigt Hill
#
# Bulk Modulus (GPa) = 55.20896 61.65793 58.43345
# Shear Modulus (GPa) = 25.47873 28.03936 26.75904
#
# Velocity S-wave (km/s) = 3.45377 3.62317 3.53948
# Velocity P-wave (km/s) = 6.46159 6.80954 6.63785
#
# Compressibility (1/GPa) = 0.01811300
#
# Stress axis : x y z
#
# Youngs Moduli (GPa) = 89.18970 89.18970 72.21224
#
# Poissons Ratio (x) = 0.48295 0.13232
# Poissons Ratio (y) = 0.48295 0.13232
# Poissons Ratio (z) = 0.16343 0.16343
#
# Static dielectric constant tensor:
#      x y z
#    x 1.785090 0.000000 0.000000 
#    y 0.000000 1.785090 0.000000 
#    z 0.000000 0.000000 1.863150 
# 
# From -- ./inp_files/91.got.cif
#   From: 2010.05.17/outbox.cif.g08.bks.cpg/sg186_1_cif.got.tgz:91.got - 2010.05.20 12:07:08.
