data_PCOD9585935
_publ_section_title
;
Structure prediction by ZEFSAII (Michael W. Deem and Ramdas Pophale) SiO2 
 PCOD9585935
Probable space group: P -6 C 2
;
_chemical_formula_sum "Si O2"
_cell_formula_units_Z 72
_cell_length_a 24.423606
_cell_length_b 24.423606
_cell_length_c 9.299910
_cell_angle_alpha 90.000000
_cell_angle_beta 90.000000
_cell_angle_gamma 120.000000
_cell_volume 4804.287050
_symmetry_space_group_name_H-M "P -6 C 2"
_symmetry_group_IT_number 188
_symmetry_cell_setting 'hexagonal'
loop_
_space_group_symop_operation_xyz
x,y,z
-x+y,-x,1/2-z
-y,x-y,z
x,y,1/2-z
-x+y,-x,z
-y,x-y,1/2-z
-y,-x,-z
-x+y,y,-z
x,x-y,-z
-x+y,y,1/2+z
x,x-y,1/2+z
-y,-x,1/2+z
loop_
_atom_site_type_symbol
_atom_site_label
_atom_site_fract_x
_atom_site_fract_y
_atom_site_fract_z
Si Si1 0.223646 0.340866 0.584680
Si Si2 0.478710 0.406573 0.419980
Si Si3 0.993953 0.654302 0.576256
Si Si4 0.146783 0.959755 0.415519
Si Si5 0.553144 0.331293 0.079679
Si Si6 0.809479 0.080201 0.923035
O O1 0.228808 0.360407 0.750000
O O2 0.181649 0.363298 0.500000
O O3 0.293165 0.358483 0.532113
O O4 0.184437 0.263949 0.582458
O O5 0.476422 0.417588 0.250000
O O6 0.530180 0.469821 0.500000
O O7 0.411136 0.378687 0.494638
O O8 0.504130 0.356874 0.435550
O O9 0.993519 0.646618 0.750000
O O10 0.949529 0.684754 0.545277
O O11 0.132842 0.965618 0.250000
O O12 0.082209 0.917792 0.500000
O O13 0.199182 0.028576 0.470779
O O14 0.564086 0.327624 0.250000
O O15 0.617159 0.382842 0.000000
O O16 0.530814 0.265407 0.000000
O O17 0.816242 0.085991 0.750000
O O18 0.854198 0.145803 0.000000
#
# Coordination Sequence:
#
# PCOD9585935 Si02
#       6
#    12  12  12  12  12  12
#     4   8  14  25  42  64  88 112 136 165 203 244
#     4  10  21  35  50  67  87 116 153 188 225 274
#     4   9  18  32  47  64  90 120 147 180 222 265
#     4   8  14  25  40  58  79 104 135 169 207 252
#     4  10  20  33  48  65  84 107 140 186 239 289
#     4   9  18  30  43  62  88 115 144 182 228 274
#
# _framework density 14.986613999999999
#
# number of rings (size 3 to 8) (size 9 to 14) (size 15 to 20)
#    0.000    3.000    0.000    3.167    0.000    4.667 
#    0.000    6.667    0.000    0.333    0.000    0.000 
#    0.000    0.000    0.000    0.500    0.000    8.000 
#
# Total GULP energy -400953.104052 kJ/mol
# GULP energy per Si atom -5568.793112 kJ/mol
# Density = 1.495250 g / cm^3
# Si number density = 14.986614 Si / 1000 Ang^3
#
#
#
# Elastic Constant Matrix: (Units=GPa)
#
#
# Indices 1 2 3 4 5 6 
#
# 1 80.3842 62.4671 54.4813 -0.0001 0.0000 0.0000
# 2 62.4671 80.3842 54.4813 0.0001 0.0000 0.0000
# 3 54.4813 54.4813 69.4725 0.0000 0.0000 0.0000
# 4 -0.0001 0.0001 0.0000 22.5632 0.0000 0.0000
# 5 0.0000 0.0000 0.0000 0.0000 22.5632 -0.0001
# 6 0.0000 0.0000 0.0000 0.0000 -0.0001 8.9585
#
#
#
# Elastic Compliance Matrix: (Units=1/GPa)
#
#
# Indices 1 2 3 4 5 6 
#
# 1 0.036617 -0.019196 -0.013662 0.000000 0.000000 0.000000
# 2 -0.019196 0.036617 -0.013662 0.000000 0.000000 0.000000
# 3 -0.013662 -0.013662 0.035822 0.000000 0.000000 0.000000
# 4 0.000000 0.000000 0.000000 0.044320 0.000000 0.000000
# 5 0.000000 0.000000 0.000000 0.000000 0.044320 0.000001
# 6 0.000000 0.000000 0.000000 0.000000 0.000001 0.111625
#
#
# Mechanical properties :
#
#
# Convention : Reuss Voigt Hill
#
# Bulk Modulus (GPa) = 62.43534 63.67782 63.05658
# Shear Modulus (GPa) = 12.26394 14.73771 13.50082
#
# Velocity S-wave (km/s) = 2.86374 3.13931 3.00469
# Velocity P-wave (km/s) = 7.25850 7.46474 7.36235
#
# Compressibility (1/GPa) = 0.01601657
#
# Stress axis : x y z
#
# Youngs Moduli (GPa) = 27.30976 27.30976 27.91584
#
# Poissons Ratio (x) = 0.52423 0.38138
# Poissons Ratio (y) = 0.52423 0.38138
# Poissons Ratio (z) = 0.37310 0.37310
#
# Static dielectric constant tensor:
#      x y z
#    x 1.489650 0.000000 0.000000 
#    y 0.000000 1.489650 0.000000 
#    z 0.000000 0.000000 1.499960 
# 
# From -- ./inp_files/989.got.cif
#   From: 2010.05.17/outbox.cif.g08.bks.cpg/sg188_1_cif.got.tgz:989.got - 2010.05.20 12:11:46.
