data_PCOD9585198
_publ_section_title
;
Structure prediction by ZEFSAII (Michael W. Deem and Ramdas Pophale) SiO2 
 PCOD9585198
Probable space group: P 6 C C
;
_chemical_formula_sum "Si O2"
_cell_formula_units_Z 72
_cell_length_a 14.684275
_cell_length_b 14.684275
_cell_length_c 18.295733
_cell_angle_alpha 90.000000
_cell_angle_beta 90.000000
_cell_angle_gamma 120.000000
_cell_volume 3416.531772
_symmetry_space_group_name_H-M "P 6 C C"
_symmetry_group_IT_number 184
_symmetry_cell_setting 'hexagonal'
loop_
_space_group_symop_operation_xyz
x,y,z
x-y,x,z
-y,x-y,z
-x,-y,z
-x+y,-x,z
y,-x+y,z
-x+y,y,1/2+z
x,x-y,1/2+z
-y,-x,1/2+z
y,x,1/2+z
x-y,-y,1/2+z
-x,-x+y,1/2+z
loop_
_atom_site_type_symbol
_atom_site_label
_atom_site_fract_x
_atom_site_fract_y
_atom_site_fract_z
Si Si1 0.253100 0.433817 0.411500
Si Si2 0.595464 0.473582 0.856265
Si Si3 0.183361 0.240372 0.305382
Si Si4 0.297514 0.896910 0.076707
Si Si5 0.570264 0.443817 0.693100
Si Si6 0.635445 0.894898 0.156290
O O1 0.354115 0.539931 0.383423
O O2 0.153682 0.451893 0.400609
O O3 0.238662 0.335695 0.363124
O O4 0.278055 0.416170 0.493722
O O5 0.500000 0.500000 0.861982
O O6 0.626975 0.475135 0.771205
O O7 0.202968 0.142836 0.313170
O O8 0.232205 0.291225 0.226670
O O9 0.361735 0.851561 0.120573
O O10 0.186161 0.846280 0.116933
O O11 0.353601 0.019533 0.096622
O O12 0.500000 0.500000 0.696710
O O13 0.484465 0.322355 0.685344
#
# Coordination Sequence:
#
# PCOD9585198 Si02
#       6
#    12  12  12  12  12  12
#     4  12  27  43  70 106 146 184 237 292 367 428
#     4  11  24  44  70 100 139 187 228 287 350 426
#     4  12  25  47  74 105 139 188 247 303 358 430
#     4  11  26  41  68 101 139 184 233 288 356 422
#     4   9  21  42  67  93 130 176 231 277 336 417
#     4  11  22  45  69  98 135 184 236 288 350 423
#
# _framework density 21.074003000000001
#
# number of rings (size 3 to 8) (size 9 to 14) (size 15 to 20)
#    0.000    1.000    3.333    2.500    9.333    0.667 
#    1.000    0.000    0.000    0.000    0.000    0.000 
#    0.000    0.000    0.000    0.000    0.000    0.000 
#
# Total GULP energy -402187.553177 kJ/mol
# GULP energy per Si atom -5585.938239 kJ/mol
# Density = 2.102604 g / cm^3
# Si number density = 21.074003 Si / 1000 Ang^3
#
#
#
# Elastic Constant Matrix: (Units=GPa)
#
#
# Indices 1 2 3 4 5 6 
#
# 1 82.5281 19.8545 40.4914 0.0000 0.0000 0.0000
# 2 19.8545 82.5281 40.4914 0.0000 0.0000 0.0000
# 3 40.4914 40.4914 173.4325 0.0000 0.0000 0.0000
# 4 0.0000 0.0000 0.0000 26.5373 0.0000 0.0000
# 5 0.0000 0.0000 0.0000 0.0000 26.5373 0.0000
# 6 0.0000 0.0000 0.0000 0.0000 0.0000 31.3368
#
#
#
# Elastic Compliance Matrix: (Units=1/GPa)
#
#
# Indices 1 2 3 4 5 6 
#
# 1 0.013968 -0.001988 -0.002797 0.000000 0.000000 0.000000
# 2 -0.001988 0.013968 -0.002797 0.000000 0.000000 0.000000
# 3 -0.002797 -0.002797 0.007072 0.000000 0.000000 0.000000
# 4 0.000000 0.000000 0.000000 0.037683 0.000000 0.000000
# 5 0.000000 0.000000 0.000000 0.000000 0.037683 0.000000
# 6 0.000000 0.000000 0.000000 0.000000 0.000000 0.031911
#
#
# Mechanical properties :
#
#
# Convention : Reuss Voigt Hill
#
# Bulk Modulus (GPa) = 50.39425 60.01815 55.20620
# Shear Modulus (GPa) = 30.47622 32.72570 31.60096
#
# Velocity S-wave (km/s) = 3.80696 3.94495 3.87657
# Velocity P-wave (km/s) = 6.57942 7.02081 6.80370
#
# Compressibility (1/GPa) = 0.01984353
#
# Stress axis : x y z
#
# Youngs Moduli (GPa) = 71.59415 71.59415 141.40451
#
# Poissons Ratio (x) = 0.14233 0.39549
# Poissons Ratio (y) = 0.14233 0.39549
# Poissons Ratio (z) = 0.20024 0.20024
#
# Static dielectric constant tensor:
#      x y z
#    x 1.815980 0.000000 0.000000 
#    y 0.000000 1.815980 0.000000 
#    z 0.000000 0.000000 1.736920 
# 
# From -- ./inp_files/1091.got.cif
#   From: 2010.05.17/outbox.cif.g08.bks.cpg/sg184_cif.got.tgz:1091.got - 2010.05.20 12:04:40.
