data_PCOD9585324
_publ_section_title
;
Structure prediction by ZEFSAII (Michael W. Deem and Ramdas Pophale) SiO2 
 PCOD9585324
Probable space group: P 63 M C
;
_chemical_formula_sum "Si O2"
_cell_formula_units_Z 84
_cell_length_a 17.477744
_cell_length_b 17.477744
_cell_length_c 17.583493
_cell_angle_alpha 90.000000
_cell_angle_beta 90.000000
_cell_angle_gamma 120.000000
_cell_volume 4651.644669
_symmetry_space_group_name_H-M "P 63 M C"
_symmetry_group_IT_number 186
_symmetry_cell_setting 'hexagonal'
loop_
_space_group_symop_operation_xyz
x,y,z
x-y,x,1/2+z
-y,x-y,z
-x,-y,1/2+z
-x+y,-x,z
y,-x+y,1/2+z
-x+y,y,z
x,x-y,z
-y,-x,z
y,x,1/2+z
x-y,-y,1/2+z
-x,-x+y,1/2+z
loop_
_atom_site_type_symbol
_atom_site_label
_atom_site_fract_x
_atom_site_fract_y
_atom_site_fract_z
Si Si1 0.106170 0.389406 0.012000
Si Si2 0.666670 0.511606 0.352793
Si Si3 0.168542 0.000000 0.845346
Si Si4 0.919577 0.250863 0.959414
Si Si5 0.333330 0.844936 0.337908
Si Si6 0.716764 0.106171 0.678701
Si Si7 0.919575 0.250864 0.231284
O O1 0.177537 0.355074 0.004199
O O2 0.124845 0.433731 0.095350
O O3 0.123424 0.449032 0.937454
O O4 0.003120 0.315647 0.009792
O O5 0.742043 0.484085 0.348477
O O6 0.570580 0.429421 0.339369
O O7 0.694042 0.587948 0.289815
O O8 0.077562 0.922439 0.877751
O O9 0.202988 0.959169 0.782617
O O10 0.155124 0.077562 0.812942
O O11 0.243820 0.040831 0.908076
O O12 0.827688 0.172313 0.993881
O O13 0.893907 0.305959 0.900886
O O14 0.429421 0.858841 0.351332
O O15 0.257958 0.742043 0.342225
O O16 0.325608 0.876575 0.253247
O O17 0.822463 0.177538 0.686502
O O18 0.687469 0.003119 0.680907
O O19 0.827685 0.172316 0.196816
#
# Coordination Sequence:
#
# PCOD9585324 Si02
#       7
#    12  12  12  12  12  12  12
#     4  10  20  34  51  73 104 138 168 204 253 305
#     4  10  20  35  54  76 100 131 169 212 260 311
#     4  10  17  28  47  72 100 128 162 202 245 292
#     4  10  19  32  52  74 101 133 168 211 254 297
#     4  10  20  35  54  76 100 131 169 212 260 311
#     4  10  20  34  51  73 104 138 168 204 253 305
#     4  10  19  32  52  74 101 133 168 211 254 297
#
# _framework density 18.058129999999998
#
# number of rings (size 3 to 8) (size 9 to 14) (size 15 to 20)
#    0.000    2.000    2.857    1.286    0.000    3.429 
#    0.000    0.000    0.000    2.286    0.000    0.000 
#    0.000    2.286    0.000    0.000    0.000    0.000 
#
# Total GULP energy -467835.132338 kJ/mol
# GULP energy per Si atom -5569.465861 kJ/mol
# Density = 1.801703 g / cm^3
# Si number density = 18.058130 Si / 1000 Ang^3
#
#
#
# Elastic Constant Matrix: (Units=GPa)
#
#
# Indices 1 2 3 4 5 6 
#
# 1 97.4414 63.6378 30.1017 0.0000 0.0000 0.0000
# 2 63.6378 97.4414 30.1017 0.0000 0.0000 0.0000
# 3 30.1017 30.1017 60.5647 0.0000 0.0000 0.0000
# 4 0.0000 0.0000 0.0000 9.3643 0.0000 0.0000
# 5 0.0000 0.0000 0.0000 0.0000 9.3643 0.0000
# 6 0.0000 0.0000 0.0000 0.0000 0.0000 16.9018
#
#
#
# Elastic Compliance Matrix: (Units=1/GPa)
#
#
# Indices 1 2 3 4 5 6 
#
# 1 0.018604 -0.010979 -0.003789 0.000000 0.000000 0.000000
# 2 -0.010979 0.018604 -0.003789 0.000000 0.000000 0.000000
# 3 -0.003789 -0.003789 0.020278 0.000000 0.000000 0.000000
# 4 0.000000 0.000000 0.000000 0.106789 0.000000 0.000000
# 5 0.000000 0.000000 0.000000 0.000000 0.106789 0.000000
# 6 0.000000 0.000000 0.000000 0.000000 0.000000 0.059165
#
#
# Mechanical properties :
#
#
# Convention : Reuss Voigt Hill
#
# Bulk Modulus (GPa) = 49.09396 55.90335 52.49865
# Shear Modulus (GPa) = 13.36419 15.89982 14.63201
#
# Velocity S-wave (km/s) = 2.72337 2.97051 2.84962
# Velocity P-wave (km/s) = 6.09382 6.54140 6.32157
#
# Compressibility (1/GPa) = 0.02036911
#
# Stress axis : x y z
#
# Youngs Moduli (GPa) = 53.75316 53.75316 49.31414
#
# Poissons Ratio (x) = 0.59016 0.18688
# Poissons Ratio (y) = 0.59016 0.18688
# Poissons Ratio (z) = 0.20370 0.20370
#
# Static dielectric constant tensor:
#      x y z
#    x 1.639250 0.000000 0.000000 
#    y 0.000000 1.639250 0.000000 
#    z 0.000000 0.000000 1.608630 
# 
# From -- ./inp_files/2566.got.cif
#   From: 2010.05.17/outbox.cif.g08.bks.cpg/sg186_2_cif.got.tgz:2566.got - 2010.05.20 12:07:08.
