data_PCOD9585009
_publ_section_title
;
Structure prediction by ZEFSAII (Michael W. Deem and Ramdas Pophale) SiO2 
 PCOD9585009
Probable space group: P 6 M M
;
_chemical_formula_sum "Si O2"
_cell_formula_units_Z 96
_cell_length_a 18.096227
_cell_length_b 18.096227
_cell_length_c 20.814180
_cell_angle_alpha 90.000000
_cell_angle_beta 90.000000
_cell_angle_gamma 120.000000
_cell_volume 5902.907918
_symmetry_space_group_name_H-M "P 6 M M"
_symmetry_group_IT_number 183
_symmetry_cell_setting 'hexagonal'
loop_
_space_group_symop_operation_xyz
x,y,z
x-y,x,z
-y,x-y,z
-x,-y,z
-x+y,-x,z
y,-x+y,z
-x+y,y,z
x,x-y,z
-y,-x,z
y,x,z
x-y,-y,z
-x,-x+y,z
loop_
_atom_site_type_symbol
_atom_site_label
_atom_site_fract_x
_atom_site_fract_y
_atom_site_fract_z
Si Si1 0.102723 0.635698 0.675460
Si Si2 0.508262 0.840708 0.053870
Si Si3 0.641677 0.901829 0.559311
Si Si4 0.836691 0.331344 0.817130
Si Si5 0.731545 0.633523 0.411979
Si Si6 0.269607 0.366858 0.933134
Si Si7 0.270272 0.902063 0.175752
Si Si8 0.492645 0.159660 0.296737
O O1 0.130038 0.565019 0.664020
O O2 0.124994 0.696501 0.614565
O O3 0.140262 0.677704 0.743966
O O4 0.000000 0.585297 0.681347
O O5 0.425473 0.850945 0.054730
O O6 0.481763 0.740882 0.054151
O O7 0.568421 0.882660 0.115590
O O8 0.566102 0.881809 0.990991
O O9 0.680753 0.840377 0.562753
O O10 0.606651 0.893821 0.486830
O O11 0.709908 0.000000 0.569548
O O12 0.853817 0.426909 0.825615
O O13 0.737553 0.262448 0.828511
O O14 0.888753 0.308185 0.867427
O O15 0.830472 0.660943 0.400343
O O16 0.706325 0.706325 0.401779
O O17 0.677318 0.556360 0.363507
O O18 0.169993 0.339985 0.935892
O O19 0.292014 0.292014 0.938179
O O20 0.170200 0.829801 0.174178
O O21 0.309993 0.885432 0.239745
O O22 0.293724 0.000000 0.173670
O O23 0.574809 0.149617 0.288898
O O24 0.518141 0.259071 0.295088
#
# Coordination Sequence:
#
# PCOD9585009 Si02
#       8
#    12  12  12  12  12  12  12  12
#     4   9  17  28  43  64  89 118 153 192 229 265
#     4  10  20  33  50  73 102 134 165 195 228 268
#     4   9  17  30  47  66  89 117 151 189 230 276
#     4  10  19  30  45  66  94 126 158 190 224 264
#     4   9  18  31  47  67  90 118 151 189 232 275
#     4  10  21  35  51  71  94 122 155 193 236 279
#     4  10  21  35  51  72  97 126 159 197 240 281
#     4  10  20  33  49  70  97 127 157 188 224 267
#
# _framework density 16.263171
#
# number of rings (size 3 to 8) (size 9 to 14) (size 15 to 20)
#    0.000    2.375    0.000    2.625    0.000    4.250 
#    0.000    3.750    0.000    0.750    0.000    1.750 
#    0.000    6.000    0.000    4.125    0.000    3.250 
#
# Total GULP energy -535209.160780 kJ/mol
# GULP energy per Si atom -5575.095425 kJ/mol
# Density = 1.622616 g / cm^3
# Si number density = 16.263171 Si / 1000 Ang^3
#
#
#
# Elastic Constant Matrix: (Units=GPa)
#
#
# Indices 1 2 3 4 5 6 
#
# 1 88.2694 67.7845 45.2054 0.0000 0.0000 0.0000
# 2 67.7845 88.2694 45.2054 0.0000 0.0000 0.0000
# 3 45.2054 45.2054 94.0166 0.0000 0.0000 0.0000
# 4 0.0000 0.0000 0.0000 19.0627 0.0000 0.0000
# 5 0.0000 0.0000 0.0000 0.0000 19.0627 0.0000
# 6 0.0000 0.0000 0.0000 0.0000 0.0000 10.2425
#
#
#
# Elastic Compliance Matrix: (Units=1/GPa)
#
#
# Indices 1 2 3 4 5 6 
#
# 1 0.028849 -0.019967 -0.004271 0.000000 0.000000 0.000000
# 2 -0.019967 0.028849 -0.004271 0.000000 0.000000 0.000000
# 3 -0.004271 -0.004271 0.014743 0.000000 0.000000 0.000000
# 4 0.000000 0.000000 0.000000 0.052459 0.000000 0.000000
# 5 0.000000 0.000000 0.000000 0.000000 0.052459 0.000000
# 6 0.000000 0.000000 0.000000 0.000000 0.000000 0.097633
#
#
# Mechanical properties :
#
#
# Convention : Reuss Voigt Hill
#
# Bulk Modulus (GPa) = 64.83058 65.21621 65.02340
# Shear Modulus (GPa) = 14.83013 17.16423 15.99718
#
# Velocity S-wave (km/s) = 3.02302 3.25222 3.13971
# Velocity P-wave (km/s) = 7.22045 7.36819 7.29469
#
# Compressibility (1/GPa) = 0.01542482
#
# Stress axis : x y z
#
# Youngs Moduli (GPa) = 34.66275 34.66275 67.82657
#
# Poissons Ratio (x) = 0.69211 0.28968
# Poissons Ratio (y) = 0.69211 0.28968
# Poissons Ratio (z) = 0.14804 0.14804
#
# Static dielectric constant tensor:
#      x y z
#    x 1.534220 0.000000 0.000000 
#    y 0.000000 1.534220 0.000000 
#    z 0.000000 0.000000 1.559140 
# 
# From -- ./inp_files/3072.got.cif
#   From: 2010.05.17/outbox.cif.g08.bks.cpg/sg183_2_cif.got.tgz:3072.got - 2010.05.20 12:02:58.
