data_PCOD9585479
_publ_section_title
;
Structure prediction by ZEFSAII (Michael W. Deem and Ramdas Pophale) SiO2 
 PCOD9585479
Probable space group: P -6 M 2
;
_chemical_formula_sum "Si O2"
_cell_formula_units_Z 78
_cell_length_a 23.844492
_cell_length_b 23.844492
_cell_length_c 8.254038
_cell_angle_alpha 90.000000
_cell_angle_beta 90.000000
_cell_angle_gamma 120.000000
_cell_volume 4064.182901
_symmetry_space_group_name_H-M "P -6 M 2"
_symmetry_group_IT_number 187
_symmetry_cell_setting 'hexagonal'
loop_
_space_group_symop_operation_xyz
x,y,z
-x+y,-x,-z
-y,x-y,z
x,y,-z
-x+y,-x,z
-y,x-y,-z
-y,-x,-z
-x+y,y,-z
x,x-y,-z
-x+y,y,z
x,x-y,z
-y,-x,z
loop_
_atom_site_type_symbol
_atom_site_label
_atom_site_fract_x
_atom_site_fract_y
_atom_site_fract_z
Si Si1 0.817549 0.842188 0.823839
Si Si2 0.560805 0.937605 0.687804
Si Si3 0.744269 0.617129 0.802943
Si Si4 0.695670 0.714328 0.188797
Si Si5 0.877456 0.874508 0.500000
Si Si6 0.206489 0.667056 0.697566
Si Si7 0.920825 0.521425 0.193913
O O1 0.829032 0.914516 0.829953
O O2 0.742230 0.790603 0.802828
O O3 0.852342 0.836012 0.666236
O O4 0.837174 0.828338 0.000000
O O5 0.545276 0.940400 0.500000
O O6 0.631626 0.945561 0.706243
O O7 0.508481 0.867207 0.753637
O O8 0.569930 0.002605 0.770572
O O9 0.809015 0.618030 0.744127
O O10 0.737242 0.679796 0.764529
O O11 0.674885 0.557317 0.746221
O O12 0.745588 0.614357 0.000000
O O13 0.676043 0.696448 0.000000
O O14 0.855312 0.927656 0.500000
O O15 0.954121 0.908242 0.500000
O O16 0.204739 0.669785 0.500000
O O17 0.224856 0.612428 0.739042
O O18 0.262084 0.737917 0.753332
O O19 0.900204 0.450102 0.257679
O O20 0.913124 0.517281 0.000000
#
# Coordination Sequence:
#
# PCOD9585479 Si02
#       7
#    12  12  12  12   6  12  12
#     4   9  19  35  53  74 102 136 175 217 262 316
#     4  10  19  29  46  72  99 122 156 204 251 298
#     4   8  14  26  45  68  92 119 154 195 237 286
#     4   9  18  32  50  71  98 131 165 200 249 309
#     4  10  21  36  54  76 102 134 173 218 266 314
#     4   9  17  29  44  64  91 124 161 202 249 300
#     4   9  17  30  48  68  92 126 163 196 238 293
#
# _framework density 19.192049000000001
#
# number of rings (size 3 to 8) (size 9 to 14) (size 15 to 20)
#    0.000    2.923    0.000    2.077    1.077    3.077 
#    0.000    1.538    0.000    6.769    0.000    2.154 
#    0.000    4.923    0.000    0.462    0.000    2.462 
#
# Total GULP energy -434203.956259 kJ/mol
# GULP energy per Si atom -5566.717388 kJ/mol
# Density = 1.914837 g / cm^3
# Si number density = 19.192049 Si / 1000 Ang^3
#
#
#
# Elastic Constant Matrix: (Units=GPa)
#
#
# Indices 1 2 3 4 5 6 
#
# 1 59.7406 16.5376 6.8703 0.0000 -0.0005 0.0000
# 2 16.5376 59.7406 6.8703 0.0000 0.0005 0.0000
# 3 6.8703 6.8703 41.4588 0.0000 0.0000 0.0000
# 4 0.0000 0.0000 0.0000 15.2538 0.0000 0.0005
# 5 -0.0005 0.0005 0.0000 0.0000 15.2538 0.0000
# 6 0.0000 0.0000 0.0000 0.0005 0.0000 21.6015
#
#
#
# Elastic Compliance Matrix: (Units=1/GPa)
#
#
# Indices 1 2 3 4 5 6 
#
# 1 0.018330 -0.004817 -0.002239 0.000000 0.000001 0.000000
# 2 -0.004817 0.018330 -0.002239 0.000000 -0.000001 0.000000
# 3 -0.002239 -0.002239 0.024862 0.000000 0.000000 0.000000
# 4 0.000000 0.000000 0.000000 0.065558 0.000000 -0.000001
# 5 0.000001 -0.000001 0.000000 0.000000 0.065558 0.000000
# 6 0.000000 0.000000 0.000000 -0.000001 0.000000 0.046293
#
#
# Mechanical properties :
#
#
# Convention : Reuss Voigt Hill
#
# Bulk Modulus (GPa) = 23.29282 24.61073 23.95178
# Shear Modulus (GPa) = 18.39373 19.13259 18.76316
#
# Velocity S-wave (km/s) = 3.09917 3.16080 3.13014
# Velocity P-wave (km/s) = 4.99695 5.11587 5.05676
#
# Compressibility (1/GPa) = 0.04293168
#
# Stress axis : x y z
#
# Youngs Moduli (GPa) = 54.55560 54.55560 40.22123
#
# Poissons Ratio (x) = 0.26277 0.09007
# Poissons Ratio (y) = 0.26277 0.09007
# Poissons Ratio (z) = 0.12217 0.12217
#
# Static dielectric constant tensor:
#      x y z
#    x 1.683740 0.000000 0.000000 
#    y 0.000000 1.683740 0.000000 
#    z 0.000000 0.000000 1.726470 
# 
# From -- ./inp_files/1191.got.cif
#   From: 2010.05.17/outbox.cif.g08.bks.cpg/sg187_1_cif.got.tgz:1191.got - 2010.05.20 12:09:04.
