data_PCOD9585256
_publ_section_title
;
Structure prediction by ZEFSAII (Michael W. Deem and Ramdas Pophale) SiO2 
 PCOD9585256
Probable space group: P 63 C M
;
_chemical_formula_sum "Si O2"
_cell_formula_units_Z 96
_cell_length_a 14.019963
_cell_length_b 14.019963
_cell_length_c 31.253129
_cell_angle_alpha 90.000000
_cell_angle_beta 90.000000
_cell_angle_gamma 120.000000
_cell_volume 5320.076426
_symmetry_space_group_name_H-M "P 63 C M"
_symmetry_group_IT_number 185
_symmetry_cell_setting 'hexagonal'
loop_
_space_group_symop_operation_xyz
x,y,z
x-y,x,1/2+z
-y,x-y,z
-x,-y,1/2+z
-x+y,-x,z
y,-x+y,1/2+z
-x+y,y,1/2+z
x,x-y,1/2+z
-y,-x,1/2+z
y,x,z
x-y,-y,z
-x,-x+y,z
loop_
_atom_site_type_symbol
_atom_site_label
_atom_site_fract_x
_atom_site_fract_y
_atom_site_fract_z
Si Si1 0.874320 0.465371 0.655760
Si Si2 0.870135 0.741883 0.629524
Si Si3 0.462764 0.126999 0.433090
Si Si4 0.541099 0.672994 0.974274
Si Si5 0.126955 0.469172 0.331949
Si Si6 0.872292 0.321161 0.794854
Si Si7 0.431900 0.184016 0.697446
Si Si8 0.308613 0.441295 0.572100
O O1 0.870734 0.354273 0.667307
O O2 0.805030 0.490374 0.690229
O O3 0.831343 0.464700 0.608049
O O4 0.000000 0.563911 0.657900
O O5 0.803952 0.803952 0.621040
O O6 0.836729 0.683824 0.676069
O O7 0.842213 0.647014 0.594468
O O8 0.000000 0.823376 0.627918
O O9 0.432400 0.218749 0.447270
O O10 0.570931 0.144825 0.458134
O O11 0.490946 0.136975 0.382697
O O12 0.368011 0.000000 0.440859
O O13 0.630237 0.630237 0.970742
O O14 0.529125 0.699383 0.023705
O O15 0.149785 0.578835 0.306366
O O16 0.213759 0.432137 0.319239
O O17 0.000000 0.378759 0.322690
O O18 0.854561 0.288076 0.745030
O O19 0.000000 0.366917 0.806497
O O20 0.383340 0.383340 0.569243
#
# Coordination Sequence:
#
# PCOD9585256 Si02
#       8
#    12  12  12  12  12  12  12  12
#     4  10  20  35  51  71 106 141 172 213 256 301
#     4  10  20  35  54  77 109 147 188 227 265 313
#     4  10  21  36  57  83 106 137 178 215 268 338
#     4  10  20  36  57  82 114 143 175 225 274 319
#     4  10  22  38  56  80 108 138 174 218 271 333
#     4  11  22  36  57  83 108 139 181 226 276 328
#     4  11  21  34  53  78 102 136 180 219 263 315
#     4   8  18  34  51  74 103 139 176 211 257 307
#
# _framework density 18.044854999999998
#
# number of rings (size 3 to 8) (size 9 to 14) (size 15 to 20)
#    0.000    2.000    0.000    4.625    0.000    6.000 
#    0.000    1.250    0.000    0.500    0.000    0.000 
#    0.000    0.000    0.000    0.000    0.000    0.000 
#
# Total GULP energy -535628.451527 kJ/mol
# GULP energy per Si atom -5579.463037 kJ/mol
# Density = 1.800378 g / cm^3
# Si number density = 18.044855 Si / 1000 Ang^3
#
#
#
# Elastic Constant Matrix: (Units=GPa)
#
#
# Indices 1 2 3 4 5 6 
#
# 1 72.1631 25.0781 34.9746 0.0000 0.0000 0.0000
# 2 25.0781 72.1631 34.9746 0.0000 0.0000 0.0000
# 3 34.9746 34.9746 97.8323 0.0000 0.0000 0.0000
# 4 0.0000 0.0000 0.0000 18.7473 0.0000 0.0000
# 5 0.0000 0.0000 0.0000 0.0000 18.7473 0.0000
# 6 0.0000 0.0000 0.0000 0.0000 0.0000 23.5425
#
#
#
# Elastic Compliance Matrix: (Units=1/GPa)
#
#
# Indices 1 2 3 4 5 6 
#
# 1 0.017541 -0.003697 -0.004949 0.000000 0.000000 0.000000
# 2 -0.003697 0.017541 -0.004949 0.000000 0.000000 0.000000
# 3 -0.004949 -0.004949 0.013760 0.000000 0.000000 0.000000
# 4 0.000000 0.000000 0.000000 0.053341 0.000000 0.000000
# 5 0.000000 0.000000 0.000000 0.000000 0.053341 0.000000
# 6 0.000000 0.000000 0.000000 0.000000 0.000000 0.042476
#
#
# Mechanical properties :
#
#
# Convention : Reuss Voigt Hill
#
# Bulk Modulus (GPa) = 46.18654 48.02366 47.10510
# Shear Modulus (GPa) = 21.51387 22.01618 21.76503
#
# Velocity S-wave (km/s) = 3.45663 3.49675 3.47675
# Velocity P-wave (km/s) = 6.44842 6.55548 6.50217
#
# Compressibility (1/GPa) = 0.02165133
#
# Stress axis : x y z
#
# Youngs Moduli (GPa) = 57.00939 57.00939 72.67382
#
# Poissons Ratio (x) = 0.21078 0.35967
# Poissons Ratio (y) = 0.21078 0.35967
# Poissons Ratio (z) = 0.28214 0.28214
#
# Static dielectric constant tensor:
#      x y z
#    x 1.637670 0.000000 0.000000 
#    y 0.000000 1.637670 0.000000 
#    z 0.000000 0.000000 1.626680 
# 
# From -- ./inp_files/2228.got.cif
#   From: 2010.05.17/outbox.cif.g08.bks.cpg/sg185_cif.got.tgz:2228.got - 2010.05.20 12:05:34.
