data_PCOD9585129
_publ_section_title
;
Structure prediction by ZEFSAII (Michael W. Deem and Ramdas Pophale) SiO2 
 PCOD9585129
Probable space group: P 6 C C
;
_chemical_formula_sum "Si O2"
_cell_formula_units_Z 72
_cell_length_a 14.053972
_cell_length_b 14.053972
_cell_length_c 18.102566
_cell_angle_alpha 90.000000
_cell_angle_beta 90.000000
_cell_angle_gamma 120.000000
_cell_volume 3096.484705
_symmetry_space_group_name_H-M "P 6 C C"
_symmetry_group_IT_number 184
_symmetry_cell_setting 'hexagonal'
loop_
_space_group_symop_operation_xyz
x,y,z
x-y,x,z
-y,x-y,z
-x,-y,z
-x+y,-x,z
y,-x+y,z
-x+y,y,1/2+z
x,x-y,1/2+z
-y,-x,1/2+z
y,x,1/2+z
x-y,-y,1/2+z
-x,-x+y,1/2+z
loop_
_atom_site_type_symbol
_atom_site_label
_atom_site_fract_x
_atom_site_fract_y
_atom_site_fract_z
Si Si1 0.821006 0.074266 0.671330
Si Si2 0.178994 0.925734 0.836900
Si Si3 0.420212 0.610227 0.673442
Si Si4 0.115179 0.430004 0.547361
Si Si5 0.569996 0.884821 0.460869
Si Si6 0.809985 0.389773 0.334788
O O1 0.787396 0.087291 0.754115
O O2 0.757119 0.098733 0.609638
O O3 0.950009 0.155837 0.663998
O O4 0.242881 0.901267 0.898592
O O5 0.049991 0.844163 0.844232
O O6 0.450523 0.738443 0.672695
O O7 0.466971 0.596875 0.596579
O O8 0.452289 0.586202 0.754115
O O9 0.226886 0.453773 0.504115
O O10 0.000000 0.374065 0.504115
O O11 0.466971 0.870097 0.411651
O O12 0.738443 0.450523 0.335535
#
# Coordination Sequence:
#
# PCOD9585129 Si02
#       6
#    12  12  12  12  12  12
#     4  10  20  36  58  84 121 173 227 271 319 390
#     4  10  20  36  58  84 121 173 227 271 319 390
#     4   8  19  44  73  91 116 167 223 265 313 384
#     4  12  23  37  60  95 136 170 207 263 337 391
#     4  12  23  37  60  95 136 170 207 263 337 391
#     4   8  19  44  73  91 116 167 223 265 313 384
#
# _framework density 23.252172000000002
#
# number of rings (size 3 to 8) (size 9 to 14) (size 15 to 20)
#    0.667    1.333    3.333    1.333    0.000    2.667 
#    0.000    3.333    0.000    4.000    0.000    0.000 
#    0.000    0.000    0.000    0.000    0.000    0.000 
#
# Total GULP energy -402125.791010 kJ/mol
# GULP energy per Si atom -5585.080431 kJ/mol
# Density = 2.319925 g / cm^3
# Si number density = 23.252172 Si / 1000 Ang^3
#
#
#
# Elastic Constant Matrix: (Units=GPa)
#
#
# Indices 1 2 3 4 5 6 
#
# 1 73.5057 26.0730 45.2949 0.0000 0.0000 0.0000
# 2 26.0730 73.5057 45.2949 0.0000 0.0000 0.0000
# 3 45.2949 45.2949 154.3142 0.0000 0.0000 0.0000
# 4 0.0000 0.0000 0.0000 -1.1638 0.0000 0.0000
# 5 0.0000 0.0000 0.0000 0.0000 -1.1638 0.0000
# 6 0.0000 0.0000 0.0000 0.0000 0.0000 23.7163
#
#
#
# Elastic Compliance Matrix: (Units=1/GPa)
#
#
# Indices 1 2 3 4 5 6 
#
# 1 0.017392 -0.003691 -0.004022 0.000000 0.000000 0.000000
# 2 -0.003691 0.017392 -0.004022 0.000000 0.000000 0.000000
# 3 -0.004022 -0.004022 0.008841 0.000000 0.000000 0.000000
# 4 0.000000 0.000000 0.000000 -0.859278 0.000000 0.000000
# 5 0.000000 0.000000 0.000000 0.000000 -0.859278 0.000000
# 6 0.000000 0.000000 0.000000 0.000000 0.000000 0.042165
#
#
# Mechanical properties :
#
#
# Convention : Reuss Voigt Hill
#
# Bulk Modulus (GPa) = 49.61139 59.40569 54.50854
# Shear Modulus (GPa) = -3.11997 16.58861 6.73432
#
# Velocity S-wave (km/s) = -1.15962 2.67389 1.70367
# Velocity P-wave (km/s) = 4.42602 5.92763 5.23099
#
# Compressibility (1/GPa) = 0.02015666
#
# Stress axis : x y z
#
# Youngs Moduli (GPa) = 57.49883 57.49883 113.10802
#
# Poissons Ratio (x) = 0.21222 0.45487
# Poissons Ratio (y) = 0.21222 0.45487
# Poissons Ratio (z) = 0.23123 0.23123
#
# Static dielectric constant tensor:
#      x y z
#    x 1.885220 0.000000 0.000000 
#    y 0.000000 1.885220 0.000000 
#    z 0.000000 0.000000 1.903550 
# 
# From -- ./inp_files/1100.got.cif
#   From: 2010.05.17/outbox.cif.g08.bks.cpg/sg184_cif.got.tgz:1100.got - 2010.05.20 12:04:40.
