data_PCOD9585952
_publ_section_title
;
Structure prediction by ZEFSAII (Michael W. Deem and Ramdas Pophale) SiO2 
 PCOD9585952
Probable space group: P -6 C 2
;
_chemical_formula_sum "Si O2"
_cell_formula_units_Z 84
_cell_length_a 18.364593
_cell_length_b 18.364593
_cell_length_c 15.893139
_cell_angle_alpha 90.000000
_cell_angle_beta 90.000000
_cell_angle_gamma 120.000000
_cell_volume 4641.976410
_symmetry_space_group_name_H-M "P -6 C 2"
_symmetry_group_IT_number 188
_symmetry_cell_setting 'hexagonal'
loop_
_space_group_symop_operation_xyz
x,y,z
-x+y,-x,1/2-z
-y,x-y,z
x,y,1/2-z
-x+y,-x,z
-y,x-y,1/2-z
-y,-x,-z
-x+y,y,-z
x,x-y,-z
-x+y,y,1/2+z
x,x-y,1/2+z
-y,-x,1/2+z
loop_
_atom_site_type_symbol
_atom_site_label
_atom_site_fract_x
_atom_site_fract_y
_atom_site_fract_z
Si Si1 0.726622 0.626832 0.843390
Si Si2 0.492116 0.158005 1.000000
Si Si3 0.334474 0.832042 0.148715
Si Si4 0.497568 0.665526 0.648715
Si Si5 0.688719 0.762527 0.901575
Si Si6 0.900209 0.273378 0.343390
Si Si7 0.688719 0.762527 0.401575
O O1 0.692350 0.594035 0.750000
O O2 0.673741 0.562874 0.917692
O O3 0.730467 0.715217 0.856419
O O4 0.819096 0.638192 0.848893
O O5 0.580821 0.161641 0.000000
O O6 0.504277 0.252139 0.000000
O O7 0.437126 0.110867 0.082307
O O8 0.336719 0.843947 0.250000
O O9 0.264986 0.735014 0.132237
O O10 0.425711 0.851423 0.120418
O O11 0.298901 0.887352 0.108374
O O12 0.507228 0.663282 0.750000
O O13 0.588451 0.701099 0.608374
O O14 0.706932 0.853466 0.869290
O O15 0.710433 0.771106 0.000000
O O16 0.901685 0.307650 0.250000
O O17 0.984750 0.269533 0.356419
#
# Coordination Sequence:
#
# PCOD9585952 Si02
#       7
#    12  12  12  12  12  12  12
#     4  10  21  38  60  84 110 144 185 227 277 337
#     4  10  21  38  59  84 114 148 186 232 283 338
#     4   9  17  29  45  66  96 136 180 222 262 304
#     4   9  17  29  45  66  96 136 180 222 262 304
#     4  10  20  34  53  78 107 142 182 223 270 324
#     4  10  21  38  60  84 110 144 185 227 277 337
#     4  10  20  34  53  78 107 142 182 223 270 324
#
# _framework density 18.095739999999999
#
# number of rings (size 3 to 8) (size 9 to 14) (size 15 to 20)
#    0.000    2.286    1.429    1.286    0.000    5.143 
#    0.000    0.000    0.000    4.000    0.000    0.000 
#    0.000    0.000    0.000    0.000    0.000    0.000 
#
# Total GULP energy -468615.803725 kJ/mol
# GULP energy per Si atom -5578.759568 kJ/mol
# Density = 1.805455 g / cm^3
# Si number density = 18.095740 Si / 1000 Ang^3
#
#
#
# Elastic Constant Matrix: (Units=GPa)
#
#
# Indices 1 2 3 4 5 6 
#
# 1 51.3604 30.7394 39.7458 0.0000 0.0000 0.0000
# 2 30.7394 51.3604 39.7458 0.0000 0.0000 0.0000
# 3 39.7458 39.7458 104.6122 0.0000 0.0000 0.0000
# 4 0.0000 0.0000 0.0000 14.7264 0.0000 0.0000
# 5 0.0000 0.0000 0.0000 0.0000 14.7264 0.0000
# 6 0.0000 0.0000 0.0000 0.0000 0.0000 10.3105
#
#
#
# Elastic Compliance Matrix: (Units=1/GPa)
#
#
# Indices 1 2 3 4 5 6 
#
# 1 0.033881 -0.014613 -0.007321 0.000000 0.000000 0.000000
# 2 -0.014613 0.033881 -0.007321 0.000000 0.000000 0.000000
# 3 -0.007321 -0.007321 0.015122 0.000000 0.000000 0.000000
# 4 0.000000 0.000000 0.000000 0.067905 0.000000 0.000000
# 5 0.000000 0.000000 0.000000 0.000000 0.067905 0.000000
# 6 0.000000 0.000000 0.000000 0.000000 0.000000 0.096988
#
#
# Mechanical properties :
#
#
# Convention : Reuss Voigt Hill
#
# Bulk Modulus (GPa) = 41.02419 47.53276 44.27847
# Shear Modulus (GPa) = 13.07814 14.42613 13.75214
#
# Velocity S-wave (km/s) = 2.69126 2.82656 2.75974
# Velocity P-wave (km/s) = 5.69008 6.08087 5.88872
#
# Compressibility (1/GPa) = 0.02437586
#
# Stress axis : x y z
#
# Youngs Moduli (GPa) = 29.51482 29.51482 66.12919
#
# Poissons Ratio (x) = 0.43129 0.48412
# Poissons Ratio (y) = 0.43129 0.48412
# Poissons Ratio (z) = 0.21607 0.21607
#
# Static dielectric constant tensor:
#      x y z
#    x 1.605500 0.000000 0.000000 
#    y 0.000000 1.605500 0.000000 
#    z 0.000000 0.000000 1.658260 
# 
# From -- ./inp_files/2613.got.cif
#   From: 2010.05.17/outbox.cif.g08.bks.cpg/sg188_2_cif.got.tgz:2613.got - 2010.05.20 12:11:46.
