data_PCOD9585573
_publ_section_title
;
Structure prediction by ZEFSAII (Michael W. Deem and Ramdas Pophale) SiO2 
 PCOD9585573
Probable space group: P -6 M 2
;
_chemical_formula_sum "Si O2"
_cell_formula_units_Z 84
_cell_length_a 18.718690
_cell_length_b 18.718690
_cell_length_c 16.793208
_cell_angle_alpha 90.000000
_cell_angle_beta 90.000000
_cell_angle_gamma 120.000000
_cell_volume 5095.833187
_symmetry_space_group_name_H-M "P -6 M 2"
_symmetry_group_IT_number 187
_symmetry_cell_setting 'hexagonal'
loop_
_space_group_symop_operation_xyz
x,y,z
-x+y,-x,-z
-y,x-y,z
x,y,-z
-x+y,-x,z
-y,x-y,-z
-y,-x,-z
-x+y,y,-z
x,x-y,-z
-x+y,y,z
x,x-y,z
-y,-x,z
loop_
_atom_site_type_symbol
_atom_site_label
_atom_site_fract_x
_atom_site_fract_y
_atom_site_fract_z
Si Si1 0.493734 0.828080 0.766392
Si Si2 0.966972 0.662271 0.642533
Si Si3 0.305005 0.444980 0.412548
Si Si4 0.667029 0.177503 0.594721
Si Si5 0.830626 0.332560 0.904679
Si Si6 0.589542 0.577786 0.796322
Si Si7 0.164468 0.999967 0.405001
O O1 0.398983 0.797965 0.783954
O O2 0.516329 0.758165 0.784066
O O3 0.505966 0.845238 0.670295
O O4 0.548484 0.913989 0.812485
O O5 0.885732 0.585199 0.607874
O O6 0.972664 0.628180 0.728373
O O7 0.047437 0.676982 0.594065
O O8 0.971309 0.749599 0.639455
O O9 0.335025 0.485829 0.500000
O O10 0.207745 0.415490 0.410594
O O11 0.664843 0.185705 0.500000
O O12 0.575249 0.150497 0.624990
O O13 0.733792 0.266208 0.628646
O O14 0.806974 0.403487 0.888492
O O15 0.756595 0.243405 0.877629
O O16 0.918998 0.364687 0.863257
O O17 0.838637 0.329228 0.000000
O O18 0.509879 0.490122 0.769795
O O19 0.179512 0.997851 0.500000
O O20 0.090076 0.909925 0.381887
O O21 0.138580 0.069290 0.393524
#
# Coordination Sequence:
#
# PCOD9585573 Si02
#       7
#    12  12  12  12  12  12  12
#     4   9  17  29  45  64  88 122 164 206 245 284
#     4  11  19  29  46  66  87 114 151 189 225 274
#     4   9  17  28  41  60  87 117 151 197 251 294
#     4  10  20  32  43  55  75 107 147 187 222 254
#     4   9  17  31  53  79 104 128 152 177 209 258
#     4   9  19  33  47  68  98 126 151 184 230 277
#     4  10  20  33  48  66  89 118 154 199 249 294
#
# _framework density 16.484055000000001
#
# number of rings (size 3 to 8) (size 9 to 14) (size 15 to 20)
#    0.000    2.429    0.000    3.143    0.000    6.571 
#    0.000    0.000    0.000    3.000    0.000    0.000 
#    0.000    1.143    0.000    0.000    0.000    1.000 
#
# Total GULP energy -467616.537801 kJ/mol
# GULP energy per Si atom -5566.863545 kJ/mol
# Density = 1.644654 g / cm^3
# Si number density = 16.484055 Si / 1000 Ang^3
#
#
#
# Elastic Constant Matrix: (Units=GPa)
#
#
# Indices 1 2 3 4 5 6 
#
# 1 101.4588 56.0687 27.1052 0.0000 0.0003 0.0000
# 2 56.0687 101.4588 27.1052 0.0000 -0.0003 0.0000
# 3 27.1052 27.1052 26.0305 0.0000 0.0000 0.0000
# 4 0.0000 0.0000 0.0000 23.4288 0.0000 -0.0003
# 5 0.0003 -0.0003 0.0000 0.0000 23.4288 0.0000
# 6 0.0000 0.0000 0.0000 -0.0003 0.0000 22.6950
#
#
#
# Elastic Compliance Matrix: (Units=1/GPa)
#
#
# Indices 1 2 3 4 5 6 
#
# 1 0.015962 -0.006069 -0.010302 0.000000 0.000000 0.000000
# 2 -0.006069 0.015962 -0.010302 0.000000 0.000000 0.000000
# 3 -0.010302 -0.010302 0.059870 0.000000 0.000000 0.000000
# 4 0.000000 0.000000 0.000000 0.042683 0.000000 0.000000
# 5 0.000000 0.000000 0.000000 0.000000 0.042683 0.000000
# 6 0.000000 0.000000 0.000000 0.000000 0.000000 0.044062
#
#
# Mechanical properties :
#
#
# Convention : Reuss Voigt Hill
#
# Bulk Modulus (GPa) = 26.00771 49.94512 37.97642
# Shear Modulus (GPa) = 17.39834 21.82180 19.61007
#
# Velocity S-wave (km/s) = 3.25232 3.64237 3.45286
# Velocity P-wave (km/s) = 5.46948 6.93210 6.24376
#
# Compressibility (1/GPa) = 0.03845014
#
# Stress axis : x y z
#
# Youngs Moduli (GPa) = 62.64784 62.64784 16.70277
#
# Poissons Ratio (x) = 0.38021 0.17207
# Poissons Ratio (y) = 0.38021 0.17207
# Poissons Ratio (z) = 0.64538 0.64538
#
# Static dielectric constant tensor:
#      x y z
#    x 1.578400 0.000000 0.000000 
#    y 0.000000 1.578400 0.000000 
#    z 0.000000 0.000000 1.550260 
# 
# From -- ./inp_files/2622.got.cif
#   From: 2010.05.17/outbox.cif.g08.bks.cpg/sg187_2_cif.got.tgz:2622.got - 2010.05.20 12:09:04.
