data_PCOD9585439
_publ_section_title
;
Structure prediction by ZEFSAII (Michael W. Deem and Ramdas Pophale) SiO2 
 PCOD9585439
Probable space group: P -6 M 2
;
_chemical_formula_sum "Si O2"
_cell_formula_units_Z 96
_cell_length_a 17.472095
_cell_length_b 17.472095
_cell_length_c 23.078949
_cell_angle_alpha 90.000000
_cell_angle_beta 90.000000
_cell_angle_gamma 120.000000
_cell_volume 6101.500117
_symmetry_space_group_name_H-M "P -6 M 2"
_symmetry_group_IT_number 187
_symmetry_cell_setting 'hexagonal'
loop_
_space_group_symop_operation_xyz
x,y,z
-x+y,-x,-z
-y,x-y,z
x,y,-z
-x+y,-x,z
-y,x-y,-z
-y,-x,-z
-x+y,y,-z
x,x-y,-z
-x+y,y,z
x,x-y,z
-y,-x,z
loop_
_atom_site_type_symbol
_atom_site_label
_atom_site_fract_x
_atom_site_fract_y
_atom_site_fract_z
Si Si1 0.513067 0.665881 0.180181
Si Si2 0.706447 0.944280 0.217931
Si Si3 0.313009 0.063539 0.434154
Si Si4 0.040849 0.608909 0.065871
Si Si5 0.915978 0.259368 0.130740
Si Si6 0.841652 0.508904 0.769711
Si Si7 0.485087 0.151631 0.363598
Si Si8 0.000638 0.183172 0.332290
O O1 0.495897 0.747949 0.184816
O O2 0.426412 0.573589 0.195994
O O3 0.601679 0.690230 0.216340
O O4 0.539211 0.656182 0.114183
O O5 0.711571 0.855786 0.210490
O O6 0.755985 0.989230 0.277147
O O7 0.752034 0.009498 0.163997
O O8 0.303027 0.031369 0.500000
O O9 0.313824 0.156912 0.435364
O O10 0.405957 0.087016 0.405309
O O11 0.234365 0.002853 0.390708
O O12 0.010029 0.505015 0.070706
O O13 0.963224 0.628686 0.082566
O O14 0.071031 0.636201 0.000000
O O15 0.832113 0.167888 0.111518
O O16 0.883562 0.300059 0.181956
O O17 0.736756 0.473511 0.770301
O O18 0.860780 0.430390 0.782021
O O19 0.871174 0.541641 0.704030
O O20 0.575266 0.150531 0.372819
O O21 0.500780 0.250390 0.372497
O O22 0.084264 0.168528 0.332686
O O23 0.909465 0.090536 0.327747
#
# Coordination Sequence:
#
# PCOD9585439 Si02
#       8
#    12  12  12  12  12  12  12  12
#     4   9  17  30  49  72  96 121 148 177 212 259
#     4   9  18  31  46  66  93 119 140 174 228 277
#     4   9  18  31  44  60  86 117 146 182 228 267
#     4   9  18  31  44  61  90 123 150 180 218 255
#     4  10  18  28  45  65  84 112 152 189 219 262
#     4   9  16  25  39  61  87 113 142 180 223 261
#     4   9  16  26  41  61  86 116 149 182 216 258
#     4  10  19  32  50  69  89 114 147 186 227 274
#
# _framework density 15.733836
#
# number of rings (size 3 to 8) (size 9 to 14) (size 15 to 20)
#    0.000    2.750    0.000    2.000    0.000    4.500 
#    0.000    0.625    0.000    2.750    0.000    0.000 
#    0.000    0.000    0.000    1.125    0.000    1.875 
#
# Total GULP energy -534830.275667 kJ/mol
# GULP energy per Si atom -5571.148705 kJ/mol
# Density = 1.569803 g / cm^3
# Si number density = 15.733836 Si / 1000 Ang^3
#
#
#
# Elastic Constant Matrix: (Units=GPa)
#
#
# Indices 1 2 3 4 5 6 
#
# 1 61.0425 26.8782 20.1462 0.0000 0.0000 0.0000
# 2 26.8782 61.0425 20.1462 0.0000 0.0000 0.0000
# 3 20.1462 20.1462 66.0326 0.0000 0.0000 0.0000
# 4 0.0000 0.0000 0.0000 17.4626 0.0000 0.0000
# 5 0.0000 0.0000 0.0000 0.0000 17.4626 0.0000
# 6 0.0000 0.0000 0.0000 0.0000 0.0000 17.0821
#
#
#
# Elastic Compliance Matrix: (Units=1/GPa)
#
#
# Indices 1 2 3 4 5 6 
#
# 1 0.021247 -0.008024 -0.004034 0.000000 0.000000 0.000000
# 2 -0.008024 0.021247 -0.004034 0.000000 0.000000 0.000000
# 3 -0.004034 -0.004034 0.017606 0.000000 0.000000 0.000000
# 4 0.000000 0.000000 0.000000 0.057265 0.000000 0.000000
# 5 0.000000 0.000000 0.000000 0.000000 0.057265 0.000000
# 6 0.000000 0.000000 0.000000 0.000000 0.000000 0.058541
#
#
# Mechanical properties :
#
#
# Convention : Reuss Voigt Hill
#
# Bulk Modulus (GPa) = 35.82390 35.82874 35.82632
# Shear Modulus (GPa) = 18.20438 18.46458 18.33448
#
# Velocity S-wave (km/s) = 3.40519 3.42944 3.41734
# Velocity P-wave (km/s) = 6.18697 6.20505 6.19601
#
# Compressibility (1/GPa) = 0.02791433
#
# Stress axis : x y z
#
# Youngs Moduli (GPa) = 47.06651 47.06651 56.80005
#
# Poissons Ratio (x) = 0.37766 0.22914
# Poissons Ratio (y) = 0.37766 0.22914
# Poissons Ratio (z) = 0.18987 0.18987
#
# Static dielectric constant tensor:
#      x y z
#    x 1.526260 0.000000 0.000000 
#    y 0.000000 1.526260 0.000000 
#    z 0.000000 0.000000 1.518410 
# 
# From -- ./inp_files/3772.got.cif
#   From: 2010.05.17/outbox.cif.g08.bks.cpg/sg187_2_cif.got.tgz:3772.got - 2010.05.20 12:09:04.
