data_PCOD9585646
_publ_section_title
;
Structure prediction by ZEFSAII (Michael W. Deem and Ramdas Pophale) SiO2 
 PCOD9585646
Probable space group: P -6 M 2
;
_chemical_formula_sum "Si O2"
_cell_formula_units_Z 96
_cell_length_a 17.655636
_cell_length_b 17.655636
_cell_length_c 22.647220
_cell_angle_alpha 90.000000
_cell_angle_beta 90.000000
_cell_angle_gamma 120.000000
_cell_volume 6113.814586
_symmetry_space_group_name_H-M "P -6 M 2"
_symmetry_group_IT_number 187
_symmetry_cell_setting 'hexagonal'
loop_
_space_group_symop_operation_xyz
x,y,z
-x+y,-x,-z
-y,x-y,z
x,y,-z
-x+y,-x,z
-y,x-y,-z
-y,-x,-z
-x+y,y,-z
x,x-y,-z
-x+y,y,z
x,x-y,z
-y,-x,z
loop_
_atom_site_type_symbol
_atom_site_label
_atom_site_fract_x
_atom_site_fract_y
_atom_site_fract_z
Si Si1 0.822754 0.999279 0.359937
Si Si2 0.485841 0.152398 0.207662
Si Si3 0.823761 0.823846 0.070697
Si Si4 0.155160 0.488493 0.070344
Si Si5 0.961232 0.569544 0.675161
Si Si6 0.349998 0.264714 0.432293
Si Si7 0.253079 0.920830 0.269627
Si Si8 0.004258 0.331094 0.857897
O O1 0.917172 0.082829 0.349311
O O2 0.775427 0.025499 0.410133
O O3 0.829395 0.914698 0.375913
O O4 0.761739 0.975322 0.301987
O O5 0.580497 0.160993 0.198864
O O6 0.490051 0.245026 0.203447
O O7 0.452241 0.109852 0.272746
O O8 0.415175 0.082357 0.162116
O O9 0.813986 0.906993 0.088102
O O10 0.752732 0.737208 0.103379
O O11 0.920957 0.841913 0.083370
O O12 0.810622 0.812989 0.000000
O O13 0.241731 0.483462 0.085581
O O14 0.170282 0.585141 0.081304
O O15 0.072269 0.417116 0.106399
O O16 0.140030 0.471315 0.000000
O O17 0.974352 0.487176 0.669771
O O18 0.930137 0.591269 0.614362
O O19 0.048538 0.655922 0.696981
O O20 0.360677 0.294015 0.500000
O O21 0.369025 0.184513 0.428322
O O22 0.180190 0.819811 0.275123
O O23 0.275752 0.948748 0.202091
#
# Coordination Sequence:
#
# PCOD9585646 Si02
#       8
#    12  12  12  12  12  12  12  12
#     4   9  17  29  45  66  93 126 162 196 229 267
#     4  10  20  34  52  73  97 124 155 193 236 281
#     4  10  20  33  48  67  93 125 160 198 240 285
#     4  10  20  34  52  74 100 128 158 195 241 292
#     4   9  18  31  49  71  92 119 157 196 230 272
#     4   9  17  29  45  66  94 125 153 185 230 280
#     4   9  18  31  46  65  93 125 153 188 235 280
#     4  11  20  32  50  73  96 123 160 199 237 284
#
# _framework density 15.702143
#
# number of rings (size 3 to 8) (size 9 to 14) (size 15 to 20)
#    0.000    2.375    0.000    3.125    0.000    6.500 
#    0.000    0.000    0.000    2.750    0.000    0.000 
#    0.000    6.000    0.000    0.375    0.000    0.000 
#
# Total GULP energy -535342.811739 kJ/mol
# GULP energy per Si atom -5576.487622 kJ/mol
# Density = 1.566640 g / cm^3
# Si number density = 15.702143 Si / 1000 Ang^3
#
#
#
# Elastic Constant Matrix: (Units=GPa)
#
#
# Indices 1 2 3 4 5 6 
#
# 1 120.4718 75.2023 52.7975 0.0000 0.0003 0.0000
# 2 75.2023 120.4718 52.7975 0.0000 -0.0003 0.0000
# 3 52.7975 52.7975 70.7559 0.0000 0.0000 0.0000
# 4 0.0000 0.0000 0.0000 15.3163 0.0000 -0.0003
# 5 0.0003 -0.0003 0.0000 0.0000 15.3163 0.0000
# 6 0.0000 0.0000 0.0000 -0.0003 0.0000 22.6347
#
#
#
# Elastic Compliance Matrix: (Units=1/GPa)
#
#
# Indices 1 2 3 4 5 6 
#
# 1 0.015323 -0.006767 -0.006384 0.000000 0.000000 0.000000
# 2 -0.006767 0.015323 -0.006384 0.000000 0.000000 0.000000
# 3 -0.006384 -0.006384 0.023661 0.000000 0.000000 0.000000
# 4 0.000000 0.000000 0.000000 0.065290 0.000000 0.000001
# 5 0.000000 0.000000 0.000000 0.000000 0.065290 0.000000
# 6 0.000000 0.000000 0.000000 0.000001 0.000000 0.044180
#
#
# Mechanical properties :
#
#
# Convention : Reuss Voigt Hill
#
# Bulk Modulus (GPa) = 65.63664 74.81048 70.22356
# Shear Modulus (GPa) = 18.30050 19.38025 18.84038
#
# Velocity S-wave (km/s) = 3.41761 3.51699 3.46766
# Velocity P-wave (km/s) = 7.58058 8.01494 7.80078
#
# Compressibility (1/GPa) = 0.01523539
#
# Stress axis : x y z
#
# Youngs Moduli (GPa) = 65.26189 65.26189 42.26384
#
# Poissons Ratio (x) = 0.44163 0.26982
# Poissons Ratio (y) = 0.44163 0.26982
# Poissons Ratio (z) = 0.41665 0.41665
#
# Static dielectric constant tensor:
#      x y z
#    x 1.510840 0.000000 0.000000 
#    y 0.000000 1.510840 0.000000 
#    z 0.000000 0.000000 1.511380 
# 
# From -- ./inp_files/3748.got.cif
#   From: 2010.05.17/outbox.cif.g08.bks.cpg/sg187_2_cif.got.tgz:3748.got - 2010.05.20 12:09:04.
