data_PCOD9585124
_publ_section_title
;
Structure prediction by ZEFSAII (Michael W. Deem and Ramdas Pophale) SiO2 
 PCOD9585124
Probable space group: P 6 C C
;
_chemical_formula_sum "Si O2"
_cell_formula_units_Z 90
_cell_length_a 24.854886
_cell_length_b 24.854886
_cell_length_c 9.359156
_cell_angle_alpha 90.000000
_cell_angle_beta 90.000000
_cell_angle_gamma 120.000000
_cell_volume 5007.153080
_symmetry_space_group_name_H-M "P 6 C C"
_symmetry_group_IT_number 184
_symmetry_cell_setting 'hexagonal'
loop_
_space_group_symop_operation_xyz
x,y,z
x-y,x,z
-y,x-y,z
-x,-y,z
-x+y,-x,z
y,-x+y,z
-x+y,y,1/2+z
x,x-y,1/2+z
-y,-x,1/2+z
y,x,1/2+z
x-y,-y,1/2+z
-x,-x+y,1/2+z
loop_
_atom_site_type_symbol
_atom_site_label
_atom_site_fract_x
_atom_site_fract_y
_atom_site_fract_z
Si Si1 0.899990 0.857139 0.817880
Si Si2 0.702470 0.757633 0.908922
Si Si3 0.371111 0.314591 0.412659
Si Si4 0.404103 0.950290 0.990749
Si Si5 0.121834 0.899145 0.051835
Si Si6 0.500000 0.000000 0.747371
Si Si7 0.122569 0.402307 0.121687
Si Si8 0.355019 0.216020 0.640269
O O1 0.884830 0.911439 0.801048
O O2 0.867886 0.805054 0.696054
O O3 0.884340 0.825598 0.973826
O O4 0.713684 0.701582 0.871025
O O5 0.658360 0.766157 0.796140
O O6 0.761519 0.824029 0.936139
O O7 0.665291 0.739042 0.057753
O O8 0.393253 0.384865 0.458533
O O9 0.406263 0.307826 0.277394
O O10 0.376864 0.275310 0.540402
O O11 0.445486 0.952986 0.855197
O O12 0.336979 0.889288 0.018508
O O13 0.442819 0.965410 0.137553
O O14 0.124286 0.836956 0.084305
O O15 0.185960 0.399597 0.133388
#
# Coordination Sequence:
#
# PCOD9585124 Si02
#       8
#    12  12  12  12  12   6  12  12
#     4  12  27  44  58  68  84 114 164 235 319 385
#     4  10  21  35  54  75 106 139 182 224 280 357
#     4  11  22  35  56  81 115 153 190 230 290 343
#     4  10  20  37  58  85 117 156 200 245 286 348
#     4  11  24  39  57  77  94 121 166 227 293 362
#     4  10  20  36  60  86 112 154 208 236 286 340
#     4  10  20  35  51  80 113 153 187 232 290 340
#     4  11  23  36  53  81 115 148 190 233 289 372
#
# _framework density 17.974285999999999
#
# number of rings (size 3 to 8) (size 9 to 14) (size 15 to 20)
#    0.000    1.333    2.667    4.133    7.467    0.000 
#    0.000    1.333    0.000    0.000    0.000    0.000 
#    0.000    0.000    0.000   16.000    0.800    0.000 
#
# Total GULP energy -502347.604640 kJ/mol
# GULP energy per Si atom -5581.640052 kJ/mol
# Density = 1.793338 g / cm^3
# Si number density = 17.974286 Si / 1000 Ang^3
#
#
#
# Elastic Constant Matrix: (Units=GPa)
#
#
# Indices 1 2 3 4 5 6 
#
# 1 62.2105 17.3556 24.6794 0.0000 0.0000 0.0000
# 2 17.3556 62.2105 24.6794 0.0000 0.0000 0.0000
# 3 24.6794 24.6794 96.8641 0.0000 0.0000 0.0000
# 4 0.0000 0.0000 0.0000 25.8065 0.0000 0.0000
# 5 0.0000 0.0000 0.0000 0.0000 25.8065 0.0000
# 6 0.0000 0.0000 0.0000 0.0000 0.0000 22.4274
#
#
#
# Elastic Compliance Matrix: (Units=1/GPa)
#
#
# Indices 1 2 3 4 5 6 
#
# 1 0.018611 -0.003683 -0.003803 0.000000 0.000000 0.000000
# 2 -0.003683 0.018611 -0.003803 0.000000 0.000000 0.000000
# 3 -0.003803 -0.003803 0.012262 0.000000 0.000000 0.000000
# 4 0.000000 0.000000 0.000000 0.038750 0.000000 0.000000
# 5 0.000000 0.000000 0.000000 0.000000 0.038750 0.000000
# 6 0.000000 0.000000 0.000000 0.000000 0.000000 0.044588
#
#
# Mechanical properties :
#
#
# Convention : Reuss Voigt Hill
#
# Bulk Modulus (GPa) = 37.16966 39.41267 38.29116
# Shear Modulus (GPa) = 24.61609 25.11280 24.86445
#
# Velocity S-wave (km/s) = 3.70471 3.74190 3.72336
# Velocity P-wave (km/s) = 6.24693 6.37526 6.31142
#
# Compressibility (1/GPa) = 0.02690366
#
# Stress axis : x y z
#
# Youngs Moduli (GPa) = 53.73217 53.73217 81.55420
#
# Poissons Ratio (x) = 0.19791 0.31017
# Poissons Ratio (y) = 0.19791 0.31017
# Poissons Ratio (z) = 0.20436 0.20436
#
# Static dielectric constant tensor:
#      x y z
#    x 1.640600 0.000000 0.000000 
#    y 0.000000 1.640600 0.000000 
#    z 0.000000 0.000000 1.652470 
# 
# From -- ./inp_files/415.got.cif
#   From: 2010.05.17/outbox.cif.g08.bks.cpg/sg184_cif.got.tgz:415.got - 2010.05.20 12:04:40.
