data_PCOD9585793
_publ_section_title
;
Structure prediction by ZEFSAII (Michael W. Deem and Ramdas Pophale) SiO2 
 PCOD9585793
Probable space group: P -6 M 2
;
_chemical_formula_sum "Si O2"
_cell_formula_units_Z 62
_cell_length_a 15.673898
_cell_length_b 15.673898
_cell_length_c 17.034968
_cell_angle_alpha 90.000000
_cell_angle_beta 90.000000
_cell_angle_gamma 120.000000
_cell_volume 3624.315415
_symmetry_space_group_name_H-M "P -6 M 2"
_symmetry_group_IT_number 187
_symmetry_cell_setting 'hexagonal'
loop_
_space_group_symop_operation_xyz
x,y,z
-x+y,-x,-z
-y,x-y,z
x,y,-z
-x+y,-x,z
-y,x-y,-z
-y,-x,-z
-x+y,y,-z
x,x-y,-z
-x+y,y,z
x,x-y,z
-y,-x,z
loop_
_atom_site_type_symbol
_atom_site_label
_atom_site_fract_x
_atom_site_fract_y
_atom_site_fract_z
Si Si1 0.666667 0.333334 0.093961
Si Si2 0.553346 0.446655 0.905819
Si Si3 0.062066 0.124131 0.594999
Si Si4 0.594583 0.985694 0.646470
Si Si5 0.195388 0.193747 0.912424
Si Si6 0.380578 0.088891 0.194837
Si Si7 0.176161 0.823840 0.404262
Si Si8 0.868430 0.334418 0.500000
O O1 0.778466 0.389233 0.117585
O O2 0.666667 0.333334 0.000000
O O3 0.621350 0.550694 0.865315
O O4 0.547793 0.452208 0.000000
O O5 0.064026 0.128052 0.500000
O O6 0.118160 0.236319 0.621016
O O7 0.107004 0.053502 0.617951
O O8 0.482940 0.965880 0.653324
O O9 0.600255 0.887686 0.627771
O O10 0.656920 0.041618 0.723281
O O11 0.645335 0.061893 0.574848
O O12 0.108471 0.216942 0.905329
O O13 0.273577 0.240927 0.844031
O O14 0.154017 0.077009 0.909387
O O15 0.241558 0.225602 0.000000
O O16 0.407893 0.203947 0.200905
O O17 0.178545 0.821455 0.500000
O O18 0.773038 0.226963 0.500000
O O19 0.837797 0.418899 0.500000
#
# Coordination Sequence:
#
# PCOD9585793 Si02
#       8
#     2   6   6  12  12  12   6   6
#     4   9  18  30  54  81 111 157 197 232 276 324
#     4  11  20  34  56  84 119 157 197 237 279 342
#     4   7  14  30  52  85 118 141 179 228 281 357
#     4  11  24  42  60  85 117 150 200 251 300 358
#     4   9  18  33  55  82 113 151 191 230 277 342
#     4  11  22  36  56  85 120 154 191 237 294 349
#     4  11  22  40  66  85 111 155 199 256 309 355
#     4  10  21  39  62  88 120 156 194 229 277 350
#
# _framework density 17.106679
#
# number of rings (size 3 to 8) (size 9 to 14) (size 15 to 20)
#    0.194    1.742    2.903    1.452    1.355    3.097 
#    0.581    0.000    0.000    0.000    0.000    0.000 
#    0.000    0.000    1.161    0.000    0.000    0.000 
#
# Total GULP energy -345485.194308 kJ/mol
# GULP energy per Si atom -5572.341844 kJ/mol
# Density = 1.706774 g / cm^3
# Si number density = 17.106679 Si / 1000 Ang^3
#
#
#
# Elastic Constant Matrix: (Units=GPa)
#
#
# Indices 1 2 3 4 5 6 
#
# 1 101.5323 61.4774 55.1113 0.0000 -0.0001 -0.0001
# 2 61.4774 101.5322 55.1113 0.0000 0.0001 0.0000
# 3 55.1113 55.1113 123.4669 0.0001 0.0000 0.0000
# 4 0.0000 0.0000 0.0001 15.3074 0.0001 0.0002
# 5 -0.0001 0.0001 0.0000 0.0001 15.3073 0.0000
# 6 -0.0001 0.0000 0.0000 0.0002 0.0000 20.0274
#
#
#
# Elastic Compliance Matrix: (Units=1/GPa)
#
#
# Indices 1 2 3 4 5 6 
#
# 1 0.016876 -0.008090 -0.003922 0.000000 0.000000 0.000000
# 2 -0.008090 0.016876 -0.003922 0.000000 0.000000 0.000000
# 3 -0.003922 -0.003922 0.011601 0.000000 0.000000 0.000000
# 4 0.000000 0.000000 0.000000 0.065328 0.000000 -0.000001
# 5 0.000000 0.000000 0.000000 0.000000 0.065328 0.000000
# 6 0.000000 0.000000 0.000000 -0.000001 0.000000 0.049931
#
#
# Mechanical properties :
#
#
# Convention : Reuss Voigt Hill
#
# Bulk Modulus (GPa) = 74.15260 74.43683 74.29472
# Shear Modulus (GPa) = 19.06191 20.45052 19.75622
#
# Velocity S-wave (km/s) = 3.34173 3.46131 3.40204
# Velocity P-wave (km/s) = 7.63746 7.71894 7.67831
#
# Compressibility (1/GPa) = 0.01348570
#
# Stress axis : x y z
#
# Youngs Moduli (GPa) = 59.25522 59.25514 86.20220
#
# Poissons Ratio (x) = 0.47935 0.33809
# Poissons Ratio (y) = 0.47935 0.33809
# Poissons Ratio (z) = 0.23240 0.23240
#
# Static dielectric constant tensor:
#      x y z
#    x 1.547540 -0.000010 0.000000 
#    y -0.000010 1.547540 0.000000 
#    z 0.000000 0.000000 1.584410 
# 
# From -- ./inp_files/3032.got.cif
#   From: 2010.05.17/outbox.cif.g08.bks.cpg/sg187_2_cif.got.tgz:3032.got - 2010.05.20 12:09:04.
