data_PCOD9585237
_publ_section_title
;
Structure prediction by ZEFSAII (Michael W. Deem and Ramdas Pophale) SiO2 
 PCOD9585237
Probable space group: P 63 C M
;
_chemical_formula_sum "Si O2"
_cell_formula_units_Z 84
_cell_length_a 13.660599
_cell_length_b 13.660599
_cell_length_c 25.209204
_cell_angle_alpha 90.000000
_cell_angle_beta 90.000000
_cell_angle_gamma 120.000000
_cell_volume 4074.077165
_symmetry_space_group_name_H-M "P 63 C M"
_symmetry_group_IT_number 185
_symmetry_cell_setting 'hexagonal'
loop_
_space_group_symop_operation_xyz
x,y,z
x-y,x,1/2+z
-y,x-y,z
-x,-y,1/2+z
-x+y,-x,z
y,-x+y,1/2+z
-x+y,y,1/2+z
x,x-y,1/2+z
-y,-x,1/2+z
y,x,z
x-y,-y,z
-x,-x+y,z
loop_
_atom_site_type_symbol
_atom_site_label
_atom_site_fract_x
_atom_site_fract_y
_atom_site_fract_z
Si Si1 0.653968 0.516704 0.014500
Si Si2 0.417290 0.866599 0.407144
Si Si3 0.874788 0.680376 0.880009
Si Si4 0.318128 0.451817 0.189917
Si Si5 0.128816 0.872249 0.996717
Si Si6 0.867543 0.523732 0.632011
Si Si7 0.670426 0.541237 0.809159
O O1 0.581519 0.581519 0.011672
O O2 0.636258 0.468292 0.073394
O O3 0.616456 0.437885 0.962565
O O4 0.784185 0.615415 0.012556
O O5 0.299365 0.862694 0.401870
O O6 0.442846 0.820192 0.353286
O O7 0.511672 0.000000 0.406976
O O8 0.867113 0.741464 0.932516
O O9 0.776474 0.644639 0.838140
O O10 0.000000 0.753071 0.856655
O O11 0.355560 0.355560 0.187328
O O12 0.212879 0.430800 0.153482
O O13 0.426308 0.566973 0.170177
O O14 0.294454 0.472387 0.250613
O O15 0.000000 0.789645 0.012742
O O16 0.176844 0.000000 0.016195
O O17 0.000000 0.620220 0.629286
O O18 0.572813 0.572813 0.799741
#
# Coordination Sequence:
#
# PCOD9585237 Si02
#       7
#    12  12  12  12  12  12  12
#     4   9  18  35  57  79 113 153 189 239 293 342
#     4   9  18  34  52  76 110 144 182 230 286 342
#     4  10  20  32  53  85 114 150 194 231 284 354
#     4  10  23  40  61  88 117 154 202 253 302 356
#     4  10  19  33  54  84 120 157 193 232 284 351
#     4  10  22  41  63  87 117 160 205 250 304 358
#     4  10  20  37  57  79 114 150 185 239 298 347
#
# _framework density 20.618165000000001
#
# number of rings (size 3 to 8) (size 9 to 14) (size 15 to 20)
#    0.000    2.286    1.429    0.857    2.000    2.286 
#    0.857    2.857    0.000    0.571    0.000    0.000 
#    0.000    0.000    0.000    0.000    0.000    0.000 
#
# Total GULP energy -468621.758333 kJ/mol
# GULP energy per Si atom -5578.830456 kJ/mol
# Density = 2.057124 g / cm^3
# Si number density = 20.618165 Si / 1000 Ang^3
#
#
#
# Elastic Constant Matrix: (Units=GPa)
#
#
# Indices 1 2 3 4 5 6 
#
# 1 63.6691 18.0138 13.3978 0.0000 0.0000 0.0000
# 2 18.0138 63.6691 13.3978 0.0000 0.0000 0.0000
# 3 13.3978 13.3978 98.9530 0.0000 0.0000 0.0000
# 4 0.0000 0.0000 0.0000 13.6222 0.0000 0.0000
# 5 0.0000 0.0000 0.0000 0.0000 13.6222 0.0000
# 6 0.0000 0.0000 0.0000 0.0000 0.0000 22.8277
#
#
#
# Elastic Compliance Matrix: (Units=1/GPa)
#
#
# Indices 1 2 3 4 5 6 
#
# 1 0.017357 -0.004546 -0.001735 0.000000 0.000000 0.000000
# 2 -0.004546 0.017357 -0.001735 0.000000 0.000000 0.000000
# 3 -0.001735 -0.001735 0.010576 0.000000 0.000000 0.000000
# 4 0.000000 0.000000 0.000000 0.073409 0.000000 0.000000
# 5 0.000000 0.000000 0.000000 0.000000 0.073409 0.000000
# 6 0.000000 0.000000 0.000000 0.000000 0.000000 0.043807
#
#
# Mechanical properties :
#
#
# Convention : Reuss Voigt Hill
#
# Bulk Modulus (GPa) = 34.17628 35.10109 34.63869
# Shear Modulus (GPa) = 19.10591 22.11322 20.60957
#
# Velocity S-wave (km/s) = 3.04740 3.27848 3.16505
# Velocity P-wave (km/s) = 5.38461 5.60290 5.49484
#
# Compressibility (1/GPa) = 0.02926006
#
# Stress axis : x y z
#
# Youngs Moduli (GPa) = 57.61239 57.61239 94.55801
#
# Poissons Ratio (x) = 0.26190 0.16402
# Poissons Ratio (y) = 0.26190 0.16402
# Poissons Ratio (z) = 0.09994 0.09994
#
# Static dielectric constant tensor:
#      x y z
#    x 1.773270 0.000000 0.000000 
#    y 0.000000 1.773270 0.000000 
#    z 0.000000 0.000000 1.749300 
# 
# From -- ./inp_files/2068.got.cif
#   From: 2010.05.17/outbox.cif.g08.bks.cpg/sg185_cif.got.tgz:2068.got - 2010.05.20 12:05:34.
