data_PCOD9585863
_publ_section_title
;
Structure prediction by ZEFSAII (Michael W. Deem and Ramdas Pophale) SiO2 
 PCOD9585863
Probable space group: P -6 C 2
;
_chemical_formula_sum "Si O2"
_cell_formula_units_Z 66
_cell_length_a 15.020875
_cell_length_b 15.020875
_cell_length_c 20.906860
_cell_angle_alpha 90.000000
_cell_angle_beta 90.000000
_cell_angle_gamma 120.000000
_cell_volume 4085.167864
_symmetry_space_group_name_H-M "P -6 C 2"
_symmetry_group_IT_number 188
_symmetry_cell_setting 'hexagonal'
loop_
_space_group_symop_operation_xyz
x,y,z
-x+y,-x,1/2-z
-y,x-y,z
x,y,1/2-z
-x+y,-x,z
-y,x-y,1/2-z
-y,-x,-z
-x+y,y,-z
x,x-y,-z
-x+y,y,1/2+z
x,x-y,1/2+z
-y,-x,1/2+z
loop_
_atom_site_type_symbol
_atom_site_label
_atom_site_fract_x
_atom_site_fract_y
_atom_site_fract_z
Si Si1 0.596018 0.986488 0.374082
Si Si2 0.390470 0.403982 0.625918
Si Si3 0.067765 0.135529 0.250000
Si Si4 0.664897 0.534824 0.750000
Si Si5 0.664897 0.534824 0.250000
Si Si6 0.660867 0.830434 0.676405
Si Si7 0.666033 0.544485 0.500000
O O1 0.623240 0.898359 0.360705
O O2 0.474604 0.949208 0.378308
O O3 0.638803 0.060498 0.312574
O O4 0.648219 0.052734 0.437269
O O5 0.421696 0.361197 0.687426
O O6 0.275120 0.376760 0.639295
O O7 0.404515 0.351781 0.562731
O O8 0.107715 0.215431 0.309475
O O9 0.110743 0.055372 0.250000
O O10 0.587372 0.412628 0.750000
O O11 0.780735 0.561471 0.750000
O O12 0.618672 0.809336 0.750000
O O13 0.574655 0.425346 0.500000
O O14 0.775852 0.551704 0.500000
#
# Coordination Sequence:
#
# PCOD9585863 Si02
#       7
#    12  12   6   6   6  12  12
#     4  10  21  36  54  81 114 144 192 233 277 339
#     4  10  21  36  54  81 114 144 192 233 277 339
#     4   8  18  34  50  78 110 142 186 232 286 348
#     4  10  18  30  51  79 111 141 178 227 277 338
#     4  10  18  30  51  79 111 141 178 227 277 338
#     4  10  20  35  59  80 110 149 187 248 294 326
#     4  10  21  37  58  86 118 154 180 223 273 348
#
# _framework density 16.156006000000001
#
# number of rings (size 3 to 8) (size 9 to 14) (size 15 to 20)
#    0.727    1.455    1.818    1.455    0.000    5.091 
#    1.091    3.636    0.000    0.000    0.000    0.000 
#    0.000    0.000    0.000    0.000    0.000    0.000 
#
# Total GULP energy -367685.041028 kJ/mol
# GULP energy per Si atom -5570.985470 kJ/mol
# Density = 1.611923 g / cm^3
# Si number density = 16.156006 Si / 1000 Ang^3
#
#
#
# Elastic Constant Matrix: (Units=GPa)
#
#
# Indices 1 2 3 4 5 6 
#
# 1 124.2085 100.5249 60.3614 0.0000 0.0000 0.0000
# 2 100.5249 124.2085 60.3614 0.0000 0.0000 0.0000
# 3 60.3614 60.3614 138.7516 0.0000 0.0000 0.0000
# 4 0.0000 0.0000 0.0000 22.8445 0.0000 0.0000
# 5 0.0000 0.0000 0.0000 0.0000 22.8445 0.0000
# 6 0.0000 0.0000 0.0000 0.0000 0.0000 11.8418
#
#
#
# Elastic Compliance Matrix: (Units=1/GPa)
#
#
# Indices 1 2 3 4 5 6 
#
# 1 0.024015 -0.018208 -0.002526 0.000000 0.000000 0.000000
# 2 -0.018208 0.024015 -0.002526 0.000000 0.000000 0.000000
# 3 -0.002526 -0.002526 0.009405 0.000000 0.000000 0.000000
# 4 0.000000 0.000000 0.000000 0.043774 0.000000 0.000000
# 5 0.000000 0.000000 0.000000 0.000000 0.043774 0.000000
# 6 0.000000 0.000000 0.000000 0.000000 0.000000 0.084447
#
#
# Mechanical properties :
#
#
# Convention : Reuss Voigt Hill
#
# Bulk Modulus (GPa) = 91.62558 92.18490 91.90524
# Shear Modulus (GPa) = 17.88338 22.56754 20.22546
#
# Velocity S-wave (km/s) = 3.33065 3.74150 3.54204
# Velocity P-wave (km/s) = 8.46328 8.70909 8.58706
#
# Compressibility (1/GPa) = 0.01091398
#
# Stress axis : x y z
#
# Youngs Moduli (GPa) = 41.64060 41.64060 106.32649
#
# Poissons Ratio (x) = 0.75821 0.26859
# Poissons Ratio (y) = 0.75821 0.26859
# Poissons Ratio (z) = 0.10519 0.10519
#
# Static dielectric constant tensor:
#      x y z
#    x 1.534680 0.000000 0.000000 
#    y 0.000000 1.534680 0.000000 
#    z 0.000000 0.000000 1.527170 
# 
# From -- ./inp_files/3775.got.cif
#   From: 2010.05.17/outbox.cif.g08.bks.cpg/sg188_2_cif.got.tgz:3775.got - 2010.05.20 12:11:46.
