data_PCOD9585755
_publ_section_title
;
Structure prediction by ZEFSAII (Michael W. Deem and Ramdas Pophale) SiO2 
 PCOD9585755
Probable space group: P -6 M 2
;
_chemical_formula_sum "Si O2"
_cell_formula_units_Z 84
_cell_length_a 18.117601
_cell_length_b 18.117601
_cell_length_c 14.373052
_cell_angle_alpha 90.000000
_cell_angle_beta 90.000000
_cell_angle_gamma 120.000000
_cell_volume 4085.836752
_symmetry_space_group_name_H-M "P -6 M 2"
_symmetry_group_IT_number 187
_symmetry_cell_setting 'hexagonal'
loop_
_space_group_symop_operation_xyz
x,y,z
-x+y,-x,-z
-y,x-y,z
x,y,-z
-x+y,-x,z
-y,x-y,-z
-y,-x,-z
-x+y,y,-z
x,x-y,-z
-x+y,y,z
x,x-y,z
-y,-x,z
loop_
_atom_site_type_symbol
_atom_site_label
_atom_site_fract_x
_atom_site_fract_y
_atom_site_fract_z
Si Si1 0.488738 0.332911 0.398499
Si Si2 0.831743 0.001302 0.610965
Si Si3 0.504858 0.669359 0.792256
Si Si4 0.246999 0.932384 0.742439
Si Si5 0.490306 0.158242 0.195007
Si Si6 0.174866 0.000671 0.890938
Si Si7 0.447478 0.371363 0.000000
Si Si8 0.352896 0.882994 0.000000
O O1 0.448010 0.331391 0.500000
O O2 0.501110 0.250555 0.399669
O O3 0.580416 0.419585 0.397505
O O4 0.448198 0.328471 0.296294
O O5 0.829792 0.002735 0.500000
O O6 0.848629 0.924315 0.638515
O O7 0.741592 0.978558 0.652971
O O8 0.908976 0.091025 0.643801
O O9 0.486484 0.743242 0.758537
O O10 0.422573 0.577428 0.781597
O O11 0.589069 0.677614 0.745921
O O12 0.528433 0.686590 0.901829
O O13 0.161733 0.838268 0.746819
O O14 0.237707 0.983487 0.828525
O O15 0.578169 0.156338 0.192584
O O16 0.509212 0.254606 0.194563
O O17 0.443838 0.117170 0.097826
O O18 0.079273 0.920728 0.875208
O O19 0.178149 0.089075 0.868942
O O20 0.193451 0.000878 0.000000
O O21 0.539190 0.460811 0.000000
O O22 0.374108 0.395024 0.000000
O O23 0.442423 0.884845 0.000000
#
# Coordination Sequence:
#
# PCOD9585755 Si02
#       8
#    12  12  12  12  12  12   6   6
#     4   8  12  17  26  44  71 103 139 184 242 300
#     4   9  16  27  46  75 113 158 207 253 288 316
#     4  10  20  35  57  83 109 136 171 219 281 354
#     4   9  18  29  45  73 108 146 185 229 285 340
#     4   9  15  22  35  54  79 112 155 207 256 305
#     4   9  16  25  39  61  96 145 197 238 267 305
#     4   9  17  28  40  58  84 117 152 187 240 311
#     4   9  19  34  52  72  94 121 155 199 255 325
#
# _framework density 20.558824000000001
#
# number of rings (size 3 to 8) (size 9 to 14) (size 15 to 20)
#    0.000    3.000    0.000    1.571    1.000    2.857 
#    0.000    2.857    0.000    3.857    0.000    1.000 
#    0.000    6.857    0.000    3.429    0.000    6.571 
#
# Total GULP energy -468287.196935 kJ/mol
# GULP energy per Si atom -5574.847583 kJ/mol
# Density = 2.051203 g / cm^3
# Si number density = 20.558824 Si / 1000 Ang^3
#
#
#
# Elastic Constant Matrix: (Units=GPa)
#
#
# Indices 1 2 3 4 5 6 
#
# 1 69.3189 44.1980 33.8399 0.0000 0.0001 0.0000
# 2 44.1980 69.3189 33.8399 0.0000 -0.0001 0.0000
# 3 33.8399 33.8399 131.3119 0.0000 0.0000 0.0000
# 4 0.0000 0.0000 0.0000 14.7536 0.0000 -0.0001
# 5 0.0001 -0.0001 0.0000 0.0000 14.7536 0.0000
# 6 0.0000 0.0000 0.0000 -0.0001 0.0000 12.5604
#
#
#
# Elastic Compliance Matrix: (Units=1/GPa)
#
#
# Indices 1 2 3 4 5 6 
#
# 1 0.025108 -0.014700 -0.002682 0.000000 0.000000 0.000000
# 2 -0.014700 0.025108 -0.002682 0.000000 0.000000 0.000000
# 3 -0.002682 -0.002682 0.008998 0.000000 0.000000 0.000000
# 4 0.000000 0.000000 0.000000 0.067780 0.000000 0.000001
# 5 0.000000 0.000000 0.000000 0.000000 0.067780 0.000000
# 6 0.000000 0.000000 0.000000 0.000001 0.000000 0.079615
#
#
# Mechanical properties :
#
#
# Convention : Reuss Voigt Hill
#
# Bulk Modulus (GPa) = 52.39548 54.85614 53.62581
# Shear Modulus (GPa) = 15.58218 18.95165 17.26691
#
# Velocity S-wave (km/s) = 2.75604 3.03945 2.90121
# Velocity P-wave (km/s) = 5.97232 6.24965 6.11256
#
# Compressibility (1/GPa) = 0.01908561
#
# Stress axis : x y z
#
# Youngs Moduli (GPa) = 39.82788 39.82788 111.13623
#
# Poissons Ratio (x) = 0.58545 0.29810
# Poissons Ratio (y) = 0.58545 0.29810
# Poissons Ratio (z) = 0.10683 0.10683
#
# Static dielectric constant tensor:
#      x y z
#    x 1.721990 0.000000 0.000000 
#    y 0.000000 1.721990 0.000000 
#    z 0.000000 0.000000 1.782180 
# 
# From -- ./inp_files/2653.got.cif
#   From: 2010.05.17/outbox.cif.g08.bks.cpg/sg187_2_cif.got.tgz:2653.got - 2010.05.20 12:09:04.
