data_PCOD9585589
_publ_section_title
;
Structure prediction by ZEFSAII (Michael W. Deem and Ramdas Pophale) SiO2 
 PCOD9585589
Probable space group: P -6 M 2
;
_chemical_formula_sum "Si O2"
_cell_formula_units_Z 72
_cell_length_a 12.785391
_cell_length_b 12.785391
_cell_length_c 31.370132
_cell_angle_alpha 90.000000
_cell_angle_beta 90.000000
_cell_angle_gamma 120.000000
_cell_volume 4440.941026
_symmetry_space_group_name_H-M "P -6 M 2"
_symmetry_group_IT_number 187
_symmetry_cell_setting 'hexagonal'
loop_
_space_group_symop_operation_xyz
x,y,z
-x+y,-x,-z
-y,x-y,z
x,y,-z
-x+y,-x,z
-y,x-y,-z
-y,-x,-z
-x+y,y,-z
x,x-y,-z
-x+y,y,z
x,x-y,z
-y,-x,z
loop_
_atom_site_type_symbol
_atom_site_label
_atom_site_fract_x
_atom_site_fract_y
_atom_site_fract_z
Si Si1 0.915178 0.581973 0.163798
Si Si2 0.916396 0.333850 0.000000
Si Si3 0.581658 0.915797 0.918138
Si Si4 0.085693 0.418008 0.500000
Si Si5 0.247448 0.247311 0.245502
Si Si6 0.418843 0.332931 0.578533
Si Si7 0.666239 0.581261 0.324146
O O1 0.786588 0.573175 0.155610
O O2 0.898267 0.449134 0.169016
O O3 0.970589 0.660940 0.206258
O O4 0.005916 0.644942 0.124438
O O5 0.998107 0.353292 0.041501
O O6 0.794174 0.205827 0.000000
O O7 0.886687 0.443344 0.000000
O O8 0.442026 0.884052 0.919723
O O9 0.590198 0.795099 0.918977
O O10 0.210827 0.421653 0.500000
O O11 0.104715 0.552358 0.500000
O O12 0.009601 0.353589 0.457738
O O13 0.216379 0.108190 0.246250
O O14 0.318040 0.307667 0.289169
O O15 0.127920 0.255840 0.240739
O O16 0.416883 0.208442 0.571516
O O17 0.555880 0.444121 0.575337
O O18 0.378691 0.334491 0.627150
O O19 0.776973 0.553946 0.321203
O O20 0.540606 0.459395 0.316002
#
# Coordination Sequence:
#
# PCOD9585589 Si02
#       7
#    12   6  12   6  12  12  12
#     4  10  20  34  54  78 102 128 160 203 252 298
#     4  10  20  34  54  78 104 134 168 210 256 298
#     4  10  20  34  53  76 103 135 169 204 243 291
#     4  10  20  32  46  64  90 126 164 198 232 276
#     4  10  20  33  49  69  96 131 168 202 235 278
#     4   9  17  30  50  75  98 120 150 193 245 292
#     4   9  17  30  50  75 100 124 152 192 242 292
#
# _framework density 16.212779999999999
#
# number of rings (size 3 to 8) (size 9 to 14) (size 15 to 20)
#    0.000    2.333    0.000    3.000    0.000    2.000 
#    0.000    5.000    0.000   10.667    0.000    0.000 
#    0.000    0.000    0.000    0.000    0.000    0.000 
#
# Total GULP energy -401675.470896 kJ/mol
# GULP energy per Si atom -5578.825985 kJ/mol
# Density = 1.617588 g / cm^3
# Si number density = 16.212780 Si / 1000 Ang^3
#
#
#
# Elastic Constant Matrix: (Units=GPa)
#
#
# Indices 1 2 3 4 5 6 
#
# 1 112.9980 76.7985 76.6695 0.0000 0.0001 0.0000
# 2 76.7985 112.9980 76.6695 0.0000 -0.0001 0.0000
# 3 76.6695 76.6695 130.0805 0.0000 0.0000 0.0000
# 4 0.0000 0.0000 0.0000 16.7644 0.0000 -0.0001
# 5 0.0001 -0.0001 0.0000 0.0000 16.7644 0.0000
# 6 0.0000 0.0000 0.0000 -0.0001 0.0000 18.0998
#
#
#
# Elastic Compliance Matrix: (Units=1/GPa)
#
#
# Indices 1 2 3 4 5 6 
#
# 1 0.018842 -0.008783 -0.005928 0.000000 0.000000 0.000000
# 2 -0.008783 0.018842 -0.005928 0.000000 0.000000 0.000000
# 3 -0.005928 -0.005928 0.014676 0.000000 0.000000 0.000000
# 4 0.000000 0.000000 0.000000 0.059650 0.000000 0.000000
# 5 0.000000 0.000000 0.000000 0.000000 0.059650 0.000000
# 6 0.000000 0.000000 0.000000 0.000000 0.000000 0.055249
#
#
# Mechanical properties :
#
#
# Convention : Reuss Voigt Hill
#
# Bulk Modulus (GPa) = 90.25995 90.70574 90.48285
# Shear Modulus (GPa) = 18.39035 18.72167 18.55601
#
# Velocity S-wave (km/s) = 3.37161 3.40184 3.38676
# Velocity P-wave (km/s) = 8.42318 8.45568 8.43945
#
# Compressibility (1/GPa) = 0.01107911
#
# Stress axis : x y z
#
# Youngs Moduli (GPa) = 53.07411 53.07411 68.13817
#
# Poissons Ratio (x) = 0.46615 0.40396
# Poissons Ratio (y) = 0.46615 0.40396
# Poissons Ratio (z) = 0.31465 0.31465
#
# Static dielectric constant tensor:
#      x y z
#    x 1.510190 0.000000 0.000000 
#    y 0.000000 1.510190 0.000000 
#    z 0.000000 0.000000 1.549700 
# 
# From -- ./inp_files/4548.got.cif
#   From: 2010.05.17/outbox.cif.g08.bks.cpg/sg187_3_cif.got.tgz:4548.got - 2010.05.20 12:09:04.
