data_PCOD9585141
_publ_section_title
;
Structure prediction by ZEFSAII (Michael W. Deem and Ramdas Pophale) SiO2 
 PCOD9585141
Probable space group: P 6 C C
;
_chemical_formula_sum "Si O2"
_cell_formula_units_Z 90
_cell_length_a 27.073537
_cell_length_b 27.073537
_cell_length_c 9.307322
_cell_angle_alpha 90.000000
_cell_angle_beta 90.000000
_cell_angle_gamma 120.000000
_cell_volume 5908.066377
_symmetry_space_group_name_H-M "P 6 C C"
_symmetry_group_IT_number 184
_symmetry_cell_setting 'hexagonal'
loop_
_space_group_symop_operation_xyz
x,y,z
x-y,x,z
-y,x-y,z
-x,-y,z
-x+y,-x,z
y,-x+y,z
-x+y,y,1/2+z
x,x-y,1/2+z
-y,-x,1/2+z
y,x,1/2+z
x-y,-y,1/2+z
-x,-x+y,1/2+z
loop_
_atom_site_type_symbol
_atom_site_label
_atom_site_fract_x
_atom_site_fract_y
_atom_site_fract_z
Si Si1 0.271366 0.727056 0.914990
Si Si2 0.566236 0.412920 0.787548
Si Si3 0.448032 0.126451 0.138446
Si Si4 0.467850 0.248039 0.160233
Si Si5 0.500000 0.500000 0.982968
Si Si6 0.389109 0.609057 0.535609
Si Si7 0.565544 0.586716 0.736142
Si Si8 0.107465 0.652698 0.799702
O O1 0.258942 0.733147 0.751957
O O2 0.225460 0.666884 0.978349
O O3 0.330159 0.733438 0.968271
O O4 0.263758 0.775172 0.997062
O O5 0.509202 0.370005 0.704260
O O6 0.609016 0.396211 0.704340
O O7 0.560962 0.397742 0.955069
O O8 0.600132 0.480589 0.775860
O O9 0.436800 0.178959 0.168465
O O10 0.412151 0.065858 0.217860
O O11 0.445550 0.115385 0.967753
O O12 0.446053 0.290116 0.218322
O O13 0.522381 0.553444 0.870526
O O14 0.447042 0.472826 0.095394
O O15 0.620927 0.579416 0.752246
#
# Coordination Sequence:
#
# PCOD9585141 Si02
#       8
#    12  12  12  12   6  12  12  12
#     4  12  21  36  46  69  88 125 158 193 238 292
#     4  12  20  33  53  64  92 121 152 192 238 284
#     4  12  24  40  55  77  99 124 160 203 245 302
#     4  12  22  38  57  70  96 125 162 194 248 300
#     4  10  20  40  56  80 104 134 164 202 256 310
#     4  12  21  33  48  67  92 119 158 198 236 290
#     4  11  24  38  58  78 104 128 164 208 254 305
#     4  12  24  40  55  77  99 124 160 203 245 302
#
# _framework density 15.233409999999999
#
# number of rings (size 3 to 8) (size 9 to 14) (size 15 to 20)
#    0.000    0.267    9.333    1.867    0.000    2.133 
#    0.000    2.667    0.000    0.000    0.000    0.000 
#    0.000    0.000    0.000    0.000    0.000    0.000 
#
# Total GULP energy -501032.033815 kJ/mol
# GULP energy per Si atom -5567.022598 kJ/mol
# Density = 1.519874 g / cm^3
# Si number density = 15.233410 Si / 1000 Ang^3
#
#
#
# Elastic Constant Matrix: (Units=GPa)
#
#
# Indices 1 2 3 4 5 6 
#
# 1 72.0858 29.9234 8.4387 0.0000 0.0000 0.0000
# 2 29.9234 72.0858 8.4387 0.0000 0.0000 0.0000
# 3 8.4387 8.4387 69.5169 0.0000 0.0000 0.0000
# 4 0.0000 0.0000 0.0000 13.9781 0.0000 0.0000
# 5 0.0000 0.0000 0.0000 0.0000 13.9781 0.0000
# 6 0.0000 0.0000 0.0000 0.0000 0.0000 21.0812
#
#
#
# Elastic Compliance Matrix: (Units=1/GPa)
#
#
# Indices 1 2 3 4 5 6 
#
# 1 0.016861 -0.006857 -0.001214 0.000000 0.000000 0.000000
# 2 -0.006857 0.016861 -0.001214 0.000000 0.000000 0.000000
# 3 -0.001214 -0.001214 0.014680 0.000000 0.000000 0.000000
# 4 0.000000 0.000000 0.000000 0.071541 0.000000 0.000000
# 5 0.000000 0.000000 0.000000 0.000000 0.071541 0.000000
# 6 0.000000 0.000000 0.000000 0.000000 0.000000 0.047436
#
#
# Mechanical properties :
#
#
# Convention : Reuss Voigt Hill
#
# Bulk Modulus (GPa) = 33.52308 34.14334 33.83321
# Shear Modulus (GPa) = 18.69624 20.93331 19.81478
#
# Velocity S-wave (km/s) = 3.50711 3.71100 3.61050
# Velocity P-wave (km/s) = 6.20112 6.38938 6.29595
#
# Compressibility (1/GPa) = 0.02983020
#
# Stress axis : x y z
#
# Youngs Moduli (GPa) = 59.30888 59.30888 68.12068
#
# Poissons Ratio (x) = 0.40668 0.08272
# Poissons Ratio (y) = 0.40668 0.08272
# Poissons Ratio (z) = 0.07202 0.07202
#
# Static dielectric constant tensor:
#      x y z
#    x 1.596730 0.000000 0.000000 
#    y 0.000000 1.596730 0.000000 
#    z 0.000000 0.000000 1.553530 
# 
# From -- ./inp_files/412.got.cif
#   From: 2010.05.17/outbox.cif.g08.bks.cpg/sg184_cif.got.tgz:412.got - 2010.05.20 12:04:40.
