data_PCOD9585117
_publ_section_title
;
Structure prediction by ZEFSAII (Michael W. Deem and Ramdas Pophale) SiO2 
 PCOD9585117
Probable space group: P 6 C C
;
_chemical_formula_sum "Si O2"
_cell_formula_units_Z 72
_cell_length_a 24.353443
_cell_length_b 24.353443
_cell_length_c 8.648736
_cell_angle_alpha 90.000000
_cell_angle_beta 90.000000
_cell_angle_gamma 120.000000
_cell_volume 4442.260371
_symmetry_space_group_name_H-M "P 6 C C"
_symmetry_group_IT_number 184
_symmetry_cell_setting 'hexagonal'
loop_
_space_group_symop_operation_xyz
x,y,z
x-y,x,z
-y,x-y,z
-x,-y,z
-x+y,-x,z
y,-x+y,z
-x+y,y,1/2+z
x,x-y,1/2+z
-y,-x,1/2+z
y,x,1/2+z
x-y,-y,1/2+z
-x,-x+y,1/2+z
loop_
_atom_site_type_symbol
_atom_site_label
_atom_site_fract_x
_atom_site_fract_y
_atom_site_fract_z
Si Si1 0.400850 0.141143 0.905020
Si Si2 0.069865 0.259732 0.533997
Si Si3 0.259732 0.189867 0.904215
Si Si4 0.523509 0.929342 0.533933
Si Si5 0.740293 0.599150 0.533192
Si Si6 0.929342 0.523509 0.404278
O O1 0.395146 0.140961 0.719106
O O2 0.448310 0.115730 0.946410
O O3 0.331392 0.094696 0.975056
O O4 0.421083 0.210542 0.969106
O O5 0.070075 0.259072 0.719106
O O6 0.121113 0.242226 0.469106
O O7 1.000000 0.214702 0.469106
O O8 0.331392 0.236696 0.963156
O O9 0.551690 0.884270 0.491801
O O10 0.453973 0.907947 0.469106
O O11 0.522277 0.933154 0.719106
O O12 0.568971 1.000000 0.469106
#
# Coordination Sequence:
#
# PCOD9585117 Si02
#       6
#    12  12  12  12  12  12
#     4  10  20  33  50  74 100 130 164 201 245 293
#     4  11  21  34  52  75 102 133 166 203 245 291
#     4  11  21  34  52  75 102 133 166 203 245 291
#     4  10  20  32  49  72  98 128 162 198 242 289
#     4  10  20  33  50  74 100 130 164 201 245 293
#     4  10  20  32  49  72  98 128 162 198 242 289
#
# _framework density 16.207965999999999
#
# number of rings (size 3 to 8) (size 9 to 14) (size 15 to 20)
#    0.000    1.667    0.000    9.000    0.000    8.000 
#    0.000    0.000    0.000    1.000    0.000    2.333 
#    0.000    0.000    0.000    0.000    0.000    0.000 
#
# Total GULP energy -402119.939119 kJ/mol
# GULP energy per Si atom -5584.999154 kJ/mol
# Density = 1.617108 g / cm^3
# Si number density = 16.207966 Si / 1000 Ang^3
#
#
#
# Elastic Constant Matrix: (Units=GPa)
#
#
# Indices 1 2 3 4 5 6 
#
# 1 143.2310 103.5064 63.6792 0.0000 0.0000 0.0000
# 2 103.5064 143.2310 63.6792 0.0000 0.0000 0.0000
# 3 63.6792 63.6792 109.0778 0.0000 0.0000 0.0000
# 4 0.0000 0.0000 0.0000 26.6775 0.0000 0.0000
# 5 0.0000 0.0000 0.0000 0.0000 26.6775 0.0000
# 6 0.0000 0.0000 0.0000 0.0000 0.0000 19.8623
#
#
#
# Elastic Compliance Matrix: (Units=1/GPa)
#
#
# Indices 1 2 3 4 5 6 
#
# 1 0.015487 -0.009686 -0.003387 0.000000 0.000000 0.000000
# 2 -0.009686 0.015487 -0.003387 0.000000 0.000000 0.000000
# 3 -0.003387 -0.003387 0.013122 0.000000 0.000000 0.000000
# 4 0.000000 0.000000 0.000000 0.037485 0.000000 0.000000
# 5 0.000000 0.000000 0.000000 0.000000 0.037485 0.000000
# 6 0.000000 0.000000 0.000000 0.000000 0.000000 0.050347
#
#
# Mechanical properties :
#
#
# Convention : Reuss Voigt Hill
#
# Bulk Modulus (GPa) = 89.46538 95.25217 92.35877
# Shear Modulus (GPa) = 24.26515 25.62180 24.94347
#
# Velocity S-wave (km/s) = 3.87345 3.98026 3.92722
# Velocity P-wave (km/s) = 8.67889 8.94537 8.81313
#
# Compressibility (1/GPa) = 0.01117751
#
# Stress axis : x y z
#
# Youngs Moduli (GPa) = 64.56968 64.56968 76.20846
#
# Poissons Ratio (x) = 0.62544 0.25809
# Poissons Ratio (y) = 0.62544 0.25809
# Poissons Ratio (z) = 0.21867 0.21867
#
# Static dielectric constant tensor:
#      x y z
#    x 1.529780 0.000000 0.000000 
#    y 0.000000 1.529780 0.000000 
#    z 0.000000 0.000000 1.542980 
# 
# From -- ./inp_files/361.got.cif
#   From: 2010.05.17/outbox.cif.g08.bks.cpg/sg184_cif.got.tgz:361.got - 2010.05.20 12:04:40.
