data_PCOD9585889
_publ_section_title
;
Structure prediction by ZEFSAII (Michael W. Deem and Ramdas Pophale) SiO2 
 PCOD9585889
Probable space group: P -6 C 2
;
_chemical_formula_sum "Si O2"
_cell_formula_units_Z 72
_cell_length_a 24.471582
_cell_length_b 24.471582
_cell_length_c 8.617149
_cell_angle_alpha 90.000000
_cell_angle_beta 90.000000
_cell_angle_gamma 120.000000
_cell_volume 4469.082026
_symmetry_space_group_name_H-M "P -6 C 2"
_symmetry_group_IT_number 188
_symmetry_cell_setting 'hexagonal'
loop_
_space_group_symop_operation_xyz
x,y,z
-x+y,-x,1/2-z
-y,x-y,z
x,y,1/2-z
-x+y,-x,z
-y,x-y,1/2-z
-y,-x,-z
-x+y,y,-z
x,x-y,-z
-x+y,y,1/2+z
x,x-y,1/2+z
-y,-x,1/2+z
loop_
_atom_site_type_symbol
_atom_site_label
_atom_site_fract_x
_atom_site_fract_y
_atom_site_fract_z
Si Si1 0.401905 0.923359 0.063544
Si Si2 0.738215 0.143906 0.562563
Si Si3 0.259368 0.070937 0.436903
Si Si4 0.073283 0.265357 0.436908
Si Si5 0.593953 0.737442 0.935329
Si Si6 0.475804 0.405575 0.936939
O O1 0.399115 0.919279 0.250000
O O2 0.429133 0.996988 0.019213
O O3 0.453034 0.906068 0.000000
O O4 0.332988 0.881020 0.993413
O O5 0.738744 0.145715 0.750000
O O6 0.786886 0.213115 0.500000
O O7 0.766458 0.098950 0.514733
O O8 0.666176 0.114013 0.509526
O O9 0.258536 0.072307 0.250000
O O10 0.238599 0.119300 0.500000
O O11 0.217248 0.998562 0.486179
O O12 0.076161 0.268059 0.250000
O O13 0.123173 0.246346 0.500000
O O14 0.097100 0.335709 0.499560
O O15 0.596186 0.740369 0.750000
O O16 0.575369 0.787685 0.000000
O O17 0.478422 0.406095 0.750000
O O18 0.544428 0.455573 0.000000
#
# Coordination Sequence:
#
# PCOD9585889 Si02
#       6
#    12  12  12  12  12  12
#     4  10  19  33  51  73 100 129 160 197 239 287
#     4   9  17  30  46  67  93 122 152 188 231 276
#     4   9  18  31  48  69  95 124 155 191 236 283
#     4  10  19  32  49  71  98 128 159 197 241 287
#     4  11  21  33  50  73  99 130 164 200 240 284
#     4   9  18  31  48  69  96 125 155 191 234 279
#
# _framework density 16.110690999999999
#
# number of rings (size 3 to 8) (size 9 to 14) (size 15 to 20)
#    0.000    2.333    0.000    4.500    0.000    5.333 
#    0.000    3.333    0.000    1.000    0.000    2.333 
#    0.000    0.000    0.000    0.000    0.000    0.000 
#
# Total GULP energy -401678.942822 kJ/mol
# GULP energy per Si atom -5578.874206 kJ/mol
# Density = 1.607402 g / cm^3
# Si number density = 16.110691 Si / 1000 Ang^3
#
#
#
# Elastic Constant Matrix: (Units=GPa)
#
#
# Indices 1 2 3 4 5 6 
#
# 1 144.9219 96.6810 39.4382 0.0003 0.0000 0.0000
# 2 96.6810 144.9219 39.4382 -0.0003 0.0000 0.0000
# 3 39.4382 39.4382 52.6988 0.0000 0.0000 0.0000
# 4 0.0003 -0.0003 0.0000 25.1044 0.0000 0.0000
# 5 0.0000 0.0000 0.0000 0.0000 25.1044 0.0003
# 6 0.0000 0.0000 0.0000 0.0000 0.0003 24.1204
#
#
#
# Elastic Compliance Matrix: (Units=1/GPa)
#
#
# Indices 1 2 3 4 5 6 
#
# 1 0.013103 -0.007626 -0.004099 0.000000 0.000000 0.000000
# 2 -0.007626 0.013103 -0.004099 0.000000 0.000000 0.000000
# 3 -0.004099 -0.004099 0.025111 0.000000 0.000000 0.000000
# 4 0.000000 0.000000 0.000000 0.039834 0.000000 0.000000
# 5 0.000000 0.000000 0.000000 0.000000 0.039834 0.000000
# 6 0.000000 0.000000 0.000000 0.000000 0.000000 0.041459
#
#
# Mechanical properties :
#
#
# Convention : Reuss Voigt Hill
#
# Bulk Modulus (GPa) = 50.84048 77.07307 63.95677
# Shear Modulus (GPa) = 23.73632 25.99822 24.86727
#
# Velocity S-wave (km/s) = 3.84256 4.02148 3.93304
# Velocity P-wave (km/s) = 7.16327 8.33706 7.77236
#
# Compressibility (1/GPa) = 0.01966937
#
# Stress axis : x y z
#
# Youngs Moduli (GPa) = 76.31688 76.31688 39.82337
#
# Poissons Ratio (x) = 0.58200 0.16324
# Poissons Ratio (y) = 0.58200 0.16324
# Poissons Ratio (z) = 0.31282 0.31282
#
# Static dielectric constant tensor:
#      x y z
#    x 1.525150 0.000000 0.000000 
#    y 0.000000 1.525150 0.000000 
#    z 0.000000 0.000000 1.545750 
# 
# From -- ./inp_files/985.got.cif
#   From: 2010.05.17/outbox.cif.g08.bks.cpg/sg188_1_cif.got.tgz:985.got - 2010.05.20 12:11:46.
