data_PCOD9585192
_publ_section_title
;
Structure prediction by ZEFSAII (Michael W. Deem and Ramdas Pophale) SiO2 
 PCOD9585192
Probable space group: P 6 C C
;
_chemical_formula_sum "Si O2"
_cell_formula_units_Z 84
_cell_length_a 20.074971
_cell_length_b 20.074971
_cell_length_c 12.539907
_cell_angle_alpha 90.000000
_cell_angle_beta 90.000000
_cell_angle_gamma 120.000000
_cell_volume 4376.579285
_symmetry_space_group_name_H-M "P 6 C C"
_symmetry_group_IT_number 184
_symmetry_cell_setting 'hexagonal'
loop_
_space_group_symop_operation_xyz
x,y,z
x-y,x,z
-y,x-y,z
-x,-y,z
-x+y,-x,z
y,-x+y,z
-x+y,y,1/2+z
x,x-y,1/2+z
-y,-x,1/2+z
y,x,1/2+z
x-y,-y,1/2+z
-x,-x+y,1/2+z
loop_
_atom_site_type_symbol
_atom_site_label
_atom_site_fract_x
_atom_site_fract_y
_atom_site_fract_z
Si Si1 0.584421 0.240942 0.345190
Si Si2 0.429145 0.378659 0.159569
Si Si3 0.754212 0.073412 0.316597
Si Si4 0.562014 0.697666 0.963767
Si Si5 0.600005 0.862935 0.038427
Si Si6 0.773045 0.096452 0.768707
Si Si7 0.606143 0.485043 0.160864
O O1 0.674766 0.266071 0.349685
O O2 0.528642 0.184039 0.436075
O O3 0.543160 0.194076 0.238348
O O4 0.385143 0.307960 0.238981
O O5 0.410738 0.349818 0.037150
O O6 0.520387 0.414134 0.159919
O O7 0.409421 0.444698 0.191105
O O8 0.737745 0.090392 0.435856
O O9 0.838883 0.139557 0.286298
O O10 0.741377 0.989106 0.297814
O O11 0.582154 0.776047 0.024364
O O12 0.608271 0.723656 0.852961
O O13 0.647226 0.896580 0.147832
O O14 0.520159 0.862639 0.055463
#
# Coordination Sequence:
#
# PCOD9585192 Si02
#       7
#    12  12  12  12  12  12  12
#     4  10  25  40  62  90 128 174 220 268 325 394
#     4  11  24  40  64  92 124 165 216 272 324 381
#     4  11  24  41  69  93 132 163 216 261 330 383
#     4  11  23  40  65  91 125 169 217 270 323 381
#     4  11  23  40  67  89 126 169 215 266 326 383
#     4  11  23  43  65  99 126 166 211 270 316 400
#     4  11  24  40  61  93 123 167 215 269 328 374
#
# _framework density 19.193072000000001
#
# number of rings (size 3 to 8) (size 9 to 14) (size 15 to 20)
#    0.286    0.857    4.286    0.857    8.000    0.000 
#    0.000    4.286    0.000    0.286    0.000    0.000 
#    0.000    2.571    0.000    0.000    0.000    0.000 
#
# Total GULP energy -468607.339496 kJ/mol
# GULP energy per Si atom -5578.658804 kJ/mol
# Density = 1.914939 g / cm^3
# Si number density = 19.193072 Si / 1000 Ang^3
#
#
#
# Elastic Constant Matrix: (Units=GPa)
#
#
# Indices 1 2 3 4 5 6 
#
# 1 105.6354 50.0916 42.1542 0.0000 0.0000 0.0000
# 2 50.0916 105.6354 42.1542 0.0000 0.0000 0.0000
# 3 42.1542 42.1542 103.7590 0.0000 0.0000 0.0000
# 4 0.0000 0.0000 0.0000 24.8870 0.0000 0.0000
# 5 0.0000 0.0000 0.0000 0.0000 24.8870 0.0000
# 6 0.0000 0.0000 0.0000 0.0000 0.0000 27.7719
#
#
#
# Elastic Compliance Matrix: (Units=1/GPa)
#
#
# Indices 1 2 3 4 5 6 
#
# 1 0.013118 -0.004886 -0.003344 0.000000 0.000000 0.000000
# 2 -0.004886 0.013118 -0.003344 0.000000 0.000000 0.000000
# 3 -0.003344 -0.003344 0.012355 0.000000 0.000000 0.000000
# 4 0.000000 0.000000 0.000000 0.040182 0.000000 0.000000
# 5 0.000000 0.000000 0.000000 0.000000 0.040182 0.000000
# 6 0.000000 0.000000 0.000000 0.000000 0.000000 0.036008
#
#
# Mechanical properties :
#
#
# Convention : Reuss Voigt Hill
#
# Bulk Modulus (GPa) = 64.76004 64.87000 64.81502
# Shear Modulus (GPa) = 27.28382 27.55117 27.41750
#
# Velocity S-wave (km/s) = 3.77443 3.79288 3.78366
# Velocity P-wave (km/s) = 7.26703 7.28377 7.27540
#
# Compressibility (1/GPa) = 0.01544162
#
# Stress axis : x y z
#
# Youngs Moduli (GPa) = 76.23122 76.23122 80.93731
#
# Poissons Ratio (x) = 0.37245 0.27069
# Poissons Ratio (y) = 0.37245 0.27069
# Poissons Ratio (z) = 0.25495 0.25495
#
# Static dielectric constant tensor:
#      x y z
#    x 1.685600 0.000000 0.000000 
#    y 0.000000 1.685600 0.000000 
#    z 0.000000 0.000000 1.688400 
# 
# From -- ./inp_files/662.got.cif
#   From: 2010.05.17/outbox.cif.g08.bks.cpg/sg184_cif.got.tgz:662.got - 2010.05.20 12:04:40.
