data_PCOD9585200
_publ_section_title
;
Structure prediction by ZEFSAII (Michael W. Deem and Ramdas Pophale) SiO2 
 PCOD9585200
Probable space group: P 6 C C
;
_chemical_formula_sum "Si O2"
_cell_formula_units_Z 48
_cell_length_a 13.723866
_cell_length_b 13.723866
_cell_length_c 13.017694
_cell_angle_alpha 90.000000
_cell_angle_beta 90.000000
_cell_angle_gamma 120.000000
_cell_volume 2123.330647
_symmetry_space_group_name_H-M "P 6 C C"
_symmetry_group_IT_number 184
_symmetry_cell_setting 'hexagonal'
loop_
_space_group_symop_operation_xyz
x,y,z
x-y,x,z
-y,x-y,z
-x,-y,z
-x+y,-x,z
y,-x+y,z
-x+y,y,1/2+z
x,x-y,1/2+z
-y,-x,1/2+z
y,x,1/2+z
x-y,-y,1/2+z
-x,-x+y,1/2+z
loop_
_atom_site_type_symbol
_atom_site_label
_atom_site_fract_x
_atom_site_fract_y
_atom_site_fract_z
Si Si1 0.874569 0.396090 0.721620
Si Si2 0.946579 0.201002 0.121403
Si Si3 0.252787 0.828526 0.801213
Si Si4 0.579760 0.949360 0.506675
O O1 0.852736 0.296678 0.798770
O O2 0.806528 0.459443 0.747141
O O3 0.870710 0.349513 0.607119
O O4 0.000000 0.500000 0.731191
O O5 0.912474 0.232179 0.230363
O O6 0.070857 0.217543 0.109111
O O7 0.954738 0.296461 0.043468
O O8 0.293946 0.879453 0.912270
O O9 0.500000 0.000000 0.480421
#
# Coordination Sequence:
#
# PCOD9585200 Si02
#       4
#    12  12  12  12
#     4  11  23  46  68 112 149 189 245 302 367 457
#     4  12  26  48  73 106 146 195 250 308 360 444
#     4  12  24  45  78 108 150 196 241 307 378 445
#     4  11  25  45  78 109 150 191 246 308 382 447
#
# _framework density 22.605993999999999
#
# number of rings (size 3 to 8) (size 9 to 14) (size 15 to 20)
#    0.000    0.500    7.500    1.500    0.000    8.000 
#    0.000    0.000    0.000    3.000    0.000    0.000 
#    0.000    0.000    0.000    0.000    0.000    0.000 
#
# Total GULP energy -268409.319077 kJ/mol
# GULP energy per Si atom -5591.860814 kJ/mol
# Density = 2.255454 g / cm^3
# Si number density = 22.605994 Si / 1000 Ang^3
#
#
#
# Elastic Constant Matrix: (Units=GPa)
#
#
# Indices 1 2 3 4 5 6 
#
# 1 136.8486 53.1388 52.7192 0.0000 0.0000 0.0000
# 2 53.1388 136.8486 52.7192 0.0000 0.0000 0.0000
# 3 52.7192 52.7192 140.9226 0.0000 0.0000 0.0000
# 4 0.0000 0.0000 0.0000 32.6885 0.0000 0.0000
# 5 0.0000 0.0000 0.0000 0.0000 32.6885 0.0000
# 6 0.0000 0.0000 0.0000 0.0000 0.0000 41.8549
#
#
#
# Elastic Compliance Matrix: (Units=1/GPa)
#
#
# Indices 1 2 3 4 5 6 
#
# 1 0.009294 -0.002652 -0.002485 0.000000 0.000000 0.000000
# 2 -0.002652 0.009294 -0.002485 0.000000 0.000000 0.000000
# 3 -0.002485 -0.002485 0.008955 0.000000 0.000000 0.000000
# 4 0.000000 0.000000 0.000000 0.030592 0.000000 0.000000
# 5 0.000000 0.000000 0.000000 0.000000 0.030592 0.000000
# 6 0.000000 0.000000 0.000000 0.000000 0.000000 0.023892
#
#
# Mechanical properties :
#
#
# Convention : Reuss Voigt Hill
#
# Bulk Modulus (GPa) = 81.29685 81.30823 81.30254
# Shear Modulus (GPa) = 37.88934 38.51591 38.20262
#
# Velocity S-wave (km/s) = 4.09843 4.13218 4.11534
# Velocity P-wave (km/s) = 7.64439 7.66891 7.65666
#
# Compressibility (1/GPa) = 0.01230060
#
# Stress axis : x y z
#
# Youngs Moduli (GPa) = 107.59250 107.59250 111.66473
#
# Poissons Ratio (x) = 0.28530 0.27749
# Poissons Ratio (y) = 0.28530 0.27749
# Poissons Ratio (z) = 0.26737 0.26737
#
# Static dielectric constant tensor:
#      x y z
#    x 1.959100 0.000000 0.000000 
#    y 0.000000 1.959100 0.000000 
#    z 0.000000 0.000000 1.844460 
# 
# From -- ./inp_files/542.got.cif
#   From: 2010.05.17/outbox.cif.g08.bks.cpg/sg184_cif.got.tgz:542.got - 2010.05.20 12:04:40.
