data_PCOD9585087
_publ_section_title
;
Structure prediction by ZEFSAII (Michael W. Deem and Ramdas Pophale) SiO2 
 PCOD9585087
Probable space group: P 6 M M
;
_chemical_formula_sum "Si O2"
_cell_formula_units_Z 96
_cell_length_a 18.000000
_cell_length_b 18.000000
_cell_length_c 21.000000
_cell_angle_alpha 90.000000
_cell_angle_beta 90.000000
_cell_angle_gamma 120.000000
_cell_volume 5892.436847
_symmetry_space_group_name_H-M "P 6 M M"
_symmetry_group_IT_number 183
_symmetry_cell_setting 'hexagonal'
loop_
_space_group_symop_operation_xyz
x,y,z
x-y,x,z
-y,x-y,z
-x,-y,z
-x+y,-x,z
y,-x+y,z
-x+y,y,z
x,x-y,z
-y,-x,z
y,x,z
x-y,-y,z
-x,-x+y,z
loop_
_atom_site_type_symbol
_atom_site_label
_atom_site_fract_x
_atom_site_fract_y
_atom_site_fract_z
Si Si1 0.097982 0.360831 0.098030
Si Si2 0.363420 0.467567 0.980561
Si Si3 0.366808 0.102199 0.716496
Si Si4 0.103960 0.636595 0.837807
Si Si5 0.837066 0.331869 0.208215
Si Si6 0.533202 0.635916 0.349631
Si Si7 0.898148 0.633055 0.472478
Si Si8 0.532232 0.635828 0.594383
O O1 0.162653 0.325306 0.104996
O O2 0.108536 0.418036 0.159861
O O3 0.000000 0.289720 0.089592
O O4 0.126674 0.424120 0.037294
O O5 0.433210 0.566791 0.992727
O O6 0.417448 0.417448 0.979933
O O7 0.327782 0.459792 0.909165
O O8 0.325484 0.162742 0.712125
O O9 0.421979 0.124414 0.781196
O O10 0.431878 0.124468 0.657473
O O11 0.300857 0.000000 0.715060
O O12 0.133530 0.566765 0.825126
O O13 0.000000 0.581753 0.839129
O O14 0.854802 0.427401 0.198318
O O15 0.738180 0.261820 0.195900
O O16 0.857652 0.324266 0.281647
O O17 0.435087 0.564914 0.365807
O O18 0.583633 0.583633 0.341474
O O19 0.579482 0.700120 0.407293
O O20 0.836611 0.673221 0.475971
O O21 0.874819 0.567199 0.531130
O O22 0.000000 0.699727 0.475568
O O23 0.430977 0.569024 0.594780
O O24 0.578443 0.578443 0.594106
#
# Coordination Sequence:
#
# PCOD9585087 Si02
#       8
#    12  12  12  12  12  12  12  12
#     4  10  20  32  47  67  90 117 151 192 233 271
#     4   8  14  26  45  68  91 114 142 176 216 265
#     4  10  19  30  46  68  93 122 158 198 236 274
#     4   8  14  26  45  67  89 114 145 181 221 267
#     4  10  19  30  45  67  96 126 153 181 217 264
#     4   9  17  29  46  67  90 119 155 191 225 265
#     4  10  19  31  48  69  93 122 158 197 233 269
#     4   9  17  30  49  70  89 111 141 178 222 273
#
# _framework density 16.292071
#
# number of rings (size 3 to 8) (size 9 to 14) (size 15 to 20)
#    0.000    2.750    0.000    3.125    0.000    4.750 
#    0.000    0.000    0.000    8.375    0.000    0.000 
#    0.000    3.000    0.000   10.250    0.000    0.000 
#
# Total GULP energy -534653.651721 kJ/mol
# GULP energy per Si atom -5569.308872 kJ/mol
# Density = 1.625499 g / cm^3
# Si number density = 16.292071 Si / 1000 Ang^3
#
#
#
# Elastic Constant Matrix: (Units=GPa)
#
#
# Indices 1 2 3 4 5 6 
#
# 1 70.7190 45.5817 40.0513 0.0000 0.0000 0.0000
# 2 45.5817 70.7190 40.0513 0.0000 0.0000 0.0000
# 3 40.0513 40.0513 82.3756 0.0000 0.0000 0.0000
# 4 0.0000 0.0000 0.0000 -16.2094 0.0000 0.0000
# 5 0.0000 0.0000 0.0000 0.0000 -16.2094 0.0000
# 6 0.0000 0.0000 0.0000 0.0000 0.0000 12.5687
#
#
#
# Elastic Compliance Matrix: (Units=1/GPa)
#
#
# Indices 1 2 3 4 5 6 
#
# 1 0.026354 -0.013427 -0.006285 0.000000 0.000000 0.000000
# 2 -0.013427 0.026354 -0.006285 0.000000 0.000000 0.000000
# 3 -0.006285 -0.006285 0.018251 0.000000 0.000000 0.000000
# 4 0.000000 0.000000 0.000000 -0.061692 0.000000 0.000000
# 5 0.000000 0.000000 0.000000 0.000000 -0.061692 0.000000
# 6 0.000000 0.000000 0.000000 0.000000 0.000000 0.079563
#
#
# Mechanical properties :
#
#
# Convention : Reuss Voigt Hill
#
# Bulk Modulus (GPa) = 52.72902 52.79803 52.76352
# Shear Modulus (GPa) = 58.51011 2.57193 30.54102
#
# Velocity S-wave (km/s) = 5.99927 1.25780 4.33436
# Velocity P-wave (km/s) = 8.96791 5.88107 7.58322
#
# Compressibility (1/GPa) = 0.01896489
#
# Stress axis : x y z
#
# Youngs Moduli (GPa) = 37.94425 37.94425 54.79011
#
# Poissons Ratio (x) = 0.50948 0.34438
# Poissons Ratio (y) = 0.50948 0.34438
# Poissons Ratio (z) = 0.23849 0.23849
#
# Static dielectric constant tensor:
#      x y z
#    x 1.543360 0.000000 0.000000 
#    y 0.000000 1.543360 0.000000 
#    z 0.000000 0.000000 1.556320 
# 
# From -- ./inp_files/3138.got.cif
#   From: 2010.05.17/outbox.ucp.g08.bks.cvg/sg183_2_cif.got.tgz:3138.got - 2010.06.11 15:21:10.
