data_PCOD9585184
_publ_section_title
;
Structure prediction by ZEFSAII (Michael W. Deem and Ramdas Pophale) SiO2 
 PCOD9585184
Probable space group: P 6 C C
;
_chemical_formula_sum "Si O2"
_cell_formula_units_Z 84
_cell_length_a 17.230826
_cell_length_b 17.230826
_cell_length_c 14.117748
_cell_angle_alpha 90.000000
_cell_angle_beta 90.000000
_cell_angle_gamma 120.000000
_cell_volume 3630.013590
_symmetry_space_group_name_H-M "P 6 C C"
_symmetry_group_IT_number 184
_symmetry_cell_setting 'hexagonal'
loop_
_space_group_symop_operation_xyz
x,y,z
x-y,x,z
-y,x-y,z
-x,-y,z
-x+y,-x,z
y,-x+y,z
-x+y,y,1/2+z
x,x-y,1/2+z
-y,-x,1/2+z
y,x,1/2+z
x-y,-y,1/2+z
-x,-x+y,1/2+z
loop_
_atom_site_type_symbol
_atom_site_label
_atom_site_fract_x
_atom_site_fract_y
_atom_site_fract_z
Si Si1 0.662864 0.515853 0.528570
Si Si2 0.826334 0.506264 0.498162
Si Si3 0.391668 0.963603 0.839514
Si Si4 0.209889 0.093047 0.998206
Si Si5 0.786409 0.889649 0.723337
Si Si6 0.020474 0.600682 0.128147
Si Si7 0.637519 0.869419 0.854326
O O1 0.745709 0.504044 0.552393
O O2 0.581871 0.414168 0.514037
O O3 0.658854 0.557382 0.426647
O O4 0.660159 0.580876 0.609711
O O5 0.918249 0.581340 0.545151
O O6 0.815239 0.534574 0.391943
O O7 0.374334 0.933199 0.729959
O O8 0.500000 0.000000 0.854280
O O9 0.359792 0.036895 0.837585
O O10 0.159358 0.147626 0.974090
O O11 0.224337 0.103171 0.110602
O O12 0.301520 0.128770 0.941900
O O13 0.844465 0.841226 0.748316
O O14 0.688488 0.849412 0.770890
O O15 0.000000 0.500000 0.108388
#
# Coordination Sequence:
#
# PCOD9585184 Si02
#       7
#    12  12  12  12  12  12  12
#     4  11  22  46  70  99 140 178 234 291 347 435
#     4  11  24  43  69  98 135 180 228 286 355 412
#     4  11  22  45  72  95 135 186 232 284 354 424
#     4  10  23  43  66  95 136 181 231 284 349 421
#     4  10  23  42  64  95 135 181 229 285 348 421
#     4   9  21  43  69  98 129 179 228 280 347 416
#     4  12  24  38  65 100 132 174 234 287 346 416
#
# _framework density 23.140409999999999
#
# number of rings (size 3 to 8) (size 9 to 14) (size 15 to 20)
#    0.000    1.429    2.857    1.857    4.000    4.571 
#    2.571    1.429    0.000    0.000    0.000    0.000 
#    0.000    0.000    0.000    0.000    0.000    0.000 
#
# Total GULP energy -468367.899844 kJ/mol
# GULP energy per Si atom -5575.808331 kJ/mol
# Density = 2.308774 g / cm^3
# Si number density = 23.140410 Si / 1000 Ang^3
#
#
#
# Elastic Constant Matrix: (Units=GPa)
#
#
# Indices 1 2 3 4 5 6 
#
# 1 83.9776 23.1285 8.4487 0.0000 0.0000 0.0000
# 2 23.1285 83.9776 8.4487 0.0000 0.0000 0.0000
# 3 8.4487 8.4487 87.9653 0.0000 0.0000 0.0000
# 4 0.0000 0.0000 0.0000 19.0849 0.0000 0.0000
# 5 0.0000 0.0000 0.0000 0.0000 19.0849 0.0000
# 6 0.0000 0.0000 0.0000 0.0000 0.0000 30.4246
#
#
#
# Elastic Compliance Matrix: (Units=1/GPa)
#
#
# Indices 1 2 3 4 5 6 
#
# 1 0.012957 -0.003477 -0.000911 0.000000 0.000000 0.000000
# 2 -0.003477 0.012957 -0.000911 0.000000 0.000000 0.000000
# 3 -0.000911 -0.000911 0.011543 0.000000 0.000000 0.000000
# 4 0.000000 0.000000 0.000000 0.052397 0.000000 0.000000
# 5 0.000000 0.000000 0.000000 0.000000 0.052397 0.000000
# 6 0.000000 0.000000 0.000000 0.000000 0.000000 0.032868
#
#
# Mechanical properties :
#
#
# Convention : Reuss Voigt Hill
#
# Bulk Modulus (GPa) = 37.22833 37.33026 37.27930
# Shear Modulus (GPa) = 25.68451 28.11187 26.89819
#
# Velocity S-wave (km/s) = 3.33519 3.48924 3.41308
# Velocity P-wave (km/s) = 5.56366 5.69211 5.62825
#
# Compressibility (1/GPa) = 0.02686126
#
# Stress axis : x y z
#
# Youngs Moduli (GPa) = 77.17757 77.17757 86.63242
#
# Poissons Ratio (x) = 0.26834 0.07888
# Poissons Ratio (y) = 0.26834 0.07888
# Poissons Ratio (z) = 0.07027 0.07027
#
# Static dielectric constant tensor:
#      x y z
#    x 1.930140 0.000000 0.000000 
#    y 0.000000 1.930140 0.000000 
#    z 0.000000 0.000000 1.911390 
# 
# From -- ./inp_files/941.got.cif
#   From: 2010.05.17/outbox.cif.g08.bks.cpg/sg184_cif.got.tgz:941.got - 2010.05.20 12:04:40.
