data_PCOD9585709
_publ_section_title
;
Structure prediction by ZEFSAII (Michael W. Deem and Ramdas Pophale) SiO2 
 PCOD9585709
Probable space group: P -6 M 2
;
_chemical_formula_sum "Si O2"
_cell_formula_units_Z 54
_cell_length_a 12.699385
_cell_length_b 12.699385
_cell_length_c 23.547704
_cell_angle_alpha 90.000000
_cell_angle_beta 90.000000
_cell_angle_gamma 120.000000
_cell_volume 3288.853882
_symmetry_space_group_name_H-M "P -6 M 2"
_symmetry_group_IT_number 187
_symmetry_cell_setting 'hexagonal'
loop_
_space_group_symop_operation_xyz
x,y,z
-x+y,-x,-z
-y,x-y,z
x,y,-z
-x+y,-x,z
-y,x-y,-z
-y,-x,-z
-x+y,y,-z
x,x-y,-z
-x+y,y,z
x,x-y,z
-y,-x,z
loop_
_atom_site_type_symbol
_atom_site_label
_atom_site_fract_x
_atom_site_fract_y
_atom_site_fract_z
Si Si1 0.250583 0.000489 0.889753
Si Si2 0.915740 0.582461 0.434636
Si Si3 0.415959 0.332806 0.000000
Si Si4 0.249251 0.999592 0.329140
Si Si5 0.667060 0.083680 0.779900
O O1 0.219909 0.109955 0.890236
O O2 0.328748 0.018483 0.833227
O O3 0.334706 0.021440 0.944409
O O4 0.128357 0.871644 0.891071
O O5 0.952216 0.621338 0.500000
O O6 0.776826 0.553652 0.428509
O O7 0.921407 0.460704 0.424494
O O8 0.992190 0.684536 0.388539
O O9 0.538280 0.461721 0.000000
O O10 0.446665 0.223333 0.000000
O O11 0.127283 0.872718 0.321900
O O12 0.221200 0.110600 0.328353
O O13 0.342807 0.026039 0.277892
O O14 0.538292 0.076583 0.782935
O O15 0.776273 0.223728 0.781218
#
# Coordination Sequence:
#
# PCOD9585709 Si02
#       5
#    12  12   6  12  12
#     4  10  20  34  54  78 104 134 167 205 247 293
#     4   9  17  30  50  75 100 126 158 200 249 296
#     4  10  20  34  54  78 104 134 168 210 256 298
#     4  10  20  33  50  72  99 131 165 202 244 291
#     4  10  20  34  54  78 102 128 160 203 252 298
#
# _framework density 16.419094000000001
#
# number of rings (size 3 to 8) (size 9 to 14) (size 15 to 20)
#    0.000    2.222    0.000    3.333    0.000    1.333 
#    0.000    7.778    0.000   16.444    0.000    0.000 
#    0.000    0.000    0.000    0.000    0.000    0.000 
#
# Total GULP energy -301371.230802 kJ/mol
# GULP energy per Si atom -5580.948719 kJ/mol
# Density = 1.638172 g / cm^3
# Si number density = 16.419094 Si / 1000 Ang^3
#
#
#
# Elastic Constant Matrix: (Units=GPa)
#
#
# Indices 1 2 3 4 5 6 
#
# 1 124.7296 88.8458 71.6295 0.0000 -0.0003 0.0000
# 2 88.8458 124.7296 71.6295 0.0000 0.0003 0.0000
# 3 71.6295 71.6295 119.7973 0.0000 0.0000 0.0000
# 4 0.0000 0.0000 0.0000 13.5565 0.0000 0.0003
# 5 -0.0003 0.0003 0.0000 0.0000 13.5565 0.0000
# 6 0.0000 0.0000 0.0000 0.0003 0.0000 17.9419
#
#
#
# Elastic Compliance Matrix: (Units=1/GPa)
#
#
# Indices 1 2 3 4 5 6 
#
# 1 0.017843 -0.010025 -0.004674 0.000000 0.000001 0.000000
# 2 -0.010025 0.017843 -0.004674 0.000000 -0.000001 0.000000
# 3 -0.004674 -0.004674 0.013937 0.000000 0.000000 0.000000
# 4 0.000000 0.000000 0.000000 0.073765 0.000000 -0.000001
# 5 0.000001 -0.000001 0.000000 0.000000 0.073765 0.000000
# 6 0.000000 0.000000 0.000000 -0.000001 0.000000 0.055735
#
#
# Mechanical properties :
#
#
# Convention : Reuss Voigt Hill
#
# Bulk Modulus (GPa) = 91.95321 92.60735 92.28028
# Shear Modulus (GPa) = 16.93420 18.15444 17.54432
#
# Velocity S-wave (km/s) = 3.21498 3.32880 3.27239
# Velocity P-wave (km/s) = 8.36103 8.44389 8.40256
#
# Compressibility (1/GPa) = 0.01087510
#
# Stress axis : x y z
#
# Youngs Moduli (GPa) = 56.04552 56.04552 71.75066
#
# Poissons Ratio (x) = 0.56186 0.33538
# Poissons Ratio (y) = 0.56186 0.33538
# Poissons Ratio (z) = 0.26197 0.26197
#
# Static dielectric constant tensor:
#      x y z
#    x 1.515740 0.000000 0.000000 
#    y 0.000000 1.515740 0.000000 
#    z 0.000000 0.000000 1.558770 
# 
# From -- ./inp_files/3452.got.cif
#   From: 2010.05.17/outbox.cif.g08.bks.cpg/sg187_2_cif.got.tgz:3452.got - 2010.05.20 12:09:04.
