data_PCOD9585600
_publ_section_title
;
Structure prediction by ZEFSAII (Michael W. Deem and Ramdas Pophale) SiO2 
 PCOD9585600
Probable space group: P -6 M 2
;
_chemical_formula_sum "Si O2"
_cell_formula_units_Z 54
_cell_length_a 13.216293
_cell_length_b 13.216293
_cell_length_c 22.946740
_cell_angle_alpha 90.000000
_cell_angle_beta 90.000000
_cell_angle_gamma 120.000000
_cell_volume 3471.130511
_symmetry_space_group_name_H-M "P -6 M 2"
_symmetry_group_IT_number 187
_symmetry_cell_setting 'hexagonal'
loop_
_space_group_symop_operation_xyz
x,y,z
-x+y,-x,-z
-y,x-y,z
x,y,-z
-x+y,-x,z
-y,x-y,-z
-y,-x,-z
-x+y,y,-z
x,x-y,-z
-x+y,y,z
x,x-y,z
-y,-x,z
loop_
_atom_site_type_symbol
_atom_site_label
_atom_site_fract_x
_atom_site_fract_y
_atom_site_fract_z
Si Si1 0.907485 0.574120 0.167045
Si Si2 0.096350 0.429224 0.734440
Si Si3 0.907238 0.574092 0.500000
Si Si4 0.761741 0.762139 0.932120
Si Si5 0.332840 0.428758 0.597907
O O1 0.781393 0.562785 0.173609
O O2 0.896173 0.448087 0.160085
O O3 0.988677 0.635210 0.223165
O O4 0.969684 0.656253 0.111350
O O5 0.208952 0.417903 0.748665
O O6 0.126807 0.563404 0.741400
O O7 0.067607 0.399615 0.666189
O O8 0.789030 0.578060 0.500000
O O9 0.881707 0.440854 0.500000
O O10 0.987800 0.636664 0.443843
O O11 0.752260 0.876130 0.918666
O O12 0.895761 0.791522 0.925917
O O13 0.729391 0.730799 0.000000
O O14 0.209810 0.419620 0.583672
O O15 0.437823 0.562178 0.589778
#
# Coordination Sequence:
#
# PCOD9585600 Si02
#       5
#    12  12   6  12  12
#     4  10  20  32  46  66  94 128 162 192 222 262
#     4   9  17  30  49  72  95 118 147 187 236 284
#     4  10  20  32  46  66  94 128 162 192 222 262
#     4   9  17  30  49  71  92 115 147 190 237 279
#     4   9  17  30  50  74  95 115 144 188 239 283
#
# _framework density 15.556891999999999
#
# number of rings (size 3 to 8) (size 9 to 14) (size 15 to 20)
#    0.000    2.667    0.000    2.000    0.000    4.000 
#    0.000    1.111    0.000    6.667    0.000    0.000 
#    0.000    0.000    0.000    0.000    0.000    0.000 
#
# Total GULP energy -301011.976023 kJ/mol
# GULP energy per Si atom -5574.295852 kJ/mol
# Density = 1.552148 g / cm^3
# Si number density = 15.556892 Si / 1000 Ang^3
#
#
#
# Elastic Constant Matrix: (Units=GPa)
#
#
# Indices 1 2 3 4 5 6 
#
# 1 120.5986 80.1272 81.2299 0.0000 -0.0002 0.0000
# 2 80.1272 120.5986 81.2299 0.0000 0.0002 0.0000
# 3 81.2299 81.2299 93.9319 0.0000 0.0000 0.0000
# 4 0.0000 0.0000 0.0000 21.8715 0.0000 0.0002
# 5 -0.0002 0.0002 0.0000 0.0000 21.8715 0.0000
# 6 0.0000 0.0000 0.0000 0.0002 0.0000 20.2357
#
#
#
# Elastic Compliance Matrix: (Units=1/GPa)
#
#
# Indices 1 2 3 4 5 6 
#
# 1 0.020655 -0.004054 -0.014357 0.000000 0.000000 0.000000
# 2 -0.004054 0.020655 -0.014357 0.000000 0.000000 0.000000
# 3 -0.014357 -0.014357 0.035477 0.000000 0.000000 0.000000
# 4 0.000000 0.000000 0.000000 0.045722 0.000000 0.000000
# 5 0.000000 0.000000 0.000000 0.000000 0.045722 0.000000
# 6 0.000000 0.000000 0.000000 0.000000 0.000000 0.049418
#
#
# Mechanical properties :
#
#
# Convention : Reuss Voigt Hill
#
# Bulk Modulus (GPa) = 88.86388 91.14480 90.00434
# Shear Modulus (GPa) = 17.42565 18.96521 18.19543
#
# Velocity S-wave (km/s) = 3.35046 3.49533 3.42366
# Velocity P-wave (km/s) = 8.49784 8.66054 8.57958
#
# Compressibility (1/GPa) = 0.01125317
#
# Stress axis : x y z
#
# Youngs Moduli (GPa) = 48.41383 48.41383 28.18746
#
# Poissons Ratio (x) = 0.19625 0.40468
# Poissons Ratio (y) = 0.19625 0.40468
# Poissons Ratio (z) = 0.69507 0.69507
#
# Static dielectric constant tensor:
#      x y z
#    x 1.490460 0.000000 0.000000 
#    y 0.000000 1.490460 0.000000 
#    z 0.000000 0.000000 1.521200 
# 
# From -- ./inp_files/3846.got.cif
#   From: 2010.05.17/outbox.cif.g08.bks.cpg/sg187_2_cif.got.tgz:3846.got - 2010.05.20 12:09:04.
