data_PCOD9585657
_publ_section_title
;
Structure prediction by ZEFSAII (Michael W. Deem and Ramdas Pophale) SiO2 
 PCOD9585657
Probable space group: P -6 M 2
;
_chemical_formula_sum "Si O2"
_cell_formula_units_Z 66
_cell_length_a 12.782960
_cell_length_b 12.782960
_cell_length_c 29.154234
_cell_angle_alpha 90.000000
_cell_angle_beta 90.000000
_cell_angle_gamma 120.000000
_cell_volume 4125.676077
_symmetry_space_group_name_H-M "P -6 M 2"
_symmetry_group_IT_number 187
_symmetry_cell_setting 'hexagonal'
loop_
_space_group_symop_operation_xyz
x,y,z
-x+y,-x,-z
-y,x-y,z
x,y,-z
-x+y,-x,z
-y,x-y,-z
-y,-x,-z
-x+y,y,-z
x,x-y,-z
-x+y,y,z
x,x-y,z
-y,-x,z
loop_
_atom_site_type_symbol
_atom_site_label
_atom_site_fract_x
_atom_site_fract_y
_atom_site_fract_z
Si Si1 0.751726 0.000425 0.137680
Si Si2 0.333195 0.914061 0.052478
Si Si3 0.915074 0.582073 0.774912
Si Si4 0.665892 0.583662 0.399241
Si Si5 0.665992 0.581180 0.500000
Si Si6 0.000124 0.751159 0.312706
O O1 0.753919 0.876960 0.144869
O O2 0.681155 0.987480 0.090450
O O3 0.684950 0.024342 0.179647
O O4 0.886483 0.113518 0.135761
O O5 0.460440 0.920881 0.060419
O O6 0.224442 0.775559 0.056059
O O7 0.331494 0.953393 0.000000
O O8 0.776300 0.552600 0.774306
O O9 0.921405 0.460703 0.774159
O O10 0.978160 0.664655 0.730580
O O11 0.780995 0.561990 0.398620
O O12 0.542890 0.457111 0.391818
O O13 0.659526 0.631698 0.450214
O O14 0.689608 0.677691 0.359092
O O15 0.556094 0.443907 0.500000
O O16 0.791120 0.582240 0.500000
O O17 0.888958 0.777916 0.312600
O O18 0.126230 0.873771 0.309653
#
# Coordination Sequence:
#
# PCOD9585657 Si02
#       6
#    12  12  12  12   6  12
#     4  10  20  33  50  72  99 131 164 196 230 273
#     4   9  17  30  49  72  97 126 161 201 243 284
#     4  10  20  34  53  75  97 120 149 190 239 287
#     4   9  16  27  46  71  97 122 150 189 236 283
#     4   8  13  22  39  66  96 122 148 182 230 282
#     4  10  20  33  49  68  93 126 161 194 227 270
#
# _framework density 15.997377999999999
#
# number of rings (size 3 to 8) (size 9 to 14) (size 15 to 20)
#    0.000    2.545    0.000    2.636    0.000    2.545 
#    0.000    4.091    0.000    9.091    0.000    1.273 
#    0.000    0.000    0.000    0.000    0.000    0.000 
#
# Total GULP energy -367796.082193 kJ/mol
# GULP energy per Si atom -5572.667912 kJ/mol
# Density = 1.596097 g / cm^3
# Si number density = 15.997378 Si / 1000 Ang^3
#
#
#
# Elastic Constant Matrix: (Units=GPa)
#
#
# Indices 1 2 3 4 5 6 
#
# 1 93.0628 67.6174 79.6705 0.0000 0.0005 0.0000
# 2 67.6174 93.0628 79.6705 0.0000 -0.0005 0.0000
# 3 79.6705 79.6705 151.4091 0.0000 0.0000 0.0000
# 4 0.0000 0.0000 0.0000 21.4838 0.0000 -0.0005
# 5 0.0005 -0.0005 0.0000 0.0000 21.4838 0.0000
# 6 0.0000 0.0000 0.0000 -0.0005 0.0000 12.7227
#
#
#
# Elastic Compliance Matrix: (Units=1/GPa)
#
#
# Indices 1 2 3 4 5 6 
#
# 1 0.026157 -0.013143 -0.006848 0.000000 -0.000001 0.000000
# 2 -0.013143 0.026157 -0.006848 0.000000 0.000001 0.000000
# 3 -0.006848 -0.006848 0.013812 0.000000 0.000000 0.000000
# 4 0.000000 0.000000 0.000000 0.046547 0.000000 0.000002
# 5 -0.000001 0.000001 0.000000 0.000000 0.046547 0.000000
# 6 0.000000 0.000000 0.000000 0.000002 0.000000 0.078600
#
#
# Mechanical properties :
#
#
# Convention : Reuss Voigt Hill
#
# Bulk Modulus (GPa) = 80.33389 87.93907 84.13648
# Shear Modulus (GPa) = 16.91207 18.50980 17.71093
#
# Velocity S-wave (km/s) = 3.25495 3.40524 3.33094
# Velocity P-wave (km/s) = 8.02821 8.39947 8.21594
#
# Compressibility (1/GPa) = 0.01244805
#
# Stress axis : x y z
#
# Youngs Moduli (GPa) = 38.23030 38.23030 72.40255
#
# Poissons Ratio (x) = 0.50244 0.49583
# Poissons Ratio (y) = 0.50244 0.49583
# Poissons Ratio (z) = 0.26181 0.26181
#
# Static dielectric constant tensor:
#      x y z
#    x 1.501460 0.000000 0.000000 
#    y 0.000000 1.501460 0.000000 
#    z 0.000000 0.000000 1.560860 
# 
# From -- ./inp_files/4397.got.cif
#   From: 2010.05.17/outbox.cif.g08.bks.cpg/sg187_3_cif.got.tgz:4397.got - 2010.05.20 12:09:04.
