data_PCOD9585413
_publ_section_title
;
Structure prediction by ZEFSAII (Michael W. Deem and Ramdas Pophale) SiO2 
 PCOD9585413
Probable space group: P 63 M C
;
_chemical_formula_sum "Si O2"
_cell_formula_units_Z 48
_cell_length_a 17.779007
_cell_length_b 17.779007
_cell_length_c 9.532237
_cell_angle_alpha 90.000000
_cell_angle_beta 90.000000
_cell_angle_gamma 120.000000
_cell_volume 2609.398841
_symmetry_space_group_name_H-M "P 63 M C"
_symmetry_group_IT_number 186
_symmetry_cell_setting 'hexagonal'
loop_
_space_group_symop_operation_xyz
x,y,z
x-y,x,1/2+z
-y,x-y,z
-x,-y,1/2+z
-x+y,-x,z
y,-x+y,1/2+z
-x+y,y,z
x,x-y,z
-y,-x,z
y,x,1/2+z
x-y,-y,1/2+z
-x,-x+y,1/2+z
loop_
_atom_site_type_symbol
_atom_site_label
_atom_site_fract_x
_atom_site_fract_y
_atom_site_fract_z
Si Si1 0.619921 0.552175 0.665050
Si Si2 0.278357 0.721644 0.750034
Si Si3 0.758519 0.241482 0.562665
Si Si4 0.624281 0.812141 0.595581
Si Si5 0.675426 0.689291 0.428919
Si Si6 0.300208 0.150104 0.405531
O O1 0.520908 0.479093 0.693915
O O2 0.677660 0.505589 0.652315
O O3 0.632452 0.599588 0.516307
O O4 0.662189 0.630125 0.777308
O O5 0.238508 0.619254 0.723141
O O6 0.237242 0.762759 0.650581
O O7 0.267006 0.732995 0.915290
O O8 0.808291 0.191710 0.508335
O O9 0.647276 0.751135 0.504969
O O10 0.675922 0.837961 0.741780
O O11 0.780830 0.733291 0.428350
#
# Coordination Sequence:
#
# PCOD9585413 Si02
#       6
#    12   6   6   6  12   6
#     4  11  22  36  57  88 122 165 216 265 315 373
#     4   9  20  36  58  88 129 188 217 262 320 380
#     4   9  19  36  56  82 122 165 221 259 310 374
#     4  11  21  40  64  91 125 159 220 263 322 385
#     4  11  22  40  63  89 122 163 206 270 321 389
#     4   9  20  40  58  89 118 156 202 252 324 383
#
# _framework density 18.395040999999999
#
# number of rings (size 3 to 8) (size 9 to 14) (size 15 to 20)
#    0.250    1.500    2.500    2.250    0.000    2.000 
#    0.750    0.000    0.000    0.500    0.000    0.000 
#    0.000    0.000    0.000    0.000    0.000    0.000 
#
# Total GULP energy -267333.478664 kJ/mol
# GULP energy per Si atom -5569.447472 kJ/mol
# Density = 1.835317 g / cm^3
# Si number density = 18.395041 Si / 1000 Ang^3
#
#
#
# Elastic Constant Matrix: (Units=GPa)
#
#
# Indices 1 2 3 4 5 6 
#
# 1 83.8912 46.8050 21.7681 0.0000 0.0000 0.0000
# 2 46.8050 83.8912 21.7681 0.0000 0.0000 0.0000
# 3 21.7681 21.7681 64.8326 0.0000 0.0000 0.0000
# 4 0.0000 0.0000 0.0000 21.4073 0.0000 0.0000
# 5 0.0000 0.0000 0.0000 0.0000 21.4073 0.0000
# 6 0.0000 0.0000 0.0000 0.0000 0.0000 18.5431
#
#
#
# Elastic Compliance Matrix: (Units=1/GPa)
#
#
# Indices 1 2 3 4 5 6 
#
# 1 0.017790 -0.009175 -0.002893 0.000000 0.000000 0.000000
# 2 -0.009175 0.017790 -0.002893 0.000000 0.000000 0.000000
# 3 -0.002893 -0.002893 0.017367 0.000000 0.000000 0.000000
# 4 0.000000 0.000000 0.000000 0.046713 0.000000 0.000000
# 5 0.000000 0.000000 0.000000 0.000000 0.046713 0.000000
# 6 0.000000 0.000000 0.000000 0.000000 0.000000 0.053928
#
#
# Mechanical properties :
#
#
# Convention : Reuss Voigt Hill
#
# Bulk Modulus (GPa) = 43.42847 45.92195 44.67521
# Shear Modulus (GPa) = 21.01769 21.75648 21.38709
#
# Velocity S-wave (km/s) = 3.38386 3.44282 3.41347
# Velocity P-wave (km/s) = 6.23918 6.38925 6.31466
#
# Compressibility (1/GPa) = 0.02302637
#
# Stress axis : x y z
#
# Youngs Moduli (GPa) = 56.21287 56.21287 57.58144
#
# Poissons Ratio (x) = 0.51573 0.16655
# Poissons Ratio (y) = 0.51573 0.16655
# Poissons Ratio (z) = 0.16260 0.16260
#
# Static dielectric constant tensor:
#      x y z
#    x 1.668240 0.000000 0.000000 
#    y 0.000000 1.668240 0.000000 
#    z 0.000000 0.000000 1.632770 
# 
# From -- ./inp_files/790.got.cif
#   From: 2010.05.17/outbox.cif.g08.bks.cpg/sg186_1_cif.got.tgz:790.got - 2010.05.20 12:07:08.
