data_PCOD9585749
_publ_section_title
;
Structure prediction by ZEFSAII (Michael W. Deem and Ramdas Pophale) SiO2 
 PCOD9585749
Probable space group: P -6 M 2
;
_chemical_formula_sum "Si O2"
_cell_formula_units_Z 66
_cell_length_a 22.828393
_cell_length_b 22.828393
_cell_length_c 7.652695
_cell_angle_alpha 90.000000
_cell_angle_beta 90.000000
_cell_angle_gamma 120.000000
_cell_volume 3453.788328
_symmetry_space_group_name_H-M "P -6 M 2"
_symmetry_group_IT_number 187
_symmetry_cell_setting 'hexagonal'
loop_
_space_group_symop_operation_xyz
x,y,z
-x+y,-x,-z
-y,x-y,z
x,y,-z
-x+y,-x,z
-y,x-y,-z
-y,-x,-z
-x+y,y,-z
x,x-y,-z
-x+y,y,z
x,x-y,z
-y,-x,z
loop_
_atom_site_type_symbol
_atom_site_label
_atom_site_fract_x
_atom_site_fract_y
_atom_site_fract_z
Si Si1 0.667196 0.192867 0.000000
Si Si2 0.208182 0.924754 0.290830
Si Si3 0.465942 0.666769 0.209814
Si Si4 0.472644 0.085984 0.297328
Si Si5 0.133416 0.132573 0.789678
Si Si6 0.348601 0.943218 0.289752
O O1 0.659898 0.147300 0.830719
O O2 0.736047 0.263954 0.000000
O O3 0.601582 0.203164 0.000000
O O4 0.209099 0.917744 0.500000
O O5 0.144380 0.855621 0.221476
O O6 0.278898 0.936400 0.222345
O O7 0.191907 0.984253 0.255397
O O8 0.479685 0.739843 0.275063
O O9 0.394597 0.605404 0.275466
O O10 0.525696 0.650973 0.247884
O O11 0.461069 0.667942 0.000000
O O12 0.459992 0.097050 0.500000
O O13 0.540378 0.080755 0.295611
O O14 0.412103 0.013901 0.231954
O O15 0.142872 0.071436 0.724565
O O16 0.062757 0.125513 0.725548
O O17 0.129190 0.128125 0.000000
O O18 0.349293 0.947341 0.500000
#
# Coordination Sequence:
#
# PCOD9585749 Si02
#       6
#     6  12  12  12  12  12
#     4  10  21  38  62  90 119 150 184 226 276 334
#     4   9  18  32  49  70  98 131 168 213 262 312
#     4  10  21  35  52  76 108 144 182 227 279 331
#     4   9  19  36  58  85 116 149 187 232 278 327
#     4   9  17  30  48  69  93 123 160 205 256 310
#     4  10  20  35  55  77 103 140 184 226 271 326
#
# _framework density 19.109449999999999
#
# number of rings (size 3 to 8) (size 9 to 14) (size 15 to 20)
#    0.000    2.545    0.000    1.545    1.273    5.091 
#    0.000    2.727    0.000    6.545    0.000    0.000 
#    0.000    0.000    0.000    0.000    0.000    0.000 
#
# Total GULP energy -368215.654682 kJ/mol
# GULP energy per Si atom -5579.025071 kJ/mol
# Density = 1.906596 g / cm^3
# Si number density = 19.109450 Si / 1000 Ang^3
#
#
#
# Elastic Constant Matrix: (Units=GPa)
#
#
# Indices 1 2 3 4 5 6 
#
# 1 125.9578 65.3892 31.4210 0.0000 0.0011 0.0000
# 2 65.3892 125.9578 31.4210 0.0000 -0.0011 0.0000
# 3 31.4210 31.4210 58.4896 0.0000 0.0000 0.0000
# 4 0.0000 0.0000 0.0000 23.5520 0.0000 -0.0011
# 5 0.0011 -0.0011 0.0000 0.0000 23.5520 0.0000
# 6 0.0000 0.0000 0.0000 -0.0011 0.0000 30.2843
#
#
#
# Elastic Compliance Matrix: (Units=1/GPa)
#
#
# Indices 1 2 3 4 5 6 
#
# 1 0.011428 -0.005082 -0.003409 0.000000 -0.000001 0.000000
# 2 -0.005082 0.011428 -0.003409 0.000000 0.000001 0.000000
# 3 -0.003409 -0.003409 0.020760 0.000000 0.000000 0.000000
# 4 0.000000 0.000000 0.000000 0.042459 0.000000 0.000002
# 5 -0.000001 0.000001 0.000000 0.000000 0.042459 0.000000
# 6 0.000000 0.000000 0.000000 0.000002 0.000000 0.033020
#
#
# Mechanical properties :
#
#
# Convention : Reuss Voigt Hill
#
# Bulk Modulus (GPa) = 50.46617 62.98528 56.72573
# Shear Modulus (GPa) = 26.04712 27.62259 26.83486
#
# Velocity S-wave (km/s) = 3.69595 3.80609 3.75143
# Velocity P-wave (km/s) = 6.68429 7.23512 6.96515
#
# Compressibility (1/GPa) = 0.01981525
#
# Stress axis : x y z
#
# Youngs Moduli (GPa) = 87.50485 87.50485 48.17036
#
# Poissons Ratio (x) = 0.44472 0.16421
# Poissons Ratio (y) = 0.44472 0.16421
# Poissons Ratio (z) = 0.29830 0.29830
#
# Static dielectric constant tensor:
#      x y z
#    x 1.649170 0.000000 0.000000 
#    y 0.000000 1.649170 0.000000 
#    z 0.000000 0.000000 1.706010 
# 
# From -- ./inp_files/772.got.cif
#   From: 2010.05.17/outbox.cif.g08.bks.cpg/sg187_1_cif.got.tgz:772.got - 2010.05.20 12:09:04.
