data_PCOD9585559
_publ_section_title
;
Structure prediction by ZEFSAII (Michael W. Deem and Ramdas Pophale) SiO2 
 PCOD9585559
Probable space group: P -6 M 2
;
_chemical_formula_sum "Si O2"
_cell_formula_units_Z 60
_cell_length_a 18.440230
_cell_length_b 18.440230
_cell_length_c 12.052722
_cell_angle_alpha 90.000000
_cell_angle_beta 90.000000
_cell_angle_gamma 120.000000
_cell_volume 3549.346824
_symmetry_space_group_name_H-M "P -6 M 2"
_symmetry_group_IT_number 187
_symmetry_cell_setting 'hexagonal'
loop_
_space_group_symop_operation_xyz
x,y,z
-x+y,-x,-z
-y,x-y,z
x,y,-z
-x+y,-x,z
-y,x-y,-z
-y,-x,-z
-x+y,y,-z
x,x-y,-z
-x+y,y,z
x,x-y,z
-y,-x,z
loop_
_atom_site_type_symbol
_atom_site_label
_atom_site_fract_x
_atom_site_fract_y
_atom_site_fract_z
Si Si1 0.011717 0.587839 0.249676
Si Si2 0.826404 0.999647 0.791325
Si Si3 0.073686 0.754076 0.372929
Si Si4 0.942230 0.712595 0.000000
Si Si5 0.596274 0.562988 0.000000
Si Si6 0.496578 0.333135 0.630623
O O1 0.030540 0.515270 0.288101
O O2 0.067151 0.677084 0.304438
O O3 0.016015 0.590246 0.116297
O O4 0.916445 0.556410 0.291008
O O5 0.916456 0.083545 0.786856
O O6 0.836506 0.918253 0.807138
O O7 0.770764 0.985384 0.682472
O O8 0.773472 0.008168 0.892098
O O9 0.050127 0.729336 0.500000
O O10 0.166540 0.833461 0.368309
O O11 0.856565 0.713129 0.000000
O O12 0.920852 0.617112 0.000000
O O13 0.538639 0.461362 0.000000
O O14 0.474509 0.333125 0.500000
O O15 0.486177 0.243089 0.656560
O O16 0.593360 0.406640 0.642142
#
# Coordination Sequence:
#
# PCOD9585559 Si02
#       6
#    12  12  12   6   6  12
#     4  10  20  35  55  77 102 133 171 214 261 314
#     4  10  20  34  53  78 109 145 185 228 271 316
#     4  10  21  36  54  78 107 138 174 217 265 319
#     4  10  19  33  54  78 106 143 183 222 269 318
#     4  10  20  35  54  78 104 131 169 216 262 312
#     4   9  17  29  47  72 101 134 171 211 253 296
#
# _framework density 16.904519000000001
#
# number of rings (size 3 to 8) (size 9 to 14) (size 15 to 20)
#    0.000    2.200    2.000    1.300    0.000    4.000 
#    0.000    1.500    0.000    1.800    0.000    0.000 
#    0.000    0.000    0.000    0.000    0.000    0.000 
#
# Total GULP energy -334321.541437 kJ/mol
# GULP energy per Si atom -5572.025691 kJ/mol
# Density = 1.686604 g / cm^3
# Si number density = 16.904519 Si / 1000 Ang^3
#
#
#
# Elastic Constant Matrix: (Units=GPa)
#
#
# Indices 1 2 3 4 5 6 
#
# 1 67.3840 25.9450 34.3395 0.0000 0.0000 0.0000
# 2 25.9450 67.3840 34.3395 0.0000 0.0000 0.0000
# 3 34.3395 34.3395 107.6943 0.0000 0.0000 0.0000
# 4 0.0000 0.0000 0.0000 18.6309 0.0000 0.0000
# 5 0.0000 0.0000 0.0000 0.0000 18.6309 0.0000
# 6 0.0000 0.0000 0.0000 0.0000 0.0000 20.7195
#
#
#
# Elastic Compliance Matrix: (Units=1/GPa)
#
#
# Indices 1 2 3 4 5 6 
#
# 1 0.019066 -0.005066 -0.004464 0.000000 0.000000 0.000000
# 2 -0.005066 0.019066 -0.004464 0.000000 0.000000 0.000000
# 3 -0.004464 -0.004464 0.012132 0.000000 0.000000 0.000000
# 4 0.000000 0.000000 0.000000 0.053674 0.000000 0.000000
# 5 0.000000 0.000000 0.000000 0.000000 0.053674 0.000000
# 6 0.000000 0.000000 0.000000 0.000000 0.000000 0.048264
#
#
# Mechanical properties :
#
#
# Convention : Reuss Voigt Hill
#
# Bulk Modulus (GPa) = 44.89157 47.96781 46.42969
# Shear Modulus (GPa) = 20.72199 21.45214 21.08706
#
# Velocity S-wave (km/s) = 3.50498 3.56619 3.53572
# Velocity P-wave (km/s) = 6.55694 6.73753 6.64785
#
# Compressibility (1/GPa) = 0.02227590
#
# Stress axis : x y z
#
# Youngs Moduli (GPa) = 52.44998 52.44998 82.42456
#
# Poissons Ratio (x) = 0.26572 0.36794
# Poissons Ratio (y) = 0.26572 0.36794
# Poissons Ratio (z) = 0.23413 0.23413
#
# Static dielectric constant tensor:
#      x y z
#    x 1.560510 0.000000 0.000000 
#    y 0.000000 1.560510 0.000000 
#    z 0.000000 0.000000 1.598680 
# 
# From -- ./inp_files/1682.got.cif
#   From: 2010.05.17/outbox.cif.g08.bks.cpg/sg187_1_cif.got.tgz:1682.got - 2010.05.20 12:09:04.
