data_PCOD9585568
_publ_section_title
;
Structure prediction by ZEFSAII (Michael W. Deem and Ramdas Pophale) SiO2 
 PCOD9585568
Probable space group: P -6 M 2
;
_chemical_formula_sum "Si O2"
_cell_formula_units_Z 42
_cell_length_a 16.116350
_cell_length_b 16.116350
_cell_length_c 11.817819
_cell_angle_alpha 90.000000
_cell_angle_beta 90.000000
_cell_angle_gamma 120.000000
_cell_volume 2658.283812
_symmetry_space_group_name_H-M "P -6 M 2"
_symmetry_group_IT_number 187
_symmetry_cell_setting 'hexagonal'
loop_
_space_group_symop_operation_xyz
x,y,z
-x+y,-x,-z
-y,x-y,z
x,y,-z
-x+y,-x,z
-y,x-y,-z
-y,-x,-z
-x+y,y,-z
x,x-y,-z
-x+y,y,z
x,x-y,z
-y,-x,z
loop_
_atom_site_type_symbol
_atom_site_label
_atom_site_fract_x
_atom_site_fract_y
_atom_site_fract_z
Si Si1 0.504908 0.009816 0.864113
Si Si2 0.211825 0.605913 0.136779
Si Si3 0.470217 0.138190 0.500000
Si Si4 0.806367 0.000058 0.869694
Si Si5 0.708293 0.097687 0.746684
O O1 0.612274 0.064699 0.816827
O O2 0.448850 0.897699 0.824160
O O3 0.505028 0.010055 0.000000
O O4 0.281329 0.562657 0.168682
O O5 0.207152 0.603576 0.000000
O O6 0.563758 0.127516 0.500000
O O7 0.500535 0.250268 0.500000
O O8 0.410090 0.094609 0.385764
O O9 0.917464 0.082537 0.862634
O O10 0.748823 0.029119 0.784363
O O11 0.794585 0.897293 0.848460
O O12 0.775600 0.002190 0.000000
O O13 0.794085 0.205916 0.772336
#
# Coordination Sequence:
#
# PCOD9585568 Si02
#       5
#     6   6   6  12  12
#     4  11  20  31  51  75 107 144 167 209 280 329
#     4   7  14  30  49  73 101 129 172 219 246 295
#     4  10  19  36  57  72  92 132 184 232 261 301
#     4   9  17  31  52  78 109 142 174 208 252 313
#     4  10  21  35  51  75 104 133 176 224 263 312
#
# _framework density 15.799666999999999
#
# number of rings (size 3 to 8) (size 9 to 14) (size 15 to 20)
#    0.286    2.286    1.429    1.286    0.000    4.000 
#    0.857    3.571    0.000    0.000    0.000    3.000 
#    0.000    0.000    0.000    0.000    0.000    0.000 
#
# Total GULP energy -233843.280923 kJ/mol
# GULP energy per Si atom -5567.697165 kJ/mol
# Density = 1.576371 g / cm^3
# Si number density = 15.799667 Si / 1000 Ang^3
#
#
#
# Elastic Constant Matrix: (Units=GPa)
#
#
# Indices 1 2 3 4 5 6 
#
# 1 102.9560 72.6182 68.2055 0.0000 0.0006 0.0000
# 2 72.6182 102.9560 68.2055 0.0000 -0.0006 0.0000
# 3 68.2055 68.2055 97.8309 0.0000 0.0000 0.0000
# 4 0.0000 0.0000 0.0000 12.9506 0.0000 -0.0006
# 5 0.0006 -0.0006 0.0000 0.0000 12.9506 0.0000
# 6 0.0000 0.0000 0.0000 -0.0006 0.0000 15.1689
#
#
#
# Elastic Compliance Matrix: (Units=1/GPa)
#
#
# Indices 1 2 3 4 5 6 
#
# 1 0.022694 -0.010268 -0.008664 0.000000 -0.000001 0.000000
# 2 -0.010268 0.022694 -0.008664 0.000000 0.000001 0.000000
# 3 -0.008664 -0.008664 0.022302 0.000000 0.000000 0.000000
# 4 0.000000 0.000000 0.000000 0.077216 0.000000 0.000003
# 5 -0.000001 0.000001 0.000000 0.000000 0.077216 0.000000
# 6 0.000000 0.000000 0.000000 0.000003 0.000000 0.065924
#
#
# Mechanical properties :
#
#
# Convention : Reuss Voigt Hill
#
# Bulk Modulus (GPa) = 79.99470 80.20011 80.09741
# Shear Modulus (GPa) = 14.39243 14.52828 14.46035
#
# Velocity S-wave (km/s) = 3.02144 3.03567 3.02856
# Velocity P-wave (km/s) = 7.93175 7.94719 7.93947
#
# Compressibility (1/GPa) = 0.01250083
#
# Stress axis : x y z
#
# Youngs Moduli (GPa) = 44.06366 44.06366 44.83924
#
# Poissons Ratio (x) = 0.45243 0.38847
# Poissons Ratio (y) = 0.45243 0.38847
# Poissons Ratio (z) = 0.38175 0.38175
#
# Static dielectric constant tensor:
#      x y z
#    x 1.528370 0.000000 0.000000 
#    y 0.000000 1.528370 0.000000 
#    z 0.000000 0.000000 1.510920 
# 
# From -- ./inp_files/1408.got.cif
#   From: 2010.05.17/outbox.cif.g08.bks.cpg/sg187_1_cif.got.tgz:1408.got - 2010.05.20 12:09:04.
