data_PCOD9585300
_publ_section_title
;
Structure prediction by ZEFSAII (Michael W. Deem and Ramdas Pophale) SiO2 
 PCOD9585300
Probable space group: P 63 C M
;
_chemical_formula_sum "Si O2"
_cell_formula_units_Z 84
_cell_length_a 13.973438
_cell_length_b 13.973438
_cell_length_c 24.831569
_cell_angle_alpha 90.000000
_cell_angle_beta 90.000000
_cell_angle_gamma 120.000000
_cell_volume 4198.956137
_symmetry_space_group_name_H-M "P 63 C M"
_symmetry_group_IT_number 185
_symmetry_cell_setting 'hexagonal'
loop_
_space_group_symop_operation_xyz
x,y,z
x-y,x,1/2+z
-y,x-y,z
-x,-y,1/2+z
-x+y,-x,z
y,-x+y,1/2+z
-x+y,y,1/2+z
x,x-y,1/2+z
-y,-x,1/2+z
y,x,z
x-y,-y,z
-x,-x+y,z
loop_
_atom_site_type_symbol
_atom_site_label
_atom_site_fract_x
_atom_site_fract_y
_atom_site_fract_z
Si Si1 0.873638 0.574723 0.849470
Si Si2 0.869859 0.429128 0.938668
Si Si3 0.871966 0.199744 0.057653
Si Si4 0.521476 0.260738 0.247135
Si Si5 0.559269 0.130141 0.055602
Si Si6 0.672222 0.800256 0.936616
Si Si7 0.298915 0.873638 0.644800
O O1 0.828751 0.464052 0.886314
O O2 0.791631 0.550549 0.800014
O O3 0.872924 0.663838 0.890068
O O4 0.000000 0.618547 0.831570
O O5 0.865655 0.312876 0.934940
O O6 0.000000 0.519912 0.940113
O O7 0.822306 0.434825 0.997135
O O8 0.865655 0.312876 0.059330
O O9 0.790914 0.127076 0.104202
O O10 0.000000 0.237638 0.065792
O O11 0.839389 0.153636 0.997135
O O12 0.606974 0.213947 0.247135
O O13 0.449451 0.241082 0.194256
O O14 0.635301 0.171249 0.107956
O O15 0.519912 0.000000 0.054157
O O16 0.762362 0.762362 0.928478
O O17 0.381453 0.000000 0.662700
#
# Coordination Sequence:
#
# PCOD9585300 Si02
#       7
#    12  12  12  12  12  12  12
#     4  11  21  34  56  79 102 138 185 229 263 311
#     4   8  15  29  50  77 107 135 164 204 258 315
#     4   9  18  33  53  79 112 142 165 203 264 324
#     4  10  24  40  51  72 109 144 186 224 278 328
#     4   8  15  29  50  77 107 135 164 204 258 315
#     4   9  18  33  53  79 112 142 165 203 264 324
#     4  11  21  34  56  79 102 138 185 229 263 311
#
# _framework density 20.004971999999999
#
# number of rings (size 3 to 8) (size 9 to 14) (size 15 to 20)
#    0.286    2.286    0.000    4.286    0.000    3.429 
#    1.714    0.000    0.000    0.571    0.000    1.000 
#    0.000    0.000    0.000    0.000    0.000    0.000 
#
# Total GULP energy -468383.567012 kJ/mol
# GULP energy per Si atom -5575.994845 kJ/mol
# Density = 1.995944 g / cm^3
# Si number density = 20.004972 Si / 1000 Ang^3
#
#
#
# Elastic Constant Matrix: (Units=GPa)
#
#
# Indices 1 2 3 4 5 6 
#
# 1 50.6231 10.7077 33.4791 0.0000 0.0000 0.0000
# 2 10.7077 50.6231 33.4791 0.0000 0.0000 0.0000
# 3 33.4791 33.4791 144.0563 0.0000 0.0000 0.0000
# 4 0.0000 0.0000 0.0000 13.7494 0.0000 0.0000
# 5 0.0000 0.0000 0.0000 0.0000 13.7494 0.0000
# 6 0.0000 0.0000 0.0000 0.0000 0.0000 19.9577
#
#
#
# Elastic Compliance Matrix: (Units=1/GPa)
#
#
# Indices 1 2 3 4 5 6 
#
# 1 0.023451 -0.001602 -0.005078 0.000000 0.000000 0.000000
# 2 -0.001602 0.023451 -0.005078 0.000000 0.000000 0.000000
# 3 -0.005078 -0.005078 0.009302 0.000000 0.000000 0.000000
# 4 0.000000 0.000000 0.000000 0.072730 0.000000 0.000000
# 5 0.000000 0.000000 0.000000 0.000000 0.072730 0.000000
# 6 0.000000 0.000000 0.000000 0.000000 0.000000 0.050106
#
#
# Mechanical properties :
#
#
# Convention : Reuss Voigt Hill
#
# Bulk Modulus (GPa) = 30.59190 44.51493 37.55341
# Shear Modulus (GPa) = 17.47142 20.66706 19.06924
#
# Velocity S-wave (km/s) = 2.95846 3.21767 3.09078
# Velocity P-wave (km/s) = 5.19570 6.00872 5.61694
#
# Compressibility (1/GPa) = 0.03268840
#
# Stress axis : x y z
#
# Youngs Moduli (GPa) = 42.64244 42.64244 107.50518
#
# Poissons Ratio (x) = 0.06832 0.54588
# Poissons Ratio (y) = 0.06832 0.54588
# Poissons Ratio (z) = 0.21653 0.21653
#
# Static dielectric constant tensor:
#      x y z
#    x 1.721390 0.000000 0.000000 
#    y 0.000000 1.721390 0.000000 
#    z 0.000000 0.000000 1.733780 
# 
# From -- ./inp_files/2096.got.cif
#   From: 2010.05.17/outbox.cif.g08.bks.cpg/sg185_cif.got.tgz:2096.got - 2010.05.20 12:05:34.
