data_PCOD9585974
_publ_section_title
;
Structure prediction by ZEFSAII (Michael W. Deem and Ramdas Pophale) SiO2 
 PCOD9585974
Probable space group: P -6 C 2
;
_chemical_formula_sum "Si O2"
_cell_formula_units_Z 72
_cell_length_a 15.428370
_cell_length_b 15.428370
_cell_length_c 17.869747
_cell_angle_alpha 90.000000
_cell_angle_beta 90.000000
_cell_angle_gamma 120.000000
_cell_volume 3683.741328
_symmetry_space_group_name_H-M "P -6 C 2"
_symmetry_group_IT_number 188
_symmetry_cell_setting 'hexagonal'
loop_
_space_group_symop_operation_xyz
x,y,z
-x+y,-x,1/2-z
-y,x-y,z
x,y,1/2-z
-x+y,-x,z
-y,x-y,1/2-z
-y,-x,-z
-x+y,y,-z
x,x-y,-z
-x+y,y,1/2+z
x,x-y,1/2+z
-y,-x,1/2+z
loop_
_atom_site_type_symbol
_atom_site_label
_atom_site_fract_x
_atom_site_fract_y
_atom_site_fract_z
Si Si1 0.341410 0.076453 0.662787
Si Si2 0.150619 0.642449 0.665131
Si Si3 0.496880 0.795185 0.427710
Si Si4 0.406941 0.265847 0.930685
Si Si5 0.527491 0.078249 0.335178
Si Si6 0.049249 0.749293 0.022425
O O1 0.312725 0.055009 0.750000
O O2 0.370197 0.187562 0.637714
O O3 0.443431 0.070336 0.652704
O O4 0.259030 0.004036 0.602313
O O5 0.184834 0.661384 0.750000
O O6 0.194779 0.581138 0.623093
O O7 0.197842 0.747189 0.622388
O O8 0.032542 0.570108 0.663798
O O9 0.455036 0.727518 0.500000
O O10 0.581272 0.898386 0.461745
O O11 0.500323 0.367332 0.899357
O O12 0.434910 0.217455 0.000000
O O13 0.313010 0.275301 0.962045
O O14 0.535831 0.118654 0.250000
O O15 0.139307 0.860694 0.000000
#
# Coordination Sequence:
#
# PCOD9585974 Si02
#       6
#    12  12  12  12  12  12
#     4  10  21  40  65  90 124 163 205 253 309 372
#     4  11  22  35  54  81 119 163 204 246 288 343
#     4  11  21  34  51  78 116 161 202 241 284 341
#     4  10  22  39  61  90 119 156 205 258 316 369
#     4  10  20  37  60  87 122 162 202 249 303 359
#     4  10  21  38  60  88 119 156 201 252 305 364
#
# _framework density 19.545345999999999
#
# number of rings (size 3 to 8) (size 9 to 14) (size 15 to 20)
#    0.000    1.667    1.667    3.833    0.000    3.333 
#    1.000    1.667    0.000    9.000    0.000    0.000 
#    0.000    0.000    0.000    0.000    0.000    0.000 
#
# Total GULP energy -401452.187144 kJ/mol
# GULP energy per Si atom -5575.724821 kJ/mol
# Density = 1.950086 g / cm^3
# Si number density = 19.545346 Si / 1000 Ang^3
#
#
#
# Elastic Constant Matrix: (Units=GPa)
#
#
# Indices 1 2 3 4 5 6 
#
# 1 57.8041 13.3628 40.4736 0.0000 0.0000 0.0000
# 2 13.3628 57.8041 40.4736 0.0000 0.0000 0.0000
# 3 40.4736 40.4736 136.0736 0.0000 0.0000 0.0000
# 4 0.0000 0.0000 0.0000 31.5583 0.0000 0.0000
# 5 0.0000 0.0000 0.0000 0.0000 31.5583 0.0000
# 6 0.0000 0.0000 0.0000 0.0000 0.0000 22.2207
#
#
#
# Elastic Compliance Matrix: (Units=1/GPa)
#
#
# Indices 1 2 3 4 5 6 
#
# 1 0.021869 -0.000633 -0.006316 0.000000 0.000000 0.000000
# 2 -0.000633 0.021869 -0.006316 0.000000 0.000000 0.000000
# 3 -0.006316 -0.006316 0.011106 0.000000 0.000000 0.000000
# 4 0.000000 0.000000 0.000000 0.031687 0.000000 0.000000
# 5 0.000000 0.000000 0.000000 0.000000 0.031687 0.000000
# 6 0.000000 0.000000 0.000000 0.000000 0.000000 0.045003
#
#
# Mechanical properties :
#
#
# Convention : Reuss Voigt Hill
#
# Bulk Modulus (GPa) = 35.31983 48.92243 42.12113
# Shear Modulus (GPa) = 25.10161 27.55894 26.33028
#
# Velocity S-wave (km/s) = 3.58757 3.75907 3.67432
# Velocity P-wave (km/s) = 5.93892 6.62762 6.29270
#
# Compressibility (1/GPa) = 0.02831271
#
# Stress axis : x y z
#
# Youngs Moduli (GPa) = 45.72740 45.72740 90.03786
#
# Poissons Ratio (x) = 0.02894 0.56871
# Poissons Ratio (y) = 0.02894 0.56871
# Poissons Ratio (z) = 0.28883 0.28883
#
# Static dielectric constant tensor:
#      x y z
#    x 1.718260 0.000000 0.000000 
#    y 0.000000 1.718260 0.000000 
#    z 0.000000 0.000000 1.722620 
# 
# From -- ./inp_files/3190.got.cif
#   From: 2010.05.17/outbox.cif.g08.bks.cpg/sg188_2_cif.got.tgz:3190.got - 2010.05.20 12:11:46.
