data_PCOD9585342
_publ_section_title
;
Structure prediction by ZEFSAII (Michael W. Deem and Ramdas Pophale) SiO2 
 PCOD9585342
Probable space group: P 63 M C
;
_chemical_formula_sum "Si O2"
_cell_formula_units_Z 96
_cell_length_a 22.638522
_cell_length_b 22.638522
_cell_length_c 12.862669
_cell_angle_alpha 90.000000
_cell_angle_beta 90.000000
_cell_angle_gamma 120.000000
_cell_volume 5708.971369
_symmetry_space_group_name_H-M "P 63 M C"
_symmetry_group_IT_number 186
_symmetry_cell_setting 'hexagonal'
loop_
_space_group_symop_operation_xyz
x,y,z
x-y,x,1/2+z
-y,x-y,z
-x,-y,1/2+z
-x+y,-x,z
y,-x+y,1/2+z
-x+y,y,z
x,x-y,z
-y,-x,z
y,x,1/2+z
x-y,-y,1/2+z
-x,-x+y,1/2+z
loop_
_atom_site_type_symbol
_atom_site_label
_atom_site_fract_x
_atom_site_fract_y
_atom_site_fract_z
Si Si1 0.660578 0.046471 0.069700
Si Si2 0.861162 0.860249 0.951279
Si Si3 0.474941 0.090274 0.635085
Si Si4 0.196015 0.261354 0.588129
Si Si5 0.336343 0.919790 0.806329
Si Si6 0.666825 0.193527 0.450584
Si Si7 0.277117 0.071652 0.334563
Si Si8 0.062649 0.600508 0.365297
O O1 0.728336 0.041914 0.049698
O O2 0.670521 0.084685 0.180754
O O3 0.594320 0.972731 0.090753
O O4 0.645208 0.078498 0.968988
O O5 0.870077 0.935039 0.955928
O O6 0.796322 0.813196 0.878664
O O7 0.931961 0.863922 0.921409
O O8 0.835166 0.817382 0.057814
O O9 0.536245 0.072490 0.630712
O O10 0.497132 0.153953 0.559687
O O11 0.465459 0.100660 0.757037
O O12 0.140642 0.281283 0.547446
O O13 0.198962 0.268519 0.711149
O O14 0.327593 0.852766 0.860594
O O15 0.279023 0.936027 0.851124
O O16 0.409448 0.983498 0.836790
O O17 0.599056 0.198111 0.434110
O O18 0.733248 0.266753 0.452777
O O19 0.291383 0.145692 0.373235
O O20 0.071964 0.535982 0.386277
#
# Coordination Sequence:
#
# PCOD9585342 Si02
#       8
#    12  12  12  12  12  12  12  12
#     4  10  18  31  54  78 106 141 173 213 272 326
#     4  10  20  33  50  71  97 130 171 216 262 312
#     4   9  19  33  50  77 109 140 178 222 264 314
#     4   9  19  34  49  69  98 130 165 206 256 314
#     4  10  19  31  52  80 108 137 177 221 275 325
#     4  11  22  37  55  78 110 147 187 228 271 321
#     4   9  18  33  51  70  95 129 168 211 259 311
#     4  10  18  30  50  77 108 138 171 215 265 319
#
# _framework density 16.815639000000001
#
# number of rings (size 3 to 8) (size 9 to 14) (size 15 to 20)
#    0.000    2.250    1.250    2.125    0.000    2.500 
#    0.000    0.625    0.000    6.000    0.000    0.000 
#    0.000    2.000    0.000    0.000    0.000    0.250 
#
# Total GULP energy -534826.828629 kJ/mol
# GULP energy per Si atom -5571.112798 kJ/mol
# Density = 1.677737 g / cm^3
# Si number density = 16.815639 Si / 1000 Ang^3
#
#
#
# Elastic Constant Matrix: (Units=GPa)
#
#
# Indices 1 2 3 4 5 6 
#
# 1 97.3577 49.5588 43.5594 0.0000 0.0000 0.0000
# 2 49.5588 97.3577 43.5594 0.0000 0.0000 0.0000
# 3 43.5594 43.5594 86.0347 0.0000 0.0000 0.0000
# 4 0.0000 0.0000 0.0000 18.8945 0.0000 0.0000
# 5 0.0000 0.0000 0.0000 0.0000 18.8945 0.0000
# 6 0.0000 0.0000 0.0000 0.0000 0.0000 23.8994
#
#
#
# Elastic Compliance Matrix: (Units=1/GPa)
#
#
# Indices 1 2 3 4 5 6 
#
# 1 0.015324 -0.005597 -0.004925 0.000000 0.000000 0.000000
# 2 -0.005597 0.015324 -0.004925 0.000000 0.000000 0.000000
# 3 -0.004925 -0.004925 0.016610 0.000000 0.000000 0.000000
# 4 0.000000 0.000000 0.000000 0.052925 0.000000 0.000000
# 5 0.000000 0.000000 0.000000 0.000000 0.052925 0.000000
# 6 0.000000 0.000000 0.000000 0.000000 0.000000 0.041842
#
#
# Mechanical properties :
#
#
# Convention : Reuss Voigt Hill
#
# Bulk Modulus (GPa) = 61.10657 61.56724 61.33691
# Shear Modulus (GPa) = 21.61710 21.94254 21.77982
#
# Velocity S-wave (km/s) = 3.58933 3.61624 3.60281
# Velocity P-wave (km/s) = 7.32091 7.35723 7.33909
#
# Compressibility (1/GPa) = 0.01636485
#
# Stress axis : x y z
#
# Youngs Moduli (GPa) = 65.25748 65.25748 60.20483
#
# Poissons Ratio (x) = 0.36525 0.29649
# Poissons Ratio (y) = 0.36525 0.29649
# Poissons Ratio (z) = 0.32137 0.32137
#
# Static dielectric constant tensor:
#      x y z
#    x 1.564590 0.000000 0.000000 
#    y 0.000000 1.564590 0.000000 
#    z 0.000000 0.000000 1.598190 
# 
# From -- ./inp_files/2074.got.cif
#   From: 2010.05.17/outbox.cif.g08.bks.cpg/sg186_2_cif.got.tgz:2074.got - 2010.05.20 12:07:08.
