data_PCOD9585993
_publ_section_title
;
Structure prediction by ZEFSAII (Michael W. Deem and Ramdas Pophale) SiO2 
 PCOD9585993
Probable space group: P -6 C 2
;
_chemical_formula_sum "Si O2"
_cell_formula_units_Z 66
_cell_length_a 20.376457
_cell_length_b 20.376457
_cell_length_c 9.210472
_cell_angle_alpha 90.000000
_cell_angle_beta 90.000000
_cell_angle_gamma 120.000000
_cell_volume 3311.843934
_symmetry_space_group_name_H-M "P -6 C 2"
_symmetry_group_IT_number 188
_symmetry_cell_setting 'hexagonal'
loop_
_space_group_symop_operation_xyz
x,y,z
-x+y,-x,1/2-z
-y,x-y,z
x,y,1/2-z
-x+y,-x,z
-y,x-y,1/2-z
-y,-x,-z
-x+y,y,-z
x,x-y,-z
-x+y,y,1/2+z
x,x-y,1/2+z
-y,-x,1/2+z
loop_
_atom_site_type_symbol
_atom_site_label
_atom_site_fract_x
_atom_site_fract_y
_atom_site_fract_z
Si Si1 0.254750 0.127375 0.000000
Si Si2 0.923297 0.629471 0.091688
Si Si3 0.041993 0.203331 0.413337
Si Si4 0.069708 0.366675 0.423976
Si Si5 0.476030 0.809569 0.071757
Si Si6 0.795231 0.457795 0.083708
O O1 0.310332 0.105793 0.915488
O O2 0.202025 0.153376 0.918742
O O3 0.959814 0.637000 0.250000
O O4 0.851015 0.547159 0.079798
O O5 0.983485 0.642358 0.967558
O O6 0.068444 0.212110 0.250000
O O7 0.084175 0.168350 0.500000
O O8 0.069263 0.289091 0.466393
O O9 0.082470 0.379053 0.250000
O O10 0.128153 0.440154 0.514243
O O11 0.472251 0.806554 0.250000
O O12 0.413332 0.826663 0.000000
O O13 0.460937 0.730469 0.000000
O O14 0.779715 0.432997 0.250000
O O15 0.719338 0.438676 0.000000
O O16 0.832487 0.416244 0.000000
#
# Coordination Sequence:
#
# PCOD9585993 Si02
#       6
#     6  12  12  12  12  12
#     4  10  20  40  64  90 120 160 216 262 312 380
#     4  10  21  38  63  91 120 160 210 263 320 376
#     4  10  22  38  61  91 123 161 203 254 310 370
#     4  10  22  40  63  92 125 162 206 256 311 370
#     4  12  25  43  66  93 127 166 210 256 310 371
#     4  11  23  39  59  85 118 160 205 255 313 374
#
# _framework density 19.928476
#
# number of rings (size 3 to 8) (size 9 to 14) (size 15 to 20)
#    0.000    1.455    0.909    4.182    0.000    8.727 
#    0.545    1.818    0.000    0.000    0.000    0.000 
#    0.000    0.000    0.000    0.000    0.000    0.000 
#
# Total GULP energy -368125.182974 kJ/mol
# GULP energy per Si atom -5577.654287 kJ/mol
# Density = 1.988312 g / cm^3
# Si number density = 19.928476 Si / 1000 Ang^3
#
#
#
# Elastic Constant Matrix: (Units=GPa)
#
#
# Indices 1 2 3 4 5 6 
#
# 1 78.6629 38.2853 40.9773 0.0008 0.0000 0.0000
# 2 38.2853 78.6629 40.9773 -0.0008 0.0000 0.0000
# 3 40.9773 40.9773 122.4330 0.0000 0.0000 0.0000
# 4 0.0008 -0.0008 0.0000 23.9093 0.0000 0.0000
# 5 0.0000 0.0000 0.0000 0.0000 23.9093 0.0008
# 6 0.0000 0.0000 0.0000 0.0000 0.0008 20.1888
#
#
#
# Elastic Compliance Matrix: (Units=1/GPa)
#
#
# Indices 1 2 3 4 5 6 
#
# 1 0.017969 -0.006798 -0.003739 -0.000001 0.000000 0.000000
# 2 -0.006798 0.017969 -0.003739 0.000001 0.000000 0.000000
# 3 -0.003739 -0.003739 0.010670 0.000000 0.000000 0.000000
# 4 -0.000001 0.000001 0.000000 0.041825 0.000000 0.000000
# 5 0.000000 0.000000 0.000000 0.000000 0.041825 -0.000002
# 6 0.000000 0.000000 0.000000 0.000000 -0.000002 0.049532
#
#
# Mechanical properties :
#
#
# Convention : Reuss Voigt Hill
#
# Bulk Modulus (GPa) = 55.38032 57.80429 56.59230
# Shear Modulus (GPa) = 23.32536 24.23607 23.78071
#
# Velocity S-wave (km/s) = 3.42490 3.49112 3.45817
# Velocity P-wave (km/s) = 6.59468 6.73197 6.66368
#
# Compressibility (1/GPa) = 0.01805696
#
# Stress axis : x y z
#
# Youngs Moduli (GPa) = 55.65282 55.65282 93.71708
#
# Poissons Ratio (x) = 0.37831 0.35039
# Poissons Ratio (y) = 0.37831 0.35039
# Poissons Ratio (z) = 0.20807 0.20807
#
# Static dielectric constant tensor:
#      x y z
#    x 1.709650 0.000000 0.000000 
#    y 0.000000 1.709650 0.000000 
#    z 0.000000 0.000000 1.687530 
# 
# From -- ./inp_files/773.got.cif
#   From: 2010.05.17/outbox.cif.g08.bks.cpg/sg188_1_cif.got.tgz:773.got - 2010.05.20 12:11:46.
