data_PCOD9585285
_publ_section_title
;
Structure prediction by ZEFSAII (Michael W. Deem and Ramdas Pophale) SiO2 
 PCOD9585285
Probable space group: P 63 C M
;
_chemical_formula_sum "Si O2"
_cell_formula_units_Z 84
_cell_length_a 14.279746
_cell_length_b 14.279746
_cell_length_c 24.866062
_cell_angle_alpha 90.000000
_cell_angle_beta 90.000000
_cell_angle_gamma 120.000000
_cell_volume 4391.153400
_symmetry_space_group_name_H-M "P 63 C M"
_symmetry_group_IT_number 185
_symmetry_cell_setting 'hexagonal'
loop_
_space_group_symop_operation_xyz
x,y,z
x-y,x,1/2+z
-y,x-y,z
-x,-y,1/2+z
-x+y,-x,z
y,-x+y,1/2+z
-x+y,y,1/2+z
x,x-y,1/2+z
-y,-x,1/2+z
y,x,z
x-y,-y,z
-x,-x+y,z
loop_
_atom_site_type_symbol
_atom_site_label
_atom_site_fract_x
_atom_site_fract_y
_atom_site_fract_z
Si Si1 0.874091 0.127012 0.690020
Si Si2 0.334743 0.463259 0.209573
Si Si3 0.562182 0.362619 0.324942
Si Si4 0.885228 0.491379 0.440640
Si Si5 0.123059 0.790716 0.574970
Si Si6 0.292689 0.479321 0.002866
Si Si7 0.129022 0.573715 0.602988
O O1 0.832019 0.207016 0.711011
O O2 0.864937 0.136383 0.625651
O O3 0.000000 0.175275 0.705230
O O4 0.800535 0.000000 0.704136
O O5 0.390658 0.390658 0.201820
O O6 0.370624 0.521263 0.266693
O O7 0.379966 0.546734 0.159450
O O8 0.555565 0.246340 0.328907
O O9 0.506751 0.377666 0.377040
O O10 0.882174 0.382074 0.458971
O O11 0.786269 0.488894 0.471935
O O12 0.000000 0.589589 0.458249
O O13 0.212536 0.848531 0.529383
O O14 0.138127 0.690465 0.596657
O O15 0.000000 0.737218 0.555805
O O16 0.362464 0.549703 0.054130
O O17 0.000000 0.489548 0.597198
#
# Coordination Sequence:
#
# PCOD9585285 Si02
#       7
#    12  12  12  12  12  12  12
#     4  10  21  38  59  85 119 160 207 255 305 360
#     4  10  21  37  57  84 118 155 194 246 303 362
#     4  10  22  40  59  83 115 149 205 245 299 364
#     4  12  24  40  60  83 116 164 210 255 301 357
#     4  10  21  33  52  83 120 158 199 244 298 362
#     4  12  20  34  55  83 119 150 200 241 291 360
#     4  10  21  34  52  85 120 156 192 234 303 373
#
# _framework density 19.129370999999999
#
# number of rings (size 3 to 8) (size 9 to 14) (size 15 to 20)
#    0.286    1.143    4.286    1.714    2.000    0.571 
#    0.000    0.714    0.000    0.000    0.000    0.000 
#    0.000    0.000    0.000    0.000    0.000    0.000 
#
# Total GULP energy -468242.201309 kJ/mol
# GULP energy per Si atom -5574.311920 kJ/mol
# Density = 1.908583 g / cm^3
# Si number density = 19.129371 Si / 1000 Ang^3
#
#
#
# Elastic Constant Matrix: (Units=GPa)
#
#
# Indices 1 2 3 4 5 6 
#
# 1 57.9116 22.2671 21.3967 0.0000 0.0000 0.0000
# 2 22.2671 57.9116 21.3967 0.0000 0.0000 0.0000
# 3 21.3967 21.3967 116.1503 0.0000 0.0000 0.0000
# 4 0.0000 0.0000 0.0000 -3.8364 0.0000 0.0000
# 5 0.0000 0.0000 0.0000 0.0000 -3.8364 0.0000
# 6 0.0000 0.0000 0.0000 0.0000 0.0000 17.8222
#
#
#
# Elastic Compliance Matrix: (Units=1/GPa)
#
#
# Indices 1 2 3 4 5 6 
#
# 1 0.020943 -0.007111 -0.002548 0.000000 0.000000 0.000000
# 2 -0.007111 0.020943 -0.002548 0.000000 0.000000 0.000000
# 3 -0.002548 -0.002548 0.009548 0.000000 0.000000 0.000000
# 4 0.000000 0.000000 0.000000 -0.260658 0.000000 0.000000
# 5 0.000000 0.000000 0.000000 0.000000 -0.260658 0.000000
# 6 0.000000 0.000000 0.000000 0.000000 0.000000 0.056110
#
#
# Mechanical properties :
#
#
# Convention : Reuss Voigt Hill
#
# Bulk Modulus (GPa) = 37.00935 40.23271 38.62103
# Shear Modulus (GPa) = -13.14580 13.15740 0.00580
#
# Velocity S-wave (km/s) = -2.62430 2.62546 0.05514
# Velocity P-wave (km/s) = 3.19472 5.50166 4.49859
#
# Compressibility (1/GPa) = 0.02702020
#
# Stress axis : x y z
#
# Youngs Moduli (GPa) = 47.74757 47.74757 104.73034
#
# Poissons Ratio (x) = 0.33955 0.26686
# Poissons Ratio (y) = 0.33955 0.26686
# Poissons Ratio (z) = 0.12166 0.12166
#
# Static dielectric constant tensor:
#      x y z
#    x 1.742620 0.000000 0.000000 
#    y 0.000000 1.742620 0.000000 
#    z 0.000000 0.000000 1.667260 
# 
# From -- ./inp_files/2084.got.cif
#   From: 2010.05.17/outbox.cif.g08.bks.cpg/sg185_cif.got.tgz:2084.got - 2010.05.20 12:05:34.
