data_PCOD9585529
_publ_section_title
;
Structure prediction by ZEFSAII (Michael W. Deem and Ramdas Pophale) SiO2 
 PCOD9585529
Probable space group: P -6 M 2
;
_chemical_formula_sum "Si O2"
_cell_formula_units_Z 90
_cell_length_a 18.265994
_cell_length_b 18.265994
_cell_length_c 17.687763
_cell_angle_alpha 90.000000
_cell_angle_beta 90.000000
_cell_angle_gamma 120.000000
_cell_volume 5110.815032
_symmetry_space_group_name_H-M "P -6 M 2"
_symmetry_group_IT_number 187
_symmetry_cell_setting 'hexagonal'
loop_
_space_group_symop_operation_xyz
x,y,z
-x+y,-x,-z
-y,x-y,z
x,y,-z
-x+y,-x,z
-y,x-y,-z
-y,-x,-z
-x+y,y,-z
x,x-y,-z
-x+y,y,z
x,x-y,z
-y,-x,z
loop_
_atom_site_type_symbol
_atom_site_label
_atom_site_fract_x
_atom_site_fract_y
_atom_site_fract_z
Si Si1 0.334591 0.501697 0.841365
Si Si2 0.035563 0.800678 0.330897
Si Si3 0.843943 0.332677 0.287403
Si Si4 0.758835 0.682271 0.203687
Si Si5 0.298020 0.863824 0.672712
Si Si6 0.680544 0.924088 0.911430
Si Si7 0.598936 0.574070 0.582890
Si Si8 0.000311 0.174021 0.500000
O O1 0.266108 0.532215 0.846616
O O2 0.425939 0.574062 0.864374
O O3 0.334660 0.477309 0.753209
O O4 0.299264 0.418314 0.891324
O O5 0.098610 0.901391 0.316791
O O6 0.091850 0.757667 0.313904
O O7 0.957353 0.746011 0.275977
O O8 0.011779 0.790117 0.419942
O O9 0.843460 0.421730 0.277193
O O10 0.748610 0.251390 0.290522
O O11 0.896837 0.310967 0.226388
O O12 0.898477 0.340341 0.362404
O O13 0.838957 0.677914 0.175322
O O14 0.726564 0.722197 0.141641
O O15 0.231437 0.768564 0.645042
O O16 0.368373 0.931266 0.617339
O O17 0.705459 0.852730 0.892505
O O18 0.694927 0.943203 0.000000
O O19 0.635908 0.605659 0.500000
O O20 0.518012 0.481989 0.576505
O O21 0.910388 0.089613 0.500000
O O22 0.076561 0.153122 0.500000
#
# Coordination Sequence:
#
# PCOD9585529 Si02
#       8
#    12  12  12  12  12  12  12   6
#     4  10  19  33  54  81 111 144 180 217 257 310
#     4  10  19  33  51  76 107 140 179 221 268 324
#     4  10  21  37  56  78 105 140 180 227 282 339
#     4  11  21  35  57  83 108 139 184 230 272 317
#     4  10  19  31  51  74 102 140 177 216 265 319
#     4  10  21  38  59  83 114 149 179 213 264 321
#     4  10  20  33  49  72 103 137 179 231 278 321
#     4  10  21  34  50  72 103 140 178 224 278 332
#
# _framework density 17.609715999999999
#
# number of rings (size 3 to 8) (size 9 to 14) (size 15 to 20)
#    0.000    1.867    2.667    1.533    0.933    2.667 
#    0.000    0.000    0.000    4.800    0.000    0.000 
#    0.000    1.067    0.000    0.000    0.000    0.000 
#
# Total GULP energy -501250.581843 kJ/mol
# GULP energy per Si atom -5569.450909 kJ/mol
# Density = 1.756964 g / cm^3
# Si number density = 17.609716 Si / 1000 Ang^3
#
#
#
# Elastic Constant Matrix: (Units=GPa)
#
#
# Indices 1 2 3 4 5 6 
#
# 1 78.9036 36.3028 44.1978 0.0000 -0.0017 0.0000
# 2 36.3028 78.9036 44.1978 0.0000 0.0017 0.0000
# 3 44.1978 44.1978 76.9710 0.0000 0.0000 0.0000
# 4 0.0000 0.0000 0.0000 26.9669 0.0000 0.0017
# 5 -0.0017 0.0017 0.0000 0.0000 26.9669 0.0000
# 6 0.0000 0.0000 0.0000 0.0017 0.0000 21.3004
#
#
#
# Elastic Compliance Matrix: (Units=1/GPa)
#
#
# Indices 1 2 3 4 5 6 
#
# 1 0.019495 -0.003979 -0.008910 0.000000 0.000001 0.000000
# 2 -0.003979 0.019495 -0.008910 0.000000 -0.000001 0.000000
# 3 -0.008910 -0.008910 0.023224 0.000000 0.000000 0.000000
# 4 0.000000 0.000000 0.000000 0.037082 0.000000 -0.000003
# 5 0.000001 -0.000001 0.000000 0.000000 0.037082 0.000000
# 6 0.000000 0.000000 0.000000 -0.000003 0.000000 0.046947
#
#
# Mechanical properties :
#
#
# Convention : Reuss Voigt Hill
#
# Bulk Modulus (GPa) = 53.71169 53.79722 53.75446
# Shear Modulus (GPa) = 21.44740 22.38550 21.91645
#
# Velocity S-wave (km/s) = 3.49367 3.56926 3.53167
# Velocity P-wave (km/s) = 6.84410 6.89944 6.87182
#
# Compressibility (1/GPa) = 0.01861792
#
# Stress axis : x y z
#
# Youngs Moduli (GPa) = 51.29521 51.29521 43.05895
#
# Poissons Ratio (x) = 0.20409 0.38364
# Poissons Ratio (y) = 0.20409 0.38364
# Poissons Ratio (z) = 0.45702 0.45702
#
# Static dielectric constant tensor:
#      x y z
#    x 1.624300 0.000000 0.000000 
#    y 0.000000 1.624300 0.000000 
#    z 0.000000 0.000000 1.621900 
# 
# From -- ./inp_files/3253.got.cif
#   From: 2010.05.17/outbox.cif.g08.bks.cpg/sg187_2_cif.got.tgz:3253.got - 2010.05.20 12:09:04.
