data_PCOD9585785
_publ_section_title
;
Structure prediction by ZEFSAII (Michael W. Deem and Ramdas Pophale) SiO2 
 PCOD9585785
Probable space group: P -6 M 2
;
_chemical_formula_sum "Si O2"
_cell_formula_units_Z 84
_cell_length_a 18.218550
_cell_length_b 18.218550
_cell_length_c 15.630893
_cell_angle_alpha 90.000000
_cell_angle_beta 90.000000
_cell_angle_gamma 120.000000
_cell_volume 4493.058152
_symmetry_space_group_name_H-M "P -6 M 2"
_symmetry_group_IT_number 187
_symmetry_cell_setting 'hexagonal'
loop_
_space_group_symop_operation_xyz
x,y,z
-x+y,-x,-z
-y,x-y,z
x,y,-z
-x+y,-x,z
-y,x-y,-z
-y,-x,-z
-x+y,y,-z
x,x-y,-z
-x+y,y,z
x,x-y,z
-y,-x,z
loop_
_atom_site_type_symbol
_atom_site_label
_atom_site_fract_x
_atom_site_fract_y
_atom_site_fract_z
Si Si1 0.833958 0.330224 0.196041
Si Si2 0.174785 0.999556 0.900453
Si Si3 0.052321 0.436194 0.000000
Si Si4 0.695171 0.760723 0.403887
Si Si5 0.757613 0.692362 0.751048
Si Si6 0.160587 0.495332 0.357714
Si Si7 0.504800 0.666259 0.159740
Si Si8 0.653557 0.521211 0.000000
O O1 0.849089 0.424544 0.209667
O O2 0.741974 0.258027 0.229497
O O3 0.905381 0.311791 0.233405
O O4 0.832063 0.314273 0.093774
O O5 0.157565 0.078783 0.892630
O O6 0.248977 0.018412 0.833359
O O7 0.197930 0.997795 0.000000
O O8 0.089153 0.910848 0.882257
O O9 0.097930 0.437919 0.912881
O O10 0.048734 0.524367 0.000000
O O11 0.959651 0.358216 0.000000
O O12 0.727501 0.762456 0.500000
O O13 0.707702 0.853851 0.384513
O O14 0.735665 0.730362 0.331227
O O15 0.593424 0.697772 0.404000
O O16 0.847164 0.694327 0.740659
O O17 0.258705 0.517409 0.363310
O O18 0.153179 0.576590 0.384188
O O19 0.133539 0.475825 0.257846
O O20 0.508065 0.754033 0.150641
O O21 0.409858 0.590143 0.143866
O O22 0.563275 0.436726 0.000000
#
# Coordination Sequence:
#
# PCOD9585785 Si02
#       8
#    12  12   6  12  12  12  12   6
#     4  10  21  37  58  82 110 146 190 240 293 348
#     4   9  17  31  54  84 119 155 189 222 262 321
#     4   9  17  26  38  62  94 133 176 219 266 312
#     4  10  22  40  60  82 111 148 189 231 276 330
#     4  10  22  37  58  87 115 147 184 230 287 340
#     4   9  18  32  52  77 106 141 183 230 275 318
#     4   9  16  26  41  62  93 135 183 229 270 313
#     4   9  19  32  48  70 100 139 183 231 279 328
#
# _framework density 18.695506999999999
#
# number of rings (size 3 to 8) (size 9 to 14) (size 15 to 20)
#    0.000    2.571    0.000    1.429    3.000    2.857 
#    0.000    1.429    0.000    1.143    0.000    0.000 
#    0.000    1.143    0.000    0.000    0.000    0.714 
#
# Total GULP energy -468405.009451 kJ/mol
# GULP energy per Si atom -5576.250113 kJ/mol
# Density = 1.865296 g / cm^3
# Si number density = 18.695507 Si / 1000 Ang^3
#
#
#
# Elastic Constant Matrix: (Units=GPa)
#
#
# Indices 1 2 3 4 5 6 
#
# 1 86.2180 58.9996 61.7159 0.0000 -0.0009 0.0000
# 2 58.9996 86.2180 61.7159 0.0000 0.0009 0.0000
# 3 61.7159 61.7159 97.3201 0.0000 0.0000 0.0000
# 4 0.0000 0.0000 0.0000 7.6577 0.0000 0.0009
# 5 -0.0009 0.0009 0.0000 0.0000 7.6577 0.0000
# 6 0.0000 0.0000 0.0000 0.0009 0.0000 13.6092
#
#
#
# Elastic Compliance Matrix: (Units=1/GPa)
#
#
# Indices 1 2 3 4 5 6 
#
# 1 0.025839 -0.010901 -0.009473 0.000000 0.000005 0.000000
# 2 -0.010901 0.025839 -0.009473 0.000000 -0.000005 0.000000
# 3 -0.009473 -0.009473 0.022290 0.000000 0.000000 0.000000
# 4 0.000000 0.000000 0.000000 0.130588 0.000000 -0.000009
# 5 0.000005 -0.000005 0.000000 0.000000 0.130588 0.000000
# 6 0.000000 0.000000 0.000000 -0.000009 0.000000 0.073480
#
#
# Mechanical properties :
#
#
# Convention : Reuss Voigt Hill
#
# Bulk Modulus (GPa) = 70.05691 70.51321 70.28506
# Shear Modulus (GPa) = 10.56914 11.60655 11.08784
#
# Velocity S-wave (km/s) = 2.38025 2.49433 2.43796
# Velocity P-wave (km/s) = 6.71625 6.78926 6.75286
#
# Compressibility (1/GPa) = 0.01427411
#
# Stress axis : x y z
#
# Youngs Moduli (GPa) = 38.70117 38.70117 44.86289
#
# Poissons Ratio (x) = 0.42188 0.42499
# Poissons Ratio (y) = 0.42188 0.42499
# Poissons Ratio (z) = 0.36662 0.36662
#
# Static dielectric constant tensor:
#      x y z
#    x 1.651650 0.000000 0.000000 
#    y 0.000000 1.651650 0.000000 
#    z 0.000000 0.000000 1.661660 
# 
# From -- ./inp_files/2659.got.cif
#   From: 2010.05.17/outbox.cif.g08.bks.cpg/sg187_2_cif.got.tgz:2659.got - 2010.05.20 12:09:04.
