data_PCOD9585823
_publ_section_title
;
Structure prediction by ZEFSAII (Michael W. Deem and Ramdas Pophale) SiO2 
 PCOD9585823
Probable space group: P -6 M 2
;
_chemical_formula_sum "Si O2"
_cell_formula_units_Z 66
_cell_length_a 18.000000
_cell_length_b 18.000000
_cell_length_c 15.000000
_cell_angle_alpha 90.000000
_cell_angle_beta 90.000000
_cell_angle_gamma 120.000000
_cell_volume 4208.883462
_symmetry_space_group_name_H-M "P -6 M 2"
_symmetry_group_IT_number 187
_symmetry_cell_setting 'hexagonal'
loop_
_space_group_symop_operation_xyz
x,y,z
-x+y,-x,-z
-y,x-y,z
x,y,-z
-x+y,-x,z
-y,x-y,-z
-y,-x,-z
-x+y,y,-z
x,x-y,-z
-x+y,y,z
x,x-y,z
-y,-x,z
loop_
_atom_site_type_symbol
_atom_site_label
_atom_site_fract_x
_atom_site_fract_y
_atom_site_fract_z
Si Si1 0.604014 0.029483 0.840239
Si Si2 0.088815 0.741113 0.500000
Si Si3 0.498331 0.666259 0.367185
Si Si4 0.845208 0.512385 0.682495
Si Si5 0.505665 0.838413 0.847582
Si Si6 0.490677 0.157601 0.000000
Si Si7 0.893359 0.278722 0.500000
O O1 0.508981 0.017962 0.834102
O O2 0.650229 0.077229 0.749343
O O3 0.583255 0.934323 0.867046
O O4 0.654525 0.098900 0.915468
O O5 0.156335 0.843666 0.500000
O O6 0.113527 0.702185 0.584769
O O7 0.987100 0.698502 0.500000
O O8 0.466776 0.733388 0.390673
O O9 0.429093 0.570908 0.395249
O O10 0.504530 0.666777 0.260561
O O11 0.754402 0.508804 0.702909
O O12 0.833257 0.416629 0.687182
O O13 0.875839 0.554461 0.585763
O O14 0.414152 0.828304 0.877238
O O15 0.514444 0.757222 0.877382
O O16 0.588277 0.176554 0.000000
O O17 0.488943 0.244472 0.000000
O O18 0.820436 0.179565 0.500000
#
# Coordination Sequence:
#
# PCOD9585823 Si02
#       7
#    12   6  12  12  12   6   6
#     4   9  18  30  45  65  89 115 147 186 224 256
#     4  10  19  29  41  58  79 109 146 184 225 269
#     4   9  16  24  37  58  86 117 148 178 208 242
#     4  10  19  31  46  65  90 122 155 184 214 256
#     4   9  16  27  42  61  86 119 154 185 215 253
#     4  10  19  32  49  68  88 112 142 180 225 272
#     4  10  21  33  45  62  87 115 144 182 225 261
#
# _framework density 15.681118
#
# number of rings (size 3 to 8) (size 9 to 14) (size 15 to 20)
#    0.000    2.545    0.000    2.818    0.000    4.364 
#    0.000    4.091    0.000    0.182    0.000    1.273 
#    0.000    0.000    0.000    7.636    0.000    2.909 
#
# Total GULP energy -367671.080027 kJ/mol
# GULP energy per Si atom -5570.773940 kJ/mol
# Density = 1.564543 g / cm^3
# Si number density = 15.681118 Si / 1000 Ang^3
#
#
#
# Elastic Constant Matrix: (Units=GPa)
#
#
# Indices 1 2 3 4 5 6 
#
# 1 99.0535 55.1102 20.2100 0.0000 -0.0001 0.0000
# 2 55.1102 99.0535 20.2100 0.0000 0.0001 0.0000
# 3 20.2100 20.2100 44.5882 0.0000 0.0000 0.0000
# 4 0.0000 0.0000 0.0000 17.9856 0.0000 0.0001
# 5 -0.0001 0.0001 0.0000 0.0000 17.9856 0.0000
# 6 0.0000 0.0000 0.0000 0.0001 0.0000 21.9717
#
#
#
# Elastic Compliance Matrix: (Units=1/GPa)
#
#
# Indices 1 2 3 4 5 6 
#
# 1 0.015059 -0.007698 -0.003337 0.000000 0.000000 0.000000
# 2 -0.007698 0.015059 -0.003337 0.000000 0.000000 0.000000
# 3 -0.003337 -0.003337 0.025452 0.000000 0.000000 0.000000
# 4 0.000000 0.000000 0.000000 0.055600 0.000000 0.000000
# 5 0.000000 0.000000 0.000000 0.000000 0.055600 0.000000
# 6 0.000000 0.000000 0.000000 0.000000 0.000000 0.045513
#
#
# Mechanical properties :
#
#
# Convention : Reuss Voigt Hill
#
# Bulk Modulus (GPa) = 37.27377 48.19504 42.73441
# Shear Modulus (GPa) = 20.00256 21.39957 20.70107
#
# Velocity S-wave (km/s) = 3.57540 3.69815 3.63730
# Velocity P-wave (km/s) = 6.39266 7.00259 6.70457
#
# Compressibility (1/GPa) = 0.02682852
#
# Stress axis : x y z
#
# Youngs Moduli (GPa) = 66.40540 66.40540 39.28935
#
# Poissons Ratio (x) = 0.51116 0.13109
# Poissons Ratio (y) = 0.51116 0.13109
# Poissons Ratio (z) = 0.22157 0.22157
#
# Static dielectric constant tensor:
#      x y z
#    x 1.527160 0.000000 0.000000 
#    y 0.000000 1.527160 0.000000 
#    z 0.000000 0.000000 1.593770 
# 
# From -- ./inp_files/2517.got.cif
#   From: 2010.05.17/outbox.ucp.g08.bks.cvg/sg187_2_cif.got.tgz:2517.got - 2010.06.11 15:21:44.
