data_PCOD9585292
_publ_section_title
;
Structure prediction by ZEFSAII (Michael W. Deem and Ramdas Pophale) SiO2 
 PCOD9585292
Probable space group: P 63 C M
;
_chemical_formula_sum "Si O2"
_cell_formula_units_Z 72
_cell_length_a 14.752379
_cell_length_b 14.752379
_cell_length_c 18.826941
_cell_angle_alpha 90.000000
_cell_angle_beta 90.000000
_cell_angle_gamma 120.000000
_cell_volume 3548.415893
_symmetry_space_group_name_H-M "P 63 C M"
_symmetry_group_IT_number 185
_symmetry_cell_setting 'hexagonal'
loop_
_space_group_symop_operation_xyz
x,y,z
x-y,x,1/2+z
-y,x-y,z
-x,-y,1/2+z
-x+y,-x,z
y,-x+y,1/2+z
-x+y,y,1/2+z
x,x-y,1/2+z
-y,-x,1/2+z
y,x,z
x-y,-y,z
-x,-x+y,z
loop_
_atom_site_type_symbol
_atom_site_label
_atom_site_fract_x
_atom_site_fract_y
_atom_site_fract_z
Si Si1 0.408378 0.529381 0.925180
Si Si2 0.244808 0.123004 0.066561
Si Si3 0.318408 0.879146 0.276106
Si Si4 0.622479 0.879534 0.196488
Si Si5 0.121374 0.570322 0.629958
Si Si6 0.270159 0.466675 0.502734
O O1 0.447369 0.447369 0.939154
O O2 0.365744 0.510673 0.845133
O O3 0.314337 0.508495 0.977615
O O4 0.502980 0.644611 0.940719
O O5 0.189269 0.189269 0.044577
O O6 0.296052 0.166831 0.143942
O O7 0.343989 0.144979 0.018577
O O8 0.163771 0.000000 0.068806
O O9 0.197946 0.796653 0.261697
O O10 0.375142 0.872945 0.204921
O O11 0.346616 0.000000 0.282415
O O12 0.519747 0.851816 0.149380
O O13 0.670505 0.000000 0.218251
O O14 0.183669 0.658774 0.571680
O O15 0.000000 0.510807 0.605716
#
# Coordination Sequence:
#
# PCOD9585292 Si02
#       6
#    12  12  12  12  12  12
#     4  11  26  44  64  95 133 175 221 267 326 404
#     4  11  22  39  65  97 131 171 221 278 335 390
#     4  10  22  43  66  91 130 172 221 277 328 390
#     4  10  21  38  65  96 129 169 217 272 336 394
#     4  10  21  39  64  93 125 168 219 268 321 389
#     4  12  23  41  65  94 135 175 214 268 334 389
#
# _framework density 20.290742999999999
#
# number of rings (size 3 to 8) (size 9 to 14) (size 15 to 20)
#    0.000    1.333    1.667    4.000    2.333    1.333 
#    1.000    1.667    0.000    0.333    0.000    0.000 
#    0.000    0.000    0.000    0.000    0.000    0.000 
#
# Total GULP energy -402505.819643 kJ/mol
# GULP energy per Si atom -5590.358606 kJ/mol
# Density = 2.024456 g / cm^3
# Si number density = 20.290743 Si / 1000 Ang^3
#
#
#
# Elastic Constant Matrix: (Units=GPa)
#
#
# Indices 1 2 3 4 5 6 
#
# 1 122.5509 67.4990 61.8306 0.0000 0.0000 0.0000
# 2 67.4990 122.5509 61.8306 0.0000 0.0000 0.0000
# 3 61.8306 61.8306 101.7357 0.0000 0.0000 0.0000
# 4 0.0000 0.0000 0.0000 12.4413 0.0000 0.0000
# 5 0.0000 0.0000 0.0000 0.0000 12.4413 0.0000
# 6 0.0000 0.0000 0.0000 0.0000 0.0000 27.5260
#
#
#
# Elastic Compliance Matrix: (Units=1/GPa)
#
#
# Indices 1 2 3 4 5 6 
#
# 1 0.013434 -0.004730 -0.005290 0.000000 0.000000 0.000000
# 2 -0.004730 0.013434 -0.005290 0.000000 0.000000 0.000000
# 3 -0.005290 -0.005290 0.016259 0.000000 0.000000 0.000000
# 4 0.000000 0.000000 0.000000 0.080378 0.000000 0.000000
# 5 0.000000 0.000000 0.000000 0.000000 0.080378 0.000000
# 6 0.000000 0.000000 0.000000 0.000000 0.000000 0.036329
#
#
# Mechanical properties :
#
#
# Convention : Reuss Voigt Hill
#
# Bulk Modulus (GPa) = 79.95141 81.01751 80.48446
# Shear Modulus (GPa) = 18.18174 20.86019 19.52097
#
# Velocity S-wave (km/s) = 2.99667 3.20982 3.10508
# Velocity P-wave (km/s) = 7.17369 7.33159 7.25307
#
# Compressibility (1/GPa) = 0.01250760
#
# Stress axis : x y z
#
# Youngs Moduli (GPa) = 74.43703 74.43703 61.50395
#
# Poissons Ratio (x) = 0.35212 0.32534
# Poissons Ratio (y) = 0.35212 0.32534
# Poissons Ratio (z) = 0.39375 0.39375
#
# Static dielectric constant tensor:
#      x y z
#    x 1.727010 0.000000 0.000000 
#    y 0.000000 1.727010 0.000000 
#    z 0.000000 0.000000 1.731030 
# 
# From -- ./inp_files/1703.got.cif
#   From: 2010.05.17/outbox.cif.g08.bks.cpg/sg185_cif.got.tgz:1703.got - 2010.05.20 12:05:34.
