data_PCOD9585031
_publ_section_title
;
Structure prediction by ZEFSAII (Michael W. Deem and Ramdas Pophale) SiO2 
 PCOD9585031
Probable space group: P 6 M M
;
_chemical_formula_sum "Si O2"
_cell_formula_units_Z 48
_cell_length_a 21.242380
_cell_length_b 21.242380
_cell_length_c 7.420281
_cell_angle_alpha 90.000000
_cell_angle_beta 90.000000
_cell_angle_gamma 120.000000
_cell_volume 2899.728458
_symmetry_space_group_name_H-M "P 6 M M"
_symmetry_group_IT_number 183
_symmetry_cell_setting 'hexagonal'
loop_
_space_group_symop_operation_xyz
x,y,z
x-y,x,z
-y,x-y,z
-x,-y,z
-x+y,-x,z
y,-x+y,z
-x+y,y,z
x,x-y,z
-y,-x,z
y,x,z
x-y,-y,z
-x,-x+y,z
loop_
_atom_site_type_symbol
_atom_site_label
_atom_site_fract_x
_atom_site_fract_y
_atom_site_fract_z
Si Si1 0.408739 0.087427 0.156010
Si Si2 0.083835 0.309820 0.474393
Si Si3 0.917161 0.458581 0.197337
Si Si4 0.708423 0.147296 0.755366
Si Si5 0.457926 0.915852 0.758897
O O1 0.357005 0.097677 0.292983
O O2 0.488525 0.114109 0.242442
O O3 0.371827 0.000000 0.124440
O O4 0.419047 0.125751 0.964748
O O5 0.141045 0.282089 0.484095
O O6 0.101848 0.366968 0.636138
O O7 0.000000 0.248993 0.479835
O O8 0.000000 0.500000 0.265218
O O9 0.917596 0.458798 0.978127
O O10 0.768257 0.231744 0.730133
O O11 0.626152 0.124430 0.704546
O O12 0.500000 0.000000 0.699446
#
# Coordination Sequence:
#
# PCOD9585031 Si02
#       5
#    12  12   6  12   6
#     4   9  16  28  46  68  95 124 153 189 227 268
#     4  10  20  32  48  70  93 118 150 189 235 283
#     4   7  12  23  41  65  90 117 151 186 217 249
#     4  10  19  31  47  69  94 124 156 194 235 273
#     4   9  16  29  47  65  88 121 157 192 225 271
#
# _framework density 16.553273999999998
#
# number of rings (size 3 to 8) (size 9 to 14) (size 15 to 20)
#    0.000    2.750    0.000    4.500    0.000    1.000 
#    0.750    2.500    0.000    0.250    0.000    0.000 
#    0.000    0.000    0.000    8.000    0.000    0.000 
#
# Total GULP energy -267497.619164 kJ/mol
# GULP energy per Si atom -5572.867066 kJ/mol
# Density = 1.651560 g / cm^3
# Si number density = 16.553274 Si / 1000 Ang^3
#
#
#
# Elastic Constant Matrix: (Units=GPa)
#
#
# Indices 1 2 3 4 5 6 
#
# 1 109.6341 82.4550 25.7551 0.0000 0.0000 0.0000
# 2 82.4550 109.6341 25.7551 0.0000 0.0000 0.0000
# 3 25.7551 25.7551 61.0990 0.0000 0.0000 0.0000
# 4 0.0000 0.0000 0.0000 21.4421 0.0000 0.0000
# 5 0.0000 0.0000 0.0000 0.0000 21.4421 0.0000
# 6 0.0000 0.0000 0.0000 0.0000 0.0000 13.5895
#
#
#
# Elastic Compliance Matrix: (Units=1/GPa)
#
#
# Indices 1 2 3 4 5 6 
#
# 1 0.021331 -0.015462 -0.002474 0.000000 0.000000 0.000000
# 2 -0.015462 0.021331 -0.002474 0.000000 0.000000 0.000000
# 3 -0.002474 -0.002474 0.018453 0.000000 0.000000 0.000000
# 4 0.000000 0.000000 0.000000 0.046637 0.000000 0.000000
# 5 0.000000 0.000000 0.000000 0.000000 0.046637 0.000000
# 6 0.000000 0.000000 0.000000 0.000000 0.000000 0.073586
#
#
# Mechanical properties :
#
#
# Convention : Reuss Voigt Hill
#
# Bulk Modulus (GPa) = 49.27326 60.92195 55.09760
# Shear Modulus (GPa) = 18.14484 21.05489 19.59986
#
# Velocity S-wave (km/s) = 3.31440 3.57031 3.44473
# Velocity P-wave (km/s) = 6.66919 7.34027 7.01276
#
# Compressibility (1/GPa) = 0.02029498
#
# Stress axis : x y z
#
# Youngs Moduli (GPa) = 46.87974 46.87974 54.19257
#
# Poissons Ratio (x) = 0.72485 0.13408
# Poissons Ratio (y) = 0.72485 0.13408
# Poissons Ratio (z) = 0.11599 0.11599
#
# Static dielectric constant tensor:
#      x y z
#    x 1.560210 0.000000 0.000000 
#    y 0.000000 1.560210 0.000000 
#    z 0.000000 0.000000 1.578250 
# 
# From -- ./inp_files/822.got.cif
#   From: 2010.05.17/outbox.cif.g08.bks.cpg/sg183_1_cif.got.tgz:822.got - 2010.05.20 12:02:58.
