data_PCOD9585208
_publ_section_title
;
Structure prediction by ZEFSAII (Michael W. Deem and Ramdas Pophale) SiO2 
 PCOD9585208
Probable space group: P 6 C C
;
_chemical_formula_sum "Si O2"
_cell_formula_units_Z 56
_cell_length_a 12.438391
_cell_length_b 12.438391
_cell_length_c 20.556177
_cell_angle_alpha 90.000000
_cell_angle_beta 90.000000
_cell_angle_gamma 120.000000
_cell_volume 2754.237516
_symmetry_space_group_name_H-M "P 6 C C"
_symmetry_group_IT_number 184
_symmetry_cell_setting 'hexagonal'
loop_
_space_group_symop_operation_xyz
x,y,z
x-y,x,z
-y,x-y,z
-x,-y,z
-x+y,-x,z
y,-x+y,z
-x+y,y,1/2+z
x,x-y,1/2+z
-y,-x,1/2+z
y,x,1/2+z
x-y,-y,1/2+z
-x,-x+y,1/2+z
loop_
_atom_site_type_symbol
_atom_site_label
_atom_site_fract_x
_atom_site_fract_y
_atom_site_fract_z
Si Si1 0.070996 0.283229 0.647090
Si Si2 0.433763 0.079043 0.020317
Si Si3 0.666668 0.333334 0.319537
Si Si4 0.566238 0.645278 0.773862
Si Si5 0.257804 0.257802 0.397089
Si Si6 0.666667 0.333334 0.974639
O O1 0.168803 0.236404 0.647088
O O2 0.088646 0.363072 0.582713
O O3 0.088641 0.363059 0.711471
O O4 0.500000 0.000000 0.036386
O O5 0.338432 0.011957 0.960822
O O6 0.539719 0.215432 0.998534
O O7 0.675710 0.460281 0.295642
O O8 0.666668 0.333334 0.397088
O O9 0.500000 0.500000 0.757786
O O10 0.661559 0.673510 0.833361
O O11 0.123251 0.246499 0.397086
#
# Coordination Sequence:
#
# PCOD9585208 Si02
#       6
#    12  12   4  12  12   4
#     4  12  26  46  68  96 133 178 228 284 348 418
#     4  12  25  43  68  99 135 176 226 283 347 424
#     4  12  24  43  71 103 138 180 223 281 349 415
#     4  12  25  43  68  99 135 176 226 283 347 424
#     4  12  24  42  66  96 132 176 228 286 348 420
#     4  12  24  43  71 103 138 180 223 281 349 415
#
# _framework density 20.332305999999999
#
# number of rings (size 3 to 8) (size 9 to 14) (size 15 to 20)
#    0.000    0.000    0.000   13.286    0.000    1.714 
#    0.000    4.286    0.000    0.000    0.000    0.000 
#    0.000    0.000    0.000    0.000    0.000    0.000 
#
# Total GULP energy -314002.037583 kJ/mol
# GULP energy per Si atom -5607.179243 kJ/mol
# Density = 2.028603 g / cm^3
# Si number density = 20.332306 Si / 1000 Ang^3
#
#
#
# Elastic Constant Matrix: (Units=GPa)
#
#
# Indices 1 2 3 4 5 6 
#
# 1 186.3987 81.8589 89.9503 0.0003 -0.0001 0.0004
# 2 81.8589 186.3991 89.9487 -0.0001 0.0007 -0.0007
# 3 89.9503 89.9487 190.1650 0.0000 0.0000 -0.0005
# 4 0.0003 -0.0001 0.0000 58.5270 -0.0005 -0.0004
# 5 -0.0001 0.0007 0.0000 -0.0005 58.5293 -0.0002
# 6 0.0004 -0.0007 -0.0005 -0.0004 -0.0002 52.2678
#
#
#
# Elastic Compliance Matrix: (Units=1/GPa)
#
#
# Indices 1 2 3 4 5 6 
#
# 1 0.007513 -0.002053 -0.002582 0.000000 0.000000 0.000000
# 2 -0.002053 0.007513 -0.002582 0.000000 0.000000 0.000000
# 3 -0.002582 -0.002582 0.007702 0.000000 0.000000 0.000000
# 4 0.000000 0.000000 0.000000 0.017086 0.000000 0.000000
# 5 0.000000 0.000000 0.000000 0.000000 0.017085 0.000000
# 6 0.000000 0.000000 0.000000 0.000000 0.000000 0.019132
#
#
# Mechanical properties :
#
#
# Convention : Reuss Voigt Hill
#
# Bulk Modulus (GPa) = 120.61166 120.71984 120.66575
# Shear Modulus (GPa) = 53.63066 53.94515 53.78791
#
# Velocity S-wave (km/s) = 5.14143 5.15649 5.14896
# Velocity P-wave (km/s) = 9.73112 9.74447 9.73780
#
# Compressibility (1/GPa) = 0.00829107
#
# Stress axis : x y z
#
# Youngs Moduli (GPa) = 133.10801 133.10974 129.84305
#
# Poissons Ratio (x) = 0.27328 0.33532
# Poissons Ratio (y) = 0.27328 0.33530
# Poissons Ratio (z) = 0.34375 0.34374
#
# Static dielectric constant tensor:
#      x y z
#    x 1.694910 0.000000 0.000000 
#    y 0.000000 1.694910 0.000000 
#    z 0.000000 0.000000 1.682330 
# 
# From -- ./inp_files/1316.got.cif
#   From: 2010.05.17/outbox.cif.g08.bks.cpg/sg184_cif.got.tgz:1316.got - 2010.05.20 12:04:40.
