data_PCOD9585731
_publ_section_title
;
Structure prediction by ZEFSAII (Michael W. Deem and Ramdas Pophale) SiO2 
 PCOD9585731
Probable space group: P -6 M 2
;
_chemical_formula_sum "Si O2"
_cell_formula_units_Z 72
_cell_length_a 12.620741
_cell_length_b 12.620741
_cell_length_c 31.482721
_cell_angle_alpha 90.000000
_cell_angle_beta 90.000000
_cell_angle_gamma 120.000000
_cell_volume 4342.827718
_symmetry_space_group_name_H-M "P -6 M 2"
_symmetry_group_IT_number 187
_symmetry_cell_setting 'hexagonal'
loop_
_space_group_symop_operation_xyz
x,y,z
-x+y,-x,-z
-y,x-y,z
x,y,-z
-x+y,-x,z
-y,x-y,-z
-y,-x,-z
-x+y,y,-z
x,x-y,-z
-x+y,y,z
x,x-y,z
-y,-x,z
loop_
_atom_site_type_symbol
_atom_site_label
_atom_site_fract_x
_atom_site_fract_y
_atom_site_fract_z
Si Si1 0.747842 0.748170 0.583323
Si Si2 0.332886 0.918237 0.500000
Si Si3 0.747579 0.747586 0.916640
Si Si4 0.332879 0.918152 0.333625
Si Si5 0.000088 0.747796 0.749922
Si Si6 0.585134 0.667101 0.000000
Si Si7 0.667140 0.082053 0.833315
O O1 0.871410 0.742820 0.582760
O O2 0.666168 0.686109 0.541754
O O3 0.668374 0.685735 0.625274
O O4 0.777487 0.888744 0.583534
O O5 0.222616 0.777385 0.500000
O O6 0.462281 0.924562 0.500000
O O7 0.880241 0.760481 0.921628
O O8 0.665897 0.685919 0.958201
O O9 0.685605 0.665496 0.875183
O O10 0.760268 0.880134 0.911549
O O11 0.462462 0.924923 0.334049
O O12 0.222557 0.777444 0.334766
O O13 0.313610 0.977469 0.291228
O O14 0.118905 0.881096 0.755138
O O15 0.879546 0.759091 0.744193
O O16 0.979647 0.666433 0.791604
O O17 0.462675 0.537326 0.000000
O O18 0.554848 0.777424 0.000000
O O19 0.537195 0.074389 0.833071
O O20 0.777236 0.222765 0.833428
#
# Coordination Sequence:
#
# PCOD9585731 Si02
#       7
#    12   6  12  12  12   6  12
#     4  10  20  34  54  78 104 134 168 210 256 302
#     4  10  20  34  54  78 104 134 168 208 252 300
#     4  10  20  34  54  78 104 134 168 210 256 302
#     4  10  20  34  53  76 103 135 170 210 254 301
#     4  10  20  34  54  78 104 134 168 210 256 302
#     4  10  20  34  52  74 102 136 172 210 252 300
#     4  10  20  34  52  74 102 136 172 209 250 299
#
# _framework density 16.579059999999998
#
# number of rings (size 3 to 8) (size 9 to 14) (size 15 to 20)
#    0.000    2.000    0.000    4.000    0.000    0.000 
#    0.000    6.667    0.000   16.000    0.000    0.000 
#    0.000    0.000    0.000    0.000    0.000    0.000 
#
# Total GULP energy -402045.388184 kJ/mol
# GULP energy per Si atom -5583.963725 kJ/mol
# Density = 1.654132 g / cm^3
# Si number density = 16.579060 Si / 1000 Ang^3
#
#
#
# Elastic Constant Matrix: (Units=GPa)
#
#
# Indices 1 2 3 4 5 6 
#
# 1 148.1822 110.7262 102.5052 0.0000 0.0000 0.0000
# 2 110.7262 148.1822 102.5052 0.0000 0.0000 0.0000
# 3 102.5052 102.5052 181.1893 0.0000 0.0000 0.0000
# 4 0.0000 0.0000 0.0000 13.8926 0.0000 0.0000
# 5 0.0000 0.0000 0.0000 0.0000 13.8926 0.0000
# 6 0.0000 0.0000 0.0000 0.0000 0.0000 18.7280
#
#
#
# Elastic Compliance Matrix: (Units=1/GPa)
#
#
# Indices 1 2 3 4 5 6 
#
# 1 0.016847 -0.009851 -0.003958 0.000000 0.000000 0.000000
# 2 -0.009851 0.016847 -0.003958 0.000000 0.000000 0.000000
# 3 -0.003958 -0.003958 0.009998 0.000000 0.000000 0.000000
# 4 0.000000 0.000000 0.000000 0.071981 0.000000 0.000000
# 5 0.000000 0.000000 0.000000 0.000000 0.071981 0.000000
# 6 0.000000 0.000000 0.000000 0.000000 0.000000 0.053396
#
#
# Mechanical properties :
#
#
# Convention : Reuss Voigt Hill
#
# Bulk Modulus (GPa) = 122.57901 123.22522 122.90212
# Shear Modulus (GPa) = 17.90171 20.09047 18.99609
#
# Velocity S-wave (km/s) = 3.28956 3.48487 3.38862
# Velocity P-wave (km/s) = 9.40876 9.52258 9.46584
#
# Compressibility (1/GPa) = 0.00815800
#
# Stress axis : x y z
#
# Youngs Moduli (GPa) = 59.35670 59.35670 100.02309
#
# Poissons Ratio (x) = 0.58471 0.39591
# Poissons Ratio (y) = 0.58471 0.39591
# Poissons Ratio (z) = 0.23495 0.23495
#
# Static dielectric constant tensor:
#      x y z
#    x 1.522660 0.000000 0.000000 
#    y 0.000000 1.522660 0.000000 
#    z 0.000000 0.000000 1.544200 
# 
# From -- ./inp_files/4525.got.cif
#   From: 2010.05.17/outbox.cif.g08.bks.cpg/sg187_3_cif.got.tgz:4525.got - 2010.05.20 12:09:04.
