data_PCOD9585307
_publ_section_title
;
Structure prediction by ZEFSAII (Michael W. Deem and Ramdas Pophale) SiO2 
 PCOD9585307
Probable space group: P 63 C M
;
_chemical_formula_sum "Si O2"
_cell_formula_units_Z 72
_cell_length_a 22.827431
_cell_length_b 22.827431
_cell_length_c 9.642182
_cell_angle_alpha 90.000000
_cell_angle_beta 90.000000
_cell_angle_gamma 120.000000
_cell_volume 4351.310091
_symmetry_space_group_name_H-M "P 63 C M"
_symmetry_group_IT_number 185
_symmetry_cell_setting 'hexagonal'
loop_
_space_group_symop_operation_xyz
x,y,z
x-y,x,1/2+z
-y,x-y,z
-x,-y,1/2+z
-x+y,-x,z
y,-x+y,1/2+z
-x+y,y,1/2+z
x,x-y,1/2+z
-y,-x,1/2+z
y,x,z
x-y,-y,z
-x,-x+y,z
loop_
_atom_site_type_symbol
_atom_site_label
_atom_site_fract_x
_atom_site_fract_y
_atom_site_fract_z
Si Si1 0.594072 0.190772 0.177820
Si Si2 0.740237 0.259874 0.775366
Si Si3 0.337964 0.925988 0.895010
Si Si4 0.563984 0.109115 0.925701
Si Si5 0.328039 0.925076 0.560489
Si Si6 0.789326 0.221761 0.024791
O O1 0.579332 0.248499 0.225041
O O2 0.665281 0.204879 0.233624
O O3 0.540070 0.125422 0.265382
O O4 0.587810 0.177101 0.016080
O O5 0.744564 0.245133 0.934519
O O6 0.756392 0.210799 0.683021
O O7 0.406437 0.923333 0.931269
O O8 0.331454 0.922699 0.727802
O O9 0.270073 0.863778 0.960957
O O10 0.353029 0.000000 0.939981
O O11 0.608285 0.080017 0.996368
O O12 0.256162 0.859950 0.516950
O O13 0.342668 0.000000 0.522234
#
# Coordination Sequence:
#
# PCOD9585307 Si02
#       6
#    12  12  12  12  12  12
#     4  12  21  32  51  72  97 142 178 220 278 314
#     4  12  21  34  50  68 107 136 173 222 277 318
#     4  11  23  38  57  77 103 138 169 214 272 313
#     4  12  19  36  51  74 101 130 178 222 260 320
#     4  11  23  38  57  77 103 138 169 214 272 313
#     4  12  20  38  55  74  99 134 171 218 257 322
#
# _framework density 16.54674
#
# number of rings (size 3 to 8) (size 9 to 14) (size 15 to 20)
#    0.000    0.333   10.000    0.833    0.000    0.000 
#    0.000    5.833    0.000    0.000    0.000    0.000 
#    0.000    0.000    0.000    0.500    0.000    2.333 
#
# Total GULP energy -401208.949774 kJ/mol
# GULP energy per Si atom -5572.346525 kJ/mol
# Density = 1.650908 g / cm^3
# Si number density = 16.546740 Si / 1000 Ang^3
#
#
#
# Elastic Constant Matrix: (Units=GPa)
#
#
# Indices 1 2 3 4 5 6 
#
# 1 80.7280 47.9302 11.1206 0.0000 0.0000 0.0000
# 2 47.9302 80.7280 11.1206 0.0000 0.0000 0.0000
# 3 11.1206 11.1206 49.4831 0.0000 0.0000 0.0000
# 4 0.0000 0.0000 0.0000 16.9432 0.0000 0.0000
# 5 0.0000 0.0000 0.0000 0.0000 16.9432 0.0000
# 6 0.0000 0.0000 0.0000 0.0000 0.0000 16.3989
#
#
#
# Elastic Compliance Matrix: (Units=1/GPa)
#
#
# Indices 1 2 3 4 5 6 
#
# 1 0.019288 -0.011202 -0.001817 0.000000 0.000000 0.000000
# 2 -0.011202 0.019288 -0.001817 0.000000 0.000000 0.000000
# 3 -0.001817 -0.001817 0.021026 0.000000 0.000000 0.000000
# 4 0.000000 0.000000 0.000000 0.059021 0.000000 0.000000
# 5 0.000000 0.000000 0.000000 0.000000 0.059021 0.000000
# 6 0.000000 0.000000 0.000000 0.000000 0.000000 0.060980
#
#
# Mechanical properties :
#
#
# Convention : Reuss Voigt Hill
#
# Bulk Modulus (GPa) = 33.41161 39.03130 36.22145
# Shear Modulus (GPa) = 17.96801 19.44159 18.70480
#
# Velocity S-wave (km/s) = 3.29887 3.43147 3.36582
# Velocity P-wave (km/s) = 5.89458 6.27214 6.08629
#
# Compressibility (1/GPa) = 0.02992972
#
# Stress axis : x y z
#
# Youngs Moduli (GPa) = 51.84494 51.84494 47.56070
#
# Poissons Ratio (x) = 0.58075 0.08644
# Poissons Ratio (y) = 0.58075 0.08644
# Poissons Ratio (z) = 0.09422 0.09422
#
# Static dielectric constant tensor:
#      x y z
#    x 1.594810 0.000000 0.000000 
#    y 0.000000 1.594810 0.000000 
#    z 0.000000 0.000000 1.572290 
# 
# From -- ./inp_files/620.got.cif
#   From: 2010.05.17/outbox.cif.g08.bks.cpg/sg185_cif.got.tgz:620.got - 2010.05.20 12:05:34.
