data_PCOD9585848
_publ_section_title
;
Structure prediction by ZEFSAII (Michael W. Deem and Ramdas Pophale) SiO2 
 PCOD9585848
Probable space group: P -6 C 2
;
_chemical_formula_sum "Si O2"
_cell_formula_units_Z 36
_cell_length_a 18.089672
_cell_length_b 18.089672
_cell_length_c 5.652962
_cell_angle_alpha 90.000000
_cell_angle_beta 90.000000
_cell_angle_gamma 120.000000
_cell_volume 1602.020549
_symmetry_space_group_name_H-M "P -6 C 2"
_symmetry_group_IT_number 188
_symmetry_cell_setting 'hexagonal'
loop_
_space_group_symop_operation_xyz
x,y,z
-x+y,-x,1/2-z
-y,x-y,z
x,y,1/2-z
-x+y,-x,z
-y,x-y,1/2-z
-y,-x,-z
-x+y,y,-z
x,x-y,-z
-x+y,y,1/2+z
x,x-y,1/2+z
-y,-x,1/2+z
loop_
_atom_site_type_symbol
_atom_site_label
_atom_site_fract_x
_atom_site_fract_y
_atom_site_fract_z
Si Si1 0.110315 0.453260 0.750000
Si Si2 0.141826 0.030042 0.750000
Si Si3 0.946611 0.296820 0.250000
Si Si4 0.102621 0.261203 0.250000
Si Si5 0.731235 0.666061 0.750000
Si Si6 0.521366 0.627543 0.250000
O O1 0.028527 0.356896 0.750000
O O2 0.149810 0.469742 0.487877
O O3 0.092133 0.532875 0.750000
O O4 0.124073 0.062037 0.500000
O O5 0.242088 0.058481 0.750000
O O6 0.097604 0.927681 0.750000
O O7 0.897633 0.271779 0.496369
O O8 0.011557 0.397338 0.250000
O O9 0.012284 0.258496 0.250000
O O10 0.150020 0.300040 0.500000
#
# Coordination Sequence:
#
# PCOD9585848 Si02
#       6
#     6   6   6   6   6   6
#     4   8  14  24  40  65  96 121 140 167 211 284
#     4  12  24  36  50  70  88 120 170 234 276 325
#     4  10  17  30  50  73  89 116 154 193 254 328
#     4  12  21  36  55  70  87 118 164 225 283 339
#     4  10  18  31  49  69  88 119 156 197 248 320
#     4   8  14  23  40  67  98 118 138 168 210 286
#
# _framework density 22.471620999999999
#
# number of rings (size 3 to 8) (size 9 to 14) (size 15 to 20)
#    0.000    2.000    3.333    2.000    0.000    0.000 
#    0.000    0.000    0.000    6.667    0.000    0.000 
#    0.000    0.000    0.000    1.000   20.667    7.667 
#
# Total GULP energy -200586.363645 kJ/mol
# GULP energy per Si atom -5571.843435 kJ/mol
# Density = 2.242047 g / cm^3
# Si number density = 22.471621 Si / 1000 Ang^3
#
#
#
# Elastic Constant Matrix: (Units=GPa)
#
#
# Indices 1 2 3 4 5 6 
#
# 1 81.2371 39.7239 19.5024 0.0001 0.0000 0.0000
# 2 39.7239 81.2371 19.5024 -0.0001 0.0000 0.0000
# 3 19.5024 19.5024 285.9212 0.0000 0.0000 0.0000
# 4 0.0001 -0.0001 0.0000 12.8446 0.0000 0.0000
# 5 0.0000 0.0000 0.0000 0.0000 12.8446 0.0001
# 6 0.0000 0.0000 0.0000 0.0000 0.0001 20.7566
#
#
#
# Elastic Compliance Matrix: (Units=1/GPa)
#
#
# Indices 1 2 3 4 5 6 
#
# 1 0.016271 -0.007818 -0.000577 0.000000 0.000000 0.000000
# 2 -0.007818 0.016271 -0.000577 0.000000 0.000000 0.000000
# 3 -0.000577 -0.000577 0.003576 0.000000 0.000000 0.000000
# 4 0.000000 0.000000 0.000000 0.077854 0.000000 0.000000
# 5 0.000000 0.000000 0.000000 0.000000 0.077854 0.000000
# 6 0.000000 0.000000 0.000000 0.000000 0.000000 0.048177
#
#
# Mechanical properties :
#
#
# Convention : Reuss Voigt Hill
#
# Bulk Modulus (GPa) = 55.01783 67.31699 61.16741
# Shear Modulus (GPa) = 18.93913 33.93359 26.43636
#
# Velocity S-wave (km/s) = 2.90625 3.89017 3.43364
# Velocity P-wave (km/s) = 5.98316 7.08515 6.55734
#
# Compressibility (1/GPa) = 0.01817593
#
# Stress axis : x y z
#
# Youngs Moduli (GPa) = 61.45945 61.45945 279.63252
#
# Poissons Ratio (x) = 0.48048 0.16123
# Poissons Ratio (y) = 0.48048 0.16123
# Poissons Ratio (z) = 0.03544 0.03544
#
# Static dielectric constant tensor:
#      x y z
#    x 1.827880 0.000000 0.000000 
#    y 0.000000 1.827880 0.000000 
#    z 0.000000 0.000000 2.052870 
# 
# From -- ./inp_files/34.got.cif
#   From: 2010.05.17/outbox.cif.g08.bks.cpg/sg188_1_cif.got.tgz:34.got - 2010.05.20 12:11:46.
