data_PCOD9585033
_publ_section_title
;
Structure prediction by ZEFSAII (Michael W. Deem and Ramdas Pophale) SiO2 
 PCOD9585033
Probable space group: P 6 M M
;
_chemical_formula_sum "Si O2"
_cell_formula_units_Z 72
_cell_length_a 23.831616
_cell_length_b 23.831616
_cell_length_c 7.629285
_cell_angle_alpha 90.000000
_cell_angle_beta 90.000000
_cell_angle_gamma 120.000000
_cell_volume 3752.506519
_symmetry_space_group_name_H-M "P 6 M M"
_symmetry_group_IT_number 183
_symmetry_cell_setting 'hexagonal'
loop_
_space_group_symop_operation_xyz
x,y,z
x-y,x,z
-y,x-y,z
-x,-y,z
-x+y,-x,z
y,-x+y,z
-x+y,y,z
x,x-y,z
-y,-x,z
y,x,z
x-y,-y,z
-x,-x+y,z
loop_
_atom_site_type_symbol
_atom_site_label
_atom_site_fract_x
_atom_site_fract_y
_atom_site_fract_z
Si Si1 0.806309 0.071889 0.194940
Si Si2 0.726765 0.799510 0.765210
Si Si3 0.137228 0.403920 0.141251
Si Si4 0.666304 0.204120 0.713711
Si Si5 0.789837 0.334067 0.294473
Si Si6 0.597025 0.925219 0.789319
O O1 0.879336 0.120665 0.245163
O O2 0.761947 0.101379 0.256458
O O3 0.778825 0.000000 0.255784
O O4 0.802158 0.072568 0.980493
O O5 0.735497 0.867749 0.705375
O O6 0.779702 0.779702 0.710326
O O7 0.656190 0.739460 0.715495
O O8 0.201413 0.402825 0.067468
O O9 0.164009 0.470998 0.238889
O O10 0.087289 0.399534 0.995706
O O11 0.603133 0.206265 0.782811
O O12 0.734787 0.265214 0.779094
O O13 0.666041 0.212138 0.504394
O O14 0.660772 0.134251 0.740428
O O15 0.810448 0.405224 0.229464
O O16 0.717898 0.282103 0.231577
O O17 0.616598 0.000000 0.755521
#
# Coordination Sequence:
#
# PCOD9585033 Si02
#       6
#    12  12  12  12  12  12
#     4   8  13  22  38  59  82 108 140 178 217 259
#     4   8  13  22  38  60  84 112 146 183 223 264
#     4   9  16  28  47  70  93 117 150 192 234 275
#     4  10  20  35  53  71  93 122 156 191 230 279
#     4   9  18  32  50  70  92 120 153 190 232 278
#     4  10  19  31  48  69  95 125 156 193 232 272
#
# _framework density 19.187176000000001
#
# number of rings (size 3 to 8) (size 9 to 14) (size 15 to 20)
#    0.000    3.000    0.000    4.333    0.000    2.333 
#    0.000    1.667    0.000    5.833    0.000    2.333 
#    0.000    0.000    0.000    0.000    0.000    0.000 
#
# Total GULP energy -400965.508152 kJ/mol
# GULP energy per Si atom -5568.965391 kJ/mol
# Density = 1.914350 g / cm^3
# Si number density = 19.187176 Si / 1000 Ang^3
#
#
#
# Elastic Constant Matrix: (Units=GPa)
#
#
# Indices 1 2 3 4 5 6 
#
# 1 146.9644 124.4811 6.2797 0.0000 0.0000 0.0000
# 2 124.4811 146.9644 6.2797 0.0000 0.0000 0.0000
# 3 6.2797 6.2797 21.0256 0.0000 0.0000 0.0000
# 4 0.0000 0.0000 0.0000 -567.5770 -0.0001 0.0000
# 5 0.0000 0.0000 0.0000 -0.0001 -567.5769 0.0000
# 6 0.0000 0.0000 0.0000 0.0000 0.0000 11.2417
#
#
#
# Elastic Compliance Matrix: (Units=1/GPa)
#
#
# Indices 1 2 3 4 5 6 
#
# 1 0.024106 -0.020371 -0.001116 0.000000 0.000000 0.000000
# 2 -0.020371 0.024106 -0.001116 0.000000 0.000000 0.000000
# 3 -0.001116 -0.001116 0.048228 0.000000 0.000000 0.000000
# 4 0.000000 0.000000 0.000000 -0.001762 0.000000 0.000000
# 5 0.000000 0.000000 0.000000 0.000000 -0.001762 0.000000
# 6 0.000000 0.000000 0.000000 0.000000 0.000000 0.088955
#
#
# Mechanical properties :
#
#
# Convention : Reuss Voigt Hill
#
# Bulk Modulus (GPa) = 19.51755 65.44838 42.48296
# Shear Modulus (GPa) = 20.47882 -212.92153 -96.22135
#
# Velocity S-wave (km/s) = 3.27053 -10.54569 -7.08926
# Velocity P-wave (km/s) = 4.94531 10.68165 6.69483
#
# Compressibility (1/GPa) = 0.05123594
#
# Stress axis : x y z
#
# Youngs Moduli (GPa) = 41.48263 41.48263 20.73503
#
# Poissons Ratio (x) = 0.84504 0.02313
# Poissons Ratio (y) = 0.84504 0.02313
# Poissons Ratio (z) = 0.04628 0.04628
#
# Static dielectric constant tensor:
#      x y z
#    x 2.263770 0.000000 0.000000 
#    y 0.000000 2.263770 0.000000 
#    z 0.000000 0.000000 1.721240 
# 
# From -- ./inp_files/1183.got.cif
#   From: 2010.05.17/outbox.cif.g08.bks.cpg/sg183_1_cif.got.tgz:1183.got - 2010.05.20 12:02:58.
