data_PCOD9585455
_publ_section_title
;
Structure prediction by ZEFSAII (Michael W. Deem and Ramdas Pophale) SiO2 
 PCOD9585455
Probable space group: P -6 M 2
;
_chemical_formula_sum "Si O2"
_cell_formula_units_Z 96
_cell_length_a 17.365811
_cell_length_b 17.365811
_cell_length_c 21.544321
_cell_angle_alpha 90.000000
_cell_angle_beta 90.000000
_cell_angle_gamma 120.000000
_cell_volume 5626.697703
_symmetry_space_group_name_H-M "P -6 M 2"
_symmetry_group_IT_number 187
_symmetry_cell_setting 'hexagonal'
loop_
_space_group_symop_operation_xyz
x,y,z
-x+y,-x,-z
-y,x-y,z
x,y,-z
-x+y,-x,z
-y,x-y,-z
-y,-x,-z
-x+y,y,-z
x,x-y,-z
-x+y,y,z
x,x-y,z
-y,-x,z
loop_
_atom_site_type_symbol
_atom_site_label
_atom_site_fract_x
_atom_site_fract_y
_atom_site_fract_z
Si Si1 0.373219 0.099460 0.228569
Si Si2 0.848964 0.516593 0.645673
Si Si3 0.398427 0.983200 0.430883
Si Si4 0.488330 0.332180 0.105036
Si Si5 0.173302 0.000477 0.074324
Si Si6 0.032660 0.661558 0.068997
Si Si7 0.332174 0.847643 0.323923
Si Si8 0.619188 0.719324 0.196003
O O1 0.337566 0.168783 0.229474
O O2 0.423739 0.109279 0.292881
O O3 0.447877 0.133519 0.174561
O O4 0.300153 0.998702 0.213063
O O5 0.751789 0.503577 0.636688
O O6 0.844720 0.422360 0.653572
O O7 0.916142 0.568286 0.589695
O O8 0.359298 0.962392 0.500000
O O9 0.488065 0.976130 0.432244
O O10 0.339663 0.917711 0.376002
O O11 0.478111 0.239056 0.082296
O O12 0.589881 0.410120 0.103546
O O13 0.427268 0.364175 0.070532
O O14 0.188919 0.094460 0.098759
O O15 0.257099 0.986388 0.080008
O O16 0.161265 0.001337 0.000000
O O17 0.083664 0.916337 0.099427
O O18 0.089875 0.669958 0.129944
O O19 0.072320 0.671706 0.000000
O O20 0.421229 0.842458 0.327077
O O21 0.246877 0.753124 0.337129
O O22 0.321820 0.875493 0.254472
O O23 0.643120 0.821560 0.190464
#
# Coordination Sequence:
#
# PCOD9585455 Si02
#       8
#    12  12  12  12  12  12  12  12
#     4   9  18  32  51  75 103 136 171 214 262 309
#     4  10  18  29  47  73 107 147 189 226 259 297
#     4   9  18  32  50  74 107 143 173 208 257 305
#     4  10  20  33  50  71  97 129 169 215 262 308
#     4   9  16  27  45  68  93 121 154 194 241 297
#     4  10  21  35  49  68  97 131 166 207 256 309
#     4  10  20  35  56  80 104 131 166 210 261 318
#     4  10  20  34  54  77  99 129 167 210 258 311
#
# _framework density 17.061518
#
# number of rings (size 3 to 8) (size 9 to 14) (size 15 to 20)
#    0.000    2.375    1.250    1.625    0.000    5.250 
#    0.000    1.250    0.000    2.500    0.000    0.000 
#    0.000    1.000    0.000    0.000    0.000   11.375 
#
# Total GULP energy -534951.625666 kJ/mol
# GULP energy per Si atom -5572.412767 kJ/mol
# Density = 1.702268 g / cm^3
# Si number density = 17.061518 Si / 1000 Ang^3
#
#
#
# Elastic Constant Matrix: (Units=GPa)
#
#
# Indices 1 2 3 4 5 6 
#
# 1 67.0087 28.8444 34.2245 0.0000 -0.0004 0.0000
# 2 28.8444 67.0087 34.2245 0.0000 0.0004 0.0000
# 3 34.2245 34.2245 117.4775 0.0000 0.0000 0.0000
# 4 0.0000 0.0000 0.0000 13.6458 0.0000 0.0004
# 5 -0.0004 0.0004 0.0000 0.0000 13.6458 0.0000
# 6 0.0000 0.0000 0.0000 0.0004 0.0000 19.0822
#
#
#
# Elastic Compliance Matrix: (Units=1/GPa)
#
#
# Indices 1 2 3 4 5 6 
#
# 1 0.019688 -0.006515 -0.003838 0.000000 0.000001 0.000000
# 2 -0.006515 0.019688 -0.003838 0.000000 -0.000001 0.000000
# 3 -0.003838 -0.003838 0.010748 0.000000 0.000000 0.000000
# 4 0.000000 0.000000 0.000000 0.073282 0.000000 -0.000002
# 5 0.000001 -0.000001 0.000000 0.000000 0.073282 0.000000
# 6 0.000000 0.000000 0.000000 -0.000002 0.000000 0.052405
#
#
# Mechanical properties :
#
#
# Convention : Reuss Voigt Hill
#
# Bulk Modulus (GPa) = 45.99014 49.56463 47.77738
# Shear Modulus (GPa) = 17.56099 19.55487 18.55793
#
# Velocity S-wave (km/s) = 3.21171 3.38914 3.30162
# Velocity P-wave (km/s) = 6.38494 6.66548 6.52672
#
# Compressibility (1/GPa) = 0.02174379
#
# Stress axis : x y z
#
# Youngs Moduli (GPa) = 50.79285 50.79285 93.03774
#
# Poissons Ratio (x) = 0.33090 0.35705
# Poissons Ratio (y) = 0.33090 0.35705
# Poissons Ratio (z) = 0.19493 0.19493
#
# Static dielectric constant tensor:
#      x y z
#    x 1.575650 0.000000 0.000000 
#    y 0.000000 1.575650 0.000000 
#    z 0.000000 0.000000 1.611060 
# 
# From -- ./inp_files/3773.got.cif
#   From: 2010.05.17/outbox.cif.g08.bks.cpg/sg187_2_cif.got.tgz:3773.got - 2010.05.20 12:09:04.
