data_PCOD9585128
_publ_section_title
;
Structure prediction by ZEFSAII (Michael W. Deem and Ramdas Pophale) SiO2 
 PCOD9585128
Probable space group: P 6 C C
;
_chemical_formula_sum "Si O2"
_cell_formula_units_Z 78
_cell_length_a 18.532420
_cell_length_b 18.532420
_cell_length_c 13.910757
_cell_angle_alpha 90.000000
_cell_angle_beta 90.000000
_cell_angle_gamma 120.000000
_cell_volume 4137.572951
_symmetry_space_group_name_H-M "P 6 C C"
_symmetry_group_IT_number 184
_symmetry_cell_setting 'hexagonal'
loop_
_space_group_symop_operation_xyz
x,y,z
x-y,x,z
-y,x-y,z
-x,-y,z
-x+y,-x,z
y,-x+y,z
-x+y,y,1/2+z
x,x-y,1/2+z
-y,-x,1/2+z
y,x,1/2+z
x-y,-y,1/2+z
-x,-x+y,1/2+z
loop_
_atom_site_type_symbol
_atom_site_label
_atom_site_fract_x
_atom_site_fract_y
_atom_site_fract_z
Si Si1 0.237977 0.272862 0.772600
Si Si2 0.258503 0.304692 0.456994
Si Si3 0.662802 0.091946 0.713582
Si Si4 0.500000 0.500000 0.349076
Si Si5 0.350298 0.448971 0.988050
Si Si6 0.212178 0.421431 0.848903
Si Si7 0.053987 0.187432 0.101041
O O1 0.236753 0.229891 0.872711
O O2 0.326738 0.294814 0.721825
O O3 0.234256 0.355717 0.798565
O O4 0.158249 0.213498 0.710660
O O5 0.351725 0.326326 0.479774
O O6 0.251334 0.379034 0.410952
O O7 0.196232 0.270147 0.544484
O O8 0.580200 0.043398 0.779217
O O9 0.644274 0.105052 0.603265
O O10 0.724356 0.182115 0.761961
O O11 0.502252 0.567994 0.422674
O O12 0.283262 0.464019 0.930065
O O13 0.117984 0.157410 0.077938
#
# Coordination Sequence:
#
# PCOD9585128 Si02
#       7
#    12  12  12   6  12  12  12
#     4  10  20  36  56  82 113 153 203 255 290 345
#     4  10  20  36  56  82 113 153 203 255 290 345
#     4  11  22  38  62  93 126 163 200 255 320 370
#     4  12  22  44  56  96 140 156 200 264 318 386
#     4  11  22  38  62  93 126 163 200 255 320 370
#     4  10  20  38  60  89 119 156 216 252 300 368
#     4  12  23  34  52  77 118 160 206 252 300 349
#
# _framework density 18.85163
#
# number of rings (size 3 to 8) (size 9 to 14) (size 15 to 20)
#    0.000    1.231    6.154    4.308    2.154    0.000 
#    0.000    0.000    0.000    2.462    0.000    0.000 
#    0.000    0.000    0.000    0.000    0.000    0.000 
#
# Total GULP energy -434507.923478 kJ/mol
# GULP energy per Si atom -5570.614404 kJ/mol
# Density = 1.880872 g / cm^3
# Si number density = 18.851630 Si / 1000 Ang^3
#
#
#
# Elastic Constant Matrix: (Units=GPa)
#
#
# Indices 1 2 3 4 5 6 
#
# 1 21.2585 24.0720 30.5407 0.0000 0.0000 0.0000
# 2 24.0720 21.2585 30.5407 0.0000 0.0000 0.0000
# 3 30.5407 30.5407 104.1032 0.0000 0.0000 0.0000
# 4 0.0000 0.0000 0.0000 18.9108 0.0000 0.0000
# 5 0.0000 0.0000 0.0000 0.0000 18.9108 0.0000
# 6 0.0000 0.0000 0.0000 0.0000 0.0000 -1.4067
#
#
#
# Elastic Compliance Matrix: (Units=1/GPa)
#
#
# Indices 1 2 3 4 5 6 
#
# 1 -0.159475 0.195957 -0.010703 0.000000 0.000000 0.000000
# 2 0.195957 -0.159475 -0.010703 0.000000 0.000000 0.000000
# 3 -0.010703 -0.010703 0.015885 0.000000 0.000000 0.000000
# 4 0.000000 0.000000 0.000000 0.052880 0.000000 0.000000
# 5 0.000000 0.000000 0.000000 0.000000 0.052880 0.000000
# 6 0.000000 0.000000 0.000000 0.000000 0.000000 -0.710864
#
#
# Mechanical properties :
#
#
# Convention : Reuss Voigt Hill
#
# Bulk Modulus (GPa) = 21.72105 35.21414 28.46759
# Shear Modulus (GPa) = -4.02601 11.38076 3.67738
#
# Velocity S-wave (km/s) = -1.46296 2.45970 1.39819
# Velocity P-wave (km/s) = 2.94846 5.17562 4.21191
#
# Compressibility (1/GPa) = 0.04603829
#
# Stress axis : x y z
#
# Youngs Moduli (GPa) = -6.27057 -6.27057 62.95057
#
# Poissons Ratio (x) = 1.22876 0.67373
# Poissons Ratio (y) = 1.22876 0.67373
# Poissons Ratio (z) = -0.06711 -0.06711
#
# Static dielectric constant tensor:
#      x y z
#    x 1.675790 0.000000 0.000000 
#    y 0.000000 1.675790 0.000000 
#    z 0.000000 0.000000 1.706310 
# 
# From -- ./inp_files/918.got.cif
#   From: 2010.05.17/outbox.cif.g08.bks.cpg/sg184_cif.got.tgz:918.got - 2010.05.20 12:04:40.
