data_PCOD9585758
_publ_section_title
;
Structure prediction by ZEFSAII (Michael W. Deem and Ramdas Pophale) SiO2 
 PCOD9585758
Probable space group: P -6 M 2
;
_chemical_formula_sum "Si O2"
_cell_formula_units_Z 78
_cell_length_a 23.604675
_cell_length_b 23.604675
_cell_length_c 8.410835
_cell_angle_alpha 90.000000
_cell_angle_beta 90.000000
_cell_angle_gamma 120.000000
_cell_volume 4058.502291
_symmetry_space_group_name_H-M "P -6 M 2"
_symmetry_group_IT_number 187
_symmetry_cell_setting 'hexagonal'
loop_
_space_group_symop_operation_xyz
x,y,z
-x+y,-x,-z
-y,x-y,z
x,y,-z
-x+y,-x,z
-y,x-y,-z
-y,-x,-z
-x+y,y,-z
x,x-y,-z
-x+y,y,z
x,x-y,z
-y,-x,z
loop_
_atom_site_type_symbol
_atom_site_label
_atom_site_fract_x
_atom_site_fract_y
_atom_site_fract_z
Si Si1 0.456387 0.045505 0.190079
Si Si2 0.311661 0.823199 0.828478
Si Si3 0.855852 0.585606 0.692657
Si Si4 0.621968 0.683750 0.314601
Si Si5 0.456713 0.663878 0.500000
Si Si6 0.959322 0.228293 0.312265
Si Si7 0.126348 0.126597 0.191181
O O1 0.524197 0.048393 0.234980
O O2 0.453217 0.110468 0.235503
O O3 0.392788 0.986620 0.274587
O O4 0.448235 0.035719 0.000000
O O5 0.249677 0.750324 0.831770
O O6 0.289441 0.876224 0.799460
O O7 0.350881 0.830156 0.667031
O O8 0.345353 0.835032 0.000000
O O9 0.861992 0.585223 0.500000
O O10 0.780623 0.561245 0.732063
O O11 0.898599 0.661993 0.744670
O O12 0.609892 0.691238 0.500000
O O13 0.699346 0.720328 0.290507
O O14 0.378942 0.621059 0.500000
O O15 0.480775 0.740388 0.500000
O O16 0.948828 0.213803 0.500000
O O17 0.974404 0.175611 0.237238
O O18 0.108363 0.054182 0.245472
O O19 0.072310 0.144619 0.250402
O O20 0.123475 0.125643 0.000000
#
# Coordination Sequence:
#
# PCOD9585758 Si02
#       7
#    12  12  12  12   6  12  12
#     4  10  21  35  52  79 114 146 179 223 272 325
#     4  10  21  37  57  81 110 144 184 230 279 336
#     4   9  18  34  56  80 106 139 177 219 269 325
#     4  10  20  36  56  78 109 148 183 221 275 336
#     4  10  21  38  58  80 106 140 181 226 276 330
#     4   9  19  34  53  78 106 134 171 220 270 323
#     4  10  21  36  52  71  99 137 180 225 274 328
#
# _framework density 19.218913000000001
#
# number of rings (size 3 to 8) (size 9 to 14) (size 15 to 20)
#    0.000    2.308    0.769    2.538    0.000    8.000 
#    0.000    3.077    0.000    2.154    0.000    0.000 
#    0.000    0.000    0.000    0.000    0.000    0.000 
#
# Total GULP energy -434721.834088 kJ/mol
# GULP energy per Si atom -5573.356847 kJ/mol
# Density = 1.917517 g / cm^3
# Si number density = 19.218913 Si / 1000 Ang^3
#
#
#
# Elastic Constant Matrix: (Units=GPa)
#
#
# Indices 1 2 3 4 5 6 
#
# 1 53.3088 19.3563 14.9422 0.0000 0.0010 0.0000
# 2 19.3563 53.3088 14.9422 0.0000 -0.0010 0.0000
# 3 14.9422 14.9422 78.8484 0.0000 0.0000 0.0000
# 4 0.0000 0.0000 0.0000 11.9413 0.0000 -0.0010
# 5 0.0010 -0.0010 0.0000 0.0000 11.9413 0.0000
# 6 0.0000 0.0000 0.0000 -0.0010 0.0000 16.9762
#
#
#
# Elastic Compliance Matrix: (Units=1/GPa)
#
#
# Indices 1 2 3 4 5 6 
#
# 1 0.022189 -0.007264 -0.002828 0.000000 -0.000002 0.000000
# 2 -0.007264 0.022189 -0.002828 0.000000 0.000002 0.000000
# 3 -0.002828 -0.002828 0.013755 0.000000 0.000000 0.000000
# 4 0.000000 0.000000 0.000000 0.083743 0.000000 0.000005
# 5 -0.000002 0.000002 0.000000 0.000000 0.083743 0.000000
# 6 0.000000 0.000000 0.000000 0.000005 0.000000 0.058906
#
#
# Mechanical properties :
#
#
# Convention : Reuss Voigt Hill
#
# Bulk Modulus (GPa) = 30.96836 31.54971 31.25904
# Shear Modulus (GPa) = 15.57002 17.25343 16.41172
#
# Velocity S-wave (km/s) = 2.84938 2.99947 2.92539
# Velocity P-wave (km/s) = 5.19363 5.33361 5.26408
#
# Compressibility (1/GPa) = 0.03229102
#
# Stress axis : x y z
#
# Youngs Moduli (GPa) = 45.06745 45.06745 72.70324
#
# Poissons Ratio (x) = 0.32737 0.20563
# Poissons Ratio (y) = 0.32737 0.20563
# Poissons Ratio (z) = 0.12747 0.12747
#
# Static dielectric constant tensor:
#      x y z
#    x 1.679670 0.000000 0.000000 
#    y 0.000000 1.679670 0.000000 
#    z 0.000000 0.000000 1.701300 
# 
# From -- ./inp_files/1154.got.cif
#   From: 2010.05.17/outbox.cif.g08.bks.cpg/sg187_1_cif.got.tgz:1154.got - 2010.05.20 12:09:04.
