data_PCOD9585390
_publ_section_title
;
Structure prediction by ZEFSAII (Michael W. Deem and Ramdas Pophale) SiO2 
 PCOD9585390
Probable space group: P 63 M C
;
_chemical_formula_sum "Si O2"
_cell_formula_units_Z 84
_cell_length_a 22.136708
_cell_length_b 22.136708
_cell_length_c 11.175856
_cell_angle_alpha 90.000000
_cell_angle_beta 90.000000
_cell_angle_gamma 120.000000
_cell_volume 4742.829384
_symmetry_space_group_name_H-M "P 63 M C"
_symmetry_group_IT_number 186
_symmetry_cell_setting 'hexagonal'
loop_
_space_group_symop_operation_xyz
x,y,z
x-y,x,1/2+z
-y,x-y,z
-x,-y,1/2+z
-x+y,-x,z
y,-x+y,1/2+z
-x+y,y,z
x,x-y,z
-y,-x,z
y,x,1/2+z
x-y,-y,1/2+z
-x,-x+y,1/2+z
loop_
_atom_site_type_symbol
_atom_site_label
_atom_site_fract_x
_atom_site_fract_y
_atom_site_fract_z
Si Si1 0.799074 0.466163 0.203420
Si Si2 0.666694 0.197522 0.489156
Si Si3 0.950333 0.194888 0.588030
Si Si4 0.600657 0.728987 0.366988
Si Si5 0.955105 0.768701 0.860557
Si Si6 0.322384 0.923208 0.104747
Si Si7 0.395723 0.933780 0.557268
O O1 0.744251 0.488502 0.159548
O O2 0.777305 0.388653 0.158755
O O3 0.795823 0.463007 0.346153
O O4 0.877957 0.514878 0.164026
O O5 0.592994 0.185988 0.534618
O O6 0.730765 0.269235 0.537328
O O7 0.677747 0.133552 0.517545
O O8 0.874676 0.125325 0.590752
O O9 0.982343 0.199957 0.722065
O O10 0.940964 0.262111 0.575095
O O11 0.992648 0.195045 0.470990
O O12 0.582991 0.791496 0.381340
O O13 0.684882 0.766160 0.379718
O O14 0.584423 0.697246 0.234311
O O15 0.562843 0.663687 0.455751
O O16 0.893272 0.786544 0.866468
O O17 0.397159 0.992693 0.096200
O O18 0.470296 0.940591 0.524516
#
# Coordination Sequence:
#
# PCOD9585390 Si02
#       7
#    12  12  12  12  12  12  12
#     4   9  19  35  55  79 107 141 184 233 284 340
#     4  10  20  35  55  77 104 140 183 230 278 331
#     4  10  20  36  59  86 117 154 194 234 284 346
#     4  10  21  40  60  77 109 152 196 237 288 352
#     4   9  19  36  58  85 116 152 191 236 285 339
#     4  11  22  37  54  80 112 151 184 234 290 348
#     4  11  23  35  55  84 115 150 190 236 293 350
#
# _framework density 17.710947000000001
#
# number of rings (size 3 to 8) (size 9 to 14) (size 15 to 20)
#    0.000    2.000    1.429    3.286    2.000    2.857 
#    0.000    0.000    0.000    0.571    0.000    0.000 
#    0.000    0.000    0.000    0.000    0.000    0.000 
#
# Total GULP energy -468122.966024 kJ/mol
# GULP energy per Si atom -5572.892453 kJ/mol
# Density = 1.767064 g / cm^3
# Si number density = 17.710947 Si / 1000 Ang^3
#
#
#
# Elastic Constant Matrix: (Units=GPa)
#
#
# Indices 1 2 3 4 5 6 
#
# 1 69.4034 18.8538 39.0484 0.0000 0.0000 0.0000
# 2 18.8538 69.4034 39.0484 0.0000 0.0000 0.0000
# 3 39.0484 39.0484 70.1111 0.0000 0.0000 0.0000
# 4 0.0000 0.0000 0.0000 21.6149 0.0000 0.0000
# 5 0.0000 0.0000 0.0000 0.0000 21.6149 0.0000
# 6 0.0000 0.0000 0.0000 0.0000 0.0000 25.2748
#
#
#
# Elastic Compliance Matrix: (Units=1/GPa)
#
#
# Indices 1 2 3 4 5 6 
#
# 1 0.021062 0.001279 -0.012443 0.000000 0.000000 0.000000
# 2 0.001279 0.021062 -0.012443 0.000000 0.000000 0.000000
# 3 -0.012443 -0.012443 0.028123 0.000000 0.000000 0.000000
# 4 0.000000 0.000000 0.000000 0.046264 0.000000 0.000000
# 5 0.000000 0.000000 0.000000 0.000000 0.046264 0.000000
# 6 0.000000 0.000000 0.000000 0.000000 0.000000 0.039565
#
#
# Mechanical properties :
#
#
# Convention : Reuss Voigt Hill
#
# Bulk Modulus (GPa) = 43.41452 44.75766 44.08609
# Shear Modulus (GPa) = 19.43781 21.16543 20.30162
#
# Velocity S-wave (km/s) = 3.31645 3.46070 3.38934
# Velocity P-wave (km/s) = 6.26348 6.42609 6.34530
#
# Compressibility (1/GPa) = 0.02303377
#
# Stress axis : x y z
#
# Youngs Moduli (GPa) = 47.47960 47.47960 35.55802
#
# Poissons Ratio (x) = -0.06073 0.44244
# Poissons Ratio (y) = -0.06073 0.44244
# Poissons Ratio (z) = 0.59078 0.59078
#
# Static dielectric constant tensor:
#      x y z
#    x 1.709800 0.000000 0.000000 
#    y 0.000000 1.709800 0.000000 
#    z 0.000000 0.000000 1.621960 
# 
# From -- ./inp_files/1887.got.cif
#   From: 2010.05.17/outbox.cif.g08.bks.cpg/sg186_1_cif.got.tgz:1887.got - 2010.05.20 12:07:08.
