data_PCOD9585548
_publ_section_title
;
Structure prediction by ZEFSAII (Michael W. Deem and Ramdas Pophale) SiO2 
 PCOD9585548
Probable space group: P -6 M 2
;
_chemical_formula_sum "Si O2"
_cell_formula_units_Z 54
_cell_length_a 17.741896
_cell_length_b 17.741896
_cell_length_c 10.967688
_cell_angle_alpha 90.000000
_cell_angle_beta 90.000000
_cell_angle_gamma 120.000000
_cell_volume 2989.825058
_symmetry_space_group_name_H-M "P -6 M 2"
_symmetry_group_IT_number 187
_symmetry_cell_setting 'hexagonal'
loop_
_space_group_symop_operation_xyz
x,y,z
-x+y,-x,-z
-y,x-y,z
x,y,-z
-x+y,-x,z
-y,x-y,-z
-y,-x,-z
-x+y,y,-z
x,x-y,-z
-x+y,y,z
x,x-y,z
-y,-x,z
loop_
_atom_site_type_symbol
_atom_site_label
_atom_site_fract_x
_atom_site_fract_y
_atom_site_fract_z
Si Si1 0.665493 0.159657 0.146269
Si Si2 0.938598 0.701447 0.762502
Si Si3 0.513244 0.666291 0.134348
Si Si4 0.095176 0.724684 0.634117
Si Si5 0.180199 0.179886 0.000000
O O1 0.571352 0.142704 0.186430
O O2 0.740310 0.259691 0.169331
O O3 0.699883 0.099876 0.204472
O O4 0.662492 0.147206 0.000000
O O5 0.856259 0.712518 0.733274
O O6 0.008247 0.728323 0.656284
O O7 0.985184 0.761000 0.880839
O O8 0.501288 0.750644 0.138905
O O9 0.420716 0.579285 0.140696
O O10 0.570186 0.672904 0.250641
O O11 0.552204 0.667835 0.000000
O O12 0.095127 0.688348 0.500000
O O13 0.179691 0.820310 0.640408
O O14 0.093120 0.186240 0.000000
O O15 0.159009 0.079505 0.000000
#
# Coordination Sequence:
#
# PCOD9585548 Si02
#       5
#    12  12  12  12   6
#     4   9  16  28  47  74 108 142 175 213 260 313
#     4  10  20  34  52  76 104 136 177 222 271 324
#     4   9  18  33  55  82 111 144 183 224 265 311
#     4  10  22  38  54  76 106 141 180 220 268 326
#     4  10  19  32  51  76 104 134 170 218 275 332
#
# _framework density 18.061256
#
# number of rings (size 3 to 8) (size 9 to 14) (size 15 to 20)
#    0.000    2.444    1.111    1.222    1.556    3.556 
#    0.000    2.222    0.000    1.778    0.000    0.000 
#    0.000    1.778    0.000    0.000    0.000    0.000 
#
# Total GULP energy -301186.823676 kJ/mol
# GULP energy per Si atom -5577.533772 kJ/mol
# Density = 1.802015 g / cm^3
# Si number density = 18.061256 Si / 1000 Ang^3
#
#
#
# Elastic Constant Matrix: (Units=GPa)
#
#
# Indices 1 2 3 4 5 6 
#
# 1 61.8758 26.6033 39.2464 0.0000 0.0001 0.0000
# 2 26.6033 61.8758 39.2464 0.0000 -0.0001 0.0000
# 3 39.2464 39.2464 117.7475 0.0000 0.0000 0.0000
# 4 0.0000 0.0000 0.0000 15.2469 0.0000 -0.0001
# 5 0.0001 -0.0001 0.0000 0.0000 15.2469 0.0000
# 6 0.0000 0.0000 0.0000 -0.0001 0.0000 17.6363
#
#
#
# Elastic Compliance Matrix: (Units=1/GPa)
#
#
# Indices 1 2 3 4 5 6 
#
# 1 0.022199 -0.006152 -0.005349 0.000000 0.000000 0.000000
# 2 -0.006152 0.022199 -0.005349 0.000000 0.000000 0.000000
# 3 -0.005349 -0.005349 0.012058 0.000000 0.000000 0.000000
# 4 0.000000 0.000000 0.000000 0.065587 0.000000 0.000000
# 5 0.000000 0.000000 0.000000 0.000000 0.065587 0.000000
# 6 0.000000 0.000000 0.000000 0.000000 0.000000 0.056701
#
#
# Mechanical properties :
#
#
# Convention : Reuss Voigt Hill
#
# Bulk Modulus (GPa) = 43.94092 50.18792 47.06442
# Shear Modulus (GPa) = 17.50604 18.71955 18.11280
#
# Velocity S-wave (km/s) = 3.11667 3.22288 3.17022
# Velocity P-wave (km/s) = 6.11009 6.45734 6.28611
#
# Compressibility (1/GPa) = 0.02275783
#
# Stress axis : x y z
#
# Youngs Moduli (GPa) = 45.04730 45.04730 82.93061
#
# Poissons Ratio (x) = 0.27712 0.44357
# Poissons Ratio (y) = 0.27712 0.44357
# Poissons Ratio (z) = 0.24094 0.24094
#
# Static dielectric constant tensor:
#      x y z
#    x 1.617460 0.000000 0.000000 
#    y 0.000000 1.617460 0.000000 
#    z 0.000000 0.000000 1.625060 
# 
# From -- ./inp_files/1531.got.cif
#   From: 2010.05.17/outbox.cif.g08.bks.cpg/sg187_1_cif.got.tgz:1531.got - 2010.05.20 12:09:04.
