data_PCOD9585806
_publ_section_title
;
Structure prediction by ZEFSAII (Michael W. Deem and Ramdas Pophale) SiO2 
 PCOD9585806
Probable space group: P -6 M 2
;
_chemical_formula_sum "Si O2"
_cell_formula_units_Z 38
_cell_length_a 11.696227
_cell_length_b 11.696227
_cell_length_c 17.339708
_cell_angle_alpha 90.000000
_cell_angle_beta 90.000000
_cell_angle_gamma 120.000000
_cell_volume 2054.300578
_symmetry_space_group_name_H-M "P -6 M 2"
_symmetry_group_IT_number 187
_symmetry_cell_setting 'hexagonal'
loop_
_space_group_symop_operation_xyz
x,y,z
-x+y,-x,-z
-y,x-y,z
x,y,-z
-x+y,-x,z
-y,x-y,-z
-y,-x,-z
-x+y,y,-z
x,x-y,-z
-x+y,y,z
x,x-y,z
-y,-x,z
loop_
_atom_site_type_symbol
_atom_site_label
_atom_site_fract_x
_atom_site_fract_y
_atom_site_fract_z
Si Si1 0.599193 0.930377 0.169894
Si Si2 0.938859 0.605829 0.500000
Si Si3 0.666668 0.333334 0.906368
Si Si4 0.362482 0.181241 0.092217
Si Si5 0.938193 0.333677 0.331853
O O1 0.474820 0.949639 0.150151
O O2 0.565480 0.782740 0.153947
O O3 0.729793 0.034849 0.124534
O O4 0.631329 0.964249 0.260355
O O5 0.789656 0.579311 0.500000
O O6 0.938131 0.469066 0.500000
O O7 0.994856 0.667481 0.583835
O O8 0.742077 0.484154 0.880707
O O9 0.666667 0.333334 0.000000
O O10 0.358627 0.179314 0.000000
O O11 0.903731 0.451866 0.334797
O O12 0.805096 0.194905 0.318240
#
# Coordination Sequence:
#
# PCOD9585806 Si02
#       5
#    12   6   2   6  12
#     4  11  23  39  59  85 119 156 193 232 281 340
#     4   8  13  22  41  74 112 144 178 227 285 334
#     4   9  18  36  66  96 111 130 176 244 288 330
#     4  11  22  40  66  91 115 142 184 239 292 342
#     4   9  16  28  50  80 112 146 186 234 284 335
#
# _framework density 18.497779000000001
#
# number of rings (size 3 to 8) (size 9 to 14) (size 15 to 20)
#    0.000    2.211    3.158    0.789    0.000    3.158 
#    0.947    0.789    0.000    1.895    0.000    2.211 
#    0.000    0.000    0.000    0.000    0.000    0.000 
#
# Total GULP energy -211751.086321 kJ/mol
# GULP energy per Si atom -5572.397008 kJ/mol
# Density = 1.845568 g / cm^3
# Si number density = 18.497779 Si / 1000 Ang^3
#
#
#
# Elastic Constant Matrix: (Units=GPa)
#
#
# Indices 1 2 3 4 5 6 
#
# 1 59.6859 12.9324 21.1095 0.0000 -0.0001 0.0000
# 2 12.9324 59.6858 21.1094 0.0000 0.0001 0.0000
# 3 21.1095 21.1094 79.7919 0.0000 0.0000 0.0000
# 4 0.0000 0.0000 0.0000 11.7294 0.0000 0.0001
# 5 -0.0001 0.0001 0.0000 0.0000 11.7294 0.0000
# 6 0.0000 0.0000 0.0000 0.0001 0.0000 23.3767
#
#
#
# Elastic Compliance Matrix: (Units=1/GPa)
#
#
# Indices 1 2 3 4 5 6 
#
# 1 0.018831 -0.002558 -0.004305 0.000000 0.000000 0.000000
# 2 -0.002558 0.018831 -0.004305 0.000000 0.000000 0.000000
# 3 -0.004305 -0.004305 0.014811 0.000000 0.000000 0.000000
# 4 0.000000 0.000000 0.000000 0.085256 0.000000 0.000000
# 5 0.000000 0.000000 0.000000 0.000000 0.085256 0.000000
# 6 0.000000 0.000000 0.000000 0.000000 0.000000 0.042778
#
#
# Mechanical properties :
#
#
# Convention : Reuss Voigt Hill
#
# Bulk Modulus (GPa) = 33.18211 34.38513 33.78362
# Shear Modulus (GPa) = 16.77040 18.96793 17.86916
#
# Velocity S-wave (km/s) = 3.01427 3.20569 3.11145
# Velocity P-wave (km/s) = 5.48560 5.68604 5.58672
#
# Compressibility (1/GPa) = 0.03013672
#
# Stress axis : x y z
#
# Youngs Moduli (GPa) = 53.10330 53.10328 67.51926
#
# Poissons Ratio (x) = 0.13581 0.29069
# Poissons Ratio (y) = 0.13581 0.29069
# Poissons Ratio (z) = 0.22863 0.22863
#
# Static dielectric constant tensor:
#      x y z
#    x 1.605610 0.000000 0.000000 
#    y 0.000000 1.605610 0.000000 
#    z 0.000000 0.000000 1.694820 
# 
# From -- ./inp_files/2880.got.cif
#   From: 2010.05.17/outbox.cif.g08.bks.cpg/sg187_2_cif.got.tgz:2880.got - 2010.05.20 12:09:04.
