data_PCOD9585019
_publ_section_title
;
Structure prediction by ZEFSAII (Michael W. Deem and Ramdas Pophale) SiO2 
 PCOD9585019
Probable space group: P 6 M M
;
_chemical_formula_sum "Si O2"
_cell_formula_units_Z 96
_cell_length_a 18.228069
_cell_length_b 18.228069
_cell_length_c 20.517644
_cell_angle_alpha 90.000000
_cell_angle_beta 90.000000
_cell_angle_gamma 120.000000
_cell_volume 5903.906209
_symmetry_space_group_name_H-M "P 6 M M"
_symmetry_group_IT_number 183
_symmetry_cell_setting 'hexagonal'
loop_
_space_group_symop_operation_xyz
x,y,z
x-y,x,z
-y,x-y,z
-x,-y,z
-x+y,-x,z
y,-x+y,z
-x+y,y,z
x,x-y,z
-y,-x,z
y,x,z
x-y,-y,z
-x,-x+y,z
loop_
_atom_site_type_symbol
_atom_site_label
_atom_site_fract_x
_atom_site_fract_y
_atom_site_fract_z
Si Si1 0.634243 0.899142 0.312370
Si Si2 0.532184 0.897737 0.188693
Si Si3 0.264360 0.905933 0.690056
Si Si4 0.495438 0.333969 0.800528
Si Si5 0.502726 0.834909 0.581027
Si Si6 0.634018 0.100972 0.436698
Si Si7 0.635886 0.734157 0.066096
Si Si8 0.333845 0.495382 0.952571
O O1 0.670898 0.835449 0.308644
O O2 0.568005 0.877080 0.253192
O O3 0.581846 0.882506 0.379264
O O4 0.701670 0.000000 0.308635
O O5 0.431974 0.863947 0.188459
O O6 0.568249 0.875917 0.124918
O O7 0.577777 0.000000 0.188263
O O8 0.167101 0.832900 0.690588
O O9 0.308893 0.891215 0.752685
O O10 0.307783 0.889741 0.627404
O O11 0.281213 0.000000 0.689456
O O12 0.518380 0.259190 0.793758
O O13 0.576363 0.423638 0.783399
O O14 0.474511 0.336370 0.876538
O O15 0.425851 0.851701 0.594056
O O16 0.475089 0.737545 0.594456
O O17 0.526704 0.854541 0.505162
O O18 0.561812 0.123624 0.416468
O O19 0.584322 0.000000 0.448553
O O20 0.667861 0.833931 0.065080
O O21 0.706483 0.706483 0.074656
O O22 0.583217 0.692863 0.000143
O O23 0.259699 0.519398 0.958707
O O24 0.424424 0.575577 0.969840
#
# Coordination Sequence:
#
# PCOD9585019 Si02
#       8
#    12  12  12  12  12  12  12  12
#     4  10  19  31  48  69  93 122 158 198 238 279
#     4   9  17  30  49  71  93 117 145 178 218 267
#     4  10  21  35  50  68  90 117 150 190 234 276
#     4   9  17  29  46  69  98 130 160 187 217 258
#     4  10  19  30  45  67  97 130 160 187 217 258
#     4   9  17  29  46  67  90 119 156 196 234 271
#     4  10  20  33  49  69  93 122 157 196 237 279
#     4   9  17  29  46  69  97 128 159 190 224 264
#
# _framework density 16.26042
#
# number of rings (size 3 to 8) (size 9 to 14) (size 15 to 20)
#    0.000    2.500    0.000    2.625    0.000    5.250 
#    0.000    2.500    0.000    6.375    0.000    0.000 
#    0.000    3.000    0.000   10.250    0.000    0.000 
#
# Total GULP energy -535273.749103 kJ/mol
# GULP energy per Si atom -5575.768220 kJ/mol
# Density = 1.622341 g / cm^3
# Si number density = 16.260420 Si / 1000 Ang^3
#
#
#
# Elastic Constant Matrix: (Units=GPa)
#
#
# Indices 1 2 3 4 5 6 
#
# 1 80.1062 58.1033 35.6336 0.0000 0.0000 0.0000
# 2 58.1033 80.1062 35.6336 0.0000 0.0000 0.0000
# 3 35.6336 35.6336 59.3722 0.0000 0.0000 0.0000
# 4 0.0000 0.0000 0.0000 17.4988 0.0000 0.0000
# 5 0.0000 0.0000 0.0000 0.0000 17.4988 0.0000
# 6 0.0000 0.0000 0.0000 0.0000 0.0000 11.0014
#
#
#
# Elastic Compliance Matrix: (Units=1/GPa)
#
#
# Indices 1 2 3 4 5 6 
#
# 1 0.027963 -0.017485 -0.006289 0.000000 0.000000 0.000000
# 2 -0.017485 0.027963 -0.006289 0.000000 0.000000 0.000000
# 3 -0.006289 -0.006289 0.024392 0.000000 0.000000 0.000000
# 4 0.000000 0.000000 0.000000 0.057147 0.000000 0.000000
# 5 0.000000 0.000000 0.000000 0.000000 0.057147 0.000000
# 6 0.000000 0.000000 0.000000 0.000000 0.000000 0.090897
#
#
# Mechanical properties :
#
#
# Convention : Reuss Voigt Hill
#
# Bulk Modulus (GPa) = 49.52213 53.14730 51.33472
# Shear Modulus (GPa) = 14.18982 15.21407 14.70194
#
# Velocity S-wave (km/s) = 2.95729 3.06216 3.01018
# Velocity P-wave (km/s) = 6.49480 6.72744 6.61214
#
# Compressibility (1/GPa) = 0.02019299
#
# Stress axis : x y z
#
# Youngs Moduli (GPa) = 35.76108 35.76108 40.99784
#
# Poissons Ratio (x) = 0.62529 0.25782
# Poissons Ratio (y) = 0.62529 0.25782
# Poissons Ratio (z) = 0.22489 0.22489
#
# Static dielectric constant tensor:
#      x y z
#    x 1.538240 0.000000 0.000000 
#    y 0.000000 1.538240 0.000000 
#    z 0.000000 0.000000 1.556980 
# 
# From -- ./inp_files/3040.got.cif
#   From: 2010.05.17/outbox.cif.g08.bks.cpg/sg183_2_cif.got.tgz:3040.got - 2010.05.20 12:02:58.
