data_PCOD9585933
_publ_section_title
;
Structure prediction by ZEFSAII (Michael W. Deem and Ramdas Pophale) SiO2 
 PCOD9585933
Probable space group: P -6 C 2
;
_chemical_formula_sum "Si O2"
_cell_formula_units_Z 34
_cell_length_a 6.923502
_cell_length_b 6.923502
_cell_length_c 35.631851
_cell_angle_alpha 90.000000
_cell_angle_beta 90.000000
_cell_angle_gamma 120.000000
_cell_volume 1479.178751
_symmetry_space_group_name_H-M "P -6 C 2"
_symmetry_group_IT_number 188
_symmetry_cell_setting 'hexagonal'
loop_
_space_group_symop_operation_xyz
x,y,z
-x+y,-x,1/2-z
-y,x-y,z
x,y,1/2-z
-x+y,-x,z
-y,x-y,1/2-z
-y,-x,-z
-x+y,y,-z
x,x-y,-z
-x+y,y,1/2+z
x,x-y,1/2+z
-y,-x,1/2+z
loop_
_atom_site_type_symbol
_atom_site_label
_atom_site_fract_x
_atom_site_fract_y
_atom_site_fract_z
Si Si1 0.333335 0.666668 0.544390
Si Si2 0.212093 0.279195 0.096927
Si Si3 0.606566 0.552068 0.673509
Si Si4 0.062544 0.279283 0.750000
O O1 0.333334 0.666667 0.500000
O O2 0.553115 0.681401 0.562731
O O3 0.321913 0.396378 0.136193
O O4 0.944489 0.174291 0.095204
O O5 0.439997 0.286912 0.673098
O O6 0.596939 0.665636 0.711911
O O7 0.227380 0.179008 0.750000
#
# Coordination Sequence:
#
# PCOD9585933 Si02
#       4
#     4  12  12   6
#     4  12  27  48  75 109 140 178 231 288 369 450
#     4  10  23  44  72 101 142 182 231 290 348 425
#     4  10  20  35  65  95 135 189 247 290 344 413
#     4  10  20  32  54  90 140 194 244 292 350 400
#
# _framework density 22.985727000000001
#
# number of rings (size 3 to 8) (size 9 to 14) (size 15 to 20)
#    1.765    0.000    0.000    5.294    0.000    1.412 
#    2.118    0.000    0.000    9.882    0.000    0.000 
#    0.000    0.000    0.000    0.000    0.000    0.000 
#
# Total GULP energy -189896.958119 kJ/mol
# GULP energy per Si atom -5585.204651 kJ/mol
# Density = 2.293341 g / cm^3
# Si number density = 22.985727 Si / 1000 Ang^3
#
#
#
# Elastic Constant Matrix: (Units=GPa)
#
#
# Indices 1 2 3 4 5 6 
#
# 1 99.8195 24.2907 62.0728 0.0001 -0.0001 -0.0001
# 2 24.2907 99.8191 62.0723 0.0000 0.0000 0.0000
# 3 62.0728 62.0723 260.3490 0.0003 0.0000 -0.0002
# 4 0.0001 0.0000 0.0003 34.5994 0.0000 0.0000
# 5 -0.0001 0.0000 0.0000 0.0000 34.5994 0.0000
# 6 -0.0001 0.0000 -0.0002 0.0000 0.0000 37.7645
#
#
#
# Elastic Compliance Matrix: (Units=1/GPa)
#
#
# Indices 1 2 3 4 5 6 
#
# 1 0.011910 -0.001330 -0.002523 0.000000 0.000000 0.000000
# 2 -0.001330 0.011910 -0.002523 0.000000 0.000000 0.000000
# 3 -0.002523 -0.002523 0.005044 0.000000 0.000000 0.000000
# 4 0.000000 0.000000 0.000000 0.028902 0.000000 0.000000
# 5 0.000000 0.000000 0.000000 0.000000 0.028902 0.000000
# 6 0.000000 0.000000 0.000000 0.000000 0.000000 0.026480
#
#
# Mechanical properties :
#
#
# Convention : Reuss Voigt Hill
#
# Bulk Modulus (GPa) = 62.05498 84.09546 73.07522
# Shear Modulus (GPa) = 38.08927 42.16278 40.12602
#
# Velocity S-wave (km/s) = 4.07515 4.28752 4.18268
# Velocity P-wave (km/s) = 7.01414 7.82150 7.42880
#
# Compressibility (1/GPa) = 0.01611474
#
# Stress axis : x y z
#
# Youngs Moduli (GPa) = 83.96041 83.96030 198.25889
#
# Poissons Ratio (x) = 0.11164 0.50014
# Poissons Ratio (y) = 0.11164 0.50014
# Poissons Ratio (z) = 0.21181 0.21180
#
# Static dielectric constant tensor:
#      x y z
#    x 1.912240 0.000000 0.000000 
#    y 0.000000 1.912240 0.000000 
#    z 0.000000 0.000000 1.754620 
# 
# From -- ./inp_files/4190.got.cif
#   From: 2010.05.17/outbox.cif.g08.bks.cpg/sg188_3_cif.got.tgz:4190.got - 2010.05.20 12:11:46.
