data_PCOD9585701
_publ_section_title
;
Structure prediction by ZEFSAII (Michael W. Deem and Ramdas Pophale) SiO2 
 PCOD9585701
Probable space group: P -6 M 2
;
_chemical_formula_sum "Si O2"
_cell_formula_units_Z 72
_cell_length_a 12.784565
_cell_length_b 12.784565
_cell_length_c 31.317374
_cell_angle_alpha 90.000000
_cell_angle_beta 90.000000
_cell_angle_gamma 120.000000
_cell_volume 4432.899462
_symmetry_space_group_name_H-M "P -6 M 2"
_symmetry_group_IT_number 187
_symmetry_cell_setting 'hexagonal'
loop_
_space_group_symop_operation_xyz
x,y,z
-x+y,-x,-z
-y,x-y,z
x,y,-z
-x+y,-x,z
-y,x-y,-z
-y,-x,-z
-x+y,y,-z
x,x-y,-z
-x+y,y,z
x,x-y,z
-y,-x,z
loop_
_atom_site_type_symbol
_atom_site_label
_atom_site_fract_x
_atom_site_fract_y
_atom_site_fract_z
Si Si1 0.000022 0.247621 0.340473
Si Si2 0.248048 0.000434 0.500000
Si Si3 0.333777 0.418104 0.918141
Si Si4 0.753397 0.753254 0.242250
Si Si5 0.666340 0.084849 0.163149
Si Si6 0.915969 0.582141 0.000000
Si Si7 0.418799 0.085158 0.581144
O O1 0.126286 0.252571 0.348232
O O2 0.998321 0.284254 0.291311
O O3 0.974700 0.324222 0.374893
O O4 0.890092 0.109909 0.345117
O O5 0.216989 0.108495 0.500000
O O6 0.328541 0.019935 0.541827
O O7 0.127570 0.872431 0.500000
O O8 0.205586 0.411172 0.920035
O O9 0.442827 0.557174 0.919144
O O10 0.350663 0.359336 0.875136
O O11 0.355949 0.353258 0.958353
O O12 0.744314 0.872157 0.234194
O O13 0.680446 0.650903 0.207487
O O14 0.892516 0.785032 0.238832
O O15 0.553589 0.107177 0.164714
O O16 0.790040 0.209961 0.155601
O O17 0.794169 0.588338 0.000000
O O18 0.885897 0.442949 0.000000
O O19 0.540364 0.080727 0.576652
O O20 0.446388 0.223194 0.581029
#
# Coordination Sequence:
#
# PCOD9585701 Si02
#       7
#    12   6  12  12  12   6  12
#     4   9  17  30  50  74  98 125 159 202 248 290
#     4  10  20  34  54  78 100 122 152 196 246 290
#     4  10  20  34  53  75  99 128 163 204 246 288
#     4   9  17  30  49  73  99 127 160 199 245 294
#     4  10  20  33  50  72  99 131 165 202 244 291
#     4  10  20  34  54  78 104 134 166 200 238 284
#     4  10  20  33  50  72  99 131 164 197 235 282
#
# _framework density 16.242191999999999
#
# number of rings (size 3 to 8) (size 9 to 14) (size 15 to 20)
#    0.000    2.333    0.000    3.000    0.000    2.000 
#    0.000    5.000    0.000   12.667    0.000    0.000 
#    0.000    0.000    0.000    0.000    0.000    0.000 
#
# Total GULP energy -401675.917097 kJ/mol
# GULP energy per Si atom -5578.832182 kJ/mol
# Density = 1.620522 g / cm^3
# Si number density = 16.242192 Si / 1000 Ang^3
#
#
#
# Elastic Constant Matrix: (Units=GPa)
#
#
# Indices 1 2 3 4 5 6 
#
# 1 119.1265 83.3767 79.0702 0.0000 0.0004 0.0000
# 2 83.3767 119.1265 79.0702 0.0000 -0.0004 0.0000
# 3 79.0702 79.0702 121.6524 0.0000 0.0000 0.0000
# 4 0.0000 0.0000 0.0000 20.5158 0.0000 -0.0004
# 5 0.0004 -0.0004 0.0000 0.0000 20.5158 0.0000
# 6 0.0000 0.0000 0.0000 -0.0004 0.0000 17.8749
#
#
#
# Elastic Compliance Matrix: (Units=1/GPa)
#
#
# Indices 1 2 3 4 5 6 
#
# 1 0.019000 -0.008972 -0.006518 0.000000 -0.000001 0.000000
# 2 -0.008972 0.019000 -0.006518 0.000000 0.000001 0.000000
# 3 -0.006518 -0.006518 0.016693 0.000000 0.000000 0.000000
# 4 0.000000 0.000000 0.000000 0.048743 0.000000 0.000001
# 5 -0.000001 0.000001 0.000000 0.000000 0.048743 0.000000
# 6 0.000000 0.000000 0.000000 0.000001 0.000000 0.055944
#
#
# Mechanical properties :
#
#
# Convention : Reuss Voigt Hill
#
# Bulk Modulus (GPa) = 93.65452 93.65996 93.65724
# Shear Modulus (GPa) = 19.55422 19.67388 19.61405
#
# Velocity S-wave (km/s) = 3.47351 3.48412 3.47882
# Velocity P-wave (km/s) = 8.59497 8.60089 8.59793
#
# Compressibility (1/GPa) = 0.01067754
#
# Stress axis : x y z
#
# Youngs Moduli (GPa) = 52.63084 52.63084 59.90434
#
# Poissons Ratio (x) = 0.47220 0.39046
# Poissons Ratio (y) = 0.47220 0.39046
# Poissons Ratio (z) = 0.34305 0.34305
#
# Static dielectric constant tensor:
#      x y z
#    x 1.511250 0.000000 0.000000 
#    y 0.000000 1.511250 0.000000 
#    z 0.000000 0.000000 1.549340 
# 
# From -- ./inp_files/4585.got.cif
#   From: 2010.05.17/outbox.cif.g08.bks.cpg/sg187_3_cif.got.tgz:4585.got - 2010.05.20 12:09:04.
