data_PCOD9585854
_publ_section_title
;
Structure prediction by ZEFSAII (Michael W. Deem and Ramdas Pophale) SiO2 
 PCOD9585854
Probable space group: P -6 C 2
;
_chemical_formula_sum "Si O2"
_cell_formula_units_Z 78
_cell_length_a 24.255417
_cell_length_b 24.255417
_cell_length_c 9.264061
_cell_angle_alpha 90.000000
_cell_angle_beta 90.000000
_cell_angle_gamma 120.000000
_cell_volume 4720.081838
_symmetry_space_group_name_H-M "P -6 C 2"
_symmetry_group_IT_number 188
_symmetry_cell_setting 'hexagonal'
loop_
_space_group_symop_operation_xyz
x,y,z
-x+y,-x,1/2-z
-y,x-y,z
x,y,1/2-z
-x+y,-x,z
-y,x-y,1/2-z
-y,-x,-z
-x+y,y,-z
x,x-y,-z
-x+y,y,1/2+z
x,x-y,1/2+z
-y,-x,1/2+z
loop_
_atom_site_type_symbol
_atom_site_label
_atom_site_fract_x
_atom_site_fract_y
_atom_site_fract_z
Si Si1 0.863422 0.254416 0.076311
Si Si2 0.500053 0.396245 0.580291
Si Si3 0.418976 0.442997 0.410716
Si Si4 0.650237 0.768719 0.080870
Si Si5 0.993022 0.695213 0.086053
Si Si6 0.508082 0.857401 0.590280
Si Si7 0.404545 0.662752 0.250000
O O1 0.863920 0.246312 0.250000
O O2 0.865648 0.321518 0.049058
O O3 0.802960 0.197041 0.000000
O O4 0.927206 0.262923 0.001109
O O5 0.509348 0.404346 0.750000
O O6 0.567336 0.432665 0.500000
O O7 0.461271 0.430098 0.523019
O O8 0.446792 0.461015 0.250000
O O9 0.358347 0.372302 0.400780
O O10 0.395011 0.489902 0.468741
O O11 0.662976 0.778553 0.250000
O O12 0.574536 0.716243 0.067217
O O13 0.660435 0.830218 0.000000
O O14 0.696072 0.746925 0.007751
O O15 0.987302 0.713937 0.250000
O O16 0.514612 0.887908 0.750000
O O17 0.447136 0.786827 0.616200
O O18 0.330175 0.605985 0.250000
#
# Coordination Sequence:
#
# PCOD9585854 Si02
#       7
#    12  12  12  12  12  12   6
#     4  10  20  34  54  79 107 143 179 209 243 295
#     4  10  20  33  52  77 110 138 164 206 257 299
#     4   9  16  28  50  75 102 126 154 200 261 320
#     4  10  18  29  48  74 100 125 163 208 267 324
#     4   9  17  30  49  75 106 135 164 207 250 300
#     4   8  16  30  51  73  88 116 158 209 259 319
#     4   8  16  32  60  72  78 112 168 214 270 322
#
# _framework density 16.525137000000001
#
# number of rings (size 3 to 8) (size 9 to 14) (size 15 to 20)
#    0.615    2.154    0.000    2.308    0.000    6.154 
#    0.000    0.000   10.154    1.231    0.000    0.000 
#    0.000    0.000    0.000    0.462    0.000    6.462 
#
# Total GULP energy -434303.184900 kJ/mol
# GULP energy per Si atom -5567.989550 kJ/mol
# Density = 1.648753 g / cm^3
# Si number density = 16.525137 Si / 1000 Ang^3
#
#
#
# Elastic Constant Matrix: (Units=GPa)
#
#
# Indices 1 2 3 4 5 6 
#
# 1 85.5626 68.1916 64.6199 0.0004 0.0000 0.0000
# 2 68.1916 85.5626 64.6199 -0.0004 0.0000 0.0000
# 3 64.6199 64.6199 119.0076 0.0000 0.0000 0.0000
# 4 0.0004 -0.0004 0.0000 23.7396 0.0000 0.0000
# 5 0.0000 0.0000 0.0000 0.0000 23.7396 0.0004
# 6 0.0000 0.0000 0.0000 0.0000 0.0004 8.6855
#
#
#
# Elastic Compliance Matrix: (Units=1/GPa)
#
#
# Indices 1 2 3 4 5 6 
#
# 1 0.034766 -0.022801 -0.006497 -0.000001 0.000000 0.000000
# 2 -0.022801 0.034766 -0.006497 0.000001 0.000000 0.000000
# 3 -0.006497 -0.006497 0.015458 0.000000 0.000000 0.000000
# 4 -0.000001 0.000001 0.000000 0.042124 0.000000 0.000000
# 5 0.000000 0.000000 0.000000 0.000000 0.042124 -0.000002
# 6 0.000000 0.000000 0.000000 0.000000 -0.000002 0.115134
#
#
# Mechanical properties :
#
#
# Convention : Reuss Voigt Hill
#
# Bulk Modulus (GPa) = 74.62278 76.11063 75.36670
# Shear Modulus (GPa) = 13.87240 17.41304 15.64272
#
# Velocity S-wave (km/s) = 2.90051 3.24964 3.08003
# Velocity P-wave (km/s) = 7.51481 7.76130 7.63905
#
# Compressibility (1/GPa) = 0.01340073
#
# Stress axis : x y z
#
# Youngs Moduli (GPa) = 28.76377 28.76377 64.69065
#
# Poissons Ratio (x) = 0.65585 0.42028
# Poissons Ratio (y) = 0.65585 0.42028
# Poissons Ratio (z) = 0.18687 0.18687
#
# Static dielectric constant tensor:
#      x y z
#    x 1.530920 0.000000 0.000000 
#    y 0.000000 1.530920 0.000000 
#    z 0.000000 0.000000 1.586010 
# 
# From -- ./inp_files/1184.got.cif
#   From: 2010.05.17/outbox.cif.g08.bks.cpg/sg188_1_cif.got.tgz:1184.got - 2010.05.20 12:11:46.
