data_PCOD9585267
_publ_section_title
;
Structure prediction by ZEFSAII (Michael W. Deem and Ramdas Pophale) SiO2 
 PCOD9585267
Probable space group: P 63 C M
;
_chemical_formula_sum "Si O2"
_cell_formula_units_Z 84
_cell_length_a 14.682577
_cell_length_b 14.682577
_cell_length_c 23.569306
_cell_angle_alpha 90.000000
_cell_angle_beta 90.000000
_cell_angle_gamma 120.000000
_cell_volume 4400.297105
_symmetry_space_group_name_H-M "P 63 C M"
_symmetry_group_IT_number 185
_symmetry_cell_setting 'hexagonal'
loop_
_space_group_symop_operation_xyz
x,y,z
x-y,x,1/2+z
-y,x-y,z
-x,-y,1/2+z
-x+y,-x,z
y,-x+y,1/2+z
-x+y,y,1/2+z
x,x-y,1/2+z
-y,-x,1/2+z
y,x,z
x-y,-y,z
-x,-x+y,z
loop_
_atom_site_type_symbol
_atom_site_label
_atom_site_fract_x
_atom_site_fract_y
_atom_site_fract_z
Si Si1 0.196087 0.599710 0.311010
Si Si2 0.123716 0.654912 0.919814
Si Si3 0.261429 0.788915 0.123119
Si Si4 0.114481 0.541291 0.688045
Si Si5 0.884191 0.228831 0.945965
Si Si6 0.591612 0.121443 0.519630
Si Si7 0.124364 0.248805 0.563981
O O1 0.276031 0.553790 0.307543
O O2 0.143444 0.554248 0.371314
O O3 0.126710 0.575707 0.255706
O O4 0.178182 0.779027 0.908991
O O5 0.000000 0.607071 0.924108
O O6 0.159066 0.632545 0.981004
O O7 0.201254 0.678664 0.156432
O O8 0.347624 0.869372 0.166926
O O9 0.337343 0.803177 0.069659
O O10 0.180423 0.823271 0.099613
O O11 0.000000 0.448804 0.672473
O O12 0.000000 0.271542 0.919580
O O13 0.887617 0.327807 0.977301
O O14 0.868675 0.149465 0.997505
O O15 0.513370 0.000000 0.540080
O O16 0.181325 0.181325 0.577311
O O17 0.000000 0.183724 0.573508
#
# Coordination Sequence:
#
# PCOD9585267 Si02
#       7
#    12  12  12  12  12  12  12
#     4  10  21  41  58  82 116 153 200 250 303 359
#     4  11  21  35  59  89 117 154 205 249 302 372
#     4  11  22  39  55  88 125 154 196 251 299 370
#     4  12  23  40  64  85 116 164 207 249 307 371
#     4   9  19  36  53  78 120 156 191 242 298 360
#     4   9  20  35  53  83 120 158 191 233 297 360
#     4  10  20  36  57  83 118 159 203 250 300 356
#
# _framework density 19.08962
#
# number of rings (size 3 to 8) (size 9 to 14) (size 15 to 20)
#    0.286    1.429    1.429    4.714    4.000    0.000 
#    0.857    0.714    0.000    0.286    0.000    0.000 
#    0.000    0.000    0.000    0.000    0.000    0.000 
#
# Total GULP energy -468272.701009 kJ/mol
# GULP energy per Si atom -5574.675012 kJ/mol
# Density = 1.904617 g / cm^3
# Si number density = 19.089620 Si / 1000 Ang^3
#
#
#
# Elastic Constant Matrix: (Units=GPa)
#
#
# Indices 1 2 3 4 5 6 
#
# 1 77.0011 35.6524 36.8213 0.0000 0.0000 0.0000
# 2 35.6524 77.0011 36.8213 0.0000 0.0000 0.0000
# 3 36.8213 36.8213 87.2060 0.0000 0.0000 0.0000
# 4 0.0000 0.0000 0.0000 13.7401 0.0000 0.0000
# 5 0.0000 0.0000 0.0000 0.0000 13.7401 0.0000
# 6 0.0000 0.0000 0.0000 0.0000 0.0000 20.6743
#
#
#
# Elastic Compliance Matrix: (Units=1/GPa)
#
#
# Indices 1 2 3 4 5 6 
#
# 1 0.018223 -0.005962 -0.005177 0.000000 0.000000 0.000000
# 2 -0.005962 0.018223 -0.005177 0.000000 0.000000 0.000000
# 3 -0.005177 -0.005177 0.015839 0.000000 0.000000 0.000000
# 4 0.000000 0.000000 0.000000 0.072780 0.000000 0.000000
# 5 0.000000 0.000000 0.000000 0.000000 0.072780 0.000000
# 6 0.000000 0.000000 0.000000 0.000000 0.000000 0.048369
#
#
# Mechanical properties :
#
#
# Convention : Reuss Voigt Hill
#
# Bulk Modulus (GPa) = 50.88303 51.08869 50.98586
# Shear Modulus (GPa) = 17.51955 18.42513 17.97234
#
# Velocity S-wave (km/s) = 3.03273 3.11012 3.07167
# Velocity P-wave (km/s) = 6.24307 6.30221 6.27271
#
# Compressibility (1/GPa) = 0.01965292
#
# Stress axis : x y z
#
# Youngs Moduli (GPa) = 54.87628 54.87628 63.13564
#
# Poissons Ratio (x) = 0.32716 0.32685
# Poissons Ratio (y) = 0.32716 0.32685
# Poissons Ratio (z) = 0.28410 0.28410
#
# Static dielectric constant tensor:
#      x y z
#    x 1.681160 0.000000 0.000000 
#    y 0.000000 1.681160 0.000000 
#    z 0.000000 0.000000 1.701020 
# 
# From -- ./inp_files/2078.got.cif
#   From: 2010.05.17/outbox.cif.g08.bks.cpg/sg185_cif.got.tgz:2078.got - 2010.05.20 12:05:34.
