data_PCOD9585399
_publ_section_title
;
Structure prediction by ZEFSAII (Michael W. Deem and Ramdas Pophale) SiO2 
 PCOD9585399
Probable space group: P 63 M C
;
_chemical_formula_sum "Si O2"
_cell_formula_units_Z 84
_cell_length_a 17.548248
_cell_length_b 17.548248
_cell_length_c 15.637356
_cell_angle_alpha 90.000000
_cell_angle_beta 90.000000
_cell_angle_gamma 120.000000
_cell_volume 4170.244152
_symmetry_space_group_name_H-M "P 63 M C"
_symmetry_group_IT_number 186
_symmetry_cell_setting 'hexagonal'
loop_
_space_group_symop_operation_xyz
x,y,z
x-y,x,1/2+z
-y,x-y,z
-x,-y,1/2+z
-x+y,-x,z
y,-x+y,1/2+z
-x+y,y,z
x,x-y,z
-y,-x,z
y,x,1/2+z
x-y,-y,1/2+z
-x,-x+y,1/2+z
loop_
_atom_site_type_symbol
_atom_site_label
_atom_site_fract_x
_atom_site_fract_y
_atom_site_fract_z
Si Si1 0.495470 0.333038 0.839970
Si Si2 0.023250 0.303238 0.093572
Si Si3 0.303806 0.061671 0.274800
Si Si4 0.819504 0.821149 0.937086
Si Si5 0.578595 0.592760 0.475572
Si Si6 0.163834 0.667606 0.136376
Si Si7 0.847362 0.513069 0.361073
O O1 0.471561 0.235781 0.864332
O O2 0.597675 0.402326 0.858071
O O3 0.440341 0.366050 0.892504
O O4 0.484868 0.336641 0.738574
O O5 0.111103 0.397594 0.101449
O O6 0.994340 0.267402 0.188533
O O7 0.960863 0.334268 0.047392
O O8 0.023632 0.234816 0.026019
O O9 0.291771 0.145886 0.263190
O O10 0.407826 0.101858 0.292945
O O11 0.246205 0.012458 0.358947
O O12 0.905481 0.810962 0.938727
O O13 0.844934 0.922467 0.924403
O O14 0.485321 0.514680 0.506144
O O15 0.635833 0.549643 0.441763
O O16 0.138967 0.569484 0.108685
O O17 0.266528 0.733473 0.120310
O O18 0.752487 0.504974 0.377482
O O19 0.838492 0.419246 0.337966
#
# Coordination Sequence:
#
# PCOD9585399 Si02
#       7
#    12  12  12  12  12  12  12
#     4   9  18  34  57  87 122 165 213 262 314 369
#     4  12  23  39  64  97 126 165 205 258 311 369
#     4  10  23  43  65  93 127 163 207 259 313 372
#     4  11  25  46  70  95 125 160 203 253 312 378
#     4  10  21  36  56  85 125 167 208 257 314 371
#     4  10  21  36  58  88 127 170 213 258 309 365
#     4  10  20  38  62  89 123 166 215 265 314 368
#
# _framework density 20.142704999999999
#
# number of rings (size 3 to 8) (size 9 to 14) (size 15 to 20)
#    0.000    1.714    1.429    2.714    0.000    6.286 
#    0.000    0.000    0.000    3.429    0.000    5.000 
#    0.000    0.000    0.000    0.000    0.000    0.000 
#
# Total GULP energy -468724.093410 kJ/mol
# GULP energy per Si atom -5580.048731 kJ/mol
# Density = 2.009686 g / cm^3
# Si number density = 20.142705 Si / 1000 Ang^3
#
#
#
# Elastic Constant Matrix: (Units=GPa)
#
#
# Indices 1 2 3 4 5 6 
#
# 1 112.7209 57.9736 50.3700 0.0000 0.0000 0.0000
# 2 57.9736 112.7209 50.3700 0.0000 0.0000 0.0000
# 3 50.3700 50.3700 99.8558 0.0000 0.0000 0.0000
# 4 0.0000 0.0000 0.0000 14.8711 0.0000 0.0000
# 5 0.0000 0.0000 0.0000 0.0000 14.8711 0.0000
# 6 0.0000 0.0000 0.0000 0.0000 0.0000 27.3736
#
#
#
# Elastic Compliance Matrix: (Units=1/GPa)
#
#
# Indices 1 2 3 4 5 6 
#
# 1 0.013304 -0.004962 -0.004208 0.000000 0.000000 0.000000
# 2 -0.004962 0.013304 -0.004208 0.000000 0.000000 0.000000
# 3 -0.004208 -0.004208 0.014260 0.000000 0.000000 0.000000
# 4 0.000000 0.000000 0.000000 0.067244 0.000000 0.000000
# 5 0.000000 0.000000 0.000000 0.000000 0.067244 0.000000
# 6 0.000000 0.000000 0.000000 0.000000 0.000000 0.036531
#
#
# Mechanical properties :
#
#
# Convention : Reuss Voigt Hill
#
# Bulk Modulus (GPa) = 70.86273 71.41387 71.13830
# Shear Modulus (GPa) = 20.54682 22.52877 21.53779
#
# Velocity S-wave (km/s) = 3.19731 3.34796 3.27350
# Velocity P-wave (km/s) = 6.99193 7.10465 7.04852
#
# Compressibility (1/GPa) = 0.01411179
#
# Stress axis : x y z
#
# Youngs Moduli (GPa) = 75.16667 75.16667 70.12854
#
# Poissons Ratio (x) = 0.37298 0.29509
# Poissons Ratio (y) = 0.37298 0.29509
# Poissons Ratio (z) = 0.31629 0.31629
#
# Static dielectric constant tensor:
#      x y z
#    x 1.723920 0.000000 0.000000 
#    y 0.000000 1.723920 0.000000 
#    z 0.000000 0.000000 1.721890 
# 
# From -- ./inp_files/2557.got.cif
#   From: 2010.05.17/outbox.cif.g08.bks.cpg/sg186_2_cif.got.tgz:2557.got - 2010.05.20 12:07:08.
