data_PCOD9585636
_publ_section_title
;
Structure prediction by ZEFSAII (Michael W. Deem and Ramdas Pophale) SiO2 
 PCOD9585636
Probable space group: P -6 M 2
;
_chemical_formula_sum "Si O2"
_cell_formula_units_Z 66
_cell_length_a 12.833712
_cell_length_b 12.833712
_cell_length_c 29.064561
_cell_angle_alpha 90.000000
_cell_angle_beta 90.000000
_cell_angle_gamma 120.000000
_cell_volume 4145.710558
_symmetry_space_group_name_H-M "P -6 M 2"
_symmetry_group_IT_number 187
_symmetry_cell_setting 'hexagonal'
loop_
_space_group_symop_operation_xyz
x,y,z
-x+y,-x,-z
-y,x-y,z
x,y,-z
-x+y,-x,z
-y,x-y,-z
-y,-x,-z
-x+y,y,-z
x,x-y,-z
-x+y,y,z
x,x-y,z
-y,-x,z
loop_
_atom_site_type_symbol
_atom_site_label
_atom_site_fract_x
_atom_site_fract_y
_atom_site_fract_z
Si Si1 0.666609 0.085311 0.275152
Si Si2 0.333246 0.913096 0.447316
Si Si3 0.333902 0.914944 0.812635
Si Si4 0.999378 0.247071 0.000000
Si Si5 0.752875 0.752302 0.637401
Si Si6 0.249819 0.000665 0.899050
O O1 0.549240 0.098480 0.281218
O O2 0.785280 0.214721 0.268570
O O3 0.688400 0.025101 0.319932
O O4 0.643494 0.001150 0.230940
O O5 0.331696 0.952031 0.500000
O O6 0.459761 0.919522 0.439251
O O7 0.224760 0.775240 0.443634
O O8 0.306788 0.986692 0.409368
O O9 0.447804 0.895607 0.816756
O O10 0.211633 0.788368 0.806436
O O11 0.318791 0.976512 0.858488
O O12 0.992992 0.297694 0.950091
O O13 0.123959 0.247917 0.000000
O O14 0.889575 0.110426 0.000000
O O15 0.886842 0.773684 0.634295
O O16 0.754987 0.877494 0.644341
O O17 0.247247 0.123624 0.891742
O O18 0.113522 0.886479 0.898990
#
# Coordination Sequence:
#
# PCOD9585636 Si02
#       6
#    12  12  12   6  12  12
#     4  10  20  34  52  72  93 118 151 193 239 284
#     4   9  17  30  49  72  96 122 154 193 234 272
#     4  10  20  33  48  66  91 123 157 191 227 271
#     4   8  13  22  39  64  92 118 144 178 222 270
#     4  10  20  33  49  70  97 128 159 190 227 274
#     4   9  16  27  45  69  94 118 146 183 228 274
#
# _framework density 15.920068000000001
#
# number of rings (size 3 to 8) (size 9 to 14) (size 15 to 20)
#    0.000    2.545    0.000    2.636    0.000    2.545 
#    0.000    0.455    0.000   13.455    0.000    1.273 
#    0.000    0.000    0.000    0.000    0.000    0.000 
#
# Total GULP energy -367754.296189 kJ/mol
# GULP energy per Si atom -5572.034791 kJ/mol
# Density = 1.588383 g / cm^3
# Si number density = 15.920068 Si / 1000 Ang^3
#
#
#
# Elastic Constant Matrix: (Units=GPa)
#
#
# Indices 1 2 3 4 5 6 
#
# 1 91.7896 58.8429 84.4679 0.0000 0.0002 0.0000
# 2 58.8429 91.7896 84.4679 0.0000 -0.0002 0.0000
# 3 84.4679 84.4679 150.9963 0.0000 0.0000 0.0000
# 4 0.0000 0.0000 0.0000 25.6137 0.0000 -0.0002
# 5 0.0002 -0.0002 0.0000 0.0000 25.6137 0.0000
# 6 0.0000 0.0000 0.0000 -0.0002 0.0000 16.4734
#
#
#
# Elastic Compliance Matrix: (Units=1/GPa)
#
#
# Indices 1 2 3 4 5 6 
#
# 1 0.024084 -0.006268 -0.009966 0.000000 0.000000 0.000000
# 2 -0.006268 0.024084 -0.009966 0.000000 0.000000 0.000000
# 3 -0.009966 -0.009966 0.017773 0.000000 0.000000 0.000000
# 4 0.000000 0.000000 0.000000 0.039042 0.000000 0.000000
# 5 0.000000 0.000000 0.000000 0.000000 0.039042 0.000000
# 6 0.000000 0.000000 0.000000 0.000000 0.000000 0.060704
#
#
# Mechanical properties :
#
#
# Convention : Reuss Voigt Hill
#
# Bulk Modulus (GPa) = 73.85659 87.79257 80.82458
# Shear Modulus (GPa) = 19.10998 20.65991 19.88495
#
# Velocity S-wave (km/s) = 3.46839 3.60631 3.53802
# Velocity P-wave (km/s) = 7.90775 8.52093 8.22006
#
# Compressibility (1/GPa) = 0.01353975
#
# Stress axis : x y z
#
# Youngs Moduli (GPa) = 41.52126 41.52126 56.26468
#
# Poissons Ratio (x) = 0.26026 0.56075
# Poissons Ratio (y) = 0.26026 0.56075
# Poissons Ratio (z) = 0.41382 0.41382
#
# Static dielectric constant tensor:
#      x y z
#    x 1.500920 0.000000 0.000000 
#    y 0.000000 1.500920 0.000000 
#    z 0.000000 0.000000 1.545550 
# 
# From -- ./inp_files/4499.got.cif
#   From: 2010.05.17/outbox.cif.g08.bks.cpg/sg187_3_cif.got.tgz:4499.got - 2010.05.20 12:09:04.
