data_PCOD9585908
_publ_section_title
;
Structure prediction by ZEFSAII (Michael W. Deem and Ramdas Pophale) SiO2 
 PCOD9585908
Probable space group: P -6 C 2
;
_chemical_formula_sum "Si O2"
_cell_formula_units_Z 84
_cell_length_a 17.543716
_cell_length_b 17.543716
_cell_length_c 14.224288
_cell_angle_alpha 90.000000
_cell_angle_beta 90.000000
_cell_angle_gamma 120.000000
_cell_volume 3791.441376
_symmetry_space_group_name_H-M "P -6 C 2"
_symmetry_group_IT_number 188
_symmetry_cell_setting 'hexagonal'
loop_
_space_group_symop_operation_xyz
x,y,z
-x+y,-x,1/2-z
-y,x-y,z
x,y,1/2-z
-x+y,-x,z
-y,x-y,1/2-z
-y,-x,-z
-x+y,y,-z
x,x-y,-z
-x+y,y,1/2+z
x,x-y,1/2+z
-y,-x,1/2+z
loop_
_atom_site_type_symbol
_atom_site_label
_atom_site_fract_x
_atom_site_fract_y
_atom_site_fract_z
Si Si1 0.131213 0.604988 0.364895
Si Si2 0.376172 0.143784 0.855591
Si Si3 0.744514 0.001952 0.004564
Si Si4 0.203697 0.480043 0.360732
Si Si5 0.725921 0.849224 0.140037
Si Si6 0.668171 0.602921 0.148503
Si Si7 0.567535 0.500474 0.598526
O O1 0.126513 0.606870 0.250000
O O2 0.155828 0.531752 0.395324
O O3 0.208322 0.699611 0.398465
O O4 0.034672 0.577587 0.400229
O O5 0.341282 0.114049 0.750000
O O6 0.408701 0.246737 0.861474
O O7 0.455433 0.123463 0.870361
O O8 0.300555 0.089383 0.931675
O O9 0.781993 0.967517 0.919032
O O10 0.674024 0.016069 0.943936
O O11 0.723261 0.927243 0.082642
O O12 0.217834 0.503147 0.250000
O O13 0.147498 0.375594 0.366972
O O14 0.749357 0.868996 0.250000
O O15 0.678380 0.649644 0.250000
O O16 0.578449 0.511563 0.154920
O O17 0.548859 0.451142 0.500000
#
# Coordination Sequence:
#
# PCOD9585908 Si02
#       7
#    12  12  12  12  12  12  12
#     4  10  19  34  55  82 122 172 228 275 319 372
#     4  11  24  43  66  93 128 172 226 289 357 419
#     4  11  21  37  62  90 125 164 208 258 326 401
#     4   9  18  31  51  78 112 162 216 266 314 357
#     4  10  21  36  58  92 130 167 209 264 321 391
#     4  11  24  43  66  93 128 172 226 289 357 419
#     4  12  24  39  63  92 123 173 230 292 350 419
#
# _framework density 22.155162000000001
#
# number of rings (size 3 to 8) (size 9 to 14) (size 15 to 20)
#    0.000    1.429    1.429    4.571    0.000    3.429 
#    0.857    0.000    0.000    0.000    0.000    0.000 
#   45.714    0.000   27.429    0.000    0.000    0.000 
#
# Total GULP energy -468698.852792 kJ/mol
# GULP energy per Si atom -5579.748248 kJ/mol
# Density = 2.210474 g / cm^3
# Si number density = 22.155162 Si / 1000 Ang^3
#
#
#
# Elastic Constant Matrix: (Units=GPa)
#
#
# Indices 1 2 3 4 5 6 
#
# 1 78.4166 49.0975 39.4617 0.0000 0.0000 0.0000
# 2 49.0975 78.4166 39.4617 0.0000 0.0000 0.0000
# 3 39.4617 39.4617 165.6679 0.0000 0.0000 0.0000
# 4 0.0000 0.0000 0.0000 29.9966 0.0000 0.0000
# 5 0.0000 0.0000 0.0000 0.0000 29.9966 0.0000
# 6 0.0000 0.0000 0.0000 0.0000 0.0000 14.6595
#
#
#
# Elastic Compliance Matrix: (Units=1/GPa)
#
#
# Indices 1 2 3 4 5 6 
#
# 1 0.021653 -0.012455 -0.002191 0.000000 0.000000 0.000000
# 2 -0.012455 0.021653 -0.002191 0.000000 0.000000 0.000000
# 3 -0.002191 -0.002191 0.007080 0.000000 0.000000 0.000000
# 4 0.000000 0.000000 0.000000 0.033337 0.000000 0.000000
# 5 0.000000 0.000000 0.000000 0.000000 0.033337 0.000000
# 6 0.000000 0.000000 0.000000 0.000000 0.000000 0.068215
#
#
# Mechanical properties :
#
#
# Convention : Reuss Voigt Hill
#
# Bulk Modulus (GPa) = 59.83507 64.28253 62.05880
# Shear Modulus (GPa) = 22.26979 27.89588 25.08283
#
# Velocity S-wave (km/s) = 3.17389 3.55225 3.36839
# Velocity P-wave (km/s) = 6.36375 6.77512 6.57266
#
# Compressibility (1/GPa) = 0.01671261
#
# Stress axis : x y z
#
# Youngs Moduli (GPa) = 46.18308 46.18308 141.24362
#
# Poissons Ratio (x) = 0.57519 0.30947
# Poissons Ratio (y) = 0.57519 0.30947
# Poissons Ratio (z) = 0.10119 0.10119
#
# Static dielectric constant tensor:
#      x y z
#    x 1.813930 0.000000 0.000000 
#    y 0.000000 1.813930 0.000000 
#    z 0.000000 0.000000 1.903740 
# 
# From -- ./inp_files/2601.got.cif
#   From: 2010.05.17/outbox.cif.g08.bks.cpg/sg188_2_cif.got.tgz:2601.got - 2010.05.20 12:11:46.
