data_PCOD9585156
_publ_section_title
;
Structure prediction by ZEFSAII (Michael W. Deem and Ramdas Pophale) SiO2 
 PCOD9585156
Probable space group: P 6 C C
;
_chemical_formula_sum "Si O2"
_cell_formula_units_Z 42
_cell_length_a 14.398971
_cell_length_b 14.398971
_cell_length_c 10.932507
_cell_angle_alpha 90.000000
_cell_angle_beta 90.000000
_cell_angle_gamma 120.000000
_cell_volume 1962.968407
_symmetry_space_group_name_H-M "P 6 C C"
_symmetry_group_IT_number 184
_symmetry_cell_setting 'hexagonal'
loop_
_space_group_symop_operation_xyz
x,y,z
x-y,x,z
-y,x-y,z
-x,-y,z
-x+y,-x,z
y,-x+y,z
-x+y,y,1/2+z
x,x-y,1/2+z
-y,-x,1/2+z
y,x,1/2+z
x-y,-y,1/2+z
-x,-x+y,1/2+z
loop_
_atom_site_type_symbol
_atom_site_label
_atom_site_fract_x
_atom_site_fract_y
_atom_site_fract_z
Si Si1 0.745408 0.852923 0.402380
Si Si2 0.822645 0.286954 0.768913
Si Si3 0.535691 0.713046 0.535847
Si Si4 0.000000 0.500000 0.652380
O O1 0.825972 0.806738 0.402380
O O2 0.660787 0.802006 0.290486
O O3 0.660787 0.802006 0.514274
O O4 0.746219 0.253780 0.652380
O O5 0.925688 0.399309 0.737130
O O6 0.777413 0.291131 0.902380
O O7 0.526379 0.600691 0.567630
#
# Coordination Sequence:
#
# PCOD9585156 Si02
#       4
#    12  12  12   6
#     4  10  21  39  66 102 140 178 220 271 333 414
#     4  10  24  42  69 102 138 178 233 283 346 422
#     4  10  24  42  69 102 138 178 233 283 346 422
#     4  12  22  44  76  98 132 196 228 298 362 402
#
# _framework density 21.396169
#
# number of rings (size 3 to 8) (size 9 to 14) (size 15 to 20)
#    1.714    0.000    0.000    4.571    0.000    2.286 
#    1.714    0.000    0.000    3.429    0.000    0.000 
#    0.000    0.000    0.000    0.000    0.000    0.000 
#
# Total GULP energy -234233.153896 kJ/mol
# GULP energy per Si atom -5576.979855 kJ/mol
# Density = 2.134747 g / cm^3
# Si number density = 21.396169 Si / 1000 Ang^3
#
#
#
# Elastic Constant Matrix: (Units=GPa)
#
#
# Indices 1 2 3 4 5 6 
#
# 1 66.5625 2.8147 49.6562 0.0000 0.0000 0.0000
# 2 2.8147 66.5625 49.6562 0.0000 0.0000 0.0000
# 3 49.6562 49.6562 207.8190 0.0000 0.0000 0.0000
# 4 0.0000 0.0000 0.0000 -5.0552 0.0000 0.0000
# 5 0.0000 0.0000 0.0000 0.0000 -5.0552 0.0000
# 6 0.0000 0.0000 0.0000 0.0000 0.0000 31.8739
#
#
#
# Elastic Compliance Matrix: (Units=1/GPa)
#
#
# Indices 1 2 3 4 5 6 
#
# 1 0.018797 0.003110 -0.005234 0.000000 0.000000 0.000000
# 2 0.003110 0.018797 -0.005234 0.000000 0.000000 0.000000
# 3 -0.005234 -0.005234 0.007313 0.000000 0.000000 0.000000
# 4 0.000000 0.000000 0.000000 -0.197816 0.000000 0.000000
# 5 0.000000 0.000000 0.000000 0.000000 -0.197816 0.000000
# 6 0.000000 0.000000 0.000000 0.000000 0.000000 0.031374
#
#
# Mechanical properties :
#
#
# Convention : Reuss Voigt Hill
#
# Bulk Modulus (GPa) = 33.12410 60.57758 46.85084
# Shear Modulus (GPa) = -16.97389 20.27384 1.64997
#
# Velocity S-wave (km/s) = -2.81964 3.08156 0.87911
# Velocity P-wave (km/s) = 2.21685 6.40587 4.79320
#
# Compressibility (1/GPa) = 0.03018950
#
# Stress axis : x y z
#
# Youngs Moduli (GPa) = 53.20028 53.20028 136.73687
#
# Poissons Ratio (x) = -0.16546 0.71574
# Poissons Ratio (y) = -0.16546 0.71574
# Poissons Ratio (z) = 0.27847 0.27847
#
# Static dielectric constant tensor:
#      x y z
#    x 1.752930 0.000000 0.000000 
#    y 0.000000 1.752930 0.000000 
#    z 0.000000 0.000000 1.801830 
# 
# From -- ./inp_files/516.got.cif
#   From: 2010.05.17/outbox.cif.g08.bks.cpg/sg184_cif.got.tgz:516.got - 2010.05.20 12:04:40.
