data_PCOD9585347
_publ_section_title
;
Structure prediction by ZEFSAII (Michael W. Deem and Ramdas Pophale) SiO2 
 PCOD9585347
Probable space group: P 63 M C
;
_chemical_formula_sum "Si O2"
_cell_formula_units_Z 84
_cell_length_a 21.095553
_cell_length_b 21.095553
_cell_length_c 11.676491
_cell_angle_alpha 90.000000
_cell_angle_beta 90.000000
_cell_angle_gamma 120.000000
_cell_volume 4500.127406
_symmetry_space_group_name_H-M "P 63 M C"
_symmetry_group_IT_number 186
_symmetry_cell_setting 'hexagonal'
loop_
_space_group_symop_operation_xyz
x,y,z
x-y,x,1/2+z
-y,x-y,z
-x,-y,1/2+z
-x+y,-x,z
y,-x+y,1/2+z
-x+y,y,z
x,x-y,z
-y,-x,z
y,x,1/2+z
x-y,-y,1/2+z
-x,-x+y,1/2+z
loop_
_atom_site_type_symbol
_atom_site_label
_atom_site_fract_x
_atom_site_fract_y
_atom_site_fract_z
Si Si1 0.334682 0.525162 0.771740
Si Si2 0.218803 0.184301 0.642659
Si Si3 0.614411 0.878709 0.929828
Si Si4 0.530004 0.915859 0.574137
Si Si5 0.329338 0.953263 0.151700
Si Si6 0.878753 0.267067 0.881052
Si Si7 0.999115 0.780001 0.890530
O O1 0.275580 0.551159 0.776761
O O2 0.412320 0.587681 0.819597
O O3 0.299257 0.447712 0.835354
O O4 0.349344 0.509017 0.643632
O O5 0.237453 0.118726 0.644779
O O6 0.290751 0.265240 0.644755
O O7 0.183393 0.181531 0.768258
O O8 0.186692 0.181486 0.514234
O O9 0.615664 0.807832 0.976678
O O10 0.696583 0.934178 0.887146
O O11 0.593357 0.915408 0.030658
O O12 0.466996 0.933992 0.539846
O O13 0.575267 0.906784 0.472672
O O14 0.589928 0.978108 0.657673
O O15 0.305176 0.898510 0.257291
O O16 0.794552 0.205449 0.893090
O O17 0.926557 0.226550 0.893416
#
# Coordination Sequence:
#
# PCOD9585347 Si02
#       7
#    12  12  12  12  12  12  12
#     4  10  21  36  53  73 100 138 186 235 282 335
#     4  10  19  33  53  79 113 154 187 225 278 339
#     4  10  19  33  54  80 110 144 180 224 286 345
#     4  11  23  36  53  79 112 147 191 239 288 346
#     4  10  19  35  53  77 107 143 182 223 281 344
#     4  11  21  36  58  81 110 148 191 236 288 352
#     4  10  18  33  52  79 114 150 189 226 279 347
#
# _framework density 18.666136999999999
#
# number of rings (size 3 to 8) (size 9 to 14) (size 15 to 20)
#    0.000    1.714    2.857    6.143    0.000    1.143 
#    0.000    2.143    0.000    0.286    0.000    0.000 
#    0.000    0.000    0.000   73.714    0.000    0.000 
#
# Total GULP energy -467919.205039 kJ/mol
# GULP energy per Si atom -5570.466727 kJ/mol
# Density = 1.862365 g / cm^3
# Si number density = 18.666137 Si / 1000 Ang^3
#
#
#
# Elastic Constant Matrix: (Units=GPa)
#
#
# Indices 1 2 3 4 5 6 
#
# 1 56.1159 18.3445 18.4258 0.0000 0.0000 0.0000
# 2 18.3445 56.1159 18.4258 0.0000 0.0000 0.0000
# 3 18.4258 18.4258 103.7970 0.0000 0.0000 0.0000
# 4 0.0000 0.0000 0.0000 14.5392 0.0000 0.0000
# 5 0.0000 0.0000 0.0000 0.0000 14.5392 0.0000
# 6 0.0000 0.0000 0.0000 0.0000 0.0000 18.8857
#
#
#
# Elastic Compliance Matrix: (Units=1/GPa)
#
#
# Indices 1 2 3 4 5 6 
#
# 1 0.020599 -0.005876 -0.002614 0.000000 0.000000 0.000000
# 2 -0.005876 0.020599 -0.002614 0.000000 0.000000 0.000000
# 3 -0.002614 -0.002614 0.010562 0.000000 0.000000 0.000000
# 4 0.000000 0.000000 0.000000 0.068779 0.000000 0.000000
# 5 0.000000 0.000000 0.000000 0.000000 0.068779 0.000000
# 6 0.000000 0.000000 0.000000 0.000000 0.000000 0.052950
#
#
# Mechanical properties :
#
#
# Convention : Reuss Voigt Hill
#
# Bulk Modulus (GPa) = 33.83589 36.26902 35.05246
# Shear Modulus (GPa) = 18.22637 20.31498 19.27068
#
# Velocity S-wave (km/s) = 3.12819 3.30257 3.21656
# Velocity P-wave (km/s) = 5.58692 5.83225 5.71091
#
# Compressibility (1/GPa) = 0.02955441
#
# Stress axis : x y z
#
# Youngs Moduli (GPa) = 48.54530 48.54530 94.67770
#
# Poissons Ratio (x) = 0.28524 0.24746
# Poissons Ratio (y) = 0.28524 0.24746
# Poissons Ratio (z) = 0.12688 0.12688
#
# Static dielectric constant tensor:
#      x y z
#    x 1.654890 0.000000 0.000000 
#    y 0.000000 1.654890 0.000000 
#    z 0.000000 0.000000 1.712240 
# 
# From -- ./inp_files/1902.got.cif
#   From: 2010.05.17/outbox.cif.g08.bks.cpg/sg186_1_cif.got.tgz:1902.got - 2010.05.20 12:07:08.
