data_PCOD9585733
_publ_section_title
;
Structure prediction by ZEFSAII (Michael W. Deem and Ramdas Pophale) SiO2 
 PCOD9585733
Probable space group: P -6 M 2
;
_chemical_formula_sum "Si O2"
_cell_formula_units_Z 60
_cell_length_a 21.042114
_cell_length_b 21.042114
_cell_length_c 8.983426
_cell_angle_alpha 90.000000
_cell_angle_beta 90.000000
_cell_angle_gamma 120.000000
_cell_volume 3444.699680
_symmetry_space_group_name_H-M "P -6 M 2"
_symmetry_group_IT_number 187
_symmetry_cell_setting 'hexagonal'
loop_
_space_group_symop_operation_xyz
x,y,z
-x+y,-x,-z
-y,x-y,z
x,y,-z
-x+y,-x,z
-y,x-y,-z
-y,-x,-z
-x+y,y,-z
x,x-y,-z
-x+y,y,z
x,x-y,z
-y,-x,z
loop_
_atom_site_type_symbol
_atom_site_label
_atom_site_fract_x
_atom_site_fract_y
_atom_site_fract_z
Si Si1 0.127800 0.872201 0.820113
Si Si2 0.333494 0.809530 0.674730
Si Si3 0.081120 0.373515 0.822000
Si Si4 0.588667 0.032345 0.322862
Si Si5 0.905588 0.952794 0.321454
Si Si6 0.666886 0.478876 0.825360
O O1 0.213915 0.909341 0.775673
O O2 0.086767 0.913234 0.754477
O O3 0.125321 0.874680 0.000000
O O4 0.338326 0.830635 0.500000
O O5 0.413680 0.827360 0.724319
O O6 0.276930 0.723071 0.683422
O O7 0.299857 0.850353 0.766259
O O8 0.013626 0.378687 0.753411
O O9 0.077322 0.372612 0.000000
O O10 0.588258 0.024169 0.500000
O O11 0.504985 0.009970 0.277125
O O12 0.638157 0.116422 0.274134
O O13 0.895904 0.947952 0.500000
O O14 0.960342 0.920683 0.284276
O O15 0.746660 0.493320 0.785810
O O16 0.607116 0.392885 0.811738
O O17 0.666717 0.498047 0.000000
#
# Coordination Sequence:
#
# PCOD9585733 Si02
#       6
#     6  12  12  12   6  12
#     4  10  22  38  58  86 116 144 180 224 270 332
#     4  10  20  34  52  75 104 141 186 234 283 332
#     4  11  22  37  54  77 109 143 184 230 277 328
#     4  10  21  36  53  76 106 143 189 233 275 329
#     4   8  18  38  64  94 120 140 170 214 266 332
#     4   9  17  31  53  80 109 142 181 225 273 323
#
# _framework density 17.418064999999999
#
# number of rings (size 3 to 8) (size 9 to 14) (size 15 to 20)
#    0.200    2.000    1.000    2.200    0.000    8.000 
#    0.000    1.000    0.000    3.600    0.000    0.000 
#    0.000    0.000    0.000    0.000    0.000    0.000 
#
# Total GULP energy -334486.742133 kJ/mol
# GULP energy per Si atom -5574.779036 kJ/mol
# Density = 1.737842 g / cm^3
# Si number density = 17.418065 Si / 1000 Ang^3
#
#
#
# Elastic Constant Matrix: (Units=GPa)
#
#
# Indices 1 2 3 4 5 6 
#
# 1 124.4181 70.6095 43.8644 0.0000 -0.0001 0.0000
# 2 70.6095 124.4181 43.8644 0.0000 0.0001 0.0000
# 3 43.8644 43.8644 42.5121 0.0000 0.0000 0.0000
# 4 0.0000 0.0000 0.0000 27.2740 0.0000 0.0001
# 5 -0.0001 0.0001 0.0000 0.0000 27.2740 0.0000
# 6 0.0000 0.0000 0.0000 0.0001 0.0000 26.9043
#
#
#
# Elastic Compliance Matrix: (Units=1/GPa)
#
#
# Indices 1 2 3 4 5 6 
#
# 1 0.014077 -0.004508 -0.009873 0.000000 0.000000 0.000000
# 2 -0.004508 0.014077 -0.009873 0.000000 0.000000 0.000000
# 3 -0.009873 -0.009873 0.043897 0.000000 0.000000 0.000000
# 4 0.000000 0.000000 0.000000 0.036665 0.000000 0.000000
# 5 0.000000 0.000000 0.000000 0.000000 0.036665 0.000000
# 6 0.000000 0.000000 0.000000 0.000000 0.000000 0.037169
#
#
# Mechanical properties :
#
#
# Convention : Reuss Voigt Hill
#
# Bulk Modulus (GPa) = 42.47713 67.55832 55.01773
# Shear Modulus (GPa) = 20.92896 25.15781 23.04338
#
# Velocity S-wave (km/s) = 3.47012 3.80459 3.64120
# Velocity P-wave (km/s) = 6.36360 7.62695 7.02374
#
# Compressibility (1/GPa) = 0.02354208
#
# Stress axis : x y z
#
# Youngs Moduli (GPa) = 71.04039 71.04039 22.78071
#
# Poissons Ratio (x) = 0.32024 0.22491
# Poissons Ratio (y) = 0.32024 0.22491
# Poissons Ratio (z) = 0.70138 0.70138
#
# Static dielectric constant tensor:
#      x y z
#    x 1.595300 0.000000 0.000000 
#    y 0.000000 1.595300 0.000000 
#    z 0.000000 0.000000 1.583270 
# 
# From -- ./inp_files/685.got.cif
#   From: 2010.05.17/outbox.cif.g08.bks.cpg/sg187_1_cif.got.tgz:685.got - 2010.05.20 12:09:04.
