data_PCOD9585693
_publ_section_title
;
Structure prediction by ZEFSAII (Michael W. Deem and Ramdas Pophale) SiO2 
 PCOD9585693
Probable space group: P -6 M 2
;
_chemical_formula_sum "Si O2"
_cell_formula_units_Z 60
_cell_length_a 16.405079
_cell_length_b 16.405079
_cell_length_c 13.111782
_cell_angle_alpha 90.000000
_cell_angle_beta 90.000000
_cell_angle_gamma 120.000000
_cell_volume 3055.969418
_symmetry_space_group_name_H-M "P -6 M 2"
_symmetry_group_IT_number 187
_symmetry_cell_setting 'hexagonal'
loop_
_space_group_symop_operation_xyz
x,y,z
-x+y,-x,-z
-y,x-y,z
x,y,-z
-x+y,-x,z
-y,x-y,-z
-y,-x,-z
-x+y,y,-z
x,x-y,-z
-x+y,y,z
x,x-y,z
-y,-x,z
loop_
_atom_site_type_symbol
_atom_site_label
_atom_site_fract_x
_atom_site_fract_y
_atom_site_fract_z
Si Si1 0.000331 0.811604 0.178709
Si Si2 0.000181 0.277131 0.384111
Si Si3 0.847289 0.334268 0.376339
Si Si4 0.146763 0.482595 0.325414
Si Si5 0.297254 0.396692 0.888869
O O1 0.900156 0.800311 0.154159
O O2 0.007656 0.796521 0.300117
O O3 0.022151 0.734687 0.128830
O O4 0.085519 0.914482 0.149814
O O5 0.984892 0.241464 0.500000
O O6 0.090193 0.382095 0.380693
O O7 0.915440 0.294353 0.349714
O O8 0.849672 0.338047 0.500000
O O9 0.876252 0.438126 0.338929
O O10 0.741473 0.258528 0.345886
O O11 0.256484 0.512968 0.326092
O O12 0.131484 0.565742 0.366548
O O13 0.107987 0.457941 0.209283
O O14 0.198538 0.397075 0.888292
O O15 0.341612 0.429374 0.000000
#
# Coordination Sequence:
#
# PCOD9585693 Si02
#       5
#    12  12  12  12  12
#     4  10  20  33  50  72  97 126 163 208 254 298
#     4  10  20  34  49  65  92 133 173 206 248 302
#     4   9  16  26  42  64  88 114 148 193 242 290
#     4  10  20  33  50  72  97 126 163 208 254 298
#     4   8  16  32  51  71  97 126 153 186 235 294
#
# _framework density 19.633704999999999
#
# number of rings (size 3 to 8) (size 9 to 14) (size 15 to 20)
#    0.000    2.600    0.000    3.600    0.000    5.600 
#    0.000    0.000    0.000    4.800    0.000    0.000 
#    0.000    0.000    0.000    0.000    0.000   59.600 
#
# Total GULP energy -334606.990414 kJ/mol
# GULP energy per Si atom -5576.783174 kJ/mol
# Density = 1.958902 g / cm^3
# Si number density = 19.633705 Si / 1000 Ang^3
#
#
#
# Elastic Constant Matrix: (Units=GPa)
#
#
# Indices 1 2 3 4 5 6 
#
# 1 58.6565 12.0150 -16.2476 0.0000 -0.0001 0.0000
# 2 12.0150 58.6565 -16.2476 0.0000 0.0001 0.0000
# 3 -16.2476 -16.2476 52.8663 0.0000 0.0000 0.0000
# 4 0.0000 0.0000 0.0000 2.7148 0.0000 0.0001
# 5 -0.0001 0.0001 0.0000 0.0000 2.7148 0.0000
# 6 0.0000 0.0000 0.0000 0.0001 0.0000 23.3208
#
#
#
# Elastic Compliance Matrix: (Units=1/GPa)
#
#
# Indices 1 2 3 4 5 6 
#
# 1 0.018959 -0.002481 0.005064 0.000000 0.000001 0.000000
# 2 -0.002481 0.018959 0.005064 0.000000 -0.000001 0.000000
# 3 0.005064 0.005064 0.022029 0.000000 0.000000 0.000000
# 4 0.000000 0.000000 0.000000 0.368352 0.000000 -0.000002
# 5 0.000001 -0.000001 0.000000 0.000000 0.368352 0.000000
# 6 0.000000 0.000000 0.000000 -0.000002 0.000000 0.042880
#
#
# Mechanical properties :
#
#
# Convention : Reuss Voigt Hill
#
# Bulk Modulus (GPa) = 13.29016 14.35765 13.82391
# Shear Modulus (GPa) = 5.88709 18.46071 12.17390
#
# Velocity S-wave (km/s) = 1.73348 3.06969 2.49278
# Velocity P-wave (km/s) = 3.28487 4.46011 3.91682
#
# Compressibility (1/GPa) = 0.07524364
#
# Stress axis : x y z
#
# Youngs Moduli (GPa) = 52.74436 52.74436 45.39553
#
# Poissons Ratio (x) = 0.13084 -0.22990
# Poissons Ratio (y) = 0.13084 -0.22990
# Poissons Ratio (z) = -0.26712 -0.26712
#
# Static dielectric constant tensor:
#      x y z
#    x 1.705200 0.000000 0.000000 
#    y 0.000000 1.705200 0.000000 
#    z 0.000000 0.000000 1.712070 
# 
# From -- ./inp_files/2353.got.cif
#   From: 2010.05.17/outbox.cif.g08.bks.cpg/sg187_2_cif.got.tgz:2353.got - 2010.05.20 12:09:04.
