data_PCOD9585846
_publ_section_title
;
Structure prediction by ZEFSAII (Michael W. Deem and Ramdas Pophale) SiO2 
 PCOD9585846
Probable space group: P -6 C 2
;
_chemical_formula_sum "Si O2"
_cell_formula_units_Z 64
_cell_length_a 14.126893
_cell_length_b 14.126893
_cell_length_c 18.268246
_cell_angle_alpha 90.000000
_cell_angle_beta 90.000000
_cell_angle_gamma 120.000000
_cell_volume 3157.335948
_symmetry_space_group_name_H-M "P -6 C 2"
_symmetry_group_IT_number 188
_symmetry_cell_setting 'hexagonal'
loop_
_space_group_symop_operation_xyz
x,y,z
-x+y,-x,1/2-z
-y,x-y,z
x,y,1/2-z
-x+y,-x,z
-y,x-y,1/2-z
-y,-x,-z
-x+y,y,-z
x,x-y,-z
-x+y,y,1/2+z
x,x-y,1/2+z
-y,-x,1/2+z
loop_
_atom_site_type_symbol
_atom_site_label
_atom_site_fract_x
_atom_site_fract_y
_atom_site_fract_z
Si Si1 0.659764 0.874507 0.165220
Si Si2 0.905977 0.451113 0.837513
Si Si3 0.996480 0.317134 0.096524
Si Si4 0.122104 0.455391 0.971323
Si Si5 0.666667 0.333334 0.338416
Si Si6 0.880956 0.665035 0.336345
O O1 0.627467 0.856754 0.250000
O O2 0.684015 0.781918 0.135891
O O3 0.566099 0.874173 0.114383
O O4 0.763895 0.996419 0.158907
O O5 0.918974 0.462812 0.750000
O O6 0.986447 0.566802 0.872912
O O7 0.785427 0.426700 0.860572
O O8 0.897960 0.335685 0.855409
O O9 0.884510 0.207624 0.116303
O O10 0.029646 0.345474 0.011644
O O11 0.238126 0.476252 0.000000
O O12 0.107748 0.553874 0.000000
O O13 0.666667 0.333334 0.250000
O O14 0.845859 0.650113 0.250000
#
# Coordination Sequence:
#
# PCOD9585846 Si02
#       6
#    12  12  12  12   4  12
#     4  10  22  40  59  85 123 165 212 256 307 372
#     4  10  17  29  53  87 126 162 197 242 304 376
#     4  11  21  36  61  88 123 165 209 256 315 374
#     4  10  22  41  64  90 122 163 207 261 323 374
#     4   9  15  24  45  81 124 155 185 224 289 375
#     4  10  20  34  56  88 123 160 204 255 302 362
#
# _framework density 20.270253
#
# number of rings (size 3 to 8) (size 9 to 14) (size 15 to 20)
#    0.000    1.875    1.875    3.000    0.000    0.750 
#    1.125    4.688    0.000    0.750    0.000    2.625 
#    0.000    0.000    0.000    0.000    0.000    0.000 
#
# Total GULP energy -356916.863359 kJ/mol
# GULP energy per Si atom -5576.825990 kJ/mol
# Density = 2.022412 g / cm^3
# Si number density = 20.270253 Si / 1000 Ang^3
#
#
#
# Elastic Constant Matrix: (Units=GPa)
#
#
# Indices 1 2 3 4 5 6 
#
# 1 107.7107 46.6635 33.1595 -0.0002 0.0000 0.0000
# 2 46.6635 107.7103 33.1594 0.0002 0.0000 -0.0001
# 3 33.1595 33.1594 99.9604 0.0000 0.0000 0.0000
# 4 -0.0002 0.0002 0.0000 12.6083 0.0000 0.0000
# 5 0.0000 0.0000 0.0000 0.0000 12.6083 -0.0002
# 6 0.0000 -0.0001 0.0000 0.0000 -0.0002 30.5234
#
#
#
# Elastic Compliance Matrix: (Units=1/GPa)
#
#
# Indices 1 2 3 4 5 6 
#
# 1 0.011968 -0.004413 -0.002506 0.000000 0.000000 0.000000
# 2 -0.004413 0.011968 -0.002506 0.000000 0.000000 0.000000
# 3 -0.002506 -0.002506 0.011667 0.000000 0.000000 0.000000
# 4 0.000000 0.000000 0.000000 0.079313 0.000000 0.000000
# 5 0.000000 0.000000 0.000000 0.000000 0.079313 0.000001
# 6 0.000000 0.000000 0.000000 0.000000 0.000001 0.032762
#
#
# Mechanical properties :
#
#
# Convention : Reuss Voigt Hill
#
# Bulk Modulus (GPa) = 59.69670 60.14959 59.92314
# Shear Modulus (GPa) = 19.88682 24.64128 22.26405
#
# Velocity S-wave (km/s) = 3.13562 3.49038 3.31775
# Velocity P-wave (km/s) = 6.52869 6.78100 6.65604
#
# Compressibility (1/GPa) = 0.01675135
#
# Stress axis : x y z
#
# Youngs Moduli (GPa) = 83.55928 83.55889 85.71510
#
# Poissons Ratio (x) = 0.36877 0.21480
# Poissons Ratio (y) = 0.36877 0.21480
# Poissons Ratio (z) = 0.20940 0.20940
#
# Static dielectric constant tensor:
#      x y z
#    x 1.741440 0.000000 0.000000 
#    y 0.000000 1.741440 0.000000 
#    z 0.000000 0.000000 1.740610 
# 
# From -- ./inp_files/3066.got.cif
#   From: 2010.05.17/outbox.cif.g08.bks.cpg/sg188_2_cif.got.tgz:3066.got - 2010.05.20 12:11:46.
