data_PCOD9585176
_publ_section_title
;
Structure prediction by ZEFSAII (Michael W. Deem and Ramdas Pophale) SiO2 
 PCOD9585176
Probable space group: P 6 C C
;
_chemical_formula_sum "Si O2"
_cell_formula_units_Z 60
_cell_length_a 14.105615
_cell_length_b 14.105615
_cell_length_c 17.328872
_cell_angle_alpha 90.000000
_cell_angle_beta 90.000000
_cell_angle_gamma 120.000000
_cell_volume 2985.966820
_symmetry_space_group_name_H-M "P 6 C C"
_symmetry_group_IT_number 184
_symmetry_cell_setting 'hexagonal'
loop_
_space_group_symop_operation_xyz
x,y,z
x-y,x,z
-y,x-y,z
-x,-y,z
-x+y,-x,z
y,-x+y,z
-x+y,y,1/2+z
x,x-y,1/2+z
-y,-x,1/2+z
y,x,1/2+z
x-y,-y,1/2+z
-x,-x+y,1/2+z
loop_
_atom_site_type_symbol
_atom_site_label
_atom_site_fract_x
_atom_site_fract_y
_atom_site_fract_z
Si Si1 0.812175 0.202358 0.770380
Si Si2 0.380893 0.396329 0.539831
Si Si3 0.230061 0.699048 0.622419
Si Si4 0.604283 0.619042 0.856809
Si Si5 0.819313 0.751797 0.129971
O O1 0.794841 0.277842 0.708450
O O2 0.921134 0.285775 0.816020
O O3 0.815067 0.109188 0.716752
O O4 0.711278 0.133681 0.827264
O O5 0.500000 0.500000 0.557408
O O6 0.299687 0.439958 0.567465
O O7 0.373487 0.377948 0.448599
O O8 0.346187 0.284417 0.585530
O O9 0.222313 0.581598 0.611067
O O10 0.500000 0.500000 0.838710
O O11 0.795768 0.849959 0.112686
#
# Coordination Sequence:
#
# PCOD9585176 Si02
#       5
#    12  12  12  12  12
#     4  12  22  44  70 102 138 187 238 301 358 430
#     4  11  25  44  69 103 144 187 234 294 367 444
#     4  10  22  39  72 103 134 181 235 285 351 434
#     4  11  27  44  69 103 148 192 232 298 380 442
#     4  12  25  45  72 102 134 187 247 301 352 424
#
# _framework density 20.093995
#
# number of rings (size 3 to 8) (size 9 to 14) (size 15 to 20)
#    0.400    0.400    4.000    2.600    2.800    3.200 
#    1.200    0.000    0.000    0.000    0.000    0.000 
#    0.000    0.000    0.000    0.000    0.000    0.000 
#
# Total GULP energy -334390.035903 kJ/mol
# GULP energy per Si atom -5573.167265 kJ/mol
# Density = 2.004826 g / cm^3
# Si number density = 20.093995 Si / 1000 Ang^3
#
#
#
# Elastic Constant Matrix: (Units=GPa)
#
#
# Indices 1 2 3 4 5 6 
#
# 1 144.1253 84.6719 64.0967 0.0000 0.0000 0.0000
# 2 84.6719 144.1253 64.0967 0.0000 0.0000 0.0000
# 3 64.0967 64.0967 73.1967 0.0000 0.0000 0.0000
# 4 0.0000 0.0000 0.0000 23.5498 0.0000 0.0000
# 5 0.0000 0.0000 0.0000 0.0000 23.5498 0.0000
# 6 0.0000 0.0000 0.0000 0.0000 0.0000 29.7267
#
#
#
# Elastic Compliance Matrix: (Units=1/GPa)
#
#
# Indices 1 2 3 4 5 6 
#
# 1 0.012700 -0.004120 -0.007514 0.000000 0.000000 0.000000
# 2 -0.004120 0.012700 -0.007514 0.000000 0.000000 0.000000
# 3 -0.007514 -0.007514 0.026821 0.000000 0.000000 0.000000
# 4 0.000000 0.000000 0.000000 0.042463 0.000000 0.000000
# 5 0.000000 0.000000 0.000000 0.000000 0.042463 0.000000
# 6 0.000000 0.000000 0.000000 0.000000 0.000000 0.033640
#
#
# Mechanical properties :
#
#
# Convention : Reuss Voigt Hill
#
# Bulk Modulus (GPa) = 71.80260 87.46420 79.63340
# Shear Modulus (GPa) = 23.39452 25.27072 24.33262
#
# Velocity S-wave (km/s) = 3.41582 3.55015 3.48363
# Velocity P-wave (km/s) = 7.16715 7.77347 7.47646
#
# Compressibility (1/GPa) = 0.01392707
#
# Stress axis : x y z
#
# Youngs Moduli (GPa) = 78.73838 78.73838 37.28375
#
# Poissons Ratio (x) = 0.32437 0.28015
# Poissons Ratio (y) = 0.32437 0.28015
# Poissons Ratio (z) = 0.59163 0.59163
#
# Static dielectric constant tensor:
#      x y z
#    x 1.775710 0.000000 0.000000 
#    y 0.000000 1.775710 0.000000 
#    z 0.000000 0.000000 1.686360 
# 
# From -- ./inp_files/825.got.cif
#   From: 2010.05.17/outbox.cif.g08.bks.cpg/sg184_cif.got.tgz:825.got - 2010.05.20 12:04:40.
