data_PCOD9585417
_publ_section_title
;
Structure prediction by ZEFSAII (Michael W. Deem and Ramdas Pophale) SiO2 
 PCOD9585417
Probable space group: P 63 M C
;
_chemical_formula_sum "Si O2"
_cell_formula_units_Z 84
_cell_length_a 21.000000
_cell_length_b 21.000000
_cell_length_c 12.000000
_cell_angle_alpha 90.000000
_cell_angle_beta 90.000000
_cell_angle_gamma 120.000000
_cell_volume 4583.006437
_symmetry_space_group_name_H-M "P 63 M C"
_symmetry_group_IT_number 186
_symmetry_cell_setting 'hexagonal'
loop_
_space_group_symop_operation_xyz
x,y,z
x-y,x,1/2+z
-y,x-y,z
-x,-y,1/2+z
-x+y,-x,z
y,-x+y,1/2+z
-x+y,y,z
x,x-y,z
-y,-x,z
y,x,1/2+z
x-y,-y,1/2+z
-x,-x+y,1/2+z
loop_
_atom_site_type_symbol
_atom_site_label
_atom_site_fract_x
_atom_site_fract_y
_atom_site_fract_z
Si Si1 0.476473 0.810480 0.269220
Si Si2 0.609620 0.064624 0.400618
Si Si3 0.477856 0.378041 0.986557
Si Si4 0.274291 0.876160 0.694892
Si Si5 0.227405 0.997700 0.659729
Si Si6 0.876983 0.606899 0.598059
Si Si7 0.154813 0.153992 0.909326
O O1 0.413785 0.827569 0.228437
O O2 0.449913 0.724957 0.257010
O O3 0.492566 0.835230 0.396906
O O4 0.551713 0.854258 0.201876
O O5 0.541109 0.082217 0.398570
O O6 0.663864 0.093749 0.293258
O O7 0.666303 0.095796 0.504840
O O8 0.569760 0.976366 0.418478
O O9 0.548081 0.451920 0.033988
O O10 0.433221 0.320293 0.082085
O O11 0.208043 0.791958 0.712074
O O12 0.236097 0.926268 0.679952
O O13 0.194234 0.005530 0.783799
O O14 0.310761 0.064295 0.637585
O O15 0.188215 0.994359 0.535245
O O16 0.803933 0.607866 0.558197
O O17 0.077999 0.155998 0.909227
O O18 0.143269 0.071635 0.909098
#
# Coordination Sequence:
#
# PCOD9585417 Si02
#       7
#    12  12  12  12  12  12  12
#     4  10  21  37  59  88 122 163 208 257 313 375
#     4  11  23  41  65  92 128 167 216 271 322 393
#     4  10  22  39  61  90 123 163 212 262 313 374
#     4  12  24  41  64  94 130 168 212 265 325 394
#     4  12  26  44  67 101 138 176 223 281 342 398
#     4  11  22  39  64  93 129 167 210 266 323 387
#     4  12  26  47  70  98 132 178 227 278 338 407
#
# _framework density 18.328579999999999
#
# number of rings (size 3 to 8) (size 9 to 14) (size 15 to 20)
#    0.000    0.857    1.429    6.286    2.000    0.000 
#    0.000    1.429    0.000    6.857    0.000    0.000 
#    0.000    0.000    0.000    0.000    0.000    0.000 
#
# Total GULP energy -468000.576687 kJ/mol
# GULP energy per Si atom -5571.435437 kJ/mol
# Density = 1.828686 g / cm^3
# Si number density = 18.328580 Si / 1000 Ang^3
#
#
#
# Elastic Constant Matrix: (Units=GPa)
#
#
# Indices 1 2 3 4 5 6 
#
# 1 126.1102 52.5410 49.2668 0.0000 0.0000 0.0000
# 2 52.5410 126.1102 49.2668 0.0000 0.0000 0.0000
# 3 49.2668 49.2668 121.2928 0.0000 0.0000 0.0000
# 4 0.0000 0.0000 0.0000 39.8679 0.0000 0.0000
# 5 0.0000 0.0000 0.0000 0.0000 39.8679 0.0000
# 6 0.0000 0.0000 0.0000 0.0000 0.0000 36.7846
#
#
#
# Elastic Compliance Matrix: (Units=1/GPa)
#
#
# Indices 1 2 3 4 5 6 
#
# 1 0.010403 -0.003190 -0.002930 0.000000 0.000000 0.000000
# 2 -0.003190 0.010403 -0.002930 0.000000 0.000000 0.000000
# 3 -0.002930 -0.002930 0.010625 0.000000 0.000000 0.000000
# 4 0.000000 0.000000 0.000000 0.025083 0.000000 0.000000
# 5 0.000000 0.000000 0.000000 0.000000 0.025083 0.000000
# 6 0.000000 0.000000 0.000000 0.000000 0.000000 0.027185
#
#
# Mechanical properties :
#
#
# Convention : Reuss Voigt Hill
#
# Bulk Modulus (GPa) = 75.00870 75.07361 75.04116
# Shear Modulus (GPa) = 38.07354 38.13334 38.10344
#
# Velocity S-wave (km/s) = 4.56266 4.56624 4.56445
# Velocity P-wave (km/s) = 8.29279 8.29756 8.29518
#
# Compressibility (1/GPa) = 0.01333179
#
# Stress axis : x y z
#
# Youngs Moduli (GPa) = 96.12544 96.12544 94.12008
#
# Poissons Ratio (x) = 0.30660 0.27577
# Poissons Ratio (y) = 0.30660 0.27577
# Poissons Ratio (z) = 0.28165 0.28165
#
# Static dielectric constant tensor:
#      x y z
#    x 1.639480 0.000000 0.000000 
#    y 0.000000 1.639480 0.000000 
#    z 0.000000 0.000000 1.658210 
# 
# From -- ./inp_files/1901.got.cif
#   From: 2010.05.17/outbox.ucp.g08.bks.cvg/sg186_1_cif.got.tgz:1901.got - 2010.06.11 15:21:28.
