data_PCOD9585473
_publ_section_title
;
Structure prediction by ZEFSAII (Michael W. Deem and Ramdas Pophale) SiO2 
 PCOD9585473
Probable space group: P -6 M 2
;
_chemical_formula_sum "Si O2"
_cell_formula_units_Z 78
_cell_length_a 17.647849
_cell_length_b 17.647849
_cell_length_c 20.556541
_cell_angle_alpha 90.000000
_cell_angle_beta 90.000000
_cell_angle_gamma 120.000000
_cell_volume 5544.523503
_symmetry_space_group_name_H-M "P -6 M 2"
_symmetry_group_IT_number 187
_symmetry_cell_setting 'hexagonal'
loop_
_space_group_symop_operation_xyz
x,y,z
-x+y,-x,-z
-y,x-y,z
x,y,-z
-x+y,-x,z
-y,x-y,-z
-y,-x,-z
-x+y,y,-z
x,x-y,-z
-x+y,y,z
x,x-y,z
-y,-x,z
loop_
_atom_site_type_symbol
_atom_site_label
_atom_site_fract_x
_atom_site_fract_y
_atom_site_fract_z
Si Si1 0.665571 0.151267 0.246648
Si Si2 0.065338 0.757772 0.423062
Si Si3 0.820210 0.999352 0.692805
Si Si4 0.964263 0.395850 0.624294
Si Si5 0.307131 0.245038 0.189512
Si Si6 0.665146 0.504858 0.500000
Si Si7 0.819779 0.999272 0.075792
O O1 0.579562 0.159124 0.234614
O O2 0.752838 0.247163 0.250774
O O3 0.650075 0.097419 0.313671
O O4 0.683196 0.092217 0.195519
O O5 0.043049 0.747459 0.500000
O O6 0.166471 0.833530 0.417347
O O7 0.011567 0.790538 0.378944
O O8 0.041066 0.665760 0.390467
O O9 0.915447 0.084554 0.695792
O O10 0.760443 0.011477 0.746724
O O11 0.824668 0.912334 0.707243
O O12 0.996655 0.498328 0.629467
O O13 0.900191 0.358016 0.562707
O O14 0.306507 0.153254 0.189723
O O15 0.255069 0.243163 0.125277
O O16 0.599342 0.400659 0.500000
O O17 0.763770 0.527539 0.500000
O O18 0.821176 0.910588 0.089700
O O19 0.796221 0.998445 0.000000
O O20 0.917430 0.082571 0.084395
#
# Coordination Sequence:
#
# PCOD9585473 Si02
#       7
#    12  12  12  12  12   6  12
#     4  10  19  31  46  65  88 115 148 185 226 269
#     4  10  20  33  46  62  84 114 148 183 223 267
#     4  10  19  30  43  60  84 115 152 187 216 247
#     4  10  19  31  47  65  83 108 141 180 228 277
#     4   9  17  28  43  63  87 116 148 181 216 257
#     4  10  19  28  41  62  88 114 140 176 225 278
#     4   9  16  26  42  66  96 127 155 183 216 255
#
# _framework density 14.067936
#
# number of rings (size 3 to 8) (size 9 to 14) (size 15 to 20)
#    0.000    2.308    2.308    1.462    0.000    1.538 
#    0.000    3.077    0.000    1.692    0.000    0.000 
#    0.000    1.231    0.000    0.615    0.000    4.000 
#
# Total GULP energy -434283.644904 kJ/mol
# GULP energy per Si atom -5567.739037 kJ/mol
# Density = 1.403592 g / cm^3
# Si number density = 14.067936 Si / 1000 Ang^3
#
#
#
# Elastic Constant Matrix: (Units=GPa)
#
#
# Indices 1 2 3 4 5 6 
#
# 1 77.1700 47.7655 40.0438 0.0000 -0.0001 0.0000
# 2 47.7655 77.1700 40.0438 0.0000 0.0001 0.0000
# 3 40.0438 40.0438 74.7200 0.0000 0.0000 0.0000
# 4 0.0000 0.0000 0.0000 17.1040 0.0000 0.0001
# 5 -0.0001 0.0001 0.0000 0.0000 17.1040 0.0000
# 6 0.0000 0.0000 0.0000 0.0001 0.0000 14.7022
#
#
#
# Elastic Compliance Matrix: (Units=1/GPa)
#
#
# Indices 1 2 3 4 5 6 
#
# 1 0.023101 -0.010908 -0.006534 0.000000 0.000000 0.000000
# 2 -0.010908 0.023101 -0.006534 0.000000 0.000000 0.000000
# 3 -0.006534 -0.006534 0.020387 0.000000 0.000000 0.000000
# 4 0.000000 0.000000 0.000000 0.058466 0.000000 0.000000
# 5 0.000000 0.000000 0.000000 0.000000 0.058466 0.000000
# 6 0.000000 0.000000 0.000000 0.000000 0.000000 0.068017
#
#
# Mechanical properties :
#
#
# Convention : Reuss Voigt Hill
#
# Bulk Modulus (GPa) = 53.66161 53.86293 53.76227
# Shear Modulus (GPa) = 16.35582 16.52919 16.44250
#
# Velocity S-wave (km/s) = 3.41344 3.43148 3.42247
# Velocity P-wave (km/s) = 7.33231 7.35329 7.34281
#
# Compressibility (1/GPa) = 0.01863530
#
# Stress axis : x y z
#
# Youngs Moduli (GPa) = 43.28881 43.28881 49.05063
#
# Poissons Ratio (x) = 0.47218 0.32052
# Poissons Ratio (y) = 0.47218 0.32052
# Poissons Ratio (z) = 0.28287 0.28287
#
# Static dielectric constant tensor:
#      x y z
#    x 1.461310 0.000000 0.000000 
#    y 0.000000 1.461310 0.000000 
#    z 0.000000 0.000000 1.469150 
# 
# From -- ./inp_files/3196.got.cif
#   From: 2010.05.17/outbox.cif.g08.bks.cpg/sg187_2_cif.got.tgz:3196.got - 2010.05.20 12:09:04.
