data_PCOD9585472
_publ_section_title
;
Structure prediction by ZEFSAII (Michael W. Deem and Ramdas Pophale) SiO2 
 PCOD9585472
Probable space group: P -6 M 2
;
_chemical_formula_sum "Si O2"
_cell_formula_units_Z 66
_cell_length_a 21.511595
_cell_length_b 21.511595
_cell_length_c 8.133204
_cell_angle_alpha 90.000000
_cell_angle_beta 90.000000
_cell_angle_gamma 120.000000
_cell_volume 3259.398962
_symmetry_space_group_name_H-M "P -6 M 2"
_symmetry_group_IT_number 187
_symmetry_cell_setting 'hexagonal'
loop_
_space_group_symop_operation_xyz
x,y,z
-x+y,-x,-z
-y,x-y,z
x,y,-z
-x+y,-x,z
-y,x-y,-z
-y,-x,-z
-x+y,y,-z
x,x-y,-z
-x+y,y,z
x,x-y,z
-y,-x,z
loop_
_atom_site_type_symbol
_atom_site_label
_atom_site_fract_x
_atom_site_fract_y
_atom_site_fract_z
Si Si1 0.770441 0.781164 0.689706
Si Si2 0.621277 0.101517 0.302623
Si Si3 0.839612 0.160389 0.680917
Si Si4 0.136582 0.139493 0.000000
Si Si5 0.333297 0.809244 0.198105
Si Si6 0.469065 0.234533 0.182911
Si Si7 0.614986 0.955875 0.697619
O O1 0.778210 0.808337 0.500000
O O2 0.802398 0.727217 0.688441
O O3 0.686781 0.733899 0.734562
O O4 0.813181 0.835416 0.835088
O O5 0.617241 0.095616 0.500000
O O6 0.548746 0.097491 0.240789
O O7 0.689987 0.178046 0.262684
O O8 0.625014 0.031966 0.240978
O O9 0.821348 0.178653 0.500000
O O10 0.808792 0.191209 0.813530
O O11 0.051302 0.102604 0.000000
O O12 0.161451 0.080726 0.000000
O O13 0.402145 0.804290 0.257763
O O14 0.258252 0.741749 0.257947
O O15 0.342195 0.885971 0.242335
O O16 0.332712 0.804790 0.000000
O O17 0.498222 0.249111 0.000000
O O18 0.611168 0.957292 0.500000
#
# Coordination Sequence:
#
# PCOD9585472 Si02
#       7
#    12  12   6   6  12   6  12
#     4  10  22  40  66  96 128 163 203 262 324 378
#     4  10  21  39  61  84 116 159 205 248 301 372
#     4  10  18  36  64  90 118 154 202 255 307 374
#     4  12  27  44  66  92 129 170 216 260 308 376
#     4  10  22  40  61  85 119 164 209 249 297 367
#     4  12  24  34  58  90 122 158 200 254 310 367
#     4  10  21  38  63  94 123 151 193 258 322 370
#
# _framework density 20.249131999999999
#
# number of rings (size 3 to 8) (size 9 to 14) (size 15 to 20)
#    0.000    1.636    2.727    1.636    2.545    4.364 
#    0.545    1.818    0.000    2.182    0.000    0.000 
#    0.000    0.000    0.000    0.000    0.000    0.000 
#
# Total GULP energy -368383.303878 kJ/mol
# GULP energy per Si atom -5581.565210 kJ/mol
# Density = 2.020304 g / cm^3
# Si number density = 20.249132 Si / 1000 Ang^3
#
#
#
# Elastic Constant Matrix: (Units=GPa)
#
#
# Indices 1 2 3 4 5 6 
#
# 1 114.8484 56.3894 28.2422 0.0000 0.0049 0.0000
# 2 56.3894 114.8484 28.2422 0.0000 -0.0049 0.0000
# 3 28.2422 28.2422 49.4544 0.0000 0.0000 0.0000
# 4 0.0000 0.0000 0.0000 -58.6889 0.0000 -0.0049
# 5 0.0049 -0.0049 0.0000 0.0000 -58.6888 0.0000
# 6 0.0000 0.0000 0.0000 -0.0049 0.0000 29.2295
#
#
#
# Elastic Compliance Matrix: (Units=1/GPa)
#
#
# Indices 1 2 3 4 5 6 
#
# 1 0.012151 -0.004955 -0.004109 0.000000 0.000001 0.000000
# 2 -0.004955 0.012151 -0.004109 0.000000 -0.000001 0.000000
# 3 -0.004109 -0.004109 0.024914 0.000000 0.000000 0.000000
# 4 0.000000 0.000000 0.000000 -0.017039 0.000000 -0.000003
# 5 0.000001 -0.000001 0.000000 0.000000 -0.017039 0.000000
# 6 0.000000 0.000000 0.000000 -0.000003 0.000000 0.034212
#
#
# Mechanical properties :
#
#
# Convention : Reuss Voigt Hill
#
# Bulk Modulus (GPa) = 43.72894 56.09987 49.91440
# Shear Modulus (GPa) = 60.01058 -6.54449 26.73305
#
# Velocity S-wave (km/s) = 5.44981 -1.79972 3.63741
# Velocity P-wave (km/s) = 7.82579 4.84214 6.50728
#
# Compressibility (1/GPa) = 0.02286815
#
# Stress axis : x y z
#
# Youngs Moduli (GPa) = 82.30033 82.30033 40.13838
#
# Poissons Ratio (x) = 0.40783 0.16493
# Poissons Ratio (y) = 0.40783 0.16493
# Poissons Ratio (z) = 0.33817 0.33817
#
# Static dielectric constant tensor:
#      x y z
#    x 1.702040 0.000000 0.000000 
#    y 0.000000 1.702040 0.000000 
#    z 0.000000 0.000000 1.729810 
# 
# From -- ./inp_files/796.got.cif
#   From: 2010.05.17/outbox.cif.g08.bks.cpg/sg187_1_cif.got.tgz:796.got - 2010.05.20 12:09:04.
