data_PCOD9585268
_publ_section_title
;
Structure prediction by ZEFSAII (Michael W. Deem and Ramdas Pophale) SiO2 
 PCOD9585268
Probable space group: P 63 C M
;
_chemical_formula_sum "Si O2"
_cell_formula_units_Z 96
_cell_length_a 14.238442
_cell_length_b 14.238442
_cell_length_c 26.281214
_cell_angle_alpha 90.000000
_cell_angle_beta 90.000000
_cell_angle_gamma 120.000000
_cell_volume 4614.248665
_symmetry_space_group_name_H-M "P 63 C M"
_symmetry_group_IT_number 185
_symmetry_cell_setting 'hexagonal'
loop_
_space_group_symop_operation_xyz
x,y,z
x-y,x,1/2+z
-y,x-y,z
-x,-y,1/2+z
-x+y,-x,z
y,-x+y,1/2+z
-x+y,y,1/2+z
x,x-y,1/2+z
-y,-x,1/2+z
y,x,z
x-y,-y,z
-x,-x+y,z
loop_
_atom_site_type_symbol
_atom_site_label
_atom_site_fract_x
_atom_site_fract_y
_atom_site_fract_z
Si Si1 0.879810 0.124988 0.488000
Si Si2 0.642387 0.513196 0.753408
Si Si3 0.327840 0.206536 0.598036
Si Si4 0.411101 0.876179 0.052366
Si Si5 0.872740 0.407149 0.937518
Si Si6 0.238121 0.421556 0.902590
Si Si7 0.532001 0.871375 0.141025
Si Si8 0.876596 0.307713 0.291041
O O1 0.861004 0.151232 0.545495
O O2 0.869200 0.201475 0.446602
O O3 0.000000 0.144025 0.484525
O O4 0.789687 0.000000 0.478893
O O5 0.601997 0.601997 0.754643
O O6 0.634005 0.472791 0.694900
O O7 0.553564 0.411441 0.786376
O O8 0.768117 0.561205 0.767636
O O9 0.237339 0.237339 0.613680
O O10 0.434722 0.318100 0.582840
O O11 0.368690 0.151657 0.638358
O O12 0.459485 0.822694 0.090228
O O13 0.506627 0.000000 0.042991
O O14 0.369534 0.835049 0.995721
O O15 0.812513 0.468730 0.919381
O O16 0.853829 0.308647 0.901778
O O17 0.000000 0.492323 0.936610
O O18 0.268845 0.394170 0.848741
O O19 0.581092 0.000000 0.138157
O O20 0.000000 0.353283 0.270005
#
# Coordination Sequence:
#
# PCOD9585268 Si02
#       8
#    12  12  12  12  12  12  12  12
#     4  11  22  38  59  89 128 171 213 254 301 363
#     4  10  24  44  66  92 123 162 211 266 329 391
#     4  10  20  36  58  86 121 161 202 242 293 359
#     4   9  19  35  53  82 120 154 190 232 284 355
#     4  11  22  38  58  86 123 159 193 240 295 355
#     4  12  23  38  61  88 116 157 207 252 310 371
#     4  10  21  38  60  87 119 156 198 248 307 370
#     4  11  24  43  66  94 123 162 213 272 334 386
#
# _framework density 20.805121
#
# number of rings (size 3 to 8) (size 9 to 14) (size 15 to 20)
#    0.000    1.500    1.250    4.000    1.750    3.500 
#    0.750    0.000    0.000    0.500    0.000    0.000 
#    0.000    0.000    0.000    0.000    0.000    0.000 
#
# Total GULP energy -535546.119102 kJ/mol
# GULP energy per Si atom -5578.605407 kJ/mol
# Density = 2.075777 g / cm^3
# Si number density = 20.805121 Si / 1000 Ang^3
#
#
#
# Elastic Constant Matrix: (Units=GPa)
#
#
# Indices 1 2 3 4 5 6 
#
# 1 68.4082 10.0995 12.0271 0.0000 0.0000 0.0000
# 2 10.0995 68.4082 12.0271 0.0000 0.0000 0.0000
# 3 12.0271 12.0271 45.4077 0.0000 0.0000 0.0000
# 4 0.0000 0.0000 0.0000 14.5854 0.0000 0.0000
# 5 0.0000 0.0000 0.0000 0.0000 14.5854 0.0000
# 6 0.0000 0.0000 0.0000 0.0000 0.0000 29.1544
#
#
#
# Elastic Compliance Matrix: (Units=1/GPa)
#
#
# Indices 1 2 3 4 5 6 
#
# 1 0.015506 -0.001644 -0.003672 0.000000 0.000000 0.000000
# 2 -0.001644 0.015506 -0.003672 0.000000 0.000000 0.000000
# 3 -0.003672 -0.003672 0.023968 0.000000 0.000000 0.000000
# 4 0.000000 0.000000 0.000000 0.068562 0.000000 0.000000
# 5 0.000000 0.000000 0.000000 0.000000 0.068562 0.000000
# 6 0.000000 0.000000 0.000000 0.000000 0.000000 0.034300
#
#
# Mechanical properties :
#
#
# Convention : Reuss Voigt Hill
#
# Bulk Modulus (GPa) = 27.02271 27.83682 27.42976
# Shear Modulus (GPa) = 19.47692 21.53640 20.50666
#
# Velocity S-wave (km/s) = 3.06299 3.22086 3.14292
# Velocity P-wave (km/s) = 5.05232 5.21927 5.13647
#
# Compressibility (1/GPa) = 0.03700592
#
# Stress axis : x y z
#
# Youngs Moduli (GPa) = 64.48973 64.48973 41.72266
#
# Poissons Ratio (x) = 0.10600 0.15320
# Poissons Ratio (y) = 0.10600 0.15320
# Poissons Ratio (z) = 0.23679 0.23679
#
# Static dielectric constant tensor:
#      x y z
#    x 1.767940 0.000000 0.000000 
#    y 0.000000 1.767940 0.000000 
#    z 0.000000 0.000000 1.781800 
# 
# From -- ./inp_files/2165.got.cif
#   From: 2010.05.17/outbox.cif.g08.bks.cpg/sg185_cif.got.tgz:2165.got - 2010.05.20 12:05:34.
