data_PCOD9585911
_publ_section_title
;
Structure prediction by ZEFSAII (Michael W. Deem and Ramdas Pophale) SiO2 
 PCOD9585911
Probable space group: P -6 C 2
;
_chemical_formula_sum "Si O2"
_cell_formula_units_Z 96
_cell_length_a 15.752390
_cell_length_b 15.752390
_cell_length_c 26.076202
_cell_angle_alpha 90.000000
_cell_angle_beta 90.000000
_cell_angle_gamma 120.000000
_cell_volume 5603.609715
_symmetry_space_group_name_H-M "P -6 C 2"
_symmetry_group_IT_number 188
_symmetry_cell_setting 'hexagonal'
loop_
_space_group_symop_operation_xyz
x,y,z
-x+y,-x,1/2-z
-y,x-y,z
x,y,1/2-z
-x+y,-x,z
-y,x-y,1/2-z
-y,-x,-z
-x+y,y,-z
x,x-y,-z
-x+y,y,1/2+z
x,x-y,1/2+z
-y,-x,1/2+z
loop_
_atom_site_type_symbol
_atom_site_label
_atom_site_fract_x
_atom_site_fract_y
_atom_site_fract_z
Si Si1 0.036322 0.765471 0.002606
Si Si2 0.001050 0.480137 0.811050
Si Si3 0.191601 0.983245 0.390855
Si Si4 0.160579 0.661637 0.027776
Si Si5 0.695674 0.058664 0.688982
Si Si6 0.359157 0.787653 0.855990
Si Si7 0.819750 0.020341 0.393702
Si Si8 0.370670 0.257760 0.189112
O O1 0.001578 0.748000 0.943838
O O2 0.119846 0.880155 0.000000
O O3 0.090239 0.706632 0.020343
O O4 0.965138 0.753965 0.049095
O O5 0.997828 0.483943 0.750000
O O6 0.111421 0.508779 0.826199
O O7 0.973210 0.560023 0.830093
O O8 0.921479 0.369283 0.825620
O O9 0.094160 0.878081 0.388664
O O10 0.263653 0.002472 0.343525
O O11 0.157967 0.064380 0.390047
O O12 0.185397 0.647379 0.085389
O O13 0.261822 0.738179 0.000000
O O14 0.116572 0.558286 0.000000
O O15 0.692876 0.038066 0.750000
O O16 0.773356 0.174804 0.682433
O O17 0.254697 0.688335 0.846131
O O18 0.773579 0.052573 0.348285
O O19 0.346935 0.256270 0.250000
#
# Coordination Sequence:
#
# PCOD9585911 Si02
#       8
#    12  12  12  12  12  12  12  12
#     4   9  20  30  47  74 102 137 177 220 259 307
#     4  10  21  36  56  78 105 142 178 219 276 331
#     4  10  20  34  54  77 107 141 179 219 268 321
#     4  11  18  31  47  69 102 139 182 222 258 297
#     4   9  20  37  55  78 106 132 175 230 272 323
#     4  10  21  33  49  75 110 151 182 216 256 324
#     4  10  19  35  52  76 106 140 176 219 262 317
#     4   9  19  37  56  76 103 134 173 224 273 320
#
# _framework density 17.131813000000001
#
# number of rings (size 3 to 8) (size 9 to 14) (size 15 to 20)
#    0.250    2.000    1.250    1.500    1.750    3.000 
#    0.750    3.750    0.000    1.500    0.000    0.000 
#    0.000    0.000    0.250    0.000    0.000    0.000 
#
# Total GULP energy -534419.281186 kJ/mol
# GULP energy per Si atom -5566.867512 kJ/mol
# Density = 1.709282 g / cm^3
# Si number density = 17.131813 Si / 1000 Ang^3
#
#
#
# Elastic Constant Matrix: (Units=GPa)
#
#
# Indices 1 2 3 4 5 6 
#
# 1 43.8665 28.0079 19.2728 -0.0004 0.0000 0.0000
# 2 28.0079 43.8665 19.2728 0.0004 0.0000 0.0000
# 3 19.2728 19.2728 43.4170 0.0000 0.0000 0.0000
# 4 -0.0004 0.0004 0.0000 11.1093 0.0000 0.0000
# 5 0.0000 0.0000 0.0000 0.0000 11.1093 -0.0004
# 6 0.0000 0.0000 0.0000 0.0000 -0.0004 7.9293
#
#
#
# Elastic Compliance Matrix: (Units=1/GPa)
#
#
# Indices 1 2 3 4 5 6 
#
# 1 0.040659 -0.022398 -0.008106 0.000002 0.000000 0.000000
# 2 -0.022398 0.040659 -0.008106 -0.000002 0.000000 0.000000
# 3 -0.008106 -0.008106 0.030229 0.000000 0.000000 0.000000
# 4 0.000002 -0.000002 0.000000 0.090015 0.000000 0.000000
# 5 0.000000 0.000000 0.000000 0.000000 0.090015 0.000004
# 6 0.000000 0.000000 0.000000 0.000000 0.000004 0.126114
#
#
# Mechanical properties :
#
#
# Convention : Reuss Voigt Hill
#
# Bulk Modulus (GPa) = 29.13220 29.36188 29.24704
# Shear Modulus (GPa) = 9.87456 10.33600 10.10528
#
# Velocity S-wave (km/s) = 2.40341 2.45893 2.43133
# Velocity P-wave (km/s) = 4.97428 5.02372 4.99906
#
# Compressibility (1/GPa) = 0.03432628
#
# Stress axis : x y z
#
# Youngs Moduli (GPa) = 24.59503 24.59503 33.08112
#
# Poissons Ratio (x) = 0.55089 0.26815
# Poissons Ratio (y) = 0.55089 0.26815
# Poissons Ratio (z) = 0.19936 0.19936
#
# Static dielectric constant tensor:
#      x y z
#    x 1.594710 0.000000 0.000000 
#    y 0.000000 1.594710 0.000000 
#    z 0.000000 0.000000 1.592070 
# 
# From -- ./inp_files/4340.got.cif
#   From: 2010.05.17/outbox.cif.g08.bks.cpg/sg188_3_cif.got.tgz:4340.got - 2010.05.20 12:11:46.
