data_PCOD9585620
_publ_section_title
;
Structure prediction by ZEFSAII (Michael W. Deem and Ramdas Pophale) SiO2 
 PCOD9585620
Probable space group: P -6 M 2
;
_chemical_formula_sum "Si O2"
_cell_formula_units_Z 60
_cell_length_a 21.841819
_cell_length_b 21.841819
_cell_length_c 7.653709
_cell_angle_alpha 90.000000
_cell_angle_beta 90.000000
_cell_angle_gamma 120.000000
_cell_volume 3162.133385
_symmetry_space_group_name_H-M "P -6 M 2"
_symmetry_group_IT_number 187
_symmetry_cell_setting 'hexagonal'
loop_
_space_group_symop_operation_xyz
x,y,z
-x+y,-x,-z
-y,x-y,z
x,y,-z
-x+y,-x,z
-y,x-y,-z
-y,-x,-z
-x+y,y,-z
x,x-y,-z
-x+y,y,z
x,x-y,z
-y,-x,z
loop_
_atom_site_type_symbol
_atom_site_label
_atom_site_fract_x
_atom_site_fract_y
_atom_site_fract_z
Si Si1 0.034444 0.828283 0.796641
Si Si2 0.252029 0.126014 0.215104
Si Si3 0.879036 0.508500 0.213222
Si Si4 0.791622 0.583243 0.786114
Si Si5 0.250828 0.884908 0.293941
Si Si6 0.041472 0.453141 0.789804
O O1 0.097532 0.902469 0.720732
O O2 0.063132 0.773246 0.789264
O O3 0.955367 0.790453 0.724136
O O4 0.027892 0.842270 0.000000
O O5 0.334442 0.167221 0.268626
O O6 0.253438 0.126719 0.000000
O O7 0.857333 0.428667 0.266928
O O8 0.831491 0.541440 0.271154
O O9 0.960510 0.558653 0.268225
O O10 0.878130 0.508338 0.000000
O O11 0.791768 0.583536 0.000000
O O12 0.242049 0.889142 0.500000
O O13 0.194118 0.805883 0.234303
O O14 0.331337 0.908777 0.260746
O O15 0.063407 0.531704 0.728146
O O16 0.039468 0.453591 0.000000
#
# Coordination Sequence:
#
# PCOD9585620 Si02
#       6
#    12   6  12   6  12  12
#     4   9  17  30  47  67  91 121 158 196 235 285
#     4   9  16  26  43  67  89 115 153 193 241 287
#     4   8  14  24  37  58  86 115 149 185 221 259
#     4   9  14  20  34  55  83 117 147 179 219 267
#     4  10  20  32  47  69  96 123 151 188 234 281
#     4   9  17  30  49  70  92 120 154 191 229 272
#
# _framework density 18.974530000000001
#
# number of rings (size 3 to 8) (size 9 to 14) (size 15 to 20)
#    0.000    3.000    0.000    3.000    0.000    4.800 
#    1.200    0.500    0.000    0.400    0.000    0.000 
#    0.000    0.000    0.000    0.000    0.200    0.000 
#
# Total GULP energy -334469.752727 kJ/mol
# GULP energy per Si atom -5574.495879 kJ/mol
# Density = 1.893134 g / cm^3
# Si number density = 18.974530 Si / 1000 Ang^3
#
#
#
# Elastic Constant Matrix: (Units=GPa)
#
#
# Indices 1 2 3 4 5 6 
#
# 1 165.0535 120.5330 3.4313 0.0000 -0.0001 0.0000
# 2 120.5330 165.0535 3.4313 0.0000 0.0001 0.0000
# 3 3.4313 3.4313 33.4545 0.0000 0.0000 0.0000
# 4 0.0000 0.0000 0.0000 37.6719 0.0000 0.0001
# 5 -0.0001 0.0001 0.0000 0.0000 37.6719 0.0000
# 6 0.0000 0.0000 0.0000 0.0001 0.0000 22.2603
#
#
#
# Elastic Compliance Matrix: (Units=1/GPa)
#
#
# Indices 1 2 3 4 5 6 
#
# 1 0.012986 -0.009476 -0.000360 0.000000 0.000000 0.000000
# 2 -0.009476 0.012986 -0.000360 0.000000 0.000000 0.000000
# 3 -0.000360 -0.000360 0.029965 0.000000 0.000000 0.000000
# 4 0.000000 0.000000 0.000000 0.026545 0.000000 0.000000
# 5 0.000000 0.000000 0.000000 0.000000 0.026545 0.000000
# 6 0.000000 0.000000 0.000000 0.000000 0.000000 0.044923
#
#
# Mechanical properties :
#
#
# Convention : Reuss Voigt Hill
#
# Bulk Modulus (GPa) = 28.13296 68.70586 48.41941
# Shear Modulus (GPa) = 26.85431 35.26523 31.05977
#
# Velocity S-wave (km/s) = 3.76610 4.31577 4.05027
# Velocity P-wave (km/s) = 5.81122 7.81810 6.88814
#
# Compressibility (1/GPa) = 0.03554549
#
# Stress axis : x y z
#
# Youngs Moduli (GPa) = 77.00676 77.00676 33.37206
#
# Poissons Ratio (x) = 0.72969 0.01201
# Poissons Ratio (y) = 0.72969 0.01201
# Poissons Ratio (z) = 0.02772 0.02772
#
# Static dielectric constant tensor:
#      x y z
#    x 1.652230 0.000000 0.000000 
#    y 0.000000 1.652230 0.000000 
#    z 0.000000 0.000000 1.709090 
# 
# From -- ./inp_files/676.got.cif
#   From: 2010.05.17/outbox.cif.g08.bks.cpg/sg187_1_cif.got.tgz:676.got - 2010.05.20 12:09:04.
