data_PCOD9585017
_publ_section_title
;
Structure prediction by ZEFSAII (Michael W. Deem and Ramdas Pophale) SiO2 
 PCOD9585017
Probable space group: P 6 M M
;
_chemical_formula_sum "Si O2"
_cell_formula_units_Z 96
_cell_length_a 18.185209
_cell_length_b 18.185209
_cell_length_c 20.551790
_cell_angle_alpha 90.000000
_cell_angle_beta 90.000000
_cell_angle_gamma 120.000000
_cell_volume 5885.954204
_symmetry_space_group_name_H-M "P 6 M M"
_symmetry_group_IT_number 183
_symmetry_cell_setting 'hexagonal'
loop_
_space_group_symop_operation_xyz
x,y,z
x-y,x,z
-y,x-y,z
-x,-y,z
-x+y,-x,z
y,-x+y,z
-x+y,y,z
x,x-y,z
-y,-x,z
y,x,z
x-y,-y,z
-x,-x+y,z
loop_
_atom_site_type_symbol
_atom_site_label
_atom_site_fract_x
_atom_site_fract_y
_atom_site_fract_z
Si Si1 0.492396 0.332555 0.048180
Si Si2 0.099406 0.732898 0.927399
Si Si3 0.835689 0.332066 0.282570
Si Si4 0.532516 0.634312 0.427461
Si Si5 0.101535 0.634356 0.802793
Si Si6 0.634799 0.731673 0.168826
Si Si7 0.835764 0.503583 0.658285
Si Si8 0.097332 0.360012 0.547784
O O1 0.517801 0.258901 0.047842
O O2 0.575033 0.424968 0.048549
O O3 0.433233 0.314862 0.111117
O O4 0.433172 0.315913 0.985404
O O5 0.167460 0.832541 0.935236
O O6 0.119015 0.699961 0.860234
O O7 0.000000 0.704461 0.928056
O O8 0.852534 0.426267 0.269421
O O9 0.737564 0.262437 0.270334
O O10 0.856761 0.328252 0.358042
O O11 0.889231 0.306234 0.235660
O O12 0.436689 0.563312 0.446282
O O13 0.584092 0.584092 0.418434
O O14 0.579242 0.700338 0.484789
O O15 0.127317 0.563659 0.821333
O O16 0.143057 0.672791 0.733604
O O17 0.000000 0.583103 0.793190
O O18 0.661712 0.830856 0.165610
O O19 0.708969 0.708969 0.163153
O O20 0.737959 0.475917 0.646292
O O21 0.852573 0.426287 0.646369
O O22 0.889992 0.581281 0.610223
O O23 0.163604 0.327208 0.553298
O O24 0.000000 0.288479 0.542210
#
# Coordination Sequence:
#
# PCOD9585017 Si02
#       8
#    12  12  12  12  12  12  12  12
#     4  10  20  33  50  73 101 131 160 189 222 263
#     4  10  20  33  49  69  93 122 157 197 239 280
#     4  10  19  30  45  67  97 131 164 195 226 262
#     4   9  17  29  46  68  93 122 156 191 225 264
#     4   9  17  29  46  68  93 122 156 191 226 267
#     4  10  21  35  51  71  94 122 156 195 238 281
#     4  10  19  30  45  67  96 128 159 189 221 260
#     4  10  20  33  49  68  90 117 151 191 234 279
#
# _framework density 16.310015
#
# number of rings (size 3 to 8) (size 9 to 14) (size 15 to 20)
#    0.000    2.250    0.000    3.375    0.000    4.000 
#    0.000    1.250    0.000    8.375    0.000    0.000 
#    0.000    3.000    0.000    8.000    0.000    0.000 
#
# Total GULP energy -535535.164202 kJ/mol
# GULP energy per Si atom -5578.491294 kJ/mol
# Density = 1.627289 g / cm^3
# Si number density = 16.310015 Si / 1000 Ang^3
#
#
#
# Elastic Constant Matrix: (Units=GPa)
#
#
# Indices 1 2 3 4 5 6 
#
# 1 84.0814 68.8954 37.2233 0.0000 0.0000 0.0000
# 2 68.8954 84.0814 37.2233 0.0000 0.0000 0.0000
# 3 37.2233 37.2233 64.3591 0.0000 0.0000 0.0000
# 4 0.0000 0.0000 0.0000 19.7348 0.0000 0.0000
# 5 0.0000 0.0000 0.0000 0.0000 19.7348 0.0000
# 6 0.0000 0.0000 0.0000 0.0000 0.0000 7.5930
#
#
#
# Elastic Compliance Matrix: (Units=1/GPa)
#
#
# Indices 1 2 3 4 5 6 
#
# 1 0.037474 -0.028376 -0.005262 0.000000 0.000000 0.000000
# 2 -0.028376 0.037474 -0.005262 0.000000 0.000000 0.000000
# 3 -0.005262 -0.005262 0.021624 0.000000 0.000000 0.000000
# 4 0.000000 0.000000 0.000000 0.050672 0.000000 0.000000
# 5 0.000000 0.000000 0.000000 0.000000 0.050672 0.000000
# 6 0.000000 0.000000 0.000000 0.000000 0.000000 0.131700
#
#
# Mechanical properties :
#
#
# Convention : Reuss Voigt Hill
#
# Bulk Modulus (GPa) = 53.26964 57.68957 55.47961
# Shear Modulus (GPa) = 12.08686 15.35786 13.72236
#
# Velocity S-wave (km/s) = 2.72521 3.07191 2.90374
# Velocity P-wave (km/s) = 6.52947 6.93034 6.73289
#
# Compressibility (1/GPa) = 0.01877242
#
# Stress axis : x y z
#
# Youngs Moduli (GPa) = 26.68532 26.68532 46.24424
#
# Poissons Ratio (x) = 0.75723 0.24333
# Poissons Ratio (y) = 0.75723 0.24333
# Poissons Ratio (z) = 0.14041 0.14041
#
# Static dielectric constant tensor:
#      x y z
#    x 1.539780 0.000000 0.000000 
#    y 0.000000 1.539780 0.000000 
#    z 0.000000 0.000000 1.551550 
# 
# From -- ./inp_files/2943.got.cif
#   From: 2010.05.17/outbox.cif.g08.bks.cpg/sg183_2_cif.got.tgz:2943.got - 2010.05.20 12:02:58.
