data_PCOD9585832
_publ_section_title
;
Structure prediction by ZEFSAII (Michael W. Deem and Ramdas Pophale) SiO2 
 PCOD9585832
Probable space group: P -6 M 2
;
_chemical_formula_sum "Si O2"
_cell_formula_units_Z 60
_cell_length_a 12.000000
_cell_length_b 12.000000
_cell_length_c 27.000000
_cell_angle_alpha 90.000000
_cell_angle_beta 90.000000
_cell_angle_gamma 120.000000
_cell_volume 3367.106770
_symmetry_space_group_name_H-M "P -6 M 2"
_symmetry_group_IT_number 187
_symmetry_cell_setting 'hexagonal'
loop_
_space_group_symop_operation_xyz
x,y,z
-x+y,-x,-z
-y,x-y,z
x,y,-z
-x+y,-x,z
-y,x-y,-z
-y,-x,-z
-x+y,y,-z
x,x-y,-z
-x+y,y,z
x,x-y,z
-y,-x,z
loop_
_atom_site_type_symbol
_atom_site_label
_atom_site_fract_x
_atom_site_fract_y
_atom_site_fract_z
Si Si1 0.263583 0.003615 0.794410
Si Si2 0.663599 0.069023 0.500000
Si Si3 0.599675 0.934242 0.106809
Si Si4 0.069893 0.406752 0.302776
Si Si5 0.333508 0.400420 0.000000
Si Si6 0.736222 0.000138 0.598948
O O1 0.132158 0.867843 0.794424
O O2 0.331291 0.013010 0.846451
O O3 0.345154 0.003828 0.747608
O O4 0.231809 0.115905 0.788895
O O5 0.798477 0.201524 0.500000
O O6 0.549228 0.098455 0.500000
O O7 0.660076 0.994637 0.549597
O O8 0.459020 0.918040 0.109957
O O9 0.587506 0.793753 0.108996
O O10 0.658871 0.993739 0.053022
O O11 0.200019 0.400037 0.302665
O O12 0.104126 0.552063 0.304379
O O13 0.993018 0.333597 0.351634
O O14 0.457806 0.542194 0.000000
O O15 0.206275 0.412550 0.000000
O O16 0.875673 0.124327 0.595947
O O17 0.749181 0.874591 0.601794
#
# Coordination Sequence:
#
# PCOD9585832 Si02
#       6
#    12   6  12  12   6  12
#     4  10  20  33  49  68  93 126 162 199 236 279
#     4  10  20  34  52  74 102 136 172 208 246 288
#     4   9  16  27  46  71  97 122 150 189 237 287
#     4  10  20  34  53  76 101 127 156 195 243 293
#     4   8  13  22  39  66  96 122 148 182 230 284
#     4  10  20  34  54  78 104 134 167 204 242 284
#
# _framework density 17.819452999999999
#
# number of rings (size 3 to 8) (size 9 to 14) (size 15 to 20)
#    0.000    2.400    0.000    3.100    0.000    1.600 
#    0.000    5.500    0.000   11.200    0.000    1.400 
#    0.000    0.000    0.000    0.000    0.000    0.000 
#
# Total GULP energy -334086.076156 kJ/mol
# GULP energy per Si atom -5568.101269 kJ/mol
# Density = 1.777889 g / cm^3
# Si number density = 17.819453 Si / 1000 Ang^3
#
#
#
# Elastic Constant Matrix: (Units=GPa)
#
#
# Indices 1 2 3 4 5 6 
#
# 1 14.6109 4.5105 33.4053 0.0000 -0.0159 0.0000
# 2 4.5105 14.6109 33.4053 0.0000 0.0159 0.0000
# 3 33.4053 33.4053 163.9731 0.0000 0.0000 0.0000
# 4 0.0000 0.0000 0.0000 -122.7794 0.0000 0.0159
# 5 -0.0159 0.0159 0.0000 0.0000 -122.7794 0.0000
# 6 0.0000 0.0000 0.0000 0.0159 0.0000 5.0502
#
#
#
# Elastic Compliance Matrix: (Units=1/GPa)
#
#
# Indices 1 2 3 4 5 6 
#
# 1 0.140240 0.041234 -0.036971 0.000000 -0.000013 0.000000
# 2 0.041234 0.140240 -0.036971 0.000000 0.000013 0.000000
# 3 -0.036971 -0.036971 0.021162 0.000000 0.000000 0.000000
# 4 0.000000 0.000000 0.000000 -0.008145 0.000000 0.000026
# 5 -0.000013 0.000013 0.000000 0.000000 -0.008145 0.000000
# 6 0.000000 0.000000 0.000000 0.000026 0.000000 0.198012
#
#
# Mechanical properties :
#
#
# Convention : Reuss Voigt Hill
#
# Bulk Modulus (GPa) = 4.23319 37.31521 20.77420
# Shear Modulus (GPa) = 7.96783 -39.97680 -16.00448
#
# Velocity S-wave (km/s) = 2.11687 -4.74163 -3.00016
# Velocity P-wave (km/s) = 2.89060 2.99854 0.56376
#
# Compressibility (1/GPa) = 0.23622869
#
# Stress axis : x y z
#
# Youngs Moduli (GPa) = 7.13061 7.13061 47.25397
#
# Poissons Ratio (x) = -0.29403 1.74702
# Poissons Ratio (y) = -0.29403 1.74702
# Poissons Ratio (z) = 0.26362 0.26362
#
# Static dielectric constant tensor:
#      x y z
#    x 1.609590 0.000000 0.000000 
#    y 0.000000 1.609590 0.000000 
#    z 0.000000 0.000000 1.710700 
# 
# From -- ./inp_files/4158.got.cif
#   From: 2010.05.17/outbox.ucp.g08.bks.cvg/sg187_3_cif.got.tgz:4158.got - 2010.06.11 15:21:44.
