data_PCOD9585645
_publ_section_title
;
Structure prediction by ZEFSAII (Michael W. Deem and Ramdas Pophale) SiO2 
 PCOD9585645
Probable space group: P -6 M 2
;
_chemical_formula_sum "Si O2"
_cell_formula_units_Z 96
_cell_length_a 17.395647
_cell_length_b 17.395647
_cell_length_c 23.555914
_cell_angle_alpha 90.000000
_cell_angle_beta 90.000000
_cell_angle_gamma 120.000000
_cell_volume 6173.220137
_symmetry_space_group_name_H-M "P -6 M 2"
_symmetry_group_IT_number 187
_symmetry_cell_setting 'hexagonal'
loop_
_space_group_symop_operation_xyz
x,y,z
-x+y,-x,-z
-y,x-y,z
x,y,-z
-x+y,-x,z
-y,x-y,-z
-y,-x,-z
-x+y,y,-z
x,x-y,-z
-x+y,y,z
x,x-y,z
-y,-x,z
loop_
_atom_site_type_symbol
_atom_site_label
_atom_site_fract_x
_atom_site_fract_y
_atom_site_fract_z
Si Si1 0.410007 0.411145 0.752037
Si Si2 0.593954 0.592803 0.064878
Si Si3 0.666473 0.150441 0.154130
Si Si4 0.182490 0.000819 0.564665
Si Si5 0.666292 0.512421 0.433273
Si Si6 0.150344 0.666472 0.847492
Si Si7 0.664211 0.668168 0.366388
Si Si8 0.512024 0.844514 0.565415
O O1 0.499042 0.500959 0.731887
O O2 0.443668 0.357750 0.791323
O O3 0.356977 0.443815 0.792480
O O4 0.351310 0.353150 0.699925
O O5 0.500610 0.499390 0.064869
O O6 0.659384 0.570951 0.100822
O O7 0.571452 0.658737 0.099686
O O8 0.620997 0.619052 0.000000
O O9 0.585483 0.170965 0.148566
O O10 0.760074 0.239927 0.158082
O O11 0.217375 0.004198 0.500000
O O12 0.163312 0.081656 0.568794
O O13 0.253443 0.011324 0.611491
O O14 0.092698 0.907303 0.570629
O O15 0.665629 0.533207 0.500000
O O16 0.760768 0.521535 0.420282
O O17 0.587792 0.412209 0.424442
O O18 0.650234 0.578784 0.395863
O O19 0.170638 0.585319 0.853066
O O20 0.239949 0.760052 0.844166
O O21 0.590830 0.688206 0.392357
O O22 0.541168 0.871498 0.500000
O O23 0.428852 0.857704 0.576467
O O24 0.483932 0.741966 0.570232
#
# Coordination Sequence:
#
# PCOD9585645 Si02
#       8
#    12  12  12  12  12  12  12  12
#     4   9  20  35  46  62  93 128 156 191 243 283
#     4   8  15  28  44  66  99 129 148 178 228 270
#     4   9  17  30  48  68  91 123 163 199 227 261
#     4  10  21  37  55  74  95 117 142 180 236 297
#     4  10  20  33  48  67  92 120 149 186 236 290
#     4   9  17  30  48  68  91 123 163 199 227 261
#     4  12  21  32  51  72  91 116 156 198 232 279
#     4  10  20  33  48  67  92 120 149 186 236 290
#
# _framework density 15.55104
#
# number of rings (size 3 to 8) (size 9 to 14) (size 15 to 20)
#    0.000    2.375    0.000    5.125    0.000    7.000 
#    0.000    0.000    0.000    4.500    0.000    0.000 
#    0.000    0.000    0.000   12.375    0.000   26.000 
#
# Total GULP energy -535383.930856 kJ/mol
# GULP energy per Si atom -5576.915946 kJ/mol
# Density = 1.551565 g / cm^3
# Si number density = 15.551040 Si / 1000 Ang^3
#
#
#
# Elastic Constant Matrix: (Units=GPa)
#
#
# Indices 1 2 3 4 5 6 
#
# 1 79.5778 25.6904 36.0152 0.0000 -0.0007 0.0000
# 2 25.6904 79.5778 36.0152 0.0000 0.0007 0.0000
# 3 36.0152 36.0152 80.7606 0.0000 0.0000 0.0000
# 4 0.0000 0.0000 0.0000 15.0749 0.0000 0.0007
# 5 -0.0007 0.0007 0.0000 0.0000 15.0749 0.0000
# 6 0.0000 0.0000 0.0000 0.0007 0.0000 26.9437
#
#
#
# Elastic Compliance Matrix: (Units=1/GPa)
#
#
# Indices 1 2 3 4 5 6 
#
# 1 0.016114 -0.002443 -0.006097 0.000000 0.000001 0.000000
# 2 -0.002443 0.016114 -0.006097 0.000000 -0.000001 0.000000
# 3 -0.006097 -0.006097 0.017820 0.000000 0.000000 0.000000
# 4 0.000000 0.000000 0.000000 0.066335 0.000000 -0.000002
# 5 0.000001 -0.000001 0.000000 0.000000 0.066335 0.000000
# 6 0.000000 0.000000 0.000000 -0.000002 0.000000 0.037114
#
#
# Mechanical properties :
#
#
# Convention : Reuss Voigt Hill
#
# Bulk Modulus (GPa) = 48.13331 48.37308 48.25319
# Shear Modulus (GPa) = 19.52887 20.89842 20.21365
#
# Velocity S-wave (km/s) = 3.54756 3.66985 3.60922
# Velocity P-wave (km/s) = 6.91370 7.00932 6.96167
#
# Compressibility (1/GPa) = 0.02077564
#
# Stress axis : x y z
#
# Youngs Moduli (GPa) = 62.05701 62.05701 56.11706
#
# Poissons Ratio (x) = 0.15161 0.34213
# Poissons Ratio (y) = 0.15161 0.34213
# Poissons Ratio (z) = 0.37834 0.37834
#
# Static dielectric constant tensor:
#      x y z
#    x 1.502220 0.000000 0.000000 
#    y 0.000000 1.502220 0.000000 
#    z 0.000000 0.000000 1.521420 
# 
# From -- ./inp_files/3764.got.cif
#   From: 2010.05.17/outbox.cif.g08.bks.cpg/sg187_2_cif.got.tgz:3764.got - 2010.05.20 12:09:04.
