data_PCOD9585753
_publ_section_title
;
Structure prediction by ZEFSAII (Michael W. Deem and Ramdas Pophale) SiO2 
 PCOD9585753
Probable space group: P -6 M 2
;
_chemical_formula_sum "Si O2"
_cell_formula_units_Z 60
_cell_length_a 17.247852
_cell_length_b 17.247852
_cell_length_c 12.979071
_cell_angle_alpha 90.000000
_cell_angle_beta 90.000000
_cell_angle_gamma 120.000000
_cell_volume 3343.830646
_symmetry_space_group_name_H-M "P -6 M 2"
_symmetry_group_IT_number 187
_symmetry_cell_setting 'hexagonal'
loop_
_space_group_symop_operation_xyz
x,y,z
-x+y,-x,-z
-y,x-y,z
x,y,-z
-x+y,-x,z
-y,x-y,-z
-y,-x,-z
-x+y,y,-z
x,x-y,-z
-x+y,y,z
x,x-y,z
-y,-x,z
loop_
_atom_site_type_symbol
_atom_site_label
_atom_site_fract_x
_atom_site_fract_y
_atom_site_fract_z
Si Si1 0.815929 0.998748 0.270990
Si Si2 0.332902 0.487284 0.876318
Si Si3 0.965817 0.330879 0.193138
Si Si4 0.481880 0.333268 0.618020
Si Si5 0.481435 0.332233 0.000000
Si Si6 0.820285 0.821484 0.500000
O O1 0.916674 0.083327 0.273362
O O2 0.755049 0.021113 0.198565
O O3 0.816367 0.908184 0.243406
O O4 0.776081 0.985382 0.388116
O O5 0.237477 0.474953 0.845911
O O6 0.412245 0.587756 0.856036
O O7 0.354669 0.417293 0.822880
O O8 0.331324 0.473077 0.000000
O O9 0.919787 0.335868 0.298164
O O10 0.902473 0.325973 0.099945
O O11 0.451539 0.331219 0.500000
O O12 0.487629 0.243815 0.633906
O O13 0.579527 0.420474 0.629306
O O14 0.573213 0.426788 0.000000
O O15 0.500249 0.250125 0.000000
O O16 0.856498 0.928249 0.500000
O O17 0.900622 0.801243 0.500000
#
# Coordination Sequence:
#
# PCOD9585753 Si02
#       6
#    12  12  12  12   6   6
#     4  10  20  35  55  82 116 156 197 237 282 335
#     4  10  20  37  61  88 116 148 187 233 284 339
#     4  12  23  37  58  87 118 149 187 237 294 339
#     4  10  21  37  58  83 114 153 196 240 286 339
#     4  12  25  42  61  84 114 152 194 236 285 344
#     4   8  15  28  50  76 107 144 188 234 276 322
#
# _framework density 17.943493
#
# number of rings (size 3 to 8) (size 9 to 14) (size 15 to 20)
#    0.000    1.600    1.000    5.000    1.400    3.200 
#    0.000    2.000    0.000    0.000    0.000    1.400 
#    0.000    1.600    0.000    0.000    0.000    0.000 
#
# Total GULP energy -334991.665229 kJ/mol
# GULP energy per Si atom -5583.194420 kJ/mol
# Density = 1.790265 g / cm^3
# Si number density = 17.943493 Si / 1000 Ang^3
#
#
#
# Elastic Constant Matrix: (Units=GPa)
#
#
# Indices 1 2 3 4 5 6 
#
# 1 127.4768 59.9397 68.9896 0.0000 -0.0007 0.0000
# 2 59.9397 127.4768 68.9896 0.0000 0.0007 0.0000
# 3 68.9896 68.9896 83.8878 0.0000 0.0000 0.0000
# 4 0.0000 0.0000 0.0000 25.1062 0.0000 0.0007
# 5 -0.0007 0.0007 0.0000 0.0000 25.1062 0.0000
# 6 0.0000 0.0000 0.0000 0.0007 0.0000 33.7685
#
#
#
# Elastic Compliance Matrix: (Units=1/GPa)
#
#
# Indices 1 2 3 4 5 6 
#
# 1 0.014165 -0.000641 -0.011122 0.000000 0.000000 0.000000
# 2 -0.000641 0.014165 -0.011122 0.000000 0.000000 0.000000
# 3 -0.011122 -0.011122 0.030215 0.000000 0.000000 0.000000
# 4 0.000000 0.000000 0.000000 0.039831 0.000000 -0.000001
# 5 0.000000 0.000000 0.000000 0.000000 0.039831 0.000000
# 6 0.000000 0.000000 0.000000 -0.000001 0.000000 0.029613
#
#
# Mechanical properties :
#
#
# Convention : Reuss Voigt Hill
#
# Bulk Modulus (GPa) = 78.28522 81.63102 79.95812
# Shear Modulus (GPa) = 22.95157 26.19101 24.57129
#
# Velocity S-wave (km/s) = 3.58033 3.82467 3.70452
# Velocity P-wave (km/s) = 7.79841 8.06822 7.93446
#
# Compressibility (1/GPa) = 0.01277380
#
# Stress axis : x y z
#
# Youngs Moduli (GPa) = 70.59453 70.59453 33.09651
#
# Poissons Ratio (x) = 0.04527 0.36811
# Poissons Ratio (y) = 0.04527 0.36811
# Poissons Ratio (z) = 0.78517 0.78517
#
# Static dielectric constant tensor:
#      x y z
#    x 1.601510 0.000000 0.000000 
#    y 0.000000 1.601510 0.000000 
#    z 0.000000 0.000000 1.629690 
# 
# From -- ./inp_files/1665.got.cif
#   From: 2010.05.17/outbox.cif.g08.bks.cpg/sg187_1_cif.got.tgz:1665.got - 2010.05.20 12:09:04.
