data_PCOD9585318
_publ_section_title
;
Structure prediction by ZEFSAII (Michael W. Deem and Ramdas Pophale) SiO2 
 PCOD9585318
Probable space group: P 63 M C
;
_chemical_formula_sum "Si O2"
_cell_formula_units_Z 84
_cell_length_a 23.439609
_cell_length_b 23.439609
_cell_length_c 11.036985
_cell_angle_alpha 90.000000
_cell_angle_beta 90.000000
_cell_angle_gamma 120.000000
_cell_volume 5251.481136
_symmetry_space_group_name_H-M "P 63 M C"
_symmetry_group_IT_number 186
_symmetry_cell_setting 'hexagonal'
loop_
_space_group_symop_operation_xyz
x,y,z
x-y,x,1/2+z
-y,x-y,z
-x,-y,1/2+z
-x+y,-x,z
y,-x+y,1/2+z
-x+y,y,z
x,x-y,z
-y,-x,z
y,x,1/2+z
x-y,-y,1/2+z
-x,-x+y,1/2+z
loop_
_atom_site_type_symbol
_atom_site_label
_atom_site_fract_x
_atom_site_fract_y
_atom_site_fract_z
Si Si1 0.739164 0.745684 0.533640
Si Si2 0.609898 0.087525 0.025936
Si Si3 0.379588 0.308092 0.378283
Si Si4 0.928125 0.529426 0.555004
Si Si5 0.869189 0.609415 0.141555
Si Si6 0.075338 0.675518 0.288635
Si Si7 0.935127 0.736829 0.780333
O O1 0.721588 0.673432 0.486515
O O2 0.671191 0.742887 0.571543
O O3 0.762902 0.788552 0.408967
O O4 0.781650 0.761169 0.657168
O O5 0.553838 0.107675 0.023773
O O6 0.668226 0.121955 0.122562
O O7 0.570983 0.008340 0.046893
O O8 0.650228 0.099702 0.901290
O O9 0.450392 0.353623 0.436408
O O10 0.374122 0.254992 0.283629
O O11 0.359769 0.355643 0.305197
O O12 0.907958 0.453979 0.563839
O O13 0.908263 0.556650 0.669952
O O14 0.799752 0.599504 0.100896
O O15 0.094079 0.751419 0.285062
O O16 0.875749 0.751498 0.773842
#
# Coordination Sequence:
#
# PCOD9585318 Si02
#       7
#    12  12  12  12  12  12  12
#     4  11  19  37  50  74 112 138 183 221 263 324
#     4  10  19  29  45  68  94 126 170 222 261 306
#     4  10  17  31  44  66 102 131 165 219 256 312
#     4  10  17  27  46  65  92 133 164 206 268 312
#     4  12  21  32  51  73 100 143 182 217 272 330
#     4  10  16  30  44  67 101 126 169 207 254 310
#     4  11  21  34  56  77 106 153 184 214 268 328
#
# _framework density 15.995488999999999
#
# number of rings (size 3 to 8) (size 9 to 14) (size 15 to 20)
#    0.000    1.429   10.000    0.857    0.000    1.714 
#    0.000    0.000    0.000    0.286    0.000    0.000 
#    0.000    0.000    0.000   16.857    0.000    0.286 
#
# Total GULP energy -467663.827314 kJ/mol
# GULP energy per Si atom -5567.426516 kJ/mol
# Density = 1.595908 g / cm^3
# Si number density = 15.995489 Si / 1000 Ang^3
#
#
#
# Elastic Constant Matrix: (Units=GPa)
#
#
# Indices 1 2 3 4 5 6 
#
# 1 43.3731 23.1735 27.2548 0.0000 0.0000 0.0000
# 2 23.1735 43.3731 27.2548 0.0000 0.0000 0.0000
# 3 27.2548 27.2548 100.5404 0.0000 0.0000 0.0000
# 4 0.0000 0.0000 0.0000 12.3737 0.0000 0.0000
# 5 0.0000 0.0000 0.0000 0.0000 12.3737 0.0000
# 6 0.0000 0.0000 0.0000 0.0000 0.0000 10.0998
#
#
#
# Elastic Compliance Matrix: (Units=1/GPa)
#
#
# Indices 1 2 3 4 5 6 
#
# 1 0.034411 -0.015095 -0.005236 0.000000 0.000000 0.000000
# 2 -0.015095 0.034411 -0.005236 0.000000 0.000000 0.000000
# 3 -0.005236 -0.005236 0.012785 0.000000 0.000000 0.000000
# 4 0.000000 0.000000 0.000000 0.080816 0.000000 0.000000
# 5 0.000000 0.000000 0.000000 0.000000 0.080816 0.000000
# 6 0.000000 0.000000 0.000000 0.000000 0.000000 0.099012
#
#
# Mechanical properties :
#
#
# Convention : Reuss Voigt Hill
#
# Bulk Modulus (GPa) = 32.81652 38.07253 35.44453
# Shear Modulus (GPa) = 12.39021 14.27635 13.33328
#
# Velocity S-wave (km/s) = 2.78619 2.99075 2.89028
# Velocity P-wave (km/s) = 5.55978 5.98163 5.77456
#
# Compressibility (1/GPa) = 0.03047246
#
# Stress axis : x y z
#
# Youngs Moduli (GPa) = 29.06039 29.06039 78.21542
#
# Poissons Ratio (x) = 0.43866 0.40956
# Poissons Ratio (y) = 0.43866 0.40956
# Poissons Ratio (z) = 0.15217 0.15217
#
# Static dielectric constant tensor:
#      x y z
#    x 1.530820 0.000000 0.000000 
#    y 0.000000 1.530820 0.000000 
#    z 0.000000 0.000000 1.615640 
# 
# From -- ./inp_files/2001.got.cif
#   From: 2010.05.17/outbox.cif.g08.bks.cpg/sg186_2_cif.got.tgz:2001.got - 2010.05.20 12:07:08.
