data_PCOD9585553
_publ_section_title
;
Structure prediction by ZEFSAII (Michael W. Deem and Ramdas Pophale) SiO2 
 PCOD9585553
Probable space group: P -6 M 2
;
_chemical_formula_sum "Si O2"
_cell_formula_units_Z 44
_cell_length_a 15.744269
_cell_length_b 15.744269
_cell_length_c 12.759008
_cell_angle_alpha 90.000000
_cell_angle_beta 90.000000
_cell_angle_gamma 120.000000
_cell_volume 2739.003228
_symmetry_space_group_name_H-M "P -6 M 2"
_symmetry_group_IT_number 187
_symmetry_cell_setting 'hexagonal'
loop_
_space_group_symop_operation_xyz
x,y,z
-x+y,-x,-z
-y,x-y,z
x,y,-z
-x+y,-x,z
-y,x-y,-z
-y,-x,-z
-x+y,y,-z
x,x-y,-z
-x+y,y,z
x,x-y,z
-y,-x,z
loop_
_atom_site_type_symbol
_atom_site_label
_atom_site_fract_x
_atom_site_fract_y
_atom_site_fract_z
Si Si1 0.444236 0.888472 0.183165
Si Si2 0.999217 0.200334 0.500000
Si Si3 0.071499 0.346207 0.880294
Si Si4 0.333335 0.666668 0.873193
Si Si5 0.511402 0.488599 0.625848
Si Si6 0.725569 0.074377 0.692109
O O1 0.373219 0.921093 0.128942
O O2 0.387004 0.774007 0.171034
O O3 0.462157 0.924313 0.303482
O O4 0.913623 0.086378 0.500000
O O5 0.980048 0.250539 0.400294
O O6 0.105265 0.210529 0.500000
O O7 0.177090 0.354179 0.855608
O O8 0.987418 0.284183 0.796444
O O9 0.047493 0.311016 0.000000
O O10 0.333334 0.666667 0.000000
O O11 0.505307 0.494694 0.500000
O O12 0.448593 0.374980 0.662460
O O13 0.815788 0.184213 0.699715
#
# Coordination Sequence:
#
# PCOD9585553 Si02
#       6
#     6   6  12   2   6  12
#     4  10  20  30  50  80 108 141 180 214 251 306
#     4  10  19  33  54  78 104 132 168 209 259 318
#     4  10  19  32  52  79 109 141 176 214 259 315
#     4  12  18  30  52  74 112 150 186 210 238 299
#     4  10  20  38  54  74 106 136 177 227 274 318
#     4  10  21  36  55  77 104 137 178 224 271 320
#
# _framework density 16.064238
#
# number of rings (size 3 to 8) (size 9 to 14) (size 15 to 20)
#    0.000    1.909    2.727    2.182    0.000    0.545 
#    0.818    0.682    0.000    0.545    0.000    0.000 
#    0.000    0.000    0.000    0.000    0.000    0.000 
#
# Total GULP energy -245084.796047 kJ/mol
# GULP energy per Si atom -5570.109001 kJ/mol
# Density = 1.602767 g / cm^3
# Si number density = 16.064238 Si / 1000 Ang^3
#
#
#
# Elastic Constant Matrix: (Units=GPa)
#
#
# Indices 1 2 3 4 5 6 
#
# 1 106.5789 69.1265 64.2539 -0.0001 -0.0008 0.0000
# 2 69.1265 106.5789 64.2539 0.0000 0.0008 0.0000
# 3 64.2539 64.2539 143.4124 -0.0002 -0.0001 0.0000
# 4 -0.0001 0.0000 -0.0002 14.8657 0.0000 0.0009
# 5 -0.0008 0.0008 -0.0001 0.0000 14.8657 0.0001
# 6 0.0000 0.0000 0.0000 0.0009 0.0001 18.7262
#
#
#
# Elastic Compliance Matrix: (Units=1/GPa)
#
#
# Indices 1 2 3 4 5 6 
#
# 1 0.017583 -0.009118 -0.003793 0.000000 0.000001 0.000000
# 2 -0.009118 0.017583 -0.003793 0.000000 -0.000001 0.000000
# 3 -0.003793 -0.003793 0.010371 0.000000 0.000000 0.000000
# 4 0.000000 0.000000 0.000000 0.067269 0.000000 -0.000003
# 5 0.000001 -0.000001 0.000000 0.000000 0.067269 0.000000
# 6 0.000000 0.000000 0.000000 -0.000003 0.000000 0.053401
#
#
# Mechanical properties :
#
#
# Convention : Reuss Voigt Hill
#
# Bulk Modulus (GPa) = 82.43308 83.53762 82.98535
# Shear Modulus (GPa) = 18.45524 20.28729 19.37127
#
# Velocity S-wave (km/s) = 3.39313 3.55756 3.47632
# Velocity P-wave (km/s) = 8.17173 8.30603 8.23915
#
# Compressibility (1/GPa) = 0.01213105
#
# Stress axis : x y z
#
# Youngs Moduli (GPa) = 56.87344 56.87341 96.41834
#
# Poissons Ratio (x) = 0.51855 0.36569
# Poissons Ratio (y) = 0.51855 0.36569
# Poissons Ratio (z) = 0.21571 0.21571
#
# Static dielectric constant tensor:
#      x y z
#    x 1.508370 0.000000 0.000000 
#    y 0.000000 1.508370 0.000000 
#    z 0.000000 0.000000 1.547640 
# 
# From -- ./inp_files/1453.got.cif
#   From: 2010.05.17/outbox.cif.g08.bks.cpg/sg187_1_cif.got.tgz:1453.got - 2010.05.20 12:09:04.
