data_PCOD9585842
_publ_section_title
;
Structure prediction by ZEFSAII (Michael W. Deem and Ramdas Pophale) SiO2 
 PCOD9585842
Probable space group: P -6 C 2
;
_chemical_formula_sum "Si O2"
_cell_formula_units_Z 72
_cell_length_a 24.656822
_cell_length_b 24.656822
_cell_length_c 8.729154
_cell_angle_alpha 90.000000
_cell_angle_beta 90.000000
_cell_angle_gamma 120.000000
_cell_volume 4595.967903
_symmetry_space_group_name_H-M "P -6 C 2"
_symmetry_group_IT_number 188
_symmetry_cell_setting 'hexagonal'
loop_
_space_group_symop_operation_xyz
x,y,z
-x+y,-x,1/2-z
-y,x-y,z
x,y,1/2-z
-x+y,-x,z
-y,x-y,1/2-z
-y,-x,-z
-x+y,y,-z
x,x-y,-z
-x+y,y,1/2+z
x,x-y,1/2+z
-y,-x,1/2+z
loop_
_atom_site_type_symbol
_atom_site_label
_atom_site_fract_x
_atom_site_fract_y
_atom_site_fract_z
Si Si1 0.291256 0.473217 0.933854
Si Si2 0.110597 0.778762 0.066916
Si Si3 0.550265 0.215870 0.932699
Si Si4 0.333074 0.005139 0.434143
Si Si5 0.738323 0.142877 0.433792
Si Si6 0.526194 0.588084 0.433462
O O1 0.285547 0.469812 0.750000
O O2 0.363456 0.498265 0.975095
O O3 0.252009 0.504018 0.000000
O O4 0.257138 0.402904 0.001664
O O5 0.112909 0.780235 0.250000
O O6 0.151273 0.848728 0.000000
O O7 0.040529 0.735015 0.006244
O O8 0.556223 0.220754 0.750000
O O9 0.477780 0.168246 0.971445
O O10 0.598317 0.196634 0.000000
O O11 0.565927 0.282964 0.000000
O O12 0.328293 0.001362 0.250000
O O13 0.379435 0.978475 0.481517
O O14 0.362317 0.075426 0.492332
O O15 0.741606 0.139837 0.250000
O O16 0.805063 0.194938 0.500000
O O17 0.525413 0.583997 0.250000
O O18 0.479633 0.520368 0.500000
#
# Coordination Sequence:
#
# PCOD9585842 Si02
#       6
#    12  12  12  12  12  12
#     4   9  16  27  42  62  84 110 143 179 220 268
#     4  10  17  27  45  69  94 119 146 177 214 259
#     4  10  20  33  49  67  88 113 149 197 252 306
#     4  10  20  34  49  68  94 123 155 193 232 277
#     4  10  21  36  52  70  91 122 159 195 237 290
#     4   9  19  31  44  64  90 117 149 189 236 284
#
# _framework density 15.665906
#
# number of rings (size 3 to 8) (size 9 to 14) (size 15 to 20)
#    0.000    2.333    0.000    5.667    0.000    6.667 
#    0.000    3.333    0.000    0.333    0.000    0.000 
#    0.000    0.000    0.000    0.500    0.000    7.000 
#
# Total GULP energy -401298.583336 kJ/mol
# GULP energy per Si atom -5573.591435 kJ/mol
# Density = 1.563025 g / cm^3
# Si number density = 15.665906 Si / 1000 Ang^3
#
#
#
# Elastic Constant Matrix: (Units=GPa)
#
#
# Indices 1 2 3 4 5 6 
#
# 1 82.5678 59.8486 35.0017 0.0003 0.0000 0.0000
# 2 59.8486 82.5678 35.0017 -0.0003 0.0000 0.0000
# 3 35.0017 35.0017 64.1404 0.0000 0.0000 0.0000
# 4 0.0003 -0.0003 0.0000 23.1384 0.0000 0.0000
# 5 0.0000 0.0000 0.0000 0.0000 23.1384 0.0003
# 6 0.0000 0.0000 0.0000 0.0000 0.0003 11.3596
#
#
#
# Elastic Compliance Matrix: (Units=1/GPa)
#
#
# Indices 1 2 3 4 5 6 
#
# 1 0.026806 -0.017210 -0.005236 -0.000001 0.000000 0.000000
# 2 -0.017210 0.026806 -0.005236 0.000001 0.000000 0.000000
# 3 -0.005236 -0.005236 0.021306 0.000000 0.000000 0.000000
# 4 -0.000001 0.000001 0.000000 0.043218 0.000000 0.000000
# 5 0.000000 0.000000 0.000000 0.000000 0.043218 -0.000001
# 6 0.000000 0.000000 0.000000 0.000000 -0.000001 0.088031
#
#
# Mechanical properties :
#
#
# Convention : Reuss Voigt Hill
#
# Bulk Modulus (GPa) = 51.14687 54.33111 52.73899
# Shear Modulus (GPa) = 16.06340 18.15558 17.10949
#
# Velocity S-wave (km/s) = 3.20562 3.40799 3.30835
# Velocity P-wave (km/s) = 6.81328 7.08818 6.95209
#
# Compressibility (1/GPa) = 0.01955154
#
# Stress axis : x y z
#
# Youngs Moduli (GPa) = 37.30573 37.30573 46.93570
#
# Poissons Ratio (x) = 0.64203 0.24577
# Poissons Ratio (y) = 0.64203 0.24577
# Poissons Ratio (z) = 0.19534 0.19534
#
# Static dielectric constant tensor:
#      x y z
#    x 1.533910 0.000000 0.000000 
#    y 0.000000 1.533910 0.000000 
#    z 0.000000 0.000000 1.522120 
# 
# From -- ./inp_files/1000.got.cif
#   From: 2010.05.17/outbox.cif.g08.bks.cpg/sg188_1_cif.got.tgz:1000.got - 2010.05.20 12:11:46.
