data_PCOD9585595
_publ_section_title
;
Structure prediction by ZEFSAII (Michael W. Deem and Ramdas Pophale) SiO2 
 PCOD9585595
Probable space group: P -6 M 2
;
_chemical_formula_sum "Si O2"
_cell_formula_units_Z 78
_cell_length_a 17.466734
_cell_length_b 17.466734
_cell_length_c 18.232107
_cell_angle_alpha 90.000000
_cell_angle_beta 90.000000
_cell_angle_gamma 120.000000
_cell_volume 4817.158160
_symmetry_space_group_name_H-M "P -6 M 2"
_symmetry_group_IT_number 187
_symmetry_cell_setting 'hexagonal'
loop_
_space_group_symop_operation_xyz
x,y,z
-x+y,-x,-z
-y,x-y,z
x,y,-z
-x+y,-x,z
-y,x-y,-z
-y,-x,-z
-x+y,y,-z
x,x-y,-z
-x+y,y,z
x,x-y,z
-y,-x,z
loop_
_atom_site_type_symbol
_atom_site_label
_atom_site_fract_x
_atom_site_fract_y
_atom_site_fract_z
Si Si1 0.078326 0.334937 0.697857
Si Si2 0.913413 0.262130 0.789861
Si Si3 0.849312 0.515977 0.500000
Si Si4 0.516923 0.665794 0.583292
Si Si5 0.176126 0.000185 0.415999
Si Si6 0.844837 0.511903 0.341823
Si Si7 0.666204 0.510319 0.086652
O O1 0.174233 0.348466 0.715677
O O2 0.094097 0.420363 0.651149
O O3 0.014834 0.300616 0.768220
O O4 0.032409 0.255715 0.639301
O O5 0.843870 0.156131 0.791613
O O6 0.881153 0.299894 0.723057
O O7 0.899453 0.303225 0.863898
O O8 0.759441 0.518882 0.500000
O O9 0.830593 0.415297 0.500000
O O10 0.890514 0.552705 0.420547
O O11 0.551119 0.665319 0.500000
O O12 0.508615 0.754308 0.586378
O O13 0.422195 0.577806 0.589654
O O14 0.204460 0.000671 0.500000
O O15 0.193150 0.096575 0.397717
O O16 0.071904 0.928097 0.413002
O O17 0.741251 0.482501 0.349051
O O18 0.854661 0.427331 0.326636
O O19 0.741716 0.483432 0.097891
O O20 0.571307 0.428694 0.108026
O O21 0.664666 0.527348 0.000000
#
# Coordination Sequence:
#
# PCOD9585595 Si02
#       7
#    12  12   6  12  12  12  12
#     4  10  20  33  47  62  86 117 149 186 233 286
#     4  10  20  32  46  66  93 121 151 188 230 273
#     4   8  13  22  34  50  75 114 160 194 212 232
#     4   9  17  30  47  65  83 108 146 193 240 282
#     4   9  16  27  44  65  87 114 150 192 233 273
#     4   9  16  26  40  59  86 122 159 189 213 244
#     4   9  17  30  50  76 105 135 162 185 209 244
#
# _framework density 16.192119999999999
#
# number of rings (size 3 to 8) (size 9 to 14) (size 15 to 20)
#    0.000    2.769    0.000    2.077    0.000    6.154 
#    2.769    1.538    0.000    0.769    0.000    0.000 
#    0.000    0.000    0.000    0.000    0.000    0.308 
#
# Total GULP energy -434645.004013 kJ/mol
# GULP energy per Si atom -5572.371846 kJ/mol
# Density = 1.615527 g / cm^3
# Si number density = 16.192120 Si / 1000 Ang^3
#
#
#
# Elastic Constant Matrix: (Units=GPa)
#
#
# Indices 1 2 3 4 5 6 
#
# 1 47.6132 17.1060 21.9172 0.0000 -0.0001 0.0000
# 2 17.1060 47.6132 21.9172 0.0000 0.0001 0.0000
# 3 21.9172 21.9172 40.5520 0.0000 0.0000 0.0000
# 4 0.0000 0.0000 0.0000 18.9539 0.0000 0.0001
# 5 -0.0001 0.0001 0.0000 0.0000 18.9539 0.0000
# 6 0.0000 0.0000 0.0000 0.0001 0.0000 15.2536
#
#
#
# Elastic Compliance Matrix: (Units=1/GPa)
#
#
# Indices 1 2 3 4 5 6 
#
# 1 0.028576 -0.004203 -0.013173 0.000000 0.000000 0.000000
# 2 -0.004203 0.028576 -0.013173 0.000000 0.000000 0.000000
# 3 -0.013173 -0.013173 0.038899 0.000000 0.000000 0.000000
# 4 0.000000 0.000000 0.000000 0.052759 0.000000 0.000000
# 5 0.000000 0.000000 0.000000 0.000000 0.052759 0.000000
# 6 0.000000 0.000000 0.000000 0.000000 0.000000 0.065558
#
#
# Mechanical properties :
#
#
# Convention : Reuss Voigt Hill
#
# Bulk Modulus (GPa) = 28.60947 28.62882 28.61914
# Shear Modulus (GPa) = 14.71111 15.62149 15.16630
#
# Velocity S-wave (km/s) = 3.01746 3.10943 3.06379
# Velocity P-wave (km/s) = 5.46326 5.53267 5.49808
#
# Compressibility (1/GPa) = 0.03495346
#
# Stress axis : x y z
#
# Youngs Moduli (GPa) = 34.99391 34.99391 25.70741
#
# Poissons Ratio (x) = 0.14707 0.33865
# Poissons Ratio (y) = 0.14707 0.33865
# Poissons Ratio (z) = 0.46098 0.46098
#
# Static dielectric constant tensor:
#      x y z
#    x 1.565550 0.000000 0.000000 
#    y 0.000000 1.565550 0.000000 
#    z 0.000000 0.000000 1.543560 
# 
# From -- ./inp_files/3180.got.cif
#   From: 2010.05.17/outbox.cif.g08.bks.cpg/sg187_2_cif.got.tgz:3180.got - 2010.05.20 12:09:04.
