data_PCOD9585357
_publ_section_title
;
Structure prediction by ZEFSAII (Michael W. Deem and Ramdas Pophale) SiO2 
 PCOD9585357
Probable space group: P 63 M C
;
_chemical_formula_sum "Si O2"
_cell_formula_units_Z 96
_cell_length_a 17.107402
_cell_length_b 17.107402
_cell_length_c 22.585860
_cell_angle_alpha 90.000000
_cell_angle_beta 90.000000
_cell_angle_gamma 120.000000
_cell_volume 5724.471337
_symmetry_space_group_name_H-M "P 63 M C"
_symmetry_group_IT_number 186
_symmetry_cell_setting 'hexagonal'
loop_
_space_group_symop_operation_xyz
x,y,z
x-y,x,1/2+z
-y,x-y,z
-x,-y,1/2+z
-x+y,-x,z
y,-x+y,1/2+z
-x+y,y,z
x,x-y,z
-y,-x,z
y,x,1/2+z
x-y,-y,1/2+z
-x,-x+y,1/2+z
loop_
_atom_site_type_symbol
_atom_site_label
_atom_site_fract_x
_atom_site_fract_y
_atom_site_fract_z
Si Si1 0.150015 0.483259 0.599840
Si Si2 0.966406 0.575513 0.216605
Si Si3 0.426872 0.391635 0.536859
Si Si4 0.090627 0.356955 0.135190
Si Si5 0.668378 0.154741 0.428716
Si Si6 0.187789 0.999963 0.921976
Si Si7 0.738363 0.655544 0.327530
Si Si8 0.000173 0.184921 0.558405
O O1 0.236482 0.472964 0.590170
O O2 0.171679 0.585840 0.590345
O O3 0.113275 0.457485 0.667286
O O4 0.066238 0.420343 0.556462
O O5 0.974485 0.487243 0.231661
O O6 0.955033 0.627938 0.271627
O O7 0.051065 0.652460 0.180919
O O8 0.521274 0.478726 0.553975
O O9 0.412832 0.307408 0.575324
O O10 0.435369 0.368352 0.470123
O O11 0.179007 0.358013 0.156877
O O12 0.020945 0.256313 0.110792
O O13 0.588988 0.177976 0.423588
O O14 0.759349 0.240652 0.452427
O O15 0.694555 0.128892 0.367227
O O16 0.188729 0.094365 0.914189
O O17 0.245027 0.982505 0.871892
O O18 0.085786 0.914215 0.917414
O O19 0.216968 0.997666 0.990624
O O20 0.837853 0.675705 0.308739
O O21 0.918314 0.081686 0.560224
O O22 0.095533 0.191065 0.566404
#
# Coordination Sequence:
#
# PCOD9585357 Si02
#       8
#    12  12  12  12  12  12  12  12
#     4   9  17  30  49  72  97 125 157 192 231 278
#     4  10  21  36  51  68  92 124 160 199 246 293
#     4   9  18  31  47  69  97 124 149 185 236 289
#     4  10  19  31  49  70  93 123 159 199 237 276
#     4  10  19  32  50  71  95 122 154 195 244 296
#     4   9  17  30  49  74 104 137 170 201 235 280
#     4  10  20  33  50  71  96 125 159 201 243 286
#     4   9  17  29  47  73 104 136 166 196 232 276
#
# _framework density 16.770106999999999
#
# number of rings (size 3 to 8) (size 9 to 14) (size 15 to 20)
#    0.000    2.500    0.000    3.500    0.000    6.000 
#    0.000    0.625    0.000    6.750    0.000    4.375 
#    0.000    0.000    0.000    0.000    0.000    0.000 
#
# Total GULP energy -534445.142107 kJ/mol
# GULP energy per Si atom -5567.136897 kJ/mol
# Density = 1.673194 g / cm^3
# Si number density = 16.770107 Si / 1000 Ang^3
#
#
#
# Elastic Constant Matrix: (Units=GPa)
#
#
# Indices 1 2 3 4 5 6 
#
# 1 54.3213 20.6878 3.8373 0.0000 0.0000 0.0000
# 2 20.6878 54.3213 3.8373 0.0000 0.0000 0.0000
# 3 3.8373 3.8373 33.3121 0.0000 0.0000 0.0000
# 4 0.0000 0.0000 0.0000 20.5921 0.0000 0.0000
# 5 0.0000 0.0000 0.0000 0.0000 20.5921 0.0000
# 6 0.0000 0.0000 0.0000 0.0000 0.0000 16.8168
#
#
#
# Elastic Compliance Matrix: (Units=1/GPa)
#
#
# Indices 1 2 3 4 5 6 
#
# 1 0.021611 -0.008121 -0.001554 0.000000 0.000000 0.000000
# 2 -0.008121 0.021611 -0.001554 0.000000 0.000000 0.000000
# 3 -0.001554 -0.001554 0.030377 0.000000 0.000000 0.000000
# 4 0.000000 0.000000 0.000000 0.048562 0.000000 0.000000
# 5 0.000000 0.000000 0.000000 0.000000 0.048562 0.000000
# 6 0.000000 0.000000 0.000000 0.000000 0.000000 0.059464
#
#
# Mechanical properties :
#
#
# Convention : Reuss Voigt Hill
#
# Bulk Modulus (GPa) = 19.55320 22.07549 20.81434
# Shear Modulus (GPa) = 18.53950 19.17300 18.85625
#
# Velocity S-wave (km/s) = 3.32853 3.38492 3.35684
# Velocity P-wave (km/s) = 5.14364 5.33564 5.24052
#
# Compressibility (1/GPa) = 0.05114252
#
# Stress axis : x y z
#
# Youngs Moduli (GPa) = 46.27172 46.27172 32.91946
#
# Poissons Ratio (x) = 0.37576 0.05116
# Poissons Ratio (y) = 0.37576 0.05116
# Poissons Ratio (z) = 0.07191 0.07191
#
# Static dielectric constant tensor:
#      x y z
#    x 1.575740 0.000000 0.000000 
#    y 0.000000 1.575740 0.000000 
#    z 0.000000 0.000000 1.570660 
# 
# From -- ./inp_files/3598.got.cif
#   From: 2010.05.17/outbox.cif.g08.bks.cpg/sg186_2_cif.got.tgz:3598.got - 2010.05.20 12:07:08.
