data_PCOD9585754
_publ_section_title
;
Structure prediction by ZEFSAII (Michael W. Deem and Ramdas Pophale) SiO2 
 PCOD9585754
Probable space group: P -6 M 2
;
_chemical_formula_sum "Si O2"
_cell_formula_units_Z 78
_cell_length_a 23.523231
_cell_length_b 23.523231
_cell_length_c 7.823163
_cell_angle_alpha 90.000000
_cell_angle_beta 90.000000
_cell_angle_gamma 120.000000
_cell_volume 3748.926774
_symmetry_space_group_name_H-M "P -6 M 2"
_symmetry_group_IT_number 187
_symmetry_cell_setting 'hexagonal'
loop_
_space_group_symop_operation_xyz
x,y,z
-x+y,-x,-z
-y,x-y,z
x,y,-z
-x+y,-x,z
-y,x-y,-z
-y,-x,-z
-x+y,y,-z
x,x-y,-z
-x+y,y,z
x,x-y,z
-y,-x,z
loop_
_atom_site_type_symbol
_atom_site_label
_atom_site_fract_x
_atom_site_fract_y
_atom_site_fract_z
Si Si1 0.009363 0.568655 0.198901
Si Si2 0.456696 0.790414 0.794371
Si Si3 0.871881 0.312491 0.801774
Si Si4 0.793575 0.330855 0.500000
Si Si5 0.191495 0.933769 0.802608
Si Si6 0.108536 0.710678 0.690815
Si Si7 0.790334 0.079748 0.208329
O O1 0.020035 0.510018 0.262826
O O2 0.933480 0.547335 0.200561
O O3 0.047504 0.637281 0.293942
O O4 0.031869 0.581736 0.000000
O O5 0.406920 0.813839 0.730812
O O6 0.430431 0.715216 0.746709
O O7 0.531078 0.831804 0.735231
O O8 0.457844 0.794402 0.000000
O O9 0.821513 0.312325 0.666246
O O10 0.898236 0.263086 0.748562
O O11 0.848747 0.296949 0.000000
O O12 0.715691 0.284310 0.500000
O O13 0.813318 0.406659 0.500000
O O14 0.121431 0.878570 0.727163
O O15 0.239440 0.902922 0.802019
O O16 0.235753 0.007196 0.727646
O O17 0.178805 0.942978 0.000000
O O18 0.115801 0.736129 0.500000
O O19 0.861990 0.138011 0.260645
O O20 0.788748 0.076630 0.000000
#
# Coordination Sequence:
#
# PCOD9585754 Si02
#       7
#    12  12  12   6  12  12  12
#     4  10  20  35  56  81 113 150 189 239 294 351
#     4  10  21  38  58  76  97 134 188 244 293 345
#     4  10  21  40  64  91 120 155 202 254 310 362
#     4  12  27  44  64  90 125 166 208 252 300 360
#     4  10  20  36  58  82 112 152 192 227 273 341
#     4  12  24  35  51  79 114 148 186 232 286 345
#     4   9  17  33  60  90 118 148 188 240 293 346
#
# _framework density 20.805954
#
# number of rings (size 3 to 8) (size 9 to 14) (size 15 to 20)
#    0.000    1.692    1.538    3.462    1.077    7.385 
#    0.000    0.000    0.000    2.154    0.000    2.154 
#    0.000    0.000    0.000    0.000    0.000    0.000 
#
# Total GULP energy -435553.182899 kJ/mol
# GULP energy per Si atom -5584.015165 kJ/mol
# Density = 2.075860 g / cm^3
# Si number density = 20.805954 Si / 1000 Ang^3
#
#
#
# Elastic Constant Matrix: (Units=GPa)
#
#
# Indices 1 2 3 4 5 6 
#
# 1 120.9182 52.8673 18.8929 0.0000 -0.0019 0.0000
# 2 52.8673 120.9182 18.8929 0.0000 0.0019 0.0000
# 3 18.8929 18.8929 55.5322 0.0000 0.0000 0.0000
# 4 0.0000 0.0000 0.0000 8.9283 0.0000 0.0019
# 5 -0.0019 0.0019 0.0000 0.0000 8.9283 0.0000
# 6 0.0000 0.0000 0.0000 0.0019 0.0000 34.0255
#
#
#
# Elastic Compliance Matrix: (Units=1/GPa)
#
#
# Indices 1 2 3 4 5 6 
#
# 1 0.010454 -0.004240 -0.002114 0.000000 0.000003 0.000000
# 2 -0.004240 0.010454 -0.002114 0.000000 -0.000003 0.000000
# 3 -0.002114 -0.002114 0.019446 0.000000 0.000000 0.000000
# 4 0.000000 0.000000 0.000000 0.112003 0.000000 -0.000006
# 5 0.000003 -0.000003 0.000000 0.000000 0.112003 0.000000
# 6 0.000000 0.000000 0.000000 -0.000006 0.000000 0.029390
#
#
# Mechanical properties :
#
#
# Convention : Reuss Voigt Hill
#
# Bulk Modulus (GPa) = 42.70301 53.18611 47.94456
# Shear Modulus (GPa) = 15.69886 24.15745 19.92816
#
# Velocity S-wave (km/s) = 2.74986 3.41116 3.09821
# Velocity P-wave (km/s) = 5.53636 6.41351 5.99101
#
# Compressibility (1/GPa) = 0.02341755
#
# Stress axis : x y z
#
# Youngs Moduli (GPa) = 95.65377 95.65377 51.42435
#
# Poissons Ratio (x) = 0.40562 0.10871
# Poissons Ratio (y) = 0.40562 0.10871
# Poissons Ratio (z) = 0.20222 0.20222
#
# Static dielectric constant tensor:
#      x y z
#    x 1.724150 0.000000 0.000000 
#    y 0.000000 1.724150 0.000000 
#    z 0.000000 0.000000 1.776560 
# 
# From -- ./inp_files/1156.got.cif
#   From: 2010.05.17/outbox.cif.g08.bks.cpg/sg187_1_cif.got.tgz:1156.got - 2010.05.20 12:09:04.
