data_PCOD9585214
_publ_section_title
;
Structure prediction by ZEFSAII (Michael W. Deem and Ramdas Pophale) SiO2 
 PCOD9585214
Probable space group: P 63 C M
;
_chemical_formula_sum "Si O2"
_cell_formula_units_Z 84
_cell_length_a 13.916922
_cell_length_b 13.916922
_cell_length_c 32.221779
_cell_angle_alpha 90.000000
_cell_angle_beta 90.000000
_cell_angle_gamma 120.000000
_cell_volume 5404.637032
_symmetry_space_group_name_H-M "P 63 C M"
_symmetry_group_IT_number 185
_symmetry_cell_setting 'hexagonal'
loop_
_space_group_symop_operation_xyz
x,y,z
x-y,x,1/2+z
-y,x-y,z
-x,-y,1/2+z
-x+y,-x,z
y,-x+y,1/2+z
-x+y,y,1/2+z
x,x-y,1/2+z
-y,-x,1/2+z
y,x,z
x-y,-y,z
-x,-x+y,z
loop_
_atom_site_type_symbol
_atom_site_label
_atom_site_fract_x
_atom_site_fract_y
_atom_site_fract_z
Si Si1 0.870520 0.330991 0.815980
Si Si2 0.329584 0.457760 0.136854
Si Si3 0.128176 0.457760 0.454760
Si Si4 0.332407 0.461926 0.414769
Si Si5 0.538074 0.667593 0.176845
Si Si6 0.330991 0.870520 0.275634
Si Si7 0.328746 0.537940 0.045807
O O1 0.853064 0.328428 0.865358
O O2 0.786076 0.213924 0.795807
O O3 0.848929 0.424465 0.795807
O O4 0.000000 0.372258 0.808365
O O5 0.370276 0.370276 0.145300
O O6 0.422329 0.574444 0.156837
O O7 0.212781 0.427785 0.156666
O O8 0.327406 0.477115 0.087737
O O9 0.215004 0.427785 0.434948
O O10 0.152115 0.574444 0.434777
O O11 0.149709 0.477115 0.503877
O O12 0.000000 0.370276 0.446314
O O13 0.374835 0.374835 0.422406
O O14 0.625164 0.625164 0.169208
O O15 0.524636 0.671572 0.226255
O O16 0.372257 0.000000 0.283249
O O17 0.435223 0.662978 0.045807
#
# Coordination Sequence:
#
# PCOD9585214 Si02
#       7
#    12  12  12  12  12  12  12
#     4  10  20  33  50  73  99 131 166 205 252 298
#     4  11  20  33  52  73 102 135 166 199 244 296
#     4  11  20  33  52  73 102 135 166 199 244 296
#     4  10  20  33  50  73 101 131 167 207 247 293
#     4  10  20  33  50  73 101 131 167 207 247 293
#     4  10  20  33  50  73  99 131 166 205 252 298
#     4  10  17  32  52  70 107 132 158 200 242 288
#
# _framework density 15.542210000000001
#
# number of rings (size 3 to 8) (size 9 to 14) (size 15 to 20)
#    0.286    1.429    2.857    3.000    0.000    3.429 
#    0.000    0.714    0.000    0.857    0.000    0.000 
#    0.000    0.000    0.000    0.000    0.000    0.000 
#
# Total GULP energy -468726.619090 kJ/mol
# GULP energy per Si atom -5580.078799 kJ/mol
# Density = 1.550684 g / cm^3
# Si number density = 15.542210 Si / 1000 Ang^3
#
#
#
# Elastic Constant Matrix: (Units=GPa)
#
#
# Indices 1 2 3 4 5 6 
#
# 1 84.9274 51.2199 56.8538 0.0000 0.0000 0.0000
# 2 51.2199 84.9274 56.8538 0.0000 0.0000 0.0000
# 3 56.8538 56.8538 109.8169 0.0000 0.0000 0.0000
# 4 0.0000 0.0000 0.0000 20.2265 0.0000 0.0000
# 5 0.0000 0.0000 0.0000 0.0000 20.2265 0.0000
# 6 0.0000 0.0000 0.0000 0.0000 0.0000 16.8538
#
#
#
# Elastic Compliance Matrix: (Units=1/GPa)
#
#
# Indices 1 2 3 4 5 6 
#
# 1 0.021304 -0.008363 -0.006699 0.000000 0.000000 0.000000
# 2 -0.008363 0.021304 -0.006699 0.000000 0.000000 0.000000
# 3 -0.006699 -0.006699 0.016043 0.000000 0.000000 0.000000
# 4 0.000000 0.000000 0.000000 0.049440 0.000000 0.000000
# 5 0.000000 0.000000 0.000000 0.000000 0.049440 0.000000
# 6 0.000000 0.000000 0.000000 0.000000 0.000000 0.059334
#
#
# Mechanical properties :
#
#
# Convention : Reuss Voigt Hill
#
# Bulk Modulus (GPa) = 66.11229 67.72518 66.91874
# Shear Modulus (GPa) = 18.83740 19.11099 18.97420
#
# Velocity S-wave (km/s) = 3.48518 3.51040 3.49781
# Velocity P-wave (km/s) = 7.66974 7.75243 7.71119
#
# Compressibility (1/GPa) = 0.01512578
#
# Stress axis : x y z
#
# Youngs Moduli (GPa) = 46.94060 46.94060 62.33379
#
# Poissons Ratio (x) = 0.39259 0.41759
# Poissons Ratio (y) = 0.39259 0.41759
# Poissons Ratio (z) = 0.31447 0.31447
#
# Static dielectric constant tensor:
#      x y z
#    x 1.504480 0.000000 0.000000 
#    y 0.000000 1.504480 0.000000 
#    z 0.000000 0.000000 1.513040 
# 
# From -- ./inp_files/2152.got.cif
#   From: 2010.05.17/outbox.cif.g08.bks.cpg/sg185_cif.got.tgz:2152.got - 2010.05.20 12:05:34.
