data_PCOD9585260
_publ_section_title
;
Structure prediction by ZEFSAII (Michael W. Deem and Ramdas Pophale) SiO2 
 PCOD9585260
Probable space group: P 63 C M
;
_chemical_formula_sum "Si O2"
_cell_formula_units_Z 72
_cell_length_a 15.136645
_cell_length_b 15.136645
_cell_length_c 19.458194
_cell_angle_alpha 90.000000
_cell_angle_beta 90.000000
_cell_angle_gamma 120.000000
_cell_volume 3860.934303
_symmetry_space_group_name_H-M "P 63 C M"
_symmetry_group_IT_number 185
_symmetry_cell_setting 'hexagonal'
loop_
_space_group_symop_operation_xyz
x,y,z
x-y,x,1/2+z
-y,x-y,z
-x,-y,1/2+z
-x+y,-x,z
y,-x+y,1/2+z
-x+y,y,1/2+z
x,x-y,1/2+z
-y,-x,1/2+z
y,x,z
x-y,-y,z
-x,-x+y,z
loop_
_atom_site_type_symbol
_atom_site_label
_atom_site_fract_x
_atom_site_fract_y
_atom_site_fract_z
Si Si1 0.312347 0.434707 0.694130
Si Si2 0.270307 0.810296 0.479564
Si Si3 0.227635 0.113676 0.001825
Si Si4 0.550426 0.330764 0.833035
Si Si5 0.121299 0.523247 0.049547
Si Si6 0.116104 0.882594 0.167941
O O1 0.370902 0.370902 0.695145
O O2 0.330603 0.493241 0.764962
O O3 0.356052 0.505536 0.626660
O O4 0.193382 0.350320 0.686819
O O5 0.200528 0.861668 0.480133
O O6 0.320787 0.824939 0.404874
O O7 0.194564 0.691895 0.499790
O O8 0.363109 0.856346 0.533973
O O9 0.144603 0.144603 0.980309
O O10 0.195174 0.000000 0.978346
O O11 0.229391 0.113297 0.084923
O O12 0.572256 0.236311 0.831948
O O13 0.000000 0.444430 0.039316
O O14 0.000000 0.812969 0.191333
O O15 0.163743 0.000000 0.192028
#
# Coordination Sequence:
#
# PCOD9585260 Si02
#       6
#    12  12  12  12  12  12
#     4  10  22  39  60  88 123 156 199 254 309 365
#     4  12  21  40  63  89 121 162 202 254 303 367
#     4  10  20  35  59  90 123 156 198 252 309 364
#     4  10  23  42  59  84 118 162 201 243 306 369
#     4  11  23  39  62  92 120 157 205 254 304 358
#     4   9  17  33  57  87 120 155 196 247 303 365
#
# _framework density 18.648336
#
# number of rings (size 3 to 8) (size 9 to 14) (size 15 to 20)
#    0.333    1.333    3.333    1.667    2.333    2.667 
#    0.000    2.500    0.000    0.000    0.000    2.333 
#    0.000    0.000    0.000    0.000    0.000    0.000 
#
# Total GULP energy -401569.892636 kJ/mol
# GULP energy per Si atom -5577.359620 kJ/mol
# Density = 1.860589 g / cm^3
# Si number density = 18.648336 Si / 1000 Ang^3
#
#
#
# Elastic Constant Matrix: (Units=GPa)
#
#
# Indices 1 2 3 4 5 6 
#
# 1 68.2832 13.1477 26.3939 0.0000 0.0000 0.0000
# 2 13.1477 68.2832 26.3939 0.0000 0.0000 0.0000
# 3 26.3939 26.3939 81.1388 0.0000 0.0000 0.0000
# 4 0.0000 0.0000 0.0000 21.5650 0.0000 0.0000
# 5 0.0000 0.0000 0.0000 0.0000 21.5650 0.0000
# 6 0.0000 0.0000 0.0000 0.0000 0.0000 27.5677
#
#
#
# Elastic Compliance Matrix: (Units=1/GPa)
#
#
# Indices 1 2 3 4 5 6 
#
# 1 0.016850 -0.001288 -0.005062 0.000000 0.000000 0.000000
# 2 -0.001288 0.016850 -0.005062 0.000000 0.000000 0.000000
# 3 -0.005062 -0.005062 0.015618 0.000000 0.000000 0.000000
# 4 0.000000 0.000000 0.000000 0.046371 0.000000 0.000000
# 5 0.000000 0.000000 0.000000 0.000000 0.046371 0.000000
# 6 0.000000 0.000000 0.000000 0.000000 0.000000 0.036274
#
#
# Mechanical properties :
#
#
# Convention : Reuss Voigt Hill
#
# Bulk Modulus (GPa) = 37.74574 38.84179 38.29377
# Shear Modulus (GPa) = 23.81073 24.25751 24.03412
#
# Velocity S-wave (km/s) = 3.57715 3.61055 3.59389
# Velocity P-wave (km/s) = 6.11114 6.18508 6.14822
#
# Compressibility (1/GPa) = 0.02649306
#
# Stress axis : x y z
#
# Youngs Moduli (GPa) = 59.34879 59.34879 64.02884
#
# Poissons Ratio (x) = 0.07642 0.32413
# Poissons Ratio (y) = 0.07642 0.32413
# Poissons Ratio (z) = 0.30044 0.30044
#
# Static dielectric constant tensor:
#      x y z
#    x 1.658250 0.000000 0.000000 
#    y 0.000000 1.658250 0.000000 
#    z 0.000000 0.000000 1.622570 
# 
# From -- ./inp_files/1709.got.cif
#   From: 2010.05.17/outbox.cif.g08.bks.cpg/sg185_cif.got.tgz:1709.got - 2010.05.20 12:05:34.
