data_PCOD9585227
_publ_section_title
;
Structure prediction by ZEFSAII (Michael W. Deem and Ramdas Pophale) SiO2 
 PCOD9585227
Probable space group: P 63 C M
;
_chemical_formula_sum "Si O2"
_cell_formula_units_Z 84
_cell_length_a 29.765377
_cell_length_b 29.765377
_cell_length_c 5.422490
_cell_angle_alpha 90.000000
_cell_angle_beta 90.000000
_cell_angle_gamma 120.000000
_cell_volume 4160.563614
_symmetry_space_group_name_H-M "P 63 C M"
_symmetry_group_IT_number 185
_symmetry_cell_setting 'hexagonal'
loop_
_space_group_symop_operation_xyz
x,y,z
x-y,x,1/2+z
-y,x-y,z
-x,-y,1/2+z
-x+y,-x,z
y,-x+y,1/2+z
-x+y,y,1/2+z
x,x-y,1/2+z
-y,-x,1/2+z
y,x,z
x-y,-y,z
-x,-x+y,z
loop_
_atom_site_type_symbol
_atom_site_label
_atom_site_fract_x
_atom_site_fract_y
_atom_site_fract_z
Si Si1 0.746153 0.060324 0.554350
Si Si2 0.435263 0.701532 0.138198
Si Si3 0.185838 0.459058 0.644140
Si Si4 0.244899 0.135965 0.554199
Si Si5 0.442774 0.500646 0.560558
Si Si6 0.510323 0.666142 0.140723
Si Si7 0.225120 0.878332 0.552451
O O1 0.803663 0.066769 0.559901
O O2 0.746437 0.086330 0.292341
O O3 0.703126 0.000000 0.567139
O O4 0.747359 0.092347 0.798321
O O5 0.409359 0.706921 0.892642
O O6 0.492033 0.755748 0.149660
O O7 0.451962 0.658091 0.124063
O O8 0.162576 0.459913 0.908848
O O9 0.174457 0.401383 0.587859
O O10 0.159101 0.470414 0.412763
O O11 0.217204 0.109540 0.302618
O O12 0.298431 0.132141 0.549044
O O13 0.462218 0.525082 0.289644
O O14 0.452250 0.452250 0.578028
O O15 0.385114 0.487601 0.601205
#
# Coordination Sequence:
#
# PCOD9585227 Si02
#       7
#    12  12  12  12  12  12  12
#     4  10  19  30  41  56  80 109 146 191 232 262
#     4   8  16  27  44  69  95 119 140 170 220 268
#     4  10  19  31  48  69  95 123 148 179 225 273
#     4   8  16  27  42  58  73 102 146 187 217 258
#     4  10  21  38  57  72  90 123 162 199 238 277
#     4  10  19  32  50  72  92 115 150 191 227 266
#     4  10  19  31  46  62  84 119 156 183 220 278
#
# _framework density 20.189575000000001
#
# number of rings (size 3 to 8) (size 9 to 14) (size 15 to 20)
#    0.000    2.571    0.000    2.143    0.000   10.286 
#    0.000    4.286    0.000    0.000    0.000    0.000 
#    0.000    0.000    0.000  231.429    0.000    0.000 
#
# Total GULP energy -468472.173318 kJ/mol
# GULP energy per Si atom -5577.049682 kJ/mol
# Density = 2.014362 g / cm^3
# Si number density = 20.189575 Si / 1000 Ang^3
#
#
#
# Elastic Constant Matrix: (Units=GPa)
#
#
# Indices 1 2 3 4 5 6 
#
# 1 51.1520 3.1634 -1.2027 0.0000 0.0000 0.0000
# 2 3.1634 51.1520 -1.2027 0.0000 0.0000 0.0000
# 3 -1.2027 -1.2027 150.0419 0.0000 0.0000 0.0000
# 4 0.0000 0.0000 0.0000 10.0616 0.0000 0.0000
# 5 0.0000 0.0000 0.0000 0.0000 10.0616 0.0000
# 6 0.0000 0.0000 0.0000 0.0000 0.0000 23.9943
#
#
#
# Elastic Compliance Matrix: (Units=1/GPa)
#
#
# Indices 1 2 3 4 5 6 
#
# 1 0.019628 -0.001210 0.000148 0.000000 0.000000 0.000000
# 2 -0.001210 0.019628 0.000148 0.000000 0.000000 0.000000
# 3 0.000148 0.000148 0.006667 0.000000 0.000000 0.000000
# 4 0.000000 0.000000 0.000000 0.099388 0.000000 0.000000
# 5 0.000000 0.000000 0.000000 0.000000 0.099388 0.000000
# 6 0.000000 0.000000 0.000000 0.000000 0.000000 0.041677
#
#
# Mechanical properties :
#
#
# Convention : Reuss Voigt Hill
#
# Bulk Modulus (GPa) = 22.67946 28.20687 25.44317
# Shear Modulus (GPa) = 16.50691 25.59603 21.05147
#
# Velocity S-wave (km/s) = 2.86247 3.56446 3.23257
# Velocity P-wave (km/s) = 4.70984 5.56254 5.15385
#
# Compressibility (1/GPa) = 0.04409275
#
# Stress axis : x y z
#
# Youngs Moduli (GPa) = 50.94790 50.94790 149.98868
#
# Poissons Ratio (x) = 0.06167 -0.02214
# Poissons Ratio (y) = 0.06167 -0.02214
# Poissons Ratio (z) = -0.00752 -0.00752
#
# Static dielectric constant tensor:
#      x y z
#    x 1.726100 0.000000 0.000000 
#    y 0.000000 1.726100 0.000000 
#    z 0.000000 0.000000 1.814680 
# 
# From -- ./inp_files/179.got.cif
#   From: 2010.05.17/outbox.cif.g08.bks.cpg/sg185_cif.got.tgz:179.got - 2010.05.20 12:05:34.
