data_PCOD9585449
_publ_section_title
;
Structure prediction by ZEFSAII (Michael W. Deem and Ramdas Pophale) SiO2 
 PCOD9585449
Probable space group: P -6 M 2
;
_chemical_formula_sum "Si O2"
_cell_formula_units_Z 90
_cell_length_a 17.552739
_cell_length_b 17.552739
_cell_length_c 20.695027
_cell_angle_alpha 90.000000
_cell_angle_beta 90.000000
_cell_angle_gamma 120.000000
_cell_volume 5521.873069
_symmetry_space_group_name_H-M "P -6 M 2"
_symmetry_group_IT_number 187
_symmetry_cell_setting 'hexagonal'
loop_
_space_group_symop_operation_xyz
x,y,z
-x+y,-x,-z
-y,x-y,z
x,y,-z
-x+y,-x,z
-y,x-y,-z
-y,-x,-z
-x+y,y,-z
x,x-y,-z
-x+y,y,z
x,x-y,z
-y,-x,z
loop_
_atom_site_type_symbol
_atom_site_label
_atom_site_fract_x
_atom_site_fract_y
_atom_site_fract_z
Si Si1 0.975329 0.573575 0.818284
Si Si2 0.332214 0.842056 0.751097
Si Si3 0.610744 0.044677 0.426526
Si Si4 0.001367 0.819814 0.000000
Si Si5 0.281865 0.231559 0.870516
Si Si6 0.085599 0.740982 0.360852
Si Si7 0.842841 0.509548 0.300427
Si Si8 0.181506 0.999836 0.264856
O O1 0.957370 0.478685 0.840558
O O2 0.947397 0.626490 0.865191
O O3 0.921077 0.557615 0.751422
O O4 0.078421 0.632410 0.801975
O O5 0.414327 0.828653 0.735172
O O6 0.248213 0.751788 0.773517
O O7 0.301442 0.875758 0.689553
O O8 0.633791 0.076670 0.500000
O O9 0.506997 0.013993 0.417732
O O10 0.659889 0.117995 0.371697
O O11 0.634621 0.969249 0.412304
O O12 0.999209 0.769996 0.065460
O O13 0.084470 0.915531 0.000000
O O14 0.912971 0.825941 0.000000
O O15 0.295581 0.147791 0.872927
O O16 0.227240 0.219973 0.804588
O O17 0.168630 0.831371 0.385943
O O18 0.024235 0.768169 0.319458
O O19 0.762942 0.525884 0.286381
O O20 0.813050 0.406525 0.296611
O O21 0.081771 0.918230 0.262815
O O22 0.184240 0.092120 0.276491
#
# Coordination Sequence:
#
# PCOD9585449 Si02
#       8
#    12  12  12   6  12  12  12  12
#     4  10  19  32  52  74  99 129 160 202 252 295
#     4  10  18  29  46  69  96 123 153 193 241 292
#     4  10  20  34  50  67  92 126 160 196 244 298
#     4  10  21  34  51  74 106 142 174 204 241 288
#     4  10  19  32  50  74 102 134 170 206 245 291
#     4  10  19  31  49  71  95 123 158 201 245 291
#     4  10  19  32  50  73  99 127 159 197 244 296
#     4  10  19  31  49  73 101 131 163 202 247 294
#
# _framework density 16.298818000000001
#
# number of rings (size 3 to 8) (size 9 to 14) (size 15 to 20)
#    0.000    2.000    2.667    1.667    0.000    2.667 
#    0.000    1.667    0.000    1.333    0.000    0.000 
#    0.000    1.067    0.000    0.000    0.000    0.000 
#
# Total GULP energy -501885.809209 kJ/mol
# GULP energy per Si atom -5576.508991 kJ/mol
# Density = 1.626172 g / cm^3
# Si number density = 16.298818 Si / 1000 Ang^3
#
#
#
# Elastic Constant Matrix: (Units=GPa)
#
#
# Indices 1 2 3 4 5 6 
#
# 1 83.1751 34.8680 21.5167 0.0000 0.0001 0.0000
# 2 34.8680 83.1751 21.5167 0.0000 -0.0001 0.0000
# 3 21.5167 21.5167 48.4678 0.0000 0.0000 0.0000
# 4 0.0000 0.0000 0.0000 17.0378 0.0000 -0.0001
# 5 0.0001 -0.0001 0.0000 0.0000 17.0378 0.0000
# 6 0.0000 0.0000 0.0000 -0.0001 0.0000 24.1535
#
#
#
# Elastic Compliance Matrix: (Units=1/GPa)
#
#
# Indices 1 2 3 4 5 6 
#
# 1 0.015404 -0.005297 -0.004487 0.000000 0.000000 0.000000
# 2 -0.005297 0.015404 -0.004487 0.000000 0.000000 0.000000
# 3 -0.004487 -0.004487 0.024616 0.000000 0.000000 0.000000
# 4 0.000000 0.000000 0.000000 0.058693 0.000000 0.000000
# 5 0.000000 0.000000 0.000000 0.000000 0.058693 0.000000
# 6 0.000000 0.000000 0.000000 0.000000 0.000000 0.041402
#
#
# Mechanical properties :
#
#
# Convention : Reuss Voigt Hill
#
# Bulk Modulus (GPa) = 37.19867 41.18008 39.18938
# Shear Modulus (GPa) = 19.86374 20.77358 20.31866
#
# Velocity S-wave (km/s) = 3.49481 3.57395 3.53460
# Velocity P-wave (km/s) = 6.25759 6.50779 6.38392
#
# Compressibility (1/GPa) = 0.02688268
#
# Stress axis : x y z
#
# Youngs Moduli (GPa) = 64.91789 64.91789 40.62378
#
# Poissons Ratio (x) = 0.34386 0.18228
# Poissons Ratio (y) = 0.34386 0.18228
# Poissons Ratio (z) = 0.29129 0.29129
#
# Static dielectric constant tensor:
#      x y z
#    x 1.552760 0.000000 0.000000 
#    y 0.000000 1.552760 0.000000 
#    z 0.000000 0.000000 1.521720 
# 
# From -- ./inp_files/3243.got.cif
#   From: 2010.05.17/outbox.cif.g08.bks.cpg/sg187_2_cif.got.tgz:3243.got - 2010.05.20 12:09:04.
