data_PCOD9585243
_publ_section_title
;
Structure prediction by ZEFSAII (Michael W. Deem and Ramdas Pophale) SiO2 
 PCOD9585243
Probable space group: P 63 C M
;
_chemical_formula_sum "Si O2"
_cell_formula_units_Z 60
_cell_length_a 14.265613
_cell_length_b 14.265613
_cell_length_c 14.218742
_cell_angle_alpha 90.000000
_cell_angle_beta 90.000000
_cell_angle_gamma 120.000000
_cell_volume 2505.951619
_symmetry_space_group_name_H-M "P 63 C M"
_symmetry_group_IT_number 185
_symmetry_cell_setting 'hexagonal'
loop_
_space_group_symop_operation_xyz
x,y,z
x-y,x,1/2+z
-y,x-y,z
-x,-y,1/2+z
-x+y,-x,z
y,-x+y,1/2+z
-x+y,y,1/2+z
x,x-y,1/2+z
-y,-x,1/2+z
y,x,z
x-y,-y,z
-x,-x+y,z
loop_
_atom_site_type_symbol
_atom_site_label
_atom_site_fract_x
_atom_site_fract_y
_atom_site_fract_z
Si Si1 0.876907 0.753231 0.398890
Si Si2 0.536375 0.871018 0.964255
Si Si3 0.563572 0.438711 0.274128
Si Si4 0.524454 0.774435 0.155702
Si Si5 0.880415 0.761541 0.672282
O O1 0.838223 0.838223 0.428884
O O2 0.780861 0.634579 0.428284
O O3 0.877902 0.756626 0.285365
O O4 0.000000 0.792779 0.429300
O O5 0.450731 0.844648 0.880327
O O6 0.591170 0.000000 0.985292
O O7 0.488381 0.802634 0.058354
O O8 0.529620 0.529620 0.263394
O O9 0.659112 0.457472 0.203911
O O10 0.467282 0.325488 0.237108
O O11 0.644109 0.795375 0.136627
O O12 0.792869 0.792869 0.639898
O O13 0.000000 0.850814 0.643798
#
# Coordination Sequence:
#
# PCOD9585243 Si02
#       5
#    12  12  12  12  12
#     4   9  17  32  57  93 136 180 218 262 321 394
#     4  10  22  42  65  95 135 173 222 281 332 397
#     4  11  25  46  68  96 135 174 219 282 343 394
#     4  12  24  43  70  96 126 178 228 279 336 401
#     4  10  19  35  62  98 138 177 216 262 324 400
#
# _framework density 23.943002
#
# number of rings (size 3 to 8) (size 9 to 14) (size 15 to 20)
#    0.000    1.600    2.000    3.200    0.000    4.800 
#    0.000    0.000    0.000    2.400    0.000    0.000 
#    0.000    0.000    0.000    0.000    0.000    0.000 
#
# Total GULP energy -335612.457133 kJ/mol
# GULP energy per Si atom -5593.540952 kJ/mol
# Density = 2.388851 g / cm^3
# Si number density = 23.943002 Si / 1000 Ang^3
#
#
#
# Elastic Constant Matrix: (Units=GPa)
#
#
# Indices 1 2 3 4 5 6 
#
# 1 56.8813 0.4477 24.6054 0.0000 0.0000 0.0000
# 2 0.4477 56.8813 24.6054 0.0000 0.0000 0.0000
# 3 24.6054 24.6054 137.6464 0.0000 0.0000 0.0000
# 4 0.0000 0.0000 0.0000 10.5782 0.0000 0.0000
# 5 0.0000 0.0000 0.0000 0.0000 10.5782 0.0000
# 6 0.0000 0.0000 0.0000 0.0000 0.0000 28.2168
#
#
#
# Elastic Compliance Matrix: (Units=1/GPa)
#
#
# Indices 1 2 3 4 5 6 
#
# 1 0.019162 0.001442 -0.003683 0.000000 0.000000 0.000000
# 2 0.001442 0.019162 -0.003683 0.000000 0.000000 0.000000
# 3 -0.003683 -0.003683 0.008582 0.000000 0.000000 0.000000
# 4 0.000000 0.000000 0.000000 0.094534 0.000000 0.000000
# 5 0.000000 0.000000 0.000000 0.000000 0.094534 0.000000
# 6 0.000000 0.000000 0.000000 0.000000 0.000000 0.035440
#
#
# Mechanical properties :
#
#
# Convention : Reuss Voigt Hill
#
# Bulk Modulus (GPa) = 28.52380 38.96956 33.74668
# Shear Modulus (GPa) = 16.95207 23.32466 20.13836
#
# Velocity S-wave (km/s) = 2.66375 3.12456 2.90331
# Velocity P-wave (km/s) = 4.62599 5.41558 5.03628
#
# Compressibility (1/GPa) = 0.03505844
#
# Stress axis : x y z
#
# Youngs Moduli (GPa) = 52.18547 52.18547 116.52529
#
# Poissons Ratio (x) = -0.07528 0.42920
# Poissons Ratio (y) = -0.07528 0.42920
# Poissons Ratio (z) = 0.19221 0.19221
#
# Static dielectric constant tensor:
#      x y z
#    x 1.868590 0.000000 0.000000 
#    y 0.000000 1.868590 0.000000 
#    z 0.000000 0.000000 1.909990 
# 
# From -- ./inp_files/1343.got.cif
#   From: 2010.05.17/outbox.cif.g08.bks.cpg/sg185_cif.got.tgz:1343.got - 2010.05.20 12:05:34.
