data_PCOD9585179
_publ_section_title
;
Structure prediction by ZEFSAII (Michael W. Deem and Ramdas Pophale) SiO2 
 PCOD9585179
Probable space group: P 6 C C
;
_chemical_formula_sum "Si O2"
_cell_formula_units_Z 72
_cell_length_a 21.131347
_cell_length_b 21.131347
_cell_length_c 9.731459
_cell_angle_alpha 90.000000
_cell_angle_beta 90.000000
_cell_angle_gamma 120.000000
_cell_volume 3763.248977
_symmetry_space_group_name_H-M "P 6 C C"
_symmetry_group_IT_number 184
_symmetry_cell_setting 'hexagonal'
loop_
_space_group_symop_operation_xyz
x,y,z
x-y,x,z
-y,x-y,z
-x,-y,z
-x+y,-x,z
y,-x+y,z
-x+y,y,1/2+z
x,x-y,1/2+z
-y,-x,1/2+z
y,x,1/2+z
x-y,-y,1/2+z
-x,-x+y,1/2+z
loop_
_atom_site_type_symbol
_atom_site_label
_atom_site_fract_x
_atom_site_fract_y
_atom_site_fract_z
Si Si1 0.710884 0.637797 0.637900
Si Si2 0.872601 0.743878 0.227937
Si Si3 0.364166 0.287830 0.816558
Si Si4 0.474443 0.237988 0.701009
Si Si5 0.881465 0.047760 0.478824
Si Si6 0.721390 0.294681 0.951215
O O1 0.796318 0.699373 0.644650
O O2 0.663019 0.664907 0.725981
O O3 0.688182 0.623935 0.476866
O O4 0.720552 0.571458 0.700505
O O5 0.797623 0.697336 0.310183
O O6 0.933850 0.788166 0.340308
O O7 0.853809 0.787037 0.115987
O O8 0.430801 0.278807 0.753207
O O9 0.544618 0.264171 0.796938
O O10 0.503563 0.263924 0.548030
O O11 0.966948 0.101994 0.479602
O O12 0.745227 0.379140 0.975716
#
# Coordination Sequence:
#
# PCOD9585179 Si02
#       6
#    12  12  12  12  12  12
#     4  11  24  39  63  92 127 171 210 259 327 385
#     4  11  24  38  57  78 109 148 216 262 309 376
#     4  11  24  39  63  92 127 171 210 259 327 385
#     4  11  22  42  64 104 139 164 220 278 321 376
#     4  12  23  37  50  70  97 142 192 266 327 386
#     4  10  22  41  74 104 126 172 220 270 306 368
#
# _framework density 19.132404999999999
#
# number of rings (size 3 to 8) (size 9 to 14) (size 15 to 20)
#    0.333    0.667    3.333    4.167    4.667    0.000 
#    0.000    1.667    0.000    6.000    0.000    0.000 
#    0.000    0.000    0.000    0.000    0.000    0.000 
#
# Total GULP energy -401397.511660 kJ/mol
# GULP energy per Si atom -5574.965440 kJ/mol
# Density = 1.908886 g / cm^3
# Si number density = 19.132405 Si / 1000 Ang^3
#
#
#
# Elastic Constant Matrix: (Units=GPa)
#
#
# Indices 1 2 3 4 5 6 
#
# 1 53.4461 30.4154 9.0114 0.0000 0.0000 0.0000
# 2 30.4154 53.4461 9.0114 0.0000 0.0000 0.0000
# 3 9.0114 9.0114 77.8603 0.0000 0.0000 0.0000
# 4 0.0000 0.0000 0.0000 32.6755 0.0000 0.0000
# 5 0.0000 0.0000 0.0000 0.0000 32.6755 0.0000
# 6 0.0000 0.0000 0.0000 0.0000 0.0000 11.5153
#
#
#
# Elastic Compliance Matrix: (Units=1/GPa)
#
#
# Indices 1 2 3 4 5 6 
#
# 1 0.027824 -0.015596 -0.001415 0.000000 0.000000 0.000000
# 2 -0.015596 0.027824 -0.001415 0.000000 0.000000 0.000000
# 3 -0.001415 -0.001415 0.013171 0.000000 0.000000 0.000000
# 4 0.000000 0.000000 0.000000 0.030604 0.000000 0.000000
# 5 0.000000 0.000000 0.000000 0.000000 0.030604 0.000000
# 6 0.000000 0.000000 0.000000 0.000000 0.000000 0.086841
#
#
# Mechanical properties :
#
#
# Convention : Reuss Voigt Hill
#
# Bulk Modulus (GPa) = 31.28223 31.29212 31.28717
# Shear Modulus (GPa) = 18.91237 24.46090 21.68663
#
# Velocity S-wave (km/s) = 3.14745 3.57950 3.37041
# Velocity P-wave (km/s) = 5.44008 5.78574 5.61557
#
# Compressibility (1/GPa) = 0.03196703
#
# Stress axis : x y z
#
# Youngs Moduli (GPa) = 35.93960 35.93960 75.92369
#
# Poissons Ratio (x) = 0.56051 0.10746
# Poissons Ratio (y) = 0.56051 0.10746
# Poissons Ratio (z) = 0.05087 0.05087
#
# Static dielectric constant tensor:
#      x y z
#    x 1.666810 0.000000 0.000000 
#    y 0.000000 1.666810 0.000000 
#    z 0.000000 0.000000 1.651990 
# 
# From -- ./inp_files/359.got.cif
#   From: 2010.05.17/outbox.cif.g08.bks.cpg/sg184_cif.got.tgz:359.got - 2010.05.20 12:04:40.
