data_PCOD9585713
_publ_section_title
;
Structure prediction by ZEFSAII (Michael W. Deem and Ramdas Pophale) SiO2 
 PCOD9585713
Probable space group: P -6 M 2
;
_chemical_formula_sum "Si O2"
_cell_formula_units_Z 60
_cell_length_a 21.512483
_cell_length_b 21.512483
_cell_length_c 8.849360
_cell_angle_alpha 90.000000
_cell_angle_beta 90.000000
_cell_angle_gamma 120.000000
_cell_volume 3546.692813
_symmetry_space_group_name_H-M "P -6 M 2"
_symmetry_group_IT_number 187
_symmetry_cell_setting 'hexagonal'
loop_
_space_group_symop_operation_xyz
x,y,z
-x+y,-x,-z
-y,x-y,z
x,y,-z
-x+y,-x,z
-y,x-y,-z
-y,-x,-z
-x+y,y,-z
x,x-y,-z
-x+y,y,z
x,x-y,z
-y,-x,z
loop_
_atom_site_type_symbol
_atom_site_label
_atom_site_fract_x
_atom_site_fract_y
_atom_site_fract_z
Si Si1 0.246368 0.123184 0.681664
Si Si2 0.486399 0.372187 0.317616
Si Si3 0.549346 0.593104 0.820121
Si Si4 0.414328 0.207164 0.683768
Si Si5 0.034377 0.211906 0.180813
Si Si6 0.112079 0.743910 0.677467
O O1 0.245498 0.122749 0.500000
O O2 0.330558 0.165279 0.730789
O O3 0.205648 0.163429 0.743005
O O4 0.479647 0.372584 0.500000
O O5 0.569215 0.430785 0.280498
O O6 0.437970 0.401556 0.244318
O O7 0.456743 0.290407 0.268761
O O8 0.467820 0.532181 0.787771
O O9 0.573298 0.668168 0.742066
O O10 0.558638 0.601739 0.000000
O O11 0.413918 0.206959 0.500000
O O12 0.096317 0.192633 0.222472
O O13 0.064923 0.293456 0.235105
O O14 0.026972 0.207554 0.000000
O O15 0.094055 0.738103 0.500000
O O16 0.194334 0.805667 0.696135
#
# Coordination Sequence:
#
# PCOD9585713 Si02
#       6
#     6  12  12   6  12  12
#     4  11  21  33  53  77 105 139 177 223 267 317
#     4   9  17  31  50  71  99 135 173 214 260 309
#     4  10  20  33  51  76 104 133 168 210 254 305
#     4   9  18  31  47  73 103 131 169 215 261 305
#     4  10  21  37  55  76 104 137 174 218 267 319
#     4  10  20  34  54  79 105 133 167 209 256 309
#
# _framework density 16.917169000000001
#
# number of rings (size 3 to 8) (size 9 to 14) (size 15 to 20)
#    0.000    2.200    0.000    3.300    0.000    5.200 
#    1.200    1.500    0.000    0.400    0.000    0.000 
#    0.000    0.000    0.000    0.000    0.000    0.000 
#
# Total GULP energy -334819.059113 kJ/mol
# GULP energy per Si atom -5580.317652 kJ/mol
# Density = 1.687866 g / cm^3
# Si number density = 16.917169 Si / 1000 Ang^3
#
#
#
# Elastic Constant Matrix: (Units=GPa)
#
#
# Indices 1 2 3 4 5 6 
#
# 1 108.9666 79.2681 48.7020 0.0000 -0.0003 0.0000
# 2 79.2681 108.9666 48.7020 0.0000 0.0003 0.0000
# 3 48.7020 48.7020 48.4900 0.0000 0.0000 0.0000
# 4 0.0000 0.0000 0.0000 24.5352 0.0000 0.0003
# 5 -0.0003 0.0003 0.0000 0.0000 24.5352 0.0000
# 6 0.0000 0.0000 0.0000 0.0003 0.0000 14.8492
#
#
#
# Elastic Compliance Matrix: (Units=1/GPa)
#
#
# Indices 1 2 3 4 5 6 
#
# 1 0.022367 -0.011305 -0.011110 0.000000 0.000000 0.000000
# 2 -0.011305 0.022367 -0.011110 0.000000 0.000000 0.000000
# 3 -0.011110 -0.011110 0.042939 0.000000 0.000000 0.000000
# 4 0.000000 0.000000 0.000000 0.040758 0.000000 -0.000001
# 5 0.000000 0.000000 0.000000 0.000000 0.040758 0.000000
# 6 0.000000 0.000000 0.000000 -0.000001 0.000000 0.067344
#
#
# Mechanical properties :
#
#
# Convention : Reuss Voigt Hill
#
# Bulk Modulus (GPa) = 48.48904 68.86304 58.67604
# Shear Modulus (GPa) = 16.10539 18.76733 17.43636
#
# Velocity S-wave (km/s) = 3.08882 3.33433 3.21392
# Velocity P-wave (km/s) = 6.43785 7.45775 6.96649
#
# Compressibility (1/GPa) = 0.02062322
#
# Stress axis : x y z
#
# Youngs Moduli (GPa) = 44.70959 44.70959 23.28873
#
# Poissons Ratio (x) = 0.50545 0.25873
# Poissons Ratio (y) = 0.50545 0.25873
# Poissons Ratio (z) = 0.49671 0.49671
#
# Static dielectric constant tensor:
#      x y z
#    x 1.557760 0.000000 0.000000 
#    y 0.000000 1.557760 0.000000 
#    z 0.000000 0.000000 1.564660 
# 
# From -- ./inp_files/657.got.cif
#   From: 2010.05.17/outbox.cif.g08.bks.cpg/sg187_1_cif.got.tgz:657.got - 2010.05.20 12:09:04.
