data_PCOD9585298
_publ_section_title
;
Structure prediction by ZEFSAII (Michael W. Deem and Ramdas Pophale) SiO2 
 PCOD9585298
Probable space group: P 63 C M
;
_chemical_formula_sum "Si O2"
_cell_formula_units_Z 64
_cell_length_a 13.771779
_cell_length_b 13.771779
_cell_length_c 19.722295
_cell_angle_alpha 90.000000
_cell_angle_beta 90.000000
_cell_angle_gamma 120.000000
_cell_volume 3239.426808
_symmetry_space_group_name_H-M "P 63 C M"
_symmetry_group_IT_number 185
_symmetry_cell_setting 'hexagonal'
loop_
_space_group_symop_operation_xyz
x,y,z
x-y,x,1/2+z
-y,x-y,z
-x,-y,1/2+z
-x+y,-x,z
y,-x+y,1/2+z
-x+y,y,1/2+z
x,x-y,1/2+z
-y,-x,1/2+z
y,x,z
x-y,-y,z
-x,-x+y,z
loop_
_atom_site_type_symbol
_atom_site_label
_atom_site_fract_x
_atom_site_fract_y
_atom_site_fract_z
Si Si1 0.000000 0.000000 0.915446
Si Si2 0.750286 0.617584 0.920972
Si Si3 0.000000 0.000000 0.082131
Si Si4 0.869408 0.331257 0.781593
Si Si5 0.867298 0.617584 0.576605
Si Si6 0.778541 0.000000 0.080675
Si Si7 0.461849 0.331257 0.715984
Si Si8 0.221459 0.221459 0.916901
O O1 0.000000 0.889229 0.892091
O O2 0.000000 0.000000 0.998788
O O3 0.713961 0.713961 0.920074
O O4 0.677412 0.530959 0.862914
O O5 0.880609 0.671998 0.900368
O O6 0.734113 0.576995 0.998788
O O7 0.110771 0.110771 0.105486
O O8 0.787917 0.212083 0.748788
O O9 0.843052 0.421526 0.748788
O O10 0.000000 0.374594 0.768439
O O11 0.791389 0.671998 0.597209
O O12 0.853547 0.530960 0.634663
O O13 0.000000 0.713961 0.577502
O O14 0.783630 0.000000 0.998788
O O15 0.374594 0.374594 0.729137
#
# Coordination Sequence:
#
# PCOD9585298 Si02
#       8
#     2  12   2  12  12   6  12   6
#     4   9  12  18  36  69 109 152 196 219 274 371
#     4   9  17  30  51  80 115 153 194 242 291 347
#     4   9  12  18  36  69 109 152 196 219 274 371
#     4  10  22  40  61  83 113 156 200 245 300 359
#     4   9  17  30  51  80 115 153 194 242 291 347
#     4   9  14  22  42  75 113 152 189 231 288 355
#     4  10  22  40  61  83 113 156 200 245 300 359
#     4   9  14  22  42  75 113 152 189 231 288 355
#
# _framework density 19.756582000000002
#
# number of rings (size 3 to 8) (size 9 to 14) (size 15 to 20)
#    0.000    2.625    1.875    0.375    2.625    0.000 
#    0.000    1.875    0.000    2.625    0.000    0.000 
#    0.000    0.000    0.000    0.000    0.000    0.000 
#
# Total GULP energy -356670.388598 kJ/mol
# GULP energy per Si atom -5572.974822 kJ/mol
# Density = 1.971161 g / cm^3
# Si number density = 19.756582 Si / 1000 Ang^3
#
#
#
# Elastic Constant Matrix: (Units=GPa)
#
#
# Indices 1 2 3 4 5 6 
#
# 1 51.7944 34.1260 51.0344 0.0000 0.0000 0.0000
# 2 34.1260 51.7944 51.0344 0.0000 0.0000 0.0000
# 3 51.0344 51.0344 130.6015 0.0000 0.0000 0.0000
# 4 0.0000 0.0000 0.0000 26.7869 0.0000 0.0000
# 5 0.0000 0.0000 0.0000 0.0000 26.7869 0.0000
# 6 0.0000 0.0000 0.0000 0.0000 0.0000 8.8342
#
#
#
# Elastic Compliance Matrix: (Units=1/GPa)
#
#
# Indices 1 2 3 4 5 6 
#
# 1 0.039160 -0.017438 -0.008488 0.000000 0.000000 0.000000
# 2 -0.017438 0.039160 -0.008488 0.000000 0.000000 0.000000
# 3 -0.008488 -0.008488 0.014291 0.000000 0.000000 0.000000
# 4 0.000000 0.000000 0.000000 0.037332 0.000000 0.000000
# 5 0.000000 0.000000 0.000000 0.000000 0.037332 0.000000
# 6 0.000000 0.000000 0.000000 0.000000 0.000000 0.113196
#
#
# Mechanical properties :
#
#
# Convention : Reuss Voigt Hill
#
# Bulk Modulus (GPa) = 42.04827 56.28666 49.16746
# Shear Modulus (GPa) = 13.99668 19.01462 16.50565
#
# Velocity S-wave (km/s) = 2.66457 3.10570 2.89355
# Velocity P-wave (km/s) = 5.54941 6.43525 6.00868
#
# Compressibility (1/GPa) = 0.02378219
#
# Stress axis : x y z
#
# Youngs Moduli (GPa) = 25.53609 25.53609 69.97530
#
# Poissons Ratio (x) = 0.44530 0.59397
# Poissons Ratio (y) = 0.44530 0.59397
# Poissons Ratio (z) = 0.21676 0.21676
#
# Static dielectric constant tensor:
#      x y z
#    x 1.713920 0.000000 0.000000 
#    y 0.000000 1.713920 0.000000 
#    z 0.000000 0.000000 1.711620 
# 
# From -- ./inp_files/1689.got.cif
#   From: 2010.05.17/outbox.cif.g08.bks.cpg/sg185_cif.got.tgz:1689.got - 2010.05.20 12:05:34.
