data_PCOD9585857
_publ_section_title
;
Structure prediction by ZEFSAII (Michael W. Deem and Ramdas Pophale) SiO2 
 PCOD9585857
Probable space group: P -6 C 2
;
_chemical_formula_sum "Si O2"
_cell_formula_units_Z 46
_cell_length_a 16.030799
_cell_length_b 16.030799
_cell_length_c 14.476702
_cell_angle_alpha 90.000000
_cell_angle_beta 90.000000
_cell_angle_gamma 120.000000
_cell_volume 3221.889221
_symmetry_space_group_name_H-M "P -6 C 2"
_symmetry_group_IT_number 188
_symmetry_cell_setting 'hexagonal'
loop_
_space_group_symop_operation_xyz
x,y,z
-x+y,-x,1/2-z
-y,x-y,z
x,y,1/2-z
-x+y,-x,z
-y,x-y,1/2-z
-y,-x,-z
-x+y,y,-z
x,x-y,-z
-x+y,y,1/2+z
x,x-y,1/2+z
-y,-x,1/2+z
loop_
_atom_site_type_symbol
_atom_site_label
_atom_site_fract_x
_atom_site_fract_y
_atom_site_fract_z
Si Si1 0.860729 0.334020 0.859966
Si Si2 0.308316 0.054153 0.000000
Si Si3 0.860729 0.334020 0.140034
Si Si4 0.000000 0.000000 0.137377
Si Si5 0.088818 0.911183 0.500000
O O1 0.873079 0.334274 0.750000
O O2 0.752872 0.247128 0.881642
O O3 0.871186 0.435593 0.887060
O O4 0.932423 0.308266 0.912732
O O5 0.375844 0.067578 0.087268
O O6 0.203591 0.962206 0.000001
O O7 0.291758 0.145879 0.000000
O O8 0.873079 0.334274 0.250000
O O9 0.053096 0.106190 0.089631
O O10 0.000000 0.000000 0.250000
#
# Coordination Sequence:
#
# PCOD9585857 Si02
#       5
#    12  12  12   4   6
#     4   9  17  28  44  67  94 124 152 178 213 261
#     4  10  18  30  45  61  91 120 151 188 223 263
#     4   9  17  28  44  67  94 124 152 178 213 261
#     4  10  20  34  52  62  82 124 158 196 244 269
#     4  10  20  36  44  68  92 114 158 200 226 282
#
# _framework density 14.277338
#
# number of rings (size 3 to 8) (size 9 to 14) (size 15 to 20)
#    0.000    2.609    2.609    1.304    0.000    4.174 
#    0.000    2.609    0.000    0.000    0.000    0.000 
#   10.435    0.000    0.000    0.000    0.000    0.000 
#
# Total GULP energy -256284.452814 kJ/mol
# GULP energy per Si atom -5571.401148 kJ/mol
# Density = 1.424484 g / cm^3
# Si number density = 14.277338 Si / 1000 Ang^3
#
#
#
# Elastic Constant Matrix: (Units=GPa)
#
#
# Indices 1 2 3 4 5 6 
#
# 1 116.9610 65.4476 43.4132 0.0000 0.0000 0.0000
# 2 65.4476 116.9610 43.4132 0.0000 0.0000 0.0000
# 3 43.4132 43.4132 91.5865 0.0000 0.0000 0.0000
# 4 0.0000 0.0000 0.0000 8.7917 0.0000 0.0000
# 5 0.0000 0.0000 0.0000 0.0000 8.7917 0.0000
# 6 0.0000 0.0000 0.0000 0.0000 0.0000 25.7567
#
#
#
# Elastic Compliance Matrix: (Units=1/GPa)
#
#
# Indices 1 2 3 4 5 6 
#
# 1 0.013246 -0.006166 -0.003356 0.000000 0.000000 0.000000
# 2 -0.006166 0.013246 -0.003356 0.000000 0.000000 0.000000
# 3 -0.003356 -0.003356 0.014100 0.000000 0.000000 0.000000
# 4 0.000000 0.000000 0.000000 0.113743 0.000000 0.000000
# 5 0.000000 0.000000 0.000000 0.000000 0.113743 0.000000
# 6 0.000000 0.000000 0.000000 0.000000 0.000000 0.038825
#
#
# Mechanical properties :
#
#
# Convention : Reuss Voigt Hill
#
# Bulk Modulus (GPa) = 67.40395 70.00630 68.70513
# Shear Modulus (GPa) = 14.81019 20.21698 17.51359
#
# Velocity S-wave (km/s) = 3.22424 3.76709 3.50619
# Velocity P-wave (km/s) = 7.82138 8.24990 8.03849
#
# Compressibility (1/GPa) = 0.01483593
#
# Stress axis : x y z
#
# Youngs Moduli (GPa) = 75.49448 75.49448 70.92183
#
# Poissons Ratio (x) = 0.46553 0.23800
# Poissons Ratio (y) = 0.46553 0.23800
# Poissons Ratio (z) = 0.25334 0.25334
#
# Static dielectric constant tensor:
#      x y z
#    x 1.451340 0.000000 0.000000 
#    y 0.000000 1.451340 0.000000 
#    z 0.000000 0.000000 1.502970 
# 
# From -- ./inp_files/2119.got.cif
#   From: 2010.05.17/outbox.cif.g08.bks.cpg/sg188_2_cif.got.tgz:2119.got - 2010.05.20 12:11:46.
