data_PCOD9585629
_publ_section_title
;
Structure prediction by ZEFSAII (Michael W. Deem and Ramdas Pophale) SiO2 
 PCOD9585629
Probable space group: P -6 M 2
;
_chemical_formula_sum "Si O2"
_cell_formula_units_Z 66
_cell_length_a 22.498630
_cell_length_b 22.498630
_cell_length_c 7.800978
_cell_angle_alpha 90.000000
_cell_angle_beta 90.000000
_cell_angle_gamma 120.000000
_cell_volume 3419.730108
_symmetry_space_group_name_H-M "P -6 M 2"
_symmetry_group_IT_number 187
_symmetry_cell_setting 'hexagonal'
loop_
_space_group_symop_operation_xyz
x,y,z
-x+y,-x,-z
-y,x-y,z
x,y,-z
-x+y,-x,z
-y,x-y,-z
-y,-x,-z
-x+y,y,-z
x,x-y,-z
-x+y,y,z
x,x-y,z
-y,-x,z
loop_
_atom_site_type_symbol
_atom_site_label
_atom_site_fract_x
_atom_site_fract_y
_atom_site_fract_z
Si Si1 0.069250 0.271572 0.294064
Si Si2 0.796303 0.463069 0.203087
Si Si3 0.328971 0.905331 0.291981
Si Si4 0.475633 0.808798 0.000000
Si Si5 0.941314 0.360455 0.304811
Si Si6 0.919787 0.703452 0.799558
O O1 0.064273 0.264366 0.500000
O O2 0.128825 0.257649 0.232374
O O3 0.091828 0.351065 0.259440
O O4 0.993765 0.222788 0.220787
O O5 0.742861 0.485721 0.270615
O O6 0.780576 0.390288 0.277338
O O7 0.875869 0.517664 0.223742
O O8 0.785838 0.454568 0.000000
O O9 0.332581 0.896025 0.500000
O O10 0.389911 0.981483 0.238998
O O11 0.330871 0.849531 0.169687
O O12 0.402841 0.805682 0.000000
O O13 0.467336 0.733668 0.000000
O O14 0.942840 0.380978 0.500000
O O15 0.926799 0.282525 0.295715
O O16 0.855308 0.710615 0.741697
O O17 0.909247 0.683889 0.000000
#
# Coordination Sequence:
#
# PCOD9585629 Si02
#       6
#    12  12  12   6  12  12
#     4   9  18  33  55  83 111 141 183 233 283 338
#     4  10  21  36  54  76 107 149 195 239 284 339
#     4   9  21  41  63  91 123 150 185 239 298 348
#     4  12  27  44  66  92 121 158 196 230 272 334
#     4  10  21  36  56  83 111 140 183 238 292 343
#     4  10  20  32  49  77 112 146 182 224 276 339
#
# _framework density 19.299769000000001
#
# number of rings (size 3 to 8) (size 9 to 14) (size 15 to 20)
#    0.000    2.182    0.000    3.545    6.364    7.636 
#    0.000    1.818    0.000    2.545    0.000    0.000 
#    0.000    0.000    0.000    0.000    0.000    0.000 
#
# Total GULP energy -368162.813420 kJ/mol
# GULP energy per Si atom -5578.224446 kJ/mol
# Density = 1.925584 g / cm^3
# Si number density = 19.299769 Si / 1000 Ang^3
#
#
#
# Elastic Constant Matrix: (Units=GPa)
#
#
# Indices 1 2 3 4 5 6 
#
# 1 81.3462 56.7085 23.3200 0.0000 0.0000 0.0000
# 2 56.7085 81.3462 23.3200 0.0000 0.0000 0.0000
# 3 23.3200 23.3200 46.2675 0.0000 0.0000 0.0000
# 4 0.0000 0.0000 0.0000 18.1526 0.0000 0.0000
# 5 0.0000 0.0000 0.0000 0.0000 18.1526 0.0000
# 6 0.0000 0.0000 0.0000 0.0000 0.0000 12.3189
#
#
#
# Elastic Compliance Matrix: (Units=1/GPa)
#
#
# Indices 1 2 3 4 5 6 
#
# 1 0.024659 -0.015929 -0.004400 0.000000 0.000000 0.000000
# 2 -0.015929 0.024659 -0.004400 0.000000 0.000000 0.000000
# 3 -0.004400 -0.004400 0.026049 0.000000 0.000000 0.000000
# 4 0.000000 0.000000 0.000000 0.055089 0.000000 0.000000
# 5 0.000000 0.000000 0.000000 0.000000 0.055089 0.000000
# 6 0.000000 0.000000 0.000000 0.000000 0.000000 0.081176
#
#
# Mechanical properties :
#
#
# Convention : Reuss Voigt Hill
#
# Bulk Modulus (GPa) = 38.59740 46.18406 42.39073
# Shear Modulus (GPa) = 15.39334 16.76556 16.07945
#
# Velocity S-wave (km/s) = 2.82723 2.95056 2.88955
# Velocity P-wave (km/s) = 5.54075 5.96569 5.75715
#
# Compressibility (1/GPa) = 0.02590848
#
# Stress axis : x y z
#
# Youngs Moduli (GPa) = 40.55295 40.55295 38.38916
#
# Poissons Ratio (x) = 0.64597 0.16892
# Poissons Ratio (y) = 0.64597 0.16892
# Poissons Ratio (z) = 0.17844 0.17844
#
# Static dielectric constant tensor:
#      x y z
#    x 1.683710 0.000000 0.000000 
#    y 0.000000 1.683710 0.000000 
#    z 0.000000 0.000000 1.703880 
# 
# From -- ./inp_files/762.got.cif
#   From: 2010.05.17/outbox.cif.g08.bks.cpg/sg187_1_cif.got.tgz:762.got - 2010.05.20 12:09:04.
