data_PCOD9585837
_publ_section_title
;
Structure prediction by ZEFSAII (Michael W. Deem and Ramdas Pophale) SiO2 
 PCOD9585837
Probable space group: P -6 C 2
;
_chemical_formula_sum "Si O2"
_cell_formula_units_Z 48
_cell_length_a 23.689389
_cell_length_b 23.689389
_cell_length_c 8.635431
_cell_angle_alpha 90.000000
_cell_angle_beta 90.000000
_cell_angle_gamma 120.000000
_cell_volume 4196.839580
_symmetry_space_group_name_H-M "P -6 C 2"
_symmetry_group_IT_number 188
_symmetry_cell_setting 'hexagonal'
loop_
_space_group_symop_operation_xyz
x,y,z
-x+y,-x,1/2-z
-y,x-y,z
x,y,1/2-z
-x+y,-x,z
-y,x-y,1/2-z
-y,-x,-z
-x+y,y,-z
x,x-y,-z
-x+y,y,1/2+z
x,x-y,1/2+z
-y,-x,1/2+z
loop_
_atom_site_type_symbol
_atom_site_label
_atom_site_fract_x
_atom_site_fract_y
_atom_site_fract_z
Si Si1 0.865740 0.603614 0.064498
Si Si2 0.126575 0.127316 0.064416
Si Si3 0.541028 0.334253 0.435260
Si Si4 0.932680 0.736935 0.934981
O O1 0.867926 0.610997 0.250000
O O2 0.852477 0.531584 0.025753
O O3 0.800572 0.601143 0.000000
O O4 0.924903 0.668581 0.991213
O O5 0.125991 0.125121 0.250000
O O6 0.066773 0.133546 0.000000
O O7 0.195950 0.185718 0.004323
O O8 0.119997 0.059999 0.000000
O O9 0.545567 0.333311 0.250000
O O10 0.598796 0.401205 0.500000
O O11 0.547540 0.273770 0.500000
O O12 0.932805 0.739784 0.750000
O O13 0.867852 0.735703 0.000000
#
# Coordination Sequence:
#
# PCOD9585837 Si02
#       4
#    12  12  12  12
#     4   9  16  26  38  51  64  82 105 132 161 193
#     4  11  20  30  40  52  69  88 109 133 163 200
#     4  10  19  28  38  50  67  87 109 134 166 203
#     4  10  17  26  39  53  66  83 105 131 160 192
#
# _framework density 11.437177999999999
#
# number of rings (size 3 to 8) (size 9 to 14) (size 15 to 20)
#    0.000    2.000    0.000    9.500    0.000    3.000 
#    0.000    0.000    0.000    0.000    0.000    0.000 
#    0.000    0.000    0.000    0.000    0.000    0.000 
#
# Total GULP energy -267379.421127 kJ/mol
# GULP energy per Si atom -5570.404607 kJ/mol
# Density = 1.141115 g / cm^3
# Si number density = 11.437178 Si / 1000 Ang^3
#
#
#
# Elastic Constant Matrix: (Units=GPa)
#
#
# Indices 1 2 3 4 5 6 
#
# 1 68.7943 46.3465 36.3371 -0.0001 0.0000 0.0000
# 2 46.3465 68.7943 36.3371 0.0001 0.0000 0.0000
# 3 36.3371 36.3371 98.7786 0.0000 0.0000 0.0000
# 4 -0.0001 0.0001 0.0000 14.1003 0.0000 0.0000
# 5 0.0000 0.0000 0.0000 0.0000 14.1003 -0.0001
# 6 0.0000 0.0000 0.0000 0.0000 -0.0001 11.2239
#
#
#
# Elastic Compliance Matrix: (Units=1/GPa)
#
#
# Indices 1 2 3 4 5 6 
#
# 1 0.027930 -0.016618 -0.004161 0.000000 0.000000 0.000000
# 2 -0.016618 0.027930 -0.004161 0.000000 0.000000 0.000000
# 3 -0.004161 -0.004161 0.013185 0.000000 0.000000 0.000000
# 4 0.000000 0.000000 0.000000 0.070921 0.000000 0.000000
# 5 0.000000 0.000000 0.000000 0.000000 0.070921 0.000000
# 6 0.000000 0.000000 0.000000 0.000000 0.000000 0.089096
#
#
# Mechanical properties :
#
#
# Convention : Reuss Voigt Hill
#
# Bulk Modulus (GPa) = 52.18223 52.71206 52.44714
# Shear Modulus (GPa) = 14.03511 15.70799 14.87155
#
# Velocity S-wave (km/s) = 3.50687 3.70998 3.60985
# Velocity P-wave (km/s) = 7.88173 8.03370 7.95808
#
# Compressibility (1/GPa) = 0.01916361
#
# Stress axis : x y z
#
# Youngs Moduli (GPa) = 35.80431 35.80431 75.84341
#
# Poissons Ratio (x) = 0.59500 0.31559
# Poissons Ratio (y) = 0.59500 0.31559
# Poissons Ratio (z) = 0.14898 0.14898
#
# Static dielectric constant tensor:
#      x y z
#    x 1.383000 0.000000 0.000000 
#    y 0.000000 1.383000 0.000000 
#    z 0.000000 0.000000 1.379500 
# 
# From -- ./inp_files/505.got.cif
#   From: 2010.05.17/outbox.cif.g08.bks.cpg/sg188_1_cif.got.tgz:505.got - 2010.05.20 12:11:46.
