data_PCOD9585786
_publ_section_title
;
Structure prediction by ZEFSAII (Michael W. Deem and Ramdas Pophale) SiO2 
 PCOD9585786
Probable space group: P -6 M 2
;
_chemical_formula_sum "Si O2"
_cell_formula_units_Z 78
_cell_length_a 23.816266
_cell_length_b 23.816266
_cell_length_c 8.218316
_cell_angle_alpha 90.000000
_cell_angle_beta 90.000000
_cell_angle_gamma 120.000000
_cell_volume 4037.019176
_symmetry_space_group_name_H-M "P -6 M 2"
_symmetry_group_IT_number 187
_symmetry_cell_setting 'hexagonal'
loop_
_space_group_symop_operation_xyz
x,y,z
-x+y,-x,-z
-y,x-y,z
x,y,-z
-x+y,-x,z
-y,x-y,-z
-y,-x,-z
-x+y,y,-z
x,x-y,-z
-x+y,y,z
x,x-y,z
-y,-x,z
loop_
_atom_site_type_symbol
_atom_site_label
_atom_site_fract_x
_atom_site_fract_y
_atom_site_fract_z
Si Si1 0.330337 0.788049 0.500000
Si Si2 0.155037 0.644307 0.827312
Si Si3 0.396749 0.298309 0.802813
Si Si4 0.666550 0.206414 0.801440
Si Si5 0.350902 0.955921 0.309761
Si Si6 0.254577 0.066112 0.802170
Si Si7 0.209698 0.288237 0.197732
O O1 0.288827 0.711174 0.500000
O O2 0.406139 0.812277 0.500000
O O3 0.315318 0.811814 0.333596
O O4 0.166227 0.583114 0.831016
O O5 0.080439 0.621480 0.798888
O O6 0.177360 0.678854 0.000000
O O7 0.466122 0.309346 0.748864
O O8 0.386022 0.355192 0.736462
O O9 0.330484 0.233133 0.754986
O O10 0.396887 0.299271 0.000000
O O11 0.595300 0.190599 0.747043
O O12 0.721254 0.278747 0.754118
O O13 0.665209 0.204445 0.000000
O O14 0.359213 0.947855 0.500000
O O15 0.274567 0.925100 0.267725
O O16 0.230687 0.115344 0.746322
O O17 0.216293 0.990581 0.752229
O O18 0.252902 0.065286 0.000000
O O19 0.142754 0.285508 0.245188
O O20 0.214044 0.292614 0.000000
#
# Coordination Sequence:
#
# PCOD9585786 Si02
#       7
#     6  12  12  12  12  12  12
#     4  10  21  38  58  82 108 138 177 220 266 316
#     4  10  21  38  58  79 107 142 179 221 270 327
#     4   9  17  29  46  70  99 132 174 219 265 319
#     4   9  16  26  43  70 103 136 172 218 271 326
#     4  11  21  34  52  75 105 138 174 219 272 326
#     4   8  13  24  45  69  92 125 170 216 260 308
#     4   9  18  32  50  74 105 139 174 212 258 317
#
# _framework density 19.321186999999998
#
# number of rings (size 3 to 8) (size 9 to 14) (size 15 to 20)
#    0.000    2.615    0.769    3.000    0.000    4.308 
#    0.000    1.538    0.000   12.769    0.000    2.154 
#    0.000    1.231    0.000    0.462    0.000    2.462 
#
# Total GULP energy -434499.034952 kJ/mol
# GULP energy per Si atom -5570.500448 kJ/mol
# Density = 1.927721 g / cm^3
# Si number density = 19.321187 Si / 1000 Ang^3
#
#
#
# Elastic Constant Matrix: (Units=GPa)
#
#
# Indices 1 2 3 4 5 6 
#
# 1 61.4542 17.7369 9.1296 0.0000 -0.0133 0.0000
# 2 17.7369 61.4542 9.1296 0.0000 0.0133 0.0000
# 3 9.1296 9.1296 63.2406 0.0000 0.0000 0.0000
# 4 0.0000 0.0000 0.0000 -267.6384 0.0000 0.0133
# 5 -0.0133 0.0133 0.0000 0.0000 -267.6384 0.0000
# 6 0.0000 0.0000 0.0000 0.0133 0.0000 21.8587
#
#
#
# Elastic Compliance Matrix: (Units=1/GPa)
#
#
# Indices 1 2 3 4 5 6 
#
# 1 0.017968 -0.004906 -0.001886 0.000000 -0.000001 0.000000
# 2 -0.004906 0.017968 -0.001886 0.000000 0.000001 0.000000
# 3 -0.001886 -0.001886 0.016357 0.000000 0.000000 0.000000
# 4 0.000000 0.000000 0.000000 -0.003736 0.000000 0.000002
# 5 -0.000001 0.000001 0.000000 0.000000 -0.003736 0.000000
# 6 0.000000 0.000000 0.000000 0.000002 0.000000 0.045748
#
#
# Mechanical properties :
#
#
# Convention : Reuss Voigt Hill
#
# Bulk Modulus (GPa) = 28.62125 28.68237 28.65181
# Shear Modulus (GPa) = 41.81633 -92.67345 -25.42856
#
# Velocity S-wave (km/s) = 4.65722 -6.93317 -3.63174
# Velocity P-wave (km/s) = 6.61553 7.01530 1.65065
#
# Compressibility (1/GPa) = 0.03493908
#
# Stress axis : x y z
#
# Youngs Moduli (GPa) = 55.65343 55.65343 61.13551
#
# Poissons Ratio (x) = 0.27303 0.11529
# Poissons Ratio (y) = 0.27303 0.11529
# Poissons Ratio (z) = 0.10495 0.10495
#
# Static dielectric constant tensor:
#      x y z
#    x 1.685330 0.000000 0.000000 
#    y 0.000000 1.685330 0.000000 
#    z 0.000000 0.000000 1.708280 
# 
# From -- ./inp_files/1168.got.cif
#   From: 2010.05.17/outbox.cif.g08.bks.cpg/sg187_1_cif.got.tgz:1168.got - 2010.05.20 12:09:04.
