data_PCOD9585499
_publ_section_title
;
Structure prediction by ZEFSAII (Michael W. Deem and Ramdas Pophale) SiO2 
 PCOD9585499
Probable space group: P -6 M 2
;
_chemical_formula_sum "Si O2"
_cell_formula_units_Z 84
_cell_length_a 18.007510
_cell_length_b 18.007510
_cell_length_c 19.369831
_cell_angle_alpha 90.000000
_cell_angle_beta 90.000000
_cell_angle_gamma 120.000000
_cell_volume 5439.560263
_symmetry_space_group_name_H-M "P -6 M 2"
_symmetry_group_IT_number 187
_symmetry_cell_setting 'hexagonal'
loop_
_space_group_symop_operation_xyz
x,y,z
-x+y,-x,-z
-y,x-y,z
x,y,-z
-x+y,-x,z
-y,x-y,-z
-y,-x,-z
-x+y,y,-z
x,x-y,-z
-x+y,y,z
x,x-y,z
-y,-x,z
loop_
_atom_site_type_symbol
_atom_site_label
_atom_site_fract_x
_atom_site_fract_y
_atom_site_fract_z
Si Si1 0.272089 0.905915 0.077412
Si Si2 0.416840 0.005939 0.179208
Si Si3 0.732053 0.093846 0.702699
Si Si4 0.999325 0.170856 0.109936
Si Si5 0.832115 0.331823 0.080851
Si Si6 0.839793 0.333271 0.420304
Si Si7 0.000472 0.832556 0.723185
O O1 0.186945 0.813056 0.085403
O O2 0.238431 0.974244 0.081631
O O3 0.338014 0.927242 0.139915
O O4 0.307593 0.910675 0.000000
O O5 0.494712 0.989424 0.197583
O O6 0.389501 0.045772 0.241891
O O7 0.452388 0.080762 0.121997
O O8 0.813107 0.186894 0.725896
O O9 0.693890 0.111531 0.634026
O O10 0.773616 0.034046 0.691042
O O11 0.076071 0.152141 0.091559
O O12 0.999411 0.177500 0.193446
O O13 0.907411 0.092590 0.088639
O O14 0.797979 0.398990 0.087505
O O15 0.760742 0.239258 0.106676
O O16 0.846938 0.325678 0.000000
O O17 0.865950 0.333872 0.500000
O O18 0.850479 0.425240 0.403899
O O19 0.739817 0.260184 0.415621
O O20 0.930691 0.861381 0.708265
O O21 0.094555 0.905446 0.702580
#
# Coordination Sequence:
#
# PCOD9585499 Si02
#       7
#    12  12  12  12  12  12  12
#     4  10  21  35  48  62  83 113 149 190 236 282
#     4  11  21  32  47  66  87 111 143 184 231 281
#     4  10  19  30  46  70  99 126 153 189 231 275
#     4   9  16  27  43  64  89 117 149 183 220 264
#     4   9  17  28  41  57  80 112 146 175 203 241
#     4   9  17  30  48  69  94 126 163 200 238 281
#     4   9  16  27  45  68  94 124 157 188 218 259
#
# _framework density 15.442424000000001
#
# number of rings (size 3 to 8) (size 9 to 14) (size 15 to 20)
#    0.000    2.429    1.429    1.857    0.000    4.000 
#    0.000    0.000    0.000    6.143    0.000    0.000 
#    0.000    1.143    0.000    0.000    0.000    1.429 
#
# Total GULP energy -468211.874298 kJ/mol
# GULP energy per Si atom -5573.950885 kJ/mol
# Density = 1.540728 g / cm^3
# Si number density = 15.442424 Si / 1000 Ang^3
#
#
#
# Elastic Constant Matrix: (Units=GPa)
#
#
# Indices 1 2 3 4 5 6 
#
# 1 74.6374 38.0216 38.7983 0.0000 0.0000 0.0000
# 2 38.0216 74.6374 38.7983 0.0000 0.0000 0.0000
# 3 38.7983 38.7983 57.4750 0.0000 0.0000 0.0000
# 4 0.0000 0.0000 0.0000 16.0101 0.0000 0.0000
# 5 0.0000 0.0000 0.0000 0.0000 16.0101 0.0000
# 6 0.0000 0.0000 0.0000 0.0000 0.0000 18.3079
#
#
#
# Elastic Compliance Matrix: (Units=1/GPa)
#
#
# Indices 1 2 3 4 5 6 
#
# 1 0.021950 -0.005360 -0.011199 0.000000 0.000000 0.000000
# 2 -0.005360 0.021950 -0.011199 0.000000 0.000000 0.000000
# 3 -0.011199 -0.011199 0.032518 0.000000 0.000000 0.000000
# 4 0.000000 0.000000 0.000000 0.062461 0.000000 0.000000
# 5 0.000000 0.000000 0.000000 0.000000 0.062461 0.000000
# 6 0.000000 0.000000 0.000000 0.000000 0.000000 0.054621
#
#
# Mechanical properties :
#
#
# Convention : Reuss Voigt Hill
#
# Bulk Modulus (GPa) = 47.84119 48.66511 48.25315
# Shear Modulus (GPa) = 15.70129 16.14106 15.92117
#
# Velocity S-wave (km/s) = 3.19213 3.23653 3.21441
# Velocity P-wave (km/s) = 6.68086 6.74901 6.71502
#
# Compressibility (1/GPa) = 0.02090249
#
# Stress axis : x y z
#
# Youngs Moduli (GPa) = 45.55763 45.55763 30.75181
#
# Poissons Ratio (x) = 0.24421 0.34439
# Poissons Ratio (y) = 0.24421 0.34439
# Poissons Ratio (z) = 0.51020 0.51020
#
# Static dielectric constant tensor:
#      x y z
#    x 1.524300 0.000000 0.000000 
#    y 0.000000 1.524300 0.000000 
#    z 0.000000 0.000000 1.513600 
# 
# From -- ./inp_files/3676.got.cif
#   From: 2010.05.17/outbox.cif.g08.bks.cpg/sg187_2_cif.got.tgz:3676.got - 2010.05.20 12:09:04.
