data_PCOD9585778
_publ_section_title
;
Structure prediction by ZEFSAII (Michael W. Deem and Ramdas Pophale) SiO2 
 PCOD9585778
Probable space group: P -6 M 2
;
_chemical_formula_sum "Si O2"
_cell_formula_units_Z 84
_cell_length_a 18.784273
_cell_length_b 18.784273
_cell_length_c 14.441373
_cell_angle_alpha 90.000000
_cell_angle_beta 90.000000
_cell_angle_gamma 120.000000
_cell_volume 4412.938752
_symmetry_space_group_name_H-M "P -6 M 2"
_symmetry_group_IT_number 187
_symmetry_cell_setting 'hexagonal'
loop_
_space_group_symop_operation_xyz
x,y,z
-x+y,-x,-z
-y,x-y,z
x,y,-z
-x+y,-x,z
-y,x-y,-z
-y,-x,-z
-x+y,y,-z
x,x-y,-z
-x+y,y,z
x,x-y,z
-y,-x,z
loop_
_atom_site_type_symbol
_atom_site_label
_atom_site_fract_x
_atom_site_fract_y
_atom_site_fract_z
Si Si1 0.504340 0.171960 0.612270
Si Si2 0.006015 0.352616 0.890434
Si Si3 0.839222 0.001766 0.610636
Si Si4 0.575007 0.592992 0.389021
Si Si5 0.674225 0.752712 0.279919
Si Si6 0.489411 0.823548 0.111303
Si Si7 0.502734 0.333546 0.112422
O O1 0.503933 0.172765 0.500000
O O2 0.595490 0.190979 0.639405
O O3 0.486402 0.243201 0.643788
O O4 0.440769 0.077803 0.637578
O O5 0.917822 0.340887 0.864378
O O6 0.034674 0.306103 0.820122
O O7 0.080921 0.445453 0.875563
O O8 0.004801 0.333392 0.000000
O O9 0.832792 0.005246 0.500000
O O10 0.910955 0.089045 0.644005
O O11 0.861385 0.930693 0.630652
O O12 0.752352 0.973957 0.655274
O O13 0.583417 0.610264 0.500000
O O14 0.483405 0.516596 0.373281
O O15 0.599496 0.673093 0.328450
O O16 0.661216 0.830608 0.274780
O O17 0.401250 0.802499 0.149105
O O18 0.514848 0.757424 0.143966
O O19 0.482439 0.814799 0.000000
O O20 0.497917 0.248959 0.142173
O O21 0.586180 0.413821 0.144320
O O22 0.505753 0.334434 0.000000
#
# Coordination Sequence:
#
# PCOD9585778 Si02
#       7
#    12  12  12  12  12  12  12
#     4   8  13  23  43  73 109 148 186 220 257 309
#     4  10  21  36  53  75 107 146 187 231 278 325
#     4   9  18  34  58  88 118 143 168 206 263 330
#     4   9  19  35  53  75 106 144 183 225 278 337
#     4  11  23  37  56  81 107 140 182 227 276 330
#     4   9  16  27  45  69  97 130 171 222 279 334
#     4   9  17  31  53  80 109 143 184 227 267 308
#
# _framework density 19.034935000000001
#
# number of rings (size 3 to 8) (size 9 to 14) (size 15 to 20)
#    0.000    2.714    0.000    2.714    0.000    8.000 
#    0.000    1.429    0.000    0.286    0.000    2.000 
#    0.000    1.143    0.000    0.000    0.000    0.286 
#
# Total GULP energy -468453.743154 kJ/mol
# GULP energy per Si atom -5576.830276 kJ/mol
# Density = 1.899161 g / cm^3
# Si number density = 19.034935 Si / 1000 Ang^3
#
#
#
# Elastic Constant Matrix: (Units=GPa)
#
#
# Indices 1 2 3 4 5 6 
#
# 1 82.3637 88.9818 27.5071 0.0000 -0.0003 0.0000
# 2 88.9818 82.3637 27.5071 0.0000 0.0003 0.0000
# 3 27.5071 27.5071 70.9574 0.0000 0.0000 0.0000
# 4 0.0000 0.0000 0.0000 4.3570 0.0000 0.0003
# 5 -0.0003 0.0003 0.0000 0.0000 4.3570 0.0000
# 6 0.0000 0.0000 0.0000 0.0003 0.0000 -3.3091
#
#
#
# Elastic Compliance Matrix: (Units=1/GPa)
#
#
# Indices 1 2 3 4 5 6 
#
# 1 -0.072217 0.078883 -0.002584 0.000000 -0.000010 0.000000
# 2 0.078883 -0.072217 -0.002584 0.000000 0.000010 0.000000
# 3 -0.002584 -0.002584 0.016096 0.000000 0.000000 0.000000
# 4 0.000000 0.000000 0.000000 0.229516 0.000000 0.000019
# 5 -0.000010 0.000010 0.000000 0.000000 0.229516 0.000000
# 6 0.000000 0.000000 0.000000 0.000019 0.000000 -0.302200
#
#
# Mechanical properties :
#
#
# Convention : Reuss Voigt Hill
#
# Bulk Modulus (GPa) = 52.37834 58.18631 55.28232
# Shear Modulus (GPa) = -44.41623 7.19356 -18.61134
#
# Velocity S-wave (km/s) = -4.83577 1.94611 -3.13029
# Velocity P-wave (km/s) = 1.89814 5.97363 4.00508
#
# Compressibility (1/GPa) = 0.01909186
#
# Stress axis : x y z
#
# Youngs Moduli (GPa) = -13.84712 -13.84712 62.12560
#
# Poissons Ratio (x) = 1.09230 0.16054
# Poissons Ratio (y) = 1.09230 0.16054
# Poissons Ratio (z) = -0.03578 -0.03578
#
# Static dielectric constant tensor:
#      x y z
#    x 1.684750 0.000000 0.000000 
#    y 0.000000 1.684750 0.000000 
#    z 0.000000 0.000000 1.704630 
# 
# From -- ./inp_files/2605.got.cif
#   From: 2010.05.17/outbox.cif.g08.bks.cpg/sg187_2_cif.got.tgz:2605.got - 2010.05.20 12:09:04.
