data_PCOD9585708
_publ_section_title
;
Structure prediction by ZEFSAII (Michael W. Deem and Ramdas Pophale) SiO2 
 PCOD9585708
Probable space group: P -6 M 2
;
_chemical_formula_sum "Si O2"
_cell_formula_units_Z 66
_cell_length_a 12.702772
_cell_length_b 12.702772
_cell_length_c 28.748156
_cell_angle_alpha 90.000000
_cell_angle_beta 90.000000
_cell_angle_gamma 120.000000
_cell_volume 4017.331136
_symmetry_space_group_name_H-M "P -6 M 2"
_symmetry_group_IT_number 187
_symmetry_cell_setting 'hexagonal'
loop_
_space_group_symop_operation_xyz
x,y,z
-x+y,-x,-z
-y,x-y,z
x,y,-z
-x+y,-x,z
-y,x-y,-z
-y,-x,-z
-x+y,y,-z
x,x-y,-z
-x+y,y,z
x,x-y,z
-y,-x,z
loop_
_atom_site_type_symbol
_atom_site_label
_atom_site_fract_x
_atom_site_fract_y
_atom_site_fract_z
Si Si1 0.250525 0.999632 0.000000
Si Si2 0.083559 0.667307 0.090126
Si Si3 0.666748 0.084283 0.446545
Si Si4 0.667173 0.582872 0.729028
Si Si5 0.999923 0.749664 0.819432
Si Si6 0.000500 0.249945 0.640040
O O1 0.312889 0.981026 0.954468
O O2 0.255839 0.127920 0.000000
O O3 0.110758 0.889243 0.000000
O O4 0.075629 0.537815 0.089506
O O5 0.223779 0.776222 0.088655
O O6 0.025264 0.687610 0.136539
O O7 0.669332 0.047255 0.500000
O O8 0.539413 0.078826 0.438447
O O9 0.776853 0.223148 0.441675
O O10 0.691957 0.008197 0.408509
O O11 0.775455 0.550910 0.728241
O O12 0.537810 0.462191 0.731568
O O13 0.692158 0.669022 0.773498
O O14 0.682046 0.658645 0.682347
O O15 0.117534 0.882467 0.813446
O O16 0.880180 0.760360 0.827277
O O17 0.126680 0.253360 0.645343
O O18 0.888527 0.111474 0.640953
#
# Coordination Sequence:
#
# PCOD9585708 Si02
#       6
#     6  12  12  12  12  12
#     4  10  20  34  54  78 104 134 168 210 256 302
#     4  10  20  34  53  76 103 135 170 208 249 295
#     4   9  17  30  50  75 100 126 158 199 246 293
#     4  10  20  34  53  76 101 129 162 202 248 296
#     4  10  20  34  54  78 104 134 167 205 247 293
#     4  10  20  33  50  72  99 131 165 202 244 291
#
# _framework density 16.428818
#
# number of rings (size 3 to 8) (size 9 to 14) (size 15 to 20)
#    0.000    2.182    0.000    3.455    0.000    1.091 
#    0.000    6.364    0.000   14.909    0.000    0.000 
#    0.000    0.000    0.000    0.000    0.000    0.000 
#
# Total GULP energy -368367.054992 kJ/mol
# GULP energy per Si atom -5581.319015 kJ/mol
# Density = 1.639143 g / cm^3
# Si number density = 16.428818 Si / 1000 Ang^3
#
#
#
# Elastic Constant Matrix: (Units=GPa)
#
#
# Indices 1 2 3 4 5 6 
#
# 1 128.6191 91.6394 78.3947 0.0000 0.0000 0.0000
# 2 91.6394 128.6191 78.3947 0.0000 0.0000 0.0000
# 3 78.3947 78.3947 125.9070 0.0000 0.0000 0.0000
# 4 0.0000 0.0000 0.0000 19.9154 0.0000 0.0000
# 5 0.0000 0.0000 0.0000 0.0000 19.9154 0.0000
# 6 0.0000 0.0000 0.0000 0.0000 0.0000 18.4899
#
#
#
# Elastic Compliance Matrix: (Units=1/GPa)
#
#
# Indices 1 2 3 4 5 6 
#
# 1 0.017598 -0.009444 -0.005077 0.000000 0.000000 0.000000
# 2 -0.009444 0.017598 -0.005077 0.000000 0.000000 0.000000
# 3 -0.005077 -0.005077 0.014265 0.000000 0.000000 0.000000
# 4 0.000000 0.000000 0.000000 0.050212 0.000000 0.000000
# 5 0.000000 0.000000 0.000000 0.000000 0.050212 0.000000
# 6 0.000000 0.000000 0.000000 0.000000 0.000000 0.054084
#
#
# Mechanical properties :
#
#
# Convention : Reuss Voigt Hill
#
# Bulk Modulus (GPa) = 97.42107 97.77808 97.59957
# Shear Modulus (GPa) = 20.27682 20.64525 20.46103
#
# Velocity S-wave (km/s) = 3.51696 3.54877 3.53290
# Velocity P-wave (km/s) = 8.71319 8.74283 8.72802
#
# Compressibility (1/GPa) = 0.01026472
#
# Stress axis : x y z
#
# Youngs Moduli (GPa) = 56.82447 56.82447 70.10234
#
# Poissons Ratio (x) = 0.53664 0.35592
# Poissons Ratio (y) = 0.53664 0.35592
# Poissons Ratio (z) = 0.28851 0.28851
#
# Static dielectric constant tensor:
#      x y z
#    x 1.517700 0.000000 0.000000 
#    y 0.000000 1.517700 0.000000 
#    z 0.000000 0.000000 1.550620 
# 
# From -- ./inp_files/4415.got.cif
#   From: 2010.05.17/outbox.cif.g08.bks.cpg/sg187_3_cif.got.tgz:4415.got - 2010.05.20 12:09:04.
