data_PCOD9585604
_publ_section_title
;
Structure prediction by ZEFSAII (Michael W. Deem and Ramdas Pophale) SiO2 
 PCOD9585604
Probable space group: P -6 M 2
;
_chemical_formula_sum "Si O2"
_cell_formula_units_Z 66
_cell_length_a 13.060927
_cell_length_b 13.060927
_cell_length_c 28.285645
_cell_angle_alpha 90.000000
_cell_angle_beta 90.000000
_cell_angle_gamma 120.000000
_cell_volume 4178.733958
_symmetry_space_group_name_H-M "P -6 M 2"
_symmetry_group_IT_number 187
_symmetry_cell_setting 'hexagonal'
loop_
_space_group_symop_operation_xyz
x,y,z
-x+y,-x,-z
-y,x-y,z
x,y,-z
-x+y,-x,z
-y,x-y,-z
-y,-x,-z
-x+y,y,-z
x,x-y,-z
-x+y,y,z
x,x-y,z
-y,-x,z
loop_
_atom_site_type_symbol
_atom_site_label
_atom_site_fract_x
_atom_site_fract_y
_atom_site_fract_z
Si Si1 0.759531 0.000086 0.807863
Si Si2 0.333863 0.423701 0.000000
Si Si3 0.333654 0.910158 0.724694
Si Si4 0.000198 0.240737 0.554882
Si Si5 0.758994 0.758640 0.082317
Si Si6 0.423489 0.089801 0.638009
O O1 0.791879 0.895940 0.803305
O O2 0.653666 0.967554 0.771761
O O3 0.725953 0.000115 0.862738
O O4 0.874122 0.125879 0.797264
O O5 0.318304 0.344886 0.046066
O O6 0.455790 0.544211 0.000000
O O7 0.223543 0.447086 0.000000
O O8 0.445772 0.891545 0.729598
O O9 0.214082 0.785919 0.716432
O O10 0.360744 0.000029 0.681367
O O11 0.001084 0.274780 0.500000
O O12 0.125646 0.251291 0.565655
O O13 0.967894 0.314352 0.590937
O O14 0.895519 0.104481 0.559387
O O15 0.876006 0.752012 0.072185
O O16 0.786666 0.893333 0.076580
O O17 0.554304 0.108608 0.633172
O O18 0.427920 0.213960 0.646168
#
# Coordination Sequence:
#
# PCOD9585604 Si02
#       6
#    12   6  12  12  12  12
#     4   9  17  30  49  73  98 121 147 184 233 284
#     4  10  20  32  46  66  94 128 162 194 230 274
#     4  10  20  33  49  69  94 125 160 196 233 275
#     4   9  17  30  49  72  96 121 150 187 232 280
#     4   9  17  30  50  74  96 118 147 188 236 281
#     4  10  20  33  49  69  94 125 160 197 236 278
#
# _framework density 15.794257999999999
#
# number of rings (size 3 to 8) (size 9 to 14) (size 15 to 20)
#    0.000    2.545    0.000    2.364    0.000    3.273 
#    0.000    0.909    0.000   11.273    0.000    0.000 
#    0.000    0.000    0.000    0.000    0.000    0.000 
#
# Total GULP energy -367985.264756 kJ/mol
# GULP energy per Si atom -5575.534314 kJ/mol
# Density = 1.575831 g / cm^3
# Si number density = 15.794258 Si / 1000 Ang^3
#
#
#
# Elastic Constant Matrix: (Units=GPa)
#
#
# Indices 1 2 3 4 5 6 
#
# 1 118.8385 78.2380 84.2724 0.0000 0.0003 0.0000
# 2 78.2380 118.8385 84.2724 0.0000 -0.0003 0.0000
# 3 84.2724 84.2724 104.0949 0.0000 0.0000 0.0000
# 4 0.0000 0.0000 0.0000 23.4874 0.0000 -0.0003
# 5 0.0003 -0.0003 0.0000 0.0000 23.4874 0.0000
# 6 0.0000 0.0000 0.0000 -0.0003 0.0000 20.3002
#
#
#
# Elastic Compliance Matrix: (Units=1/GPa)
#
#
# Indices 1 2 3 4 5 6 
#
# 1 0.020562 -0.004068 -0.013353 0.000000 0.000000 0.000000
# 2 -0.004068 0.020562 -0.013353 0.000000 0.000000 0.000000
# 3 -0.013353 -0.013353 0.031228 0.000000 0.000000 0.000000
# 4 0.000000 0.000000 0.000000 0.042576 0.000000 0.000001
# 5 0.000000 0.000000 0.000000 0.000000 0.042576 0.000000
# 6 0.000000 0.000000 0.000000 0.000001 0.000000 0.049260
#
#
# Mechanical properties :
#
#
# Convention : Reuss Voigt Hill
#
# Bulk Modulus (GPa) = 92.56807 92.81530 92.69169
# Shear Modulus (GPa) = 18.38812 19.78763 19.08788
#
# Velocity S-wave (km/s) = 3.41578 3.54338 3.48017
# Velocity P-wave (km/s) = 8.61932 8.69676 8.65812
#
# Compressibility (1/GPa) = 0.01080286
#
# Stress axis : x y z
#
# Youngs Moduli (GPa) = 48.63280 48.63280 32.02294
#
# Poissons Ratio (x) = 0.19784 0.42761
# Poissons Ratio (y) = 0.19784 0.42761
# Poissons Ratio (z) = 0.64941 0.64941
#
# Static dielectric constant tensor:
#      x y z
#    x 1.498680 0.000000 0.000000 
#    y 0.000000 1.498680 0.000000 
#    z 0.000000 0.000000 1.525950 
# 
# From -- ./inp_files/4452.got.cif
#   From: 2010.05.17/outbox.cif.g08.bks.cpg/sg187_3_cif.got.tgz:4452.got - 2010.05.20 12:09:04.
