data_PCOD9585576
_publ_section_title
;
Structure prediction by ZEFSAII (Michael W. Deem and Ramdas Pophale) SiO2 
 PCOD9585576
Probable space group: P -6 M 2
;
_chemical_formula_sum "Si O2"
_cell_formula_units_Z 60
_cell_length_a 13.115185
_cell_length_b 13.115185
_cell_length_c 26.164267
_cell_angle_alpha 90.000000
_cell_angle_beta 90.000000
_cell_angle_gamma 120.000000
_cell_volume 3897.517251
_symmetry_space_group_name_H-M "P -6 M 2"
_symmetry_group_IT_number 187
_symmetry_cell_setting 'hexagonal'
loop_
_space_group_symop_operation_xyz
x,y,z
-x+y,-x,-z
-y,x-y,z
x,y,-z
-x+y,-x,z
-y,x-y,-z
-y,-x,-z
-x+y,y,-z
x,x-y,-z
-x+y,y,z
x,x-y,z
-y,-x,z
loop_
_atom_site_type_symbol
_atom_site_label
_atom_site_fract_x
_atom_site_fract_y
_atom_site_fract_z
Si Si1 0.088819 0.423158 0.387510
Si Si2 0.757490 0.757873 0.000000
Si Si3 0.666299 0.573183 0.088056
Si Si4 0.999970 0.242976 0.295983
Si Si5 0.666429 0.093528 0.792937
Si Si6 0.334314 0.426489 0.500000
O O1 0.222374 0.444748 0.387715
O O2 0.091060 0.545530 0.377854
O O3 0.019660 0.327287 0.344206
O O4 0.035396 0.379102 0.444560
O O5 0.694563 0.678366 0.049603
O O6 0.754908 0.877454 0.000000
O O7 0.891135 0.782270 0.000000
O O8 0.772531 0.545062 0.081662
O O9 0.542803 0.457198 0.076662
O O10 0.666282 0.605111 0.147569
O O11 0.115158 0.230315 0.291384
O O12 0.981360 0.302721 0.245712
O O13 0.883525 0.116476 0.302449
O O14 0.541626 0.083251 0.781433
O O15 0.771144 0.228857 0.787546
O O16 0.437662 0.562339 0.500000
O O17 0.209361 0.418722 0.500000
#
# Coordination Sequence:
#
# PCOD9585576 Si02
#       6
#    12   6  12  12  12   6
#     4   9  16  27  45  68  91 113 140 179 227 274
#     4  10  20  32  46  66  94 128 162 192 220 252
#     4   9  17  30  50  74  95 114 140 181 232 278
#     4  10  20  32  45  62  88 123 159 190 218 254
#     4   9  17  30  49  72  94 114 140 180 231 280
#     4   8  13  22  39  64  90 112 136 172 222 274
#
# _framework density 15.394416
#
# number of rings (size 3 to 8) (size 9 to 14) (size 15 to 20)
#    0.000    2.800    0.000    1.900    0.000    4.000 
#    0.000    1.500    0.000    4.800    0.000    1.400 
#    0.000    0.000    0.000    0.000    0.000    0.000 
#
# Total GULP energy -334118.972663 kJ/mol
# GULP energy per Si atom -5568.649544 kJ/mol
# Density = 1.535938 g / cm^3
# Si number density = 15.394416 Si / 1000 Ang^3
#
#
#
# Elastic Constant Matrix: (Units=GPa)
#
#
# Indices 1 2 3 4 5 6 
#
# 1 92.9571 57.5345 79.5099 0.0000 -0.0003 0.0000
# 2 57.5345 92.9571 79.5099 0.0000 0.0003 0.0000
# 3 79.5099 79.5099 120.6029 0.0000 0.0000 0.0000
# 4 0.0000 0.0000 0.0000 19.7546 0.0000 0.0003
# 5 -0.0003 0.0003 0.0000 0.0000 19.7546 0.0000
# 6 0.0000 0.0000 0.0000 0.0003 0.0000 17.7113
#
#
#
# Elastic Compliance Matrix: (Units=1/GPa)
#
#
# Indices 1 2 3 4 5 6 
#
# 1 0.025067 -0.003164 -0.014440 0.000000 0.000000 0.000000
# 2 -0.003164 0.025067 -0.014440 0.000000 0.000000 0.000000
# 3 -0.014440 -0.014440 0.027332 0.000000 0.000000 0.000000
# 4 0.000000 0.000000 0.000000 0.050621 0.000000 -0.000001
# 5 0.000000 0.000000 0.000000 0.000000 0.050621 0.000000
# 6 0.000000 0.000000 0.000000 -0.000001 0.000000 0.056461
#
#
# Mechanical properties :
#
#
# Convention : Reuss Voigt Hill
#
# Bulk Modulus (GPa) = 74.75212 82.18062 78.46637
# Shear Modulus (GPa) = 16.46267 17.44159 16.95213
#
# Velocity S-wave (km/s) = 3.27370 3.36963 3.32201
# Velocity P-wave (km/s) = 7.93429 8.28484 8.11145
#
# Compressibility (1/GPa) = 0.01337755
#
# Stress axis : x y z
#
# Youngs Moduli (GPa) = 39.89295 39.89295 36.58735
#
# Poissons Ratio (x) = 0.12620 0.52833
# Poissons Ratio (y) = 0.12620 0.52833
# Poissons Ratio (z) = 0.57607 0.57607
#
# Static dielectric constant tensor:
#      x y z
#    x 1.481260 0.000000 0.000000 
#    y 0.000000 1.481260 0.000000 
#    z 0.000000 0.000000 1.538970 
# 
# From -- ./inp_files/4201.got.cif
#   From: 2010.05.17/outbox.cif.g08.bks.cpg/sg187_3_cif.got.tgz:4201.got - 2010.05.20 12:09:04.
