data_PCOD9585445
_publ_section_title
;
Structure prediction by ZEFSAII (Michael W. Deem and Ramdas Pophale) SiO2 
 PCOD9585445
Probable space group: P -6 M 2
;
_chemical_formula_sum "Si O2"
_cell_formula_units_Z 72
_cell_length_a 23.894685
_cell_length_b 23.894685
_cell_length_c 7.426454
_cell_angle_alpha 90.000000
_cell_angle_beta 90.000000
_cell_angle_gamma 120.000000
_cell_volume 3672.102087
_symmetry_space_group_name_H-M "P -6 M 2"
_symmetry_group_IT_number 187
_symmetry_cell_setting 'hexagonal'
loop_
_space_group_symop_operation_xyz
x,y,z
-x+y,-x,-z
-y,x-y,z
x,y,-z
-x+y,-x,z
-y,x-y,-z
-y,-x,-z
-x+y,y,-z
x,x-y,-z
-x+y,y,z
x,x-y,z
-y,-x,z
loop_
_atom_site_type_symbol
_atom_site_label
_atom_site_fract_x
_atom_site_fract_y
_atom_site_fract_z
Si Si1 0.793966 0.717088 0.779459
Si Si2 0.187918 0.936490 0.786189
Si Si3 0.795260 0.333328 0.779952
Si Si4 0.411339 0.336000 0.783072
Si Si5 0.138887 0.403142 0.717089
Si Si6 0.533994 0.941543 0.286592
O O1 0.858555 0.717109 0.722817
O O2 0.788055 0.778471 0.718292
O O3 0.728503 0.652809 0.721423
O O4 0.793843 0.716931 0.000000
O O5 0.119095 0.880906 0.711867
O O6 0.237626 0.909710 0.761331
O O7 0.179682 0.939561 0.000000
O O8 0.792662 0.396331 0.722795
O O9 0.732171 0.267830 0.722790
O O10 0.860789 0.336176 0.720404
O O11 0.795497 0.333283 0.000000
O O12 0.413429 0.402169 0.734973
O O13 0.410630 0.333097 0.000000
O O14 0.141500 0.407302 0.500000
O O15 0.209513 0.419025 0.781588
O O16 0.110531 0.447403 0.785777
O O17 0.523885 0.929789 0.500000
O O18 0.470170 0.940339 0.213160
#
# Coordination Sequence:
#
# PCOD9585445 Si02
#       6
#    12  12  12  12  12  12
#     4   9  16  26  42  65  93 122 149 182 226 269
#     4   9  16  27  45  68  91 115 147 186 223 261
#     4   9  16  25  38  57  81 109 144 187 230 267
#     4  10  18  29  45  66  88 114 150 189 224 263
#     4   9  17  30  48  67  88 115 146 181 220 262
#     4  10  20  32  46  66  94 123 146 175 221 272
#
# _framework density 19.607296999999999
#
# number of rings (size 3 to 8) (size 9 to 14) (size 15 to 20)
#    0.000    2.667    1.667    1.167    0.000    3.667 
#    0.000    0.000    0.000    4.167    0.000    4.667 
#    0.000    1.333    0.000    3.833    0.000    4.667 
#
# Total GULP energy -401858.501565 kJ/mol
# GULP energy per Si atom -5581.368077 kJ/mol
# Density = 1.956267 g / cm^3
# Si number density = 19.607297 Si / 1000 Ang^3
#
#
#
# Elastic Constant Matrix: (Units=GPa)
#
#
# Indices 1 2 3 4 5 6 
#
# 1 153.0548 103.4970 -1.2783 0.0000 -0.0024 0.0000
# 2 103.4970 153.0548 -1.2783 0.0000 0.0024 0.0000
# 3 -1.2783 -1.2783 62.4951 0.0000 0.0000 0.0000
# 4 0.0000 0.0000 0.0000 2.5563 0.0000 0.0024
# 5 -0.0024 0.0024 0.0000 0.0000 2.5563 0.0000
# 6 0.0000 0.0000 0.0000 0.0024 0.0000 24.7789
#
#
#
# Elastic Compliance Matrix: (Units=1/GPa)
#
#
# Indices 1 2 3 4 5 6 
#
# 1 0.012039 -0.008140 0.000080 0.000000 0.000019 0.000000
# 2 -0.008140 0.012039 0.000080 0.000000 -0.000019 0.000000
# 3 0.000080 0.000080 0.016005 0.000000 0.000000 0.000000
# 4 0.000000 0.000000 0.000000 0.391183 0.000000 -0.000038
# 5 0.000019 -0.000019 0.000000 0.000000 0.391183 0.000000
# 6 0.000000 0.000000 0.000000 -0.000038 0.000000 0.040357
#
#
# Mechanical properties :
#
#
# Convention : Reuss Voigt Hill
#
# Bulk Modulus (GPa) = 41.45804 63.38728 52.42266
# Shear Modulus (GPa) = 5.63821 23.82260 14.73041
#
# Velocity S-wave (km/s) = 1.69759 3.48945 2.74391
# Velocity P-wave (km/s) = 5.00325 6.97378 6.06902
#
# Compressibility (1/GPa) = 0.02412078
#
# Stress axis : x y z
#
# Youngs Moduli (GPa) = 83.06645 83.06645 62.48239
#
# Poissons Ratio (x) = 0.67615 -0.00498
# Poissons Ratio (y) = 0.67615 -0.00498
# Poissons Ratio (z) = -0.00662 -0.00662
#
# Static dielectric constant tensor:
#      x y z
#    x 1.672320 0.000000 0.000000 
#    y 0.000000 1.672320 0.000000 
#    z 0.000000 0.000000 1.740540 
# 
# From -- ./inp_files/938.got.cif
#   From: 2010.05.17/outbox.cif.g08.bks.cpg/sg187_1_cif.got.tgz:938.got - 2010.05.20 12:09:04.
