data_PCOD9585164
_publ_section_title
;
Structure prediction by ZEFSAII (Michael W. Deem and Ramdas Pophale) SiO2 
 PCOD9585164
Probable space group: P 6 C C
;
_chemical_formula_sum "Si O2"
_cell_formula_units_Z 84
_cell_length_a 19.104155
_cell_length_b 19.104155
_cell_length_c 13.889810
_cell_angle_alpha 90.000000
_cell_angle_beta 90.000000
_cell_angle_gamma 120.000000
_cell_volume 4390.182789
_symmetry_space_group_name_H-M "P 6 C C"
_symmetry_group_IT_number 184
_symmetry_cell_setting 'hexagonal'
loop_
_space_group_symop_operation_xyz
x,y,z
x-y,x,z
-y,x-y,z
-x,-y,z
-x+y,-x,z
y,-x+y,z
-x+y,y,1/2+z
x,x-y,1/2+z
-y,-x,1/2+z
y,x,1/2+z
x-y,-y,1/2+z
-x,-x+y,1/2+z
loop_
_atom_site_type_symbol
_atom_site_label
_atom_site_fract_x
_atom_site_fract_y
_atom_site_fract_z
Si Si1 0.479578 0.907381 0.314230
Si Si2 0.572197 0.092619 0.036612
Si Si3 0.921844 0.215605 0.112117
Si Si4 0.855611 0.039319 0.425421
Si Si5 0.685244 0.162021 0.640941
Si Si6 0.162021 0.476778 0.209901
Si Si7 0.215605 0.293760 0.738725
O O1 0.491759 0.893750 0.425421
O O2 0.530908 0.888581 0.237962
O O3 0.387027 0.850831 0.279675
O O4 0.500000 0.000000 0.304188
O O5 0.536196 0.149169 0.071168
O O6 0.642327 0.111419 0.112880
O O7 0.500000 0.000000 0.046654
O O8 0.874182 0.263600 0.092102
O O9 0.861754 0.138246 0.175421
O O10 1.000000 0.271103 0.175421
O O11 0.947583 0.186464 0.018189
O O12 0.813536 0.052417 0.332653
O O13 0.949986 0.106538 0.425421
O O14 0.747323 0.252677 0.675421
O O15 0.125818 0.389417 0.258740
#
# Coordination Sequence:
#
# PCOD9585164 Si02
#       7
#    12  12  12  12  12  12  12
#     4  10  21  41  66  91 120 161 215 249 314 387
#     4  10  21  41  66  91 120 161 215 249 314 387
#     4  11  22  40  61  89 125 159 209 264 317 370
#     4  12  25  42  64  92 125 173 217 259 325 385
#     4  10  22  40  61  89 126 161 199 260 314 367
#     4  10  22  40  61  89 126 161 199 260 314 367
#     4  11  22  40  61  89 125 159 209 264 317 370
#
# _framework density 19.133600999999999
#
# number of rings (size 3 to 8) (size 9 to 14) (size 15 to 20)
#    0.000    1.429    2.857    3.571    2.000    1.143 
#   17.143    0.000    0.000    0.000    0.000    0.000 
#    0.000    0.000    0.000    0.000    0.000    0.000 
#
# Total GULP energy -469268.899319 kJ/mol
# GULP energy per Si atom -5586.534516 kJ/mol
# Density = 1.909005 g / cm^3
# Si number density = 19.133601 Si / 1000 Ang^3
#
#
#
# Elastic Constant Matrix: (Units=GPa)
#
#
# Indices 1 2 3 4 5 6 
#
# 1 76.2929 15.6618 18.1688 0.0000 0.0000 0.0000
# 2 15.6618 76.2929 18.1688 0.0000 0.0000 0.0000
# 3 18.1688 18.1688 98.5704 0.0000 0.0000 0.0000
# 4 0.0000 0.0000 0.0000 7.8710 0.0000 0.0000
# 5 0.0000 0.0000 0.0000 0.0000 7.8710 0.0000
# 6 0.0000 0.0000 0.0000 0.0000 0.0000 30.3155
#
#
#
# Elastic Compliance Matrix: (Units=1/GPa)
#
#
# Indices 1 2 3 4 5 6 
#
# 1 0.014111 -0.002382 -0.002162 0.000000 0.000000 0.000000
# 2 -0.002382 0.014111 -0.002162 0.000000 0.000000 0.000000
# 3 -0.002162 -0.002162 0.010942 0.000000 0.000000 0.000000
# 4 0.000000 0.000000 0.000000 0.127049 0.000000 0.000000
# 5 0.000000 0.000000 0.000000 0.000000 0.127049 0.000000
# 6 0.000000 0.000000 0.000000 0.000000 0.000000 0.032986
#
#
# Mechanical properties :
#
#
# Convention : Reuss Voigt Hill
#
# Bulk Modulus (GPa) = 38.83093 39.46168 39.14631
# Shear Modulus (GPa) = 14.35774 22.48862 18.42318
#
# Velocity S-wave (km/s) = 2.74230 3.43205 3.10638
# Velocity P-wave (km/s) = 5.51050 6.03112 5.77668
#
# Compressibility (1/GPa) = 0.02575266
#
# Stress axis : x y z
#
# Youngs Moduli (GPa) = 70.86552 70.86552 91.39066
#
# Poissons Ratio (x) = 0.16880 0.19758
# Poissons Ratio (y) = 0.16880 0.19758
# Poissons Ratio (z) = 0.15321 0.15321
#
# Static dielectric constant tensor:
#      x y z
#    x 1.660230 0.000000 0.000000 
#    y 0.000000 1.660230 0.000000 
#    z 0.000000 0.000000 1.642670 
# 
# From -- ./inp_files/929.got.cif
#   From: 2010.05.17/outbox.cif.g08.bks.cpg/sg184_cif.got.tgz:929.got - 2010.05.20 12:04:40.
