data_PCOD9585976
_publ_section_title
;
Structure prediction by ZEFSAII (Michael W. Deem and Ramdas Pophale) SiO2 
 PCOD9585976
Probable space group: P -6 C 2
;
_chemical_formula_sum "Si O2"
_cell_formula_units_Z 84
_cell_length_a 17.951531
_cell_length_b 17.951531
_cell_length_c 14.196466
_cell_angle_alpha 90.000000
_cell_angle_beta 90.000000
_cell_angle_gamma 120.000000
_cell_volume 3961.994471
_symmetry_space_group_name_H-M "P -6 C 2"
_symmetry_group_IT_number 188
_symmetry_cell_setting 'hexagonal'
loop_
_space_group_symop_operation_xyz
x,y,z
-x+y,-x,1/2-z
-y,x-y,z
x,y,1/2-z
-x+y,-x,z
-y,x-y,1/2-z
-y,-x,-z
-x+y,y,-z
x,x-y,-z
-x+y,y,1/2+z
x,x-y,1/2+z
-y,-x,1/2+z
loop_
_atom_site_type_symbol
_atom_site_label
_atom_site_fract_x
_atom_site_fract_y
_atom_site_fract_z
Si Si1 0.867242 0.423151 0.636531
Si Si2 0.789535 0.710657 0.437848
Si Si3 0.157880 0.971989 0.750000
Si Si4 0.709431 0.924130 0.439057
Si Si5 0.754987 0.528158 0.135936
Si Si6 0.439481 0.506464 0.863476
Si Si7 0.520749 0.838438 0.474758
Si Si8 0.187244 0.160887 0.750000
O O1 0.867767 0.419482 0.750000
O O2 0.804204 0.460125 0.611656
O O3 0.823551 0.323882 0.604613
O O4 0.966820 0.491122 0.611915
O O5 0.876925 0.753849 0.500000
O O6 0.720693 0.713642 0.505767
O O7 0.774723 0.618927 0.405607
O O8 0.792980 0.761425 0.344035
O O9 0.196961 0.954373 0.658153
O O10 0.057107 0.905162 0.750000
O O11 0.178848 0.068518 0.750000
O O12 0.745228 0.872614 0.500000
O O13 0.609398 0.859508 0.426070
O O14 0.759676 0.535532 0.250000
O O15 0.425935 0.498282 0.750000
O O16 0.354644 0.460074 0.928959
O O17 0.475840 0.603275 0.902534
O O18 0.474729 0.737365 0.500000
#
# Coordination Sequence:
#
# PCOD9585976 Si02
#       8
#    12  12   6  12  12  12  12   6
#     4   9  19  36  62  97 138 184 233 278 329 397
#     4  12  24  40  63  96 133 173 230 288 339 401
#     4  12  25  44  68  98 130 182 222 282 346 417
#     4  11  24  43  67  98 134 173 225 281 343 406
#     4  10  20  37  63  97 137 190 234 281 336 396
#     4  10  22  43  70 101 139 177 226 281 352 414
#     4  10  24  45  68  98 133 173 220 279 345 426
#     4  12  25  44  66  92 132 172 228 280 352 413
#
# _framework density 21.201443999999999
#
# number of rings (size 3 to 8) (size 9 to 14) (size 15 to 20)
#    0.000    1.429    3.571    1.286    3.000    1.714 
#    8.571    0.000    0.000    0.000    0.000    0.000 
#    0.000    0.000    0.000    0.000    0.000    0.000 
#
# Total GULP energy -469094.597334 kJ/mol
# GULP energy per Si atom -5584.459492 kJ/mol
# Density = 2.115319 g / cm^3
# Si number density = 21.201444 Si / 1000 Ang^3
#
#
#
# Elastic Constant Matrix: (Units=GPa)
#
#
# Indices 1 2 3 4 5 6 
#
# 1 93.3236 14.9858 25.5775 -0.0001 0.0000 0.0000
# 2 14.9858 93.3236 25.5775 0.0001 0.0000 0.0000
# 3 25.5775 25.5775 128.8985 0.0000 0.0000 0.0000
# 4 -0.0001 0.0001 0.0000 60.6340 0.0000 0.0000
# 5 0.0000 0.0000 0.0000 0.0000 60.6340 -0.0001
# 6 0.0000 0.0000 0.0000 0.0000 -0.0001 39.1689
#
#
#
# Elastic Compliance Matrix: (Units=1/GPa)
#
#
# Indices 1 2 3 4 5 6 
#
# 1 0.011476 -0.001289 -0.002022 0.000000 0.000000 0.000000
# 2 -0.001289 0.011476 -0.002022 0.000000 0.000000 0.000000
# 3 -0.002022 -0.002022 0.008560 0.000000 0.000000 0.000000
# 4 0.000000 0.000000 0.000000 0.016492 0.000000 0.000000
# 5 0.000000 0.000000 0.000000 0.000000 0.016492 0.000000
# 6 0.000000 0.000000 0.000000 0.000000 0.000000 0.025530
#
#
# Mechanical properties :
#
#
# Convention : Reuss Voigt Hill
#
# Bulk Modulus (GPa) = 47.96314 49.75859 48.86087
# Shear Modulus (GPa) = 46.45031 48.71439 47.58235
#
# Velocity S-wave (km/s) = 4.68579 4.79862 4.74254
# Velocity P-wave (km/s) = 7.20744 7.36361 7.28594
#
# Compressibility (1/GPa) = 0.02084934
#
# Stress axis : x y z
#
# Youngs Moduli (GPa) = 87.13531 87.13531 116.81815
#
# Poissons Ratio (x) = 0.11230 0.23615
# Poissons Ratio (y) = 0.11230 0.23615
# Poissons Ratio (z) = 0.17615 0.17615
#
# Static dielectric constant tensor:
#      x y z
#    x 1.781220 0.000000 0.000000 
#    y 0.000000 1.781220 0.000000 
#    z 0.000000 0.000000 1.840400 
# 
# From -- ./inp_files/2629.got.cif
#   From: 2010.05.17/outbox.cif.g08.bks.cpg/sg188_2_cif.got.tgz:2629.got - 2010.05.20 12:11:46.
