data_PCOD9585948
_publ_section_title
;
Structure prediction by ZEFSAII (Michael W. Deem and Ramdas Pophale) SiO2 
 PCOD9585948
Probable space group: P -6 C 2
;
_chemical_formula_sum "Si O2"
_cell_formula_units_Z 76
_cell_length_a 18.905348
_cell_length_b 18.905348
_cell_length_c 14.644920
_cell_angle_alpha 90.000000
_cell_angle_beta 90.000000
_cell_angle_gamma 120.000000
_cell_volume 4533.013239
_symmetry_space_group_name_H-M "P -6 C 2"
_symmetry_group_IT_number 188
_symmetry_cell_setting 'hexagonal'
loop_
_space_group_symop_operation_xyz
x,y,z
-x+y,-x,1/2-z
-y,x-y,z
x,y,1/2-z
-x+y,-x,z
-y,x-y,1/2-z
-y,-x,-z
-x+y,y,-z
x,x-y,-z
-x+y,y,1/2+z
x,x-y,1/2+z
-y,-x,1/2+z
loop_
_atom_site_type_symbol
_atom_site_label
_atom_site_fract_x
_atom_site_fract_y
_atom_site_fract_z
Si Si1 0.376682 0.302392 0.504192
Si Si2 0.817729 0.915794 0.896041
Si Si3 0.703322 0.193394 0.355586
Si Si4 0.261229 0.001501 0.648919
Si Si5 0.257672 0.169450 0.853266
Si Si6 0.000000 0.000000 0.858565
Si Si7 0.855761 0.371592 0.356705
O O1 0.421201 0.276511 0.429167
O O2 0.316066 0.315152 0.435519
O O3 0.318827 0.231656 0.573256
O O4 0.449401 0.367457 0.570456
O O5 0.757274 0.831052 0.848142
O O6 0.910550 0.934324 0.890334
O O7 0.825936 0.000603 0.862790
O O8 0.792358 0.896179 0.000000
O O9 0.711690 0.174734 0.250000
O O10 0.768722 0.288326 0.368117
O O11 0.608582 0.165266 0.370713
O O12 0.297954 0.009097 0.750000
O O13 0.248896 0.080558 0.634101
O O14 0.288820 0.194916 0.750000
O O15 0.000000 0.000000 0.750000
O O16 0.881270 0.374991 0.250000
#
# Coordination Sequence:
#
# PCOD9585948 Si02
#       7
#    12  12  12  12  12   4  12
#     4  12  22  33  47  67  92 120 148 185 236 290
#     4  12  22  34  48  65  85 118 161 207 250 285
#     4  10  20  34  52  72  93 117 148 188 234 283
#     4  11  22  34  47  64  88 119 155 197 245 287
#     4  11  22  34  47  64  88 119 155 197 245 287
#     4  12  22  32  46  66  88 113 157 214 257 283
#     4  10  20  34  52  72  93 117 148 188 234 283
#
# _framework density 16.765889999999999
#
# number of rings (size 3 to 8) (size 9 to 14) (size 15 to 20)
#    0.000    0.947    3.158    6.474    0.000    3.789 
#    0.000    1.579    0.000    0.000    0.000    0.000 
#    0.000    0.000    0.000    0.000    0.000    0.000 
#
# Total GULP energy -423951.102910 kJ/mol
# GULP energy per Si atom -5578.303986 kJ/mol
# Density = 1.672773 g / cm^3
# Si number density = 16.765890 Si / 1000 Ang^3
#
#
#
# Elastic Constant Matrix: (Units=GPa)
#
#
# Indices 1 2 3 4 5 6 
#
# 1 52.3411 19.5362 26.4631 0.0000 0.0000 0.0000
# 2 19.5362 52.3411 26.4631 0.0000 0.0000 0.0000
# 3 26.4631 26.4631 113.5359 0.0000 0.0000 0.0000
# 4 0.0000 0.0000 0.0000 14.9503 0.0000 0.0000
# 5 0.0000 0.0000 0.0000 0.0000 14.9503 0.0000
# 6 0.0000 0.0000 0.0000 0.0000 0.0000 16.4024
#
#
#
# Elastic Compliance Matrix: (Units=1/GPa)
#
#
# Indices 1 2 3 4 5 6 
#
# 1 0.023639 -0.006844 -0.003915 0.000000 0.000000 0.000000
# 2 -0.006844 0.023639 -0.003915 0.000000 0.000000 0.000000
# 3 -0.003915 -0.003915 0.010633 0.000000 0.000000 0.000000
# 4 0.000000 0.000000 0.000000 0.066888 0.000000 0.000000
# 5 0.000000 0.000000 0.000000 0.000000 0.066888 0.000000
# 6 0.000000 0.000000 0.000000 0.000000 0.000000 0.060967
#
#
# Mechanical properties :
#
#
# Convention : Reuss Voigt Hill
#
# Bulk Modulus (GPa) = 35.00872 40.34924 37.67898
# Shear Modulus (GPa) = 17.15136 18.97765 18.06450
#
# Velocity S-wave (km/s) = 3.20189 3.36805 3.28602
# Velocity P-wave (km/s) = 5.88181 6.26447 6.07615
#
# Compressibility (1/GPa) = 0.02856431
#
# Stress axis : x y z
#
# Youngs Moduli (GPa) = 42.30264 42.30264 94.04995
#
# Poissons Ratio (x) = 0.28952 0.36817
# Poissons Ratio (y) = 0.28952 0.36817
# Poissons Ratio (z) = 0.16560 0.16560
#
# Static dielectric constant tensor:
#      x y z
#    x 1.586680 0.000000 0.000000 
#    y 0.000000 1.586680 0.000000 
#    z 0.000000 0.000000 1.703360 
# 
# From -- ./inp_files/2477.got.cif
#   From: 2010.05.17/outbox.cif.g08.bks.cpg/sg188_2_cif.got.tgz:2477.got - 2010.05.20 12:11:46.
