data_PCOD9585804
_publ_section_title
;
Structure prediction by ZEFSAII (Michael W. Deem and Ramdas Pophale) SiO2 
 PCOD9585804
Probable space group: P -6 M 2
;
_chemical_formula_sum "Si O2"
_cell_formula_units_Z 38
_cell_length_a 11.581059
_cell_length_b 11.581059
_cell_length_c 17.455825
_cell_angle_alpha 90.000000
_cell_angle_beta 90.000000
_cell_angle_gamma 120.000000
_cell_volume 2027.531262
_symmetry_space_group_name_H-M "P -6 M 2"
_symmetry_group_IT_number 187
_symmetry_cell_setting 'hexagonal'
loop_
_space_group_symop_operation_xyz
x,y,z
-x+y,-x,-z
-y,x-y,z
x,y,-z
-x+y,-x,z
-y,x-y,-z
-y,-x,-z
-x+y,y,-z
x,x-y,-z
-x+y,y,z
x,x-y,z
-y,-x,z
loop_
_atom_site_type_symbol
_atom_site_label
_atom_site_fract_x
_atom_site_fract_y
_atom_site_fract_z
Si Si1 0.309177 0.154589 0.908391
Si Si2 0.000000 0.000000 0.907410
Si Si3 0.331083 0.931894 0.828404
Si Si4 0.390280 0.056870 0.667053
Si Si5 0.942559 0.609164 0.500000
O O1 0.153321 0.076661 0.883227
O O2 0.367286 0.301232 0.874250
O O3 0.316548 0.158274 0.000000
O O4 0.000000 0.000000 0.000000
O O5 0.449820 0.899639 0.835855
O O6 0.192018 0.807983 0.855474
O O7 0.320816 0.963211 0.739298
O O8 0.542433 0.084866 0.667758
O O9 0.389801 0.194901 0.676501
O O10 0.329887 0.997892 0.583040
O O11 0.795309 0.590618 0.500000
O O12 0.931772 0.465886 0.500000
#
# Coordination Sequence:
#
# PCOD9585804 Si02
#       5
#     6   2  12  12   6
#     4  11  22  40  64  87 111 142 186 239 290 342
#     4   9  18  36  66  90 105 130 182 244 282 330
#     4  11  23  39  59  85 119 156 193 232 281 340
#     4   9  16  28  49  78 111 146 186 234 284 335
#     4   8  13  22  41  72 108 144 182 227 281 334
#
# _framework density 18.742003
#
# number of rings (size 3 to 8) (size 9 to 14) (size 15 to 20)
#    0.000    2.211    3.158    0.789    0.000    3.158 
#    0.947    0.789    0.000    1.895    0.000    2.211 
#    0.000    0.000    0.000    0.000    0.000    0.000 
#
# Total GULP energy -211732.344933 kJ/mol
# GULP energy per Si atom -5571.903814 kJ/mol
# Density = 1.869935 g / cm^3
# Si number density = 18.742003 Si / 1000 Ang^3
#
#
#
# Elastic Constant Matrix: (Units=GPa)
#
#
# Indices 1 2 3 4 5 6 
#
# 1 46.6550 20.0988 16.4966 0.0000 0.0002 0.0000
# 2 20.0988 46.6550 16.4966 0.0000 -0.0002 0.0000
# 3 16.4966 16.4966 88.6148 0.0000 0.0000 0.0000
# 4 0.0000 0.0000 0.0000 18.1763 0.0000 -0.0002
# 5 0.0002 -0.0002 0.0000 0.0000 18.1763 0.0000
# 6 0.0000 0.0000 0.0000 -0.0002 0.0000 13.2781
#
#
#
# Elastic Compliance Matrix: (Units=1/GPa)
#
#
# Indices 1 2 3 4 5 6 
#
# 1 0.027077 -0.010579 -0.003071 0.000000 0.000000 0.000000
# 2 -0.010579 0.027077 -0.003071 0.000000 0.000000 0.000000
# 3 -0.003071 -0.003071 0.012428 0.000000 0.000000 0.000000
# 4 0.000000 0.000000 0.000000 0.055017 0.000000 0.000001
# 5 0.000000 0.000000 0.000000 0.000000 0.055017 0.000000
# 6 0.000000 0.000000 0.000000 0.000001 0.000000 0.075312
#
#
# Mechanical properties :
#
#
# Convention : Reuss Voigt Hill
#
# Bulk Modulus (GPa) = 30.17524 32.01211 31.09367
# Shear Modulus (GPa) = 16.86806 18.51498 17.69152
#
# Velocity S-wave (km/s) = 3.00328 3.14648 3.07571
# Velocity P-wave (km/s) = 5.30674 5.50617 5.40738
#
# Compressibility (1/GPa) = 0.03313976
#
# Stress axis : x y z
#
# Youngs Moduli (GPa) = 36.93133 36.93133 80.46134
#
# Poissons Ratio (x) = 0.39069 0.24713
# Poissons Ratio (y) = 0.39069 0.24713
# Poissons Ratio (z) = 0.11343 0.11343
#
# Static dielectric constant tensor:
#      x y z
#    x 1.612000 0.000000 0.000000 
#    y 0.000000 1.612000 0.000000 
#    z 0.000000 0.000000 1.692920 
# 
# From -- ./inp_files/2875.got.cif
#   From: 2010.05.17/outbox.cif.g08.bks.cpg/sg187_2_cif.got.tgz:2875.got - 2010.05.20 12:09:04.
