data_PCOD9585177
_publ_section_title
;
Structure prediction by ZEFSAII (Michael W. Deem and Ramdas Pophale) SiO2 
 PCOD9585177
Probable space group: P 6 C C
;
_chemical_formula_sum "Si O2"
_cell_formula_units_Z 66
_cell_length_a 19.490632
_cell_length_b 19.490632
_cell_length_c 8.808365
_cell_angle_alpha 90.000000
_cell_angle_beta 90.000000
_cell_angle_gamma 120.000000
_cell_volume 2897.862519
_symmetry_space_group_name_H-M "P 6 C C"
_symmetry_group_IT_number 184
_symmetry_cell_setting 'hexagonal'
loop_
_space_group_symop_operation_xyz
x,y,z
x-y,x,z
-y,x-y,z
-x,-y,z
-x+y,-x,z
y,-x+y,z
-x+y,y,1/2+z
x,x-y,1/2+z
-y,-x,1/2+z
y,x,1/2+z
x-y,-y,1/2+z
-x,-x+y,1/2+z
loop_
_atom_site_type_symbol
_atom_site_label
_atom_site_fract_x
_atom_site_fract_y
_atom_site_fract_z
Si Si1 0.072608 0.633189 0.321400
Si Si2 0.500000 0.500000 0.566916
Si Si3 0.829584 0.711473 0.629561
Si Si4 0.429235 0.748204 0.892886
Si Si5 0.028358 0.762687 0.321682
Si Si6 0.239893 0.775037 0.660255
O O1 0.044776 0.576188 0.175056
O O2 0.021669 0.677146 0.342348
O O3 0.158367 0.709067 0.285579
O O4 0.058501 0.573984 0.459915
O O5 0.813024 0.743769 0.473563
O O6 0.802193 0.744872 0.769898
O O7 0.915366 0.725870 0.678082
O O8 0.778123 0.616042 0.620698
O O9 0.346293 0.745012 0.903364
O O10 0.493347 0.791383 0.020691
O O11 0.471035 0.779059 0.732788
#
# Coordination Sequence:
#
# PCOD9585177 Si02
#       6
#    12   6  12  12  12  12
#     4  10  23  38  59  88 124 166 225 264 349 399
#     4  10  22  40  54  86 124 170 206 284 324 410
#     4  11  24  42  74  97 143 173 235 277 355 427
#     4  10  23  39  56  86 119 156 224 281 338 411
#     4  11  23  45  67 106 134 184 223 292 343 436
#     4  11  22  41  61  89 117 174 213 283 344 403
#
# _framework density 22.775407000000001
#
# number of rings (size 3 to 8) (size 9 to 14) (size 15 to 20)
#    0.364    1.091    0.000    5.455    2.545    4.364 
#    9.818    0.000    0.000    0.364    0.000    2.545 
#    0.000    0.000    0.000    0.000    0.000    0.000 
#
# Total GULP energy -368715.408620 kJ/mol
# GULP energy per Si atom -5586.597100 kJ/mol
# Density = 2.272357 g / cm^3
# Si number density = 22.775407 Si / 1000 Ang^3
#
#
#
# Elastic Constant Matrix: (Units=GPa)
#
#
# Indices 1 2 3 4 5 6 
#
# 1 55.8533 29.7875 20.0850 0.0000 0.0000 0.0000
# 2 29.7875 55.8533 20.0850 0.0000 0.0000 0.0000
# 3 20.0850 20.0850 103.8793 0.0000 0.0000 0.0000
# 4 0.0000 0.0000 0.0000 31.1833 0.0000 0.0000
# 5 0.0000 0.0000 0.0000 0.0000 31.1833 0.0000
# 6 0.0000 0.0000 0.0000 0.0000 0.0000 13.0329
#
#
#
# Elastic Compliance Matrix: (Units=1/GPa)
#
#
# Indices 1 2 3 4 5 6 
#
# 1 0.025603 -0.012762 -0.002483 0.000000 0.000000 0.000000
# 2 -0.012762 0.025603 -0.002483 0.000000 0.000000 0.000000
# 3 -0.002483 -0.002483 0.010587 0.000000 0.000000 0.000000
# 4 0.000000 0.000000 0.000000 0.032068 0.000000 0.000000
# 5 0.000000 0.000000 0.000000 0.000000 0.032068 0.000000
# 6 0.000000 0.000000 0.000000 0.000000 0.000000 0.076729
#
#
# Mechanical properties :
#
#
# Convention : Reuss Voigt Hill
#
# Bulk Modulus (GPa) = 37.96824 39.50009 38.73417
# Shear Modulus (GPa) = 20.25173 24.78844 22.52008
#
# Velocity S-wave (km/s) = 2.98517 3.30265 3.14791
# Velocity P-wave (km/s) = 5.34683 5.65016 5.50058
#
# Compressibility (1/GPa) = 0.02633780
#
# Stress axis : x y z
#
# Youngs Moduli (GPa) = 39.05807 39.05807 94.45843
#
# Poissons Ratio (x) = 0.49845 0.23453
# Poissons Ratio (y) = 0.49845 0.23453
# Poissons Ratio (z) = 0.09698 0.09698
#
# Static dielectric constant tensor:
#      x y z
#    x 1.848890 0.000000 0.000000 
#    y 0.000000 1.848890 0.000000 
#    z 0.000000 0.000000 1.879750 
# 
# From -- ./inp_files/304.got.cif
#   From: 2010.05.17/outbox.cif.g08.bks.cpg/sg184_cif.got.tgz:304.got - 2010.05.20 12:04:40.
