data_PCOD9585906
_publ_section_title
;
Structure prediction by ZEFSAII (Michael W. Deem and Ramdas Pophale) SiO2 
 PCOD9585906
Probable space group: P -6 C 2
;
_chemical_formula_sum "Si O2"
_cell_formula_units_Z 60
_cell_length_a 15.030545
_cell_length_b 15.030545
_cell_length_c 14.471341
_cell_angle_alpha 90.000000
_cell_angle_beta 90.000000
_cell_angle_gamma 120.000000
_cell_volume 2831.319404
_symmetry_space_group_name_H-M "P -6 C 2"
_symmetry_group_IT_number 188
_symmetry_cell_setting 'hexagonal'
loop_
_space_group_symop_operation_xyz
x,y,z
-x+y,-x,1/2-z
-y,x-y,z
x,y,1/2-z
-x+y,-x,z
-y,x-y,1/2-z
-y,-x,-z
-x+y,y,-z
x,x-y,-z
-x+y,y,1/2+z
x,x-y,1/2+z
-y,-x,1/2+z
loop_
_atom_site_type_symbol
_atom_site_label
_atom_site_fract_x
_atom_site_fract_y
_atom_site_fract_z
Si Si1 0.890596 0.441391 0.647837
Si Si2 0.562874 0.737530 0.146048
Si Si3 0.402979 0.521781 0.102607
Si Si4 0.875560 0.241582 0.642579
Si Si5 0.351064 0.303373 0.942971
O O1 0.868009 0.467995 0.750000
O O2 0.827808 0.318695 0.635274
O O3 0.900584 0.525409 0.574361
O O4 0.007799 0.462578 0.648917
O O5 0.600641 0.769652 0.250000
O O6 0.452474 0.632925 0.149202
O O7 0.541001 0.822136 0.102696
O O8 0.638545 0.706318 0.095385
O O9 0.447510 0.552491 0.000000
O O10 0.910103 0.249610 0.750000
O O11 0.794590 0.123853 0.618145
O O12 0.947865 0.275941 0.550992
#
# Coordination Sequence:
#
# PCOD9585906 Si02
#       5
#    12  12  12  12  12
#     4  10  19  34  55  79 111 149 190 238 293 350
#     4  11  21  35  54  77 111 152 200 247 295 357
#     4  11  21  33  50  75 110 151 193 240 292 348
#     4  10  20  34  54  77 105 143 189 236 291 350
#     4  10  20  36  55  78 109 148 191 241 298 352
#
# _framework density 21.191534999999998
#
# number of rings (size 3 to 8) (size 9 to 14) (size 15 to 20)
#    0.000    1.600    0.000    8.800    0.000    0.000 
#    1.200    0.000    0.000    2.400    0.000    0.000 
#    2.000    0.000   18.400    0.000   14.800    0.000 
#
# Total GULP energy -334504.985488 kJ/mol
# GULP energy per Si atom -5575.083091 kJ/mol
# Density = 2.114330 g / cm^3
# Si number density = 21.191535 Si / 1000 Ang^3
#
#
#
# Elastic Constant Matrix: (Units=GPa)
#
#
# Indices 1 2 3 4 5 6 
#
# 1 85.3677 31.8264 43.1990 0.0002 0.0000 0.0000
# 2 31.8264 85.3677 43.1990 -0.0002 0.0000 0.0000
# 3 43.1990 43.1990 193.9909 0.0000 0.0000 0.0000
# 4 0.0002 -0.0002 0.0000 21.3400 0.0000 0.0000
# 5 0.0000 0.0000 0.0000 0.0000 21.3400 0.0002
# 6 0.0000 0.0000 0.0000 0.0000 0.0002 26.7707
#
#
#
# Elastic Compliance Matrix: (Units=1/GPa)
#
#
# Indices 1 2 3 4 5 6 
#
# 1 0.014443 -0.004234 -0.002273 0.000000 0.000000 0.000000
# 2 -0.004234 0.014443 -0.002273 0.000000 0.000000 0.000000
# 3 -0.002273 -0.002273 0.006167 0.000000 0.000000 0.000000
# 4 0.000000 0.000000 0.000000 0.046860 0.000000 0.000000
# 5 0.000000 0.000000 0.000000 0.000000 0.046860 0.000000
# 6 0.000000 0.000000 0.000000 0.000000 0.000000 0.037354
#
#
# Mechanical properties :
#
#
# Convention : Reuss Voigt Hill
#
# Bulk Modulus (GPa) = 57.17036 66.79721 61.98379
# Shear Modulus (GPa) = 26.38235 30.32361 28.35298
#
# Velocity S-wave (km/s) = 3.53221 3.78687 3.66175
# Velocity P-wave (km/s) = 6.60847 7.12107 6.86955
#
# Compressibility (1/GPa) = 0.01749158
#
# Stress axis : x y z
#
# Youngs Moduli (GPa) = 69.23777 69.23777 162.14373
#
# Poissons Ratio (x) = 0.29316 0.36861
# Poissons Ratio (y) = 0.29316 0.36861
# Poissons Ratio (z) = 0.15740 0.15740
#
# Static dielectric constant tensor:
#      x y z
#    x 1.795130 0.000000 0.000000 
#    y 0.000000 1.795130 0.000000 
#    z 0.000000 0.000000 1.866380 
# 
# From -- ./inp_files/2286.got.cif
#   From: 2010.05.17/outbox.cif.g08.bks.cpg/sg188_2_cif.got.tgz:2286.got - 2010.05.20 12:11:46.
