data_PCOD9585980
_publ_section_title
;
Structure prediction by ZEFSAII (Michael W. Deem and Ramdas Pophale) SiO2 
 PCOD9585980
Probable space group: P -6 C 2
;
_chemical_formula_sum "Si O2"
_cell_formula_units_Z 74
_cell_length_a 14.135442
_cell_length_b 14.135442
_cell_length_c 23.896715
_cell_angle_alpha 90.000000
_cell_angle_beta 90.000000
_cell_angle_gamma 120.000000
_cell_volume 4135.115282
_symmetry_space_group_name_H-M "P -6 C 2"
_symmetry_group_IT_number 188
_symmetry_cell_setting 'hexagonal'
loop_
_space_group_symop_operation_xyz
x,y,z
-x+y,-x,1/2-z
-y,x-y,z
x,y,1/2-z
-x+y,-x,z
-y,x-y,1/2-z
-y,-x,-z
-x+y,y,-z
x,x-y,-z
-x+y,y,1/2+z
x,x-y,1/2+z
-y,-x,1/2+z
loop_
_atom_site_type_symbol
_atom_site_label
_atom_site_fract_x
_atom_site_fract_y
_atom_site_fract_z
Si Si1 0.261588 0.108394 0.563792
Si Si2 0.871640 0.350484 0.613867
Si Si3 0.000000 0.000000 0.315401
Si Si4 0.116017 0.909187 0.388879
Si Si5 0.666667 0.333333 0.181385
Si Si6 0.594870 0.405131 0.500000
Si Si7 0.174899 0.758016 0.685423
Si Si8 0.079943 0.504766 0.685823
O O1 0.288781 0.144391 0.500000
O O2 0.372057 0.135997 0.596668
O O3 0.196426 0.167780 0.586077
O O4 0.175959 0.977883 0.569477
O O5 0.771889 0.333084 0.654016
O O6 0.871444 0.416883 0.557979
O O7 0.984665 0.422630 0.645759
O O8 0.000000 0.000000 0.250000
O O9 0.072638 0.120193 0.340347
O O10 0.184481 0.862085 0.359689
O O11 0.666667 0.333334 0.250000
O O12 0.549843 0.274922 0.500000
O O13 0.150626 0.775402 0.750000
O O14 0.115196 0.629488 0.675263
O O15 0.305291 0.814520 0.681224
O O16 0.040551 0.478111 0.750000
#
# Coordination Sequence:
#
# PCOD9585980 Si02
#       8
#    12  12   4  12   4   6  12  12
#     4  11  24  39  66  90 122 162 208 258 316 373
#     4  12  23  42  64  93 122 166 211 256 313 373
#     4   9  18  33  55  83 121 162 192 240 310 368
#     4  10  21  39  57  90 124 155 200 258 305 373
#     4  12  27  43  59  88 132 165 202 263 322 372
#     4  10  20  40  62  82 120 162 210 258 292 368
#     4  10  20  38  60  87 120 159 202 247 304 368
#     4  10  22  39  63  91 123 162 209 257 308 374
#
# _framework density 17.895510000000002
#
# number of rings (size 3 to 8) (size 9 to 14) (size 15 to 20)
#    0.162    1.297    3.243    2.595    2.270    1.297 
#    0.000    1.622    0.000    0.000    0.000    0.000 
#    0.000    0.000    0.000    0.000    0.000    0.000 
#
# Total GULP energy -412756.629840 kJ/mol
# GULP energy per Si atom -5577.792295 kJ/mol
# Density = 1.785478 g / cm^3
# Si number density = 17.895510 Si / 1000 Ang^3
#
#
#
# Elastic Constant Matrix: (Units=GPa)
#
#
# Indices 1 2 3 4 5 6 
#
# 1 84.4874 41.3610 50.0936 0.0000 0.0000 0.0001
# 2 41.3610 84.4877 50.0937 0.0001 0.0000 0.0001
# 3 50.0936 50.0937 109.7321 0.0000 0.0000 0.0000
# 4 0.0000 0.0001 0.0000 23.5659 0.0000 0.0000
# 5 0.0000 0.0000 0.0000 0.0000 23.5658 0.0000
# 6 0.0001 0.0001 0.0000 0.0000 0.0000 21.5633
#
#
#
# Elastic Compliance Matrix: (Units=1/GPa)
#
#
# Indices 1 2 3 4 5 6 
#
# 1 0.017835 -0.005353 -0.005698 0.000000 0.000000 0.000000
# 2 -0.005353 0.017835 -0.005698 0.000000 0.000000 0.000000
# 3 -0.005698 -0.005698 0.014316 0.000000 0.000000 0.000000
# 4 0.000000 0.000000 0.000000 0.042434 0.000000 0.000000
# 5 0.000000 0.000000 0.000000 0.000000 0.042434 0.000000
# 6 0.000000 0.000000 0.000000 0.000000 0.000000 0.046375
#
#
# Mechanical properties :
#
#
# Convention : Reuss Voigt Hill
#
# Bulk Modulus (GPa) = 60.65260 62.42264 61.53762
# Shear Modulus (GPa) = 22.70418 22.88293 22.79356
#
# Velocity S-wave (km/s) = 3.56576 3.57977 3.57277
# Velocity P-wave (km/s) = 7.13576 7.21414 7.17505
#
# Compressibility (1/GPa) = 0.01648734
#
# Stress axis : x y z
#
# Youngs Moduli (GPa) = 56.06931 56.06952 69.85288
#
# Poissons Ratio (x) = 0.30011 0.39805
# Poissons Ratio (y) = 0.30011 0.39805
# Poissons Ratio (z) = 0.31950 0.31950
#
# Static dielectric constant tensor:
#      x y z
#    x 1.609260 0.000000 0.000000 
#    y 0.000000 1.609250 0.000000 
#    z 0.000000 0.000000 1.624010 
# 
# From -- ./inp_files/3821.got.cif
#   From: 2010.05.17/outbox.cif.g08.bks.cpg/sg188_2_cif.got.tgz:3821.got - 2010.05.20 12:11:46.
