data_PCOD9585145
_publ_section_title
;
Structure prediction by ZEFSAII (Michael W. Deem and Ramdas Pophale) SiO2 
 PCOD9585145
Probable space group: P 6 C C
;
_chemical_formula_sum "Si O2"
_cell_formula_units_Z 84
_cell_length_a 19.420607
_cell_length_b 19.420607
_cell_length_c 13.789912
_cell_angle_alpha 90.000000
_cell_angle_beta 90.000000
_cell_angle_gamma 120.000000
_cell_volume 4504.200621
_symmetry_space_group_name_H-M "P 6 C C"
_symmetry_group_IT_number 184
_symmetry_cell_setting 'hexagonal'
loop_
_space_group_symop_operation_xyz
x,y,z
x-y,x,z
-y,x-y,z
-x,-y,z
-x+y,-x,z
y,-x+y,z
-x+y,y,1/2+z
x,x-y,1/2+z
-y,-x,1/2+z
y,x,1/2+z
x-y,-y,1/2+z
-x,-x+y,1/2+z
loop_
_atom_site_type_symbol
_atom_site_label
_atom_site_fract_x
_atom_site_fract_y
_atom_site_fract_z
Si Si1 0.558937 0.686701 0.871770
Si Si2 0.743570 0.130423 0.603265
Si Si3 0.910635 0.432748 0.103776
Si Si4 0.309132 0.309132 0.737350
Si Si5 0.613147 0.869577 0.871434
Si Si6 0.313299 0.441063 0.602929
Si Si7 0.089365 0.567252 0.870923
O O1 0.623987 0.673876 0.817105
O O2 0.580743 0.776735 0.853909
O O3 0.471692 0.614851 0.843579
O O4 0.566605 0.679004 0.987350
O O5 0.656085 0.114671 0.633698
O O6 0.744451 0.115472 0.487350
O O7 0.804008 0.223265 0.620790
O O8 0.758006 0.070132 0.669955
O O9 0.856841 0.471692 0.131120
O O10 0.000000 0.500000 0.131449
O O11 0.909854 0.428203 0.987350
O O12 0.241994 0.312126 0.804745
O O13 0.326124 0.376014 0.657594
O O14 0.541414 0.885329 0.841001
O O15 0.000000 0.500000 0.843251
#
# Coordination Sequence:
#
# PCOD9585145 Si02
#       7
#    12  12  12  12  12  12  12
#     4  10  21  35  51  76 106 135 180 237 280 320
#     4  10  21  35  51  76 106 135 180 237 280 320
#     4   9  16  32  54  74  98 140 188 222 268 334
#     4  12  20  33  54  74  94 138 179 216 270 336
#     4  10  21  35  51  76 106 135 180 237 280 320
#     4  10  21  35  51  76 106 135 180 237 280 320
#     4   9  16  32  54  74  98 140 188 222 268 334
#
# _framework density 18.649259000000001
#
# number of rings (size 3 to 8) (size 9 to 14) (size 15 to 20)
#    0.000    2.000    2.857    1.714    0.000    2.286 
#    1.714    0.000    0.000    0.000    0.000    0.000 
#    0.000    0.000    0.000   27.429    0.000  205.714 
#
# Total GULP energy -467917.532107 kJ/mol
# GULP energy per Si atom -5570.446811 kJ/mol
# Density = 1.860681 g / cm^3
# Si number density = 18.649259 Si / 1000 Ang^3
#
#
#
# Elastic Constant Matrix: (Units=GPa)
#
#
# Indices 1 2 3 4 5 6 
#
# 1 90.9082 41.0634 20.2730 0.0000 0.0000 0.0000
# 2 41.0634 90.9082 20.2730 0.0000 0.0000 0.0000
# 3 20.2730 20.2730 92.0602 0.0000 0.0000 0.0000
# 4 0.0000 0.0000 0.0000 23.6074 0.0000 0.0000
# 5 0.0000 0.0000 0.0000 0.0000 23.6074 0.0000
# 6 0.0000 0.0000 0.0000 0.0000 0.0000 24.9224
#
#
#
# Elastic Compliance Matrix: (Units=1/GPa)
#
#
# Indices 1 2 3 4 5 6 
#
# 1 0.014095 -0.005968 -0.001790 0.000000 0.000000 0.000000
# 2 -0.005968 0.014095 -0.001790 0.000000 0.000000 0.000000
# 3 -0.001790 -0.001790 0.011651 0.000000 0.000000 0.000000
# 4 0.000000 0.000000 0.000000 0.042360 0.000000 0.000000
# 5 0.000000 0.000000 0.000000 0.000000 0.042360 0.000000
# 6 0.000000 0.000000 0.000000 0.000000 0.000000 0.040125
#
#
# Mechanical properties :
#
#
# Convention : Reuss Voigt Hill
#
# Bulk Modulus (GPa) = 48.20149 48.56618 48.38384
# Shear Modulus (GPa) = 26.22011 27.24526 26.73268
#
# Velocity S-wave (km/s) = 3.75368 3.82636 3.79019
# Velocity P-wave (km/s) = 6.68500 6.75424 6.71971
#
# Compressibility (1/GPa) = 0.02074625
#
# Stress axis : x y z
#
# Youngs Moduli (GPa) = 70.94830 70.94830 85.83168
#
# Poissons Ratio (x) = 0.42338 0.15362
# Poissons Ratio (y) = 0.42338 0.15362
# Poissons Ratio (z) = 0.12698 0.12698
#
# Static dielectric constant tensor:
#      x y z
#    x 1.661220 0.000000 0.000000 
#    y 0.000000 1.661220 0.000000 
#    z 0.000000 0.000000 1.754420 
# 
# From -- ./inp_files/952.got.cif
#   From: 2010.05.17/outbox.cif.g08.bks.cpg/sg184_cif.got.tgz:952.got - 2010.05.20 12:04:40.
