data_PCOD9585185
_publ_section_title
;
Structure prediction by ZEFSAII (Michael W. Deem and Ramdas Pophale) SiO2 
 PCOD9585185
Probable space group: P 6 C C
;
_chemical_formula_sum "Si O2"
_cell_formula_units_Z 66
_cell_length_a 19.006871
_cell_length_b 19.006871
_cell_length_c 8.277481
_cell_angle_alpha 90.000000
_cell_angle_beta 90.000000
_cell_angle_gamma 120.000000
_cell_volume 2589.703708
_symmetry_space_group_name_H-M "P 6 C C"
_symmetry_group_IT_number 184
_symmetry_cell_setting 'hexagonal'
loop_
_space_group_symop_operation_xyz
x,y,z
x-y,x,z
-y,x-y,z
-x,-y,z
-x+y,-x,z
y,-x+y,z
-x+y,y,1/2+z
x,x-y,1/2+z
-y,-x,1/2+z
y,x,1/2+z
x-y,-y,1/2+z
-x,-x+y,1/2+z
loop_
_atom_site_type_symbol
_atom_site_label
_atom_site_fract_x
_atom_site_fract_y
_atom_site_fract_z
Si Si1 0.187812 0.051718 0.445710
Si Si2 0.000000 0.500000 0.868966
Si Si3 0.320271 0.387821 0.884256
Si Si4 0.210343 0.507268 0.155602
Si Si5 0.366121 0.540330 0.292182
Si Si6 0.756196 0.723235 0.162057
O O1 0.153833 0.112930 0.456327
O O2 0.234867 0.068315 0.277330
O O3 0.246745 0.045441 0.577385
O O4 0.034321 0.588475 0.950933
O O5 0.080436 0.515131 0.775222
O O6 0.295069 0.434971 0.758137
O O7 0.324777 0.319324 0.779088
O O8 0.252927 0.337205 0.019028
O O9 0.292026 0.502768 0.167165
O O10 0.222578 0.586143 0.254922
O O11 0.187038 0.516904 0.973352
#
# Coordination Sequence:
#
# PCOD9585185 Si02
#       6
#    12   6  12  12  12  12
#     4  11  23  45  72 103 140 192 247 308 361 440
#     4  10  24  46  76 102 144 200 264 306 376 456
#     4  10  23  45  67 101 142 197 243 309 369 459
#     4  11  24  44  70 106 144 188 251 310 378 438
#     4  11  24  44  71 108 147 191 249 322 377 450
#     4  10  23  43  63 102 146 184 232 303 383 430
#
# _framework density 25.485541000000001
#
# number of rings (size 3 to 8) (size 9 to 14) (size 15 to 20)
#    0.000    1.455    0.000    3.818    0.000   10.909 
#   32.727    1.818    0.000    1.091    0.000    0.000 
#    0.000    0.000    0.000    0.000    0.000    0.000 
#
# Total GULP energy -369219.759640 kJ/mol
# GULP energy per Si atom -5594.238782 kJ/mol
# Density = 2.542753 g / cm^3
# Si number density = 25.485541 Si / 1000 Ang^3
#
#
#
# Elastic Constant Matrix: (Units=GPa)
#
#
# Indices 1 2 3 4 5 6 
#
# 1 120.8014 48.0099 34.0554 0.0000 0.0000 0.0000
# 2 48.0099 120.8014 34.0554 0.0000 0.0000 0.0000
# 3 34.0554 34.0554 132.9938 0.0000 0.0000 0.0000
# 4 0.0000 0.0000 0.0000 26.9699 0.0000 0.0000
# 5 0.0000 0.0000 0.0000 0.0000 26.9699 0.0000
# 6 0.0000 0.0000 0.0000 0.0000 0.0000 36.3958
#
#
#
# Elastic Compliance Matrix: (Units=1/GPa)
#
#
# Indices 1 2 3 4 5 6 
#
# 1 0.010172 -0.003566 -0.001692 0.000000 0.000000 0.000000
# 2 -0.003566 0.010172 -0.001692 0.000000 0.000000 0.000000
# 3 -0.001692 -0.001692 0.008386 0.000000 0.000000 0.000000
# 4 0.000000 0.000000 0.000000 0.037078 0.000000 0.000000
# 5 0.000000 0.000000 0.000000 0.000000 0.037078 0.000000
# 6 0.000000 0.000000 0.000000 0.000000 0.000000 0.027476
#
#
# Mechanical properties :
#
#
# Convention : Reuss Voigt Hill
#
# Bulk Modulus (GPa) = 67.42412 67.42644 67.42528
# Shear Modulus (GPa) = 33.51116 35.29887 34.40501
#
# Velocity S-wave (km/s) = 3.63010 3.72567 3.67820
# Velocity P-wave (km/s) = 6.63954 6.70982 6.67477
#
# Compressibility (1/GPa) = 0.01483149
#
# Stress axis : x y z
#
# Youngs Moduli (GPa) = 98.30827 98.30827 119.25342
#
# Poissons Ratio (x) = 0.35054 0.20174
# Poissons Ratio (y) = 0.35054 0.20174
# Poissons Ratio (z) = 0.16630 0.16630
#
# Static dielectric constant tensor:
#      x y z
#    x 2.027650 0.000000 0.000000 
#    y 0.000000 2.027650 0.000000 
#    z 0.000000 0.000000 1.989560 
# 
# From -- ./inp_files/317.got.cif
#   From: 2010.05.17/outbox.cif.g08.bks.cpg/sg184_cif.got.tgz:317.got - 2010.05.20 12:04:40.
