data_PCOD9585111
_publ_section_title
;
Structure prediction by ZEFSAII (Michael W. Deem and Ramdas Pophale) SiO2 
 PCOD9585111
Probable space group: P 6 C C
;
_chemical_formula_sum "Si O2"
_cell_formula_units_Z 54
_cell_length_a 10.409989
_cell_length_b 10.409989
_cell_length_c 25.976776
_cell_angle_alpha 90.000000
_cell_angle_beta 90.000000
_cell_angle_gamma 120.000000
_cell_volume 2437.903003
_symmetry_space_group_name_H-M "P 6 C C"
_symmetry_group_IT_number 184
_symmetry_cell_setting 'hexagonal'
loop_
_space_group_symop_operation_xyz
x,y,z
x-y,x,z
-y,x-y,z
-x,-y,z
-x+y,-x,z
y,-x+y,z
-x+y,y,1/2+z
x,x-y,1/2+z
-y,-x,1/2+z
y,x,1/2+z
x-y,-y,1/2+z
-x,-x+y,1/2+z
loop_
_atom_site_type_symbol
_atom_site_label
_atom_site_fract_x
_atom_site_fract_y
_atom_site_fract_z
Si Si1 0.165218 0.502993 0.855950
Si Si2 0.088445 0.742420 0.026942
Si Si3 0.924401 0.261706 0.250789
Si Si4 0.340866 0.085098 0.140341
Si Si5 0.500000 0.500000 0.448355
O O1 0.328576 0.525323 0.856491
O O2 0.097557 0.430282 0.801886
O O3 0.083787 0.443947 0.909750
O O4 0.105618 0.691420 0.084598
O O5 0.918093 0.710638 0.022199
O O6 0.103343 0.637307 0.985161
O O7 0.898637 0.318027 0.195395
O O8 0.088009 0.284487 0.252259
O O9 0.282091 0.201395 0.140680
#
# Coordination Sequence:
#
# PCOD9585111 Si02
#       5
#    12  12  12  12   6
#     4  10  23  39  58  80 111 159 205 243 300 360
#     4  10  21  39  64  94 123 158 202 255 311 368
#     4  10  19  35  60  91 121 153 192 245 302 365
#     4   8  15  30  55  87 121 152 186 235 300 365
#     4  12  22  40  60  86 120 160 210 254 302 366
#
# _framework density 22.150185
#
# number of rings (size 3 to 8) (size 9 to 14) (size 15 to 20)
#    0.444    1.778    0.000    3.333    0.000    3.556 
#    1.333    7.778    0.000    2.667    0.000    0.000 
#    0.000    0.000    0.000    0.000    0.000    0.000 
#
# Total GULP energy -300940.737093 kJ/mol
# GULP energy per Si atom -5572.976613 kJ/mol
# Density = 2.209977 g / cm^3
# Si number density = 22.150185 Si / 1000 Ang^3
#
#
#
# Elastic Constant Matrix: (Units=GPa)
#
#
# Indices 1 2 3 4 5 6 
#
# 1 42.0123 -2.8891 41.3275 0.0000 0.0000 0.0000
# 2 -2.8891 42.0123 41.3275 0.0000 0.0000 0.0000
# 3 41.3275 41.3275 241.3136 0.0000 0.0000 0.0000
# 4 0.0000 0.0000 0.0000 32.8008 0.0000 0.0000
# 5 0.0000 0.0000 0.0000 0.0000 32.8008 0.0000
# 6 0.0000 0.0000 0.0000 0.0000 0.0000 22.4507
#
#
#
# Elastic Compliance Matrix: (Units=1/GPa)
#
#
# Indices 1 2 3 4 5 6 
#
# 1 0.031161 0.008890 -0.006859 0.000000 0.000000 0.000000
# 2 0.008890 0.031161 -0.006859 0.000000 0.000000 0.000000
# 3 -0.006859 -0.006859 0.006493 0.000000 0.000000 0.000000
# 4 0.000000 0.000000 0.000000 0.030487 0.000000 0.000000
# 5 0.000000 0.000000 0.000000 0.000000 0.030487 0.000000
# 6 0.000000 0.000000 0.000000 0.000000 0.000000 0.044542
#
#
# Mechanical properties :
#
#
# Convention : Reuss Voigt Hill
#
# Bulk Modulus (GPa) = 16.90338 53.87443 35.38891
# Shear Modulus (GPa) = 24.54486 33.98196 29.26341
#
# Velocity S-wave (km/s) = 3.33244 3.92109 3.63869
# Velocity P-wave (km/s) = 4.73864 6.69888 5.80214
#
# Compressibility (1/GPa) = 0.05915977
#
# Stress axis : x y z
#
# Youngs Moduli (GPa) = 32.09101 32.09101 154.00189
#
# Poissons Ratio (x) = -0.28530 1.05634
# Poissons Ratio (y) = -0.28530 1.05634
# Poissons Ratio (z) = 0.22012 0.22012
#
# Static dielectric constant tensor:
#      x y z
#    x 1.844370 0.000000 0.000000 
#    y 0.000000 1.844370 0.000000 
#    z 0.000000 0.000000 1.879640 
# 
# From -- ./inp_files/1217.got.cif
#   From: 2010.05.17/outbox.cif.g08.bks.cpg/sg184_cif.got.tgz:1217.got - 2010.05.20 12:04:40.
