data_PCOD9585150
_publ_section_title
;
Structure prediction by ZEFSAII (Michael W. Deem and Ramdas Pophale) SiO2 
 PCOD9585150
Probable space group: P 6 C C
;
_chemical_formula_sum "Si O2"
_cell_formula_units_Z 84
_cell_length_a 17.224138
_cell_length_b 17.224138
_cell_length_c 15.100073
_cell_angle_alpha 90.000000
_cell_angle_beta 90.000000
_cell_angle_gamma 120.000000
_cell_volume 3879.579639
_symmetry_space_group_name_H-M "P 6 C C"
_symmetry_group_IT_number 184
_symmetry_cell_setting 'hexagonal'
loop_
_space_group_symop_operation_xyz
x,y,z
x-y,x,z
-y,x-y,z
-x,-y,z
-x+y,-x,z
y,-x+y,z
-x+y,y,1/2+z
x,x-y,1/2+z
-y,-x,1/2+z
y,x,1/2+z
x-y,-y,1/2+z
-x,-x+y,1/2+z
loop_
_atom_site_type_symbol
_atom_site_label
_atom_site_fract_x
_atom_site_fract_y
_atom_site_fract_z
Si Si1 0.950784 0.541501 0.522560
Si Si2 0.640055 0.738215 0.972750
Si Si3 0.983635 0.812527 0.665553
Si Si4 0.460376 0.217251 0.305986
Si Si5 0.540028 0.431386 0.329890
Si Si6 0.860017 0.626757 0.620472
Si Si7 0.183282 0.011008 0.377224
O O1 0.903791 0.484038 0.434758
O O2 0.879479 0.553701 0.577845
O O3 0.000000 0.500000 0.579011
O O4 0.036762 0.633952 0.491517
O O5 0.595409 0.769403 0.895962
O O6 0.733556 0.757756 0.931481
O O7 0.640698 0.792828 0.058457
O O8 0.900119 0.825476 0.641389
O O9 0.956145 0.717430 0.624602
O O10 0.988079 0.804056 0.771712
O O11 0.498051 0.325275 0.301197
O O12 0.524763 0.171615 0.308089
O O13 0.398395 0.176922 0.219465
O O14 0.500000 0.500000 0.302232
O O15 0.173174 0.095041 0.400947
#
# Coordination Sequence:
#
# PCOD9585150 Si02
#       7
#    12  12  12  12  12  12  12
#     4  11  24  45  70 104 140 189 238 306 385 450
#     4  12  23  43  69  99 143 186 237 303 368 444
#     4  10  21  38  61  95 137 187 239 293 349 414
#     4  12  26  48  76 107 146 194 248 312 383 469
#     4  11  25  49  80 107 148 199 253 318 394 467
#     4  12  26  42  69 106 145 187 246 302 362 456
#     4  10  21  37  63  94 137 187 239 291 349 412
#
# _framework density 21.651831999999999
#
# number of rings (size 3 to 8) (size 9 to 14) (size 15 to 20)
#    0.000    0.857    5.714    2.286    0.000    5.143 
#    0.000    0.000    0.000    1.714    0.000    0.000 
#    0.000    0.000    0.000    0.000    0.000    0.000 
#
# Total GULP energy -468576.449747 kJ/mol
# GULP energy per Si atom -5578.291068 kJ/mol
# Density = 2.160255 g / cm^3
# Si number density = 21.651832 Si / 1000 Ang^3
#
#
#
# Elastic Constant Matrix: (Units=GPa)
#
#
# Indices 1 2 3 4 5 6 
#
# 1 90.3162 8.7500 28.7560 0.0000 0.0000 0.0000
# 2 8.7500 90.3162 28.7560 0.0000 0.0000 0.0000
# 3 28.7560 28.7560 72.5720 0.0000 0.0000 0.0000
# 4 0.0000 0.0000 0.0000 29.3510 0.0000 0.0000
# 5 0.0000 0.0000 0.0000 0.0000 29.3510 0.0000
# 6 0.0000 0.0000 0.0000 0.0000 0.0000 40.7831
#
#
#
# Elastic Compliance Matrix: (Units=1/GPa)
#
#
# Indices 1 2 3 4 5 6 
#
# 1 0.012685 0.000425 -0.005195 0.000000 0.000000 0.000000
# 2 0.000425 0.012685 -0.005195 0.000000 0.000000 0.000000
# 3 -0.005195 -0.005195 0.017896 0.000000 0.000000 0.000000
# 4 0.000000 0.000000 0.000000 0.034070 0.000000 0.000000
# 5 0.000000 0.000000 0.000000 0.000000 0.034070 0.000000
# 6 0.000000 0.000000 0.000000 0.000000 0.000000 0.024520
#
#
# Mechanical properties :
#
#
# Convention : Reuss Voigt Hill
#
# Bulk Modulus (GPa) = 42.84991 42.85871 42.85431
# Shear Modulus (GPa) = 30.55585 32.35986 31.45785
#
# Velocity S-wave (km/s) = 3.76072 3.87014 3.81582
# Velocity P-wave (km/s) = 6.22019 6.30937 6.26494
#
# Compressibility (1/GPa) = 0.02333727
#
# Stress axis : x y z
#
# Youngs Moduli (GPa) = 78.83327 78.83327 55.87791
#
# Poissons Ratio (x) = -0.03351 0.29027
# Poissons Ratio (y) = -0.03351 0.29027
# Poissons Ratio (z) = 0.40952 0.40952
#
# Static dielectric constant tensor:
#      x y z
#    x 1.793530 0.000000 0.000000 
#    y 0.000000 1.793530 0.000000 
#    z 0.000000 0.000000 1.787640 
# 
# From -- ./inp_files/945.got.cif
#   From: 2010.05.17/outbox.cif.g08.bks.cpg/sg184_cif.got.tgz:945.got - 2010.05.20 12:04:40.
