data_PCOD9585432
_publ_section_title
;
Structure prediction by ZEFSAII (Michael W. Deem and Ramdas Pophale) SiO2 
 PCOD9585432
Probable space group: P -6 M 2
;
_chemical_formula_sum "Si O2"
_cell_formula_units_Z 66
_cell_length_a 17.115050
_cell_length_b 17.115050
_cell_length_c 16.105538
_cell_angle_alpha 90.000000
_cell_angle_beta 90.000000
_cell_angle_gamma 120.000000
_cell_volume 4085.659909
_symmetry_space_group_name_H-M "P -6 M 2"
_symmetry_group_IT_number 187
_symmetry_cell_setting 'hexagonal'
loop_
_space_group_symop_operation_xyz
x,y,z
-x+y,-x,-z
-y,x-y,z
x,y,-z
-x+y,-x,z
-y,x-y,-z
-y,-x,-z
-x+y,y,-z
x,x-y,-z
-x+y,y,z
x,x-y,z
-y,-x,z
loop_
_atom_site_type_symbol
_atom_site_label
_atom_site_fract_x
_atom_site_fract_y
_atom_site_fract_z
Si Si1 0.896003 0.290218 0.910059
Si Si2 0.813561 0.000280 0.500000
Si Si3 0.057826 0.765821 0.163368
Si Si4 0.483488 0.147994 0.736845
Si Si5 0.333368 0.843609 0.097707
Si Si6 0.948798 0.236918 0.328559
O O1 0.798948 0.201052 0.911692
O O2 0.892262 0.343939 0.829982
O O3 0.969819 0.259859 0.893170
O O4 0.912842 0.336015 0.000000
O O5 0.917042 0.082959 0.500000
O O6 0.767887 0.013258 0.582283
O O7 0.810498 0.905249 0.500000
O O8 0.132714 0.867287 0.139919
O O9 0.106415 0.706266 0.151932
O O10 0.021808 0.760344 0.256183
O O11 0.572956 0.145911 0.713504
O O12 0.500719 0.250360 0.737002
O O13 0.395393 0.089518 0.679991
O O14 0.433020 0.866040 0.119586
O O15 0.262900 0.737101 0.105133
O O16 0.331566 0.865873 0.000000
O O17 0.861579 0.138422 0.311075
#
# Coordination Sequence:
#
# PCOD9585432 Si02
#       6
#    12   6  12  12  12  12
#     4   9  18  31  44  60  87 123 159 198 244 279
#     4  10  19  34  57  80  98 116 144 182 225 274
#     4  10  18  28  44  65  87 114 150 185 221 275
#     4   9  17  30  48  69  94 126 162 195 228 269
#     4   9  17  28  42  62  89 120 154 194 236 270
#     4   9  19  34  50  70  96 122 144 178 234 283
#
# _framework density 16.154060999999999
#
# number of rings (size 3 to 8) (size 9 to 14) (size 15 to 20)
#    0.000    2.727    0.000    3.182    0.000    5.091 
#    0.000    0.455    0.000    5.091    0.000    1.273 
#    0.000    0.000    0.000    2.182    0.000    0.000 
#
# Total GULP energy -367537.739921 kJ/mol
# GULP energy per Si atom -5568.753635 kJ/mol
# Density = 1.611729 g / cm^3
# Si number density = 16.154061 Si / 1000 Ang^3
#
#
#
# Elastic Constant Matrix: (Units=GPa)
#
#
# Indices 1 2 3 4 5 6 
#
# 1 62.6430 22.8223 32.8814 0.0000 -0.0004 0.0000
# 2 22.8223 62.6430 32.8814 0.0000 0.0004 0.0000
# 3 32.8814 32.8814 91.3165 0.0000 0.0000 0.0000
# 4 0.0000 0.0000 0.0000 10.9271 0.0000 0.0004
# 5 -0.0004 0.0004 0.0000 0.0000 10.9271 0.0000
# 6 0.0000 0.0000 0.0000 0.0004 0.0000 19.9104
#
#
#
# Elastic Compliance Matrix: (Units=1/GPa)
#
#
# Indices 1 2 3 4 5 6 
#
# 1 0.020649 -0.004464 -0.005828 0.000000 0.000001 0.000000
# 2 -0.004464 0.020649 -0.005828 0.000000 -0.000001 0.000000
# 3 -0.005828 -0.005828 0.015148 0.000000 0.000000 0.000000
# 4 0.000000 0.000000 0.000000 0.091515 0.000000 -0.000002
# 5 0.000001 -0.000001 0.000000 0.000000 0.091515 0.000000
# 6 0.000000 0.000000 0.000000 -0.000002 0.000000 0.050225
#
#
# Mechanical properties :
#
#
# Convention : Reuss Voigt Hill
#
# Bulk Modulus (GPa) = 41.31148 43.75253 42.53200
# Shear Modulus (GPa) = 15.15109 16.88743 16.01926
#
# Velocity S-wave (km/s) = 3.06586 3.23677 3.15247
# Velocity P-wave (km/s) = 6.17751 6.41188 6.29579
#
# Compressibility (1/GPa) = 0.02420635
#
# Stress axis : x y z
#
# Youngs Moduli (GPa) = 48.42895 48.42895 66.01536
#
# Poissons Ratio (x) = 0.21617 0.38473
# Poissons Ratio (y) = 0.21617 0.38473
# Poissons Ratio (z) = 0.28224 0.28224
#
# Static dielectric constant tensor:
#      x y z
#    x 1.550010 0.000000 0.000000 
#    y 0.000000 1.550010 0.000000 
#    z 0.000000 0.000000 1.543940 
# 
# From -- ./inp_files/2486.got.cif
#   From: 2010.05.17/outbox.cif.g08.bks.cpg/sg187_2_cif.got.tgz:2486.got - 2010.05.20 12:09:04.
