data_PCOD9585104
_publ_section_title
;
Structure prediction by ZEFSAII (Michael W. Deem and Ramdas Pophale) SiO2 
 PCOD9585104
Probable space group: P 6 C C
;
_chemical_formula_sum "Si O2"
_cell_formula_units_Z 66
_cell_length_a 15.653701
_cell_length_b 15.653701
_cell_length_c 14.765922
_cell_angle_alpha 90.000000
_cell_angle_beta 90.000000
_cell_angle_gamma 120.000000
_cell_volume 3133.468044
_symmetry_space_group_name_H-M "P 6 C C"
_symmetry_group_IT_number 184
_symmetry_cell_setting 'hexagonal'
loop_
_space_group_symop_operation_xyz
x,y,z
x-y,x,z
-y,x-y,z
-x,-y,z
-x+y,-x,z
y,-x+y,z
-x+y,y,1/2+z
x,x-y,1/2+z
-y,-x,1/2+z
y,x,1/2+z
x-y,-y,1/2+z
-x,-x+y,1/2+z
loop_
_atom_site_type_symbol
_atom_site_label
_atom_site_fract_x
_atom_site_fract_y
_atom_site_fract_z
Si Si1 0.863516 0.580566 0.605420
Si Si2 0.800302 0.820515 0.292382
Si Si3 0.460549 0.714542 0.434471
Si Si4 0.000000 0.500000 0.184455
Si Si5 0.800331 0.820479 0.576633
Si Si6 0.717056 0.580543 0.763503
O O1 0.789416 0.523293 0.524285
O O2 0.923499 0.526345 0.634858
O O3 0.948085 0.686965 0.569914
O O4 0.796735 0.593459 0.684460
O O5 0.887011 0.805944 0.329779
O O6 0.822272 0.822301 0.184507
O O7 0.686931 0.738931 0.299089
O O8 0.399787 0.772355 0.434500
O O9 0.523198 0.733842 0.344598
O O10 0.923527 0.526384 0.234053
O O11 0.887059 0.805942 0.539236
#
# Coordination Sequence:
#
# PCOD9585104 Si02
#       6
#    12  12  12   6  12  12
#     4  12  22  43  67  99 141 177 244 292 360 429
#     4  10  18  35  62  97 134 173 221 279 344 419
#     4  10  26  45  64  98 133 194 236 296 358 417
#     4  12  24  38  72 100 126 194 228 306 364 418
#     4  10  18  35  62  97 134 173 221 279 344 419
#     4  12  22  43  67  99 141 177 244 292 360 429
#
# _framework density 21.062925
#
# number of rings (size 3 to 8) (size 9 to 14) (size 15 to 20)
#    0.364    0.727    5.455    2.545    0.000    2.182 
#    1.091    7.273    0.000    0.000    0.000    2.545 
#    0.000    0.000    0.000    0.000    0.000    0.000 
#
# Total GULP energy -367909.545231 kJ/mol
# GULP energy per Si atom -5574.387049 kJ/mol
# Density = 2.101498 g / cm^3
# Si number density = 21.062925 Si / 1000 Ang^3
#
#
#
# Elastic Constant Matrix: (Units=GPa)
#
#
# Indices 1 2 3 4 5 6 
#
# 1 131.4512 44.7979 14.3017 0.0000 0.0000 0.0000
# 2 44.7979 131.4512 14.3017 0.0000 0.0000 0.0000
# 3 14.3017 14.3017 81.2665 0.0000 0.0000 0.0000
# 4 0.0000 0.0000 0.0000 -17.5738 0.0000 0.0000
# 5 0.0000 0.0000 0.0000 0.0000 -17.5738 0.0000
# 6 0.0000 0.0000 0.0000 0.0000 0.0000 43.3266
#
#
#
# Elastic Compliance Matrix: (Units=1/GPa)
#
#
# Indices 1 2 3 4 5 6 
#
# 1 0.008690 -0.002850 -0.001028 0.000000 0.000000 0.000000
# 2 -0.002850 0.008690 -0.001028 0.000000 0.000000 0.000000
# 3 -0.001028 -0.001028 0.012667 0.000000 0.000000 0.000000
# 4 0.000000 0.000000 0.000000 -0.056903 0.000000 0.000000
# 5 0.000000 0.000000 0.000000 0.000000 -0.056903 0.000000
# 6 0.000000 0.000000 0.000000 0.000000 0.000000 0.023080
#
#
# Mechanical properties :
#
#
# Convention : Reuss Voigt Hill
#
# Bulk Modulus (GPa) = 49.41508 54.55237 51.98372
# Shear Modulus (GPa) = -113.32588 19.68697 -46.81945
#
# Velocity S-wave (km/s) = -7.34304 3.06056 -4.71981
# Velocity P-wave (km/s) = 6.95572 6.20043 2.22899
#
# Compressibility (1/GPa) = 0.02023674
#
# Stress axis : x y z
#
# Youngs Moduli (GPa) = 115.06923 115.06923 78.94553
#
# Poissons Ratio (x) = 0.32793 0.08114
# Poissons Ratio (y) = 0.32793 0.08114
# Poissons Ratio (z) = 0.11827 0.11827
#
# Static dielectric constant tensor:
#      x y z
#    x 1.757060 0.000000 0.000000 
#    y 0.000000 1.757060 0.000000 
#    z 0.000000 0.000000 1.743090 
# 
# From -- ./inp_files/1070.got.cif
#   From: 2010.05.17/outbox.cif.g08.bks.cpg/sg184_cif.got.tgz:1070.got - 2010.05.20 12:04:40.
