data_PCOD9585716
_publ_section_title
;
Structure prediction by ZEFSAII (Michael W. Deem and Ramdas Pophale) SiO2 
 PCOD9585716
Probable space group: P -6 M 2
;
_chemical_formula_sum "Si O2"
_cell_formula_units_Z 72
_cell_length_a 18.389207
_cell_length_b 18.389207
_cell_length_c 15.294590
_cell_angle_alpha 90.000000
_cell_angle_beta 90.000000
_cell_angle_gamma 120.000000
_cell_volume 4479.138320
_symmetry_space_group_name_H-M "P -6 M 2"
_symmetry_group_IT_number 187
_symmetry_cell_setting 'hexagonal'
loop_
_space_group_symop_operation_xyz
x,y,z
-x+y,-x,-z
-y,x-y,z
x,y,-z
-x+y,-x,z
-y,x-y,-z
-y,-x,-z
-x+y,y,-z
x,x-y,-z
-x+y,y,z
x,x-y,z
-y,-x,z
loop_
_atom_site_type_symbol
_atom_site_label
_atom_site_fract_x
_atom_site_fract_y
_atom_site_fract_z
Si Si1 0.333454 0.840412 0.241669
Si Si2 0.498671 0.165691 0.149188
Si Si3 0.924157 0.688843 0.601245
Si Si4 0.665880 0.170914 0.639354
Si Si5 0.021526 0.422489 0.098327
Si Si6 0.272775 0.372863 0.601800
O O1 0.414220 0.828439 0.236729
O O2 0.247842 0.752159 0.229177
O O3 0.344600 0.909226 0.169353
O O4 0.328572 0.877580 0.335644
O O5 0.588862 0.177724 0.120481
O O6 0.488898 0.244449 0.121389
O O7 0.499269 0.164540 0.255090
O O8 0.426348 0.074235 0.118879
O O9 0.933653 0.715246 0.500000
O O10 0.853131 0.706262 0.641547
O O11 0.884801 0.588413 0.604258
O O12 0.017492 0.727136 0.637066
O O13 0.573396 0.146791 0.610138
O O14 0.733022 0.266978 0.616470
O O15 0.019442 0.509721 0.101399
O O16 0.044441 0.411825 0.000000
O O17 0.300805 0.386884 0.500000
O O18 0.179799 0.359598 0.604051
#
# Coordination Sequence:
#
# PCOD9585716 Si02
#       6
#    12  12  12  12  12  12
#     4  10  20  34  51  69  89 115 149 188 230 277
#     4   9  16  26  41  61  87 120 155 187 219 259
#     4   9  17  28  42  61  85 115 151 185 216 257
#     4   9  16  25  37  55  81 114 151 187 219 250
#     4   9  18  31  45  63  88 116 147 186 229 267
#     4   9  18  32  49  69  93 119 144 175 221 270
#
# _framework density 16.074521000000001
#
# number of rings (size 3 to 8) (size 9 to 14) (size 15 to 20)
#    0.000    2.833    0.000    1.500    0.000    4.667 
#    0.000    1.667    0.000    4.333    0.000    2.333 
#    0.000    0.000    0.000    0.500    0.000    2.667 
#
# Total GULP energy -400944.396901 kJ/mol
# GULP energy per Si atom -5568.672179 kJ/mol
# Density = 1.603793 g / cm^3
# Si number density = 16.074521 Si / 1000 Ang^3
#
#
#
# Elastic Constant Matrix: (Units=GPa)
#
#
# Indices 1 2 3 4 5 6 
#
# 1 70.5857 38.2036 34.1387 0.0000 -0.0003 0.0000
# 2 38.2036 70.5857 34.1387 0.0000 0.0003 0.0000
# 3 34.1387 34.1387 62.8181 0.0000 0.0000 0.0000
# 4 0.0000 0.0000 0.0000 7.5771 0.0000 0.0003
# 5 -0.0003 0.0003 0.0000 0.0000 7.5771 0.0000
# 6 0.0000 0.0000 0.0000 0.0003 0.0000 16.1911
#
#
#
# Elastic Compliance Matrix: (Units=1/GPa)
#
#
# Indices 1 2 3 4 5 6 
#
# 1 0.022416 -0.008466 -0.007581 0.000000 0.000001 0.000000
# 2 -0.008466 0.022416 -0.007581 0.000000 -0.000001 0.000000
# 3 -0.007581 -0.007581 0.024159 0.000000 0.000000 0.000000
# 4 0.000000 0.000000 0.000000 0.131977 0.000000 -0.000002
# 5 0.000001 -0.000001 0.000000 0.000000 0.131977 0.000000
# 6 0.000000 0.000000 0.000000 -0.000002 0.000000 0.061762
#
#
# Mechanical properties :
#
#
# Convention : Reuss Voigt Hill
#
# Bulk Modulus (GPa) = 46.01006 46.32797 46.16902
# Shear Modulus (GPa) = 11.13069 12.76960 11.95015
#
# Velocity S-wave (km/s) = 2.63429 2.82157 2.72953
# Velocity P-wave (km/s) = 6.15936 6.28477 6.22238
#
# Compressibility (1/GPa) = 0.02173437
#
# Stress axis : x y z
#
# Youngs Moduli (GPa) = 44.61157 44.61157 41.39223
#
# Poissons Ratio (x) = 0.37766 0.31381
# Poissons Ratio (y) = 0.37766 0.31381
# Poissons Ratio (z) = 0.33821 0.33821
#
# Static dielectric constant tensor:
#      x y z
#    x 1.539230 0.000000 0.000000 
#    y 0.000000 1.539230 0.000000 
#    z 0.000000 0.000000 1.568270 
# 
# From -- ./inp_files/3077.got.cif
#   From: 2010.05.17/outbox.cif.g08.bks.cpg/sg187_2_cif.got.tgz:3077.got - 2010.05.20 12:09:04.
