data_PCOD9585069
_publ_section_title
;
Structure prediction by ZEFSAII (Michael W. Deem and Ramdas Pophale) SiO2 
 PCOD9585069
Probable space group: P 6 M M
;
_chemical_formula_sum "Si O2"
_cell_formula_units_Z 72
_cell_length_a 22.580914
_cell_length_b 22.580914
_cell_length_c 10.258719
_cell_angle_alpha 90.000000
_cell_angle_beta 90.000000
_cell_angle_gamma 120.000000
_cell_volume 4530.089676
_symmetry_space_group_name_H-M "P 6 M M"
_symmetry_group_IT_number 183
_symmetry_cell_setting 'hexagonal'
loop_
_space_group_symop_operation_xyz
x,y,z
x-y,x,z
-y,x-y,z
-x,-y,z
-x+y,-x,z
y,-x+y,z
-x+y,y,z
x,x-y,z
-y,-x,z
y,x,z
x-y,-y,z
-x,-x+y,z
loop_
_atom_site_type_symbol
_atom_site_label
_atom_site_fract_x
_atom_site_fract_y
_atom_site_fract_z
Si Si1 0.211373 0.288580 0.422230
Si Si2 0.473902 0.665882 0.594545
Si Si3 0.076181 0.789690 0.737719
Si Si4 0.291325 0.848307 0.330446
Si Si5 0.610377 0.080328 0.091258
Si Si6 0.080221 0.425862 0.799922
O O1 0.135321 0.270641 0.381624
O O2 0.236128 0.236128 0.380686
O O3 0.213054 0.291343 0.579985
O O4 0.263609 0.364551 0.372024
O O5 0.477687 0.738844 0.617870
O O6 0.396512 0.603488 0.596518
O O7 0.508491 0.671241 0.453872
O O8 0.518502 0.652216 0.700363
O O9 0.137194 0.862807 0.780526
O O10 0.086749 0.728477 0.788311
O O11 0.000000 0.771635 0.775399
O O12 0.224483 0.775518 0.303629
O O13 0.337864 0.876216 0.204139
O O14 0.545541 0.091081 0.092061
O O15 0.581774 0.000000 0.116536
O O16 0.641785 0.095334 0.946803
O O17 0.000000 0.400721 0.770852
#
# Coordination Sequence:
#
# PCOD9585069 Si02
#       6
#    12  12  12  12  12  12
#     4   9  16  28  47  72 100 128 163 204 246 291
#     4  11  22  36  53  73  99 129 166 206 247 296
#     4   9  16  28  48  73 100 129 162 202 246 290
#     4  10  20  33  51  74  97 128 167 206 247 296
#     4  10  21  36  51  71 100 129 159 199 251 304
#     4  10  20  34  53  75  99 128 164 208 252 299
#
# _framework density 15.893725
#
# number of rings (size 3 to 8) (size 9 to 14) (size 15 to 20)
#    0.000    2.167    1.667    2.167    0.000    3.000 
#    0.000    0.000    0.000    0.667    0.000    2.333 
#    0.000    0.000    0.000    0.000    0.000   21.667 
#
# Total GULP energy -401554.694425 kJ/mol
# GULP energy per Si atom -5577.148534 kJ/mol
# Density = 1.585755 g / cm^3
# Si number density = 15.893725 Si / 1000 Ang^3
#
#
#
# Elastic Constant Matrix: (Units=GPa)
#
#
# Indices 1 2 3 4 5 6 
#
# 1 99.6239 59.7355 62.7461 0.0000 0.0000 0.0000
# 2 59.7355 99.6239 62.7461 0.0000 0.0000 0.0000
# 3 62.7461 62.7461 89.0470 0.0000 0.0000 0.0000
# 4 0.0000 0.0000 0.0000 6.8477 0.0000 0.0000
# 5 0.0000 0.0000 0.0000 0.0000 6.8477 0.0000
# 6 0.0000 0.0000 0.0000 0.0000 0.0000 19.9442
#
#
#
# Elastic Compliance Matrix: (Units=1/GPa)
#
#
# Indices 1 2 3 4 5 6 
#
# 1 0.019584 -0.005486 -0.009934 0.000000 0.000000 0.000000
# 2 -0.005486 0.019584 -0.009934 0.000000 0.000000 0.000000
# 3 -0.009934 -0.009934 0.025230 0.000000 0.000000 0.000000
# 4 0.000000 0.000000 0.000000 0.146035 0.000000 0.000000
# 5 0.000000 0.000000 0.000000 0.000000 0.146035 0.000000
# 6 0.000000 0.000000 0.000000 0.000000 0.000000 0.050140
#
#
# Mechanical properties :
#
#
# Convention : Reuss Voigt Hill
#
# Bulk Modulus (GPa) = 73.04736 73.19448 73.12092
# Shear Modulus (GPa) = 10.82533 13.59903 12.21218
#
# Velocity S-wave (km/s) = 2.61263 2.92828 2.77495
# Velocity P-wave (km/s) = 7.42703 7.58851 7.50820
#
# Compressibility (1/GPa) = 0.01368975
#
# Stress axis : x y z
#
# Youngs Moduli (GPa) = 51.06224 51.06224 39.63571
#
# Poissons Ratio (x) = 0.28013 0.39374
# Poissons Ratio (y) = 0.28013 0.39374
# Poissons Ratio (z) = 0.50725 0.50725
#
# Static dielectric constant tensor:
#      x y z
#    x 1.527410 0.000000 0.000000 
#    y 0.000000 1.527410 0.000000 
#    z 0.000000 0.000000 1.507870 
# 
# From -- ./inp_files/1162.got.cif
#   From: 2010.05.17/outbox.cif.g08.bks.cpg/sg183_1_cif.got.tgz:1162.got - 2010.05.20 12:02:58.
