data_PCOD9585038
_publ_section_title
;
Structure prediction by ZEFSAII (Michael W. Deem and Ramdas Pophale) SiO2 
 PCOD9585038
Probable space group: P 6 M M
;
_chemical_formula_sum "Si O2"
_cell_formula_units_Z 72
_cell_length_a 23.202616
_cell_length_b 23.202616
_cell_length_c 9.308143
_cell_angle_alpha 90.000000
_cell_angle_beta 90.000000
_cell_angle_gamma 120.000000
_cell_volume 4339.778696
_symmetry_space_group_name_H-M "P 6 M M"
_symmetry_group_IT_number 183
_symmetry_cell_setting 'hexagonal'
loop_
_space_group_symop_operation_xyz
x,y,z
x-y,x,z
-y,x-y,z
-x,-y,z
-x+y,-x,z
y,-x+y,z
-x+y,y,z
x,x-y,z
-y,-x,z
y,x,z
x-y,-y,z
-x,-x+y,z
loop_
_atom_site_type_symbol
_atom_site_label
_atom_site_fract_x
_atom_site_fract_y
_atom_site_fract_z
Si Si1 0.469555 0.802862 0.779920
Si Si2 0.279143 0.074894 0.432503
Si Si3 0.075623 0.284142 0.772348
Si Si4 0.800267 0.466829 0.440548
Si Si5 0.136390 0.728316 0.236641
Si Si6 0.406995 0.077274 0.932647
O O1 0.395154 0.790307 0.803309
O O2 0.473767 0.736884 0.817981
O O3 0.484067 0.815196 0.609165
O O4 0.523463 0.867705 0.864351
O O5 0.255253 0.127627 0.406552
O O6 0.298140 0.080271 0.601049
O O7 0.342713 0.095920 0.333334
O O8 0.224099 0.000000 0.402762
O O9 0.134626 0.269251 0.809336
O O10 0.085087 0.348695 0.855708
O O11 0.000000 0.225494 0.800951
O O12 0.723437 0.446875 0.421085
O O13 0.810064 0.405032 0.407399
O O14 0.842991 0.528843 0.338361
O O15 0.205222 0.794779 0.191466
O O16 0.095461 0.688196 0.098995
O O17 0.386358 0.000000 0.914470
#
# Coordination Sequence:
#
# PCOD9585038 Si02
#       6
#    12  12  12  12  12  12
#     4  10  20  36  57  78 100 127 163 203 243 289
#     4   9  17  30  49  71  95 124 160 200 240 287
#     4   9  17  30  49  72  97 128 165 203 244 290
#     4   9  18  33  54  77  99 126 161 202 244 286
#     4  10  19  31  49  73 100 128 160 200 244 288
#     4  11  22  34  50  72 102 135 164 201 245 289
#
# _framework density 16.590706000000001
#
# number of rings (size 3 to 8) (size 9 to 14) (size 15 to 20)
#    0.000    2.333    0.000    3.333    0.000    5.000 
#    0.000    0.833    0.000    5.833    0.000    2.333 
#    0.000    0.000    0.000    5.333    0.000    7.333 
#
# Total GULP energy -401563.504783 kJ/mol
# GULP energy per Si atom -5577.270900 kJ/mol
# Density = 1.655295 g / cm^3
# Si number density = 16.590706 Si / 1000 Ang^3
#
#
#
# Elastic Constant Matrix: (Units=GPa)
#
#
# Indices 1 2 3 4 5 6 
#
# 1 101.9775 67.4894 53.3228 0.0000 0.0000 0.0000
# 2 67.4894 101.9775 53.3228 0.0000 0.0000 0.0000
# 3 53.3228 53.3228 50.5808 0.0000 0.0000 0.0000
# 4 0.0000 0.0000 0.0000 18.9783 0.0000 0.0000
# 5 0.0000 0.0000 0.0000 0.0000 18.9783 0.0000
# 6 0.0000 0.0000 0.0000 0.0000 0.0000 17.2441
#
#
#
# Elastic Compliance Matrix: (Units=1/GPa)
#
#
# Indices 1 2 3 4 5 6 
#
# 1 0.023264 -0.005732 -0.018482 0.000000 0.000000 0.000000
# 2 -0.005732 0.023264 -0.018482 0.000000 0.000000 0.000000
# 3 -0.018482 -0.018482 0.058738 0.000000 0.000000 0.000000
# 4 0.000000 0.000000 0.000000 0.052692 0.000000 0.000000
# 5 0.000000 0.000000 0.000000 0.000000 0.052692 0.000000
# 6 0.000000 0.000000 0.000000 0.000000 0.000000 0.057991
#
#
# Mechanical properties :
#
#
# Convention : Reuss Voigt Hill
#
# Bulk Modulus (GPa) = 50.31849 66.97843 58.64846
# Shear Modulus (GPa) = 13.86360 16.40017 15.13189
#
# Velocity S-wave (km/s) = 2.89385 3.14748 3.02333
# Velocity P-wave (km/s) = 6.44678 7.32581 6.90031
#
# Compressibility (1/GPa) = 0.01987341
#
# Stress axis : x y z
#
# Youngs Moduli (GPa) = 42.98571 42.98571 17.02466
#
# Poissons Ratio (x) = 0.24639 0.31465
# Poissons Ratio (y) = 0.24639 0.31465
# Poissons Ratio (z) = 0.79446 0.79446
#
# Static dielectric constant tensor:
#      x y z
#    x 1.545490 0.000000 0.000000 
#    y 0.000000 1.545490 0.000000 
#    z 0.000000 0.000000 1.554740 
# 
# From -- ./inp_files/1153.got.cif
#   From: 2010.05.17/outbox.cif.g08.bks.cpg/sg183_1_cif.got.tgz:1153.got - 2010.05.20 12:02:58.
