data_PCOD9585502
_publ_section_title
;
Structure prediction by ZEFSAII (Michael W. Deem and Ramdas Pophale) SiO2 
 PCOD9585502
Probable space group: P -6 M 2
;
_chemical_formula_sum "Si O2"
_cell_formula_units_Z 72
_cell_length_a 23.845970
_cell_length_b 23.845970
_cell_length_c 7.492214
_cell_angle_alpha 90.000000
_cell_angle_beta 90.000000
_cell_angle_gamma 120.000000
_cell_volume 3689.527841
_symmetry_space_group_name_H-M "P -6 M 2"
_symmetry_group_IT_number 187
_symmetry_cell_setting 'hexagonal'
loop_
_space_group_symop_operation_xyz
x,y,z
-x+y,-x,-z
-y,x-y,z
x,y,-z
-x+y,-x,z
-y,x-y,-z
-y,-x,-z
-x+y,y,-z
x,x-y,-z
-x+y,y,z
x,x-y,z
-y,-x,z
loop_
_atom_site_type_symbol
_atom_site_label
_atom_site_fract_x
_atom_site_fract_y
_atom_site_fract_z
Si Si1 0.137588 0.736159 0.781994
Si Si2 0.925930 0.590194 0.715728
Si Si3 0.666685 0.204221 0.281938
Si Si4 0.407555 0.466279 0.788482
Si Si5 0.284512 0.205623 0.711785
Si Si6 0.747487 0.811297 0.785504
O O1 0.209836 0.790165 0.728525
O O2 0.110400 0.663404 0.717297
O O3 0.090304 0.763510 0.725412
O O4 0.136345 0.735178 0.000000
O O5 0.925089 0.591190 0.500000
O O6 0.860344 0.526951 0.775425
O O7 0.927967 0.655342 0.782450
O O8 0.988597 0.585815 0.766955
O O9 0.666745 0.204246 0.500000
O O10 0.602082 0.204163 0.224849
O O11 0.731212 0.268789 0.224843
O O12 0.469744 0.530257 0.714498
O O13 0.405824 0.476485 0.000000
O O14 0.295188 0.206464 0.500000
O O15 0.282459 0.141230 0.783485
O O16 0.219263 0.208616 0.736009
O O17 0.766592 0.883296 0.723199
O O18 0.745707 0.812144 0.000000
#
# Coordination Sequence:
#
# PCOD9585502 Si02
#       6
#    12  12  12  12  12  12
#     4   8  14  27  47  68  92 121 152 189 233 278
#     4  10  19  31  46  66  94 126 157 194 239 285
#     4   9  16  26  41  60  82 112 153 197 236 274
#     4  10  19  30  47  71  97 125 158 194 233 282
#     4  10  20  32  47  71 103 134 161 194 240 290
#     4   9  17  31  52  74  94 121 159 199 238 283
#
# _framework density 19.514692
#
# number of rings (size 3 to 8) (size 9 to 14) (size 15 to 20)
#    0.000    2.667    1.667    2.167    0.000    4.333 
#    0.000    0.000    0.000    2.667    0.000    2.333 
#    0.000    1.333    0.000    0.000    0.000    0.000 
#
# Total GULP energy -401817.072231 kJ/mol
# GULP energy per Si atom -5580.792670 kJ/mol
# Density = 1.947028 g / cm^3
# Si number density = 19.514692 Si / 1000 Ang^3
#
#
#
# Elastic Constant Matrix: (Units=GPa)
#
#
# Indices 1 2 3 4 5 6 
#
# 1 144.2590 93.6702 -2.5819 0.0000 -0.0002 0.0000
# 2 93.6702 144.2590 -2.5819 0.0000 0.0002 0.0000
# 3 -2.5819 -2.5819 52.2190 0.0000 0.0000 0.0000
# 4 0.0000 0.0000 0.0000 9.1639 0.0000 0.0002
# 5 -0.0002 0.0002 0.0000 0.0000 9.1639 0.0000
# 6 0.0000 0.0000 0.0000 0.0002 0.0000 25.2944
#
#
#
# Elastic Compliance Matrix: (Units=1/GPa)
#
#
# Indices 1 2 3 4 5 6 
#
# 1 0.011987 -0.007780 0.000208 0.000000 0.000000 0.000000
# 2 -0.007780 0.011987 0.000208 0.000000 0.000000 0.000000
# 3 0.000208 0.000208 0.019171 0.000000 0.000000 0.000000
# 4 0.000000 0.000000 0.000000 0.109124 0.000000 -0.000001
# 5 0.000000 0.000000 0.000000 0.000000 0.109124 0.000000
# 6 0.000000 0.000000 0.000000 -0.000001 0.000000 0.039534
#
#
# Mechanical properties :
#
#
# Convention : Reuss Voigt Hill
#
# Bulk Modulus (GPa) = 35.18934 57.52778 46.35856
# Shear Modulus (GPa) = 15.37853 25.53979 20.45916
#
# Velocity S-wave (km/s) = 2.81027 3.62159 3.24141
# Velocity P-wave (km/s) = 5.34804 6.85792 6.14949
#
# Compressibility (1/GPa) = 0.02841769
#
# Stress axis : x y z
#
# Youngs Moduli (GPa) = 83.42139 83.42139 52.16296
#
# Poissons Ratio (x) = 0.64901 -0.01085
# Poissons Ratio (y) = 0.64901 -0.01085
# Poissons Ratio (z) = -0.01735 -0.01735
#
# Static dielectric constant tensor:
#      x y z
#    x 1.671590 0.000000 0.000000 
#    y 0.000000 1.671590 0.000000 
#    z 0.000000 0.000000 1.787940 
# 
# From -- ./inp_files/948.got.cif
#   From: 2010.05.17/outbox.cif.g08.bks.cpg/sg187_1_cif.got.tgz:948.got - 2010.05.20 12:09:04.
