data_PCOD9585945
_publ_section_title
;
Structure prediction by ZEFSAII (Michael W. Deem and Ramdas Pophale) SiO2 
 PCOD9585945
Probable space group: P -6 C 2
;
_chemical_formula_sum "Si O2"
_cell_formula_units_Z 84
_cell_length_a 17.025992
_cell_length_b 17.025992
_cell_length_c 18.124650
_cell_angle_alpha 90.000000
_cell_angle_beta 90.000000
_cell_angle_gamma 120.000000
_cell_volume 4550.143679
_symmetry_space_group_name_H-M "P -6 C 2"
_symmetry_group_IT_number 188
_symmetry_cell_setting 'hexagonal'
loop_
_space_group_symop_operation_xyz
x,y,z
-x+y,-x,1/2-z
-y,x-y,z
x,y,1/2-z
-x+y,-x,z
-y,x-y,1/2-z
-y,-x,-z
-x+y,y,-z
x,x-y,-z
-x+y,y,1/2+z
x,x-y,1/2+z
-y,-x,1/2+z
loop_
_atom_site_type_symbol
_atom_site_label
_atom_site_fract_x
_atom_site_fract_y
_atom_site_fract_z
Si Si1 0.942437 0.195814 0.168689
Si Si2 0.482934 0.149689 0.980218
Si Si3 0.836646 0.837476 0.480377
Si Si4 0.244083 0.331781 0.093681
Si Si5 0.898518 0.272158 0.664804
Si Si6 0.563890 0.615316 0.477441
Si Si7 0.107471 0.719329 0.666631
O O1 0.945055 0.159359 0.250000
O O2 0.836879 0.158525 0.151796
O O3 0.004794 0.303916 0.172021
O O4 0.994906 0.173877 0.106288
O O5 0.454177 0.130261 0.894059
O O6 0.582274 0.164547 0.000000
O O7 0.476488 0.238244 0.000000
O O8 0.410222 0.055025 0.020307
O O9 0.884509 0.942255 0.500000
O O10 0.749024 0.798335 0.532824
O O11 0.896237 0.792473 0.500000
O O12 0.301434 0.305392 0.148537
O O13 0.173310 0.351676 0.136139
O O14 0.311789 0.414548 0.041792
O O15 0.885807 0.288510 0.750000
O O16 0.475983 0.524018 0.500000
O O17 0.553617 0.652717 0.399159
O O18 0.134753 0.709478 0.750000
#
# Coordination Sequence:
#
# PCOD9585945 Si02
#       7
#    12  12  12  12  12  12  12
#     4  10  20  33  53  84 118 156 200 244 287 329
#     4  10  21  37  60  84 114 148 189 233 291 352
#     4  12  21  34  52  81 117 166 208 247 285 336
#     4  11  20  35  61  81 114 149 199 239 286 341
#     4  10  21  36  56  84 117 155 196 241 287 337
#     4  10  21  37  57  86 111 145 183 235 290 352
#     4  11  21  36  58  86 114 149 191 239 290 343
#
# _framework density 18.460957000000001
#
# number of rings (size 3 to 8) (size 9 to 14) (size 15 to 20)
#    0.000    1.429    4.286    2.000    2.000    0.000 
#    0.000    8.571    0.000    2.286    0.000    0.000 
#    0.000    0.000    0.000    0.000    0.000    0.000 
#
# Total GULP energy -467798.806080 kJ/mol
# GULP energy per Si atom -5569.033406 kJ/mol
# Density = 1.841894 g / cm^3
# Si number density = 18.460957 Si / 1000 Ang^3
#
#
#
# Elastic Constant Matrix: (Units=GPa)
#
#
# Indices 1 2 3 4 5 6 
#
# 1 64.1315 34.8174 47.3085 0.0000 0.0000 0.0000
# 2 34.8174 64.1315 47.3085 0.0000 0.0000 0.0000
# 3 47.3085 47.3085 155.2348 0.0000 0.0000 0.0000
# 4 0.0000 0.0000 0.0000 22.1147 0.0000 0.0000
# 5 0.0000 0.0000 0.0000 0.0000 22.1147 0.0000
# 6 0.0000 0.0000 0.0000 0.0000 0.0000 14.6570
#
#
#
# Elastic Compliance Matrix: (Units=1/GPa)
#
#
# Indices 1 2 3 4 5 6 
#
# 1 0.024188 -0.009925 -0.004347 0.000000 0.000000 0.000000
# 2 -0.009925 0.024188 -0.004347 0.000000 0.000000 0.000000
# 3 -0.004347 -0.004347 0.009091 0.000000 0.000000 0.000000
# 4 0.000000 0.000000 0.000000 0.045219 0.000000 0.000000
# 5 0.000000 0.000000 0.000000 0.000000 0.045219 0.000000
# 6 0.000000 0.000000 0.000000 0.000000 0.000000 0.068227
#
#
# Mechanical properties :
#
#
# Convention : Reuss Voigt Hill
#
# Bulk Modulus (GPa) = 49.43179 60.26293 54.84736
# Shear Modulus (GPa) = 19.22254 22.04819 20.63536
#
# Velocity S-wave (km/s) = 3.23035 3.45963 3.34695
# Velocity P-wave (km/s) = 6.38342 6.97661 6.68660
#
# Compressibility (1/GPa) = 0.02022989
#
# Stress axis : x y z
#
# Youngs Moduli (GPa) = 41.34299 41.34299 109.99744
#
# Poissons Ratio (x) = 0.41035 0.47811
# Poissons Ratio (y) = 0.41035 0.47811
# Poissons Ratio (z) = 0.17970 0.17970
#
# Static dielectric constant tensor:
#      x y z
#    x 1.706310 0.000000 0.000000 
#    y 0.000000 1.706310 0.000000 
#    z 0.000000 0.000000 1.689770 
# 
# From -- ./inp_files/2599.got.cif
#   From: 2010.05.17/outbox.cif.g08.bks.cpg/sg188_2_cif.got.tgz:2599.got - 2010.05.20 12:11:46.
