data_PCOD9585206
_publ_section_title
;
Structure prediction by ZEFSAII (Michael W. Deem and Ramdas Pophale) SiO2 
 PCOD9585206
Probable space group: P 6 C C
;
_chemical_formula_sum "Si O2"
_cell_formula_units_Z 50
_cell_length_a 14.086295
_cell_length_b 14.086295
_cell_length_c 13.840284
_cell_angle_alpha 90.000000
_cell_angle_beta 90.000000
_cell_angle_gamma 120.000000
_cell_volume 2378.313999
_symmetry_space_group_name_H-M "P 6 C C"
_symmetry_group_IT_number 184
_symmetry_cell_setting 'hexagonal'
loop_
_space_group_symop_operation_xyz
x,y,z
x-y,x,z
-y,x-y,z
-x,-y,z
-x+y,-x,z
y,-x+y,z
-x+y,y,1/2+z
x,x-y,1/2+z
-y,-x,1/2+z
y,x,1/2+z
x-y,-y,1/2+z
-x,-x+y,1/2+z
loop_
_atom_site_type_symbol
_atom_site_label
_atom_site_fract_x
_atom_site_fract_y
_atom_site_fract_z
Si Si1 0.858378 0.565596 0.285540
Si Si2 0.333335 0.666668 0.812247
Si Si3 0.000000 0.500000 0.926939
Si Si4 0.707219 0.141625 0.068337
Si Si5 0.666668 0.333334 0.041626
Si Si6 0.869906 0.739814 0.426938
O O1 0.739771 0.457609 0.280356
O O2 0.928645 0.533324 0.357629
O O3 0.904953 0.593498 0.176938
O O4 0.844013 0.660565 0.334835
O O5 0.333334 0.666667 0.926937
O O6 0.928641 0.533319 0.996248
O O7 0.717843 0.260234 0.073519
O O8 0.816551 0.155987 0.019040
O O9 0.813217 0.813218 0.426938
#
# Coordination Sequence:
#
# PCOD9585206 Si02
#       6
#    12   4   6  12   4  12
#     4  12  25  44  75 110 148 192 237 298 379 457
#     4  12  22  44  70 106 149 181 217 281 370 457
#     4  12  22  46  72 112 154 188 242 304 374 456
#     4  12  25  44  75 110 148 192 237 298 379 457
#     4  12  22  44  70 106 149 181 217 281 370 457
#     4  12  27  51  72 102 145 199 262 318 362 434
#
# _framework density 21.023296999999999
#
# number of rings (size 3 to 8) (size 9 to 14) (size 15 to 20)
#    0.000    0.000    7.200    2.400    0.000    1.920 
#    0.000    0.000    0.000    2.880    0.000    0.000 
#    0.000    0.000    0.000    0.000    0.000    0.000 
#
# Total GULP energy -279787.730971 kJ/mol
# GULP energy per Si atom -5595.754619 kJ/mol
# Density = 2.097545 g / cm^3
# Si number density = 21.023297 Si / 1000 Ang^3
#
#
#
# Elastic Constant Matrix: (Units=GPa)
#
#
# Indices 1 2 3 4 5 6 
#
# 1 150.4393 70.9972 55.5689 -0.0001 -0.0001 -0.0002
# 2 70.9972 150.4385 55.5687 -0.0001 -0.0002 0.0000
# 3 55.5689 55.5687 205.0439 0.0001 0.0002 -0.0001
# 4 -0.0001 -0.0001 0.0001 -3.8060 -0.0004 0.0001
# 5 -0.0001 -0.0002 0.0002 -0.0004 -3.8052 0.0000
# 6 -0.0002 0.0000 -0.0001 0.0001 0.0000 39.7211
#
#
#
# Elastic Compliance Matrix: (Units=1/GPa)
#
#
# Indices 1 2 3 4 5 6 
#
# 1 0.008907 -0.003680 -0.001417 0.000000 0.000000 0.000000
# 2 -0.003680 0.008907 -0.001417 0.000000 0.000000 0.000000
# 3 -0.001417 -0.001417 0.005645 0.000000 0.000000 0.000000
# 4 0.000000 0.000000 0.000000 -0.262745 0.000025 0.000000
# 5 0.000000 0.000000 0.000000 0.000025 -0.262800 0.000000
# 6 0.000000 0.000000 0.000000 0.000000 0.000000 0.025176
#
#
# Mechanical properties :
#
#
# Convention : Reuss Voigt Hill
#
# Bulk Modulus (GPa) = 95.85453 96.68793 96.27123
# Shear Modulus (GPa) = -10.86001 28.00779 8.57389
#
# Velocity S-wave (km/s) = -2.27528 3.65393 2.02167
# Velocity P-wave (km/s) = 6.22823 7.99326 7.16530
#
# Compressibility (1/GPa) = 0.01043248
#
# Stress axis : x y z
#
# Youngs Moduli (GPa) = 112.26655 112.26607 177.15419
#
# Poissons Ratio (x) = 0.41319 0.25095
# Poissons Ratio (y) = 0.41319 0.25095
# Poissons Ratio (z) = 0.15903 0.15903
#
# Static dielectric constant tensor:
#      x y z
#    x 1.751570 0.000000 0.000000 
#    y 0.000000 1.751570 0.000000 
#    z 0.000000 0.000000 1.804140 
# 
# From -- ./inp_files/798.got.cif
#   From: 2010.05.17/outbox.cif.g08.bks.cpg/sg184_cif.got.tgz:798.got - 2010.05.20 12:04:40.
