data_PCOD9585103
_publ_section_title
;
Structure prediction by ZEFSAII (Michael W. Deem and Ramdas Pophale) SiO2 
 PCOD9585103
Probable space group: P 6 C C
;
_chemical_formula_sum "Si O2"
_cell_formula_units_Z 68
_cell_length_a 13.701154
_cell_length_b 13.701154
_cell_length_c 22.845859
_cell_angle_alpha 90.000000
_cell_angle_beta 90.000000
_cell_angle_gamma 120.000000
_cell_volume 3714.089966
_symmetry_space_group_name_H-M "P 6 C C"
_symmetry_group_IT_number 184
_symmetry_cell_setting 'hexagonal'
loop_
_space_group_symop_operation_xyz
x,y,z
x-y,x,z
-y,x-y,z
-x,-y,z
-x+y,-x,z
y,-x+y,z
-x+y,y,1/2+z
x,x-y,1/2+z
-y,-x,1/2+z
y,x,1/2+z
x-y,-y,1/2+z
-x,-x+y,1/2+z
loop_
_atom_site_type_symbol
_atom_site_label
_atom_site_fract_x
_atom_site_fract_y
_atom_site_fract_z
Si Si1 0.742579 0.803065 0.224440
Si Si2 0.221195 0.474681 0.063995
Si Si3 0.666668 0.333334 0.977972
Si Si4 0.595708 0.128533 0.643379
Si Si5 0.666668 0.333334 0.839259
Si Si6 0.944326 0.753160 0.083367
Si Si7 0.389927 0.882542 0.267232
O O1 0.842544 0.774839 0.240459
O O2 0.736405 0.795543 0.153682
O O3 0.618345 0.709250 0.248031
O O4 0.198914 0.556691 0.104395
O O5 0.292916 0.443187 0.109269
O O6 0.101499 0.366361 0.052448
O O7 0.284631 0.542376 0.006447
O O8 0.666668 0.333334 0.909058
O O9 0.592786 0.158580 0.710824
O O10 0.500000 0.000000 0.640320
O O11 0.783802 0.348525 0.814242
O O12 0.852664 0.788003 0.066950
O O13 0.500000 0.000000 0.285706
#
# Coordination Sequence:
#
# PCOD9585103 Si02
#       7
#    12  12   4  12   4  12  12
#     4  10  20  34  53  83 121 157 190 226 283 359
#     4  10  18  34  52  76 102 146 179 229 275 346
#     4   9  24  40  56  76 108 144 202 227 301 336
#     4  10  19  29  50  79 107 132 172 221 276 340
#     4  12  24  43  56  79 120 153 190 266 283 336
#     4  10  19  30  50  79 117 150 180 221 277 346
#     4  11  22  34  58  86 116 154 195 234 298 357
#
# _framework density 18.308658999999999
#
# number of rings (size 3 to 8) (size 9 to 14) (size 15 to 20)
#    0.000    1.765    1.765    3.882    7.412    1.412 
#    0.000    5.294    0.000    0.000    0.000    0.000 
#    0.000    2.824    0.000    0.000    0.000    0.000 
#
# Total GULP energy -379094.509347 kJ/mol
# GULP energy per Si atom -5574.919255 kJ/mol
# Density = 1.826699 g / cm^3
# Si number density = 18.308659 Si / 1000 Ang^3
#
#
#
# Elastic Constant Matrix: (Units=GPa)
#
#
# Indices 1 2 3 4 5 6 
#
# 1 87.1232 27.0574 23.1944 0.0000 0.0000 -0.0001
# 2 27.0574 87.1231 23.1944 0.0000 0.0000 0.0000
# 3 23.1944 23.1944 82.3212 0.0000 0.0000 -0.0002
# 4 0.0000 0.0000 0.0000 12.0200 -0.0001 0.0000
# 5 0.0000 0.0000 0.0000 -0.0001 12.0201 0.0000
# 6 -0.0001 0.0000 -0.0002 0.0000 0.0000 30.0330
#
#
#
# Elastic Compliance Matrix: (Units=1/GPa)
#
#
# Indices 1 2 3 4 5 6 
#
# 1 0.013269 -0.003379 -0.002787 0.000000 0.000000 0.000000
# 2 -0.003379 0.013269 -0.002787 0.000000 0.000000 0.000000
# 3 -0.002787 -0.002787 0.013718 0.000000 0.000000 0.000000
# 4 0.000000 0.000000 0.000000 0.083195 0.000000 0.000000
# 5 0.000000 0.000000 0.000000 0.000000 0.083194 0.000000
# 6 0.000000 0.000000 0.000000 0.000000 0.000000 0.033297
#
#
# Mechanical properties :
#
#
# Convention : Reuss Voigt Hill
#
# Bulk Modulus (GPa) = 44.73920 44.82888 44.78404
# Shear Modulus (GPa) = 18.84683 23.02272 20.93477
#
# Velocity S-wave (km/s) = 3.21190 3.54994 3.38514
# Velocity P-wave (km/s) = 6.18419 6.42970 6.30814
#
# Compressibility (1/GPa) = 0.02235176
#
# Stress axis : x y z
#
# Youngs Moduli (GPa) = 75.36193 75.36184 72.89786
#
# Poissons Ratio (x) = 0.25466 0.20314
# Poissons Ratio (y) = 0.25466 0.20314
# Poissons Ratio (z) = 0.21000 0.21000
#
# Static dielectric constant tensor:
#      x y z
#    x 1.729640 0.000000 0.000000 
#    y 0.000000 1.729640 0.000000 
#    z 0.000000 0.000000 1.585150 
# 
# From -- ./inp_files/1246.got.cif
#   From: 2010.05.17/outbox.cif.g08.bks.cpg/sg184_cif.got.tgz:1246.got - 2010.05.20 12:04:40.
