data_PCOD9585514
_publ_section_title
;
Structure prediction by ZEFSAII (Michael W. Deem and Ramdas Pophale) SiO2 
 PCOD9585514
Probable space group: P -6 M 2
;
_chemical_formula_sum "Si O2"
_cell_formula_units_Z 84
_cell_length_a 17.808797
_cell_length_b 17.808797
_cell_length_c 20.924121
_cell_angle_alpha 90.000000
_cell_angle_beta 90.000000
_cell_angle_gamma 120.000000
_cell_volume 5747.077073
_symmetry_space_group_name_H-M "P -6 M 2"
_symmetry_group_IT_number 187
_symmetry_cell_setting 'hexagonal'
loop_
_space_group_symop_operation_xyz
x,y,z
-x+y,-x,-z
-y,x-y,z
x,y,-z
-x+y,-x,z
-y,x-y,-z
-y,-x,-z
-x+y,y,-z
x,x-y,-z
-x+y,y,z
x,x-y,z
-y,-x,z
loop_
_atom_site_type_symbol
_atom_site_label
_atom_site_fract_x
_atom_site_fract_y
_atom_site_fract_z
Si Si1 0.492162 0.334151 0.230492
Si Si2 0.334592 0.834987 0.922462
Si Si3 0.939197 0.240236 0.191404
Si Si4 0.492599 0.158517 0.614913
Si Si5 0.180106 0.998908 0.310484
Si Si6 0.238554 0.298920 0.925260
Si Si7 0.301447 0.241873 0.571339
O O1 0.505988 0.252994 0.213667
O O2 0.575149 0.424852 0.211236
O O3 0.400427 0.315111 0.202146
O O4 0.485479 0.333310 0.307808
O O5 0.428670 0.857339 0.899150
O O6 0.260753 0.739248 0.901535
O O7 0.300604 0.900543 0.907235
O O8 0.335555 0.832718 0.000000
O O9 0.847700 0.152301 0.194607
O O10 0.994436 0.232855 0.249400
O O11 0.985056 0.246348 0.124593
O O12 0.575170 0.150339 0.595427
O O13 0.506722 0.253361 0.597552
O O14 0.400429 0.086857 0.586999
O O15 0.087082 0.912919 0.308787
O O16 0.170506 0.085253 0.310110
O O17 0.234299 0.003856 0.373685
O O18 0.140513 0.281026 0.919236
O O19 0.252290 0.286826 0.000000
O O20 0.277022 0.254036 0.500000
O O21 0.302438 0.151219 0.572438
#
# Coordination Sequence:
#
# PCOD9585514 Si02
#       7
#    12  12  12  12  12  12  12
#     4   9  16  27  44  66  91 119 151 184 215 250
#     4   8  13  22  38  60  85 111 137 164 197 242
#     4  10  19  31  47  66  87 112 144 182 223 265
#     4   9  15  25  41  63  91 123 156 185 214 253
#     4  10  19  32  48  65  83 108 144 184 224 267
#     4   9  18  31  45  63  87 113 141 176 219 265
#     4   9  17  29  43  61  89 119 144 177 220 257
#
# _framework density 14.616126
#
# number of rings (size 3 to 8) (size 9 to 14) (size 15 to 20)
#    0.000    2.857    1.429    1.857    0.000    3.143 
#    0.000    0.000    0.000    2.000    0.000    0.000 
#    0.000    1.143    0.000    2.000    0.000    3.714 
#
# Total GULP energy -467616.040692 kJ/mol
# GULP energy per Si atom -5566.857627 kJ/mol
# Density = 1.458286 g / cm^3
# Si number density = 14.616126 Si / 1000 Ang^3
#
#
#
# Elastic Constant Matrix: (Units=GPa)
#
#
# Indices 1 2 3 4 5 6 
#
# 1 61.4844 27.1396 31.5623 0.0000 -0.0002 0.0000
# 2 27.1396 61.4844 31.5623 0.0000 0.0002 0.0000
# 3 31.5623 31.5623 67.7475 0.0000 0.0000 0.0000
# 4 0.0000 0.0000 0.0000 11.8141 0.0000 0.0002
# 5 -0.0002 0.0002 0.0000 0.0000 11.8141 0.0000
# 6 0.0000 0.0000 0.0000 0.0002 0.0000 17.1724
#
#
#
# Elastic Compliance Matrix: (Units=1/GPa)
#
#
# Indices 1 2 3 4 5 6 
#
# 1 0.023002 -0.006114 -0.007868 0.000000 0.000001 0.000000
# 2 -0.006114 0.023002 -0.007868 0.000000 -0.000001 0.000000
# 3 -0.007868 -0.007868 0.022091 0.000000 0.000000 0.000000
# 4 0.000000 0.000000 0.000000 0.084644 0.000000 -0.000001
# 5 0.000001 -0.000001 0.000000 0.000000 0.084644 0.000000
# 6 0.000000 0.000000 0.000000 -0.000001 0.000000 0.058233
#
#
# Mechanical properties :
#
#
# Convention : Reuss Voigt Hill
#
# Bulk Modulus (GPa) = 40.99013 41.24940 41.11976
# Shear Modulus (GPa) = 14.39064 14.85696 14.62380
#
# Velocity S-wave (km/s) = 3.14119 3.19168 3.16654
# Velocity P-wave (km/s) = 6.42351 6.47036 6.44698
#
# Compressibility (1/GPa) = 0.02439612
#
# Stress axis : x y z
#
# Youngs Moduli (GPa) = 43.47456 43.47456 45.26648
#
# Poissons Ratio (x) = 0.26582 0.35614
# Poissons Ratio (y) = 0.26582 0.35614
# Poissons Ratio (z) = 0.34204 0.34204
#
# Static dielectric constant tensor:
#      x y z
#    x 1.479900 0.000000 0.000000 
#    y 0.000000 1.479900 0.000000 
#    z 0.000000 0.000000 1.481820 
# 
# From -- ./inp_files/3642.got.cif
#   From: 2010.05.17/outbox.cif.g08.bks.cpg/sg187_2_cif.got.tgz:3642.got - 2010.05.20 12:09:04.
