data_PCOD9585963
_publ_section_title
;
Structure prediction by ZEFSAII (Michael W. Deem and Ramdas Pophale) SiO2 
 PCOD9585963
Probable space group: P -6 C 2
;
_chemical_formula_sum "Si O2"
_cell_formula_units_Z 64
_cell_length_a 16.549451
_cell_length_b 16.549451
_cell_length_c 16.001703
_cell_angle_alpha 90.000000
_cell_angle_beta 90.000000
_cell_angle_gamma 120.000000
_cell_volume 3795.456513
_symmetry_space_group_name_H-M "P -6 C 2"
_symmetry_group_IT_number 188
_symmetry_cell_setting 'hexagonal'
loop_
_space_group_symop_operation_xyz
x,y,z
-x+y,-x,1/2-z
-y,x-y,z
x,y,1/2-z
-x+y,-x,z
-y,x-y,1/2-z
-y,-x,-z
-x+y,y,-z
x,x-y,-z
-x+y,y,1/2+z
x,x-y,1/2+z
-y,-x,1/2+z
loop_
_atom_site_type_symbol
_atom_site_label
_atom_site_fract_x
_atom_site_fract_y
_atom_site_fract_z
Si Si1 0.293821 0.369502 0.849620
Si Si2 0.120334 0.562843 0.099701
Si Si3 0.333334 0.666667 0.397744
Si Si4 0.143990 0.969001 0.582573
Si Si5 0.839154 0.028943 0.654469
Si Si6 0.629978 0.738236 0.650120
O O1 0.288290 0.361877 0.750000
O O2 0.393265 0.455667 0.872859
O O3 0.263303 0.264826 0.878719
O O4 0.213152 0.393333 0.875433
O O5 0.226975 0.606431 0.131198
O O6 0.090053 0.636120 0.129288
O O7 0.122954 0.561477 0.000000
O O8 0.333334 0.666667 0.500000
O O9 0.084487 0.915514 0.500000
O O10 0.231883 0.955162 0.597981
O O11 0.068234 0.908181 0.653576
O O12 0.175803 0.076076 0.596907
O O13 0.851172 0.063909 0.750000
O O14 0.647153 0.745279 0.750000
#
# Coordination Sequence:
#
# PCOD9585963 Si02
#       6
#    12  12   4  12  12  12
#     4   9  19  33  49  71 101 141 181 218 266 324
#     4  11  20  31  50  72 101 141 178 226 263 314
#     4   9  18  27  43  65  97 132 172 200 256 300
#     4  11  22  34  55  79 104 138 183 228 275 327
#     4  10  20  36  54  72 105 142 179 221 272 332
#     4  10  21  34  50  73 106 141 177 223 274 330
#
# _framework density 16.862266999999999
#
# number of rings (size 3 to 8) (size 9 to 14) (size 15 to 20)
#    0.000    1.875    1.875    4.312    5.250    0.000 
#    0.000    0.000    0.000    0.000    0.000    0.000 
#    1.875    0.000    2.250    0.000    0.750    0.000 
#
# Total GULP energy -356885.097297 kJ/mol
# GULP energy per Si atom -5576.329645 kJ/mol
# Density = 1.682389 g / cm^3
# Si number density = 16.862267 Si / 1000 Ang^3
#
#
#
# Elastic Constant Matrix: (Units=GPa)
#
#
# Indices 1 2 3 4 5 6 
#
# 1 122.4337 62.6255 29.1319 0.0000 0.0000 0.0000
# 2 62.6255 122.4336 29.1318 0.0000 0.0000 0.0000
# 3 29.1319 29.1318 66.5840 0.0000 0.0000 0.0000
# 4 0.0000 0.0000 0.0000 21.1941 0.0000 0.0000
# 5 0.0000 0.0000 0.0000 0.0000 21.1942 0.0000
# 6 0.0000 0.0000 0.0000 0.0000 0.0000 29.9040
#
#
#
# Elastic Compliance Matrix: (Units=1/GPa)
#
#
# Indices 1 2 3 4 5 6 
#
# 1 0.011494 -0.005227 -0.002742 0.000000 0.000000 0.000000
# 2 -0.005227 0.011494 -0.002742 0.000000 0.000000 0.000000
# 3 -0.002742 -0.002742 0.017418 0.000000 0.000000 0.000000
# 4 0.000000 0.000000 0.000000 0.047183 0.000000 0.000000
# 5 0.000000 0.000000 0.000000 0.000000 0.047183 0.000000
# 6 0.000000 0.000000 0.000000 0.000000 0.000000 0.033440
#
#
# Mechanical properties :
#
#
# Convention : Reuss Voigt Hill
#
# Bulk Modulus (GPa) = 52.67556 61.46997 57.07276
# Shear Modulus (GPa) = 25.51544 27.16260 26.33902
#
# Velocity S-wave (km/s) = 3.89417 4.01790 3.95651
# Velocity P-wave (km/s) = 7.17815 7.61958 7.40216
#
# Compressibility (1/GPa) = 0.01898413
#
# Stress axis : x y z
#
# Youngs Moduli (GPa) = 87.00540 87.00534 57.41216
#
# Poissons Ratio (x) = 0.45474 0.15742
# Poissons Ratio (y) = 0.45474 0.15742
# Poissons Ratio (z) = 0.23856 0.23856
#
# Static dielectric constant tensor:
#      x y z
#    x 1.590460 0.000000 0.000000 
#    y 0.000000 1.590460 0.000000 
#    z 0.000000 0.000000 1.641580 
# 
# From -- ./inp_files/3075.got.cif
#   From: 2010.05.17/outbox.cif.g08.bks.cpg/sg188_2_cif.got.tgz:3075.got - 2010.05.20 12:11:46.
