data_PCOD9585800
_publ_section_title
;
Structure prediction by ZEFSAII (Michael W. Deem and Ramdas Pophale) SiO2 
 PCOD9585800
Probable space group: P -6 M 2
;
_chemical_formula_sum "Si O2"
_cell_formula_units_Z 60
_cell_length_a 21.899550
_cell_length_b 21.899550
_cell_length_c 7.619433
_cell_angle_alpha 90.000000
_cell_angle_beta 90.000000
_cell_angle_gamma 120.000000
_cell_volume 3164.635299
_symmetry_space_group_name_H-M "P -6 M 2"
_symmetry_group_IT_number 187
_symmetry_cell_setting 'hexagonal'
loop_
_space_group_symop_operation_xyz
x,y,z
-x+y,-x,-z
-y,x-y,z
x,y,-z
-x+y,-x,z
-y,x-y,-z
-y,-x,-z
-x+y,y,-z
x,x-y,-z
-x+y,y,z
x,x-y,z
-y,-x,z
loop_
_atom_site_type_symbol
_atom_site_label
_atom_site_fract_x
_atom_site_fract_y
_atom_site_fract_z
Si Si1 0.839244 0.541781 0.709839
Si Si2 0.544299 0.839851 0.789532
Si Si3 0.920785 0.214520 0.788463
Si Si4 0.460070 0.539931 0.294005
Si Si5 0.917990 0.458995 0.716144
Si Si6 0.215163 0.294068 0.785459
O O1 0.832282 0.531852 0.500000
O O2 0.761959 0.523917 0.778084
O O3 0.891036 0.624465 0.744896
O O4 0.875517 0.498021 0.774450
O O5 0.520742 0.760371 0.726539
O O6 0.497350 0.874769 0.748441
O O7 0.624850 0.889941 0.728923
O O8 0.546751 0.837627 0.000000
O O9 0.862469 0.137532 0.723126
O O10 0.999758 0.245209 0.722610
O O11 0.922672 0.211022 0.000000
O O12 0.465235 0.534766 0.500000
O O13 0.500194 0.499806 0.220752
O O14 0.918639 0.459320 0.500000
O O15 0.136074 0.272148 0.732618
O O16 0.216434 0.294106 0.000000
#
# Coordination Sequence:
#
# PCOD9585800 Si02
#       6
#    12  12  12   6   6  12
#     4   9  17  30  46  63  87 119 151 183 220 262
#     4   9  18  33  50  66  85 113 152 191 221 257
#     4   9  16  26  43  67  91 113 141 179 219 259
#     4  11  21  31  47  69  95 121 143 181 235 283
#     4   9  18  31  45  67  95 119 149 189 231 267
#     4   8  14  26  45  66  87 113 146 182 216 252
#
# _framework density 18.959531999999999
#
# number of rings (size 3 to 8) (size 9 to 14) (size 15 to 20)
#    0.000    3.000    0.000    2.700    0.000    0.400 
#    1.200    1.500    0.000    2.200    0.000    2.800 
#    0.000    0.000    0.000    0.000    0.000    0.200 
#
# Total GULP energy -334455.529781 kJ/mol
# GULP energy per Si atom -5574.258830 kJ/mol
# Density = 1.891638 g / cm^3
# Si number density = 18.959532 Si / 1000 Ang^3
#
#
#
# Elastic Constant Matrix: (Units=GPa)
#
#
# Indices 1 2 3 4 5 6 
#
# 1 183.2093 142.6776 6.4651 0.0000 0.0020 0.0000
# 2 142.6776 183.2093 6.4651 0.0000 -0.0020 0.0000
# 3 6.4651 6.4651 37.3843 0.0000 0.0000 0.0000
# 4 0.0000 0.0000 0.0000 -8.6103 0.0000 -0.0020
# 5 0.0020 -0.0020 0.0000 0.0000 -8.6103 0.0000
# 6 0.0000 0.0000 0.0000 -0.0020 0.0000 20.2659
#
#
#
# Elastic Compliance Matrix: (Units=1/GPa)
#
#
# Indices 1 2 3 4 5 6 
#
# 1 0.013881 -0.010791 -0.000534 0.000000 0.000006 0.000000
# 2 -0.010791 0.013881 -0.000534 0.000000 -0.000006 0.000000
# 3 -0.000534 -0.000534 0.026934 0.000000 0.000000 0.000000
# 4 0.000000 0.000000 0.000000 -0.116140 0.000000 -0.000011
# 5 0.000006 -0.000006 0.000000 0.000000 -0.116140 0.000000
# 6 0.000000 0.000000 0.000000 -0.000011 0.000000 0.049344
#
#
# Mechanical properties :
#
#
# Convention : Reuss Voigt Hill
#
# Bulk Modulus (GPa) = 32.28284 79.44649 55.86466
# Shear Modulus (GPa) = -53.08132 17.15539 -17.96296
#
# Velocity S-wave (km/s) = -5.29698 3.01132 -3.08139
# Velocity P-wave (km/s) = 4.51070 7.35425 4.10722
#
# Compressibility (1/GPa) = 0.03097621
#
# Stress axis : x y z
#
# Youngs Moduli (GPa) = 72.04149 72.04149 37.12775
#
# Poissons Ratio (x) = 0.77741 0.01984
# Poissons Ratio (y) = 0.77741 0.01984
# Poissons Ratio (z) = 0.03849 0.03849
#
# Static dielectric constant tensor:
#      x y z
#    x 1.707120 0.000000 0.000000 
#    y 0.000000 1.707120 0.000000 
#    z 0.000000 0.000000 1.716350 
# 
# From -- ./inp_files/668.got.cif
#   From: 2010.05.17/outbox.cif.g08.bks.cpg/sg187_1_cif.got.tgz:668.got - 2010.05.20 12:09:04.
