data_PCOD9585485
_publ_section_title
;
Structure prediction by ZEFSAII (Michael W. Deem and Ramdas Pophale) SiO2 
 PCOD9585485
Probable space group: P -6 M 2
;
_chemical_formula_sum "Si O2"
_cell_formula_units_Z 60
_cell_length_a 18.708303
_cell_length_b 18.708303
_cell_length_c 12.530144
_cell_angle_alpha 90.000000
_cell_angle_beta 90.000000
_cell_angle_gamma 120.000000
_cell_volume 3798.004579
_symmetry_space_group_name_H-M "P -6 M 2"
_symmetry_group_IT_number 187
_symmetry_cell_setting 'hexagonal'
loop_
_space_group_symop_operation_xyz
x,y,z
-x+y,-x,-z
-y,x-y,z
x,y,-z
-x+y,-x,z
-y,x-y,-z
-y,-x,-z
-x+y,y,-z
x,x-y,-z
-x+y,y,z
x,x-y,z
-y,-x,z
loop_
_atom_site_type_symbol
_atom_site_label
_atom_site_fract_x
_atom_site_fract_y
_atom_site_fract_z
Si Si1 0.494954 0.666734 0.233985
Si Si2 0.228912 0.938787 0.000000
Si Si3 0.097174 0.467851 0.000000
Si Si4 0.830228 0.830636 0.201880
Si Si5 0.763642 0.072616 0.625547
Si Si6 0.576444 0.991452 0.373533
O O1 0.516103 0.758052 0.260257
O O2 0.399485 0.600516 0.256032
O O3 0.547506 0.637241 0.302777
O O4 0.509640 0.659261 0.108747
O O5 0.209736 0.977452 0.897024
O O6 0.159615 0.840386 0.000000
O O7 0.321289 0.953051 0.000000
O O8 0.058053 0.529027 0.000000
O O9 0.917846 0.835691 0.181078
O O10 0.788831 0.771168 0.303062
O O11 0.842721 0.921361 0.218634
O O12 0.766619 0.055680 0.500000
O O13 0.832956 0.167045 0.645537
O O14 0.671779 0.053589 0.650217
O O15 0.569715 0.971405 0.500000
O O16 0.510962 0.021924 0.351537
#
# Coordination Sequence:
#
# PCOD9585485 Si02
#       6
#    12   6   6  12  12  12
#     4  10  19  30  44  63  89 121 155 188 221 259
#     4  10  19  31  48  68  90 119 155 193 231 271
#     4  10  20  31  44  64  90 119 151 189 231 271
#     4  10  20  33  49  69  94 124 157 193 233 276
#     4   9  18  32  49  69  92 118 149 186 229 276
#     4   9  18  32  49  68  90 118 151 187 229 274
#
# _framework density 15.797769000000001
#
# number of rings (size 3 to 8) (size 9 to 14) (size 15 to 20)
#    0.000    2.400    0.000    2.800    0.000    3.200 
#    0.000    4.000    0.000    3.000    0.000    2.800 
#    0.000    0.000    0.000    2.400    0.000   24.600 
#
# Total GULP energy -334312.571506 kJ/mol
# GULP energy per Si atom -5571.876192 kJ/mol
# Density = 1.576181 g / cm^3
# Si number density = 15.797769 Si / 1000 Ang^3
#
#
#
# Elastic Constant Matrix: (Units=GPa)
#
#
# Indices 1 2 3 4 5 6 
#
# 1 105.9859 78.5742 46.1519 0.0000 0.0002 0.0000
# 2 78.5742 105.9859 46.1519 0.0000 -0.0002 0.0000
# 3 46.1519 46.1519 48.6703 0.0000 0.0000 0.0000
# 4 0.0000 0.0000 0.0000 17.3118 0.0000 -0.0002
# 5 0.0002 -0.0002 0.0000 0.0000 17.3118 0.0000
# 6 0.0000 0.0000 0.0000 -0.0002 0.0000 13.7059
#
#
#
# Elastic Compliance Matrix: (Units=1/GPa)
#
#
# Indices 1 2 3 4 5 6 
#
# 1 0.023393 -0.013087 -0.009773 0.000000 0.000000 0.000000
# 2 -0.013087 0.023393 -0.009773 0.000000 0.000000 0.000000
# 3 -0.009773 -0.009773 0.039080 0.000000 0.000000 0.000000
# 4 0.000000 0.000000 0.000000 0.057764 0.000000 0.000001
# 5 0.000000 0.000000 0.000000 0.000000 0.057764 0.000000
# 6 0.000000 0.000000 0.000000 0.000001 0.000000 0.072961
#
#
# Mechanical properties :
#
#
# Convention : Reuss Voigt Hill
#
# Bulk Modulus (GPa) = 48.53996 66.93313 57.73654
# Shear Modulus (GPa) = 14.43048 15.65016 15.04032
#
# Velocity S-wave (km/s) = 3.02561 3.15088 3.08888
# Velocity P-wave (km/s) = 6.55731 7.46312 7.02483
#
# Compressibility (1/GPa) = 0.02060158
#
# Stress axis : x y z
#
# Youngs Moduli (GPa) = 42.74732 42.74732 25.58841
#
# Poissons Ratio (x) = 0.55945 0.25006
# Poissons Ratio (y) = 0.55945 0.25006
# Poissons Ratio (z) = 0.41775 0.41775
#
# Static dielectric constant tensor:
#      x y z
#    x 1.523540 0.000000 0.000000 
#    y 0.000000 1.523540 0.000000 
#    z 0.000000 0.000000 1.526330 
# 
# From -- ./inp_files/1660.got.cif
#   From: 2010.05.17/outbox.cif.g08.bks.cpg/sg187_1_cif.got.tgz:1660.got - 2010.05.20 12:09:04.
