data_PCOD9585378
_publ_section_title
;
Structure prediction by ZEFSAII (Michael W. Deem and Ramdas Pophale) SiO2 
 PCOD9585378
Probable space group: P 63 M C
;
_chemical_formula_sum "Si O2"
_cell_formula_units_Z 60
_cell_length_a 13.294668
_cell_length_b 13.294668
_cell_length_c 25.791863
_cell_angle_alpha 90.000000
_cell_angle_beta 90.000000
_cell_angle_gamma 120.000000
_cell_volume 3947.919947
_symmetry_space_group_name_H-M "P 63 M C"
_symmetry_group_IT_number 186
_symmetry_cell_setting 'hexagonal'
loop_
_space_group_symop_operation_xyz
x,y,z
x-y,x,1/2+z
-y,x-y,z
-x,-y,1/2+z
-x+y,-x,z
y,-x+y,1/2+z
-x+y,y,z
x,x-y,z
-y,-x,z
y,x,1/2+z
x-y,-y,1/2+z
-x,-x+y,1/2+z
loop_
_atom_site_type_symbol
_atom_site_label
_atom_site_fract_x
_atom_site_fract_y
_atom_site_fract_z
Si Si1 0.095948 0.667110 0.221510
Si Si2 0.237654 0.000109 0.044664
Si Si3 0.570769 0.666323 0.340918
Si Si4 0.237947 0.237371 0.424901
Si Si5 0.666590 0.093280 0.133018
O O1 0.126112 0.563056 0.218542
O O2 0.210034 0.789966 0.209325
O O3 0.061353 0.670514 0.281227
O O4 0.990940 0.633509 0.182135
O O5 0.123663 0.876338 0.055623
O O6 0.206815 0.103408 0.049280
O O7 0.342537 0.032403 0.083945
O O8 0.273230 0.000396 0.984775
O O9 0.546745 0.773373 0.346644
O O10 0.453748 0.546253 0.349061
O O11 0.666245 0.685084 0.383103
O O12 0.107774 0.215548 0.419249
O O13 0.238882 0.119441 0.416023
O O14 0.552552 0.105103 0.125831
O O15 0.781208 0.218793 0.140071
#
# Coordination Sequence:
#
# PCOD9585378 Si02
#       5
#    12  12  12  12  12
#     4   9  17  30  48  68  89 115 150 191 229 263
#     4   9  17  30  48  68  88 112 144 182 222 262
#     4   9  17  29  46  68  92 118 149 186 226 264
#     4   9  17  29  46  67  90 116 145 178 217 262
#     4  10  20  32  46  65  91 121 150 181 220 269
#
# _framework density 15.197877
#
# number of rings (size 3 to 8) (size 9 to 14) (size 15 to 20)
#    0.000    2.800    0.000    1.600    0.000    4.800 
#    0.000    0.000    0.000    3.600    0.000    0.000 
#    0.000    0.000    0.000    0.000    0.000    0.000 
#
# Total GULP energy -334268.472718 kJ/mol
# GULP energy per Si atom -5571.141212 kJ/mol
# Density = 1.516329 g / cm^3
# Si number density = 15.197877 Si / 1000 Ang^3
#
#
#
# Elastic Constant Matrix: (Units=GPa)
#
#
# Indices 1 2 3 4 5 6 
#
# 1 98.1333 62.1769 84.2768 0.0000 0.0000 0.0000
# 2 62.1769 98.1333 84.2768 0.0000 0.0000 0.0000
# 3 84.2768 84.2768 121.9341 0.0000 0.0000 0.0000
# 4 0.0000 0.0000 0.0000 25.5873 0.0000 0.0000
# 5 0.0000 0.0000 0.0000 0.0000 25.5873 0.0000
# 6 0.0000 0.0000 0.0000 0.0000 0.0000 17.9782
#
#
#
# Elastic Compliance Matrix: (Units=1/GPa)
#
#
# Indices 1 2 3 4 5 6 
#
# 1 0.025318 -0.002493 -0.015776 0.000000 0.000000 0.000000
# 2 -0.002493 0.025318 -0.015776 0.000000 0.000000 0.000000
# 3 -0.015776 -0.015776 0.030009 0.000000 0.000000 0.000000
# 4 0.000000 0.000000 0.000000 0.039082 0.000000 0.000000
# 5 0.000000 0.000000 0.000000 0.000000 0.039082 0.000000
# 6 0.000000 0.000000 0.000000 0.000000 0.000000 0.055623
#
#
# Mechanical properties :
#
#
# Convention : Reuss Voigt Hill
#
# Bulk Modulus (GPa) = 79.64856 86.62907 83.13882
# Shear Modulus (GPa) = 17.43944 19.66193 18.55068
#
# Velocity S-wave (km/s) = 3.39114 3.60075 3.49751
# Velocity P-wave (km/s) = 8.23739 8.62622 8.43405
#
# Compressibility (1/GPa) = 0.01255515
#
# Stress axis : x y z
#
# Youngs Moduli (GPa) = 39.49730 39.49730 33.32376
#
# Poissons Ratio (x) = 0.09848 0.52571
# Poissons Ratio (y) = 0.09848 0.52571
# Poissons Ratio (z) = 0.62310 0.62310
#
# Static dielectric constant tensor:
#      x y z
#    x 1.478870 0.000000 0.000000 
#    y 0.000000 1.478870 0.000000 
#    z 0.000000 0.000000 1.508250 
# 
# From -- ./inp_files/3309.got.cif
#   From: 2010.05.17/outbox.cif.g08.bks.cpg/sg186_2_cif.got.tgz:3309.got - 2010.05.20 12:07:08.
