data_PCOD9585071
_publ_section_title
;
Structure prediction by ZEFSAII (Michael W. Deem and Ramdas Pophale) SiO2 
 PCOD9585071
Probable space group: P 6 M M
;
_chemical_formula_sum "Si O2"
_cell_formula_units_Z 84
_cell_length_a 21.998260
_cell_length_b 21.998260
_cell_length_c 12.916460
_cell_angle_alpha 90.000000
_cell_angle_beta 90.000000
_cell_angle_gamma 120.000000
_cell_volume 5413.159159
_symmetry_space_group_name_H-M "P 6 M M"
_symmetry_group_IT_number 183
_symmetry_cell_setting 'hexagonal'
loop_
_space_group_symop_operation_xyz
x,y,z
x-y,x,z
-y,x-y,z
-x,-y,z
-x+y,-x,z
y,-x+y,z
-x+y,y,z
x,x-y,z
-y,-x,z
y,x,z
x-y,-y,z
-x,-x+y,z
loop_
_atom_site_type_symbol
_atom_site_label
_atom_site_fract_x
_atom_site_fract_y
_atom_site_fract_z
Si Si1 0.666422 0.189092 0.858370
Si Si2 0.082519 0.436521 0.444477
Si Si3 0.666414 0.475879 0.619613
Si Si4 0.852687 0.558648 0.057692
Si Si5 0.809986 0.334885 0.264495
Si Si6 0.216093 0.922946 0.143889
Si Si7 0.783541 0.705504 0.392610
O O1 0.595416 0.190832 0.874166
O O2 0.781355 0.218646 0.055017
O O3 0.669141 0.170096 0.738923
O O4 0.672254 0.140721 0.945946
O O5 0.125367 0.480668 0.543965
O O6 0.128032 0.481795 0.346430
O O7 0.085343 0.364634 0.441454
O O8 0.000000 0.413047 0.441106
O O9 0.741831 0.483661 0.592415
O O10 0.605793 0.394208 0.613789
O O11 0.732774 0.465547 0.872503
O O12 0.839682 0.504694 0.150272
O O13 0.911391 0.636098 0.090319
O O14 0.787535 0.393768 0.271703
O O15 0.742877 0.257124 0.283688
O O16 0.139819 0.860182 0.113725
O O17 0.222979 0.917369 0.267946
O O18 0.230248 0.000000 0.121065
O O19 0.858835 0.717669 0.424086
O O20 0.768428 0.768428 0.415323
#
# Coordination Sequence:
#
# PCOD9585071 Si02
#       7
#    12  12  12  12  12  12  12
#     4   9  17  30  48  69  91 119 155 196 240 285
#     4  11  22  34  48  65  89 122 158 197 238 278
#     4  10  20  34  52  70  91 119 156 199 243 292
#     4   9  17  29  46  68  94 121 151 187 227 273
#     4  11  21  32  47  68  95 123 152 190 236 285
#     4   9  16  28  47  69  93 121 154 191 229 274
#     4   9  16  28  47  69  92 118 150 185 224 270
#
# _framework density 15.51774
#
# number of rings (size 3 to 8) (size 9 to 14) (size 15 to 20)
#    0.000    2.286    1.429    2.571    0.000    2.286 
#    0.000    3.571    0.000    2.429    0.000    2.000 
#    0.000    0.000    0.000    0.000    0.000    0.000 
#
# Total GULP energy -468086.760830 kJ/mol
# GULP energy per Si atom -5572.461438 kJ/mol
# Density = 1.548242 g / cm^3
# Si number density = 15.517740 Si / 1000 Ang^3
#
#
#
# Elastic Constant Matrix: (Units=GPa)
#
#
# Indices 1 2 3 4 5 6 
#
# 1 72.0705 34.3721 32.6043 0.0000 0.0000 0.0000
# 2 34.3721 72.0705 32.6043 0.0000 0.0000 0.0000
# 3 32.6043 32.6043 63.7674 0.0000 0.0000 0.0000
# 4 0.0000 0.0000 0.0000 13.4719 0.0000 0.0000
# 5 0.0000 0.0000 0.0000 0.0000 13.4719 0.0000
# 6 0.0000 0.0000 0.0000 0.0000 0.0000 18.8492
#
#
#
# Elastic Compliance Matrix: (Units=1/GPa)
#
#
# Indices 1 2 3 4 5 6 
#
# 1 0.020103 -0.006423 -0.006994 0.000000 0.000000 0.000000
# 2 -0.006423 0.020103 -0.006994 0.000000 0.000000 0.000000
# 3 -0.006994 -0.006994 0.022834 0.000000 0.000000 0.000000
# 4 0.000000 0.000000 0.000000 0.074228 0.000000 0.000000
# 5 0.000000 0.000000 0.000000 0.000000 0.074228 0.000000
# 6 0.000000 0.000000 0.000000 0.000000 0.000000 0.053053
#
#
# Mechanical properties :
#
#
# Convention : Reuss Voigt Hill
#
# Bulk Modulus (GPa) = 45.01237 45.23000 45.12119
# Shear Modulus (GPa) = 15.98569 16.38045 16.18307
#
# Velocity S-wave (km/s) = 3.21309 3.25252 3.23286
# Velocity P-wave (km/s) = 6.54486 6.58147 6.56319
#
# Compressibility (1/GPa) = 0.02221612
#
# Stress axis : x y z
#
# Youngs Moduli (GPa) = 49.74385 49.74385 43.79341
#
# Poissons Ratio (x) = 0.31952 0.30631
# Poissons Ratio (y) = 0.31952 0.30631
# Poissons Ratio (z) = 0.34793 0.34793
#
# Static dielectric constant tensor:
#      x y z
#    x 1.515870 0.000000 0.000000 
#    y 0.000000 1.515870 0.000000 
#    z 0.000000 0.000000 1.525410 
# 
# From -- ./inp_files/1764.got.cif
#   From: 2010.05.17/outbox.cif.g08.bks.cpg/sg183_1_cif.got.tgz:1764.got - 2010.05.20 12:02:58.
