data_PCOD9585653
_publ_section_title
;
Structure prediction by ZEFSAII (Michael W. Deem and Ramdas Pophale) SiO2 
 PCOD9585653
Probable space group: P -6 M 2
;
_chemical_formula_sum "Si O2"
_cell_formula_units_Z 54
_cell_length_a 12.902196
_cell_length_b 12.902196
_cell_length_c 23.753351
_cell_angle_alpha 90.000000
_cell_angle_beta 90.000000
_cell_angle_gamma 120.000000
_cell_volume 3424.386594
_symmetry_space_group_name_H-M "P -6 M 2"
_symmetry_group_IT_number 187
_symmetry_cell_setting 'hexagonal'
loop_
_space_group_symop_operation_xyz
x,y,z
-x+y,-x,-z
-y,x-y,z
x,y,-z
-x+y,-x,z
-y,x-y,-z
-y,-x,-z
-x+y,y,-z
x,x-y,-z
-x+y,y,z
x,x-y,z
-y,-x,z
loop_
_atom_site_type_symbol
_atom_site_label
_atom_site_fract_x
_atom_site_fract_y
_atom_site_fract_z
Si Si1 0.911302 0.577790 0.434590
Si Si2 0.000090 0.754314 0.666012
Si Si3 0.913051 0.332926 0.771740
Si Si4 0.332591 0.911930 0.000000
Si Si5 0.581740 0.667397 0.876369
O O1 0.943875 0.611638 0.500000
O O2 0.774767 0.549534 0.427460
O O3 0.918029 0.459015 0.422985
O O4 0.989233 0.682547 0.391172
O O5 0.891299 0.782597 0.665312
O O6 0.974623 0.665463 0.718278
O O7 0.125911 0.874090 0.671119
O O8 0.907059 0.453530 0.763936
O O9 0.781056 0.218945 0.777276
O O10 0.991241 0.349630 0.827345
O O11 0.325107 0.961528 0.938927
O O12 0.224793 0.775208 0.000000
O O13 0.457650 0.915299 0.000000
O O14 0.579795 0.789898 0.866767
O O15 0.445942 0.554059 0.876558
#
# Coordination Sequence:
#
# PCOD9585653 Si02
#       5
#    12  12  12   6  12
#     4   9  17  30  50  75 100 126 157 193 229 264
#     4  10  20  33  49  69  93 121 153 190 232 277
#     4  10  20  33  49  68  91 120 154 192 232 275
#     4   8  13  22  39  64  92 120 150 184 222 264
#     4   9  16  27  45  69  95 121 150 186 228 272
#
# _framework density 15.769247
#
# number of rings (size 3 to 8) (size 9 to 14) (size 15 to 20)
#    0.000    2.667    0.000    2.333    0.000    3.111 
#    0.000    2.778    0.000    6.667    0.000    1.556 
#    0.000    0.000    0.000    0.000    0.000    0.000 
#
# Total GULP energy -300798.986879 kJ/mol
# GULP energy per Si atom -5570.351609 kJ/mol
# Density = 1.573336 g / cm^3
# Si number density = 15.769247 Si / 1000 Ang^3
#
#
#
# Elastic Constant Matrix: (Units=GPa)
#
#
# Indices 1 2 3 4 5 6 
#
# 1 90.5510 58.1635 75.5170 0.0000 -0.0002 0.0000
# 2 58.1635 90.5510 75.5170 0.0000 0.0002 0.0000
# 3 75.5170 75.5170 124.9695 0.0000 0.0000 0.0000
# 4 0.0000 0.0000 0.0000 23.0708 0.0000 0.0002
# 5 -0.0002 0.0002 0.0000 0.0000 23.0708 0.0000
# 6 0.0000 0.0000 0.0000 0.0002 0.0000 16.1937
#
#
#
# Elastic Compliance Matrix: (Units=1/GPa)
#
#
# Indices 1 2 3 4 5 6 
#
# 1 0.024142 -0.006734 -0.010519 0.000000 0.000000 0.000000
# 2 -0.006734 0.024142 -0.010519 0.000000 0.000000 0.000000
# 3 -0.010519 -0.010519 0.020715 0.000000 0.000000 0.000000
# 4 0.000000 0.000000 0.000000 0.043345 0.000000 -0.000001
# 5 0.000000 0.000000 0.000000 0.000000 0.043345 0.000000
# 6 0.000000 0.000000 0.000000 -0.000001 0.000000 0.061752
#
#
# Mechanical properties :
#
#
# Convention : Reuss Voigt Hill
#
# Bulk Modulus (GPa) = 74.32936 80.49627 77.41282
# Shear Modulus (GPa) = 18.02000 18.92532 18.47266
#
# Velocity S-wave (km/s) = 3.38410 3.46806 3.42634
# Velocity P-wave (km/s) = 7.90617 8.19718 8.05299
#
# Compressibility (1/GPa) = 0.01345363
#
# Stress axis : x y z
#
# Youngs Moduli (GPa) = 41.42206 41.42206 48.27461
#
# Poissons Ratio (x) = 0.27895 0.50780
# Poissons Ratio (y) = 0.27895 0.50780
# Poissons Ratio (z) = 0.43572 0.43572
#
# Static dielectric constant tensor:
#      x y z
#    x 1.493920 0.000000 0.000000 
#    y 0.000000 1.493920 0.000000 
#    z 0.000000 0.000000 1.555920 
# 
# From -- ./inp_files/3859.got.cif
#   From: 2010.05.17/outbox.cif.g08.bks.cpg/sg187_2_cif.got.tgz:3859.got - 2010.05.20 12:09:04.
