data_PCOD9585668
_publ_section_title
;
Structure prediction by ZEFSAII (Michael W. Deem and Ramdas Pophale) SiO2 
 PCOD9585668
Probable space group: P -6 M 2
;
_chemical_formula_sum "Si O2"
_cell_formula_units_Z 84
_cell_length_a 17.462711
_cell_length_b 17.462711
_cell_length_c 18.272009
_cell_angle_alpha 90.000000
_cell_angle_beta 90.000000
_cell_angle_gamma 120.000000
_cell_volume 4825.477173
_symmetry_space_group_name_H-M "P -6 M 2"
_symmetry_group_IT_number 187
_symmetry_cell_setting 'hexagonal'
loop_
_space_group_symop_operation_xyz
x,y,z
-x+y,-x,-z
-y,x-y,z
x,y,-z
-x+y,-x,z
-y,x-y,-z
-y,-x,-z
-x+y,y,-z
x,x-y,-z
-x+y,y,z
x,x-y,z
-y,-x,z
loop_
_atom_site_type_symbol
_atom_site_label
_atom_site_fract_x
_atom_site_fract_y
_atom_site_fract_z
Si Si1 0.513446 0.845150 0.632128
Si Si2 0.612159 0.041516 0.581016
Si Si3 0.332098 0.253218 0.698269
Si Si4 0.569576 0.613059 0.914896
Si Si5 0.099915 0.726420 0.222416
Si Si6 0.827268 0.999983 0.584002
Si Si7 0.838097 0.332369 0.911246
O O1 0.413869 0.827738 0.627809
O O2 0.518979 0.759490 0.607964
O O3 0.550675 0.867653 0.715217
O O4 0.575905 0.936104 0.589177
O O5 0.652332 0.071627 0.500000
O O6 0.525397 0.050793 0.585616
O O7 0.675533 0.089252 0.649574
O O8 0.343167 0.171584 0.724364
O O9 0.302794 0.302009 0.756830
O O10 0.253713 0.215687 0.638366
O O11 0.470841 0.529160 0.908634
O O12 0.587235 0.687735 0.856797
O O13 0.634411 0.574340 0.895254
O O14 0.583974 0.640965 0.000000
O O15 0.169014 0.830987 0.225469
O O16 0.799772 0.999469 0.500000
O O17 0.932387 0.067614 0.586543
O O18 0.804813 0.902407 0.604289
O O19 0.818317 0.409159 0.885997
O O20 0.763422 0.236579 0.884771
O O21 0.833530 0.331587 0.000000
#
# Coordination Sequence:
#
# PCOD9585668 Si02
#       7
#    12  12  12  12  12  12  12
#     4   9  17  29  46  68  95 129 165 198 233 279
#     4   9  18  32  48  68  96 128 161 199 243 286
#     4  10  20  33  50  71  94 124 164 207 247 289
#     4   9  18  32  50  72  97 125 157 194 236 283
#     4  10  20  33  49  70  96 126 161 201 247 296
#     4   9  16  26  42  66  96 127 158 196 245 298
#     4   8  13  22  39  65  95 123 148 176 216 269
#
# _framework density 17.407603999999999
#
# number of rings (size 3 to 8) (size 9 to 14) (size 15 to 20)
#    0.000    2.857    0.000    2.571    0.000    4.286 
#    0.000    0.000    0.000    1.714    0.000    1.000 
#    0.000    0.000    0.000    0.000    0.000    0.000 
#
# Total GULP energy -468015.461417 kJ/mol
# GULP energy per Si atom -5571.612636 kJ/mol
# Density = 1.736798 g / cm^3
# Si number density = 17.407604 Si / 1000 Ang^3
#
#
#
# Elastic Constant Matrix: (Units=GPa)
#
#
# Indices 1 2 3 4 5 6 
#
# 1 41.6738 13.8926 17.8885 0.0000 0.0003 0.0000
# 2 13.8926 41.6738 17.8885 0.0000 -0.0003 0.0000
# 3 17.8885 17.8885 65.5701 0.0000 0.0000 0.0000
# 4 0.0000 0.0000 0.0000 15.8900 0.0000 -0.0003
# 5 0.0003 -0.0003 0.0000 0.0000 15.8900 0.0000
# 6 0.0000 0.0000 0.0000 -0.0003 0.0000 13.8906
#
#
#
# Elastic Compliance Matrix: (Units=1/GPa)
#
#
# Indices 1 2 3 4 5 6 
#
# 1 0.028913 -0.007082 -0.005956 0.000000 -0.000001 0.000000
# 2 -0.007082 0.028913 -0.005956 0.000000 0.000001 0.000000
# 3 -0.005956 -0.005956 0.018501 0.000000 0.000000 0.000000
# 4 0.000000 0.000000 0.000000 0.062933 0.000000 0.000001
# 5 -0.000001 0.000001 0.000000 0.000000 0.062933 0.000000
# 6 0.000000 0.000000 0.000000 0.000001 0.000000 0.071991
#
#
# Mechanical properties :
#
#
# Convention : Reuss Voigt Hill
#
# Bulk Modulus (GPa) = 26.08279 27.58412 26.83346
# Shear Modulus (GPa) = 15.38693 15.75068 15.56880
#
# Velocity S-wave (km/s) = 2.97630 3.01128 2.99384
# Velocity P-wave (km/s) = 5.17951 5.28875 5.23441
#
# Compressibility (1/GPa) = 0.03833946
#
# Stress axis : x y z
#
# Youngs Moduli (GPa) = 34.58606 34.58606 54.05242
#
# Poissons Ratio (x) = 0.24494 0.32193
# Poissons Ratio (y) = 0.24494 0.32193
# Poissons Ratio (z) = 0.20599 0.20599
#
# Static dielectric constant tensor:
#      x y z
#    x 1.601380 0.000000 0.000000 
#    y 0.000000 1.601380 0.000000 
#    z 0.000000 0.000000 1.593060 
# 
# From -- ./inp_files/2627.got.cif
#   From: 2010.05.17/outbox.cif.g08.bks.cpg/sg187_2_cif.got.tgz:2627.got - 2010.05.20 12:09:04.
