data_PCOD9585663
_publ_section_title
;
Structure prediction by ZEFSAII (Michael W. Deem and Ramdas Pophale) SiO2 
 PCOD9585663
Probable space group: P -6 M 2
;
_chemical_formula_sum "Si O2"
_cell_formula_units_Z 60
_cell_length_a 12.649152
_cell_length_b 12.649152
_cell_length_c 26.645649
_cell_angle_alpha 90.000000
_cell_angle_beta 90.000000
_cell_angle_gamma 120.000000
_cell_volume 3692.153574
_symmetry_space_group_name_H-M "P -6 M 2"
_symmetry_group_IT_number 187
_symmetry_cell_setting 'hexagonal'
loop_
_space_group_symop_operation_xyz
x,y,z
-x+y,-x,-z
-y,x-y,z
x,y,-z
-x+y,-x,z
-y,x-y,-z
-y,-x,-z
-x+y,y,-z
x,x-y,-z
-x+y,y,z
x,x-y,z
-y,-x,z
loop_
_atom_site_type_symbol
_atom_site_label
_atom_site_fract_x
_atom_site_fract_y
_atom_site_fract_z
Si Si1 0.585276 0.918282 0.000000
Si Si2 0.414847 0.332754 0.793421
Si Si3 0.999773 0.748599 0.304240
Si Si4 0.917807 0.332981 0.598004
Si Si5 0.748992 0.748545 0.500000
Si Si6 0.332842 0.919775 0.890092
O O1 0.642237 0.971391 0.054412
O O2 0.456719 0.913438 0.000000
O O3 0.563232 0.781616 0.000000
O O4 0.436545 0.218273 0.795350
O O5 0.542282 0.457719 0.786977
O O6 0.326691 0.310975 0.746445
O O7 0.354056 0.343181 0.844837
O O8 0.128368 0.871633 0.306324
O O9 0.888805 0.777610 0.305164
O O10 0.979188 0.663121 0.352125
O O11 0.923529 0.461765 0.596946
O O12 0.777455 0.222546 0.597949
O O13 0.980491 0.312771 0.549287
O O14 0.742635 0.871318 0.500000
O O15 0.889545 0.779090 0.500000
O O16 0.449066 0.898131 0.889527
O O17 0.208122 0.791879 0.883412
#
# Coordination Sequence:
#
# PCOD9585663 Si02
#       6
#     6  12  12  12   6  12
#     4   8  13  22  39  64  92 120 150 186 230 280
#     4  10  20  33  49  68  93 126 162 199 236 279
#     4  10  20  34  53  75  98 124 156 198 245 291
#     4  10  20  34  54  78 104 134 167 204 242 284
#     4  10  20  34  54  78 104 134 168 208 250 290
#     4   9  16  27  45  69  95 121 151 190 237 286
#
# _framework density 16.250678000000001
#
# number of rings (size 3 to 8) (size 9 to 14) (size 15 to 20)
#    0.000    2.400    0.000    3.100    0.000    1.600 
#    0.000    5.500    0.000   11.200    0.000    1.400 
#    0.000    0.000    0.000    0.000    0.000    0.000 
#
# Total GULP energy -334480.731851 kJ/mol
# GULP energy per Si atom -5574.678864 kJ/mol
# Density = 1.621369 g / cm^3
# Si number density = 16.250678 Si / 1000 Ang^3
#
#
#
# Elastic Constant Matrix: (Units=GPa)
#
#
# Indices 1 2 3 4 5 6 
#
# 1 100.3198 73.4286 78.8007 0.0000 0.0005 0.0000
# 2 73.4286 100.3198 78.8007 0.0000 -0.0005 0.0000
# 3 78.8007 78.8007 176.4341 0.0000 0.0000 0.0000
# 4 0.0000 0.0000 0.0000 21.2833 0.0000 -0.0005
# 5 0.0005 -0.0005 0.0000 0.0000 21.2833 0.0000
# 6 0.0000 0.0000 0.0000 -0.0005 0.0000 13.4456
#
#
#
# Elastic Compliance Matrix: (Units=1/GPa)
#
#
# Indices 1 2 3 4 5 6 
#
# 1 0.023431 -0.013756 -0.004321 0.000000 -0.000001 0.000000
# 2 -0.013756 0.023431 -0.004321 0.000000 0.000001 0.000000
# 3 -0.004321 -0.004321 0.009528 0.000000 0.000000 0.000000
# 4 0.000000 0.000000 0.000000 0.046985 0.000000 0.000002
# 5 -0.000001 0.000001 0.000000 0.000000 0.046985 0.000000
# 6 0.000000 0.000000 0.000000 0.000002 0.000000 0.074374
#
#
# Mechanical properties :
#
#
# Convention : Reuss Voigt Hill
#
# Bulk Modulus (GPa) = 86.25760 93.23709 89.74734
# Shear Modulus (GPa) = 18.28858 20.93869 19.61363
#
# Velocity S-wave (km/s) = 3.35834 3.59344 3.47788
# Velocity P-wave (km/s) = 8.26030 8.64383 8.45424
#
# Compressibility (1/GPa) = 0.01159318
#
# Stress axis : x y z
#
# Youngs Moduli (GPa) = 42.67860 42.67860 104.95666
#
# Poissons Ratio (x) = 0.58708 0.45353
# Poissons Ratio (y) = 0.58708 0.45353
# Poissons Ratio (z) = 0.18442 0.18442
#
# Static dielectric constant tensor:
#      x y z
#    x 1.511830 0.000000 0.000000 
#    y 0.000000 1.511830 0.000000 
#    z 0.000000 0.000000 1.567390 
# 
# From -- ./inp_files/4208.got.cif
#   From: 2010.05.17/outbox.cif.g08.bks.cpg/sg187_3_cif.got.tgz:4208.got - 2010.05.20 12:09:04.
