data_PCOD9585392
_publ_section_title
;
Structure prediction by ZEFSAII (Michael W. Deem and Ramdas Pophale) SiO2 
 PCOD9585392
Probable space group: P 63 M C
;
_chemical_formula_sum "Si O2"
_cell_formula_units_Z 84
_cell_length_a 21.168837
_cell_length_b 21.168837
_cell_length_c 11.193579
_cell_angle_alpha 90.000000
_cell_angle_beta 90.000000
_cell_angle_gamma 120.000000
_cell_volume 4344.037825
_symmetry_space_group_name_H-M "P 63 M C"
_symmetry_group_IT_number 186
_symmetry_cell_setting 'hexagonal'
loop_
_space_group_symop_operation_xyz
x,y,z
x-y,x,1/2+z
-y,x-y,z
-x,-y,1/2+z
-x+y,-x,z
y,-x+y,1/2+z
-x+y,y,z
x,x-y,z
-y,-x,z
y,x,1/2+z
x-y,-y,1/2+z
-x,-x+y,1/2+z
loop_
_atom_site_type_symbol
_atom_site_label
_atom_site_fract_x
_atom_site_fract_y
_atom_site_fract_z
Si Si1 0.136629 0.716343 0.639860
Si Si2 0.126061 0.728996 0.235926
Si Si3 0.188155 0.230393 0.323896
Si Si4 0.334867 0.812146 0.854676
Si Si5 0.252295 0.201474 0.091755
Si Si6 0.394611 0.933058 0.044901
Si Si7 0.529096 0.614463 0.433476
O O1 0.213176 0.786825 0.603768
O O2 0.147176 0.696346 0.772780
O O3 0.075296 0.738612 0.617466
O O4 0.118126 0.646367 0.562141
O O5 0.206020 0.793981 0.196250
O O6 0.084711 0.769000 0.288515
O O7 0.078150 0.667252 0.138663
O O8 0.127815 0.680916 0.344300
O O9 0.102445 0.204890 0.325063
O O10 0.207130 0.195934 0.210795
O O11 0.212387 0.225453 0.460576
O O12 0.407089 0.814178 0.804038
O O13 0.270374 0.729627 0.868576
O O14 0.358857 0.856624 0.976637
O O15 0.252111 0.126056 0.078443
O O16 0.473846 0.947692 0.093446
O O17 0.414829 0.998909 0.951839
O O18 0.453000 0.547001 0.396863
#
# Coordination Sequence:
#
# PCOD9585392 Si02
#       7
#    12  12  12  12  12  12  12
#     4  10  20  35  55  80 111 147 189 234 290 347
#     4  11  22  38  58  80 112 151 192 239 296 359
#     4  10  22  38  60  90 123 160 200 241 296 354
#     4  10  21  37  56  79 107 142 186 237 293 355
#     4  10  21  38  60  89 123 160 196 244 298 351
#     4  10  23  37  55  83 111 145 191 241 299 362
#     4  11  22  35  56  81 112 149 188 238 290 344
#
# _framework density 19.336848
#
# number of rings (size 3 to 8) (size 9 to 14) (size 15 to 20)
#    0.000    1.714    1.429    2.714    4.000    0.571 
#    0.000    2.857    0.000    7.143    0.000    0.000 
#    0.000    0.000    0.000    0.000    0.000    0.000 
#
# Total GULP energy -468082.960777 kJ/mol
# GULP energy per Si atom -5572.416200 kJ/mol
# Density = 1.929284 g / cm^3
# Si number density = 19.336848 Si / 1000 Ang^3
#
#
#
# Elastic Constant Matrix: (Units=GPa)
#
#
# Indices 1 2 3 4 5 6 
#
# 1 27.9818 22.4549 17.0831 0.0000 0.0000 0.0000
# 2 22.4549 27.9818 17.0831 0.0000 0.0000 0.0000
# 3 17.0831 17.0831 64.5581 0.0000 0.0000 0.0000
# 4 0.0000 0.0000 0.0000 33.7780 0.0000 0.0000
# 5 0.0000 0.0000 0.0000 0.0000 33.7780 0.0000
# 6 0.0000 0.0000 0.0000 0.0000 0.0000 2.7635
#
#
#
# Elastic Compliance Matrix: (Units=1/GPa)
#
#
# Indices 1 2 3 4 5 6 
#
# 1 0.102544 -0.078387 -0.006392 0.000000 0.000000 0.000000
# 2 -0.078387 0.102544 -0.006392 0.000000 0.000000 0.000000
# 3 -0.006392 -0.006392 0.018873 0.000000 0.000000 0.000000
# 4 0.000000 0.000000 0.000000 0.029605 0.000000 0.000000
# 5 0.000000 0.000000 0.000000 0.000000 0.029605 0.000000
# 6 0.000000 0.000000 0.000000 0.000000 0.000000 0.361864
#
#
# Mechanical properties :
#
#
# Convention : Reuss Voigt Hill
#
# Bulk Modulus (GPa) = 24.02825 25.97377 25.00101
# Shear Modulus (GPa) = 5.94352 18.32396 12.13374
#
# Velocity S-wave (km/s) = 1.75509 3.08168 2.50770
# Velocity P-wave (km/s) = 4.06943 5.11114 4.61974
#
# Compressibility (1/GPa) = 0.04161768
#
# Stress axis : x y z
#
# Youngs Moduli (GPa) = 9.75187 9.75187 52.98595
#
# Poissons Ratio (x) = 0.76442 0.33870
# Poissons Ratio (y) = 0.76442 0.33870
# Poissons Ratio (z) = 0.06234 0.06234
#
# Static dielectric constant tensor:
#      x y z
#    x 1.677600 0.000000 0.000000 
#    y 0.000000 1.677600 0.000000 
#    z 0.000000 0.000000 1.719690 
# 
# From -- ./inp_files/1900.got.cif
#   From: 2010.05.17/outbox.cif.g08.bks.cpg/sg186_1_cif.got.tgz:1900.got - 2010.05.20 12:07:08.
