data_PCOD9585190
_publ_section_title
;
Structure prediction by ZEFSAII (Michael W. Deem and Ramdas Pophale) SiO2 
 PCOD9585190
Probable space group: P 6 C C
;
_chemical_formula_sum "Si O2"
_cell_formula_units_Z 48
_cell_length_a 14.912267
_cell_length_b 14.912267
_cell_length_c 10.727102
_cell_angle_alpha 90.000000
_cell_angle_beta 90.000000
_cell_angle_gamma 120.000000
_cell_volume 2065.857608
_symmetry_space_group_name_H-M "P 6 C C"
_symmetry_group_IT_number 184
_symmetry_cell_setting 'hexagonal'
loop_
_space_group_symop_operation_xyz
x,y,z
x-y,x,z
-y,x-y,z
-x,-y,z
-x+y,-x,z
y,-x+y,z
-x+y,y,1/2+z
x,x-y,1/2+z
-y,-x,1/2+z
y,x,1/2+z
x-y,-y,1/2+z
-x,-x+y,1/2+z
loop_
_atom_site_type_symbol
_atom_site_label
_atom_site_fract_x
_atom_site_fract_y
_atom_site_fract_z
Si Si1 0.493301 0.886175 0.257470
Si Si2 0.079129 0.239072 0.125014
Si Si3 0.352744 0.178235 0.875265
Si Si4 0.396336 0.512484 0.982622
O O1 0.592649 0.877899 0.295528
O O2 0.420406 0.827421 0.372923
O O3 0.500000 0.000000 0.252590
O O4 0.458096 0.840842 0.120953
O O5 0.152654 0.190949 0.113743
O O6 0.099112 0.285900 0.264603
O O7 0.106199 0.309798 0.001278
O O8 0.417112 0.127674 0.934927
O O9 0.500000 0.500000 0.990318
#
# Coordination Sequence:
#
# PCOD9585190 Si02
#       4
#    12  12  12  12
#     4  10  24  43  74 111 156 194 258 314 381 456
#     4  12  29  48  78 110 162 204 272 322 399 462
#     4  12  26  48  79 120 156 212 261 322 400 482
#     4  10  24  43  74 111 156 194 258 314 381 456
#
# _framework density 23.234902999999999
#
# number of rings (size 3 to 8) (size 9 to 14) (size 15 to 20)
#    0.000    1.000    2.500    1.750   17.500    0.000 
#    1.500    2.500    0.000    0.000    0.000    0.000 
#    0.000    0.000    0.000    0.000    0.000    0.000 
#
# Total GULP energy -267434.278757 kJ/mol
# GULP energy per Si atom -5571.547474 kJ/mol
# Density = 2.318202 g / cm^3
# Si number density = 23.234903 Si / 1000 Ang^3
#
#
#
# Elastic Constant Matrix: (Units=GPa)
#
#
# Indices 1 2 3 4 5 6 
#
# 1 -80.8289 157.2812 -5.4962 0.0000 0.0000 0.0000
# 2 157.2812 -80.8289 -5.4962 0.0000 0.0000 0.0000
# 3 -5.4962 -5.4962 164.4395 0.0000 0.0000 0.0000
# 4 0.0000 0.0000 0.0000 25.7833 0.0000 0.0000
# 5 0.0000 0.0000 0.0000 0.0000 25.7833 0.0000
# 6 0.0000 0.0000 0.0000 0.0000 0.0000 -119.0551
#
#
#
# Elastic Compliance Matrix: (Units=1/GPa)
#
#
# Indices 1 2 3 4 5 6 
#
# 1 0.004472 0.008671 0.000439 0.000000 0.000000 0.000000
# 2 0.008671 0.004472 0.000439 0.000000 0.000000 0.000000
# 3 0.000439 0.000439 0.006111 0.000000 0.000000 0.000000
# 4 0.000000 0.000000 0.000000 0.038785 0.000000 0.000000
# 5 0.000000 0.000000 0.000000 0.000000 0.038785 0.000000
# 6 0.000000 0.000000 0.000000 0.000000 0.000000 -0.008399
#
#
# Mechanical properties :
#
#
# Convention : Reuss Voigt Hill
#
# Bulk Modulus (GPa) = 29.27894 32.81770 31.04832
# Shear Modulus (GPa) = 65.35204 -23.06482 21.14361
#
# Velocity S-wave (km/s) = 5.30921 -3.15410 3.01988
# Velocity P-wave (km/s) = 7.08606 0.94367 5.05484
#
# Compressibility (1/GPa) = 0.03415424
#
# Stress axis : x y z
#
# Youngs Moduli (GPa) = 223.62666 223.62666 163.64927
#
# Poissons Ratio (x) = -1.93917 -0.07189
# Poissons Ratio (y) = -1.93917 -0.07189
# Poissons Ratio (z) = -0.09824 -0.09824
#
# Static dielectric constant tensor:
#      x y z
#    x 1.969740 0.000000 0.000000 
#    y 0.000000 1.969740 0.000000 
#    z 0.000000 0.000000 2.004920 
# 
# From -- ./inp_files/550.got.cif
#   From: 2010.05.17/outbox.cif.g08.bks.cpg/sg184_cif.got.tgz:550.got - 2010.05.20 12:04:40.
