data_PCOD9585085
_publ_section_title
;
Structure prediction by ZEFSAII (Michael W. Deem and Ramdas Pophale) SiO2 
 PCOD9585085
Probable space group: P 6 M M
;
_chemical_formula_sum "Si O2"
_cell_formula_units_Z 72
_cell_length_a 24.000000
_cell_length_b 24.000000
_cell_length_c 9.000000
_cell_angle_alpha 90.000000
_cell_angle_beta 90.000000
_cell_angle_gamma 120.000000
_cell_volume 4489.475693
_symmetry_space_group_name_H-M "P 6 M M"
_symmetry_group_IT_number 183
_symmetry_cell_setting 'hexagonal'
loop_
_space_group_symop_operation_xyz
x,y,z
x-y,x,z
-y,x-y,z
-x,-y,z
-x+y,-x,z
y,-x+y,z
-x+y,y,z
x,x-y,z
-y,-x,z
y,x,z
x-y,-y,z
-x,-x+y,z
loop_
_atom_site_type_symbol
_atom_site_label
_atom_site_fract_x
_atom_site_fract_y
_atom_site_fract_z
Si Si1 0.405477 0.265840 0.792910
Si Si2 0.528438 0.604086 0.942455
Si Si3 0.623947 0.924889 0.485951
Si Si4 0.078126 0.601818 0.281446
Si Si5 0.196866 0.927618 0.942100
Si Si6 0.069566 0.263092 0.299340
O O1 0.427487 0.213744 0.815710
O O2 0.456956 0.338106 0.834797
O O3 0.383111 0.264990 0.625513
O O4 0.342146 0.244081 0.892629
O O5 0.459249 0.540752 0.921936
O O6 0.580387 0.580387 0.922499
O O7 0.531886 0.626448 0.112977
O O8 0.556540 0.901198 0.404995
O O9 0.672151 0.923241 0.366146
O O10 0.654453 0.000000 0.532350
O O11 0.100354 0.550177 0.309154
O O12 0.000000 0.562365 0.283849
O O13 0.125683 0.874318 0.890097
O O14 0.223501 0.000000 0.887525
O O15 0.195786 0.928531 0.120964
O O16 0.126741 0.253481 0.353442
O O17 0.000000 0.206367 0.344786
#
# Coordination Sequence:
#
# PCOD9585085 Si02
#       6
#    12  12  12  12  12  12
#     4  11  21  30  42  65  96 123 148 179 216 260
#     4   9  17  31  51  71  91 115 145 182 221 262
#     4  10  18  27  42  63  90 121 149 179 216 260
#     4   8  15  28  46  68  91 115 143 177 218 260
#     4   9  17  29  45  63  86 117 151 186 223 266
#     4   9  17  29  44  61  82 113 151 187 225 269
#
# _framework density 16.037507000000002
#
# number of rings (size 3 to 8) (size 9 to 14) (size 15 to 20)
#    0.000    2.667    0.000    4.000    0.000    3.333 
#    0.000    2.500    0.000    0.667    0.000    2.333 
#    0.000    1.333    0.000    5.333    0.000    7.333 
#
# Total GULP energy -400959.135520 kJ/mol
# GULP energy per Si atom -5568.876882 kJ/mol
# Density = 1.600101 g / cm^3
# Si number density = 16.037507 Si / 1000 Ang^3
#
#
#
# Elastic Constant Matrix: (Units=GPa)
#
#
# Indices 1 2 3 4 5 6 
#
# 1 40.3490 27.2364 18.8723 0.0000 0.0000 0.0000
# 2 27.2364 40.3490 18.8723 0.0000 0.0000 0.0000
# 3 18.8723 18.8723 4.3508 0.0000 0.0000 0.0000
# 4 0.0000 0.0000 0.0000 10.6850 0.0000 0.0000
# 5 0.0000 0.0000 0.0000 0.0000 10.6850 0.0000
# 6 0.0000 0.0000 0.0000 0.0000 0.0000 6.5563
#
#
#
# Elastic Compliance Matrix: (Units=1/GPa)
#
#
# Indices 1 2 3 4 5 6 
#
# 1 0.032930 -0.043332 0.045120 0.000000 0.000000 0.000000
# 2 -0.043332 0.032930 0.045120 0.000000 0.000000 0.000000
# 3 0.045120 0.045120 -0.161582 0.000000 0.000000 0.000000
# 4 0.000000 0.000000 0.000000 0.093589 0.000000 0.000000
# 5 0.000000 0.000000 0.000000 0.000000 0.093589 0.000000
# 6 0.000000 0.000000 0.000000 0.000000 0.000000 0.152526
#
#
# Mechanical properties :
#
#
# Convention : Reuss Voigt Hill
#
# Bulk Modulus (GPa) = -524.24646 23.89008 -250.17819
# Shear Modulus (GPa) = 33.43717 6.92310 20.18013
#
# Velocity S-wave (km/s) = 4.57106 2.07995 3.55111
# Velocity P-wave (km/s) = 17.31294 4.54939 11.81188
#
# Compressibility (1/GPa) = -0.00190750
#
# Stress axis : x y z
#
# Youngs Moduli (GPa) = 30.36706 30.36706 -6.18882
#
# Poissons Ratio (x) = 1.31588 0.27924
# Poissons Ratio (y) = 1.31588 0.27924
# Poissons Ratio (z) = -1.37015 -1.37015
#
# Static dielectric constant tensor:
#      x y z
#    x 1.540970 0.000000 0.000000 
#    y 0.000000 1.540970 0.000000 
#    z 0.000000 0.000000 1.551700 
# 
# From -- ./inp_files/1136.got.cif
#   From: 2010.05.17/outbox.ucp.g08.bks.cvg/sg183_1_cif.got.tgz:1136.got - 2010.06.11 15:21:10.
