data_PCOD9585864
_publ_section_title
;
Structure prediction by ZEFSAII (Michael W. Deem and Ramdas Pophale) SiO2 
 PCOD9585864
Probable space group: P -6 C 2
;
_chemical_formula_sum "Si O2"
_cell_formula_units_Z 70
_cell_length_a 20.376769
_cell_length_b 20.376769
_cell_length_c 15.215893
_cell_angle_alpha 90.000000
_cell_angle_beta 90.000000
_cell_angle_gamma 120.000000
_cell_volume 5471.403218
_symmetry_space_group_name_H-M "P -6 C 2"
_symmetry_group_IT_number 188
_symmetry_cell_setting 'hexagonal'
loop_
_space_group_symop_operation_xyz
x,y,z
-x+y,-x,1/2-z
-y,x-y,z
x,y,1/2-z
-x+y,-x,z
-y,x-y,1/2-z
-y,-x,-z
-x+y,y,-z
x,x-y,-z
-x+y,y,1/2+z
x,x-y,1/2+z
-y,-x,1/2+z
loop_
_atom_site_type_symbol
_atom_site_label
_atom_site_fract_x
_atom_site_fract_y
_atom_site_fract_z
Si Si1 0.190034 0.950999 0.848889
Si Si2 0.246256 0.580552 0.750000
Si Si3 0.000000 0.000000 0.855605
Si Si4 0.042666 0.789452 0.849703
Si Si5 0.918497 0.092197 0.398106
Si Si6 0.471816 0.806606 0.450449
Si Si7 0.258917 0.899862 0.993498
O O1 0.209453 0.941456 0.750000
O O2 0.107076 0.877706 0.867878
O O3 0.246625 0.946708 0.917297
O O4 0.188428 0.028599 0.856124
O O5 0.262551 0.667424 0.750000
O O6 0.209013 0.543305 0.655314
O O7 0.083725 0.058160 0.887972
O O8 0.000000 0.000000 0.750000
O O9 0.053010 0.772978 0.750000
O O10 0.962459 0.785788 0.860223
O O11 0.057551 0.737743 0.916533
O O12 0.903489 0.096511 0.500000
O O13 0.409716 0.819431 0.500000
O O14 0.466019 0.733010 0.500000
O O15 0.555746 0.876288 0.469611
O O16 0.180729 0.819272 0.000000
#
# Coordination Sequence:
#
# PCOD9585864 Si02
#       7
#    12   6   4  12  12  12  12
#     4  10  19  30  40  56  77 103 138 175 216 256
#     4  10  18  30  52  72  90 104 124 162 214 252
#     4  12  22  26  34  57  70  98 142 187 221 247
#     4  10  19  32  42  56  78 108 143 178 219 259
#     4  12  20  28  41  53  77 105 144 186 226 249
#     4  11  19  34  49  68  89 105 132 168 204 254
#     4   9  20  32  43  59  81 106 128 165 214 252
#
# _framework density 12.793792
#
# number of rings (size 3 to 8) (size 9 to 14) (size 15 to 20)
#    0.171    1.371    5.143    2.229    1.200    0.000 
#    6.171    0.000    0.000    0.000    0.000    0.000 
#    0.000    0.000    0.000    0.000    0.000    0.000 
#
# Total GULP energy -389905.189343 kJ/mol
# GULP energy per Si atom -5570.074133 kJ/mol
# Density = 1.276467 g / cm^3
# Si number density = 12.793792 Si / 1000 Ang^3
#
#
#
# Elastic Constant Matrix: (Units=GPa)
#
#
# Indices 1 2 3 4 5 6 
#
# 1 54.1592 28.1456 36.4903 0.0001 0.0000 0.0000
# 2 28.1456 54.1592 36.4903 -0.0001 0.0000 0.0000
# 3 36.4903 36.4903 111.7079 0.0000 0.0000 0.0000
# 4 0.0001 -0.0001 0.0000 3.7232 0.0000 0.0000
# 5 0.0000 0.0000 0.0000 0.0000 3.7232 0.0001
# 6 0.0000 0.0000 0.0000 0.0000 0.0001 13.0068
#
#
#
# Elastic Compliance Matrix: (Units=1/GPa)
#
#
# Indices 1 2 3 4 5 6 
#
# 1 0.027773 -0.010669 -0.005587 -0.000001 0.000000 0.000000
# 2 -0.010669 0.027773 -0.005587 0.000001 0.000000 0.000000
# 3 -0.005587 -0.005587 0.012602 0.000000 0.000000 0.000000
# 4 -0.000001 0.000001 0.000000 0.268584 0.000000 0.000000
# 5 0.000000 0.000000 0.000000 0.000000 0.268584 -0.000002
# 6 0.000000 0.000000 0.000000 0.000000 -0.000002 0.076883
#
#
# Mechanical properties :
#
#
# Convention : Reuss Voigt Hill
#
# Bulk Modulus (GPa) = 40.88030 46.91983 43.90007
# Shear Modulus (GPa) = 6.81163 12.01732 9.41447
#
# Velocity S-wave (km/s) = 2.30992 3.06814 2.71562
# Velocity P-wave (km/s) = 6.25595 7.02174 6.64988
#
# Compressibility (1/GPa) = 0.02446166
#
# Stress axis : x y z
#
# Youngs Moduli (GPa) = 36.00635 36.00635 79.35158
#
# Poissons Ratio (x) = 0.38414 0.44336
# Poissons Ratio (y) = 0.38414 0.44336
# Poissons Ratio (z) = 0.20118 0.20118
#
# Static dielectric constant tensor:
#      x y z
#    x 1.408190 0.000000 0.000000 
#    y 0.000000 1.408190 0.000000 
#    z 0.000000 0.000000 1.452170 
# 
# From -- ./inp_files/3332.got.cif
#   From: 2010.05.17/outbox.cif.g08.bks.cpg/sg188_2_cif.got.tgz:3332.got - 2010.05.20 12:11:46.
