data_PCOD9585135
_publ_section_title
;
Structure prediction by ZEFSAII (Michael W. Deem and Ramdas Pophale) SiO2 
 PCOD9585135
Probable space group: P 6 C C
;
_chemical_formula_sum "Si O2"
_cell_formula_units_Z 78
_cell_length_a 21.838426
_cell_length_b 21.838426
_cell_length_c 9.098638
_cell_angle_alpha 90.000000
_cell_angle_beta 90.000000
_cell_angle_gamma 120.000000
_cell_volume 3757.938644
_symmetry_space_group_name_H-M "P 6 C C"
_symmetry_group_IT_number 184
_symmetry_cell_setting 'hexagonal'
loop_
_space_group_symop_operation_xyz
x,y,z
x-y,x,z
-y,x-y,z
-x,-y,z
-x+y,-x,z
y,-x+y,z
-x+y,y,1/2+z
x,x-y,1/2+z
-y,-x,1/2+z
y,x,1/2+z
x-y,-y,1/2+z
-x,-x+y,1/2+z
loop_
_atom_site_type_symbol
_atom_site_label
_atom_site_fract_x
_atom_site_fract_y
_atom_site_fract_z
Si Si1 0.770695 0.061611 0.554010
Si Si2 0.538390 0.695691 0.565430
Si Si3 0.701905 0.193957 0.908516
Si Si4 0.898318 0.464655 0.004142
Si Si5 0.352352 0.255716 0.057043
Si Si6 0.153322 0.293332 0.801582
Si Si7 0.500000 0.500000 0.752304
O O1 0.735423 0.111768 0.553561
O O2 0.831268 0.091475 0.680181
O O3 0.810184 0.068741 0.398715
O O4 0.704456 0.984694 0.579125
O O5 0.517401 0.700264 0.734403
O O6 0.511956 0.738857 0.464545
O O7 0.503420 0.613553 0.520651
O O8 0.627949 0.181840 0.971298
O O9 0.696076 0.125612 0.994661
O O10 0.946501 0.506019 0.863722
O O11 0.945216 0.507219 0.145400
O O12 0.353310 0.218476 0.208261
O O13 0.320722 0.197811 0.927945
#
# Coordination Sequence:
#
# PCOD9585135 Si02
#       7
#    12  12  12  12  12  12   6
#     4  11  21  36  60  87 125 169 206 252 307 373
#     4  12  25  44  65  92 125 164 216 262 322 384
#     4  12  25  44  65  92 125 164 216 262 322 384
#     4  11  26  44  66  94 128 166 214 274 326 390
#     4  11  21  36  60  87 125 169 206 252 307 373
#     4  10  20  38  52  90 123 162 211 240 302 366
#     4  10  24  46  64  98 130 158 208 282 328 384
#
# _framework density 20.756060999999999
#
# number of rings (size 3 to 8) (size 9 to 14) (size 15 to 20)
#    0.000    0.923    6.154    0.923    6.462    0.000 
#    0.923    0.000    0.000    0.000    0.000    0.000 
#    0.000    0.000    0.000  426.462    0.000    0.000 
#
# Total GULP energy -434266.044650 kJ/mol
# GULP energy per Si atom -5567.513393 kJ/mol
# Density = 2.070882 g / cm^3
# Si number density = 20.756061 Si / 1000 Ang^3
#
#
#
# Elastic Constant Matrix: (Units=GPa)
#
#
# Indices 1 2 3 4 5 6 
#
# 1 59.8191 13.6453 11.2444 0.0000 0.0000 0.0000
# 2 13.6453 59.8191 11.2444 0.0000 0.0000 0.0000
# 3 11.2444 11.2444 128.7863 0.0000 0.0000 0.0000
# 4 0.0000 0.0000 0.0000 20.5275 0.0000 0.0000
# 5 0.0000 0.0000 0.0000 0.0000 20.5275 0.0000
# 6 0.0000 0.0000 0.0000 0.0000 0.0000 23.0869
#
#
#
# Elastic Compliance Matrix: (Units=1/GPa)
#
#
# Indices 1 2 3 4 5 6 
#
# 1 0.017822 -0.003836 -0.001221 0.000000 0.000000 0.000000
# 2 -0.003836 0.017822 -0.001221 0.000000 0.000000 0.000000
# 3 -0.001221 -0.001221 0.007978 0.000000 0.000000 0.000000
# 4 0.000000 0.000000 0.000000 0.048715 0.000000 0.000000
# 5 0.000000 0.000000 0.000000 0.000000 0.048715 0.000000
# 6 0.000000 0.000000 0.000000 0.000000 0.000000 0.043315
#
#
# Mechanical properties :
#
#
# Convention : Reuss Voigt Hill
#
# Bulk Modulus (GPa) = 32.19031 35.63254 33.91142
# Shear Modulus (GPa) = 24.12230 26.98107 25.55168
#
# Velocity S-wave (km/s) = 3.41278 3.60934 3.51243
# Velocity P-wave (km/s) = 5.57422 5.88000 5.72915
#
# Compressibility (1/GPa) = 0.03106525
#
# Stress axis : x y z
#
# Youngs Moduli (GPa) = 56.11174 56.11174 125.34415
#
# Poissons Ratio (x) = 0.21523 0.15306
# Poissons Ratio (y) = 0.21523 0.15306
# Poissons Ratio (z) = 0.06852 0.06852
#
# Static dielectric constant tensor:
#      x y z
#    x 1.844250 0.000000 0.000000 
#    y 0.000000 1.844250 0.000000 
#    z 0.000000 0.000000 1.781360 
# 
# From -- ./inp_files/386.got.cif
#   From: 2010.05.17/outbox.cif.g08.bks.cpg/sg184_cif.got.tgz:386.got - 2010.05.20 12:04:40.
