data_PCOD9585999
_publ_section_title
;
Structure prediction by ZEFSAII (Michael W. Deem and Ramdas Pophale) SiO2 
 PCOD9585999
Probable space group: P -6 C 2
;
_chemical_formula_sum "Si O2"
_cell_formula_units_Z 30
_cell_length_a 16.412659
_cell_length_b 16.412659
_cell_length_c 5.496709
_cell_angle_alpha 90.000000
_cell_angle_beta 90.000000
_cell_angle_gamma 120.000000
_cell_volume 1282.304807
_symmetry_space_group_name_H-M "P -6 C 2"
_symmetry_group_IT_number 188
_symmetry_cell_setting 'hexagonal'
loop_
_space_group_symop_operation_xyz
x,y,z
-x+y,-x,1/2-z
-y,x-y,z
x,y,1/2-z
-x+y,-x,z
-y,x-y,1/2-z
-y,-x,-z
-x+y,y,-z
x,x-y,-z
-x+y,y,1/2+z
x,x-y,1/2+z
-y,-x,1/2+z
loop_
_atom_site_type_symbol
_atom_site_label
_atom_site_fract_x
_atom_site_fract_y
_atom_site_fract_z
Si Si1 0.159679 0.749910 0.750000
Si Si2 0.899778 0.188861 0.750000
Si Si3 0.560866 0.542306 0.250000
Si Si4 0.492234 0.265830 0.750000
Si Si5 0.084393 0.880851 0.250000
O O1 0.220762 0.779239 0.500000
O O2 0.109395 0.813399 0.750000
O O3 0.076215 0.642983 0.750000
O O4 0.869448 0.130553 0.500000
O O5 0.840753 0.242401 0.750000
O O6 0.011364 0.242429 0.750000
O O7 0.510167 0.489834 0.500000
O O8 0.661433 0.546399 0.250000
O O9 0.542519 0.271260 0.500000
O O10 0.075437 0.924564 0.500000
#
# Coordination Sequence:
#
# PCOD9585999 Si02
#       5
#     6   6   6   6   6
#     4  10  23  38  70 100 139 183 239 287 371 414
#     4  10  21  34  59  93 132 174 223 277 324 401
#     4  12  26  46  72 108 154 186 256 322 362 456
#     4  10  23  38  70 100 139 183 239 287 371 414
#     4  10  21  34  59  93 132 174 223 277 324 401
#
# _framework density 23.395372999999999
#
# number of rings (size 3 to 8) (size 9 to 14) (size 15 to 20)
#    0.000    1.600    0.000    3.600   22.400    0.000 
#    0.000    0.000    0.000   24.000    0.000    0.000 
#    0.000    0.000    0.000    0.000    0.000    0.000 
#
# Total GULP energy -167626.744707 kJ/mol
# GULP energy per Si atom -5587.558157 kJ/mol
# Density = 2.334212 g / cm^3
# Si number density = 23.395373 Si / 1000 Ang^3
#
#
#
# Elastic Constant Matrix: (Units=GPa)
#
#
# Indices 1 2 3 4 5 6 
#
# 1 97.4336 40.4346 56.1000 0.0001 0.0000 0.0000
# 2 40.4346 97.4336 56.1000 -0.0001 0.0000 0.0000
# 3 56.1000 56.1000 296.0037 0.0000 0.0000 0.0000
# 4 0.0001 -0.0001 0.0000 24.9983 0.0000 0.0000
# 5 0.0000 0.0000 0.0000 0.0000 24.9983 0.0001
# 6 0.0000 0.0000 0.0000 0.0000 0.0001 28.4995
#
#
#
# Elastic Compliance Matrix: (Units=1/GPa)
#
#
# Indices 1 2 3 4 5 6 
#
# 1 0.013060 -0.004484 -0.001625 0.000000 0.000000 0.000000
# 2 -0.004484 0.013060 -0.001625 0.000000 0.000000 0.000000
# 3 -0.001625 -0.001625 0.003994 0.000000 0.000000 0.000000
# 4 0.000000 0.000000 0.000000 0.040003 0.000000 0.000000
# 5 0.000000 0.000000 0.000000 0.000000 0.040003 0.000000
# 6 0.000000 0.000000 0.000000 0.000000 0.000000 0.035088
#
#
# Mechanical properties :
#
#
# Convention : Reuss Voigt Hill
#
# Bulk Modulus (GPa) = 68.28241 88.46001 78.37121
# Shear Modulus (GPa) = 30.20056 38.24830 34.22443
#
# Velocity S-wave (km/s) = 3.59678 4.04773 3.82890
# Velocity P-wave (km/s) = 6.81900 7.72907 7.28825
#
# Compressibility (1/GPa) = 0.01464506
#
# Stress axis : x y z
#
# Youngs Moduli (GPa) = 76.56902 76.56902 250.34843
#
# Poissons Ratio (x) = 0.34334 0.40691
# Poissons Ratio (y) = 0.34334 0.40691
# Poissons Ratio (z) = 0.12445 0.12445
#
# Static dielectric constant tensor:
#      x y z
#    x 1.839550 0.000000 0.000000 
#    y 0.000000 1.839550 0.000000 
#    z 0.000000 0.000000 2.026440 
# 
# From -- ./inp_files/22.got.cif
#   From: 2010.05.17/outbox.cif.g08.bks.cpg/sg188_1_cif.got.tgz:22.got - 2010.05.20 12:11:46.
