data_PCOD9585560
_publ_section_title
;
Structure prediction by ZEFSAII (Michael W. Deem and Ramdas Pophale) SiO2 
 PCOD9585560
Probable space group: P -6 M 2
;
_chemical_formula_sum "Si O2"
_cell_formula_units_Z 44
_cell_length_a 15.777892
_cell_length_b 15.777892
_cell_length_c 12.463742
_cell_angle_alpha 90.000000
_cell_angle_beta 90.000000
_cell_angle_gamma 120.000000
_cell_volume 2687.057996
_symmetry_space_group_name_H-M "P -6 M 2"
_symmetry_group_IT_number 187
_symmetry_cell_setting 'hexagonal'
loop_
_space_group_symop_operation_xyz
x,y,z
-x+y,-x,-z
-y,x-y,z
x,y,-z
-x+y,-x,z
-y,x-y,-z
-y,-x,-z
-x+y,y,-z
x,x-y,-z
-x+y,y,z
x,x-y,z
-y,-x,z
loop_
_atom_site_type_symbol
_atom_site_label
_atom_site_fract_x
_atom_site_fract_y
_atom_site_fract_z
Si Si1 0.981803 0.391241 0.301861
Si Si2 0.537716 0.871552 0.500000
Si Si3 0.705919 0.950204 0.873765
Si Si4 0.195330 0.097665 0.761376
Si Si5 0.000000 0.000000 0.372065
Si Si6 0.802545 0.197456 0.627732
O O1 0.986513 0.493257 0.282670
O O2 0.871450 0.310014 0.336625
O O3 0.059087 0.409029 0.397277
O O4 0.014668 0.354467 0.198526
O O5 0.425108 0.850216 0.500000
O O6 0.541610 0.770805 0.500000
O O7 0.674473 0.837237 0.854988
O O8 0.817919 0.015579 0.834718
O O9 0.698392 0.964505 0.000000
O O10 0.291204 0.145602 0.687723
O O11 0.106949 0.053475 0.678913
O O12 0.000000 0.000000 0.500000
O O13 0.806995 0.193006 0.500000
#
# Coordination Sequence:
#
# PCOD9585560 Si02
#       6
#    12   6  12   6   2   6
#     4  10  21  36  55  79 108 141 184 231 285 335
#     4  10  19  33  54  80 110 140 174 217 273 344
#     4  10  20  35  55  79 108 144 186 226 272 327
#     4  10  20  34  50  80 112 147 185 220 260 322
#     4  12  21  33  49  80 127 159 189 211 266 325
#     4  10  19  35  53  76 109 141 181 227 270 325
#
# _framework density 16.374786
#
# number of rings (size 3 to 8) (size 9 to 14) (size 15 to 20)
#    0.000    1.909    2.727    1.773    0.000    0.545 
#    0.818    0.000    0.000    0.545    0.000    0.000 
#    0.000    0.000    0.000    0.000    0.000    0.000 
#
# Total GULP energy -245310.553254 kJ/mol
# GULP energy per Si atom -5575.239847 kJ/mol
# Density = 1.633752 g / cm^3
# Si number density = 16.374786 Si / 1000 Ang^3
#
#
#
# Elastic Constant Matrix: (Units=GPa)
#
#
# Indices 1 2 3 4 5 6 
#
# 1 83.6771 52.4843 53.2197 0.0000 -0.0011 0.0000
# 2 52.4843 83.6771 53.2197 0.0000 0.0011 0.0000
# 3 53.2197 53.2197 132.9982 0.0000 0.0000 0.0000
# 4 0.0000 0.0000 0.0000 12.0589 0.0000 0.0011
# 5 -0.0011 0.0011 0.0000 0.0000 12.0589 0.0000
# 6 0.0000 0.0000 0.0000 0.0011 0.0000 15.5964
#
#
#
# Elastic Compliance Matrix: (Units=1/GPa)
#
#
# Indices 1 2 3 4 5 6 
#
# 1 0.021373 -0.010686 -0.004277 0.000000 0.000003 0.000000
# 2 -0.010686 0.021373 -0.004277 0.000000 -0.000003 0.000000
# 3 -0.004277 -0.004277 0.010941 0.000000 0.000000 0.000000
# 4 0.000000 0.000000 0.000000 0.082927 0.000000 -0.000006
# 5 0.000003 -0.000003 0.000000 0.000000 0.082927 0.000000
# 6 0.000000 0.000000 0.000000 -0.000006 0.000000 0.064117
#
#
# Mechanical properties :
#
#
# Convention : Reuss Voigt Hill
#
# Bulk Modulus (GPa) = 65.74710 68.68885 67.21798
# Shear Modulus (GPa) = 15.28093 17.37141 16.32617
#
# Velocity S-wave (km/s) = 3.05814 3.26062 3.16101
# Velocity P-wave (km/s) = 7.26004 7.49764 7.37980
#
# Compressibility (1/GPa) = 0.01520980
#
# Stress axis : x y z
#
# Youngs Moduli (GPa) = 46.78808 46.78808 91.39562
#
# Poissons Ratio (x) = 0.49996 0.39086
# Poissons Ratio (y) = 0.49996 0.39086
# Poissons Ratio (z) = 0.20009 0.20009
#
# Static dielectric constant tensor:
#      x y z
#    x 1.733920 0.000000 0.000000 
#    y 0.000000 1.733920 0.000000 
#    z 0.000000 0.000000 1.519040 
# 
# From -- ./inp_files/1459.got.cif
#   From: 2010.05.17/outbox.cif.g08.bks.cpg/sg187_1_cif.got.tgz:1459.got - 2010.05.20 12:09:04.
