data_PCOD9585461
_publ_section_title
;
Structure prediction by ZEFSAII (Michael W. Deem and Ramdas Pophale) SiO2 
 PCOD9585461
Probable space group: P -6 M 2
;
_chemical_formula_sum "Si O2"
_cell_formula_units_Z 60
_cell_length_a 22.253205
_cell_length_b 22.253205
_cell_length_c 7.812161
_cell_angle_alpha 90.000000
_cell_angle_beta 90.000000
_cell_angle_gamma 120.000000
_cell_volume 3350.325125
_symmetry_space_group_name_H-M "P -6 M 2"
_symmetry_group_IT_number 187
_symmetry_cell_setting 'hexagonal'
loop_
_space_group_symop_operation_xyz
x,y,z
-x+y,-x,-z
-y,x-y,z
x,y,-z
-x+y,-x,z
-y,x-y,-z
-y,-x,-z
-x+y,y,-z
x,x-y,-z
-x+y,y,z
x,x-y,z
-y,-x,z
loop_
_atom_site_type_symbol
_atom_site_label
_atom_site_fract_x
_atom_site_fract_y
_atom_site_fract_z
Si Si1 0.416087 0.583914 0.193120
Si Si2 0.135736 0.998712 0.291227
Si Si3 0.785918 0.078375 0.293763
Si Si4 0.290001 0.446898 0.209783
Si Si5 0.627892 0.625987 0.797146
Si Si6 0.492325 0.507676 0.307383
O O1 0.342943 0.526083 0.269017
O O2 0.458282 0.541719 0.188509
O O3 0.401866 0.598135 0.000000
O O4 0.135654 0.996823 0.500000
O O5 0.120014 0.060007 0.244107
O O6 0.214015 0.024006 0.234286
O O7 0.075627 0.924374 0.230120
O O8 0.788714 0.079136 0.500000
O O9 0.845440 0.154561 0.234472
O O10 0.707746 0.052503 0.243018
O O11 0.212163 0.424325 0.262668
O O12 0.321183 0.398373 0.265718
O O13 0.291817 0.448161 0.000000
O O14 0.574100 0.550578 0.722921
O O15 0.619162 0.621135 0.000000
O O16 0.478635 0.521366 0.500000
#
# Coordination Sequence:
#
# PCOD9585461 Si02
#       6
#     6  12  12  12  12   6
#     4   8  14  26  42  60  86 118 152 192 232 272
#     4   8  13  22  38  60  87 122 165 210 250 286
#     4   9  18  31  45  65  95 125 153 192 240 284
#     4   8  14  25  40  60  87 117 152 195 237 273
#     4  10  19  31  48  68  92 121 153 190 230 276
#     4  10  18  30  50  70  88 112 144 182 226 272
#
# _framework density 17.908709000000002
#
# number of rings (size 3 to 8) (size 9 to 14) (size 15 to 20)
#    0.000    3.200    0.000    4.100    0.000    2.000 
#    0.600    0.000    0.000   14.400    0.000    0.000 
#    1.000    1.600    1.800    0.000    1.800    0.000 
#
# Total GULP energy -334138.978556 kJ/mol
# GULP energy per Si atom -5568.982976 kJ/mol
# Density = 1.786795 g / cm^3
# Si number density = 17.908709 Si / 1000 Ang^3
#
#
#
# Elastic Constant Matrix: (Units=GPa)
#
#
# Indices 1 2 3 4 5 6 
#
# 1 108.4501 79.8401 10.2744 0.0000 0.0001 0.0000
# 2 79.8401 108.4501 10.2744 0.0000 -0.0001 0.0000
# 3 10.2744 10.2744 34.6826 0.0000 0.0000 0.0000
# 4 0.0000 0.0000 0.0000 8.9102 0.0000 -0.0001
# 5 0.0001 -0.0001 0.0000 0.0000 8.9102 0.0000
# 6 0.0000 0.0000 0.0000 -0.0001 0.0000 14.3050
#
#
#
# Elastic Compliance Matrix: (Units=1/GPa)
#
#
# Indices 1 2 3 4 5 6 
#
# 1 0.020221 -0.014732 -0.001626 0.000000 0.000000 0.000000
# 2 -0.014732 0.020221 -0.001626 0.000000 0.000000 0.000000
# 3 -0.001626 -0.001626 0.029796 0.000000 0.000000 0.000000
# 4 0.000000 0.000000 0.000000 0.112230 0.000000 0.000000
# 5 0.000000 0.000000 0.000000 0.000000 0.112230 0.000000
# 6 0.000000 0.000000 0.000000 0.000000 0.000000 0.069906
#
#
# Mechanical properties :
#
#
# Convention : Reuss Voigt Hill
#
# Bulk Modulus (GPa) = 29.18053 50.26232 39.72142
# Shear Modulus (GPa) = 12.13608 16.50469 14.32039
#
# Velocity S-wave (km/s) = 2.60602 3.03908 2.83085
# Velocity P-wave (km/s) = 5.03831 6.35936 5.73699
#
# Compressibility (1/GPa) = 0.03426943
#
# Stress axis : x y z
#
# Youngs Moduli (GPa) = 49.45457 49.45457 33.56131
#
# Poissons Ratio (x) = 0.72857 0.05457
# Poissons Ratio (y) = 0.72857 0.05457
# Poissons Ratio (z) = 0.08041 0.08041
#
# Static dielectric constant tensor:
#      x y z
#    x 1.619130 0.000000 0.000000 
#    y 0.000000 1.619130 0.000000 
#    z 0.000000 0.000000 1.677660 
# 
# From -- ./inp_files/702.got.cif
#   From: 2010.05.17/outbox.cif.g08.bks.cpg/sg187_1_cif.got.tgz:702.got - 2010.05.20 12:09:04.
