data_PCOD9585319
_publ_section_title
;
Structure prediction by ZEFSAII (Michael W. Deem and Ramdas Pophale) SiO2 
 PCOD9585319
Probable space group: P 63 M C
;
_chemical_formula_sum "Si O2"
_cell_formula_units_Z 84
_cell_length_a 24.086007
_cell_length_b 24.086007
_cell_length_c 10.140504
_cell_angle_alpha 90.000000
_cell_angle_beta 90.000000
_cell_angle_gamma 120.000000
_cell_volume 5094.713761
_symmetry_space_group_name_H-M "P 63 M C"
_symmetry_group_IT_number 186
_symmetry_cell_setting 'hexagonal'
loop_
_space_group_symop_operation_xyz
x,y,z
x-y,x,1/2+z
-y,x-y,z
-x,-y,1/2+z
-x+y,-x,z
y,-x+y,1/2+z
-x+y,y,z
x,x-y,z
-y,-x,z
y,x,1/2+z
x-y,-y,1/2+z
-x,-x+y,1/2+z
loop_
_atom_site_type_symbol
_atom_site_label
_atom_site_fract_x
_atom_site_fract_y
_atom_site_fract_z
Si Si1 0.612634 0.028343 0.023710
Si Si2 0.067126 0.472815 0.800047
Si Si3 0.744980 0.128882 0.903084
Si Si4 0.646499 0.725307 0.119273
Si Si5 0.824746 0.055069 0.946471
Si Si6 0.753206 0.780374 0.721857
Si Si7 0.615164 0.744900 0.832115
O O1 0.583678 0.045117 0.148337
O O2 0.629022 0.975499 0.080936
O O3 0.677395 0.091958 0.977699
O O4 0.567690 0.993167 0.898264
O O5 0.095125 0.547563 0.832390
O O6 0.111981 0.440688 0.814533
O O7 0.797645 0.202355 0.934962
O O8 0.730233 0.120627 0.746376
O O9 0.779495 0.087305 0.935469
O O10 0.719696 0.757277 0.165941
O O11 0.634770 0.752985 0.986210
O O12 0.893422 0.106579 0.891170
O O13 0.791050 0.991613 0.858961
O O14 0.828973 0.047114 0.101875
O O15 0.679142 0.758250 0.752824
O O16 0.597825 0.798913 0.793436
#
# Coordination Sequence:
#
# PCOD9585319 Si02
#       7
#    12  12  12  12  12  12  12
#     4  11  18  34  51  71 101 137 177 214 261 317
#     4  11  22  35  53  74 102 137 177 221 266 317
#     4  10  18  28  47  72  99 135 176 219 262 312
#     4  10  16  31  47  68 105 140 173 215 256 310
#     4  10  19  29  44  66  97 138 174 207 251 305
#     4  11  17  33  47  69 103 135 179 211 252 311
#     4  11  21  32  53  78 105 142 182 219 265 320
#
# _framework density 16.487677999999999
#
# number of rings (size 3 to 8) (size 9 to 14) (size 15 to 20)
#    0.000    1.429    5.714    3.000    0.000    2.286 
#    0.000    0.000    0.000    0.286    0.000    0.000 
#    0.000    0.000    0.000   16.571    0.000    4.143 
#
# Total GULP energy -468036.842788 kJ/mol
# GULP energy per Si atom -5571.867176 kJ/mol
# Density = 1.645015 g / cm^3
# Si number density = 16.487678 Si / 1000 Ang^3
#
#
#
# Elastic Constant Matrix: (Units=GPa)
#
#
# Indices 1 2 3 4 5 6 
#
# 1 65.4164 46.3117 27.5175 0.0000 0.0000 0.0000
# 2 46.3117 65.4164 27.5175 0.0000 0.0000 0.0000
# 3 27.5175 27.5175 109.5231 0.0000 0.0000 0.0000
# 4 0.0000 0.0000 0.0000 7.9134 0.0000 0.0000
# 5 0.0000 0.0000 0.0000 0.0000 7.9134 0.0000
# 6 0.0000 0.0000 0.0000 0.0000 0.0000 9.5524
#
#
#
# Elastic Compliance Matrix: (Units=1/GPa)
#
#
# Indices 1 2 3 4 5 6 
#
# 1 0.031279 -0.021064 -0.002566 0.000000 0.000000 0.000000
# 2 -0.021064 0.031279 -0.002566 0.000000 0.000000 0.000000
# 3 -0.002566 -0.002566 0.010420 0.000000 0.000000 0.000000
# 4 0.000000 0.000000 0.000000 0.126367 0.000000 0.000000
# 5 0.000000 0.000000 0.000000 0.000000 0.126367 0.000000
# 6 0.000000 0.000000 0.000000 0.000000 0.000000 0.104686
#
#
# Mechanical properties :
#
#
# Convention : Reuss Voigt Hill
#
# Bulk Modulus (GPa) = 48.58257 49.22771 48.90514
# Shear Modulus (GPa) = 10.21131 14.34314 12.27723
#
# Velocity S-wave (km/s) = 2.49133 2.95266 2.73175
# Velocity P-wave (km/s) = 6.14863 6.44565 6.29889
#
# Compressibility (1/GPa) = 0.02058351
#
# Stress axis : x y z
#
# Youngs Moduli (GPa) = 31.97065 31.97065 95.96857
#
# Poissons Ratio (x) = 0.67344 0.24629
# Poissons Ratio (y) = 0.67344 0.24629
# Poissons Ratio (z) = 0.08205 0.08205
#
# Static dielectric constant tensor:
#      x y z
#    x 1.559230 0.000000 0.000000 
#    y 0.000000 1.559230 0.000000 
#    z 0.000000 0.000000 1.618810 
# 
# From -- ./inp_files/2020.got.cif
#   From: 2010.05.17/outbox.cif.g08.bks.cpg/sg186_2_cif.got.tgz:2020.got - 2010.05.20 12:07:08.
