data_PCOD9585699
_publ_section_title
;
Structure prediction by ZEFSAII (Michael W. Deem and Ramdas Pophale) SiO2 
 PCOD9585699
Probable space group: P -6 M 2
;
_chemical_formula_sum "Si O2"
_cell_formula_units_Z 66
_cell_length_a 12.827420
_cell_length_b 12.827420
_cell_length_c 29.052724
_cell_angle_alpha 90.000000
_cell_angle_beta 90.000000
_cell_angle_gamma 120.000000
_cell_volume 4139.959758
_symmetry_space_group_name_H-M "P -6 M 2"
_symmetry_group_IT_number 187
_symmetry_cell_setting 'hexagonal'
loop_
_space_group_symop_operation_xyz
x,y,z
-x+y,-x,-z
-y,x-y,z
x,y,-z
-x+y,-x,z
-y,x-y,-z
-y,-x,-z
-x+y,y,-z
x,x-y,-z
-x+y,y,z
x,x-y,z
-y,-x,z
loop_
_atom_site_type_symbol
_atom_site_label
_atom_site_fract_x
_atom_site_fract_y
_atom_site_fract_z
Si Si1 0.247914 0.248571 0.087987
Si Si2 0.419632 0.333729 0.738365
Si Si3 0.333077 0.418534 0.175608
Si Si4 0.084976 0.417704 0.000000
Si Si5 0.914237 0.332868 0.634305
Si Si6 0.085144 0.667208 0.551305
O O1 0.255510 0.127755 0.086304
O O2 0.306282 0.325443 0.134112
O O3 0.108953 0.217906 0.086691
O O4 0.312809 0.335772 0.044725
O O5 0.412244 0.206122 0.745802
O O6 0.558596 0.441405 0.740617
O O7 0.349778 0.362642 0.777249
O O8 0.376159 0.336020 0.686355
O O9 0.219789 0.439578 0.178370
O O10 0.455766 0.544235 0.167300
O O11 0.223914 0.447827 0.000000
O O12 0.078695 0.539348 0.000000
O O13 0.897317 0.448659 0.629835
O O14 0.787069 0.212932 0.630172
O O15 0.001462 0.342357 0.593372
O O16 0.034229 0.663049 0.500000
O O17 0.102054 0.551027 0.554759
O O18 0.212968 0.787033 0.554402
#
# Coordination Sequence:
#
# PCOD9585699 Si02
#       6
#    12  12  12   6  12  12
#     4  10  20  34  53  75  99 128 163 203 242 280
#     4   9  17  30  48  69  93 122 155 190 229 275
#     4  10  20  33  50  72  99 129 159 194 236 282
#     4  10  20  34  54  78 104 134 166 200 238 284
#     4   9  17  29  46  68  93 120 150 186 229 276
#     4   9  17  29  45  65  89 118 152 189 229 273
#
# _framework density 15.942185
#
# number of rings (size 3 to 8) (size 9 to 14) (size 15 to 20)
#    0.000    2.545    0.000    2.364    0.000    3.273 
#    0.000    2.727    0.000   10.182    0.000    0.000 
#    0.000    0.000    0.000    0.000    0.000    0.000 
#
# Total GULP energy -367862.721539 kJ/mol
# GULP energy per Si atom -5573.677599 kJ/mol
# Density = 1.590590 g / cm^3
# Si number density = 15.942185 Si / 1000 Ang^3
#
#
#
# Elastic Constant Matrix: (Units=GPa)
#
#
# Indices 1 2 3 4 5 6 
#
# 1 92.7136 54.0062 73.0539 0.0000 0.0002 0.0000
# 2 54.0062 92.7136 73.0539 0.0000 -0.0002 0.0000
# 3 73.0539 73.0539 152.5605 0.0000 0.0000 0.0000
# 4 0.0000 0.0000 0.0000 24.7191 0.0000 -0.0002
# 5 0.0002 -0.0002 0.0000 0.0000 24.7191 0.0000
# 6 0.0000 0.0000 0.0000 -0.0002 0.0000 19.3537
#
#
#
# Elastic Compliance Matrix: (Units=1/GPa)
#
#
# Indices 1 2 3 4 5 6 
#
# 1 0.019432 -0.006403 -0.006239 0.000000 0.000000 0.000000
# 2 -0.006403 0.019432 -0.006239 0.000000 0.000000 0.000000
# 3 -0.006239 -0.006239 0.012530 0.000000 0.000000 0.000000
# 4 0.000000 0.000000 0.000000 0.040454 0.000000 0.000000
# 5 0.000000 0.000000 0.000000 0.000000 0.040454 0.000000
# 6 0.000000 0.000000 0.000000 0.000000 0.000000 0.051670
#
#
# Mechanical properties :
#
#
# Convention : Reuss Voigt Hill
#
# Bulk Modulus (GPa) = 73.35874 82.02399 77.69136
# Shear Modulus (GPa) = 22.09685 22.94996 22.52340
#
# Velocity S-wave (km/s) = 3.72702 3.79829 3.76282
# Velocity P-wave (km/s) = 8.03967 8.41419 8.22906
#
# Compressibility (1/GPa) = 0.01363164
#
# Stress axis : x y z
#
# Youngs Moduli (GPa) = 51.46252 51.46252 79.81123
#
# Poissons Ratio (x) = 0.32953 0.49791
# Poissons Ratio (y) = 0.32953 0.49791
# Poissons Ratio (z) = 0.32106 0.32106
#
# Static dielectric constant tensor:
#      x y z
#    x 1.500260 0.000000 0.000000 
#    y 0.000000 1.500260 0.000000 
#    z 0.000000 0.000000 1.551890 
# 
# From -- ./inp_files/4445.got.cif
#   From: 2010.05.17/outbox.cif.g08.bks.cpg/sg187_3_cif.got.tgz:4445.got - 2010.05.20 12:09:04.
