data_PCOD9585491
_publ_section_title
;
Structure prediction by ZEFSAII (Michael W. Deem and Ramdas Pophale) SiO2 
 PCOD9585491
Probable space group: P -6 M 2
;
_chemical_formula_sum "Si O2"
_cell_formula_units_Z 66
_cell_length_a 18.337655
_cell_length_b 18.337655
_cell_length_c 13.097129
_cell_angle_alpha 90.000000
_cell_angle_beta 90.000000
_cell_angle_gamma 120.000000
_cell_volume 3814.119821
_symmetry_space_group_name_H-M "P -6 M 2"
_symmetry_group_IT_number 187
_symmetry_cell_setting 'hexagonal'
loop_
_space_group_symop_operation_xyz
x,y,z
-x+y,-x,-z
-y,x-y,z
x,y,-z
-x+y,-x,z
-y,x-y,-z
-y,-x,-z
-x+y,y,-z
x,x-y,-z
-x+y,y,z
x,x-y,z
-y,-x,z
loop_
_atom_site_type_symbol
_atom_site_label
_atom_site_fract_x
_atom_site_fract_y
_atom_site_fract_z
Si Si1 0.392958 0.434688 0.304221
Si Si2 0.738449 0.094896 0.380921
Si Si3 0.333355 0.491951 0.500000
Si Si4 0.102483 0.379004 0.884692
Si Si5 0.001541 0.160813 0.660398
Si Si6 0.212886 0.186276 0.112568
O O1 0.485933 0.514068 0.301809
O O2 0.394590 0.348248 0.319800
O O3 0.345532 0.447073 0.400945
O O4 0.341714 0.430803 0.203094
O O5 0.720783 0.101052 0.500000
O O6 0.812388 0.187613 0.346772
O O7 0.780063 0.035305 0.372328
O O8 0.411700 0.588301 0.500000
O O9 0.244773 0.489545 0.500000
O O10 0.184240 0.368479 0.865504
O O11 0.019277 0.286559 0.882675
O O12 0.111405 0.412763 0.000000
O O13 0.093903 0.187805 0.623421
O O14 0.002095 0.161634 0.784227
O O15 0.933237 0.066764 0.627628
O O16 0.256584 0.128292 0.116687
O O17 0.170825 0.168106 0.000000
#
# Coordination Sequence:
#
# PCOD9585491 Si02
#       6
#    12  12   6  12  12  12
#     4  11  22  36  56  83 108 134 176 229 279 328
#     4  10  21  37  54  74 102 139 175 213 269 328
#     4  10  21  36  55  80 110 140 172 214 271 326
#     4  10  20  34  53  77 108 148 187 222 266 321
#     4  10  19  30  45  68 101 139 178 212 244 285
#     4   9  17  28  44  69 100 134 175 216 249 287
#
# _framework density 17.304122
#
# number of rings (size 3 to 8) (size 9 to 14) (size 15 to 20)
#    0.000    2.000    2.727    1.364    0.000    2.545 
#    0.000    0.000    0.000    3.273    0.000    2.545 
#    0.000    0.000    0.000    0.000    0.000    0.000 
#
# Total GULP energy -367733.882852 kJ/mol
# GULP energy per Si atom -5571.725498 kJ/mol
# Density = 1.726474 g / cm^3
# Si number density = 17.304122 Si / 1000 Ang^3
#
#
#
# Elastic Constant Matrix: (Units=GPa)
#
#
# Indices 1 2 3 4 5 6 
#
# 1 69.8685 53.9551 35.5278 0.0000 0.0000 0.0000
# 2 53.9551 69.8685 35.5278 0.0000 0.0000 0.0000
# 3 35.5278 35.5278 107.4708 0.0000 0.0000 0.0000
# 4 0.0000 0.0000 0.0000 8.9774 0.0000 0.0000
# 5 0.0000 0.0000 0.0000 0.0000 8.9774 0.0000
# 6 0.0000 0.0000 0.0000 0.0000 0.0000 7.9567
#
#
#
# Elastic Compliance Matrix: (Units=1/GPa)
#
#
# Indices 1 2 3 4 5 6 
#
# 1 0.036403 -0.026437 -0.003295 0.000000 0.000000 0.000000
# 2 -0.026437 0.036403 -0.003295 0.000000 0.000000 0.000000
# 3 -0.003295 -0.003295 0.011483 0.000000 0.000000 0.000000
# 4 0.000000 0.000000 0.000000 0.111391 0.000000 0.000000
# 5 0.000000 0.000000 0.000000 0.000000 0.111391 0.000000
# 6 0.000000 0.000000 0.000000 0.000000 0.000000 0.125680
#
#
# Mechanical properties :
#
#
# Convention : Reuss Voigt Hill
#
# Bulk Modulus (GPa) = 54.83221 55.24770 55.03995
# Shear Modulus (GPa) = 9.90327 13.32877 11.61602
#
# Velocity S-wave (km/s) = 2.39489 2.77838 2.59373
# Velocity P-wave (km/s) = 6.27722 6.50302 6.39112
#
# Compressibility (1/GPa) = 0.01823746
#
# Stress axis : x y z
#
# Youngs Moduli (GPa) = 27.46996 27.46996 87.08333
#
# Poissons Ratio (x) = 0.72621 0.28692
# Poissons Ratio (y) = 0.72621 0.28692
# Poissons Ratio (z) = 0.09051 0.09051
#
# Static dielectric constant tensor:
#      x y z
#    x 1.579520 0.000000 0.000000 
#    y 0.000000 1.579520 0.000000 
#    z 0.000000 0.000000 1.639950 
# 
# From -- ./inp_files/2468.got.cif
#   From: 2010.05.17/outbox.cif.g08.bks.cpg/sg187_2_cif.got.tgz:2468.got - 2010.05.20 12:09:04.
