data_PCOD9585612
_publ_section_title
;
Structure prediction by ZEFSAII (Michael W. Deem and Ramdas Pophale) SiO2 
 PCOD9585612
Probable space group: P -6 M 2
;
_chemical_formula_sum "Si O2"
_cell_formula_units_Z 48
_cell_length_a 12.952400
_cell_length_b 12.952400
_cell_length_c 20.698022
_cell_angle_alpha 90.000000
_cell_angle_beta 90.000000
_cell_angle_gamma 120.000000
_cell_volume 3007.183791
_symmetry_space_group_name_H-M "P -6 M 2"
_symmetry_group_IT_number 187
_symmetry_cell_setting 'hexagonal'
loop_
_space_group_symop_operation_xyz
x,y,z
-x+y,-x,-z
-y,x-y,z
x,y,-z
-x+y,-x,z
-y,x-y,-z
-y,-x,-z
-x+y,y,-z
x,x-y,-z
-x+y,y,z
x,x-y,z
-y,-x,z
loop_
_atom_site_type_symbol
_atom_site_label
_atom_site_fract_x
_atom_site_fract_y
_atom_site_fract_z
Si Si1 0.421291 0.088790 0.000000
Si Si2 0.332972 0.423376 0.114369
Si Si3 0.666568 0.087832 0.620556
Si Si4 0.087321 0.665906 0.500000
Si Si5 0.577111 0.910372 0.264465
O O1 0.357488 0.011525 0.063486
O O2 0.554977 0.109953 0.000000
O O3 0.422487 0.211244 0.000000
O O4 0.208900 0.417799 0.101279
O O5 0.441188 0.558813 0.106607
O O6 0.334039 0.390345 0.189360
O O7 0.558449 0.116897 0.619325
O O8 0.792566 0.207435 0.613972
O O9 0.639656 0.994983 0.562485
O O10 0.654226 0.017415 0.686857
O O11 0.206680 0.793321 0.500000
O O12 0.118683 0.559342 0.500000
O O13 0.440466 0.880931 0.272522
O O14 0.585186 0.792593 0.278419
#
# Coordination Sequence:
#
# PCOD9585612 Si02
#       5
#     6  12  12   6  12
#     4  10  20  32  46  66  94 128 162 194 232 280
#     4   9  17  30  50  75  98 120 150 193 245 292
#     4  10  20  33  50  72  99 131 164 196 230 273
#     4  10  20  34  54  78 100 122 152 196 248 294
#     4   9  17  30  50  75 100 124 152 192 242 290
#
# _framework density 15.961779
#
# number of rings (size 3 to 8) (size 9 to 14) (size 15 to 20)
#    0.000    2.500    0.000    2.500    0.000    3.000 
#    0.000    5.000    0.000   12.000    0.000    0.000 
#    0.000    0.000    0.000    0.000    0.000    0.000 
#
# Total GULP energy -267693.338871 kJ/mol
# GULP energy per Si atom -5576.944560 kJ/mol
# Density = 1.592545 g / cm^3
# Si number density = 15.961779 Si / 1000 Ang^3
#
#
#
# Elastic Constant Matrix: (Units=GPa)
#
#
# Indices 1 2 3 4 5 6 
#
# 1 114.8281 75.8405 78.2831 0.0000 -0.0004 0.0000
# 2 75.8405 114.8281 78.2831 0.0000 0.0004 0.0000
# 3 78.2831 78.2831 103.7387 0.0000 0.0000 0.0000
# 4 0.0000 0.0000 0.0000 17.2324 0.0000 0.0004
# 5 -0.0004 0.0004 0.0000 0.0000 17.2324 0.0000
# 6 0.0000 0.0000 0.0000 0.0004 0.0000 19.4938
#
#
#
# Elastic Compliance Matrix: (Units=1/GPa)
#
#
# Indices 1 2 3 4 5 6 
#
# 1 0.019719 -0.005930 -0.010406 0.000000 0.000001 0.000000
# 2 -0.005930 0.019719 -0.010406 0.000000 -0.000001 0.000000
# 3 -0.010406 -0.010406 0.025344 0.000000 0.000000 0.000000
# 4 0.000000 0.000000 0.000000 0.058030 0.000000 -0.000001
# 5 0.000001 -0.000001 0.000000 0.000000 0.058030 0.000000
# 6 0.000000 0.000000 0.000000 -0.000001 0.000000 0.051298
#
#
# Mechanical properties :
#
#
# Convention : Reuss Voigt Hill
#
# Bulk Modulus (GPa) = 88.49439 88.68983 88.59211
# Shear Modulus (GPa) = 17.27773 17.52427 17.40100
#
# Velocity S-wave (km/s) = 3.29362 3.31704 3.30535
# Velocity P-wave (km/s) = 8.36814 8.38778 8.37796
#
# Compressibility (1/GPa) = 0.01130015
#
# Stress axis : x y z
#
# Youngs Moduli (GPa) = 50.71213 50.71213 39.45699
#
# Poissons Ratio (x) = 0.30072 0.41057
# Poissons Ratio (y) = 0.30072 0.41057
# Poissons Ratio (z) = 0.52769 0.52769
#
# Static dielectric constant tensor:
#      x y z
#    x 1.500560 0.000000 0.000000 
#    y 0.000000 1.500560 0.000000 
#    z 0.000000 0.000000 1.554080 
# 
# From -- ./inp_files/3384.got.cif
#   From: 2010.05.17/outbox.cif.g08.bks.cpg/sg187_2_cif.got.tgz:3384.got - 2010.05.20 12:09:04.
