data_PCOD9585294
_publ_section_title
;
Structure prediction by ZEFSAII (Michael W. Deem and Ramdas Pophale) SiO2 
 PCOD9585294
Probable space group: P 63 C M
;
_chemical_formula_sum "Si O2"
_cell_formula_units_Z 84
_cell_length_a 16.645856
_cell_length_b 16.645856
_cell_length_c 17.955292
_cell_angle_alpha 90.000000
_cell_angle_beta 90.000000
_cell_angle_gamma 120.000000
_cell_volume 4308.591999
_symmetry_space_group_name_H-M "P 63 C M"
_symmetry_group_IT_number 185
_symmetry_cell_setting 'hexagonal'
loop_
_space_group_symop_operation_xyz
x,y,z
x-y,x,1/2+z
-y,x-y,z
-x,-y,1/2+z
-x+y,-x,z
y,-x+y,1/2+z
-x+y,y,1/2+z
x,x-y,1/2+z
-y,-x,1/2+z
y,x,z
x-y,-y,z
-x,-x+y,z
loop_
_atom_site_type_symbol
_atom_site_label
_atom_site_fract_x
_atom_site_fract_y
_atom_site_fract_z
Si Si1 0.164914 0.773678 0.539180
Si Si2 0.738307 0.197934 0.699766
Si Si3 0.548085 0.892638 0.964185
Si Si4 0.102480 0.209733 0.959670
Si Si5 0.324052 0.107355 0.330805
Si Si6 0.889009 0.378615 0.913164
Si Si7 0.595355 0.479482 0.739206
O O1 0.151142 0.728721 0.619239
O O2 0.273404 0.845406 0.529861
O O3 0.113019 0.830891 0.522904
O O4 0.142554 0.706314 0.468559
O O5 0.787563 0.163267 0.758512
O O6 0.631743 0.157872 0.728020
O O7 0.810321 0.309556 0.696116
O O8 0.600084 0.887647 0.889947
O O9 0.441069 0.848844 0.946043
O O10 0.590931 0.000000 0.982117
O O11 0.178416 0.178416 0.969573
O O12 0.125512 0.263086 0.880323
O O13 0.000000 0.124423 0.959376
O O14 0.259470 0.000000 0.310278
O O15 0.869947 0.369313 0.825278
O O16 0.000000 0.436252 0.918167
O O17 0.539392 0.539392 0.725359
#
# Coordination Sequence:
#
# PCOD9585294 Si02
#       7
#    12  12  12  12  12  12  12
#     4  11  24  37  58  93 126 164 209 258 313 380
#     4  12  25  41  61  93 131 172 212 269 328 393
#     4   9  18  38  60  80 110 156 206 250 302 362
#     4  10  21  40  66  95 124 158 205 260 318 384
#     4   9  18  37  64  87 116 159 207 258 313 378
#     4  10  21  39  63  89 116 160 217 264 308 367
#     4  11  25  44  66  91 127 175 224 271 326 386
#
# _framework density 19.495927999999999
#
# number of rings (size 3 to 8) (size 9 to 14) (size 15 to 20)
#    0.000    1.714    1.429    4.286    2.000    5.143 
#    0.857    0.000    0.000    0.000    0.000    2.000 
#    0.000    0.000    0.000    0.000    0.000    0.000 
#
# Total GULP energy -467929.790583 kJ/mol
# GULP energy per Si atom -5570.592745 kJ/mol
# Density = 1.945155 g / cm^3
# Si number density = 19.495928 Si / 1000 Ang^3
#
#
#
# Elastic Constant Matrix: (Units=GPa)
#
#
# Indices 1 2 3 4 5 6 
#
# 1 73.2224 16.9241 32.8827 0.0000 0.0000 0.0000
# 2 16.9241 73.2224 32.8827 0.0000 0.0000 0.0000
# 3 32.8827 32.8827 98.0107 0.0000 0.0000 0.0000
# 4 0.0000 0.0000 0.0000 11.5044 0.0000 0.0000
# 5 0.0000 0.0000 0.0000 0.0000 11.5044 0.0000
# 6 0.0000 0.0000 0.0000 0.0000 0.0000 28.1492
#
#
#
# Elastic Compliance Matrix: (Units=1/GPa)
#
#
# Indices 1 2 3 4 5 6 
#
# 1 0.016225 -0.001537 -0.004928 0.000000 0.000000 0.000000
# 2 -0.001537 0.016225 -0.004928 0.000000 0.000000 0.000000
# 3 -0.004928 -0.004928 0.013510 0.000000 0.000000 0.000000
# 4 0.000000 0.000000 0.000000 0.086924 0.000000 0.000000
# 5 0.000000 0.000000 0.000000 0.000000 0.086924 0.000000
# 6 0.000000 0.000000 0.000000 0.000000 0.000000 0.035525
#
#
# Mechanical properties :
#
#
# Convention : Reuss Voigt Hill
#
# Bulk Modulus (GPa) = 43.15119 45.53716 44.34417
# Shear Modulus (GPa) = 17.49211 21.01597 19.25404
#
# Velocity S-wave (km/s) = 2.99861 3.28680 3.14601
# Velocity P-wave (km/s) = 5.84554 6.14915 5.99927
#
# Compressibility (1/GPa) = 0.02317433
#
# Stress axis : x y z
#
# Youngs Moduli (GPa) = 61.63200 61.63200 74.02146
#
# Poissons Ratio (x) = 0.09474 0.36477
# Poissons Ratio (y) = 0.09474 0.36477
# Poissons Ratio (z) = 0.30372 0.30372
#
# Static dielectric constant tensor:
#      x y z
#    x 1.740140 0.000000 0.000000 
#    y 0.000000 1.740140 0.000000 
#    z 0.000000 0.000000 1.678220 
# 
# From -- ./inp_files/1478.got.cif
#   From: 2010.05.17/outbox.cif.g08.bks.cpg/sg185_cif.got.tgz:1478.got - 2010.05.20 12:05:34.
