data_PCOD9585882
_publ_section_title
;
Structure prediction by ZEFSAII (Michael W. Deem and Ramdas Pophale) SiO2 
 PCOD9585882
Probable space group: P -6 C 2
;
_chemical_formula_sum "Si O2"
_cell_formula_units_Z 84
_cell_length_a 16.383943
_cell_length_b 16.383943
_cell_length_c 15.087707
_cell_angle_alpha 90.000000
_cell_angle_beta 90.000000
_cell_angle_gamma 120.000000
_cell_volume 3507.443873
_symmetry_space_group_name_H-M "P -6 C 2"
_symmetry_group_IT_number 188
_symmetry_cell_setting 'hexagonal'
loop_
_space_group_symop_operation_xyz
x,y,z
-x+y,-x,1/2-z
-y,x-y,z
x,y,1/2-z
-x+y,-x,z
-y,x-y,1/2-z
-y,-x,-z
-x+y,y,-z
x,x-y,-z
-x+y,y,1/2+z
x,x-y,1/2+z
-y,-x,1/2+z
loop_
_atom_site_type_symbol
_atom_site_label
_atom_site_fract_x
_atom_site_fract_y
_atom_site_fract_z
Si Si1 0.620513 0.723949 0.345125
Si Si2 0.088246 0.707970 0.036315
Si Si3 0.176429 0.188009 0.102569
Si Si4 0.478413 0.566353 0.845141
Si Si5 0.986013 0.175299 0.112950
Si Si6 0.437723 0.131380 0.008034
Si Si7 0.559344 0.422660 0.148761
O O1 0.616770 0.765280 0.250000
O O2 0.621714 0.759844 0.443907
O O3 0.524532 0.624580 0.350303
O O4 0.724506 0.734418 0.347300
O O5 0.060170 0.759958 0.112115
O O6 0.127364 0.644759 0.079195
O O7 0.980250 0.629930 0.003977
O O8 0.205567 0.115116 0.138852
O O9 0.072798 0.158959 0.137165
O O10 0.181422 0.179727 0.994766
O O11 0.486504 0.612361 0.750000
O O12 0.542144 0.516743 0.845196
O O13 0.494891 0.145581 0.098987
O O14 0.386727 0.193364 0.000000
O O15 0.511606 0.170161 0.925542
O O16 0.575829 0.401836 0.250000
#
# Coordination Sequence:
#
# PCOD9585882 Si02
#       7
#    12  12  12  12  12  12  12
#     4  10  19  31  51  76 104 139 184 226 277 347
#     4  10  19  31  53  78 106 140 178 234 292 341
#     4   9  18  32  55  78 111 152 199 249 298 345
#     4   9  17  32  52  76 102 129 170 227 287 345
#     4   9  18  33  52  79 110 153 201 247 296 344
#     4  10  20  30  48  70  95 127 173 222 274 331
#     4   9  18  34  48  63  90 127 165 213 276 337
#
# _framework density 23.949062999999999
#
# number of rings (size 3 to 8) (size 9 to 14) (size 15 to 20)
#    0.000    2.571    1.429    0.714    4.000    1.714 
#    3.429    2.143    0.000    0.000    0.000    0.000 
#    2.857    0.000    2.571    0.000    2.286    0.000 
#
# Total GULP energy -467775.291240 kJ/mol
# GULP energy per Si atom -5568.753467 kJ/mol
# Density = 2.389455 g / cm^3
# Si number density = 23.949063 Si / 1000 Ang^3
#
#
#
# Elastic Constant Matrix: (Units=GPa)
#
#
# Indices 1 2 3 4 5 6 
#
# 1 29.6346 18.6544 28.8281 0.0001 0.0000 0.0000
# 2 18.6544 29.6346 28.8281 -0.0001 0.0000 0.0000
# 3 28.8281 28.8281 160.3364 0.0000 0.0000 0.0000
# 4 0.0001 -0.0001 0.0000 5.9339 0.0000 0.0000
# 5 0.0000 0.0000 0.0000 0.0000 5.9339 0.0001
# 6 0.0000 0.0000 0.0000 0.0000 0.0001 5.4901
#
#
#
# Elastic Compliance Matrix: (Units=1/GPa)
#
#
# Indices 1 2 3 4 5 6 
#
# 1 0.058721 -0.032352 -0.004741 -0.000002 0.000000 0.000000
# 2 -0.032352 0.058721 -0.004741 0.000002 0.000000 0.000000
# 3 -0.004741 -0.004741 0.007942 0.000000 0.000000 0.000000
# 4 -0.000002 0.000002 0.000000 0.168522 0.000000 0.000000
# 5 0.000000 0.000000 0.000000 0.000000 0.168522 -0.000004
# 6 0.000000 0.000000 0.000000 0.000000 -0.000004 0.182147
#
#
# Mechanical properties :
#
#
# Convention : Reuss Voigt Hill
#
# Bulk Modulus (GPa) = 23.97155 41.35851 32.66503
# Shear Modulus (GPa) = 6.73720 13.02460 9.88090
#
# Velocity S-wave (km/s) = 1.67906 2.33458 2.03341
# Velocity P-wave (km/s) = 3.71350 4.95720 4.37973
#
# Compressibility (1/GPa) = 0.04171613
#
# Stress axis : x y z
#
# Youngs Moduli (GPa) = 17.02957 17.02957 125.91630
#
# Poissons Ratio (x) = 0.55094 0.59699
# Poissons Ratio (y) = 0.55094 0.59699
# Poissons Ratio (z) = 0.08074 0.08074
#
# Static dielectric constant tensor:
#      x y z
#    x 1.970530 0.000000 0.000000 
#    y 0.000000 1.970530 0.000000 
#    z 0.000000 0.000000 1.992300 
# 
# From -- ./inp_files/2617.got.cif
#   From: 2010.05.17/outbox.cif.g08.bks.cpg/sg188_2_cif.got.tgz:2617.got - 2010.05.20 12:11:46.
