data_PCOD9585549
_publ_section_title
;
Structure prediction by ZEFSAII (Michael W. Deem and Ramdas Pophale) SiO2 
 PCOD9585549
Probable space group: P -6 M 2
;
_chemical_formula_sum "Si O2"
_cell_formula_units_Z 96
_cell_length_a 17.627547
_cell_length_b 17.627547
_cell_length_c 21.361861
_cell_angle_alpha 90.000000
_cell_angle_beta 90.000000
_cell_angle_gamma 120.000000
_cell_volume 5748.486015
_symmetry_space_group_name_H-M "P -6 M 2"
_symmetry_group_IT_number 187
_symmetry_cell_setting 'hexagonal'
loop_
_space_group_symop_operation_xyz
x,y,z
-x+y,-x,-z
-y,x-y,z
x,y,-z
-x+y,-x,z
-y,x-y,-z
-y,-x,-z
-x+y,y,-z
x,x-y,-z
-x+y,y,z
x,x-y,z
-y,-x,z
loop_
_atom_site_type_symbol
_atom_site_label
_atom_site_fract_x
_atom_site_fract_y
_atom_site_fract_z
Si Si1 0.332413 0.842338 0.609397
Si Si2 0.425536 0.390100 0.569389
Si Si3 0.846594 0.513060 0.313491
Si Si4 0.159087 0.492112 0.760671
Si Si5 0.365095 0.027961 0.792693
Si Si6 0.164384 0.998954 0.085392
Si Si7 0.726039 0.095324 0.930952
Si Si8 0.825264 0.000202 0.235193
O O1 0.414130 0.828259 0.592827
O O2 0.241138 0.758862 0.590250
O O3 0.332768 0.849961 0.685044
O O4 0.352447 0.934904 0.581792
O O5 0.415776 0.352203 0.500000
O O6 0.517198 0.482803 0.571059
O O7 0.433614 0.334679 0.625295
O O8 0.757031 0.514061 0.308003
O O9 0.829367 0.414684 0.319368
O O10 0.907273 0.558504 0.253496
O O11 0.239220 0.478439 0.779460
O O12 0.179130 0.589565 0.775493
O O13 0.068185 0.421314 0.790549
O O14 0.386973 0.065231 0.863753
O O15 0.274173 0.017044 0.763299
O O16 0.133894 0.066947 0.065845
O O17 0.263802 0.038292 0.066030
O O18 0.162697 0.998923 0.160496
O O19 0.098364 0.901637 0.065071
O O20 0.803772 0.196229 0.925391
O O21 0.682630 0.085197 0.000000
O O22 0.914976 0.085025 0.259536
O O23 0.812096 0.906048 0.258524
#
# Coordination Sequence:
#
# PCOD9585549 Si02
#       8
#    12  12  12  12  12  12  12  12
#     4   9  16  28  47  74 107 144 181 217 258 307
#     4   9  18  33  51  73 105 140 170 205 250 295
#     4  11  22  37  56  78 102 130 166 210 261 316
#     4  10  19  32  51  76 105 137 174 217 263 311
#     4  11  19  32  53  77 100 130 169 216 264 313
#     4   8  13  21  34  53  80 116 156 195 237 288
#     4   9  18  31  45  65  95 128 162 205 257 310
#     4   9  16  26  41  64  95 130 166 205 251 305
#
# _framework density 16.700049
#
# number of rings (size 3 to 8) (size 9 to 14) (size 15 to 20)
#    0.000    2.500    1.250    3.250    0.000    3.250 
#    0.000    0.000    0.000    3.750    0.000    0.000 
#    0.000    2.000    0.000    0.000    0.000    1.875 
#
# Total GULP energy -534498.427329 kJ/mol
# GULP energy per Si atom -5567.691951 kJ/mol
# Density = 1.666204 g / cm^3
# Si number density = 16.700049 Si / 1000 Ang^3
#
#
#
# Elastic Constant Matrix: (Units=GPa)
#
#
# Indices 1 2 3 4 5 6 
#
# 1 66.7311 20.4561 31.7947 0.0000 0.0008 0.0000
# 2 20.4561 66.7311 31.7947 0.0000 -0.0008 0.0000
# 3 31.7947 31.7947 87.1020 0.0000 0.0000 0.0000
# 4 0.0000 0.0000 0.0000 18.5398 0.0000 -0.0008
# 5 0.0008 -0.0008 0.0000 0.0000 18.5398 0.0000
# 6 0.0000 0.0000 0.0000 -0.0008 0.0000 23.1375
#
#
#
# Elastic Compliance Matrix: (Units=1/GPa)
#
#
# Indices 1 2 3 4 5 6 
#
# 1 0.018621 -0.002989 -0.005706 0.000000 -0.000001 0.000000
# 2 -0.002989 0.018621 -0.005706 0.000000 0.000001 0.000000
# 3 -0.005706 -0.005706 0.015646 0.000000 0.000000 0.000000
# 4 0.000000 0.000000 0.000000 0.053938 0.000000 0.000002
# 5 -0.000001 0.000001 0.000000 0.000000 0.053938 0.000000
# 6 0.000000 0.000000 0.000000 0.000002 0.000000 0.043220
#
#
# Mechanical properties :
#
#
# Convention : Reuss Voigt Hill
#
# Bulk Modulus (GPa) = 41.51905 43.18391 42.35148
# Shear Modulus (GPa) = 20.76295 21.14467 20.95381
#
# Velocity S-wave (km/s) = 3.52985 3.56215 3.54604
# Velocity P-wave (km/s) = 6.44428 6.54471 6.49469
#
# Compressibility (1/GPa) = 0.02408533
#
# Stress axis : x y z
#
# Youngs Moduli (GPa) = 53.70422 53.70422 63.91266
#
# Poissons Ratio (x) = 0.16055 0.36467
# Poissons Ratio (y) = 0.16055 0.36467
# Poissons Ratio (z) = 0.30643 0.30643
#
# Static dielectric constant tensor:
#      x y z
#    x 1.566940 0.000000 0.000000 
#    y 0.000000 1.566940 0.000000 
#    z 0.000000 0.000000 1.590620 
# 
# From -- ./inp_files/3804.got.cif
#   From: 2010.05.17/outbox.cif.g08.bks.cpg/sg187_2_cif.got.tgz:3804.got - 2010.05.20 12:09:04.
