data_PCOD9585511
_publ_section_title
;
Structure prediction by ZEFSAII (Michael W. Deem and Ramdas Pophale) SiO2 
 PCOD9585511
Probable space group: P -6 M 2
;
_chemical_formula_sum "Si O2"
_cell_formula_units_Z 96
_cell_length_a 16.630589
_cell_length_b 16.630589
_cell_length_c 19.185513
_cell_angle_alpha 90.000000
_cell_angle_beta 90.000000
_cell_angle_gamma 120.000000
_cell_volume 4595.357564
_symmetry_space_group_name_H-M "P -6 M 2"
_symmetry_group_IT_number 187
_symmetry_cell_setting 'hexagonal'
loop_
_space_group_symop_operation_xyz
x,y,z
-x+y,-x,-z
-y,x-y,z
x,y,-z
-x+y,-x,z
-y,x-y,-z
-y,-x,-z
-x+y,y,-z
x,x-y,-z
-x+y,y,z
x,x-y,z
-y,-x,z
loop_
_atom_site_type_symbol
_atom_site_label
_atom_site_fract_x
_atom_site_fract_y
_atom_site_fract_z
Si Si1 0.738704 0.963522 0.074646
Si Si2 0.056156 0.439680 0.876045
Si Si3 0.590741 0.702007 0.423512
Si Si4 0.602969 0.704769 0.727582
Si Si5 0.811859 0.002651 0.774987
Si Si6 0.761395 0.695065 0.579744
Si Si7 0.485586 0.332486 0.160762
Si Si8 0.485499 0.152452 0.675133
O O1 0.761389 0.880695 0.072539
O O2 0.627543 0.916096 0.084955
O O3 0.787170 0.016416 0.145519
O O4 0.765292 0.013245 0.000000
O O5 0.085483 0.542742 0.900720
O O6 0.084928 0.442722 0.795202
O O7 0.943956 0.378857 0.878545
O O8 0.562378 0.653820 0.500000
O O9 0.565840 0.782920 0.424768
O O10 0.562005 0.656186 0.347005
O O11 0.702996 0.747654 0.418673
O O12 0.591750 0.795875 0.732035
O O13 0.714792 0.746652 0.734502
O O14 0.830048 0.915024 0.773052
O O15 0.901947 0.098054 0.752237
O O16 0.749016 0.661452 0.500000
O O17 0.871119 0.742238 0.594620
O O18 0.708733 0.605534 0.628474
O O19 0.461593 0.230797 0.138341
O O20 0.595450 0.404551 0.155486
O O21 0.462392 0.330017 0.242980
O O22 0.563603 0.127205 0.656446
O O23 0.524720 0.262360 0.667539
#
# Coordination Sequence:
#
# PCOD9585511 Si02
#       8
#    12  12  12  12  12  12  12  12
#     4   9  19  36  54  72  99 132 159 189 236 286
#     4  10  19  30  49  75  97 122 157 194 234 283
#     4   9  17  30  48  66  84 114 159 203 241 290
#     4   9  18  32  48  68  96 127 156 194 248 297
#     4   9  17  29  47  72 101 133 167 200 235 278
#     4   9  17  27  38  55  81 111 142 182 234 280
#     4   9  17  28  42  62  89 121 156 192 227 259
#     4   9  16  26  40  58  83 117 154 188 221 261
#
# _framework density 20.890649
#
# number of rings (size 3 to 8) (size 9 to 14) (size 15 to 20)
#    0.000    2.875    0.000    2.250    0.000    4.250 
#    0.000    0.000    0.000    4.875    0.000    1.750 
#    0.000    1.000    0.000    0.375    0.000    4.875 
#
# Total GULP energy -534474.420722 kJ/mol
# GULP energy per Si atom -5567.441883 kJ/mol
# Density = 2.084310 g / cm^3
# Si number density = 20.890649 Si / 1000 Ang^3
#
#
#
# Elastic Constant Matrix: (Units=GPa)
#
#
# Indices 1 2 3 4 5 6 
#
# 1 35.9916 8.0307 -4.4599 0.0000 -0.0003 0.0000
# 2 8.0307 35.9916 -4.4599 0.0000 0.0003 0.0000
# 3 -4.4599 -4.4599 73.1255 0.0000 0.0000 0.0000
# 4 0.0000 0.0000 0.0000 4.5197 0.0000 0.0003
# 5 -0.0003 0.0003 0.0000 0.0000 4.5197 0.0000
# 6 0.0000 0.0000 0.0000 0.0003 0.0000 13.9805
#
#
#
# Elastic Compliance Matrix: (Units=1/GPa)
#
#
# Indices 1 2 3 4 5 6 
#
# 1 0.029382 -0.006382 0.001403 0.000000 0.000002 0.000000
# 2 -0.006382 0.029382 0.001403 0.000000 -0.000002 0.000000
# 3 0.001403 0.001403 0.013846 0.000000 0.000000 0.000000
# 4 0.000000 0.000000 0.000000 0.221252 0.000000 -0.000005
# 5 0.000002 -0.000002 0.000000 0.000000 0.221252 0.000000
# 6 0.000000 0.000000 0.000000 -0.000005 0.000000 0.071528
#
#
# Mechanical properties :
#
#
# Convention : Reuss Voigt Hill
#
# Bulk Modulus (GPa) = 15.27715 15.92561 15.60138
# Shear Modulus (GPa) = 8.12197 14.33717 11.22957
#
# Velocity S-wave (km/s) = 1.97390 2.62257 2.32101
# Velocity P-wave (km/s) = 3.53890 4.10004 3.82976
#
# Compressibility (1/GPa) = 0.06545725
#
# Stress axis : x y z
#
# Youngs Moduli (GPa) = 34.03431 34.03431 72.22182
#
# Poissons Ratio (x) = 0.21721 -0.10131
# Poissons Ratio (y) = 0.21721 -0.10131
# Poissons Ratio (z) = -0.04774 -0.04774
#
# Static dielectric constant tensor:
#      x y z
#    x 1.763880 0.000000 0.000000 
#    y 0.000000 1.763880 0.000000 
#    z 0.000000 0.000000 1.826380 
# 
# From -- ./inp_files/3751.got.cif
#   From: 2010.05.17/outbox.cif.g08.bks.cpg/sg187_2_cif.got.tgz:3751.got - 2010.05.20 12:09:04.
