data_PCOD9585759
_publ_section_title
;
Structure prediction by ZEFSAII (Michael W. Deem and Ramdas Pophale) SiO2 
 PCOD9585759
Probable space group: P -6 M 2
;
_chemical_formula_sum "Si O2"
_cell_formula_units_Z 78
_cell_length_a 24.268174
_cell_length_b 24.268174
_cell_length_c 7.629009
_cell_angle_alpha 90.000000
_cell_angle_beta 90.000000
_cell_angle_gamma 120.000000
_cell_volume 3891.105080
_symmetry_space_group_name_H-M "P -6 M 2"
_symmetry_group_IT_number 187
_symmetry_cell_setting 'hexagonal'
loop_
_space_group_symop_operation_xyz
x,y,z
-x+y,-x,-z
-y,x-y,z
x,y,-z
-x+y,-x,z
-y,x-y,-z
-y,-x,-z
-x+y,y,-z
x,x-y,-z
-x+y,y,z
x,x-y,z
-y,-x,z
loop_
_atom_site_type_symbol
_atom_site_label
_atom_site_fract_x
_atom_site_fract_y
_atom_site_fract_z
Si Si1 0.125634 0.124749 0.788392
Si Si2 0.201159 0.534316 0.500000
Si Si3 0.386144 0.485750 0.201524
Si Si4 0.195990 0.927422 0.291748
Si Si5 0.005946 0.662007 0.286668
Si Si6 0.396539 0.259580 0.294278
Si Si7 0.790761 0.334114 0.788054
O O1 0.136546 0.068273 0.724995
O O2 0.177618 0.195581 0.734877
O O3 0.057188 0.114375 0.729302
O O4 0.124247 0.122793 0.000000
O O5 0.266747 0.533494 0.500000
O O6 0.213483 0.606742 0.500000
O O7 0.156600 0.498651 0.667183
O O8 0.458032 0.541969 0.237385
O O9 0.378437 0.416886 0.230513
O O10 0.371199 0.491350 0.000000
O O11 0.197656 0.918666 0.500000
O O12 0.137645 0.862356 0.217641
O O13 0.265709 0.949398 0.224060
O O14 0.004392 0.661160 0.500000
O O15 0.934349 0.637699 0.222087
O O16 0.380171 0.248713 0.500000
O O17 0.383013 0.191507 0.218994
O O18 0.472186 0.306940 0.278806
O O19 0.806987 0.403494 0.726927
O O20 0.718587 0.281414 0.740723
O O21 0.794586 0.335346 0.000000
#
# Coordination Sequence:
#
# PCOD9585759 Si02
#       7
#    12   6  12  12  12  12  12
#     4   9  17  30  48  70  98 134 175 220 272 331
#     4  10  21  40  66  96 131 166 200 240 290 350
#     4  10  22  40  62  91 126 161 201 248 293 344
#     4   9  19  34  51  74 103 132 170 221 272 325
#     4  10  20  36  57  80 108 151 191 235 293 349
#     4   9  19  34  50  71 103 141 186 235 285 345
#     4   9  17  30  48  70  97 130 169 216 271 328
#
# _framework density 20.045719999999999
#
# number of rings (size 3 to 8) (size 9 to 14) (size 15 to 20)
#    0.000    2.615    0.769    0.385    0.000    5.231 
#    0.000    4.615    0.000    4.615    0.000    0.000 
#    0.000    0.000    0.000    0.000    0.000    0.000 
#
# Total GULP energy -435188.307348 kJ/mol
# GULP energy per Si atom -5579.337274 kJ/mol
# Density = 2.000010 g / cm^3
# Si number density = 20.045720 Si / 1000 Ang^3
#
#
#
# Elastic Constant Matrix: (Units=GPa)
#
#
# Indices 1 2 3 4 5 6 
#
# 1 111.1030 72.9728 24.2376 0.0000 -0.0018 0.0000
# 2 72.9728 111.1030 24.2376 0.0000 0.0018 0.0000
# 3 24.2376 24.2376 58.3093 0.0000 0.0000 0.0000
# 4 0.0000 0.0000 0.0000 22.0391 0.0000 0.0018
# 5 -0.0018 0.0018 0.0000 0.0000 22.0391 0.0000
# 6 0.0000 0.0000 0.0000 0.0018 0.0000 19.0651
#
#
#
# Elastic Compliance Matrix: (Units=1/GPa)
#
#
# Indices 1 2 3 4 5 6 
#
# 1 0.016163 -0.010063 -0.002536 0.000000 0.000002 0.000000
# 2 -0.010063 0.016163 -0.002536 0.000000 -0.000002 0.000000
# 3 -0.002536 -0.002536 0.019258 0.000000 0.000000 0.000000
# 4 0.000000 0.000000 0.000000 0.045374 0.000000 -0.000004
# 5 0.000002 -0.000002 0.000000 0.000000 0.045374 0.000000
# 6 0.000000 0.000000 0.000000 -0.000004 0.000000 0.052452
#
#
# Mechanical properties :
#
#
# Convention : Reuss Voigt Hill
#
# Bulk Modulus (GPa) = 46.91381 58.15680 52.53531
# Shear Modulus (GPa) = 21.53707 23.23313 22.38510
#
# Velocity S-wave (km/s) = 3.28136 3.40811 3.34533
# Velocity P-wave (km/s) = 6.14903 6.67548 6.41766
#
# Compressibility (1/GPa) = 0.02131568
#
# Stress axis : x y z
#
# Youngs Moduli (GPa) = 61.86925 61.86925 51.92645
#
# Poissons Ratio (x) = 0.62258 0.13167
# Poissons Ratio (y) = 0.62258 0.13167
# Poissons Ratio (z) = 0.15688 0.15688
#
# Static dielectric constant tensor:
#      x y z
#    x 1.690780 0.000000 0.000000 
#    y 0.000000 1.690780 0.000000 
#    z 0.000000 0.000000 1.744980 
# 
# From -- ./inp_files/1178.got.cif
#   From: 2010.05.17/outbox.cif.g08.bks.cpg/sg187_1_cif.got.tgz:1178.got - 2010.05.20 12:09:04.
