data_PCOD9585554
_publ_section_title
;
Structure prediction by ZEFSAII (Michael W. Deem and Ramdas Pophale) SiO2 
 PCOD9585554
Probable space group: P -6 M 2
;
_chemical_formula_sum "Si O2"
_cell_formula_units_Z 66
_cell_length_a 20.384890
_cell_length_b 20.384890
_cell_length_c 9.993586
_cell_angle_alpha 90.000000
_cell_angle_beta 90.000000
_cell_angle_gamma 120.000000
_cell_volume 3596.406140
_symmetry_space_group_name_H-M "P -6 M 2"
_symmetry_group_IT_number 187
_symmetry_cell_setting 'hexagonal'
loop_
_space_group_symop_operation_xyz
x,y,z
-x+y,-x,-z
-y,x-y,z
x,y,-z
-x+y,-x,z
-y,x-y,-z
-y,-x,-z
-x+y,y,-z
x,x-y,-z
-x+y,y,z
x,x-y,z
-y,-x,z
loop_
_atom_site_type_symbol
_atom_site_label
_atom_site_fract_x
_atom_site_fract_y
_atom_site_fract_z
Si Si1 0.844706 0.843830 0.000000
Si Si2 0.224828 0.306344 0.642536
Si Si3 0.935367 0.718092 0.771920
Si Si4 0.693424 0.148821 0.845780
Si Si5 0.906459 0.453230 0.665471
Si Si6 0.470489 0.940978 0.159605
Si Si7 0.149073 0.706927 0.156119
O O1 0.805884 0.786530 0.876329
O O2 0.933544 0.867087 0.000000
O O3 0.835059 0.917530 0.000000
O O4 0.246365 0.347234 0.500000
O O5 0.134041 0.268082 0.653546
O O6 0.258965 0.251933 0.651472
O O7 0.260398 0.366217 0.759643
O O8 0.857959 0.715917 0.738804
O O9 0.910538 0.634590 0.827991
O O10 0.767426 0.232575 0.832605
O O11 0.630739 0.133293 0.733263
O O12 0.665001 0.141468 0.000000
O O13 0.906982 0.453491 0.500000
O O14 0.989510 0.494755 0.736406
O O15 0.507247 0.888509 0.182507
O O16 0.482371 0.964742 0.000000
O O17 0.238436 0.761565 0.184852
O O18 0.138034 0.715294 0.000000
#
# Coordination Sequence:
#
# PCOD9585554 Si02
#       7
#     6  12  12  12   6   6  12
#     4  10  19  32  52  83 120 156 192 236 288 341
#     4  10  21  35  51  75 108 146 187 232 280 335
#     4  10  20  34  56  84 112 145 189 240 287 337
#     4  10  21  41  65  88 117 152 194 240 291 357
#     4  12  26  40  60  92 122 156 198 244 302 358
#     4  10  20  36  58  82 116 154 194 242 294 362
#     4   9  19  35  55  81 109 143 188 236 290 344
#
# _framework density 18.351655000000001
#
# number of rings (size 3 to 8) (size 9 to 14) (size 15 to 20)
#    0.000    2.000    0.909    2.545    1.273    5.091 
#    1.091    1.818    0.000    0.364    0.000    0.000 
#    0.000    0.000    0.000    0.000    0.000    0.000 
#
# Total GULP energy -367729.172653 kJ/mol
# GULP energy per Si atom -5571.654131 kJ/mol
# Density = 1.830989 g / cm^3
# Si number density = 18.351655 Si / 1000 Ang^3
#
#
#
# Elastic Constant Matrix: (Units=GPa)
#
#
# Indices 1 2 3 4 5 6 
#
# 1 95.3005 51.7003 59.1449 0.0000 -0.0003 0.0000
# 2 51.7003 95.3005 59.1449 0.0000 0.0003 0.0000
# 3 59.1449 59.1449 86.4500 0.0000 0.0000 0.0000
# 4 0.0000 0.0000 0.0000 24.8466 0.0000 0.0003
# 5 -0.0003 0.0003 0.0000 0.0000 24.8466 0.0000
# 6 0.0000 0.0000 0.0000 0.0003 0.0000 21.8001
#
#
#
# Elastic Compliance Matrix: (Units=1/GPa)
#
#
# Indices 1 2 3 4 5 6 
#
# 1 0.019035 -0.003900 -0.010355 0.000000 0.000000 0.000000
# 2 -0.003900 0.019035 -0.010355 0.000000 0.000000 0.000000
# 3 -0.010355 -0.010355 0.025736 0.000000 0.000000 0.000000
# 4 0.000000 0.000000 0.000000 0.040247 0.000000 -0.000001
# 5 0.000000 0.000000 0.000000 0.000000 0.040247 0.000000
# 6 0.000000 0.000000 0.000000 -0.000001 0.000000 0.045871
#
#
# Mechanical properties :
#
#
# Convention : Reuss Voigt Hill
#
# Bulk Modulus (GPa) = 68.55378 68.55905 68.55641
# Shear Modulus (GPa) = 20.47060 21.43605 20.95332
#
# Velocity S-wave (km/s) = 3.34348 3.42141 3.38267
# Velocity P-wave (km/s) = 7.23477 7.28339 7.25912
#
# Compressibility (1/GPa) = 0.01458709
#
# Stress axis : x y z
#
# Youngs Moduli (GPa) = 52.53405 52.53405 38.85677
#
# Poissons Ratio (x) = 0.20490 0.40234
# Poissons Ratio (y) = 0.20490 0.40234
# Poissons Ratio (z) = 0.54397 0.54397
#
# Static dielectric constant tensor:
#      x y z
#    x 1.641190 0.000000 0.000000 
#    y 0.000000 1.641190 0.000000 
#    z 0.000000 0.000000 1.662650 
# 
# From -- ./inp_files/800.got.cif
#   From: 2010.05.17/outbox.cif.g08.bks.cpg/sg187_1_cif.got.tgz:800.got - 2010.05.20 12:09:04.
