data_PCOD9585466
_publ_section_title
;
Structure prediction by ZEFSAII (Michael W. Deem and Ramdas Pophale) SiO2 
 PCOD9585466
Probable space group: P -6 M 2
;
_chemical_formula_sum "Si O2"
_cell_formula_units_Z 54
_cell_length_a 21.145096
_cell_length_b 21.145096
_cell_length_c 8.003920
_cell_angle_alpha 90.000000
_cell_angle_beta 90.000000
_cell_angle_gamma 120.000000
_cell_volume 3099.222050
_symmetry_space_group_name_H-M "P -6 M 2"
_symmetry_group_IT_number 187
_symmetry_cell_setting 'hexagonal'
loop_
_space_group_symop_operation_xyz
x,y,z
-x+y,-x,-z
-y,x-y,z
x,y,-z
-x+y,-x,z
-y,x-y,-z
-y,-x,-z
-x+y,y,-z
x,x-y,-z
-x+y,y,z
x,x-y,z
-y,-x,z
loop_
_atom_site_type_symbol
_atom_site_label
_atom_site_fract_x
_atom_site_fract_y
_atom_site_fract_z
Si Si1 0.745865 0.948461 0.187749
Si Si2 0.018155 0.509078 0.800581
Si Si3 0.152324 0.151615 0.500000
Si Si4 0.354587 0.983068 0.300363
Si Si5 0.849186 0.288139 0.699703
Si Si6 0.575357 0.150714 0.800136
O O1 0.737487 0.868744 0.199044
O O2 0.668934 0.944017 0.220406
O O3 0.801606 0.995189 0.335283
O O4 0.771871 0.976824 0.000000
O O5 0.048090 0.456544 0.741089
O O6 0.933769 0.466885 0.738877
O O7 0.018029 0.509015 0.000000
O O8 0.148374 0.074187 0.500000
O O9 0.071058 0.142115 0.500000
O O10 0.347343 0.982960 0.500000
O O11 0.393777 0.067668 0.237055
O O12 0.853405 0.283437 0.500000
O O13 0.792031 0.207970 0.765284
O O14 0.818690 0.342914 0.737991
O O15 0.575738 0.151476 0.000000
#
# Coordination Sequence:
#
# PCOD9585466 Si02
#       6
#    12   6   6  12  12   6
#     4  10  21  37  56  80 111 145 180 223 277 333
#     4   9  17  29  47  71 101 133 167 208 255 309
#     4  10  21  38  58  79 106 142 186 234 284 339
#     4  10  18  31  51  77 104 136 174 218 265 316
#     4   9  18  31  46  64  88 121 162 206 252 302
#     4   9  17  29  43  59  83 115 153 199 248 292
#
# _framework density 17.423728000000001
#
# number of rings (size 3 to 8) (size 9 to 14) (size 15 to 20)
#    0.000    2.444    1.111    1.444    0.000    5.333 
#    0.667    0.000    0.000    1.333    0.000    0.000 
#    1.111    0.000    2.000    0.000    2.000    0.000 
#
# Total GULP energy -300900.169736 kJ/mol
# GULP energy per Si atom -5572.225365 kJ/mol
# Density = 1.738407 g / cm^3
# Si number density = 17.423728 Si / 1000 Ang^3
#
#
#
# Elastic Constant Matrix: (Units=GPa)
#
#
# Indices 1 2 3 4 5 6 
#
# 1 44.4519 21.3481 31.6650 0.0000 -0.0003 0.0000
# 2 21.3481 44.4519 31.6650 0.0000 0.0003 0.0000
# 3 31.6650 31.6650 86.4845 0.0000 0.0000 0.0000
# 4 0.0000 0.0000 0.0000 11.8276 0.0000 0.0003
# 5 -0.0003 0.0003 0.0000 0.0000 11.8276 0.0000
# 6 0.0000 0.0000 0.0000 0.0003 0.0000 11.5519
#
#
#
# Elastic Compliance Matrix: (Units=1/GPa)
#
#
# Indices 1 2 3 4 5 6 
#
# 1 0.033375 -0.009908 -0.008592 0.000000 0.000001 0.000000
# 2 -0.009908 0.033375 -0.008592 0.000000 -0.000001 0.000000
# 3 -0.008592 -0.008592 0.017855 0.000000 0.000000 0.000000
# 4 0.000000 0.000000 0.000000 0.084548 0.000000 -0.000002
# 5 0.000001 -0.000001 0.000000 0.000000 0.084548 0.000000
# 6 0.000000 0.000000 0.000000 -0.000002 0.000000 0.086566
#
#
# Mechanical properties :
#
#
# Convention : Reuss Voigt Hill
#
# Bulk Modulus (GPa) = 32.87277 38.30495 35.58886
# Shear Modulus (GPa) = 12.35817 13.08877 12.72347
#
# Velocity S-wave (km/s) = 2.66611 2.74378 2.70522
# Velocity P-wave (km/s) = 5.32777 5.66303 5.49795
#
# Compressibility (1/GPa) = 0.03042031
#
# Stress axis : x y z
#
# Youngs Moduli (GPa) = 29.96247 29.96247 56.00801
#
# Poissons Ratio (x) = 0.29686 0.48123
# Poissons Ratio (y) = 0.29686 0.48123
# Poissons Ratio (z) = 0.25744 0.25744
#
# Static dielectric constant tensor:
#      x y z
#    x 1.604760 0.000000 0.000000 
#    y 0.000000 1.604760 0.000000 
#    z 0.000000 0.000000 1.610390 
# 
# From -- ./inp_files/624.got.cif
#   From: 2010.05.17/outbox.cif.g08.bks.cpg/sg187_1_cif.got.tgz:624.got - 2010.05.20 12:09:04.
