data_PCOD9585941
_publ_section_title
;
Structure prediction by ZEFSAII (Michael W. Deem and Ramdas Pophale) SiO2 
 PCOD9585941
Probable space group: P -6 C 2
;
_chemical_formula_sum "Si O2"
_cell_formula_units_Z 60
_cell_length_a 12.864141
_cell_length_b 12.864141
_cell_length_c 25.879616
_cell_angle_alpha 90.000000
_cell_angle_beta 90.000000
_cell_angle_gamma 120.000000
_cell_volume 3708.942008
_symmetry_space_group_name_H-M "P -6 C 2"
_symmetry_group_IT_number 188
_symmetry_cell_setting 'hexagonal'
loop_
_space_group_symop_operation_xyz
x,y,z
-x+y,-x,1/2-z
-y,x-y,z
x,y,1/2-z
-x+y,-x,z
-y,x-y,1/2-z
-y,-x,-z
-x+y,y,-z
x,x-y,-z
-x+y,y,1/2+z
x,x-y,1/2+z
-y,-x,1/2+z
loop_
_atom_site_type_symbol
_atom_site_label
_atom_site_fract_x
_atom_site_fract_y
_atom_site_fract_z
Si Si1 0.579588 0.666105 0.750000
Si Si2 0.420144 0.333189 0.152899
Si Si3 0.579588 0.913483 0.750000
Si Si4 0.420144 0.333189 0.847101
Si Si5 0.578377 0.666885 0.560140
Si Si6 0.088508 0.666885 0.939860
O O1 0.640485 0.645727 0.800333
O O2 0.587660 0.793830 0.750000
O O3 0.441043 0.558957 0.750000
O O4 0.557858 0.442142 0.153657
O O5 0.414177 0.207089 0.158547
O O6 0.361991 0.344028 0.099539
O O7 0.640485 0.994758 0.800333
O O8 0.361991 0.344028 0.900461
O O9 0.586285 0.793142 0.571387
O O10 0.441104 0.558896 0.566641
O O11 0.610543 0.666277 0.500000
#
# Coordination Sequence:
#
# PCOD9585941 Si02
#       6
#     6  12   6  12  12  12
#     4  10  20  34  54  78 100 122 152 196 248 294
#     4  10  20  33  50  72  99 131 164 197 235 282
#     4  10  20  34  54  78 100 122 152 196 248 294
#     4  10  20  33  50  72  99 131 164 197 235 282
#     4   9  17  30  50  75 100 126 158 200 249 294
#     4   9  17  30  50  75 100 126 158 200 249 294
#
# _framework density 16.177121
#
# number of rings (size 3 to 8) (size 9 to 14) (size 15 to 20)
#    0.000    2.400    0.000    2.800    0.000    2.400 
#    0.000    6.000    0.000   13.600    0.000    0.000 
#    0.000    0.000    0.000    0.000    0.000    0.000 
#
# Total GULP energy -334719.846451 kJ/mol
# GULP energy per Si atom -5578.664108 kJ/mol
# Density = 1.614030 g / cm^3
# Si number density = 16.177121 Si / 1000 Ang^3
#
#
#
# Elastic Constant Matrix: (Units=GPa)
#
#
# Indices 1 2 3 4 5 6 
#
# 1 121.9866 86.9587 72.8173 0.0000 0.0000 0.0000
# 2 86.9587 121.9866 72.8173 0.0000 0.0000 0.0000
# 3 72.8173 72.8173 93.1071 0.0000 0.0000 0.0000
# 4 0.0000 0.0000 0.0000 15.3766 0.0000 0.0000
# 5 0.0000 0.0000 0.0000 0.0000 15.3766 0.0000
# 6 0.0000 0.0000 0.0000 0.0000 0.0000 17.5139
#
#
#
# Elastic Compliance Matrix: (Units=1/GPa)
#
#
# Indices 1 2 3 4 5 6 
#
# 1 0.019535 -0.009014 -0.008228 0.000000 0.000000 0.000000
# 2 -0.009014 0.019535 -0.008228 0.000000 0.000000 0.000000
# 3 -0.008228 -0.008228 0.023611 0.000000 0.000000 0.000000
# 4 0.000000 0.000000 0.000000 0.065034 0.000000 0.000000
# 5 0.000000 0.000000 0.000000 0.000000 0.065034 0.000000
# 6 0.000000 0.000000 0.000000 0.000000 0.000000 0.057097
#
#
# Mechanical properties :
#
#
# Convention : Reuss Voigt Hill
#
# Bulk Modulus (GPa) = 85.18188 89.14076 87.16132
# Shear Modulus (GPa) = 16.40958 16.61922 16.51440
#
# Velocity S-wave (km/s) = 3.18837 3.20867 3.19854
# Velocity P-wave (km/s) = 8.14398 8.30362 8.22418
#
# Compressibility (1/GPa) = 0.01173959
#
# Stress axis : x y z
#
# Youngs Moduli (GPa) = 51.19042 51.19042 42.35352
#
# Poissons Ratio (x) = 0.46142 0.34850
# Poissons Ratio (y) = 0.46142 0.34850
# Poissons Ratio (z) = 0.42121 0.42121
#
# Static dielectric constant tensor:
#      x y z
#    x 1.508050 0.000000 0.000000 
#    y 0.000000 1.508050 0.000000 
#    z 0.000000 0.000000 1.557550 
# 
# From -- ./inp_files/4240.got.cif
#   From: 2010.05.17/outbox.cif.g08.bks.cpg/sg188_3_cif.got.tgz:4240.got - 2010.05.20 12:11:46.
