data_PCOD9585537
_publ_section_title
;
Structure prediction by ZEFSAII (Michael W. Deem and Ramdas Pophale) SiO2 
 PCOD9585537
Probable space group: P -6 M 2
;
_chemical_formula_sum "Si O2"
_cell_formula_units_Z 78
_cell_length_a 23.267393
_cell_length_b 23.267393
_cell_length_c 10.029616
_cell_angle_alpha 90.000000
_cell_angle_beta 90.000000
_cell_angle_gamma 120.000000
_cell_volume 4702.300597
_symmetry_space_group_name_H-M "P -6 M 2"
_symmetry_group_IT_number 187
_symmetry_cell_setting 'hexagonal'
loop_
_space_group_symop_operation_xyz
x,y,z
-x+y,-x,-z
-y,x-y,z
x,y,-z
-x+y,-x,z
-y,x-y,-z
-y,-x,-z
-x+y,y,-z
x,x-y,-z
-x+y,y,z
x,x-y,z
-y,-x,z
loop_
_atom_site_type_symbol
_atom_site_label
_atom_site_fract_x
_atom_site_fract_y
_atom_site_fract_z
Si Si1 0.064556 0.266880 0.346435
Si Si2 0.142630 0.419553 0.730565
Si Si3 0.196847 0.529131 0.500000
Si Si4 0.940749 0.746455 0.840328
Si Si5 0.743769 0.124932 0.346093
Si Si6 0.535129 0.593476 0.143859
Si Si7 0.466740 0.060678 0.344123
O O1 0.040413 0.251078 0.500000
O O2 0.130078 0.260155 0.335434
O O3 0.090624 0.345317 0.321160
O O4 0.009561 0.219862 0.239312
O O5 0.209197 0.418394 0.764670
O O6 0.162940 0.478514 0.623251
O O7 0.110573 0.440246 0.846972
O O8 0.274872 0.549744 0.500000
O O9 0.188429 0.594215 0.500000
O O10 0.883464 0.766927 0.823952
O O11 0.911497 0.676292 0.762952
O O12 0.949943 0.742646 0.000000
O O13 0.745441 0.102667 0.500000
O O14 0.798314 0.201687 0.340306
O O15 0.670431 0.110434 0.319080
O O16 0.456182 0.543819 0.158674
O O17 0.570117 0.575293 0.259052
O O18 0.553875 0.578205 0.000000
O O19 0.456489 0.043013 0.500000
O O20 0.543453 0.086905 0.313000
#
# Coordination Sequence:
#
# PCOD9585537 Si02
#       7
#    12  12   6  12  12  12  12
#     4  10  20  35  54  77 106 136 166 203 250 302
#     4  10  20  33  50  72  98 129 166 208 255 303
#     4  10  19  32  50  72  97 130 172 218 260 300
#     4  10  21  35  52  77 106 133 166 207 248 295
#     4   9  17  30  49  71  96 129 165 202 245 293
#     4  10  21  34  47  67  95 126 161 203 251 300
#     4   9  18  31  48  70  95 125 162 201 242 291
#
# _framework density 16.587626
#
# number of rings (size 3 to 8) (size 9 to 14) (size 15 to 20)
#    0.000    2.308    0.769    1.923    1.077    5.231 
#    0.000    1.538    0.000    0.923    0.000    2.154 
#    0.000    0.000    0.000    7.692    0.000    8.000 
#
# Total GULP energy -434394.797017 kJ/mol
# GULP energy per Si atom -5569.164064 kJ/mol
# Density = 1.654987 g / cm^3
# Si number density = 16.587626 Si / 1000 Ang^3
#
#
#
# Elastic Constant Matrix: (Units=GPa)
#
#
# Indices 1 2 3 4 5 6 
#
# 1 85.7384 48.3363 52.6994 0.0000 -0.0061 0.0000
# 2 48.3363 85.7384 52.6994 0.0000 0.0061 0.0000
# 3 52.6994 52.6994 79.5081 0.0000 0.0000 0.0000
# 4 0.0000 0.0000 0.0000 101.8004 0.0000 0.0061
# 5 -0.0061 0.0061 0.0000 0.0000 101.8004 0.0000
# 6 0.0000 0.0000 0.0000 0.0061 0.0000 18.7011
#
#
#
# Elastic Compliance Matrix: (Units=1/GPa)
#
#
# Indices 1 2 3 4 5 6 
#
# 1 0.021155 -0.005582 -0.010322 0.000000 0.000002 0.000000
# 2 -0.005582 0.021155 -0.010322 0.000000 -0.000002 0.000000
# 3 -0.010322 -0.010322 0.026261 0.000000 0.000000 0.000000
# 4 0.000000 0.000000 0.000000 0.009823 0.000000 -0.000003
# 5 0.000002 -0.000002 0.000000 0.000000 0.009823 0.000000
# 6 0.000000 0.000000 0.000000 -0.000003 0.000000 0.053473
#
#
# Mechanical properties :
#
#
# Convention : Reuss Voigt Hill
#
# Bulk Modulus (GPa) = 62.04116 62.05057 62.04586
# Shear Modulus (GPa) = 25.06101 50.94368 38.00235
#
# Velocity S-wave (km/s) = 3.89115 5.54784 4.79164
# Velocity P-wave (km/s) = 7.59417 8.86155 8.25222
#
# Compressibility (1/GPa) = 0.01611833
#
# Stress axis : x y z
#
# Youngs Moduli (GPa) = 47.27100 47.27100 38.08000
#
# Poissons Ratio (x) = 0.26386 0.39306
# Poissons Ratio (y) = 0.26386 0.39306
# Poissons Ratio (z) = 0.48793 0.48793
#
# Static dielectric constant tensor:
#      x y z
#    x 1.559980 0.000000 0.000000 
#    y 0.000000 1.559980 0.000000 
#    z 0.000000 0.000000 1.589290 
# 
# From -- ./inp_files/1139.got.cif
#   From: 2010.05.17/outbox.cif.g08.bks.cpg/sg187_1_cif.got.tgz:1139.got - 2010.05.20 12:09:04.
