data_PCOD9585186
_publ_section_title
;
Structure prediction by ZEFSAII (Michael W. Deem and Ramdas Pophale) SiO2 
 PCOD9585186
Probable space group: P 6 C C
;
_chemical_formula_sum "Si O2"
_cell_formula_units_Z 84
_cell_length_a 18.801161
_cell_length_b 18.801161
_cell_length_c 13.123730
_cell_angle_alpha 90.000000
_cell_angle_beta 90.000000
_cell_angle_gamma 120.000000
_cell_volume 4017.512673
_symmetry_space_group_name_H-M "P 6 C C"
_symmetry_group_IT_number 184
_symmetry_cell_setting 'hexagonal'
loop_
_space_group_symop_operation_xyz
x,y,z
x-y,x,z
-y,x-y,z
-x,-y,z
-x+y,-x,z
y,-x+y,z
-x+y,y,1/2+z
x,x-y,1/2+z
-y,-x,1/2+z
y,x,1/2+z
x-y,-y,1/2+z
-x,-x+y,1/2+z
loop_
_atom_site_type_symbol
_atom_site_label
_atom_site_fract_x
_atom_site_fract_y
_atom_site_fract_z
Si Si1 0.048943 0.187389 0.844320
Si Si2 0.617462 0.502297 0.750617
Si Si3 0.504131 0.689263 0.040738
Si Si4 0.086710 0.298070 0.652845
Si Si5 0.923877 0.687221 0.020794
Si Si6 0.641986 0.486508 0.981711
Si Si7 0.929503 0.556338 0.686569
O O1 0.113832 0.156919 0.860627
O O2 0.059186 0.224309 0.731698
O O3 0.067958 0.260965 0.921061
O O4 0.676551 0.501254 0.663247
O O5 0.647171 0.515550 0.866110
O O6 0.531589 0.416377 0.741797
O O7 0.597698 0.573182 0.717213
O O8 0.591200 0.702007 0.002436
O O9 0.429079 0.607765 0.993483
O O10 0.496972 0.767999 0.013299
O O11 0.165675 0.310619 0.592414
O O12 0.103375 0.381482 0.708434
O O13 0.010842 0.277036 0.577964
O O14 0.620309 0.535252 0.065987
#
# Coordination Sequence:
#
# PCOD9585186 Si02
#       7
#    12  12  12  12  12  12  12
#     4  12  27  45  72 103 140 188 233 284 362 430
#     4  10  24  43  68 101 143 186 236 295 364 426
#     4  11  25  45  69 103 141 190 244 294 352 438
#     4  12  24  45  70 100 139 179 230 297 344 416
#     4  12  25  45  70 103 140 175 237 294 351 412
#     4  11  25  45  70 101 145 191 240 296 365 422
#     4  10  23  43  66 101 138 181 234 297 356 434
#
# _framework density 20.908460000000002
#
# number of rings (size 3 to 8) (size 9 to 14) (size 15 to 20)
#    0.000    0.857    5.714    0.429    2.000   10.286 
#    0.000    0.000    0.000    0.000    0.000    0.000 
#    0.000    0.000    0.000    0.000    0.000    0.000 
#
# Total GULP energy -470001.429443 kJ/mol
# GULP energy per Si atom -5595.255112 kJ/mol
# Density = 2.086087 g / cm^3
# Si number density = 20.908460 Si / 1000 Ang^3
#
#
#
# Elastic Constant Matrix: (Units=GPa)
#
#
# Indices 1 2 3 4 5 6 
#
# 1 76.1541 9.4462 26.6067 0.0000 0.0000 0.0000
# 2 9.4462 76.1541 26.6067 0.0000 0.0000 0.0000
# 3 26.6067 26.6067 116.3772 0.0000 0.0000 0.0000
# 4 0.0000 0.0000 0.0000 18.7076 0.0000 0.0000
# 5 0.0000 0.0000 0.0000 0.0000 18.7076 0.0000
# 6 0.0000 0.0000 0.0000 0.0000 0.0000 33.3540
#
#
#
# Elastic Compliance Matrix: (Units=1/GPa)
#
#
# Indices 1 2 3 4 5 6 
#
# 1 0.014304 -0.000687 -0.003113 0.000000 0.000000 0.000000
# 2 -0.000687 0.014304 -0.003113 0.000000 0.000000 0.000000
# 3 -0.003113 -0.003113 0.010016 0.000000 0.000000 0.000000
# 4 0.000000 0.000000 0.000000 0.053454 0.000000 0.000000
# 5 0.000000 0.000000 0.000000 0.000000 0.053454 0.000000
# 6 0.000000 0.000000 0.000000 0.000000 0.000000 0.029981
#
#
# Mechanical properties :
#
#
# Convention : Reuss Voigt Hill
#
# Bulk Modulus (GPa) = 40.32545 43.77827 42.05186
# Shear Modulus (GPa) = 25.30275 27.88890 26.59582
#
# Velocity S-wave (km/s) = 3.48252 3.65616 3.57040
# Velocity P-wave (km/s) = 5.95812 6.22952 6.09533
#
# Compressibility (1/GPa) = 0.02479823
#
# Stress axis : x y z
#
# Youngs Moduli (GPa) = 69.90978 69.90978 99.83722
#
# Poissons Ratio (x) = 0.04800 0.31082
# Poissons Ratio (y) = 0.04800 0.31082
# Poissons Ratio (z) = 0.21765 0.21765
#
# Static dielectric constant tensor:
#      x y z
#    x 1.738520 0.000000 0.000000 
#    y 0.000000 1.738520 0.000000 
#    z 0.000000 0.000000 1.732580 
# 
# From -- ./inp_files/954.got.cif
#   From: 2010.05.17/outbox.cif.g08.bks.cpg/sg184_cif.got.tgz:954.got - 2010.05.20 12:04:40.
