data_PCOD9585051
_publ_section_title
;
Structure prediction by ZEFSAII (Michael W. Deem and Ramdas Pophale) SiO2 
 PCOD9585051
Probable space group: P 6 M M
;
_chemical_formula_sum "Si O2"
_cell_formula_units_Z 48
_cell_length_a 17.288811
_cell_length_b 17.288811
_cell_length_c 10.321287
_cell_angle_alpha 90.000000
_cell_angle_beta 90.000000
_cell_angle_gamma 120.000000
_cell_volume 2671.743365
_symmetry_space_group_name_H-M "P 6 M M"
_symmetry_group_IT_number 183
_symmetry_cell_setting 'hexagonal'
loop_
_space_group_symop_operation_xyz
x,y,z
x-y,x,z
-y,x-y,z
-x,-y,z
-x+y,-x,z
y,-x+y,z
-x+y,y,z
x,x-y,z
-y,-x,z
y,x,z
x-y,-y,z
-x,-x+y,z
loop_
_atom_site_type_symbol
_atom_site_label
_atom_site_fract_x
_atom_site_fract_y
_atom_site_fract_z
Si Si1 0.838048 0.332490 0.910950
Si Si2 0.833076 0.166925 0.819605
Si Si3 0.107416 0.214832 0.562770
Si Si4 0.826574 0.653148 0.319288
Si Si5 0.106537 0.893464 0.075751
Si Si6 0.532275 0.638548 0.209597
O O1 0.867572 0.433786 0.874877
O O2 0.731188 0.268812 0.898383
O O3 0.872303 0.274318 0.832956
O O4 0.860479 0.331193 0.062538
O O5 0.863365 0.136635 0.693767
O O6 0.864637 0.135364 0.944743
O O7 0.153870 0.153870 0.557256
O O8 0.142463 0.284925 0.444498
O O9 0.866453 0.587555 0.303228
O O10 0.859567 0.719133 0.195943
O O11 0.000000 0.847096 0.080828
O O12 0.430561 0.569440 0.249400
O O13 0.583982 0.583982 0.202637
#
# Coordination Sequence:
#
# PCOD9585051 Si02
#       6
#    12   6   6   6   6  12
#     4   9  17  32  57  91 122 158 198 249 303 368
#     4  10  22  38  59  92 122 164 209 260 321 380
#     4  12  27  46  68  90 124 168 218 270 327 386
#     4  12  22  40  63  92 124 160 203 266 313 378
#     4  12  23  38  60  86 120 158 212 274 329 386
#     4  10  19  33  55  88 125 158 197 247 306 370
#
# _framework density 17.965796999999998
#
# number of rings (size 3 to 8) (size 9 to 14) (size 15 to 20)
#    0.750    0.750    3.750    3.500    0.000    1.000 
#    0.750    3.750    0.000    1.500    0.000    0.000 
#    0.000    0.000    0.000    0.000    0.000    0.000 
#
# Total GULP energy -267542.291025 kJ/mol
# GULP energy per Si atom -5573.797730 kJ/mol
# Density = 1.792491 g / cm^3
# Si number density = 17.965797 Si / 1000 Ang^3
#
#
#
# Elastic Constant Matrix: (Units=GPa)
#
#
# Indices 1 2 3 4 5 6 
#
# 1 141.0167 50.9019 53.1634 0.0000 0.0000 0.0000
# 2 50.9019 141.0167 53.1634 0.0000 0.0000 0.0000
# 3 53.1634 53.1634 110.7174 0.0000 0.0000 0.0000
# 4 0.0000 0.0000 0.0000 21.1831 0.0000 0.0000
# 5 0.0000 0.0000 0.0000 0.0000 21.1831 0.0000
# 6 0.0000 0.0000 0.0000 0.0000 0.0000 45.0574
#
#
#
# Elastic Compliance Matrix: (Units=1/GPa)
#
#
# Indices 1 2 3 4 5 6 
#
# 1 0.009098 -0.001999 -0.003409 0.000000 0.000000 0.000000
# 2 -0.001999 0.009098 -0.003409 0.000000 0.000000 0.000000
# 3 -0.003409 -0.003409 0.012306 0.000000 0.000000 0.000000
# 4 0.000000 0.000000 0.000000 0.047207 0.000000 0.000000
# 5 0.000000 0.000000 0.000000 0.000000 0.047207 0.000000
# 6 0.000000 0.000000 0.000000 0.000000 0.000000 0.022194
#
#
# Mechanical properties :
#
#
# Convention : Reuss Voigt Hill
#
# Bulk Modulus (GPa) = 77.70826 78.57867 78.14347
# Shear Modulus (GPa) = 29.58005 33.18620 31.38313
#
# Velocity S-wave (km/s) = 4.06207 4.30256 4.18404
# Velocity P-wave (km/s) = 8.08380 8.27741 8.18118
#
# Compressibility (1/GPa) = 0.01286864
#
# Stress axis : x y z
#
# Youngs Moduli (GPa) = 109.91405 109.91405 81.26380
#
# Poissons Ratio (x) = 0.21971 0.27701
# Poissons Ratio (y) = 0.21971 0.27701
# Poissons Ratio (z) = 0.37467 0.37467
#
# Static dielectric constant tensor:
#      x y z
#    x 1.647120 0.000000 0.000000 
#    y 0.000000 1.647120 0.000000 
#    z 0.000000 0.000000 1.574220 
# 
# From -- ./inp_files/723.got.cif
#   From: 2010.05.17/outbox.cif.g08.bks.cpg/sg183_1_cif.got.tgz:723.got - 2010.05.20 12:02:58.
