data_PCOD9585036
_publ_section_title
;
Structure prediction by ZEFSAII (Michael W. Deem and Ramdas Pophale) SiO2 
 PCOD9585036
Probable space group: P 6 M M
;
_chemical_formula_sum "Si O2"
_cell_formula_units_Z 96
_cell_length_a 17.806036
_cell_length_b 17.806036
_cell_length_c 21.085411
_cell_angle_alpha 90.000000
_cell_angle_beta 90.000000
_cell_angle_gamma 120.000000
_cell_volume 5789.581830
_symmetry_space_group_name_H-M "P 6 M M"
_symmetry_group_IT_number 183
_symmetry_cell_setting 'hexagonal'
loop_
_space_group_symop_operation_xyz
x,y,z
x-y,x,z
-y,x-y,z
-x,-y,z
-x+y,-x,z
y,-x+y,z
-x+y,y,z
x,x-y,z
-y,-x,z
y,x,z
x-y,-y,z
-x,-x+y,z
loop_
_atom_site_type_symbol
_atom_site_label
_atom_site_fract_x
_atom_site_fract_y
_atom_site_fract_z
Si Si1 0.899136 0.270753 0.505130
Si Si2 0.895391 0.362813 0.128741
Si Si3 0.637164 0.104617 0.877587
Si Si4 0.637164 0.104617 0.379895
Si Si5 0.731356 0.627921 0.254279
Si Si6 0.899136 0.270753 0.752352
Si Si7 0.731356 0.103435 0.003203
Si Si8 0.332702 0.843729 0.628741
O O1 0.831430 0.168571 0.510635
O O2 0.873535 0.306226 0.443156
O O3 0.885917 0.316453 0.566592
O O4 0.000000 0.299211 0.499862
O O5 0.860166 0.430083 0.128742
O O6 0.874411 0.306603 0.192159
O O7 0.874411 0.306603 0.065323
O O8 0.000000 0.420974 0.128741
O O9 0.569978 0.139955 0.877689
O O10 0.693775 0.126465 0.814326
O O11 0.579147 0.000000 0.877234
O O12 0.693129 0.125345 0.941127
O O13 0.569978 0.139955 0.379793
O O14 0.693128 0.125345 0.316355
O O15 0.579147 0.000000 0.380248
O O16 0.834674 0.669348 0.254392
O O17 0.695307 0.695307 0.254197
O O18 0.831430 0.168571 0.746846
O O19 0.885916 0.316453 0.690890
O O20 0.000000 0.299211 0.757619
O O21 0.834674 0.165327 0.003091
O O22 0.695307 0.000000 0.003286
O O23 0.426822 0.853643 0.628741
O O24 0.257203 0.742798 0.628741
#
# Coordination Sequence:
#
# PCOD9585036 Si02
#       8
#    12  12  12  12  12  12  12  12
#     4  10  20  33  50  72  97 127 163 201 239 280
#     4   9  17  30  49  70  90 116 152 193 237 286
#     4   9  17  30  49  71  93 119 153 192 234 283
#     4   9  17  30  49  71  93 119 153 192 234 283
#     4  10  19  31  49  72  97 127 164 203 240 280
#     4  10  20  33  50  72  97 127 163 201 239 280
#     4  10  19  31  49  72  97 127 164 203 240 280
#     4  10  20  33  50  73 100 128 157 192 236 285
#
# _framework density 16.581507999999999
#
# number of rings (size 3 to 8) (size 9 to 14) (size 15 to 20)
#    0.000    2.375    0.000    3.125    0.000    5.000 
#    0.000    0.000    0.000   14.000    0.000    0.000 
#    0.000   12.000    0.000    0.000    0.000    2.000 
#
# Total GULP energy -535092.956750 kJ/mol
# GULP energy per Si atom -5573.884966 kJ/mol
# Density = 1.654377 g / cm^3
# Si number density = 16.581508 Si / 1000 Ang^3
#
#
#
# Elastic Constant Matrix: (Units=GPa)
#
#
# Indices 1 2 3 4 5 6 
#
# 1 93.3656 63.0590 38.7714 0.0000 0.0000 0.0000
# 2 63.0590 93.3656 38.7714 0.0000 0.0000 0.0000
# 3 38.7714 38.7714 149.4370 0.0000 0.0000 0.0000
# 4 0.0000 0.0000 0.0000 19.2691 0.0000 0.0000
# 5 0.0000 0.0000 0.0000 0.0000 19.2691 0.0000
# 6 0.0000 0.0000 0.0000 0.0000 0.0000 15.1533
#
#
#
# Elastic Compliance Matrix: (Units=1/GPa)
#
#
# Indices 1 2 3 4 5 6 
#
# 1 0.020166 -0.012830 -0.001903 0.000000 0.000000 0.000000
# 2 -0.012830 0.020166 -0.001903 0.000000 0.000000 0.000000
# 3 -0.001903 -0.001903 0.007679 0.000000 0.000000 0.000000
# 4 0.000000 0.000000 0.000000 0.051897 0.000000 0.000000
# 5 0.000000 0.000000 0.000000 0.000000 0.051897 0.000000
# 6 0.000000 0.000000 0.000000 0.000000 0.000000 0.065992
#
#
# Mechanical properties :
#
#
# Convention : Reuss Voigt Hill
#
# Bulk Modulus (GPa) = 67.84911 68.59688 68.22299
# Shear Modulus (GPa) = 19.53249 23.77605 21.65427
#
# Velocity S-wave (km/s) = 3.43588 3.79078 3.61768
# Velocity P-wave (km/s) = 7.53311 7.78584 7.66052
#
# Compressibility (1/GPa) = 0.01473859
#
# Stress axis : x y z
#
# Youngs Moduli (GPa) = 49.58779 49.58779 130.21725
#
# Poissons Ratio (x) = 0.63620 0.24786
# Poissons Ratio (y) = 0.63620 0.24786
# Poissons Ratio (z) = 0.09439 0.09439
#
# Static dielectric constant tensor:
#      x y z
#    x 1.554260 0.000000 0.000000 
#    y 0.000000 1.554260 0.000000 
#    z 0.000000 0.000000 1.560290 
# 
# From -- ./inp_files/3151.got.cif
#   From: 2010.05.17/outbox.cif.g08.bks.cpg/sg183_2_cif.got.tgz:3151.got - 2010.05.20 12:02:58.
