data_PCOD9585320
_publ_section_title
;
Structure prediction by ZEFSAII (Michael W. Deem and Ramdas Pophale) SiO2 
 PCOD9585320
Probable space group: P 63 M C
;
_chemical_formula_sum "Si O2"
_cell_formula_units_Z 84
_cell_length_a 33.513400
_cell_length_b 33.513400
_cell_length_c 5.108690
_cell_angle_alpha 90.000000
_cell_angle_beta 90.000000
_cell_angle_gamma 120.000000
_cell_volume 4969.093424
_symmetry_space_group_name_H-M "P 63 M C"
_symmetry_group_IT_number 186
_symmetry_cell_setting 'hexagonal'
loop_
_space_group_symop_operation_xyz
x,y,z
x-y,x,1/2+z
-y,x-y,z
-x,-y,1/2+z
-x+y,-x,z
y,-x+y,1/2+z
-x+y,y,z
x,x-y,z
-y,-x,z
y,x,1/2+z
x-y,-y,1/2+z
-x,-x+y,1/2+z
loop_
_atom_site_type_symbol
_atom_site_label
_atom_site_fract_x
_atom_site_fract_y
_atom_site_fract_z
Si Si1 0.597907 0.845475 0.611750
Si Si2 0.494132 0.158927 0.229321
Si Si3 0.783969 0.124203 0.611344
Si Si4 0.577249 0.422752 0.107192
Si Si5 0.608685 0.391316 0.605128
Si Si6 0.749830 0.969719 0.244148
Si Si7 0.125510 0.156665 0.203171
Si Si8 0.218973 0.525938 0.229906
O O1 0.580942 0.790471 0.640899
O O2 0.558976 0.859120 0.664635
O O3 0.619095 0.860130 0.323857
O O4 0.638204 0.870557 0.824983
O O5 0.522563 0.132241 0.168688
O O6 0.502407 0.176618 0.527352
O O7 0.518201 0.201861 0.026819
O O8 0.838073 0.161928 0.632613
O O9 0.775423 0.074148 0.676912
O O10 0.598590 0.401411 0.313265
O O11 0.587041 0.412960 0.811969
O O12 0.579892 0.337726 0.663950
O O13 0.790248 0.956892 0.219902
O O14 0.752838 0.990046 0.531834
O O15 0.076690 0.153380 0.235727
O O16 0.136465 0.130233 0.428494
O O17 0.253817 0.507635 0.184369
#
# Coordination Sequence:
#
# PCOD9585320 Si02
#       8
#    12  12  12   6   6  12  12  12
#     4  10  19  29  44  67  93 126 158 188 236 294
#     4  10  18  29  43  60  81 110 150 187 227 282
#     4  10  20  33  48  70 103 131 156 195 239 282
#     4   8  16  28  42  54  76 104 138 187 228 264
#     4   8  16  26  34  50  66  90 128 167 224 268
#     4  10  20  34  53  75  98 132 170 200 237 286
#     4  10  20  34  54  77 101 131 172 218 258 296
#     4  10  17  26  39  52  71  99 135 182 223 266
#
# _framework density 16.904491
#
# number of rings (size 3 to 8) (size 9 to 14) (size 15 to 20)
#    0.000    2.286    0.000    3.857    0.000    1.143 
#    0.429    4.286    0.000    2.857    0.000    0.000 
#    0.000    0.000    0.000   12.857    0.000    0.000 
#
# Total GULP energy -467911.555663 kJ/mol
# GULP energy per Si atom -5570.375663 kJ/mol
# Density = 1.686602 g / cm^3
# Si number density = 16.904491 Si / 1000 Ang^3
#
#
#
# Elastic Constant Matrix: (Units=GPa)
#
#
# Indices 1 2 3 4 5 6 
#
# 1 44.2405 18.3779 -13.9844 0.0000 0.0000 0.0000
# 2 18.3779 44.2405 -13.9844 0.0000 0.0000 0.0000
# 3 -13.9844 -13.9844 54.3895 0.0000 0.0000 0.0000
# 4 0.0000 0.0000 0.0000 9.5519 0.0000 0.0000
# 5 0.0000 0.0000 0.0000 0.0000 9.5519 0.0000
# 6 0.0000 0.0000 0.0000 0.0000 0.0000 12.9313
#
#
#
# Elastic Compliance Matrix: (Units=1/GPa)
#
#
# Indices 1 2 3 4 5 6 
#
# 1 0.028354 -0.010312 0.004639 0.000000 0.000000 0.000000
# 2 -0.010312 0.028354 0.004639 0.000000 0.000000 0.000000
# 3 0.004639 0.004639 0.020771 0.000000 0.000000 0.000000
# 4 0.000000 0.000000 0.000000 0.104691 0.000000 0.000000
# 5 0.000000 0.000000 0.000000 0.000000 0.104691 0.000000
# 6 0.000000 0.000000 0.000000 0.000000 0.000000 0.077332
#
#
# Mechanical properties :
#
#
# Convention : Reuss Voigt Hill
#
# Bulk Modulus (GPa) = 13.26084 13.74317 13.50200
# Shear Modulus (GPa) = 12.77471 16.57112 14.67292
#
# Velocity S-wave (km/s) = 2.75198 3.13434 2.94936
# Velocity P-wave (km/s) = 4.23786 4.60937 4.42751
#
# Compressibility (1/GPa) = 0.07541003
#
# Stress axis : x y z
#
# Youngs Moduli (GPa) = 35.26868 35.26868 48.14324
#
# Poissons Ratio (x) = 0.36369 -0.22333
# Poissons Ratio (y) = 0.36369 -0.22333
# Poissons Ratio (z) = -0.16361 -0.16361
#
# Static dielectric constant tensor:
#      x y z
#    x 1.586810 0.000000 0.000000 
#    y 0.000000 1.586810 0.000000 
#    z 0.000000 0.000000 1.568190 
# 
# From -- ./inp_files/459.got.cif
#   From: 2010.05.17/outbox.cif.g08.bks.cpg/sg186_1_cif.got.tgz:459.got - 2010.05.20 12:07:08.
