data_PCOD9585813
_publ_section_title
;
Structure prediction by ZEFSAII (Michael W. Deem and Ramdas Pophale) SiO2 
 PCOD9585813
Probable space group: P -6 M 2
;
_chemical_formula_sum "Si O2"
_cell_formula_units_Z 84
_cell_length_a 17.493758
_cell_length_b 17.493758
_cell_length_c 23.530834
_cell_angle_alpha 90.000000
_cell_angle_beta 90.000000
_cell_angle_gamma 120.000000
_cell_volume 6236.403127
_symmetry_space_group_name_H-M "P -6 M 2"
_symmetry_group_IT_number 187
_symmetry_cell_setting 'hexagonal'
loop_
_space_group_symop_operation_xyz
x,y,z
-x+y,-x,-z
-y,x-y,z
x,y,-z
-x+y,-x,z
-y,x-y,-z
-y,-x,-z
-x+y,y,-z
x,x-y,-z
-x+y,y,z
x,x-y,z
-y,-x,z
loop_
_atom_site_type_symbol
_atom_site_label
_atom_site_fract_x
_atom_site_fract_y
_atom_site_fract_z
Si Si1 0.604892 0.033308 0.673427
Si Si2 0.236990 0.939551 0.717074
Si Si3 0.001176 0.178004 0.607279
Si Si4 0.759958 0.058490 0.827449
Si Si5 0.000143 0.181191 0.065183
Si Si6 0.846111 0.511604 0.783409
Si Si7 0.904670 0.628467 0.435757
O O1 0.502797 0.005594 0.671972
O O2 0.651142 0.110570 0.720700
O O3 0.651108 0.068797 0.612761
O O4 0.626819 0.958436 0.693924
O O5 0.162155 0.837846 0.720541
O O6 0.203178 0.984688 0.670838
O O7 0.252555 0.987875 0.777321
O O8 0.093087 0.186174 0.588745
O O9 0.968436 0.234249 0.571176
O O10 0.922651 0.077350 0.606573
O O11 0.856777 0.143224 0.816248
O O12 0.764244 0.018836 0.887851
O O13 0.693048 0.096357 0.822944
O O14 0.919553 0.080448 0.069537
O O15 0.092195 0.184390 0.075999
O O16 0.000461 0.209768 0.000000
O O17 0.746960 0.493920 0.782594
O O18 0.849578 0.424789 0.799998
O O19 0.910317 0.601743 0.500000
O O20 0.806083 0.612165 0.425913
#
# Coordination Sequence:
#
# PCOD9585813 Si02
#       7
#    12  12  12  12  12  12  12
#     4   9  17  28  42  59  76  95 123 157 192 233
#     4   9  16  26  40  57  78 102 126 155 193 232
#     4   9  16  25  37  54  77 104 131 156 181 211
#     4   9  16  25  38  57  80 105 133 162 191 225
#     4   9  16  25  37  54  78 108 139 167 192 219
#     4   9  16  26  41  60  80 101 126 158 195 233
#     4   9  17  28  40  54  74  99 124 151 185 224
#
# _framework density 13.469303
#
# number of rings (size 3 to 8) (size 9 to 14) (size 15 to 20)
#    0.000    3.000    0.000    1.714    0.000    4.571 
#    0.000    0.000    0.000    6.429    0.000    0.000 
#    0.000    1.143    0.000    0.429    0.000    4.429 
#
# Total GULP energy -467638.267013 kJ/mol
# GULP energy per Si atom -5567.122226 kJ/mol
# Density = 1.343865 g / cm^3
# Si number density = 13.469303 Si / 1000 Ang^3
#
#
#
# Elastic Constant Matrix: (Units=GPa)
#
#
# Indices 1 2 3 4 5 6 
#
# 1 73.2660 37.0305 45.1814 0.0000 0.0000 0.0000
# 2 37.0305 73.2660 45.1814 0.0000 0.0000 0.0000
# 3 45.1814 45.1814 90.0303 0.0000 0.0000 0.0000
# 4 0.0000 0.0000 0.0000 13.1446 0.0000 0.0000
# 5 0.0000 0.0000 0.0000 0.0000 13.1446 0.0000
# 6 0.0000 0.0000 0.0000 0.0000 0.0000 18.1177
#
#
#
# Elastic Compliance Matrix: (Units=1/GPa)
#
#
# Indices 1 2 3 4 5 6 
#
# 1 0.021497 -0.006100 -0.007727 0.000000 0.000000 0.000000
# 2 -0.006100 0.021497 -0.007727 0.000000 0.000000 0.000000
# 3 -0.007727 -0.007727 0.018863 0.000000 0.000000 0.000000
# 4 0.000000 0.000000 0.000000 0.076077 0.000000 0.000000
# 5 0.000000 0.000000 0.000000 0.000000 0.076077 0.000000
# 6 0.000000 0.000000 0.000000 0.000000 0.000000 0.055195
#
#
# Mechanical properties :
#
#
# Convention : Reuss Voigt Hill
#
# Bulk Modulus (GPa) = 53.33602 54.59430 53.96516
# Shear Modulus (GPa) = 15.69549 16.15932 15.92741
#
# Velocity S-wave (km/s) = 3.41732 3.46745 3.44248
# Velocity P-wave (km/s) = 7.43337 7.52671 7.48018
#
# Compressibility (1/GPa) = 0.01874906
#
# Stress axis : x y z
#
# Youngs Moduli (GPa) = 46.51798 46.51798 53.01445
#
# Poissons Ratio (x) = 0.28377 0.40964
# Poissons Ratio (y) = 0.28377 0.40964
# Poissons Ratio (z) = 0.35944 0.35944
#
# Static dielectric constant tensor:
#      x y z
#    x 1.428370 0.000000 0.000000 
#    y 0.000000 1.428370 0.000000 
#    z 0.000000 0.000000 1.439760 
# 
# From -- ./inp_files/3656.got.cif
#   From: 2010.05.17/outbox.cif.g08.bks.cpg/sg187_2_cif.got.tgz:3656.got - 2010.05.20 12:09:04.
