data_PCOD9585924
_publ_section_title
;
Structure prediction by ZEFSAII (Michael W. Deem and Ramdas Pophale) SiO2 
 PCOD9585924
Probable space group: P -6 C 2
;
_chemical_formula_sum "Si O2"
_cell_formula_units_Z 58
_cell_length_a 15.403994
_cell_length_b 15.403994
_cell_length_c 13.572242
_cell_angle_alpha 90.000000
_cell_angle_beta 90.000000
_cell_angle_gamma 120.000000
_cell_volume 2789.002529
_symmetry_space_group_name_H-M "P -6 C 2"
_symmetry_group_IT_number 188
_symmetry_cell_setting 'hexagonal'
loop_
_space_group_symop_operation_xyz
x,y,z
-x+y,-x,1/2-z
-y,x-y,z
x,y,1/2-z
-x+y,-x,z
-y,x-y,1/2-z
-y,-x,-z
-x+y,y,-z
x,x-y,-z
-x+y,y,1/2+z
x,x-y,1/2+z
-y,-x,1/2+z
loop_
_atom_site_type_symbol
_atom_site_label
_atom_site_fract_x
_atom_site_fract_y
_atom_site_fract_z
Si Si1 0.333334 0.666668 0.615578
Si Si2 0.995289 0.797776 0.998503
Si Si3 0.528649 0.471352 0.500000
Si Si4 0.548708 0.820599 0.359072
Si Si5 0.332280 0.381351 0.631440
Si Si6 0.670502 0.048941 0.132603
O O1 0.333334 0.666667 0.500000
O O2 0.232601 0.570102 0.647471
O O3 0.951015 0.718862 0.090152
O O4 0.109127 0.890874 0.000000
O O5 0.920527 0.841053 0.000000
O O6 0.994567 0.727466 0.909002
O O7 0.440242 0.442041 0.580339
O O8 0.479720 0.370650 0.431749
O O9 0.594535 0.837056 0.250000
O O10 0.572434 0.737942 0.402474
O O11 0.591776 0.932150 0.395298
O O12 0.342717 0.386866 0.750000
O O13 0.672763 0.065540 0.250000
#
# Coordination Sequence:
#
# PCOD9585924 Si02
#       6
#     4  12   6  12  12  12
#     4  12  25  23  43  78 115 155 202 231 253 314
#     4  11  23  39  61  83 112 154 210 269 319 364
#     4  10  20  30  56  82 110 146 188 224 272 354
#     4  10  20  33  45  65 105 154 193 230 276 323
#     4  10  21  37  56  80 115 156 195 244 301 354
#     4  10  21  37  56  80 115 156 195 244 301 354
#
# _framework density 20.795964000000001
#
# number of rings (size 3 to 8) (size 9 to 14) (size 15 to 20)
#    0.000    1.655    2.069    2.690    8.690    4.138 
#    0.000    0.000    0.000    2.483    0.000    0.000 
#   66.207    0.000   19.862    0.000    0.000    0.000 
#
# Total GULP energy -322872.508349 kJ/mol
# GULP energy per Si atom -5566.767385 kJ/mol
# Density = 2.074863 g / cm^3
# Si number density = 20.795964 Si / 1000 Ang^3
#
#
#
# Elastic Constant Matrix: (Units=GPa)
#
#
# Indices 1 2 3 4 5 6 
#
# 1 58.5877 3.3727 10.5266 0.0000 0.0001 0.0000
# 2 3.3727 58.5878 10.5265 0.0002 -0.0001 -0.0001
# 3 10.5266 10.5265 144.0045 -0.0004 0.0001 0.0000
# 4 0.0000 0.0002 -0.0004 7.8212 0.0000 0.0001
# 5 0.0001 -0.0001 0.0001 0.0000 7.8222 0.0000
# 6 0.0000 -0.0001 0.0000 0.0001 0.0000 27.6075
#
#
#
# Elastic Compliance Matrix: (Units=1/GPa)
#
#
# Indices 1 2 3 4 5 6 
#
# 1 0.017331 -0.000780 -0.001210 0.000000 0.000000 0.000000
# 2 -0.000780 0.017331 -0.001210 -0.000001 0.000000 0.000000
# 3 -0.001210 -0.001210 0.007121 0.000000 0.000000 0.000000
# 4 0.000000 -0.000001 0.000000 0.127857 0.000000 0.000000
# 5 0.000000 0.000000 0.000000 0.000000 0.127842 0.000000
# 6 0.000000 0.000000 0.000000 0.000000 0.000000 0.036222
#
#
# Mechanical properties :
#
#
# Convention : Reuss Voigt Hill
#
# Bulk Modulus (GPa) = 28.26244 34.44796 31.35520
# Shear Modulus (GPa) = 14.20866 24.43379 19.32123
#
# Velocity S-wave (km/s) = 2.61672 3.43144 3.05140
# Velocity P-wave (km/s) = 4.76965 5.68335 5.24642
#
# Compressibility (1/GPa) = 0.03538264
#
# Stress axis : x y z
#
# Youngs Moduli (GPa) = 57.70102 57.70116 140.42777
#
# Poissons Ratio (x) = 0.04502 0.16989
# Poissons Ratio (y) = 0.04502 0.16989
# Poissons Ratio (z) = 0.06981 0.06981
#
# Static dielectric constant tensor:
#      x y z
#    x 1.792960 0.000000 0.000000 
#    y 0.000000 1.792960 0.000000 
#    z 0.000000 0.000000 1.854000 
# 
# From -- ./inp_files/2296.got.cif
#   From: 2010.05.17/outbox.cif.g08.bks.cpg/sg188_2_cif.got.tgz:2296.got - 2010.05.20 12:11:46.
