data_PCOD9585762
_publ_section_title
;
Structure prediction by ZEFSAII (Michael W. Deem and Ramdas Pophale) SiO2 
 PCOD9585762
Probable space group: P -6 M 2
;
_chemical_formula_sum "Si O2"
_cell_formula_units_Z 84
_cell_length_a 18.595379
_cell_length_b 18.595379
_cell_length_c 14.805834
_cell_angle_alpha 90.000000
_cell_angle_beta 90.000000
_cell_angle_gamma 120.000000
_cell_volume 4433.774244
_symmetry_space_group_name_H-M "P -6 M 2"
_symmetry_group_IT_number 187
_symmetry_cell_setting 'hexagonal'
loop_
_space_group_symop_operation_xyz
x,y,z
-x+y,-x,-z
-y,x-y,z
x,y,-z
-x+y,-x,z
-y,x-y,-z
-y,-x,-z
-x+y,y,-z
x,x-y,-z
-x+y,y,z
x,x-y,z
-y,-x,z
loop_
_atom_site_type_symbol
_atom_site_label
_atom_site_fract_x
_atom_site_fract_y
_atom_site_fract_z
Si Si1 0.821054 0.332731 0.608363
Si Si2 0.999136 0.835079 0.142300
Si Si3 0.677749 0.655794 0.397469
Si Si4 0.257406 0.352134 0.895503
Si Si5 0.165896 0.000141 0.360746
Si Si6 0.837053 0.333312 0.106269
Si Si7 0.412693 0.417046 0.780301
O O1 0.813481 0.335265 0.500000
O O2 0.852213 0.426107 0.641966
O O3 0.731071 0.268930 0.646262
O O4 0.882454 0.297090 0.619872
O O5 0.075169 0.924831 0.113096
O O6 0.022367 0.766527 0.112834
O O7 0.911073 0.822146 0.111642
O O8 0.998989 0.834663 0.251411
O O9 0.644321 0.642902 0.500000
O O10 0.754720 0.748008 0.389409
O O11 0.612613 0.631461 0.316889
O O12 0.177303 0.354606 0.857921
O O13 0.341454 0.410735 0.845114
O O14 0.265739 0.373433 0.000000
O O15 0.161597 0.080799 0.391195
O O16 0.085135 0.914865 0.389893
O O17 0.816836 0.408418 0.114613
O O18 0.755602 0.244399 0.124084
O O19 0.913354 0.356302 0.174459
O O20 0.861499 0.334057 0.000000
O O21 0.493079 0.506922 0.775872
#
# Coordination Sequence:
#
# PCOD9585762 Si02
#       7
#    12  12  12  12  12  12  12
#     4   9  17  30  48  69  95 131 178 232 288 342
#     4   9  17  31  53  82 117 157 199 241 284 335
#     4  11  23  38  56  79 111 150 193 242 292 340
#     4  10  21  38  60  86 117 151 186 229 286 350
#     4  10  20  36  58  84 115 154 200 246 286 329
#     4   9  18  33  54  81 113 148 186 228 276 333
#     4  11  23  39  60  84 112 148 190 237 288 346
#
# _framework density 18.945485000000001
#
# number of rings (size 3 to 8) (size 9 to 14) (size 15 to 20)
#    0.000    2.143    1.429    1.857    0.000    7.143 
#    0.000    0.000    0.000    3.714    0.000    0.000 
#    0.000    0.000    0.000    0.000    0.000    0.000 
#
# Total GULP energy -468705.427136 kJ/mol
# GULP energy per Si atom -5579.826514 kJ/mol
# Density = 1.890236 g / cm^3
# Si number density = 18.945485 Si / 1000 Ang^3
#
#
#
# Elastic Constant Matrix: (Units=GPa)
#
#
# Indices 1 2 3 4 5 6 
#
# 1 98.9183 67.6151 36.1307 0.0000 0.0001 0.0000
# 2 67.6151 98.9183 36.1307 0.0000 -0.0001 0.0000
# 3 36.1307 36.1307 99.0731 0.0000 0.0000 0.0000
# 4 0.0000 0.0000 0.0000 4.7796 0.0000 -0.0001
# 5 0.0001 -0.0001 0.0000 0.0000 4.7796 0.0000
# 6 0.0000 0.0000 0.0000 -0.0001 0.0000 15.6516
#
#
#
# Elastic Compliance Matrix: (Units=1/GPa)
#
#
# Indices 1 2 3 4 5 6 
#
# 1 0.019540 -0.012406 -0.002602 0.000000 -0.000001 0.000000
# 2 -0.012406 0.019540 -0.002602 0.000000 0.000001 0.000000
# 3 -0.002602 -0.002602 0.011991 0.000000 0.000000 0.000000
# 4 0.000000 0.000000 0.000000 0.209222 0.000000 0.000001
# 5 -0.000001 0.000001 0.000000 0.000000 0.209222 0.000000
# 6 0.000000 0.000000 0.000000 0.000001 0.000000 0.063891
#
#
# Mechanical properties :
#
#
# Convention : Reuss Voigt Hill
#
# Bulk Modulus (GPa) = 63.08288 64.07364 63.57826
# Shear Modulus (GPa) = 8.71219 15.51105 12.11162
#
# Velocity S-wave (km/s) = 2.14675 2.86443 2.53116
# Velocity P-wave (km/s) = 6.28602 6.69577 6.49413
#
# Compressibility (1/GPa) = 0.01585216
#
# Stress axis : x y z
#
# Youngs Moduli (GPa) = 51.17813 51.17813 83.39539
#
# Poissons Ratio (x) = 0.63491 0.21696
# Poissons Ratio (y) = 0.63491 0.21696
# Poissons Ratio (z) = 0.13314 0.13314
#
# Static dielectric constant tensor:
#      x y z
#    x 1.642320 0.000000 0.000000 
#    y 0.000000 1.642320 0.000000 
#    z 0.000000 0.000000 1.716200 
# 
# From -- ./inp_files/2596.got.cif
#   From: 2010.05.17/outbox.cif.g08.bks.cpg/sg187_2_cif.got.tgz:2596.got - 2010.05.20 12:09:04.
