data_PCOD9585988
_publ_section_title
;
Structure prediction by ZEFSAII (Michael W. Deem and Ramdas Pophale) SiO2 
 PCOD9585988
Probable space group: P -6 C 2
;
_chemical_formula_sum "Si O2"
_cell_formula_units_Z 58
_cell_length_a 13.884424
_cell_length_b 13.884424
_cell_length_c 15.354596
_cell_angle_alpha 90.000000
_cell_angle_beta 90.000000
_cell_angle_gamma 120.000000
_cell_volume 2563.449469
_symmetry_space_group_name_H-M "P -6 C 2"
_symmetry_group_IT_number 188
_symmetry_cell_setting 'hexagonal'
loop_
_space_group_symop_operation_xyz
x,y,z
-x+y,-x,1/2-z
-y,x-y,z
x,y,1/2-z
-x+y,-x,z
-y,x-y,1/2-z
-y,-x,-z
-x+y,y,-z
x,x-y,-z
-x+y,y,1/2+z
x,x-y,1/2+z
-y,-x,1/2+z
loop_
_atom_site_type_symbol
_atom_site_label
_atom_site_fract_x
_atom_site_fract_y
_atom_site_fract_z
Si Si1 0.452798 0.365065 0.143009
Si Si2 0.857487 0.928744 0.000000
Si Si3 0.436546 0.133191 0.355625
Si Si4 0.333334 0.666668 0.853342
Si Si5 0.077310 0.793023 0.845787
Si Si6 0.549787 0.709485 0.586311
O O1 0.439974 0.367852 0.250000
O O2 0.578731 0.458554 0.118856
O O3 0.437860 0.245626 0.118002
O O4 0.365244 0.392328 0.096049
O O5 0.787970 0.889588 0.087001
O O6 0.939460 0.878919 0.000000
O O7 0.439485 0.135873 0.250000
O O8 0.322377 0.023186 0.380175
O O9 0.333334 0.666668 0.750000
O O10 0.213339 0.579553 0.891796
O O11 0.046855 0.813859 0.750000
O O12 0.192697 0.794163 0.842422
O O13 0.563920 0.781960 0.500000
#
# Coordination Sequence:
#
# PCOD9585988 Si02
#       6
#    12   6  12   4  12  12
#     4  10  20  39  68 104 141 186 235 293 360 430
#     4  10  26  44  64  94 132 176 228 288 354 426
#     4   9  20  37  66 102 140 179 231 291 353 425
#     4  12  25  44  67  99 136 179 241 301 356 436
#     4  11  23  42  67  98 135 181 231 287 353 425
#     4  12  25  42  67  99 140 187 235 291 360 430
#
# _framework density 22.625765000000001
#
# number of rings (size 3 to 8) (size 9 to 14) (size 15 to 20)
#    0.207    1.241    1.034    4.138    2.897    4.138 
#    0.000    0.000    0.000    0.000    0.000    2.897 
#    0.000    0.000    0.000    0.000    0.000    0.414 
#
# Total GULP energy -324046.426418 kJ/mol
# GULP energy per Si atom -5587.007352 kJ/mol
# Density = 2.257427 g / cm^3
# Si number density = 22.625765 Si / 1000 Ang^3
#
#
#
# Elastic Constant Matrix: (Units=GPa)
#
#
# Indices 1 2 3 4 5 6 
#
# 1 159.7933 81.6991 33.6667 0.0007 -0.0001 0.0001
# 2 81.6991 159.7944 33.6670 -0.0008 0.0001 -0.0001
# 3 33.6667 33.6670 103.8264 0.0001 -0.0001 0.0001
# 4 0.0007 -0.0008 0.0001 16.0473 -0.0001 -0.0001
# 5 -0.0001 0.0001 -0.0001 -0.0001 16.0472 0.0007
# 6 0.0001 -0.0001 0.0001 -0.0001 0.0007 39.0473
#
#
#
# Elastic Compliance Matrix: (Units=1/GPa)
#
#
# Indices 1 2 3 4 5 6 
#
# 1 0.008679 -0.004126 -0.001476 -0.000001 0.000000 0.000000
# 2 -0.004126 0.008679 -0.001476 0.000001 0.000000 0.000000
# 3 -0.001476 -0.001476 0.010589 0.000000 0.000000 0.000000
# 4 -0.000001 0.000001 0.000000 0.062316 0.000000 0.000000
# 5 0.000000 0.000000 0.000000 0.000000 0.062316 -0.000001
# 6 0.000000 0.000000 0.000000 0.000000 -0.000001 0.025610
#
#
# Mechanical properties :
#
#
# Convention : Reuss Voigt Hill
#
# Bulk Modulus (GPa) = 72.52145 80.16440 76.34293
# Shear Modulus (GPa) = 25.38818 32.52043 28.95431
#
# Velocity S-wave (km/s) = 3.35340 3.79531 3.58118
# Velocity P-wave (km/s) = 6.86410 7.39685 7.13545
#
# Compressibility (1/GPa) = 0.01378902
#
# Stress axis : x y z
#
# Youngs Moduli (GPa) = 115.22391 115.22453 94.43928
#
# Poissons Ratio (x) = 0.47544 0.13941
# Poissons Ratio (y) = 0.47544 0.13941
# Poissons Ratio (z) = 0.17009 0.17010
#
# Static dielectric constant tensor:
#      x y z
#    x 1.886400 0.000000 0.000000 
#    y 0.000000 1.886400 0.000000 
#    z 0.000000 0.000000 1.905360 
# 
# From -- ./inp_files/2320.got.cif
#   From: 2010.05.17/outbox.cif.g08.bks.cpg/sg188_2_cif.got.tgz:2320.got - 2010.05.20 12:11:46.
