data_PCOD9585685
_publ_section_title
;
Structure prediction by ZEFSAII (Michael W. Deem and Ramdas Pophale) SiO2 
 PCOD9585685
Probable space group: P -6 M 2
;
_chemical_formula_sum "Si O2"
_cell_formula_units_Z 84
_cell_length_a 18.629776
_cell_length_b 18.629776
_cell_length_c 14.425371
_cell_angle_alpha 90.000000
_cell_angle_beta 90.000000
_cell_angle_gamma 120.000000
_cell_volume 4335.836422
_symmetry_space_group_name_H-M "P -6 M 2"
_symmetry_group_IT_number 187
_symmetry_cell_setting 'hexagonal'
loop_
_space_group_symop_operation_xyz
x,y,z
-x+y,-x,-z
-y,x-y,z
x,y,-z
-x+y,-x,z
-y,x-y,-z
-y,-x,-z
-x+y,y,-z
x,x-y,-z
-x+y,y,z
x,x-y,z
-y,-x,z
loop_
_atom_site_type_symbol
_atom_site_label
_atom_site_fract_x
_atom_site_fract_y
_atom_site_fract_z
Si Si1 0.894425 0.529890 0.102001
Si Si2 0.165719 0.498325 0.758151
Si Si3 0.099273 0.365703 0.610461
Si Si4 0.838110 0.000336 0.887166
Si Si5 0.826603 0.332430 0.302744
Si Si6 0.757877 0.674655 0.611664
Si Si7 0.056853 0.708881 0.892563
O O1 0.924416 0.462208 0.103573
O O2 0.838240 0.509836 0.192131
O O3 0.971841 0.621268 0.110828
O O4 0.855662 0.522442 0.000000
O O5 0.262167 0.524335 0.750709
O O6 0.155417 0.577709 0.775521
O O7 0.119069 0.448672 0.664954
O O8 0.123746 0.426264 0.835323
O O9 0.097125 0.376632 0.500000
O O10 0.175539 0.351079 0.631548
O O11 0.012308 0.287416 0.640118
O O12 0.908209 0.091792 0.855553
O O13 0.862862 0.931431 0.862544
O O14 0.743124 0.965822 0.858009
O O15 0.836607 0.003999 0.000000
O O16 0.850533 0.425267 0.326723
O O17 0.731862 0.268139 0.326834
O O18 0.881426 0.300073 0.352619
O O19 0.759450 0.674734 0.500000
O O20 0.851109 0.702219 0.644054
O O21 0.083078 0.727689 0.000000
#
# Coordination Sequence:
#
# PCOD9585685 Si02
#       7
#    12  12  12  12  12  12  12
#     4   9  18  32  49  70  96 128 171 224 275 315
#     4  11  23  38  56  79 108 141 177 219 267 317
#     4   9  19  37  61  86 109 136 172 214 262 314
#     4   9  17  30  49  73 101 134 173 218 267 315
#     4  10  20  33  49  71 101 138 179 221 264 309
#     4   9  18  33  54  81 111 140 170 207 253 306
#     4  10  20  34  53  76 104 140 180 218 257 308
#
# _framework density 19.373424
#
# number of rings (size 3 to 8) (size 9 to 14) (size 15 to 20)
#    0.000    2.429    0.000    2.143    0.000    5.429 
#    0.000    3.571    0.000    3.714    0.000    2.000 
#    0.000    0.000    0.000    0.000    0.000    0.000 
#
# Total GULP energy -468502.872260 kJ/mol
# GULP energy per Si atom -5577.415146 kJ/mol
# Density = 1.932933 g / cm^3
# Si number density = 19.373424 Si / 1000 Ang^3
#
#
#
# Elastic Constant Matrix: (Units=GPa)
#
#
# Indices 1 2 3 4 5 6 
#
# 1 99.4840 61.5280 25.5563 0.0000 0.0003 0.0000
# 2 61.5280 99.4840 25.5563 0.0000 -0.0003 0.0000
# 3 25.5563 25.5563 39.5018 0.0000 0.0000 0.0000
# 4 0.0000 0.0000 0.0000 18.3027 0.0000 -0.0003
# 5 0.0003 -0.0003 0.0000 0.0000 18.3027 0.0000
# 6 0.0000 0.0000 0.0000 -0.0003 0.0000 18.9780
#
#
#
# Elastic Compliance Matrix: (Units=1/GPa)
#
#
# Indices 1 2 3 4 5 6 
#
# 1 0.017081 -0.009265 -0.005057 0.000000 0.000000 0.000000
# 2 -0.009265 0.017081 -0.005057 0.000000 0.000000 0.000000
# 3 -0.005057 -0.005057 0.031858 0.000000 0.000000 0.000000
# 4 0.000000 0.000000 0.000000 0.054637 0.000000 0.000001
# 5 0.000000 0.000000 0.000000 0.000000 0.054637 0.000000
# 6 0.000000 0.000000 0.000000 0.000001 0.000000 0.052693
#
#
# Mechanical properties :
#
#
# Convention : Reuss Voigt Hill
#
# Bulk Modulus (GPa) = 36.67902 51.52791 44.10346
# Shear Modulus (GPa) = 18.12701 19.50528 18.81615
#
# Velocity S-wave (km/s) = 3.06218 3.17646 3.11985
# Velocity P-wave (km/s) = 5.61038 6.33310 5.98266
#
# Compressibility (1/GPa) = 0.02726355
#
# Stress axis : x y z
#
# Youngs Moduli (GPa) = 58.54415 58.54415 31.38904
#
# Poissons Ratio (x) = 0.54242 0.15872
# Poissons Ratio (y) = 0.54242 0.15872
# Poissons Ratio (z) = 0.29604 0.29604
#
# Static dielectric constant tensor:
#      x y z
#    x 1.669890 0.000000 0.000000 
#    y 0.000000 1.669890 0.000000 
#    z 0.000000 0.000000 1.708930 
# 
# From -- ./inp_files/2584.got.cif
#   From: 2010.05.17/outbox.cif.g08.bks.cpg/sg187_2_cif.got.tgz:2584.got - 2010.05.20 12:09:04.
