data_PCOD9585235
_publ_section_title
;
Structure prediction by ZEFSAII (Michael W. Deem and Ramdas Pophale) SiO2 
 PCOD9585235
Probable space group: P 63 C M
;
_chemical_formula_sum "Si O2"
_cell_formula_units_Z 84
_cell_length_a 14.806373
_cell_length_b 14.806373
_cell_length_c 25.898231
_cell_angle_alpha 90.000000
_cell_angle_beta 90.000000
_cell_angle_gamma 120.000000
_cell_volume 4916.976172
_symmetry_space_group_name_H-M "P 63 C M"
_symmetry_group_IT_number 185
_symmetry_cell_setting 'hexagonal'
loop_
_space_group_symop_operation_xyz
x,y,z
x-y,x,1/2+z
-y,x-y,z
-x,-y,1/2+z
-x+y,-x,z
y,-x+y,1/2+z
-x+y,y,1/2+z
x,x-y,1/2+z
-y,-x,1/2+z
y,x,z
x-y,-y,z
-x,-x+y,z
loop_
_atom_site_type_symbol
_atom_site_label
_atom_site_fract_x
_atom_site_fract_y
_atom_site_fract_z
Si Si1 0.122797 0.245885 0.446860
Si Si2 0.584109 0.780455 0.860766
Si Si3 0.647237 0.877432 0.664098
Si Si4 0.874835 0.122246 0.066432
Si Si5 0.749857 0.876055 0.267465
Si Si6 0.654275 0.211862 0.715396
Si Si7 0.456405 0.579961 0.329325
O O1 0.161460 0.161460 0.442990
O O2 0.195189 0.342277 0.410165
O O3 0.133844 0.280779 0.506658
O O4 0.000000 0.191250 0.432472
O O5 0.664601 0.829103 0.812914
O O6 0.517976 0.839239 0.866457
O O7 0.501182 0.660132 0.848002
O O8 0.661810 0.837237 0.609051
O O9 0.687623 0.840164 0.713109
O O10 0.534697 0.861743 0.678250
O O11 0.724942 0.000000 0.662697
O O12 0.000000 0.174462 0.069934
O O13 0.821246 0.000000 0.078120
O O14 0.815348 0.815348 0.270380
O O15 0.825187 0.000000 0.271826
O O16 0.759189 0.323753 0.706751
O O17 0.634163 0.174303 0.774399
O O18 0.518311 0.518311 0.323157
#
# Coordination Sequence:
#
# PCOD9585235 Si02
#       7
#    12  12  12  12  12  12  12
#     4  10  20  36  58  85 116 149 185 228 282 346
#     4  12  23  37  54  82 109 142 190 235 280 339
#     4  10  19  33  54  79 109 145 184 226 275 328
#     4   9  18  33  56  82 112 147 185 226 273 338
#     4  11  21  33  50  79 117 149 174 210 270 341
#     4  10  19  35  54  76 104 137 184 231 271 323
#     4  12  21  35  56  77 108 147 186 232 281 325
#
# _framework density 17.083670999999999
#
# number of rings (size 3 to 8) (size 9 to 14) (size 15 to 20)
#    0.286    1.143    2.857    4.143    0.000    1.143 
#    0.000    5.000    3.143    0.000    0.000    0.000 
#    0.000    0.000    0.000    0.000    0.000    0.000 
#
# Total GULP energy -468066.648373 kJ/mol
# GULP energy per Si atom -5572.222004 kJ/mol
# Density = 1.704479 g / cm^3
# Si number density = 17.083671 Si / 1000 Ang^3
#
#
#
# Elastic Constant Matrix: (Units=GPa)
#
#
# Indices 1 2 3 4 5 6 
#
# 1 85.6253 25.8293 39.8726 0.0000 0.0000 0.0000
# 2 25.8293 85.6253 39.8726 0.0000 0.0000 0.0000
# 3 39.8726 39.8726 90.1906 0.0000 0.0000 0.0000
# 4 0.0000 0.0000 0.0000 15.3864 0.0000 0.0000
# 5 0.0000 0.0000 0.0000 0.0000 15.3864 0.0000
# 6 0.0000 0.0000 0.0000 0.0000 0.0000 29.8980
#
#
#
# Elastic Compliance Matrix: (Units=1/GPa)
#
#
# Indices 1 2 3 4 5 6 
#
# 1 0.014923 -0.001800 -0.005802 0.000000 0.000000 0.000000
# 2 -0.001800 0.014923 -0.005802 0.000000 0.000000 0.000000
# 3 -0.005802 -0.005802 0.016217 0.000000 0.000000 0.000000
# 4 0.000000 0.000000 0.000000 0.064992 0.000000 0.000000
# 5 0.000000 0.000000 0.000000 0.000000 0.064992 0.000000
# 6 0.000000 0.000000 0.000000 0.000000 0.000000 0.033447
#
#
# Mechanical properties :
#
#
# Convention : Reuss Voigt Hill
#
# Bulk Modulus (GPa) = 51.92855 52.51000 52.21928
# Shear Modulus (GPa) = 20.59967 22.52528 21.56248
#
# Velocity S-wave (km/s) = 3.47625 3.63509 3.55656
# Velocity P-wave (km/s) = 6.82459 6.95861 6.89192
#
# Compressibility (1/GPa) = 0.01925723
#
# Stress axis : x y z
#
# Youngs Moduli (GPa) = 67.00857 67.00857 61.66195
#
# Poissons Ratio (x) = 0.12062 0.35775
# Poissons Ratio (y) = 0.12062 0.35775
# Poissons Ratio (z) = 0.38877 0.38877
#
# Static dielectric constant tensor:
#      x y z
#    x 1.597440 0.000000 0.000000 
#    y 0.000000 1.597440 0.000000 
#    z 0.000000 0.000000 1.596550 
# 
# From -- ./inp_files/2067.got.cif
#   From: 2010.05.17/outbox.cif.g08.bks.cpg/sg185_cif.got.tgz:2067.got - 2010.05.20 12:05:34.
