data_PCOD9585997
_publ_section_title
;
Structure prediction by ZEFSAII (Michael W. Deem and Ramdas Pophale) SiO2 
 PCOD9585997
Probable space group: P -6 C 2
;
_chemical_formula_sum "Si O2"
_cell_formula_units_Z 36
_cell_length_a 8.289636
_cell_length_b 8.289636
_cell_length_c 26.670788
_cell_angle_alpha 90.000000
_cell_angle_beta 90.000000
_cell_angle_gamma 120.000000
_cell_volume 1587.221000
_symmetry_space_group_name_H-M "P -6 C 2"
_symmetry_group_IT_number 188
_symmetry_cell_setting 'hexagonal'
loop_
_space_group_symop_operation_xyz
x,y,z
-x+y,-x,1/2-z
-y,x-y,z
x,y,1/2-z
-x+y,-x,z
-y,x-y,1/2-z
-y,-x,-z
-x+y,y,-z
x,x-y,-z
-x+y,y,1/2+z
x,x-y,1/2+z
-y,-x,1/2+z
loop_
_atom_site_type_symbol
_atom_site_label
_atom_site_fract_x
_atom_site_fract_y
_atom_site_fract_z
Si Si1 0.370120 0.017036 0.101968
Si Si2 0.574330 0.833306 0.250000
Si Si3 0.298849 0.323791 0.143257
Si Si4 0.457878 0.542123 0.500000
O O1 0.151554 0.866252 0.105027
O O2 0.387356 0.199073 0.126935
O O3 0.465559 0.928530 0.136006
O O4 0.468119 0.034557 0.048450
O O5 0.469816 0.607412 0.250000
O O6 0.693465 0.924005 0.200072
O O7 0.530078 0.765039 0.500000
#
# Coordination Sequence:
#
# PCOD9585997 Si02
#       4
#    12   6  12   6
#     4  12  24  45  70 112 146 195 247 319 370 452
#     4  10  20  42  76 100 138 204 244 294 390 450
#     4  12  24  43  73 105 149 191 249 309 377 451
#     4  10  20  44  76  94 140 200 244 292 386 440
#
# _framework density 22.681152999999998
#
# number of rings (size 3 to 8) (size 9 to 14) (size 15 to 20)
#    0.667    0.000    6.667    2.000    0.000    4.000 
#    0.000    0.000    0.000    0.000    0.000    0.000 
#    0.000    0.000    0.000    0.000    0.000    0.000 
#
# Total GULP energy -200669.909179 kJ/mol
# GULP energy per Si atom -5574.164144 kJ/mol
# Density = 2.262953 g / cm^3
# Si number density = 22.681153 Si / 1000 Ang^3
#
#
#
# Elastic Constant Matrix: (Units=GPa)
#
#
# Indices 1 2 3 4 5 6 
#
# 1 73.4998 10.2202 28.4692 0.0000 0.0000 0.0000
# 2 10.2202 73.4998 28.4692 0.0000 0.0000 0.0000
# 3 28.4692 28.4692 198.5900 0.0000 0.0000 0.0000
# 4 0.0000 0.0000 0.0000 26.9960 0.0000 0.0000
# 5 0.0000 0.0000 0.0000 0.0000 26.9960 0.0000
# 6 0.0000 0.0000 0.0000 0.0000 0.0000 31.6398
#
#
#
# Elastic Compliance Matrix: (Units=1/GPa)
#
#
# Indices 1 2 3 4 5 6 
#
# 1 0.014519 -0.001284 -0.001897 0.000000 0.000000 0.000000
# 2 -0.001284 0.014519 -0.001897 0.000000 0.000000 0.000000
# 3 -0.001897 -0.001897 0.005579 0.000000 0.000000 0.000000
# 4 0.000000 0.000000 0.000000 0.037043 0.000000 0.000000
# 5 0.000000 0.000000 0.000000 0.000000 0.037043 0.000000
# 6 0.000000 0.000000 0.000000 0.000000 0.000000 0.031606
#
#
# Mechanical properties :
#
#
# Convention : Reuss Voigt Hill
#
# Bulk Modulus (GPa) = 40.88287 53.32297 47.10292
# Shear Modulus (GPa) = 31.52211 35.68841 33.60526
#
# Velocity S-wave (km/s) = 3.73204 3.97102 3.85338
# Velocity P-wave (km/s) = 6.05268 6.67729 6.37264
#
# Compressibility (1/GPa) = 0.02446012
#
# Stress axis : x y z
#
# Youngs Moduli (GPa) = 68.87566 68.87566 179.22792
#
# Poissons Ratio (x) = 0.08843 0.34005
# Poissons Ratio (y) = 0.08843 0.34005
# Poissons Ratio (z) = 0.13068 0.13068
#
# Static dielectric constant tensor:
#      x y z
#    x 1.875240 0.000000 0.000000 
#    y 0.000000 1.875240 0.000000 
#    z 0.000000 0.000000 1.911050 
# 
# From -- ./inp_files/4181.got.cif
#   From: 2010.05.17/outbox.cif.g08.bks.cpg/sg188_3_cif.got.tgz:4181.got - 2010.05.20 12:11:46.
