data_PCOD9585807
_publ_section_title
;
Structure prediction by ZEFSAII (Michael W. Deem and Ramdas Pophale) SiO2 
 PCOD9585807
Probable space group: P -6 M 2
;
_chemical_formula_sum "Si O2"
_cell_formula_units_Z 84
_cell_length_a 18.297058
_cell_length_b 18.297058
_cell_length_c 14.161004
_cell_angle_alpha 90.000000
_cell_angle_beta 90.000000
_cell_angle_gamma 120.000000
_cell_volume 4105.699943
_symmetry_space_group_name_H-M "P -6 M 2"
_symmetry_group_IT_number 187
_symmetry_cell_setting 'hexagonal'
loop_
_space_group_symop_operation_xyz
x,y,z
-x+y,-x,-z
-y,x-y,z
x,y,-z
-x+y,-x,z
-y,x-y,-z
-y,-x,-z
-x+y,y,-z
x,x-y,-z
-x+y,y,z
x,x-y,z
-y,-x,z
loop_
_atom_site_type_symbol
_atom_site_label
_atom_site_fract_x
_atom_site_fract_y
_atom_site_fract_z
Si Si1 0.619987 0.013796 0.108607
Si Si2 0.531409 0.637280 0.604239
Si Si3 0.227464 0.029389 0.104239
Si Si4 0.835833 0.998132 0.309079
Si Si5 0.666667 0.501870 0.750001
Si Si6 0.347130 0.286654 0.608608
Si Si7 0.171035 0.668535 0.190921
O O1 0.709493 0.016856 0.112267
O O2 0.632097 0.092686 0.169465
O O3 0.552343 0.923043 0.150048
O O4 0.600099 0.020160 0.000000
O O5 0.522841 0.667693 0.500000
O O6 0.461997 0.538004 0.608211
O O7 0.623840 0.649809 0.612268
O O8 0.512993 0.675386 0.696237
O O9 0.257333 0.128667 0.108212
O O10 0.170941 0.991285 0.196236
O O11 0.188482 0.998977 0.000000
O O12 0.813291 0.906646 0.346936
O O13 0.780990 0.037367 0.349951
O O14 0.933288 0.066713 0.326300
O O15 0.745711 0.491422 0.781164
O O16 0.587623 0.412378 0.718838
O O17 0.701238 0.573980 0.669465
O O18 0.353494 0.266765 0.500000
O O19 0.199908 0.599954 0.173704
O O20 0.239980 0.760021 0.153061
#
# Coordination Sequence:
#
# PCOD9585807 Si02
#       7
#    12  12  12  12  12  12  12
#     4  11  23  41  67  94 125 166 212 259 311 372
#     4   9  18  35  61  93 126 159 200 255 317 376
#     4   9  18  35  61  93 126 159 200 255 317 376
#     4  11  23  40  61  89 125 168 216 267 322 379
#     4  12  25  44  69 100 134 168 206 254 313 380
#     4  11  23  41  67  94 125 166 212 259 311 372
#     4  11  23  40  61  89 125 168 216 267 322 379
#
# _framework density 20.459361999999999
#
# number of rings (size 3 to 8) (size 9 to 14) (size 15 to 20)
#    0.000    1.429    2.857    2.143    0.000    7.429 
#    0.000    2.857    0.000    5.143    0.000    0.000 
#    0.000    0.000    0.000    0.000    0.000    0.000 
#
# Total GULP energy -469123.163416 kJ/mol
# GULP energy per Si atom -5584.799564 kJ/mol
# Density = 2.041280 g / cm^3
# Si number density = 20.459362 Si / 1000 Ang^3
#
#
#
# Elastic Constant Matrix: (Units=GPa)
#
#
# Indices 1 2 3 4 5 6 
#
# 1 98.6497 76.1944 38.1224 0.0000 0.0002 0.0000
# 2 76.1944 98.6497 38.1224 0.0000 -0.0002 0.0000
# 3 38.1224 38.1224 103.5838 0.0000 0.0000 0.0000
# 4 0.0000 0.0000 0.0000 -2.1542 0.0000 -0.0002
# 5 0.0002 -0.0002 0.0000 0.0000 -2.1542 0.0000
# 6 0.0000 0.0000 0.0000 -0.0002 0.0000 11.2276
#
#
#
# Elastic Compliance Matrix: (Units=1/GPa)
#
#
# Indices 1 2 3 4 5 6 
#
# 1 0.025673 -0.018860 -0.002507 0.000000 0.000005 0.000000
# 2 -0.018860 0.025673 -0.002507 0.000000 -0.000005 0.000000
# 3 -0.002507 -0.002507 0.011500 0.000000 0.000000 0.000000
# 4 0.000000 0.000000 0.000000 -0.464201 0.000000 -0.000010
# 5 0.000005 -0.000005 0.000000 0.000000 -0.464201 0.000000
# 6 0.000000 0.000000 0.000000 -0.000010 0.000000 0.089066
#
#
# Mechanical properties :
#
#
# Convention : Reuss Voigt Hill
#
# Bulk Modulus (GPa) = 66.24366 67.30686 66.77526
# Shear Modulus (GPa) = -6.90885 11.28010 2.18563
#
# Velocity S-wave (km/s) = -1.83962 2.35061 1.03470
# Velocity P-wave (km/s) = 5.28547 6.35110 5.84263
#
# Compressibility (1/GPa) = 0.01509578
#
# Stress axis : x y z
#
# Youngs Moduli (GPa) = 38.95163 38.95163 86.95968
#
# Poissons Ratio (x) = 0.73463 0.21804
# Poissons Ratio (y) = 0.73463 0.21804
# Poissons Ratio (z) = 0.09766 0.09766
#
# Static dielectric constant tensor:
#      x y z
#    x 1.714410 0.000000 0.000000 
#    y 0.000000 1.714410 0.000000 
#    z 0.000000 0.000000 1.751180 
# 
# From -- ./inp_files/2615.got.cif
#   From: 2010.05.17/outbox.cif.g08.bks.cpg/sg187_2_cif.got.tgz:2615.got - 2010.05.20 12:09:04.
