data_PCOD9585276
_publ_section_title
;
Structure prediction by ZEFSAII (Michael W. Deem and Ramdas Pophale) SiO2 
 PCOD9585276
Probable space group: P 63 C M
;
_chemical_formula_sum "Si O2"
_cell_formula_units_Z 84
_cell_length_a 14.727136
_cell_length_b 14.727136
_cell_length_c 24.216927
_cell_angle_alpha 90.000000
_cell_angle_beta 90.000000
_cell_angle_gamma 120.000000
_cell_volume 4548.689153
_symmetry_space_group_name_H-M "P 63 C M"
_symmetry_group_IT_number 185
_symmetry_cell_setting 'hexagonal'
loop_
_space_group_symop_operation_xyz
x,y,z
x-y,x,1/2+z
-y,x-y,z
-x,-y,1/2+z
-x+y,-x,z
y,-x+y,1/2+z
-x+y,y,1/2+z
x,x-y,1/2+z
-y,-x,1/2+z
y,x,z
x-y,-y,z
-x,-x+y,z
loop_
_atom_site_type_symbol
_atom_site_label
_atom_site_fract_x
_atom_site_fract_y
_atom_site_fract_z
Si Si1 0.526882 0.121787 0.890180
Si Si2 0.557629 0.431733 0.768837
Si Si3 0.532296 0.237212 0.565206
Si Si4 0.657555 0.875735 0.759899
Si Si5 0.124262 0.426858 0.676395
Si Si6 0.742042 0.184004 0.946088
Si Si7 0.755981 0.877225 0.376462
O O1 0.549046 0.163561 0.827426
O O2 0.631897 0.129023 0.914057
O O3 0.498728 0.194208 0.926308
O O4 0.436398 0.000000 0.891034
O O5 0.505413 0.505413 0.771050
O O6 0.460355 0.315571 0.764908
O O7 0.632512 0.472136 0.716262
O O8 0.635605 0.223664 0.564303
O O9 0.466082 0.188380 0.620079
O O10 0.463597 0.186264 0.510899
O O11 0.652671 0.799842 0.711350
O O12 0.693061 0.851720 0.818371
O O13 0.732333 0.000000 0.748801
O O14 0.000000 0.373385 0.665933
O O15 0.810839 0.134702 0.925056
O O16 0.844839 0.844839 0.373033
O O17 0.805035 0.000000 0.384389
#
# Coordination Sequence:
#
# PCOD9585276 Si02
#       7
#    12  12  12  12  12  12  12
#     4  11  21  36  57  86 121 152 192 244 298 364
#     4   9  19  34  53  85 119 151 190 239 303 360
#     4  10  22  42  58  82 119 160 204 244 297 368
#     4  10  20  38  59  84 121 159 199 249 308 370
#     4  11  22  37  59  87 119 156 204 254 303 360
#     4  12  21  39  60  86 119 160 202 249 299 367
#     4  11  23  40  63  92 126 164 206 255 309 365
#
# _framework density 18.466857999999998
#
# number of rings (size 3 to 8) (size 9 to 14) (size 15 to 20)
#    0.286    1.143    2.857    3.429    0.000    2.286 
#    0.857    1.429    0.000    0.286    0.000    0.000 
#    0.000    0.000    0.000    0.000    0.000    0.000 
#
# Total GULP energy -469200.075452 kJ/mol
# GULP energy per Si atom -5585.715184 kJ/mol
# Density = 1.842483 g / cm^3
# Si number density = 18.466858 Si / 1000 Ang^3
#
#
#
# Elastic Constant Matrix: (Units=GPa)
#
#
# Indices 1 2 3 4 5 6 
#
# 1 70.7336 20.6040 36.3816 0.0000 0.0000 0.0000
# 2 20.6040 70.7336 36.3816 0.0000 0.0000 0.0000
# 3 36.3816 36.3816 153.5498 0.0000 0.0000 0.0000
# 4 0.0000 0.0000 0.0000 14.3293 0.0000 0.0000
# 5 0.0000 0.0000 0.0000 0.0000 14.3293 0.0000
# 6 0.0000 0.0000 0.0000 0.0000 0.0000 25.0648
#
#
#
# Elastic Compliance Matrix: (Units=1/GPa)
#
#
# Indices 1 2 3 4 5 6 
#
# 1 0.016722 -0.003226 -0.003198 0.000000 0.000000 0.000000
# 2 -0.003226 0.016722 -0.003198 0.000000 0.000000 0.000000
# 3 -0.003198 -0.003198 0.008028 0.000000 0.000000 0.000000
# 4 0.000000 0.000000 0.000000 0.069787 0.000000 0.000000
# 5 0.000000 0.000000 0.000000 0.000000 0.069787 0.000000
# 6 0.000000 0.000000 0.000000 0.000000 0.000000 0.039897
#
#
# Mechanical properties :
#
#
# Convention : Reuss Voigt Hill
#
# Bulk Modulus (GPa) = 44.98673 53.52794 49.25734
# Shear Modulus (GPa) = 20.19426 24.18802 22.19114
#
# Velocity S-wave (km/s) = 3.31046 3.62305 3.47028
# Velocity P-wave (km/s) = 6.24707 6.82282 6.54128
#
# Compressibility (1/GPa) = 0.02222878
#
# Stress axis : x y z
#
# Youngs Moduli (GPa) = 59.80141 59.80141 124.56675
#
# Poissons Ratio (x) = 0.19293 0.39832
# Poissons Ratio (y) = 0.19293 0.39832
# Poissons Ratio (z) = 0.19122 0.19122
#
# Static dielectric constant tensor:
#      x y z
#    x 1.642920 0.000000 0.000000 
#    y 0.000000 1.642920 0.000000 
#    z 0.000000 0.000000 1.613940 
# 
# From -- ./inp_files/2087.got.cif
#   From: 2010.05.17/outbox.cif.g08.bks.cpg/sg185_cif.got.tgz:2087.got - 2010.05.20 12:05:34.
