data_PCOD9585240
_publ_section_title
;
Structure prediction by ZEFSAII (Michael W. Deem and Ramdas Pophale) SiO2 
 PCOD9585240
Probable space group: P 63 C M
;
_chemical_formula_sum "Si O2"
_cell_formula_units_Z 48
_cell_length_a 16.666105
_cell_length_b 16.666105
_cell_length_c 9.216040
_cell_angle_alpha 90.000000
_cell_angle_beta 90.000000
_cell_angle_gamma 120.000000
_cell_volume 2216.885231
_symmetry_space_group_name_H-M "P 63 C M"
_symmetry_group_IT_number 185
_symmetry_cell_setting 'hexagonal'
loop_
_space_group_symop_operation_xyz
x,y,z
x-y,x,1/2+z
-y,x-y,z
-x,-y,1/2+z
-x+y,-x,z
y,-x+y,1/2+z
-x+y,y,1/2+z
x,x-y,1/2+z
-y,-x,1/2+z
y,x,z
x-y,-y,z
-x,-x+y,z
loop_
_atom_site_type_symbol
_atom_site_label
_atom_site_fract_x
_atom_site_fract_y
_atom_site_fract_z
Si Si1 0.335486 0.507472 0.518180
Si Si2 0.508086 0.337340 0.171095
Si Si3 0.895198 0.790910 0.309997
Si Si4 0.841731 0.176129 0.555684
O O1 0.270576 0.543167 0.593415
O O2 0.433827 0.563054 0.596290
O O3 0.342170 0.520255 0.344434
O O4 0.269810 0.398270 0.550943
O O5 0.399886 0.276834 0.126735
O O6 0.869619 0.869619 0.334768
O O7 0.822514 0.697827 0.393645
O O8 0.880659 0.759373 0.143999
O O9 0.000000 0.824609 0.352444
#
# Coordination Sequence:
#
# PCOD9585240 Si02
#       4
#    12  12  12  12
#     4  10  19  33  59  96 135 179 226 269 308 393
#     4  10  19  33  59  96 135 179 226 269 308 393
#     4  12  25  46  74 102 130 172 232 294 359 422
#     4  10  22  42  63 102 144 180 213 278 354 406
#
# _framework density 21.652000999999998
#
# number of rings (size 3 to 8) (size 9 to 14) (size 15 to 20)
#    1.500    0.000    2.500    3.750    3.500    0.000 
#    0.000    2.500    0.000    9.000    0.000    0.000 
#    0.000    0.000    0.000    0.000    0.000    0.000 
#
# Total GULP energy -267295.688966 kJ/mol
# GULP energy per Si atom -5568.660187 kJ/mol
# Density = 2.160272 g / cm^3
# Si number density = 21.652001 Si / 1000 Ang^3
#
#
#
# Elastic Constant Matrix: (Units=GPa)
#
#
# Indices 1 2 3 4 5 6 
#
# 1 66.2700 23.4924 23.0027 0.0000 0.0000 0.0000
# 2 23.4924 66.2700 23.0027 0.0000 0.0000 0.0000
# 3 23.0027 23.0027 116.1227 0.0000 0.0000 0.0000
# 4 0.0000 0.0000 0.0000 13.3652 0.0000 0.0000
# 5 0.0000 0.0000 0.0000 0.0000 13.3652 0.0000
# 6 0.0000 0.0000 0.0000 0.0000 0.0000 21.3888
#
#
#
# Elastic Compliance Matrix: (Units=1/GPa)
#
#
# Indices 1 2 3 4 5 6 
#
# 1 0.017888 -0.005489 -0.002456 0.000000 0.000000 0.000000
# 2 -0.005489 0.017888 -0.002456 0.000000 0.000000 0.000000
# 3 -0.002456 -0.002456 0.009585 0.000000 0.000000 0.000000
# 4 0.000000 0.000000 0.000000 0.074821 0.000000 0.000000
# 5 0.000000 0.000000 0.000000 0.000000 0.074821 0.000000
# 6 0.000000 0.000000 0.000000 0.000000 0.000000 0.046753
#
#
# Mechanical properties :
#
#
# Convention : Reuss Voigt Hill
#
# Bulk Modulus (GPa) = 40.71881 43.07314 41.89597
# Shear Modulus (GPa) = 18.46756 21.56817 20.01786
#
# Velocity S-wave (km/s) = 2.92366 3.15957 3.04390
# Velocity P-wave (km/s) = 5.49944 5.76603 5.63431
#
# Compressibility (1/GPa) = 0.02455868
#
# Stress axis : x y z
#
# Youngs Moduli (GPa) = 55.90327 55.90327 104.33332
#
# Poissons Ratio (x) = 0.30683 0.25626
# Poissons Ratio (y) = 0.30683 0.25626
# Poissons Ratio (z) = 0.13731 0.13731
#
# Static dielectric constant tensor:
#      x y z
#    x 1.810660 0.000000 0.000000 
#    y 0.000000 1.810660 0.000000 
#    z 0.000000 0.000000 1.717860 
# 
# From -- ./inp_files/373.got.cif
#   From: 2010.05.17/outbox.cif.g08.bks.cpg/sg185_cif.got.tgz:373.got - 2010.05.20 12:05:34.
