data_PCOD9585175
_publ_section_title
;
Structure prediction by ZEFSAII (Michael W. Deem and Ramdas Pophale) SiO2 
 PCOD9585175
Probable space group: P 6 C C
;
_chemical_formula_sum "Si O2"
_cell_formula_units_Z 84
_cell_length_a 16.650340
_cell_length_b 16.650340
_cell_length_c 15.584016
_cell_angle_alpha 90.000000
_cell_angle_beta 90.000000
_cell_angle_gamma 120.000000
_cell_volume 3741.590288
_symmetry_space_group_name_H-M "P 6 C C"
_symmetry_group_IT_number 184
_symmetry_cell_setting 'hexagonal'
loop_
_space_group_symop_operation_xyz
x,y,z
x-y,x,z
-y,x-y,z
-x,-y,z
-x+y,-x,z
y,-x+y,z
-x+y,y,1/2+z
x,x-y,1/2+z
-y,-x,1/2+z
y,x,1/2+z
x-y,-y,1/2+z
-x,-x+y,1/2+z
loop_
_atom_site_type_symbol
_atom_site_label
_atom_site_fract_x
_atom_site_fract_y
_atom_site_fract_z
Si Si1 0.105681 0.585751 0.878180
Si Si2 0.637146 0.680236 0.165440
Si Si3 0.112146 0.536409 0.059581
Si Si4 0.186290 0.011504 0.580067
Si Si5 0.171966 0.391066 0.317222
Si Si6 0.205392 0.142990 0.876836
Si Si7 0.640629 0.142164 0.720580
O O1 0.128169 0.692204 0.881474
O O2 0.141766 0.575772 0.785748
O O3 0.000000 0.500000 0.877502
O O4 0.146773 0.563499 0.962805
O O5 0.549904 0.660349 0.106353
O O6 0.725869 0.728865 0.105290
O O7 0.652461 0.749802 0.241624
O O8 0.625418 0.586875 0.207967
O O9 0.163906 0.622264 0.124721
O O10 0.000000 0.500000 0.057544
O O11 0.180811 0.099071 0.613888
O O12 0.193033 0.035894 0.478353
O O13 0.194028 0.314904 0.357167
O O14 0.263576 0.466684 0.268785
O O15 0.133859 0.173495 0.843657
#
# Coordination Sequence:
#
# PCOD9585175 Si02
#       7
#    12  12  12  12  12  12  12
#     4  11  22  43  70  95 133 178 231 290 359 432
#     4  11  21  41  66  99 131 181 234 296 355 423
#     4   9  21  39  69  96 128 175 223 289 356 413
#     4  10  22  39  63  96 144 188 242 296 361 424
#     4  12  24  38  69  96 137 186 235 291 363 435
#     4  10  23  41  64 102 144 194 243 305 362 428
#     4  11  22  43  63  99 142 170 228 297 358 424
#
# _framework density 22.450346
#
# number of rings (size 3 to 8) (size 9 to 14) (size 15 to 20)
#    0.000    1.429    2.857    2.429    2.000    8.000 
#    0.857    0.000    0.000    1.714    0.000    0.000 
#    0.000    0.000    0.000    0.000    0.000    0.000 
#
# Total GULP energy -468329.842261 kJ/mol
# GULP energy per Si atom -5575.355265 kJ/mol
# Density = 2.239925 g / cm^3
# Si number density = 22.450346 Si / 1000 Ang^3
#
#
#
# Elastic Constant Matrix: (Units=GPa)
#
#
# Indices 1 2 3 4 5 6 
#
# 1 79.5720 -4.4808 22.6121 0.0000 0.0000 0.0000
# 2 -4.4808 79.5720 22.6121 0.0000 0.0000 0.0000
# 3 22.6121 22.6121 97.3851 0.0000 0.0000 0.0000
# 4 0.0000 0.0000 0.0000 4.1724 0.0000 0.0000
# 5 0.0000 0.0000 0.0000 0.0000 4.1724 0.0000
# 6 0.0000 0.0000 0.0000 0.0000 0.0000 42.0264
#
#
#
# Elastic Compliance Matrix: (Units=1/GPa)
#
#
# Indices 1 2 3 4 5 6 
#
# 1 0.013690 0.001792 -0.003595 0.000000 0.000000 0.000000
# 2 0.001792 0.013690 -0.003595 0.000000 0.000000 0.000000
# 3 -0.003595 -0.003595 0.011938 0.000000 0.000000 0.000000
# 4 0.000000 0.000000 0.000000 0.239670 0.000000 0.000000
# 5 0.000000 0.000000 0.000000 0.000000 0.239670 0.000000
# 6 0.000000 0.000000 0.000000 0.000000 0.000000 0.023795
#
#
# Mechanical properties :
#
#
# Convention : Reuss Voigt Hill
#
# Bulk Modulus (GPa) = 35.05959 37.55730 36.30845
# Shear Modulus (GPa) = 8.88488 24.45994 16.67241
#
# Velocity S-wave (km/s) = 1.99152 3.30436 2.72809
# Velocity P-wave (km/s) = 4.57587 5.59676 5.11187
#
# Compressibility (1/GPa) = 0.02852286
#
# Stress axis : x y z
#
# Youngs Moduli (GPa) = 73.04748 73.04748 83.76683
#
# Poissons Ratio (x) = -0.13093 0.30113
# Poissons Ratio (y) = -0.13093 0.30113
# Poissons Ratio (z) = 0.26259 0.26259
#
# Static dielectric constant tensor:
#      x y z
#    x 1.872630 0.000000 0.000000 
#    y 0.000000 1.872630 0.000000 
#    z 0.000000 0.000000 1.854060 
# 
# From -- ./inp_files/951.got.cif
#   From: 2010.05.17/outbox.cif.g08.bks.cpg/sg184_cif.got.tgz:951.got - 2010.05.20 12:04:40.
