data_PCOD9585766
_publ_section_title
;
Structure prediction by ZEFSAII (Michael W. Deem and Ramdas Pophale) SiO2 
 PCOD9585766
Probable space group: P -6 M 2
;
_chemical_formula_sum "Si O2"
_cell_formula_units_Z 60
_cell_length_a 17.328023
_cell_length_b 17.328023
_cell_length_c 13.226305
_cell_angle_alpha 90.000000
_cell_angle_beta 90.000000
_cell_angle_gamma 120.000000
_cell_volume 3439.277326
_symmetry_space_group_name_H-M "P -6 M 2"
_symmetry_group_IT_number 187
_symmetry_cell_setting 'hexagonal'
loop_
_space_group_symop_operation_xyz
x,y,z
-x+y,-x,-z
-y,x-y,z
x,y,-z
-x+y,-x,z
-y,x-y,-z
-y,-x,-z
-x+y,y,-z
x,x-y,-z
-x+y,y,z
x,x-y,z
-y,-x,z
loop_
_atom_site_type_symbol
_atom_site_label
_atom_site_fract_x
_atom_site_fract_y
_atom_site_fract_z
Si Si1 0.494823 0.334789 0.877416
Si Si2 0.153460 0.665632 0.000000
Si Si3 0.998351 0.813325 0.500000
Si Si4 0.517042 0.664354 0.775134
Si Si5 0.700576 0.941423 0.308363
Si Si6 0.763863 0.711607 0.883887
O O1 0.518758 0.259379 0.845800
O O2 0.567912 0.432089 0.840608
O O3 0.392177 0.297931 0.853283
O O4 0.497576 0.336630 0.000000
O O5 0.109169 0.653303 0.109389
O O6 0.235954 0.764047 0.000000
O O7 0.186500 0.593250 0.000000
O O8 0.912322 0.824643 0.500000
O O9 0.000013 0.759347 0.401274
O O10 0.088864 0.911137 0.500000
O O11 0.507234 0.753617 0.774729
O O12 0.422946 0.577055 0.752601
O O13 0.598035 0.681368 0.702701
O O14 0.694314 0.847157 0.322902
O O15 0.747900 0.981673 0.201567
O O16 0.864439 0.728877 0.882652
O O17 0.743855 0.724871 0.000000
#
# Coordination Sequence:
#
# PCOD9585766 Si02
#       6
#    12   6   6  12  12  12
#     4   8  13  22  38  62  92 127 164 199 232 273
#     4   8  13  22  38  62  95 136 180 216 244 276
#     4  10  21  40  63  82  96 116 156 212 269 318
#     4   9  17  29  46  71 105 145 183 216 248 287
#     4  10  21  34  52  76  99 126 165 213 257 300
#     4   9  18  31  46  67  98 131 158 189 245 317
#
# _framework density 17.445523999999999
#
# number of rings (size 3 to 8) (size 9 to 14) (size 15 to 20)
#    0.000    3.000    0.000    2.400    1.400    3.600 
#    0.000    0.500    0.000    0.400    0.000    1.400 
#    0.000    0.000    0.000    1.200    0.000    0.800 
#
# Total GULP energy -334063.758702 kJ/mol
# GULP energy per Si atom -5567.729312 kJ/mol
# Density = 1.740582 g / cm^3
# Si number density = 17.445524 Si / 1000 Ang^3
#
#
#
# Elastic Constant Matrix: (Units=GPa)
#
#
# Indices 1 2 3 4 5 6 
#
# 1 48.0777 20.1379 27.9509 0.0000 0.0002 0.0000
# 2 20.1379 48.0777 27.9509 0.0000 -0.0002 0.0000
# 3 27.9509 27.9509 73.4220 0.0000 0.0000 0.0000
# 4 0.0000 0.0000 0.0000 17.6772 0.0000 -0.0002
# 5 0.0002 -0.0002 0.0000 0.0000 17.6772 0.0000
# 6 0.0000 0.0000 0.0000 -0.0002 0.0000 13.9699
#
#
#
# Elastic Compliance Matrix: (Units=1/GPa)
#
#
# Indices 1 2 3 4 5 6 
#
# 1 0.028549 -0.007242 -0.008111 0.000000 0.000000 0.000000
# 2 -0.007242 0.028549 -0.008111 0.000000 0.000000 0.000000
# 3 -0.008111 -0.008111 0.019795 0.000000 0.000000 0.000000
# 4 0.000000 0.000000 0.000000 0.056570 0.000000 0.000001
# 5 0.000000 0.000000 0.000000 0.000000 0.056570 0.000000
# 6 0.000000 0.000000 0.000000 0.000001 0.000000 0.071582
#
#
# Mechanical properties :
#
#
# Convention : Reuss Voigt Hill
#
# Bulk Modulus (GPa) = 33.37357 35.73966 34.55661
# Shear Modulus (GPa) = 15.69698 16.10071 15.89885
#
# Velocity S-wave (km/s) = 3.00287 3.04124 3.02212
# Velocity P-wave (km/s) = 5.58522 5.73264 5.65941
#
# Compressibility (1/GPa) = 0.02996383
#
# Stress axis : x y z
#
# Youngs Moduli (GPa) = 35.02782 35.02782 50.51660
#
# Poissons Ratio (x) = 0.25369 0.40974
# Poissons Ratio (y) = 0.25369 0.40974
# Poissons Ratio (z) = 0.28411 0.28411
#
# Static dielectric constant tensor:
#      x y z
#    x 1.621480 0.000000 0.000000 
#    y 0.000000 1.621480 0.000000 
#    z 0.000000 0.000000 1.592860 
# 
# From -- ./inp_files/1696.got.cif
#   From: 2010.05.17/outbox.cif.g08.bks.cpg/sg187_1_cif.got.tgz:1696.got - 2010.05.20 12:09:04.
