data_PCOD9585026
_publ_section_title
;
Structure prediction by ZEFSAII (Michael W. Deem and Ramdas Pophale) SiO2 
 PCOD9585026
Probable space group: P 6 M M
;
_chemical_formula_sum "Si O2"
_cell_formula_units_Z 60
_cell_length_a 17.702938
_cell_length_b 17.702938
_cell_length_c 15.106132
_cell_angle_alpha 90.000000
_cell_angle_beta 90.000000
_cell_angle_gamma 120.000000
_cell_volume 4099.912647
_symmetry_space_group_name_H-M "P 6 M M"
_symmetry_group_IT_number 183
_symmetry_cell_setting 'hexagonal'
loop_
_space_group_symop_operation_xyz
x,y,z
x-y,x,z
-y,x-y,z
-x,-y,z
-x+y,-x,z
y,-x+y,z
-x+y,y,z
x,x-y,z
-y,-x,z
y,x,z
x-y,-y,z
-x,-x+y,z
loop_
_atom_site_type_symbol
_atom_site_label
_atom_site_fract_x
_atom_site_fract_y
_atom_site_fract_z
Si Si1 0.591348 0.000000 0.897920
Si Si2 0.631563 0.903872 0.241440
Si Si3 0.373636 0.099337 0.588816
Si Si4 0.156434 0.667531 0.413918
Si Si5 0.486390 0.332049 0.766719
Si Si6 0.590651 0.590651 0.101930
O O1 0.656544 0.085742 0.842859
O O2 0.500000 0.000000 0.899081
O O3 0.615365 0.000000 0.999933
O O4 0.650313 0.825157 0.230372
O O5 0.569513 0.882928 0.326438
O O6 0.585036 0.918575 0.156249
O O7 0.715469 0.000000 0.254472
O O8 0.344748 0.172374 0.587759
O O9 0.430207 0.113786 0.500505
O O10 0.435984 0.119680 0.673816
O O11 0.297015 0.000000 0.592765
O O12 0.144082 0.572041 0.412808
O O13 0.258612 0.741389 0.416635
O O14 0.498378 0.249189 0.782939
O O15 0.579320 0.420681 0.762374
O O16 0.500000 0.500000 0.107125
#
# Coordination Sequence:
#
# PCOD9585026 Si02
#       6
#     6  12  12  12  12   6
#     4   9  18  32  47  67  93 122 157 200 238 279
#     4   9  19  32  49  70  94 123 159 197 239 288
#     4  10  20  32  48  69  95 126 158 195 236 281
#     4  10  19  30  46  71 101 133 163 194 231 276
#     4  10  19  31  47  68  96 128 162 196 234 278
#     4   9  18  32  51  71  94 124 161 200 241 287
#
# _framework density 14.634458
#
# number of rings (size 3 to 8) (size 9 to 14) (size 15 to 20)
#    0.600    1.800    1.000    2.200    0.000    2.800 
#    0.000    2.000    0.000    0.800    0.000    0.000 
#    0.000    4.800    0.000    0.400    0.000    0.000 
#
# Total GULP energy -334146.668779 kJ/mol
# GULP energy per Si atom -5569.111146 kJ/mol
# Density = 1.460115 g / cm^3
# Si number density = 14.634458 Si / 1000 Ang^3
#
#
#
# Elastic Constant Matrix: (Units=GPa)
#
#
# Indices 1 2 3 4 5 6 
#
# 1 99.3723 72.7620 49.6442 0.0000 0.0000 0.0000
# 2 72.7620 99.3723 49.6442 0.0000 0.0000 0.0000
# 3 49.6442 49.6442 132.4629 0.0000 0.0000 0.0000
# 4 0.0000 0.0000 0.0000 14.5297 0.0000 0.0000
# 5 0.0000 0.0000 0.0000 0.0000 14.5297 0.0000
# 6 0.0000 0.0000 0.0000 0.0000 0.0000 13.3051
#
#
#
# Elastic Compliance Matrix: (Units=1/GPa)
#
#
# Indices 1 2 3 4 5 6 
#
# 1 0.022496 -0.015084 -0.002778 0.000000 0.000000 0.000000
# 2 -0.015084 0.022496 -0.002778 0.000000 0.000000 0.000000
# 3 -0.002778 -0.002778 0.009631 0.000000 0.000000 0.000000
# 4 0.000000 0.000000 0.000000 0.068825 0.000000 0.000000
# 5 0.000000 0.000000 0.000000 0.000000 0.068825 0.000000
# 6 0.000000 0.000000 0.000000 0.000000 0.000000 0.075159
#
#
# Mechanical properties :
#
#
# Convention : Reuss Voigt Hill
#
# Bulk Modulus (GPa) = 74.94157 75.03424 74.98791
# Shear Modulus (GPa) = 15.96641 19.08337 17.52489
#
# Velocity S-wave (km/s) = 3.30664 3.61502 3.46426
# Velocity P-wave (km/s) = 8.11780 8.29506 8.20691
#
# Compressibility (1/GPa) = 0.01334373
#
# Stress axis : x y z
#
# Youngs Moduli (GPa) = 44.45328 44.45328 103.82777
#
# Poissons Ratio (x) = 0.67053 0.28840
# Poissons Ratio (y) = 0.67053 0.28840
# Poissons Ratio (z) = 0.12348 0.12348
#
# Static dielectric constant tensor:
#      x y z
#    x 1.469930 0.000000 0.000000 
#    y 0.000000 1.469930 0.000000 
#    z 0.000000 0.000000 1.482660 
# 
# From -- ./inp_files/2099.got.cif
#   From: 2010.05.17/outbox.cif.g08.bks.cpg/sg183_2_cif.got.tgz:2099.got - 2010.05.20 12:02:58.
