data_PCOD9585431
_publ_section_title
;
Structure prediction by ZEFSAII (Michael W. Deem and Ramdas Pophale) SiO2 
 PCOD9585431
Probable space group: P -6 M 2
;
_chemical_formula_sum "Si O2"
_cell_formula_units_Z 96
_cell_length_a 22.193871
_cell_length_b 22.193871
_cell_length_c 15.255022
_cell_angle_alpha 90.000000
_cell_angle_beta 90.000000
_cell_angle_gamma 120.000000
_cell_volume 6507.431194
_symmetry_space_group_name_H-M "P -6 M 2"
_symmetry_group_IT_number 187
_symmetry_cell_setting 'hexagonal'
loop_
_space_group_symop_operation_xyz
x,y,z
-x+y,-x,-z
-y,x-y,z
x,y,-z
-x+y,-x,z
-y,x-y,-z
-y,-x,-z
-x+y,y,-z
x,x-y,-z
-x+y,y,z
x,x-y,z
-y,-x,z
loop_
_atom_site_type_symbol
_atom_site_label
_atom_site_fract_x
_atom_site_fract_y
_atom_site_fract_z
Si Si1 0.251482 0.890216 0.677512
Si Si2 0.915561 0.226107 0.900498
Si Si3 0.971589 0.240695 0.403731
Si Si4 0.387264 0.474701 0.602220
Si Si5 0.610192 0.080724 0.600002
Si Si6 0.874917 0.264117 0.726353
Si Si7 0.195775 0.939783 0.831190
Si Si8 0.000275 0.136970 0.318151
O O1 0.180780 0.819221 0.656723
O O2 0.319198 0.883280 0.662219
O O3 0.240258 0.913761 0.773956
O O4 0.261057 0.953208 0.615040
O O5 0.854991 0.145010 0.885354
O O6 0.902206 0.269288 0.825486
O O7 0.993849 0.240138 0.889116
O O8 0.906557 0.243321 0.000000
O O9 0.947055 0.245256 0.500000
O O10 0.919142 0.237953 0.330240
O O11 0.979892 0.173700 0.393173
O O12 0.367690 0.474828 0.500000
O O13 0.446898 0.553103 0.625741
O O14 0.425000 0.428303 0.605834
O O15 0.638017 0.099822 0.500000
O O16 0.550068 0.100135 0.610590
O O17 0.667307 0.111538 0.675574
O O18 0.794863 0.205138 0.724732
O O19 0.128998 0.871003 0.870640
O O20 0.164396 0.970444 0.759356
O O21 0.061899 0.123798 0.345686
O O22 0.933376 0.066625 0.288888
#
# Coordination Sequence:
#
# PCOD9585431 Si02
#       8
#    12  12  12  12  12  12  12  12
#     4  10  18  28  44  64  88 117 151 188 232 281
#     4  10  19  31  48  67  89 120 157 200 249 295
#     4  11  20  29  42  62  87 115 148 189 234 276
#     4   9  16  26  40  59  84 113 146 183 218 255
#     4   9  17  30  48  70  96 123 151 182 215 258
#     4  11  20  31  48  70  96 122 153 192 232 277
#     4   9  17  29  45  63  83 110 149 200 251 296
#     4  10  19  30  41  53  76 112 154 194 235 283
#
# _framework density 14.752364
#
# number of rings (size 3 to 8) (size 9 to 14) (size 15 to 20)
#    0.000    2.125    3.750    3.500    0.000    3.750 
#    0.000    0.000    0.000    1.875    0.000    0.000 
#    0.000    0.000    0.000    0.000    0.000    0.000 
#
# Total GULP energy -534745.258173 kJ/mol
# GULP energy per Si atom -5570.263106 kJ/mol
# Density = 1.471879 g / cm^3
# Si number density = 14.752364 Si / 1000 Ang^3
#
#
#
# Elastic Constant Matrix: (Units=GPa)
#
#
# Indices 1 2 3 4 5 6 
#
# 1 65.8782 24.4888 25.5368 0.0000 0.0000 0.0000
# 2 24.4888 65.8782 25.5368 0.0000 0.0000 0.0000
# 3 25.5368 25.5368 81.0901 0.0000 0.0000 0.0000
# 4 0.0000 0.0000 0.0000 14.0479 0.0000 0.0000
# 5 0.0000 0.0000 0.0000 0.0000 14.0479 0.0000
# 6 0.0000 0.0000 0.0000 0.0000 0.0000 20.6947
#
#
#
# Elastic Compliance Matrix: (Units=1/GPa)
#
#
# Indices 1 2 3 4 5 6 
#
# 1 0.018811 -0.005349 -0.004239 0.000000 0.000000 0.000000
# 2 -0.005349 0.018811 -0.004239 0.000000 0.000000 0.000000
# 3 -0.004239 -0.004239 0.015002 0.000000 0.000000 0.000000
# 4 0.000000 0.000000 0.000000 0.071185 0.000000 0.000000
# 5 0.000000 0.000000 0.000000 0.000000 0.071185 0.000000
# 6 0.000000 0.000000 0.000000 0.000000 0.000000 0.048322
#
#
# Mechanical properties :
#
#
# Convention : Reuss Voigt Hill
#
# Bulk Modulus (GPa) = 40.05060 40.44125 40.24593
# Shear Modulus (GPa) = 17.90217 18.91038 18.40628
#
# Velocity S-wave (km/s) = 3.48733 3.58418 3.53609
# Velocity P-wave (km/s) = 6.58960 6.67843 6.63416
#
# Compressibility (1/GPa) = 0.02496841
#
# Stress axis : x y z
#
# Youngs Moduli (GPa) = 53.15923 53.15923 66.65725
#
# Poissons Ratio (x) = 0.28437 0.28259
# Poissons Ratio (y) = 0.28437 0.28259
# Poissons Ratio (z) = 0.22537 0.22537
#
# Static dielectric constant tensor:
#      x y z
#    x 1.498600 0.000000 0.000000 
#    y 0.000000 1.498600 0.000000 
#    z 0.000000 0.000000 1.494050 
# 
# From -- ./inp_files/3322.got.cif
#   From: 2010.05.17/outbox.cif.g08.bks.cpg/sg187_2_cif.got.tgz:3322.got - 2010.05.20 12:09:04.
