data_PCOD9585084
_publ_section_title
;
Structure prediction by ZEFSAII (Michael W. Deem and Ramdas Pophale) SiO2 
 PCOD9585084
Probable space group: P 6 M M
;
_chemical_formula_sum "Si O2"
_cell_formula_units_Z 96
_cell_length_a 18.000000
_cell_length_b 18.000000
_cell_length_c 21.000000
_cell_angle_alpha 90.000000
_cell_angle_beta 90.000000
_cell_angle_gamma 120.000000
_cell_volume 5892.436847
_symmetry_space_group_name_H-M "P 6 M M"
_symmetry_group_IT_number 183
_symmetry_cell_setting 'hexagonal'
loop_
_space_group_symop_operation_xyz
x,y,z
x-y,x,z
-y,x-y,z
-x,-y,z
-x+y,-x,z
y,-x+y,z
-x+y,y,z
x,x-y,z
-y,-x,z
y,x,z
x-y,-y,z
-x,-x+y,z
loop_
_atom_site_type_symbol
_atom_site_label
_atom_site_fract_x
_atom_site_fract_y
_atom_site_fract_z
Si Si1 0.364541 0.467527 0.513720
Si Si2 0.639228 0.098354 0.151168
Si Si3 0.495282 0.163102 0.655747
Si Si4 0.363779 0.466651 0.882880
Si Si5 0.497336 0.166977 0.017325
Si Si6 0.097144 0.737504 0.396322
Si Si7 0.495303 0.330993 0.288294
Si Si8 0.736633 0.097735 0.764656
O O1 0.435298 0.564703 0.495719
O O2 0.416042 0.416042 0.521295
O O3 0.326985 0.469992 0.581952
O O4 0.297674 0.420901 0.457904
O O5 0.551804 0.103607 0.147895
O O6 0.684361 0.131673 0.083290
O O7 0.683496 0.147454 0.215344
O O8 0.611097 0.000000 0.158966
O O9 0.572626 0.145252 0.668043
O O10 0.523608 0.261804 0.668325
O O11 0.415814 0.107732 0.701552
O O12 0.431940 0.568061 0.875404
O O13 0.419306 0.419306 0.884411
O O14 0.301797 0.427654 0.823261
O O15 0.316661 0.449580 0.950614
O O16 0.570863 0.141725 0.015922
O O17 0.537027 0.268514 0.018607
O O18 0.163162 0.836839 0.388177
O O19 0.107381 0.688414 0.336009
O O20 0.000000 0.713126 0.403730
O O21 0.525382 0.262691 0.303861
O O22 0.572834 0.427167 0.295004
O O23 0.836840 0.163161 0.759934
O O24 0.710052 0.000000 0.774126
#
# Coordination Sequence:
#
# PCOD9585084 Si02
#       8
#    12  12  12  12  12  12  12  12
#     4   9  17  29  46  68  93 122 155 187 219 258
#     4   9  17  28  41  56  76 107 147 187 223 257
#     4  10  19  30  45  67  96 128 159 189 219 252
#     4   9  17  29  45  64  86 113 144 176 211 256
#     4  10  18  27  39  56  80 109 142 180 220 259
#     4  10  20  33  49  68  90 117 150 188 228 269
#     4  10  19  30  45  66  92 120 149 181 218 262
#     4  10  20  33  49  68  89 114 146 184 226 271
#
# _framework density 16.292071
#
# number of rings (size 3 to 8) (size 9 to 14) (size 15 to 20)
#    0.000    2.375    0.000    3.375    0.000    4.000 
#    0.000    1.250    0.000    8.250    0.000    0.000 
#    0.000    0.000    0.000    4.000    0.000    0.000 
#
# Total GULP energy -534662.805252 kJ/mol
# GULP energy per Si atom -5569.404221 kJ/mol
# Density = 1.625499 g / cm^3
# Si number density = 16.292071 Si / 1000 Ang^3
#
#
#
# Elastic Constant Matrix: (Units=GPa)
#
#
# Indices 1 2 3 4 5 6 
#
# 1 49.1794 41.2967 32.4157 0.0000 0.0000 0.0000
# 2 41.2967 49.1794 32.4157 0.0000 0.0000 0.0000
# 3 32.4157 32.4157 61.0255 0.0000 0.0000 0.0000
# 4 0.0000 0.0000 0.0000 24.2593 0.0000 0.0000
# 5 0.0000 0.0000 0.0000 0.0000 24.2593 0.0000
# 6 0.0000 0.0000 0.0000 0.0000 0.0000 3.9413
#
#
#
# Elastic Compliance Matrix: (Units=1/GPa)
#
#
# Indices 1 2 3 4 5 6 
#
# 1 0.072353 -0.054508 -0.009479 0.000000 0.000000 0.000000
# 2 -0.054508 0.072353 -0.009479 0.000000 0.000000 0.000000
# 3 -0.009479 -0.009479 0.026457 0.000000 0.000000 0.000000
# 4 0.000000 0.000000 0.000000 0.041221 0.000000 0.000000
# 5 0.000000 0.000000 0.000000 0.000000 0.041221 0.000000
# 6 0.000000 0.000000 0.000000 0.000000 0.000000 0.253721
#
#
# Mechanical properties :
#
#
# Convention : Reuss Voigt Hill
#
# Bulk Modulus (GPa) = 41.26979 41.29337 41.28158
# Shear Modulus (GPa) = 7.54907 14.04241 10.79574
#
# Velocity S-wave (km/s) = 2.15491 2.93903 2.57697
# Velocity P-wave (km/s) = 5.61941 6.07601 5.85216
#
# Compressibility (1/GPa) = 0.02423080
#
# Stress axis : x y z
#
# Youngs Moduli (GPa) = 13.82120 13.82120 37.79775
#
# Poissons Ratio (x) = 0.75336 0.35828
# Poissons Ratio (y) = 0.75336 0.35828
# Poissons Ratio (z) = 0.13101 0.13101
#
# Static dielectric constant tensor:
#      x y z
#    x 1.532500 0.000000 0.000000 
#    y 0.000000 1.532500 0.000000 
#    z 0.000000 0.000000 1.569410 
# 
# From -- ./inp_files/2960.got.cif
#   From: 2010.05.17/outbox.ucp.g08.bks.cvg/sg183_2_cif.got.tgz:2960.got - 2010.06.11 15:21:10.
