data_PCOD9585873
_publ_section_title
;
Structure prediction by ZEFSAII (Michael W. Deem and Ramdas Pophale) SiO2 
 PCOD9585873
Probable space group: P -6 C 2
;
_chemical_formula_sum "Si O2"
_cell_formula_units_Z 48
_cell_length_a 19.051257
_cell_length_b 19.051257
_cell_length_c 8.868319
_cell_angle_alpha 90.000000
_cell_angle_beta 90.000000
_cell_angle_gamma 120.000000
_cell_volume 2787.527815
_symmetry_space_group_name_H-M "P -6 C 2"
_symmetry_group_IT_number 188
_symmetry_cell_setting 'hexagonal'
loop_
_space_group_symop_operation_xyz
x,y,z
-x+y,-x,1/2-z
-y,x-y,z
x,y,1/2-z
-x+y,-x,z
-y,x-y,1/2-z
-y,-x,-z
-x+y,y,-z
x,x-y,-z
-x+y,y,1/2+z
x,x-y,1/2+z
-y,-x,1/2+z
loop_
_atom_site_type_symbol
_atom_site_label
_atom_site_fract_x
_atom_site_fract_y
_atom_site_fract_z
Si Si1 0.407540 0.955620 0.922104
Si Si2 0.240036 0.912003 0.430819
Si Si3 0.649384 0.415762 0.250000
Si Si4 0.557851 0.115702 0.500000
Si Si5 0.999020 0.846465 0.067924
O O1 0.385357 0.928693 0.750000
O O2 0.460175 0.920349 0.000000
O O3 0.329856 0.935529 0.020104
O O4 0.472884 0.052348 0.922768
O O5 0.231400 0.911530 0.250000
O O6 0.174920 0.825081 0.500000
O O7 0.216121 0.974111 0.506887
O O8 0.733120 0.415089 0.250000
O O9 0.629305 0.453637 0.108974
O O10 0.999905 0.849131 0.250000
O O11 0.067089 0.932911 0.000000
O O12 0.913582 0.827164 0.000000
#
# Coordination Sequence:
#
# PCOD9585873 Si02
#       5
#    12  12   6   6  12
#     4  10  20  36  61  82 114 149 192 232 287 349
#     4  11  22  38  61  87 114 147 188 235 288 348
#     4  10  20  32  54  78 112 152 202 256 294 334
#     4  10  18  36  54  82 110 152 194 240 290 348
#     4  11  21  36  56  81 115 152 194 237 283 335
#
# _framework density 17.219559
#
# number of rings (size 3 to 8) (size 9 to 14) (size 15 to 20)
#    1.000    0.500    1.250    7.750    1.750    0.000 
#    0.000    2.500    0.000    0.500    0.000    3.500 
#    0.000    0.000    0.000    0.000    0.000    0.000 
#
# Total GULP energy -267383.069911 kJ/mol
# GULP energy per Si atom -5570.480623 kJ/mol
# Density = 1.718037 g / cm^3
# Si number density = 17.219559 Si / 1000 Ang^3
#
#
#
# Elastic Constant Matrix: (Units=GPa)
#
#
# Indices 1 2 3 4 5 6 
#
# 1 71.4809 57.5829 36.6060 -0.0005 0.0000 0.0000
# 2 57.5829 71.4809 36.6060 0.0005 0.0000 0.0000
# 3 36.6060 36.6060 172.9581 0.0000 0.0000 0.0000
# 4 -0.0005 0.0005 0.0000 37.4028 0.0000 0.0000
# 5 0.0000 0.0000 0.0000 0.0000 37.4028 -0.0005
# 6 0.0000 0.0000 0.0000 0.0000 -0.0005 6.9490
#
#
#
# Elastic Compliance Matrix: (Units=1/GPa)
#
#
# Indices 1 2 3 4 5 6 
#
# 1 0.040379 -0.031574 -0.001864 0.000001 0.000000 0.000000
# 2 -0.031574 0.040379 -0.001864 -0.000001 0.000000 0.000000
# 3 -0.001864 -0.001864 0.006571 0.000000 0.000000 0.000000
# 4 0.000001 -0.000001 0.000000 0.026736 0.000000 0.000000
# 5 0.000000 0.000000 0.000000 0.000000 0.026736 0.000002
# 6 0.000000 0.000000 0.000000 0.000000 0.000002 0.143906
#
#
# Mechanical properties :
#
#
# Convention : Reuss Voigt Hill
#
# Bulk Modulus (GPa) = 59.78472 64.16775 61.97624
# Shear Modulus (GPa) = 13.85486 28.69258 21.27372
#
# Velocity S-wave (km/s) = 2.83962 4.08644 3.51869
# Velocity P-wave (km/s) = 6.74876 7.72079 7.25108
#
# Compressibility (1/GPa) = 0.01672668
#
# Stress axis : x y z
#
# Youngs Moduli (GPa) = 24.76530 24.76530 152.19311
#
# Poissons Ratio (x) = 0.78194 0.28363
# Poissons Ratio (y) = 0.78194 0.28363
# Poissons Ratio (z) = 0.04615 0.04615
#
# Static dielectric constant tensor:
#      x y z
#    x 1.565120 0.000000 0.000000 
#    y 0.000000 1.565120 0.000000 
#    z 0.000000 0.000000 1.465910 
# 
# From -- ./inp_files/423.got.cif
#   From: 2010.05.17/outbox.cif.g08.bks.cpg/sg188_1_cif.got.tgz:423.got - 2010.05.20 12:11:46.
