data_PCOD9585912
_publ_section_title
;
Structure prediction by ZEFSAII (Michael W. Deem and Ramdas Pophale) SiO2 
 PCOD9585912
Probable space group: P -6 C 2
;
_chemical_formula_sum "Si O2"
_cell_formula_units_Z 72
_cell_length_a 15.469204
_cell_length_b 15.469204
_cell_length_c 15.066462
_cell_angle_alpha 90.000000
_cell_angle_beta 90.000000
_cell_angle_gamma 120.000000
_cell_volume 3122.323126
_symmetry_space_group_name_H-M "P -6 C 2"
_symmetry_group_IT_number 188
_symmetry_cell_setting 'hexagonal'
loop_
_space_group_symop_operation_xyz
x,y,z
-x+y,-x,1/2-z
-y,x-y,z
x,y,1/2-z
-x+y,-x,z
-y,x-y,1/2-z
-y,-x,-z
-x+y,y,-z
x,x-y,-z
-x+y,y,1/2+z
x,x-y,1/2+z
-y,-x,1/2+z
loop_
_atom_site_type_symbol
_atom_site_label
_atom_site_fract_x
_atom_site_fract_y
_atom_site_fract_z
Si Si1 0.488191 0.596390 0.640784
Si Si2 0.576412 0.463365 0.641526
Si Si3 0.184011 0.735052 0.646466
Si Si4 0.130811 0.900159 0.400286
Si Si5 0.442490 0.200514 0.141583
Si Si6 0.902659 0.782749 0.354045
O O1 0.490821 0.597980 0.750000
O O2 0.558187 0.552346 0.612869
O O3 0.375914 0.517952 0.610412
O O4 0.524696 0.708156 0.609314
O O5 0.574935 0.461980 0.750000
O O6 0.488450 0.355653 0.611953
O O7 0.685229 0.485611 0.614461
O O8 0.202131 0.725065 0.750000
O O9 0.110917 0.780931 0.643791
O O10 0.130947 0.869054 0.500000
O O11 0.020550 0.827179 0.363019
O O12 0.151030 0.012474 0.398399
O O13 0.440765 0.198691 0.250000
O O14 0.330300 0.165947 0.112866
O O15 0.881472 0.783798 0.250000
#
# Coordination Sequence:
#
# PCOD9585912 Si02
#       6
#    12  12  12  12  12  12
#     4   9  17  29  51  80 109 138 181 236 281 322
#     4   9  15  25  41  71 109 138 163 206 264 320
#     4  10  19  35  58  85 114 149 191 239 290 339
#     4  12  25  40  57  83 117 152 189 238 294 352
#     4   9  17  28  49  79 111 141 173 215 269 326
#     4  11  22  39  61  84 110 148 193 236 282 341
#
# _framework density 23.059752
#
# number of rings (size 3 to 8) (size 9 to 14) (size 15 to 20)
#    0.000    2.000    0.000    5.000    0.000    8.000 
#    0.000    0.833    0.000    0.000    0.000    3.500 
#    0.000    0.000    0.000    0.000    0.000    0.000 
#
# Total GULP energy -402504.949492 kJ/mol
# GULP energy per Si atom -5590.346521 kJ/mol
# Density = 2.300727 g / cm^3
# Si number density = 23.059752 Si / 1000 Ang^3
#
#
#
# Elastic Constant Matrix: (Units=GPa)
#
#
# Indices 1 2 3 4 5 6 
#
# 1 80.2279 -8.7082 -8.8390 0.0000 0.0000 0.0000
# 2 -8.7082 80.2279 -8.8390 0.0000 0.0000 0.0000
# 3 -8.8390 -8.8390 31.0527 0.0000 0.0000 0.0000
# 4 0.0000 0.0000 0.0000 -12.5389 0.0000 0.0000
# 5 0.0000 0.0000 0.0000 0.0000 -12.5389 0.0000
# 6 0.0000 0.0000 0.0000 0.0000 0.0000 44.4681
#
#
#
# Elastic Compliance Matrix: (Units=1/GPa)
#
#
# Indices 1 2 3 4 5 6 
#
# 1 0.013142 0.001898 0.004281 0.000000 0.000000 0.000000
# 2 0.001898 0.013142 0.004281 0.000000 0.000000 0.000000
# 3 0.004281 0.004281 0.034641 0.000000 0.000000 0.000000
# 4 0.000000 0.000000 0.000000 -0.079752 0.000000 0.000000
# 5 0.000000 0.000000 0.000000 0.000000 -0.079752 0.000000
# 6 0.000000 0.000000 0.000000 0.000000 0.000000 0.022488
#
#
# Mechanical properties :
#
#
# Convention : Reuss Voigt Hill
#
# Bulk Modulus (GPa) = 12.21806 15.41511 13.81659
# Shear Modulus (GPa) = -71.70516 18.40439 -26.65038
#
# Velocity S-wave (km/s) = -5.58237 2.82816 -3.40326
# Velocity P-wave (km/s) = 6.02001 4.16702 3.07218
#
# Compressibility (1/GPa) = 0.08184605
#
# Stress axis : x y z
#
# Youngs Moduli (GPa) = 76.09079 76.09079 28.86789
#
# Poissons Ratio (x) = -0.14443 -0.12359
# Poissons Ratio (y) = -0.14443 -0.12359
# Poissons Ratio (z) = -0.32576 -0.32576
#
# Static dielectric constant tensor:
#      x y z
#    x 1.808060 0.000000 0.000000 
#    y 0.000000 1.808060 0.000000 
#    z 0.000000 0.000000 1.903640 
# 
# From -- ./inp_files/3167.got.cif
#   From: 2010.05.17/outbox.cif.g08.bks.cpg/sg188_2_cif.got.tgz:3167.got - 2010.05.20 12:11:46.
