data_PCOD9585805
_publ_section_title
;
Structure prediction by ZEFSAII (Michael W. Deem and Ramdas Pophale) SiO2 
 PCOD9585805
Probable space group: P -6 M 2
;
_chemical_formula_sum "Si O2"
_cell_formula_units_Z 32
_cell_length_a 11.790374
_cell_length_b 11.790374
_cell_length_c 14.284541
_cell_angle_alpha 90.000000
_cell_angle_beta 90.000000
_cell_angle_gamma 120.000000
_cell_volume 1719.697598
_symmetry_space_group_name_H-M "P -6 M 2"
_symmetry_group_IT_number 187
_symmetry_cell_setting 'hexagonal'
loop_
_space_group_symop_operation_xyz
x,y,z
-x+y,-x,-z
-y,x-y,z
x,y,-z
-x+y,-x,z
-y,x-y,-z
-y,-x,-z
-x+y,y,-z
x,x-y,-z
-x+y,y,z
x,x-y,z
-y,-x,z
loop_
_atom_site_type_symbol
_atom_site_label
_atom_site_fract_x
_atom_site_fract_y
_atom_site_fract_z
Si Si1 0.333335 0.666668 0.613851
Si Si2 0.484091 0.968181 0.388059
Si Si3 0.737472 0.735730 0.297742
Si Si4 0.598839 0.668060 0.106068
O O1 0.333334 0.666667 0.500000
O O2 0.408133 0.591868 0.645000
O O3 0.485798 0.971595 0.500000
O O4 0.394999 0.025071 0.350024
O O5 0.882523 0.765045 0.317777
O O6 0.704390 0.707089 0.187496
O O7 0.720923 0.860462 0.323156
O O8 0.553983 0.776992 0.110418
O O9 0.474535 0.525465 0.123117
O O10 0.647032 0.671942 0.000000
#
# Coordination Sequence:
#
# PCOD9585805 Si02
#       4
#     2   6  12  12
#     4   9  18  36  66  93 109 134 190 252 297 345
#     4  11  22  40  65  91 115 146 195 252 300 347
#     4  11  23  39  60  88 122 159 196 238 291 353
#     4   9  17  31  55  87 119 150 190 241 293 343
#
# _framework density 18.607921999999999
#
# number of rings (size 3 to 8) (size 9 to 14) (size 15 to 20)
#    0.000    1.875    3.750    0.750    0.000    3.000 
#    1.125    0.000    0.000    4.500    0.000    0.000 
#    0.000    0.000    0.000    0.000    0.000    0.000 
#
# Total GULP energy -178562.542999 kJ/mol
# GULP energy per Si atom -5580.079469 kJ/mol
# Density = 1.856557 g / cm^3
# Si number density = 18.607922 Si / 1000 Ang^3
#
#
#
# Elastic Constant Matrix: (Units=GPa)
#
#
# Indices 1 2 3 4 5 6 
#
# 1 77.3047 19.0885 23.2787 0.0000 0.0000 0.0000
# 2 19.0885 77.3047 23.2786 0.0000 0.0000 0.0000
# 3 23.2787 23.2786 66.5469 0.0000 0.0000 0.0000
# 4 0.0000 0.0000 0.0000 15.2866 0.0000 0.0000
# 5 0.0000 0.0000 0.0000 0.0000 15.2866 0.0000
# 6 0.0000 0.0000 0.0000 0.0000 0.0000 29.1081
#
#
#
# Elastic Compliance Matrix: (Units=1/GPa)
#
#
# Indices 1 2 3 4 5 6 
#
# 1 0.014830 -0.002347 -0.004367 0.000000 0.000000 0.000000
# 2 -0.002347 0.014830 -0.004367 0.000000 0.000000 0.000000
# 3 -0.004367 -0.004367 0.018082 0.000000 0.000000 0.000000
# 4 0.000000 0.000000 0.000000 0.065417 0.000000 0.000000
# 5 0.000000 0.000000 0.000000 0.000000 0.065417 0.000000
# 6 0.000000 0.000000 0.000000 0.000000 0.000000 0.034355
#
#
# Mechanical properties :
#
#
# Convention : Reuss Voigt Hill
#
# Bulk Modulus (GPa) = 39.09060 39.16089 39.12574
# Shear Modulus (GPa) = 20.52386 22.30364 21.41375
#
# Velocity S-wave (km/s) = 3.32469 3.46585 3.39601
# Velocity P-wave (km/s) = 5.98258 6.09156 6.03731
#
# Compressibility (1/GPa) = 0.02558160
#
# Stress axis : x y z
#
# Youngs Moduli (GPa) = 67.42943 67.42942 55.30351
#
# Poissons Ratio (x) = 0.15826 0.24150
# Poissons Ratio (y) = 0.15826 0.24150
# Poissons Ratio (z) = 0.29445 0.29445
#
# Static dielectric constant tensor:
#      x y z
#    x 1.616340 0.000000 0.000000 
#    y 0.000000 1.616340 0.000000 
#    z 0.000000 0.000000 1.664330 
# 
# From -- ./inp_files/2151.got.cif
#   From: 2010.05.17/outbox.cif.g08.bks.cpg/sg187_2_cif.got.tgz:2151.got - 2010.05.20 12:09:04.
