data_PCOD9585853
_publ_section_title
;
Structure prediction by ZEFSAII (Michael W. Deem and Ramdas Pophale) SiO2 
 PCOD9585853
Probable space group: P -6 C 2
;
_chemical_formula_sum "Si O2"
_cell_formula_units_Z 64
_cell_length_a 12.656845
_cell_length_b 12.656845
_cell_length_c 17.232916
_cell_angle_alpha 90.000000
_cell_angle_beta 90.000000
_cell_angle_gamma 120.000000
_cell_volume 2390.783919
_symmetry_space_group_name_H-M "P -6 C 2"
_symmetry_group_IT_number 188
_symmetry_cell_setting 'hexagonal'
loop_
_space_group_symop_operation_xyz
x,y,z
-x+y,-x,1/2-z
-y,x-y,z
x,y,1/2-z
-x+y,-x,z
-y,x-y,1/2-z
-y,-x,-z
-x+y,y,-z
x,x-y,-z
-x+y,y,1/2+z
x,x-y,1/2+z
-y,-x,1/2+z
loop_
_atom_site_type_symbol
_atom_site_label
_atom_site_fract_x
_atom_site_fract_y
_atom_site_fract_z
Si Si1 0.477849 0.324489 0.250000
Si Si2 0.224547 0.095622 0.750000
Si Si3 0.260673 0.850069 0.101906
Si Si4 0.812230 0.278138 0.919726
Si Si5 0.857031 0.808629 0.416467
Si Si6 0.333334 0.666668 0.907864
Si Si7 0.998703 0.387332 0.250000
Si Si8 0.491736 0.508265 0.000000
O O1 0.329017 0.271726 0.250000
O O2 0.509114 0.284088 0.168271
O O3 0.547465 0.468531 0.250000
O O4 0.156249 0.072534 0.667215
O O5 0.315157 0.241187 0.750000
O O6 0.239115 0.713850 0.114840
O O7 0.176093 0.912319 0.089086
O O8 0.339184 0.918469 0.175751
O O9 0.355968 0.903792 0.031621
O O10 0.819205 0.153848 0.918043
O O11 0.932041 0.408828 0.935500
O O12 0.740537 0.259464 0.000000
O O13 0.925482 0.850963 0.500000
O O14 0.333334 0.666667 0.000000
#
# Coordination Sequence:
#
# PCOD9585853 Si02
#       8
#     6   6  12  12  12   4   6   6
#     4  10  18  28  48  70 104 138 198 226 298 388
#     4   8  18  28  44  74 108 130 194 238 307 387
#     4  11  22  38  57  77 115 157 222 275 328 376
#     4  10  19  30  47  80 102 147 189 238 308 383
#     4   9  16  32  53  76 104 148 190 244 320 389
#     4  12  27  40  59  88 111 172 245 301 333 382
#     4  10  20  36  56  74 106 168 202 274 325 379
#     4  12  18  32  56  74 114 152 206 260 306 388
#
# _framework density 26.769462000000001
#
# number of rings (size 3 to 8) (size 9 to 14) (size 15 to 20)
#    0.000    1.875    6.562    0.000    0.000    0.750 
#    1.125    0.000    4.125    0.000    0.000    0.000 
#    0.000    0.000    0.000   15.188    3.375    8.250 
#
# Total GULP energy -356902.440868 kJ/mol
# GULP energy per Si atom -5576.600639 kJ/mol
# Density = 2.670853 g / cm^3
# Si number density = 26.769462 Si / 1000 Ang^3
#
#
#
# Elastic Constant Matrix: (Units=GPa)
#
#
# Indices 1 2 3 4 5 6 
#
# 1 109.8714 43.1598 30.6756 0.0000 0.0001 -0.0002
# 2 43.1598 109.8704 30.6756 0.0002 0.0001 -0.0001
# 3 30.6756 30.6756 253.7545 0.0001 0.0001 0.0000
# 4 0.0000 0.0002 0.0001 10.2265 -0.0004 0.0000
# 5 0.0001 0.0001 0.0001 -0.0004 10.2272 0.0000
# 6 -0.0002 -0.0001 0.0000 0.0000 0.0000 33.3557
#
#
#
# Elastic Compliance Matrix: (Units=1/GPa)
#
#
# Indices 1 2 3 4 5 6 
#
# 1 0.010929 -0.004061 -0.000830 0.000000 0.000000 0.000000
# 2 -0.004061 0.010929 -0.000830 0.000000 0.000000 0.000000
# 3 -0.000830 -0.000830 0.004142 0.000000 0.000000 0.000000
# 4 0.000000 0.000000 0.000000 0.097785 0.000003 0.000000
# 5 0.000000 0.000000 0.000000 0.000003 0.097778 0.000000
# 6 0.000000 0.000000 0.000000 0.000000 0.000000 0.029980
#
#
# Mechanical properties :
#
#
# Convention : Reuss Voigt Hill
#
# Bulk Modulus (GPa) = 68.70152 75.83536 72.26844
# Shear Modulus (GPa) = 18.66804 35.36091 27.01448
#
# Velocity S-wave (km/s) = 2.64363 3.63842 3.18016
# Velocity P-wave (km/s) = 5.91931 6.78538 6.36709
#
# Compressibility (1/GPa) = 0.01455572
#
# Stress axis : x y z
#
# Youngs Moduli (GPa) = 91.50240 91.50153 241.45637
#
# Poissons Ratio (x) = 0.37161 0.20045
# Poissons Ratio (y) = 0.37162 0.20046
# Poissons Ratio (z) = 0.07596 0.07596
#
# Static dielectric constant tensor:
#      x y z
#    x 2.176920 0.000000 0.000000 
#    y 0.000000 2.176930 0.000000 
#    z 0.000000 0.000000 2.573830 
# 
# From -- ./inp_files/3166.got.cif
#   From: 2010.05.17/outbox.cif.g08.bks.cpg/sg188_2_cif.got.tgz:3166.got - 2010.05.20 12:11:46.
