data_PCOD9585452
_publ_section_title
;
Structure prediction by ZEFSAII (Michael W. Deem and Ramdas Pophale) SiO2 
 PCOD9585452
Probable space group: P -6 M 2
;
_chemical_formula_sum "Si O2"
_cell_formula_units_Z 90
_cell_length_a 17.789291
_cell_length_b 17.789291
_cell_length_c 18.092607
_cell_angle_alpha 90.000000
_cell_angle_beta 90.000000
_cell_angle_gamma 120.000000
_cell_volume 4958.485645
_symmetry_space_group_name_H-M "P -6 M 2"
_symmetry_group_IT_number 187
_symmetry_cell_setting 'hexagonal'
loop_
_space_group_symop_operation_xyz
x,y,z
-x+y,-x,-z
-y,x-y,z
x,y,-z
-x+y,-x,z
-y,x-y,-z
-y,-x,-z
-x+y,y,-z
x,x-y,-z
-x+y,y,z
x,x-y,z
-y,-x,z
loop_
_atom_site_type_symbol
_atom_site_label
_atom_site_fract_x
_atom_site_fract_y
_atom_site_fract_z
Si Si1 0.510362 0.667931 0.306295
Si Si2 0.942989 0.711815 0.144108
Si Si3 0.169743 0.001182 0.000000
Si Si4 0.696464 0.139145 0.420487
Si Si5 0.821981 0.822634 0.295754
Si Si6 0.581179 0.990525 0.814207
Si Si7 0.828179 0.334569 0.263669
Si Si8 0.050270 0.330500 0.586424
O O1 0.490481 0.745241 0.291237
O O2 0.422510 0.577491 0.324173
O O3 0.552474 0.647759 0.234640
O O4 0.581739 0.700579 0.371784
O O5 0.839118 0.678235 0.144444
O O6 0.979492 0.762735 0.222195
O O7 0.977644 0.774641 0.074147
O O8 0.980624 0.646105 0.135282
O O9 0.096884 0.903117 0.000000
O O10 0.130479 0.065240 0.000000
O O11 0.668647 0.154500 0.500000
O O12 0.801288 0.198713 0.417587
O O13 0.664684 0.169800 0.351724
O O14 0.668852 0.039843 0.413899
O O15 0.912264 0.824527 0.313152
O O16 0.751965 0.782863 0.362485
O O17 0.838071 0.919036 0.280608
O O18 0.492788 0.985575 0.844605
O O19 0.624005 0.072988 0.759289
O O20 0.795576 0.397788 0.234581
O O21 0.763123 0.236877 0.240315
O O22 0.071522 0.324858 0.500000
#
# Coordination Sequence:
#
# PCOD9585452 Si02
#       8
#    12  12   6  12  12  12  12  12
#     4  11  23  39  57  78 103 134 176 233 300 361
#     4  10  20  36  59  88 121 156 192 232 279 332
#     4  10  21  36  59  92 130 164 194 228 273 330
#     4   9  17  29  45  66  94 129 171 219 269 321
#     4  11  22  36  55  80 114 154 193 232 275 328
#     4  10  20  35  57  83 109 143 188 234 280 332
#     4  10  18  29  46  72 104 137 173 216 267 320
#     4  11  22  36  56  78 102 137 186 237 284 335
#
# _framework density 18.150704000000001
#
# number of rings (size 3 to 8) (size 9 to 14) (size 15 to 20)
#    0.000    1.733    2.667    2.067    0.000    5.067 
#    0.000    3.000    0.000    2.667    0.000    0.000 
#    0.000    0.000    0.000    0.000    0.000    0.000 
#
# Total GULP energy -501261.778822 kJ/mol
# GULP energy per Si atom -5569.575320 kJ/mol
# Density = 1.810939 g / cm^3
# Si number density = 18.150704 Si / 1000 Ang^3
#
#
#
# Elastic Constant Matrix: (Units=GPa)
#
#
# Indices 1 2 3 4 5 6 
#
# 1 96.6762 53.9920 27.2477 0.0000 0.0000 0.0000
# 2 53.9920 96.6762 27.2477 0.0000 0.0000 0.0000
# 3 27.2477 27.2477 59.5285 0.0000 0.0000 0.0000
# 4 0.0000 0.0000 0.0000 13.0721 0.0000 0.0000
# 5 0.0000 0.0000 0.0000 0.0000 13.0721 0.0000
# 6 0.0000 0.0000 0.0000 0.0000 0.0000 21.3421
#
#
#
# Elastic Compliance Matrix: (Units=1/GPa)
#
#
# Indices 1 2 3 4 5 6 
#
# 1 0.015691 -0.007737 -0.003641 0.000000 0.000000 0.000000
# 2 -0.007737 0.015691 -0.003641 0.000000 0.000000 0.000000
# 3 -0.003641 -0.003641 0.020132 0.000000 0.000000 0.000000
# 4 0.000000 0.000000 0.000000 0.076499 0.000000 0.000000
# 5 0.000000 0.000000 0.000000 0.000000 0.076499 0.000000
# 6 0.000000 0.000000 0.000000 0.000000 0.000000 0.046856
#
#
# Mechanical properties :
#
#
# Convention : Reuss Voigt Hill
#
# Bulk Modulus (GPa) = 46.56238 52.20619 49.38429
# Shear Modulus (GPa) = 17.32727 19.12350 18.22538
#
# Velocity S-wave (km/s) = 3.09307 3.24943 3.17221
# Velocity P-wave (km/s) = 6.20201 6.55008 6.37842
#
# Compressibility (1/GPa) = 0.02147656
#
# Stress axis : x y z
#
# Youngs Moduli (GPa) = 63.73131 63.73131 49.67318
#
# Poissons Ratio (x) = 0.49309 0.18085
# Poissons Ratio (y) = 0.49309 0.18085
# Poissons Ratio (z) = 0.23203 0.23203
#
# Static dielectric constant tensor:
#      x y z
#    x 1.649030 0.000000 0.000000 
#    y 0.000000 1.649030 0.000000 
#    z 0.000000 0.000000 1.604130 
# 
# From -- ./inp_files/3223.got.cif
#   From: 2010.05.17/outbox.cif.g08.bks.cpg/sg187_2_cif.got.tgz:3223.got - 2010.05.20 12:09:04.
