data_PCOD9585919
_publ_section_title
;
Structure prediction by ZEFSAII (Michael W. Deem and Ramdas Pophale) SiO2 
 PCOD9585919
Probable space group: P -6 C 2
;
_chemical_formula_sum "Si O2"
_cell_formula_units_Z 70
_cell_length_a 14.884785
_cell_length_b 14.884785
_cell_length_c 17.466579
_cell_angle_alpha 90.000000
_cell_angle_beta 90.000000
_cell_angle_gamma 120.000000
_cell_volume 3351.379556
_symmetry_space_group_name_H-M "P -6 C 2"
_symmetry_group_IT_number 188
_symmetry_cell_setting 'hexagonal'
loop_
_space_group_symop_operation_xyz
x,y,z
-x+y,-x,1/2-z
-y,x-y,z
x,y,1/2-z
-x+y,-x,z
-y,x-y,1/2-z
-y,-x,-z
-x+y,y,-z
x,x-y,-z
-x+y,y,1/2+z
x,x-y,1/2+z
-y,-x,1/2+z
loop_
_atom_site_type_symbol
_atom_site_label
_atom_site_fract_x
_atom_site_fract_y
_atom_site_fract_z
Si Si1 0.114835 0.865135 0.343158
Si Si2 0.905211 0.109201 0.334913
Si Si3 0.542328 0.712844 0.923074
Si Si4 0.333335 0.666668 0.157518
Si Si5 0.827184 0.576931 0.616701
Si Si6 0.790067 0.440733 0.750000
Si Si7 0.435295 0.364265 0.030563
O O1 0.122678 0.863417 0.250000
O O2 0.170605 0.806893 0.377352
O O3 0.995295 0.809147 0.369716
O O4 0.156510 0.982198 0.370730
O O5 0.922519 0.078963 0.250000
O O6 0.862302 0.186848 0.330791
O O7 0.435192 0.665957 0.875486
O O8 0.583658 0.631609 0.940021
O O9 0.526119 0.763060 0.000000
O O10 0.333334 0.666668 0.250000
O O11 0.838015 0.494854 0.669963
O O12 0.904577 0.611869 0.544713
O O13 0.712444 0.546691 0.586545
O O14 0.758093 0.321442 0.750000
O O15 0.544097 0.455904 0.000000
#
# Coordination Sequence:
#
# PCOD9585919 Si02
#       7
#    12  12  12   4  12   6  12
#     4  10  21  38  64  98 136 180 226 276 347 410
#     4  10  19  36  62  92 132 171 214 275 326 402
#     4  12  24  45  70  99 136 177 230 281 352 409
#     4  12  28  50  76 102 133 176 238 300 349 410
#     4  11  21  40  62  94 131 173 226 273 334 412
#     4  10  22  38  62  90 130 176 226 278 342 390
#     4  11  24  40  64  93 131 176 224 273 345 414
#
# _framework density 20.886921999999998
#
# number of rings (size 3 to 8) (size 9 to 14) (size 15 to 20)
#    0.171    1.029    2.571    4.457    0.000    1.371 
#    5.657    0.000    0.000    0.000    0.000    0.000 
#    0.000    0.000    0.000    0.000    0.000    0.000 
#
# Total GULP energy -390108.191581 kJ/mol
# GULP energy per Si atom -5572.974165 kJ/mol
# Density = 2.083938 g / cm^3
# Si number density = 20.886922 Si / 1000 Ang^3
#
#
#
# Elastic Constant Matrix: (Units=GPa)
#
#
# Indices 1 2 3 4 5 6 
#
# 1 89.6027 8.6898 26.6943 -0.0001 0.0000 0.0001
# 2 8.6898 89.6035 26.6946 0.0000 0.0000 0.0002
# 3 26.6943 26.6946 99.4931 -0.0001 -0.0001 0.0001
# 4 -0.0001 0.0000 -0.0001 30.4823 0.0002 0.0000
# 5 0.0000 0.0000 -0.0001 0.0002 30.4820 0.0000
# 6 0.0001 0.0002 0.0001 0.0000 0.0000 40.4568
#
#
#
# Elastic Compliance Matrix: (Units=1/GPa)
#
#
# Indices 1 2 3 4 5 6 
#
# 1 0.012134 -0.000225 -0.003195 0.000000 0.000000 0.000000
# 2 -0.000225 0.012134 -0.003195 0.000000 0.000000 0.000000
# 3 -0.003195 -0.003195 0.011766 0.000000 0.000000 0.000000
# 4 0.000000 0.000000 0.000000 0.032806 0.000000 0.000000
# 5 0.000000 0.000000 0.000000 0.000000 0.032806 0.000000
# 6 0.000000 0.000000 0.000000 0.000000 0.000000 0.024718
#
#
# Mechanical properties :
#
#
# Convention : Reuss Voigt Hill
#
# Bulk Modulus (GPa) = 43.85417 44.76185 44.30801
# Shear Modulus (GPa) = 33.96846 34.72561 34.34704
#
# Velocity S-wave (km/s) = 4.03712 4.08186 4.05955
# Velocity P-wave (km/s) = 6.54008 6.61004 6.57515
#
# Compressibility (1/GPa) = 0.02280285
#
# Stress axis : x y z
#
# Youngs Moduli (GPa) = 82.41223 82.41288 84.99375
#
# Poissons Ratio (x) = 0.01853 0.27158
# Poissons Ratio (y) = 0.01853 0.27158
# Poissons Ratio (z) = 0.26333 0.26333
#
# Static dielectric constant tensor:
#      x y z
#    x 1.756510 0.000000 0.000000 
#    y 0.000000 1.756510 0.000000 
#    z 0.000000 0.000000 1.776740 
# 
# From -- ./inp_files/3237.got.cif
#   From: 2010.05.17/outbox.cif.g08.bks.cpg/sg188_2_cif.got.tgz:3237.got - 2010.05.20 12:11:46.
