data_PCOD9585538
_publ_section_title
;
Structure prediction by ZEFSAII (Michael W. Deem and Ramdas Pophale) SiO2 
 PCOD9585538
Probable space group: P -6 M 2
;
_chemical_formula_sum "Si O2"
_cell_formula_units_Z 78
_cell_length_a 22.964692
_cell_length_b 22.964692
_cell_length_c 10.109551
_cell_angle_alpha 90.000000
_cell_angle_beta 90.000000
_cell_angle_gamma 120.000000
_cell_volume 4617.253821
_symmetry_space_group_name_H-M "P -6 M 2"
_symmetry_group_IT_number 187
_symmetry_cell_setting 'hexagonal'
loop_
_space_group_symop_operation_xyz
x,y,z
-x+y,-x,-z
-y,x-y,z
x,y,-z
-x+y,-x,z
-y,x-y,-z
-y,-x,-z
-x+y,y,-z
x,x-y,-z
-x+y,y,z
x,x-y,z
-y,-x,z
loop_
_atom_site_type_symbol
_atom_site_label
_atom_site_fract_x
_atom_site_fract_y
_atom_site_fract_z
Si Si1 0.543232 0.590099 0.355660
Si Si2 0.471087 0.667688 0.000000
Si Si3 0.420068 0.141214 0.650358
Si Si4 0.731964 0.797298 0.845649
Si Si5 0.605052 0.533073 0.847325
Si Si6 0.144789 0.721596 0.762234
Si Si7 0.938883 0.198408 0.345240
O O1 0.564629 0.577777 0.500000
O O2 0.464462 0.535539 0.342852
O O3 0.580003 0.576509 0.235206
O O4 0.560364 0.665912 0.346735
O O5 0.520456 0.684310 0.875142
O O6 0.406958 0.593043 0.000000
O O7 0.448506 0.724253 0.000000
O O8 0.438588 0.133179 0.500000
O O9 0.430898 0.215449 0.661397
O O10 0.458788 0.126204 0.763384
O O11 0.339896 0.091020 0.666336
O O12 0.746573 0.873287 0.824265
O O13 0.652233 0.749727 0.816957
O O14 0.775290 0.777780 0.750376
O O15 0.744240 0.789957 0.000000
O O16 0.542709 0.457292 0.845112
O O17 0.620930 0.554453 0.000000
O O18 0.213532 0.786469 0.717864
O O19 0.957179 0.199158 0.500000
O O20 0.876344 0.123657 0.315447
#
# Coordination Sequence:
#
# PCOD9585538 Si02
#       7
#    12   6  12  12  12  12  12
#     4  10  21  35  50  70  97 131 170 214 265 316
#     4  10  19  32  50  72  99 136 180 226 272 318
#     4   9  18  33  53  77 105 136 167 205 254 303
#     4  10  20  34  51  75 108 139 168 206 255 306
#     4  10  21  34  50  75 104 134 170 211 255 303
#     4  10  20  33  50  73 101 134 172 216 266 316
#     4   9  19  35  54  78 106 133 167 210 252 301
#
# _framework density 16.893160000000002
#
# number of rings (size 3 to 8) (size 9 to 14) (size 15 to 20)
#    0.000    2.308    0.769    2.846    1.077    5.846 
#    0.000    3.077    0.000    0.923    0.000    0.000 
#    0.000    0.000    0.000    0.000    0.000    0.000 
#
# Total GULP energy -434967.789105 kJ/mol
# GULP energy per Si atom -5576.510117 kJ/mol
# Density = 1.685471 g / cm^3
# Si number density = 16.893160 Si / 1000 Ang^3
#
#
#
# Elastic Constant Matrix: (Units=GPa)
#
#
# Indices 1 2 3 4 5 6 
#
# 1 83.1082 44.8849 63.0329 0.0000 -0.0028 0.0000
# 2 44.8849 83.1082 63.0329 0.0000 0.0028 0.0000
# 3 63.0329 63.0329 137.4786 0.0000 0.0000 0.0000
# 4 0.0000 0.0000 0.0000 11.6013 0.0000 0.0028
# 5 -0.0028 0.0028 0.0000 0.0000 11.6013 0.0000
# 6 0.0000 0.0000 0.0000 0.0028 0.0000 19.1116
#
#
#
# Elastic Compliance Matrix: (Units=1/GPa)
#
#
# Indices 1 2 3 4 5 6 
#
# 1 0.020204 -0.005958 -0.006532 0.000000 0.000006 0.000000
# 2 -0.005958 0.020204 -0.006532 0.000000 -0.000006 0.000000
# 3 -0.006532 -0.006532 0.013264 0.000000 0.000000 0.000000
# 4 0.000000 0.000000 0.000000 0.086198 0.000000 -0.000013
# 5 0.000006 -0.000006 0.000000 0.000000 0.086198 0.000000
# 6 0.000000 0.000000 0.000000 -0.000013 0.000000 0.052324
#
#
# Mechanical properties :
#
#
# Convention : Reuss Voigt Hill
#
# Bulk Modulus (GPa) = 63.98427 71.73296 67.85862
# Shear Modulus (GPa) = 15.54513 17.31245 16.42879
#
# Velocity S-wave (km/s) = 3.03678 3.20475 3.12189
# Velocity P-wave (km/s) = 7.08901 7.49992 7.29736
#
# Compressibility (1/GPa) = 0.01562884
#
# Stress axis : x y z
#
# Youngs Moduli (GPa) = 49.49451 49.49451 75.39482
#
# Poissons Ratio (x) = 0.29488 0.49247
# Poissons Ratio (y) = 0.29488 0.49247
# Poissons Ratio (z) = 0.32329 0.32329
#
# Static dielectric constant tensor:
#      x y z
#    x 1.566910 0.000000 0.000000 
#    y 0.000000 1.566910 0.000000 
#    z 0.000000 0.000000 1.581040 
# 
# From -- ./inp_files/1138.got.cif
#   From: 2010.05.17/outbox.cif.g08.bks.cpg/sg187_1_cif.got.tgz:1138.got - 2010.05.20 12:09:04.
