data_PCOD9585255
_publ_section_title
;
Structure prediction by ZEFSAII (Michael W. Deem and Ramdas Pophale) SiO2 
 PCOD9585255
Probable space group: P 63 C M
;
_chemical_formula_sum "Si O2"
_cell_formula_units_Z 96
_cell_length_a 14.042318
_cell_length_b 14.042318
_cell_length_c 27.956635
_cell_angle_alpha 90.000000
_cell_angle_beta 90.000000
_cell_angle_gamma 120.000000
_cell_volume 4774.117852
_symmetry_space_group_name_H-M "P 63 C M"
_symmetry_group_IT_number 185
_symmetry_cell_setting 'hexagonal'
loop_
_space_group_symop_operation_xyz
x,y,z
x-y,x,1/2+z
-y,x-y,z
-x,-y,1/2+z
-x+y,-x,z
y,-x+y,1/2+z
-x+y,y,1/2+z
x,x-y,1/2+z
-y,-x,1/2+z
y,x,z
x-y,-y,z
-x,-x+y,z
loop_
_atom_site_type_symbol
_atom_site_label
_atom_site_fract_x
_atom_site_fract_y
_atom_site_fract_z
Si Si1 0.865742 0.320565 0.306880
Si Si2 0.422292 0.190767 0.171300
Si Si3 0.873775 0.279016 0.572716
Si Si4 0.557819 0.691012 0.414769
Si Si5 0.573913 0.449695 0.719262
Si Si6 0.872583 0.212970 0.987880
Si Si7 0.871221 0.129742 0.253006
Si Si8 0.434439 0.870885 0.503199
O O1 0.827420 0.309729 0.361275
O O2 0.832535 0.386553 0.269796
O O3 0.835546 0.201688 0.285897
O O4 0.000000 0.389982 0.305916
O O5 0.409343 0.207902 0.116052
O O6 0.481356 0.122276 0.184480
O O7 0.502996 0.309729 0.194636
O O8 0.307810 0.142489 0.199617
O O9 0.870090 0.200906 0.529436
O O10 0.829929 0.355952 0.549215
O O11 0.000000 0.353800 0.589852
O O12 0.623678 0.623678 0.412923
O O13 0.638967 0.810364 0.437386
O O14 0.460930 0.632709 0.453903
O O15 0.547692 0.547692 0.726331
O O16 0.000000 0.248595 0.986705
O O17 0.865363 0.321278 0.001720
O O18 0.000000 0.174309 0.262039
O O19 0.798809 0.000000 0.260058
O O20 0.473915 0.000000 0.503647
#
# Coordination Sequence:
#
# PCOD9585255 Si02
#       8
#    12  12  12  12  12  12  12  12
#     4   8  17  34  56  77 106 148 183 221 282 337
#     4  11  22  37  58  83 111 150 195 235 292 354
#     4  10  21  37  56  77 109 148 182 224 285 342
#     4   9  17  36  58  76 109 148 176 221 285 339
#     4  10  21  38  56  81 115 148 188 240 286 341
#     4  10  20  34  55  83 108 137 186 234 273 332
#     4  10  20  36  57  84 115 150 194 240 284 337
#     4   8  17  34  51  73 102 133 175 221 267 320
#
# _framework density 20.108428
#
# number of rings (size 3 to 8) (size 9 to 14) (size 15 to 20)
#    0.000    2.500    0.000    3.750    1.750    1.500 
#   10.500    0.000    0.000    2.000    0.000    0.000 
#    0.000    0.000    0.000    0.000    0.000    0.000 
#
# Total GULP energy -535548.257033 kJ/mol
# GULP energy per Si atom -5578.627677 kJ/mol
# Density = 2.006266 g / cm^3
# Si number density = 20.108428 Si / 1000 Ang^3
#
#
#
# Elastic Constant Matrix: (Units=GPa)
#
#
# Indices 1 2 3 4 5 6 
#
# 1 54.5365 1.3834 -0.9057 0.0000 0.0000 0.0000
# 2 1.3834 54.5365 -0.9057 0.0000 0.0000 0.0000
# 3 -0.9057 -0.9057 97.0145 0.0000 0.0000 0.0000
# 4 0.0000 0.0000 0.0000 15.8869 0.0000 0.0000
# 5 0.0000 0.0000 0.0000 0.0000 15.8869 0.0000
# 6 0.0000 0.0000 0.0000 0.0000 0.0000 26.5766
#
#
#
# Elastic Compliance Matrix: (Units=1/GPa)
#
#
# Indices 1 2 3 4 5 6 
#
# 1 0.018351 -0.000463 0.000167 0.000000 0.000000 0.000000
# 2 -0.000463 0.018351 0.000167 0.000000 0.000000 0.000000
# 3 0.000167 0.000167 0.010311 0.000000 0.000000 0.000000
# 4 0.000000 0.000000 0.000000 0.062945 0.000000 0.000000
# 5 0.000000 0.000000 0.000000 0.000000 0.062945 0.000000
# 6 0.000000 0.000000 0.000000 0.000000 0.000000 0.037627
#
#
# Mechanical properties :
#
#
# Convention : Reuss Voigt Hill
#
# Bulk Modulus (GPa) = 21.38802 22.80348 22.09575
# Shear Modulus (GPa) = 22.08755 25.43779 23.76267
#
# Velocity S-wave (km/s) = 3.31784 3.56059 3.44135
# Velocity P-wave (km/s) = 5.03357 5.31682 5.17713
#
# Compressibility (1/GPa) = 0.04675515
#
# Stress axis : x y z
#
# Youngs Moduli (GPa) = 54.49340 54.49340 96.98517
#
# Poissons Ratio (x) = 0.02521 -0.01620
# Poissons Ratio (y) = 0.02521 -0.01620
# Poissons Ratio (z) = -0.00910 -0.00910
#
# Static dielectric constant tensor:
#      x y z
#    x 1.726890 0.000000 0.000000 
#    y 0.000000 1.726890 0.000000 
#    z 0.000000 0.000000 1.722290 
# 
# From -- ./inp_files/2174.got.cif
#   From: 2010.05.17/outbox.cif.g08.bks.cpg/sg185_cif.got.tgz:2174.got - 2010.05.20 12:05:34.
