data_PCOD9585387
_publ_section_title
;
Structure prediction by ZEFSAII (Michael W. Deem and Ramdas Pophale) SiO2 
 PCOD9585387
Probable space group: P 63 M C
;
_chemical_formula_sum "Si O2"
_cell_formula_units_Z 84
_cell_length_a 18.482738
_cell_length_b 18.482738
_cell_length_c 15.624127
_cell_angle_alpha 90.000000
_cell_angle_beta 90.000000
_cell_angle_gamma 120.000000
_cell_volume 4622.309342
_symmetry_space_group_name_H-M "P 63 M C"
_symmetry_group_IT_number 186
_symmetry_cell_setting 'hexagonal'
loop_
_space_group_symop_operation_xyz
x,y,z
x-y,x,1/2+z
-y,x-y,z
-x,-y,1/2+z
-x+y,-x,z
y,-x+y,1/2+z
-x+y,y,z
x,x-y,z
-y,-x,z
y,x,1/2+z
x-y,-y,1/2+z
-x,-x+y,1/2+z
loop_
_atom_site_type_symbol
_atom_site_label
_atom_site_fract_x
_atom_site_fract_y
_atom_site_fract_z
Si Si1 0.405319 0.976750 0.610830
Si Si2 0.763579 0.066723 0.392682
Si Si3 0.504226 0.172149 0.613160
Si Si4 0.505546 0.173634 0.819221
Si Si5 0.173325 0.173339 0.544268
Si Si6 0.010247 0.587577 0.422503
Si Si7 0.762693 0.696171 0.195716
O O1 0.483631 0.967261 0.641752
O O2 0.325923 0.942291 0.671447
O O3 0.441664 0.075638 0.595128
O O4 0.382506 0.942989 0.514137
O O5 0.838876 0.161125 0.401589
O O6 0.782252 0.012914 0.461138
O O7 0.673711 0.056126 0.411608
O O8 0.763348 0.040695 0.293922
O O9 0.596475 0.192949 0.584740
O O10 0.482110 0.241055 0.581332
O O11 0.505721 0.175765 0.716553
O O12 0.598985 0.197969 0.846556
O O13 0.481679 0.240840 0.851400
O O14 0.446462 0.080461 0.850824
O O15 0.165857 0.082929 0.552917
O O16 0.217783 0.231061 0.627165
O O17 0.082593 0.165185 0.535868
O O18 0.977911 0.488956 0.417696
O O19 0.838352 0.676703 0.187076
#
# Coordination Sequence:
#
# PCOD9585387 Si02
#       7
#    12  12  12  12  12  12  12
#     4  10  20  34  53  78 107 142 182 223 270 324
#     4  10  21  37  57  81 110 147 188 229 277 331
#     4   9  17  29  47  73 104 135 166 204 255 313
#     4   9  17  29  47  73 104 135 166 204 255 313
#     4  10  21  38  59  84 114 148 186 232 283 338
#     4  10  20  34  53  78 107 142 182 223 270 324
#     4  10  21  37  57  81 110 147 188 229 277 331
#
# _framework density 18.172734999999999
#
# number of rings (size 3 to 8) (size 9 to 14) (size 15 to 20)
#    0.000    2.286    1.429    1.286    0.000    5.714 
#    0.000    0.000    0.000    2.286    0.000    0.000 
#    0.000    0.000    0.000    0.000    0.000    0.000 
#
# Total GULP energy -468330.714124 kJ/mol
# GULP energy per Si atom -5575.365644 kJ/mol
# Density = 1.813137 g / cm^3
# Si number density = 18.172735 Si / 1000 Ang^3
#
#
#
# Elastic Constant Matrix: (Units=GPa)
#
#
# Indices 1 2 3 4 5 6 
#
# 1 72.8853 58.7670 44.4519 0.0000 0.0000 0.0000
# 2 58.7670 72.8853 44.4519 0.0000 0.0000 0.0000
# 3 44.4519 44.4519 92.0530 0.0000 0.0000 0.0000
# 4 0.0000 0.0000 0.0000 19.7927 0.0000 0.0000
# 5 0.0000 0.0000 0.0000 0.0000 19.7927 0.0000
# 6 0.0000 0.0000 0.0000 0.0000 0.0000 7.0591
#
#
#
# Elastic Compliance Matrix: (Units=1/GPa)
#
#
# Indices 1 2 3 4 5 6 
#
# 1 0.041051 -0.029779 -0.005443 0.000000 0.000000 0.000000
# 2 -0.029779 0.041051 -0.005443 0.000000 0.000000 0.000000
# 3 -0.005443 -0.005443 0.016120 0.000000 0.000000 0.000000
# 4 0.000000 0.000000 0.000000 0.050524 0.000000 0.000000
# 5 0.000000 0.000000 0.000000 0.000000 0.050524 0.000000
# 6 0.000000 0.000000 0.000000 0.000000 0.000000 0.141660
#
#
# Mechanical properties :
#
#
# Convention : Reuss Voigt Hill
#
# Bulk Modulus (GPa) = 59.20264 59.24057 59.22160
# Shear Modulus (GPa) = 11.68526 15.33912 13.51219
#
# Velocity S-wave (km/s) = 2.53852 2.90845 2.72975
# Velocity P-wave (km/s) = 6.42188 6.62934 6.52643
#
# Compressibility (1/GPa) = 0.01689114
#
# Stress axis : x y z
#
# Youngs Moduli (GPa) = 24.36012 24.36012 62.03506
#
# Poissons Ratio (x) = 0.72543 0.33765
# Poissons Ratio (y) = 0.72543 0.33765
# Poissons Ratio (z) = 0.13259 0.13259
#
# Static dielectric constant tensor:
#      x y z
#    x 1.639180 0.000000 0.000000 
#    y 0.000000 1.639180 0.000000 
#    z 0.000000 0.000000 1.659740 
# 
# From -- ./inp_files/2553.got.cif
#   From: 2010.05.17/outbox.cif.g08.bks.cpg/sg186_2_cif.got.tgz:2553.got - 2010.05.20 12:07:08.
