data_PCOD9585374
_publ_section_title
;
Structure prediction by ZEFSAII (Michael W. Deem and Ramdas Pophale) SiO2 
 PCOD9585374
Probable space group: P 63 M C
;
_chemical_formula_sum "Si O2"
_cell_formula_units_Z 84
_cell_length_a 20.840749
_cell_length_b 20.840749
_cell_length_c 11.559318
_cell_angle_alpha 90.000000
_cell_angle_beta 90.000000
_cell_angle_gamma 120.000000
_cell_volume 4347.999539
_symmetry_space_group_name_H-M "P 63 M C"
_symmetry_group_IT_number 186
_symmetry_cell_setting 'hexagonal'
loop_
_space_group_symop_operation_xyz
x,y,z
x-y,x,1/2+z
-y,x-y,z
-x,-y,1/2+z
-x+y,-x,z
y,-x+y,1/2+z
-x+y,y,z
x,x-y,z
-y,-x,z
y,x,1/2+z
x-y,-y,1/2+z
-x,-x+y,1/2+z
loop_
_atom_site_type_symbol
_atom_site_label
_atom_site_fract_x
_atom_site_fract_y
_atom_site_fract_z
Si Si1 0.996824 0.783160 0.277410
Si Si2 0.117628 0.379303 0.232121
Si Si3 0.333292 0.809868 0.379839
Si Si4 0.120354 0.735222 0.817280
Si Si5 0.984503 0.639384 0.524280
Si Si6 0.513032 0.880992 0.615437
Si Si7 0.186332 0.962922 0.524914
O O1 0.925579 0.700716 0.277531
O O2 0.994993 0.815417 0.150574
O O3 0.068497 0.772542 0.278325
O O4 0.000400 0.819212 0.403122
O O5 0.193596 0.387191 0.185399
O O6 0.138962 0.442227 0.327045
O O7 0.069770 0.387705 0.133368
O O8 0.415281 0.830562 0.341736
O O9 0.273588 0.726413 0.346046
O O10 0.334975 0.818192 0.517849
O O11 0.199647 0.800354 0.861185
O O12 0.130569 0.690744 0.713317
O O13 0.066639 0.676454 0.911807
O O14 0.045128 0.615777 0.545678
O O15 0.022070 0.729301 0.524007
O O16 0.443681 0.887362 0.660789
O O17 0.122575 0.877426 0.522173
#
# Coordination Sequence:
#
# PCOD9585374 Si02
#       7
#    12  12  12  12  12  12  12
#     4  10  20  32  53  84 113 153 200 230 287 355
#     4  10  19  34  54  80 114 150 186 232 295 350
#     4  10  21  36  56  80 107 146 195 247 299 350
#     4  11  21  37  59  81 113 152 194 241 298 363
#     4  10  22  37  54  83 110 150 196 231 289 352
#     4  11  23  36  55  81 114 151 195 249 301 357
#     4  10  19  34  54  79 117 156 186 232 285 343
#
# _framework density 19.319230000000001
#
# number of rings (size 3 to 8) (size 9 to 14) (size 15 to 20)
#    0.000    1.714    2.857    3.571    0.000    2.857 
#    0.000    2.143    0.000    0.286    0.000    0.000 
#    0.000    0.000    0.000  872.143    0.000    0.000 
#
# Total GULP energy -468376.003559 kJ/mol
# GULP energy per Si atom -5575.904804 kJ/mol
# Density = 1.927526 g / cm^3
# Si number density = 19.319230 Si / 1000 Ang^3
#
#
#
# Elastic Constant Matrix: (Units=GPa)
#
#
# Indices 1 2 3 4 5 6 
#
# 1 57.2808 35.6594 11.7211 0.0000 0.0000 0.0000
# 2 35.6594 57.2808 11.7211 0.0000 0.0000 0.0000
# 3 11.7211 11.7211 111.9591 0.0000 0.0000 0.0000
# 4 0.0000 0.0000 0.0000 14.7997 0.0000 0.0000
# 5 0.0000 0.0000 0.0000 0.0000 14.7997 0.0000
# 6 0.0000 0.0000 0.0000 0.0000 0.0000 10.8107
#
#
#
# Elastic Compliance Matrix: (Units=1/GPa)
#
#
# Indices 1 2 3 4 5 6 
#
# 1 0.028651 -0.017600 -0.001157 0.000000 0.000000 0.000000
# 2 -0.017600 0.028651 -0.001157 0.000000 0.000000 0.000000
# 3 -0.001157 -0.001157 0.009174 0.000000 0.000000 0.000000
# 4 0.000000 0.000000 0.000000 0.067569 0.000000 0.000000
# 5 0.000000 0.000000 0.000000 0.000000 0.067569 0.000000
# 6 0.000000 0.000000 0.000000 0.000000 0.000000 0.092501
#
#
# Mechanical properties :
#
#
# Convention : Reuss Voigt Hill
#
# Bulk Modulus (GPa) = 37.52486 38.30267 37.91376
# Shear Modulus (GPa) = 14.58472 19.24331 16.91401
#
# Velocity S-wave (km/s) = 2.75058 3.15948 2.96210
# Velocity P-wave (km/s) = 5.43630 5.76012 5.60055
#
# Compressibility (1/GPa) = 0.02664900
#
# Stress axis : x y z
#
# Youngs Moduli (GPa) = 34.90284 34.90284 109.00272
#
# Poissons Ratio (x) = 0.61427 0.12611
# Poissons Ratio (y) = 0.61427 0.12611
# Poissons Ratio (z) = 0.04038 0.04038
#
# Static dielectric constant tensor:
#      x y z
#    x 1.677970 0.000000 0.000000 
#    y 0.000000 1.677970 0.000000 
#    z 0.000000 0.000000 1.742110 
# 
# From -- ./inp_files/1896.got.cif
#   From: 2010.05.17/outbox.cif.g08.bks.cpg/sg186_1_cif.got.tgz:1896.got - 2010.05.20 12:07:08.
