data_PCOD9585042
_publ_section_title
;
Structure prediction by ZEFSAII (Michael W. Deem and Ramdas Pophale) SiO2 
 PCOD9585042
Probable space group: P 6 M M
;
_chemical_formula_sum "Si O2"
_cell_formula_units_Z 72
_cell_length_a 22.743617
_cell_length_b 22.743617
_cell_length_c 10.210313
_cell_angle_alpha 90.000000
_cell_angle_beta 90.000000
_cell_angle_gamma 120.000000
_cell_volume 4573.921997
_symmetry_space_group_name_H-M "P 6 M M"
_symmetry_group_IT_number 183
_symmetry_cell_setting 'hexagonal'
loop_
_space_group_symop_operation_xyz
x,y,z
x-y,x,z
-y,x-y,z
-x,-y,z
-x+y,-x,z
y,-x+y,z
-x+y,y,z
x,x-y,z
-y,-x,z
y,x,z
x-y,-y,z
-x,-x+y,z
loop_
_atom_site_type_symbol
_atom_site_label
_atom_site_fract_x
_atom_site_fract_y
_atom_site_fract_z
Si Si1 0.209565 0.286756 0.359080
Si Si2 0.472545 0.667082 0.516681
Si Si3 0.209565 0.922809 0.674248
Si Si4 0.288130 0.849348 0.256452
Si Si5 0.610719 0.080866 0.016678
Si Si6 0.150650 0.438777 0.776905
O O1 0.131750 0.263500 0.327376
O O2 0.234921 0.234921 0.322116
O O3 0.217106 0.296776 0.516664
O O4 0.255727 0.359655 0.292854
O O5 0.453867 0.726934 0.516677
O O6 0.405814 0.594187 0.516679
O O7 0.517567 0.679009 0.387477
O O8 0.517563 0.679010 0.645890
O O9 0.131750 0.868251 0.705951
O O10 0.255726 0.896073 0.740479
O O11 0.234920 0.000000 0.711211
O O12 0.224565 0.775436 0.218991
O O13 0.342904 0.883610 0.143012
O O14 0.544998 0.089997 0.016667
O O15 0.582414 0.000000 0.016684
O O16 0.657102 0.116385 0.890348
O O17 0.224561 0.449121 0.814373
#
# Coordination Sequence:
#
# PCOD9585042 Si02
#       6
#    12  12  12  12  12  12
#     4   9  16  28  48  73  98 124 158 198 238 281
#     4  10  19  32  51  73  96 121 158 204 251 297
#     4   9  16  28  48  73  98 124 158 198 238 281
#     4  10  19  34  53  72  94 127 165 204 246 292
#     4  11  23  36  48  68 100 133 163 199 248 298
#     4  10  19  34  53  72  94 127 165 204 246 292
#
# _framework density 15.741415
#
# number of rings (size 3 to 8) (size 9 to 14) (size 15 to 20)
#    0.000    2.167    1.667    2.667    0.000    0.000 
#    0.000    0.000    0.000    9.000    0.000    2.333 
#    0.000    0.000    0.000    0.000    0.000   34.667 
#
# Total GULP energy -401590.397506 kJ/mol
# GULP energy per Si atom -5577.644410 kJ/mol
# Density = 1.570559 g / cm^3
# Si number density = 15.741415 Si / 1000 Ang^3
#
#
#
# Elastic Constant Matrix: (Units=GPa)
#
#
# Indices 1 2 3 4 5 6 
#
# 1 137.1579 92.5623 70.5631 0.0000 0.0000 0.0000
# 2 92.5623 137.1579 70.5631 0.0000 0.0000 0.0000
# 3 70.5631 70.5631 94.5760 0.0000 0.0000 0.0000
# 4 0.0000 0.0000 0.0000 14.7177 0.0000 0.0000
# 5 0.0000 0.0000 0.0000 0.0000 14.7177 0.0000
# 6 0.0000 0.0000 0.0000 0.0000 0.0000 22.2978
#
#
#
# Elastic Compliance Matrix: (Units=1/GPa)
#
#
# Indices 1 2 3 4 5 6 
#
# 1 0.015230 -0.007193 -0.005996 0.000000 0.000000 0.000000
# 2 -0.007193 0.015230 -0.005996 0.000000 0.000000 0.000000
# 3 -0.005996 -0.005996 0.019521 0.000000 0.000000 0.000000
# 4 0.000000 0.000000 0.000000 0.067945 0.000000 0.000000
# 5 0.000000 0.000000 0.000000 0.000000 0.067945 0.000000
# 6 0.000000 0.000000 0.000000 0.000000 0.000000 0.044847
#
#
# Mechanical properties :
#
#
# Convention : Reuss Voigt Hill
#
# Bulk Modulus (GPa) = 86.13477 92.91875 89.52676
# Shear Modulus (GPa) = 18.31757 19.36019 18.83888
#
# Velocity S-wave (km/s) = 3.41494 3.51078 3.46319
# Velocity P-wave (km/s) = 8.38966 8.69428 8.54333
#
# Compressibility (1/GPa) = 0.01160971
#
# Stress axis : x y z
#
# Youngs Moduli (GPa) = 65.65845 65.65845 51.22620
#
# Poissons Ratio (x) = 0.47231 0.30717
# Poissons Ratio (y) = 0.47231 0.30717
# Poissons Ratio (z) = 0.39371 0.39371
#
# Static dielectric constant tensor:
#      x y z
#    x 1.509600 0.000000 0.000000 
#    y 0.000000 1.509600 0.000000 
#    z 0.000000 0.000000 1.508770 
# 
# From -- ./inp_files/1168.got.cif
#   From: 2010.05.17/outbox.cif.g08.bks.cpg/sg183_1_cif.got.tgz:1168.got - 2010.05.20 12:02:58.
