data_PCOD9585879
_publ_section_title
;
Structure prediction by ZEFSAII (Michael W. Deem and Ramdas Pophale) SiO2 
 PCOD9585879
Probable space group: P -6 C 2
;
_chemical_formula_sum "Si O2"
_cell_formula_units_Z 72
_cell_length_a 24.737662
_cell_length_b 24.737662
_cell_length_c 8.912273
_cell_angle_alpha 90.000000
_cell_angle_beta 90.000000
_cell_angle_gamma 120.000000
_cell_volume 4723.200868
_symmetry_space_group_name_H-M "P -6 C 2"
_symmetry_group_IT_number 188
_symmetry_cell_setting 'hexagonal'
loop_
_space_group_symop_operation_xyz
x,y,z
-x+y,-x,1/2-z
-y,x-y,z
x,y,1/2-z
-x+y,-x,z
-y,x-y,1/2-z
-y,-x,-z
-x+y,y,-z
x,x-y,-z
-x+y,y,1/2+z
x,x-y,1/2+z
-y,-x,1/2+z
loop_
_atom_site_type_symbol
_atom_site_label
_atom_site_fract_x
_atom_site_fract_y
_atom_site_fract_z
Si Si1 0.407468 0.146536 0.570378
Si Si2 0.342112 0.339044 0.066855
Si Si3 0.218829 0.329103 0.420732
Si Si4 0.408077 0.476531 0.570251
Si Si5 0.781541 0.446996 0.070301
Si Si6 0.296047 0.480958 0.423207
O O1 0.403863 0.149601 0.750000
O O2 0.388732 0.194366 0.500000
O O3 0.367353 0.074510 0.525334
O O4 0.480337 0.172797 0.532383
O O5 0.344342 0.345931 0.250000
O O6 0.270654 0.313971 0.017168
O O7 0.383798 0.407347 0.995381
O O8 0.206179 0.307716 0.250000
O O9 0.153548 0.307096 0.500000
O O10 0.255621 0.405040 0.421448
O O11 0.410396 0.476221 0.750000
O O12 0.474244 0.525757 0.500000
O O13 0.357741 0.496176 0.514814
O O14 0.776575 0.440333 0.250000
O O15 0.714808 0.429616 0.000000
O O16 0.803022 0.401511 0.000000
O O17 0.310491 0.501407 0.250000
O O18 0.251462 0.502923 0.500000
#
# Coordination Sequence:
#
# PCOD9585879 Si02
#       6
#    12  12  12  12  12  12
#     4   9  19  34  50  66  88 117 151 187 228 278
#     4   9  18  33  48  65  90 120 150 185 227 272
#     4   8  14  24  41  63  88 112 136 166 202 242
#     4  11  21  32  46  66  91 120 153 193 238 284
#     4  10  19  31  46  63  81 104 137 183 234 285
#     4   9  16  28  45  65  87 113 144 178 216 263
#
# _framework density 15.2439
#
# number of rings (size 3 to 8) (size 9 to 14) (size 15 to 20)
#    0.000    2.667    0.000    3.667    0.000    6.000 
#    0.000    1.667    0.000    0.333    0.000    2.333 
#    0.000    0.000    0.000    0.500    0.000    6.000 
#
# Total GULP energy -401165.010084 kJ/mol
# GULP energy per Si atom -5571.736251 kJ/mol
# Density = 1.520920 g / cm^3
# Si number density = 15.243900 Si / 1000 Ang^3
#
#
#
# Elastic Constant Matrix: (Units=GPa)
#
#
# Indices 1 2 3 4 5 6 
#
# 1 90.0479 67.6004 37.0426 0.0002 0.0000 0.0000
# 2 67.6004 90.0479 37.0426 -0.0002 0.0000 0.0000
# 3 37.0426 37.0426 62.7502 0.0000 0.0000 0.0000
# 4 0.0002 -0.0002 0.0000 19.3805 0.0000 0.0000
# 5 0.0000 0.0000 0.0000 0.0000 19.3805 0.0002
# 6 0.0000 0.0000 0.0000 0.0000 0.0002 11.2237
#
#
#
# Elastic Compliance Matrix: (Units=1/GPa)
#
#
# Indices 1 2 3 4 5 6 
#
# 1 0.026663 -0.017885 -0.005182 0.000000 0.000000 0.000000
# 2 -0.017885 0.026663 -0.005182 0.000000 0.000000 0.000000
# 3 -0.005182 -0.005182 0.022054 0.000000 0.000000 0.000000
# 4 0.000000 0.000000 0.000000 0.051598 0.000000 0.000000
# 5 0.000000 0.000000 0.000000 0.000000 0.051598 -0.000001
# 6 0.000000 0.000000 0.000000 0.000000 -0.000001 0.089097
#
#
# Mechanical properties :
#
#
# Convention : Reuss Voigt Hill
#
# Bulk Modulus (GPa) = 52.95778 58.46857 55.71317
# Shear Modulus (GPa) = 15.13008 16.74096 15.93552
#
# Velocity S-wave (km/s) = 3.15387 3.31752 3.23673
# Velocity P-wave (km/s) = 6.93385 7.28788 7.11307
#
# Compressibility (1/GPa) = 0.01888297
#
# Stress axis : x y z
#
# Youngs Moduli (GPa) = 37.50451 37.50451 45.34241
#
# Poissons Ratio (x) = 0.67077 0.23497
# Poissons Ratio (y) = 0.67077 0.23497
# Poissons Ratio (z) = 0.19435 0.19435
#
# Static dielectric constant tensor:
#      x y z
#    x 1.504880 0.000000 0.000000 
#    y 0.000000 1.504880 0.000000 
#    z 0.000000 0.000000 1.518300 
# 
# From -- ./inp_files/1013.got.cif
#   From: 2010.05.17/outbox.cif.g08.bks.cpg/sg188_1_cif.got.tgz:1013.got - 2010.05.20 12:11:46.
