data_PCOD9585248
_publ_section_title
;
Structure prediction by ZEFSAII (Michael W. Deem and Ramdas Pophale) SiO2 
 PCOD9585248
Probable space group: P 63 C M
;
_chemical_formula_sum "Si O2"
_cell_formula_units_Z 72
_cell_length_a 24.268286
_cell_length_b 24.268286
_cell_length_c 8.710594
_cell_angle_alpha 90.000000
_cell_angle_beta 90.000000
_cell_angle_gamma 120.000000
_cell_volume 4442.798457
_symmetry_space_group_name_H-M "P 63 C M"
_symmetry_group_IT_number 185
_symmetry_cell_setting 'hexagonal'
loop_
_space_group_symop_operation_xyz
x,y,z
x-y,x,1/2+z
-y,x-y,z
-x,-y,1/2+z
-x+y,-x,z
y,-x+y,1/2+z
-x+y,y,1/2+z
x,x-y,1/2+z
-y,-x,1/2+z
y,x,z
x-y,-y,z
-x,-x+y,z
loop_
_atom_site_type_symbol
_atom_site_label
_atom_site_fract_x
_atom_site_fract_y
_atom_site_fract_z
Si Si1 0.856600 0.594044 0.522120
Si Si2 0.405956 0.143400 0.655234
Si Si3 0.735136 0.926384 0.022761
Si Si4 0.597633 0.522899 0.154979
Si Si5 0.522899 0.597633 0.522375
Si Si6 0.735136 0.808752 0.154593
O O1 0.787393 0.574785 0.588677
O O2 0.855046 0.595109 0.338677
O O3 0.882811 0.549137 0.580976
O O4 0.902878 0.665473 0.584413
O O5 0.334527 0.097122 0.592941
O O6 0.450863 0.117189 0.596379
O O7 0.756603 0.878302 0.088677
O O8 0.781953 0.000000 0.060046
O O9 0.728822 0.919562 0.838677
O O10 0.571176 0.571176 0.120119
O O11 0.544978 0.455022 0.088677
O O12 0.601439 0.519422 0.338677
O O13 0.571176 0.571176 0.557235
O O14 0.781953 0.781953 0.117308
#
# Coordination Sequence:
#
# PCOD9585248 Si02
#       6
#    12  12  12  12  12  12
#     4  11  21  33  51  74 101 133 167 204 247 293
#     4  11  21  33  51  74 101 133 167 204 247 293
#     4  10  20  33  50  73 100 130 164 203 247 295
#     4  10  20  34  52  75 103 133 166 204 246 293
#     4  10  20  34  52  75 103 133 166 204 246 293
#     4  10  20  33  50  73 100 130 164 203 247 295
#
# _framework density 16.206002000000002
#
# number of rings (size 3 to 8) (size 9 to 14) (size 15 to 20)
#    0.000    1.667    0.000    8.000    0.000    8.667 
#    0.000    0.000    0.000    1.000    0.000    4.667 
#    0.000    0.000    0.000    0.000    0.000    0.000 
#
# Total GULP energy -402195.385584 kJ/mol
# GULP energy per Si atom -5586.047022 kJ/mol
# Density = 1.616912 g / cm^3
# Si number density = 16.206002 Si / 1000 Ang^3
#
#
#
# Elastic Constant Matrix: (Units=GPa)
#
#
# Indices 1 2 3 4 5 6 
#
# 1 142.2362 98.9572 74.2022 0.0000 0.0000 0.0000
# 2 98.9572 142.2362 74.2022 0.0000 0.0000 0.0000
# 3 74.2022 74.2022 113.1030 0.0000 0.0000 0.0000
# 4 0.0000 0.0000 0.0000 27.7712 0.0000 0.0000
# 5 0.0000 0.0000 0.0000 0.0000 27.7712 0.0000
# 6 0.0000 0.0000 0.0000 0.0000 0.0000 21.6395
#
#
#
# Elastic Compliance Matrix: (Units=1/GPa)
#
#
# Indices 1 2 3 4 5 6 
#
# 1 0.015029 -0.008077 -0.004561 0.000000 0.000000 0.000000
# 2 -0.008077 0.015029 -0.004561 0.000000 0.000000 0.000000
# 3 -0.004561 -0.004561 0.014826 0.000000 0.000000 0.000000
# 4 0.000000 0.000000 0.000000 0.036008 0.000000 0.000000
# 5 0.000000 0.000000 0.000000 0.000000 0.036008 0.000000
# 6 0.000000 0.000000 0.000000 0.000000 0.000000 0.046212
#
#
# Mechanical properties :
#
#
# Convention : Reuss Voigt Hill
#
# Bulk Modulus (GPa) = 95.36142 99.14427 97.25285
# Shear Modulus (GPa) = 24.87467 25.45065 25.16266
#
# Velocity S-wave (km/s) = 3.92204 3.96718 3.94467
# Velocity P-wave (km/s) = 8.91520 9.07166 8.99377
#
# Compressibility (1/GPa) = 0.01048642
#
# Stress axis : x y z
#
# Youngs Moduli (GPa) = 66.53692 66.53692 67.44706
#
# Poissons Ratio (x) = 0.53740 0.30765
# Poissons Ratio (y) = 0.53740 0.30765
# Poissons Ratio (z) = 0.30349 0.30349
#
# Static dielectric constant tensor:
#      x y z
#    x 1.524770 0.000000 0.000000 
#    y 0.000000 1.524770 0.000000 
#    z 0.000000 0.000000 1.539370 
# 
# From -- ./inp_files/638.got.cif
#   From: 2010.05.17/outbox.cif.g08.bks.cpg/sg185_cif.got.tgz:638.got - 2010.05.20 12:05:34.
