data_PCOD9585606
_publ_section_title
;
Structure prediction by ZEFSAII (Michael W. Deem and Ramdas Pophale) SiO2 
 PCOD9585606
Probable space group: P -6 M 2
;
_chemical_formula_sum "Si O2"
_cell_formula_units_Z 72
_cell_length_a 12.783196
_cell_length_b 12.783196
_cell_length_c 31.410003
_cell_angle_alpha 90.000000
_cell_angle_beta 90.000000
_cell_angle_gamma 120.000000
_cell_volume 4445.058749
_symmetry_space_group_name_H-M "P -6 M 2"
_symmetry_group_IT_number 187
_symmetry_cell_setting 'hexagonal'
loop_
_space_group_symop_operation_xyz
x,y,z
-x+y,-x,-z
-y,x-y,z
x,y,-z
-x+y,-x,z
-y,x-y,-z
-y,-x,-z
-x+y,y,-z
x,x-y,-z
-x+y,y,z
x,x-y,z
-y,-x,z
loop_
_atom_site_type_symbol
_atom_site_label
_atom_site_fract_x
_atom_site_fract_y
_atom_site_fract_z
Si Si1 0.085796 0.418866 0.675431
Si Si2 0.999303 0.247647 0.754707
Si Si3 0.084136 0.418199 0.081785
Si Si4 0.417512 0.333859 0.000000
Si Si5 0.417703 0.333217 0.836390
Si Si6 0.581511 0.914914 0.578442
Si Si7 0.249307 0.248061 0.500000
O O1 0.224589 0.449178 0.678396
O O2 0.079128 0.539564 0.682340
O O3 0.013494 0.320081 0.711205
O O4 0.045220 0.375610 0.626963
O O5 0.123904 0.247808 0.761820
O O6 0.971607 0.311413 0.793774
O O7 0.887730 0.112271 0.751673
O O8 0.205068 0.410135 0.080751
O O9 0.115516 0.557758 0.080420
O O10 0.998023 0.353375 0.041464
O O11 0.006332 0.360310 0.124351
O O12 0.556763 0.443238 0.000000
O O13 0.411536 0.205768 0.000000
O O14 0.425410 0.212705 0.844343
O O15 0.550813 0.449188 0.831867
O O16 0.457603 0.915206 0.572508
O O17 0.557235 0.778618 0.574262
O O18 0.676181 0.991279 0.542147
O O19 0.242738 0.121369 0.500000
O O20 0.115723 0.231445 0.500000
#
# Coordination Sequence:
#
# PCOD9585606 Si02
#       7
#    12  12  12   6  12  12   6
#     4   9  17  30  49  73  98 122 151 191 241 290
#     4  10  20  33  49  70  98 132 167 200 235 280
#     4  10  20  34  53  76 102 131 163 201 245 293
#     4  10  20  34  54  78 104 134 168 208 250 292
#     4  10  20  34  53  75  99 128 163 205 249 292
#     4   9  17  30  50  74  96 118 148 192 243 289
#     4  10  20  32  46  66  94 128 162 194 230 276
#
# _framework density 16.197761
#
# number of rings (size 3 to 8) (size 9 to 14) (size 15 to 20)
#    0.000    2.333    0.000    3.000    0.000    2.000 
#    0.000    3.333    0.000   14.667    0.000    0.000 
#    0.000    0.000    0.000    0.000    0.000    0.000 
#
# Total GULP energy -401629.936814 kJ/mol
# GULP energy per Si atom -5578.193567 kJ/mol
# Density = 1.616089 g / cm^3
# Si number density = 16.197761 Si / 1000 Ang^3
#
#
#
# Elastic Constant Matrix: (Units=GPa)
#
#
# Indices 1 2 3 4 5 6 
#
# 1 111.0795 70.8861 80.7176 0.0000 0.0004 0.0000
# 2 70.8861 111.0795 80.7176 0.0000 -0.0004 0.0000
# 3 80.7176 80.7176 137.3378 0.0000 0.0000 0.0000
# 4 0.0000 0.0000 0.0000 22.6803 0.0000 -0.0004
# 5 0.0004 -0.0004 0.0000 0.0000 22.6803 0.0000
# 6 0.0000 0.0000 0.0000 -0.0004 0.0000 20.0967
#
#
#
# Elastic Compliance Matrix: (Units=1/GPa)
#
#
# Indices 1 2 3 4 5 6 
#
# 1 0.018181 -0.006698 -0.006749 0.000000 0.000000 0.000000
# 2 -0.006698 0.018181 -0.006749 0.000000 0.000000 0.000000
# 3 -0.006749 -0.006749 0.015214 0.000000 0.000000 0.000000
# 4 0.000000 0.000000 0.000000 0.044091 0.000000 0.000001
# 5 0.000000 0.000000 0.000000 0.000000 0.044091 0.000000
# 6 0.000000 0.000000 0.000000 0.000001 0.000000 0.049759
#
#
# Mechanical properties :
#
#
# Convention : Reuss Voigt Hill
#
# Bulk Modulus (GPa) = 89.40736 91.57105 90.48920
# Shear Modulus (GPa) = 21.40050 21.56982 21.48516
#
# Velocity S-wave (km/s) = 3.63878 3.65314 3.64597
# Velocity P-wave (km/s) = 8.54233 8.62843 8.58549
#
# Compressibility (1/GPa) = 0.01118476
#
# Stress axis : x y z
#
# Youngs Moduli (GPa) = 55.00139 55.00139 65.72713
#
# Poissons Ratio (x) = 0.36842 0.44359
# Poissons Ratio (y) = 0.36842 0.44359
# Poissons Ratio (z) = 0.37120 0.37120
#
# Static dielectric constant tensor:
#      x y z
#    x 1.510410 0.000000 0.000000 
#    y 0.000000 1.510410 0.000000 
#    z 0.000000 0.000000 1.544430 
# 
# From -- ./inp_files/4519.got.cif
#   From: 2010.05.17/outbox.cif.g08.bks.cpg/sg187_3_cif.got.tgz:4519.got - 2010.05.20 12:09:04.
