data_PCOD9585395
_publ_section_title
;
Structure prediction by ZEFSAII (Michael W. Deem and Ramdas Pophale) SiO2 
 PCOD9585395
Probable space group: P 63 M C
;
_chemical_formula_sum "Si O2"
_cell_formula_units_Z 84
_cell_length_a 18.272253
_cell_length_b 18.272253
_cell_length_c 14.181460
_cell_angle_alpha 90.000000
_cell_angle_beta 90.000000
_cell_angle_gamma 120.000000
_cell_volume 4100.490177
_symmetry_space_group_name_H-M "P 63 M C"
_symmetry_group_IT_number 186
_symmetry_cell_setting 'hexagonal'
loop_
_space_group_symop_operation_xyz
x,y,z
x-y,x,1/2+z
-y,x-y,z
-x,-y,1/2+z
-x+y,-x,z
y,-x+y,1/2+z
-x+y,y,z
x,x-y,z
-y,-x,z
y,x,1/2+z
x-y,-y,1/2+z
-x,-x+y,1/2+z
loop_
_atom_site_type_symbol
_atom_site_label
_atom_site_fract_x
_atom_site_fract_y
_atom_site_fract_z
Si Si1 0.829222 0.000558 0.937870
Si Si2 0.953472 0.274671 0.795090
Si Si3 0.171195 0.665543 0.993050
Si Si4 0.632538 0.529805 0.086762
Si Si5 0.171279 0.503992 0.381006
Si Si6 0.675983 0.953854 0.078428
Si Si7 0.438095 0.301205 0.288528
O O1 0.836989 0.918495 0.913055
O O2 0.791962 0.032373 0.853944
O O3 0.757852 0.972416 0.018979
O O4 0.919908 0.080093 0.965633
O O5 0.885332 0.295958 0.839033
O O6 0.933226 0.249699 0.686316
O O7 0.041902 0.362498 0.798022
O O8 0.145737 0.572869 0.028724
O O9 0.268631 0.731370 0.013417
O O10 0.158287 0.662317 0.880161
O O11 0.117593 0.706139 0.033756
O O12 0.531150 0.468851 0.086030
O O13 0.664966 0.628700 0.077343
O O14 0.664661 0.518074 0.187864
O O15 0.664732 0.504241 0.994314
O O16 0.267577 0.535154 0.355832
O O17 0.144595 0.572298 0.350162
O O18 0.402082 0.201041 0.290544
#
# Coordination Sequence:
#
# PCOD9585395 Si02
#       7
#    12  12  12  12  12  12  12
#     4  12  26  47  72 101 132 165 206 260 328 398
#     4  11  24  42  68  96 128 169 218 266 320 382
#     4  11  22  38  60  90 130 176 223 269 319 376
#     4  10  20  35  61  97 133 172 218 267 322 380
#     4  11  23  40  62  93 132 176 222 271 326 385
#     4  11  24  42  67  96 130 168 215 266 318 377
#     4  10  20  36  61  93 131 170 214 271 330 384
#
# _framework density 20.485354999999998
#
# number of rings (size 3 to 8) (size 9 to 14) (size 15 to 20)
#    0.000    1.143    2.857    3.000    0.000    9.714 
#    0.000    0.000    0.000    8.000    0.000    0.000 
#    0.000    0.000    0.000    0.000    0.000    0.000 
#
# Total GULP energy -469279.156019 kJ/mol
# GULP energy per Si atom -5586.656619 kJ/mol
# Density = 2.043873 g / cm^3
# Si number density = 20.485355 Si / 1000 Ang^3
#
#
#
# Elastic Constant Matrix: (Units=GPa)
#
#
# Indices 1 2 3 4 5 6 
#
# 1 114.8532 62.7122 41.1171 0.0000 0.0000 0.0000
# 2 62.7122 114.8532 41.1171 0.0000 0.0000 0.0000
# 3 41.1171 41.1171 112.6549 0.0000 0.0000 0.0000
# 4 0.0000 0.0000 0.0000 7.9300 0.0000 0.0000
# 5 0.0000 0.0000 0.0000 0.0000 7.9300 0.0000
# 6 0.0000 0.0000 0.0000 0.0000 0.0000 26.0705
#
#
#
# Elastic Compliance Matrix: (Units=1/GPa)
#
#
# Indices 1 2 3 4 5 6 
#
# 1 0.012978 -0.006201 -0.002474 0.000000 0.000000 0.000000
# 2 -0.006201 0.012978 -0.002474 0.000000 0.000000 0.000000
# 3 -0.002474 -0.002474 0.010682 0.000000 0.000000 0.000000
# 4 0.000000 0.000000 0.000000 0.126104 0.000000 0.000000
# 5 0.000000 0.000000 0.000000 0.000000 0.126104 0.000000
# 6 0.000000 0.000000 0.000000 0.000000 0.000000 0.038358
#
#
# Mechanical properties :
#
#
# Convention : Reuss Voigt Hill
#
# Bulk Modulus (GPa) = 69.72278 70.25048 69.98663
# Shear Modulus (GPa) = 14.11313 21.54706 17.83010
#
# Velocity S-wave (km/s) = 2.62761 3.24671 2.95343
# Velocity P-wave (km/s) = 6.58142 6.95861 6.77264
#
# Compressibility (1/GPa) = 0.01434251
#
# Stress axis : x y z
#
# Youngs Moduli (GPa) = 77.05318 77.05318 93.61263
#
# Poissons Ratio (x) = 0.47779 0.23156
# Poissons Ratio (y) = 0.47779 0.23156
# Poissons Ratio (z) = 0.19060 0.19060
#
# Static dielectric constant tensor:
#      x y z
#    x 1.723530 0.000000 0.000000 
#    y 0.000000 1.723530 0.000000 
#    z 0.000000 0.000000 1.730230 
# 
# From -- ./inp_files/2567.got.cif
#   From: 2010.05.17/outbox.cif.g08.bks.cpg/sg186_2_cif.got.tgz:2567.got - 2010.05.20 12:07:08.
