data_PCOD9585679
_publ_section_title
;
Structure prediction by ZEFSAII (Michael W. Deem and Ramdas Pophale) SiO2 
 PCOD9585679
Probable space group: P -6 M 2
;
_chemical_formula_sum "Si O2"
_cell_formula_units_Z 66
_cell_length_a 12.693660
_cell_length_b 12.693660
_cell_length_c 28.777963
_cell_angle_alpha 90.000000
_cell_angle_beta 90.000000
_cell_angle_gamma 120.000000
_cell_volume 4015.729072
_symmetry_space_group_name_H-M "P -6 M 2"
_symmetry_group_IT_number 187
_symmetry_cell_setting 'hexagonal'
loop_
_space_group_symop_operation_xyz
x,y,z
-x+y,-x,-z
-y,x-y,z
x,y,-z
-x+y,-x,z
-y,x-y,-z
-y,-x,-z
-x+y,y,-z
x,x-y,-z
-x+y,y,z
x,x-y,z
-y,-x,z
loop_
_atom_site_type_symbol
_atom_site_label
_atom_site_fract_x
_atom_site_fract_y
_atom_site_fract_z
Si Si1 0.000581 0.749717 0.000000
Si Si2 0.333407 0.417020 0.446719
Si Si3 0.915699 0.333046 0.639694
Si Si4 0.000497 0.749956 0.180441
Si Si5 0.082854 0.667112 0.090427
Si Si6 0.083168 0.666572 0.729530
O O1 0.020341 0.688062 0.954524
O O2 0.109939 0.890062 0.000000
O O3 0.871425 0.742851 0.000000
O O4 0.336608 0.379425 0.500000
O O5 0.206581 0.413161 0.439244
O O6 0.444514 0.555487 0.441744
O O7 0.356214 0.340159 0.408295
O O8 0.886851 0.443426 0.638679
O O9 0.794299 0.205702 0.645460
O O10 0.007185 0.360909 0.682538
O O11 0.109986 0.890015 0.178870
O O12 0.021300 0.684375 0.136440
O O13 0.018709 0.692199 0.227372
O O14 0.871340 0.742680 0.178870
O O15 0.076839 0.538420 0.089388
O O16 0.222938 0.777063 0.090465
O O17 0.090753 0.545377 0.737930
O O18 0.217211 0.782790 0.724956
#
# Coordination Sequence:
#
# PCOD9585679 Si02
#       6
#     6  12  12  12  12  12
#     4  10  20  34  54  78 104 134 168 208 252 300
#     4   9  17  30  50  75 100 126 158 200 249 296
#     4  10  20  33  49  70  98 132 167 201 239 287
#     4  10  20  34  53  76 103 135 169 205 244 290
#     4  10  20  34  54  78 104 134 168 210 256 300
#     4  10  20  34  54  78 102 128 160 203 252 298
#
# _framework density 16.435371
#
# number of rings (size 3 to 8) (size 9 to 14) (size 15 to 20)
#    0.000    2.182    0.000    3.455    0.000    1.091 
#    0.000    6.364    0.000   14.909    0.000    0.000 
#    0.000    0.000    0.000    0.000    0.000    0.000 
#
# Total GULP energy -368362.156456 kJ/mol
# GULP energy per Si atom -5581.244795 kJ/mol
# Density = 1.639796 g / cm^3
# Si number density = 16.435371 Si / 1000 Ang^3
#
#
#
# Elastic Constant Matrix: (Units=GPa)
#
#
# Indices 1 2 3 4 5 6 
#
# 1 125.4368 88.7529 75.8639 0.0000 0.0003 0.0000
# 2 88.7529 125.4368 75.8639 0.0000 -0.0003 0.0000
# 3 75.8639 75.8639 125.5639 0.0000 0.0000 0.0000
# 4 0.0000 0.0000 0.0000 14.0374 0.0000 -0.0003
# 5 0.0003 -0.0003 0.0000 0.0000 14.0374 0.0000
# 6 0.0000 0.0000 0.0000 -0.0003 0.0000 18.3419
#
#
#
# Elastic Compliance Matrix: (Units=1/GPa)
#
#
# Indices 1 2 3 4 5 6 
#
# 1 0.017711 -0.009549 -0.004931 0.000000 -0.000001 0.000000
# 2 -0.009549 0.017711 -0.004931 0.000000 0.000001 0.000000
# 3 -0.004931 -0.004931 0.013923 0.000000 0.000000 0.000000
# 4 0.000000 0.000000 0.000000 0.071238 0.000000 0.000001
# 5 -0.000001 0.000001 0.000000 0.000000 0.071238 0.000000
# 6 0.000000 0.000000 0.000000 0.000001 0.000000 0.054520
#
#
# Mechanical properties :
#
#
# Convention : Reuss Voigt Hill
#
# Bulk Modulus (GPa) = 95.04298 95.26658 95.15478
# Shear Modulus (GPa) = 17.32069 18.34713 17.83391
#
# Velocity S-wave (km/s) = 3.24985 3.34476 3.29765
# Velocity P-wave (km/s) = 8.48740 8.54440 8.51595
#
# Compressibility (1/GPa) = 0.01052156
#
# Stress axis : x y z
#
# Youngs Moduli (GPa) = 56.46209 56.46209 71.82336
#
# Poissons Ratio (x) = 0.53915 0.35419
# Poissons Ratio (y) = 0.53915 0.35419
# Poissons Ratio (z) = 0.27844 0.27844
#
# Static dielectric constant tensor:
#      x y z
#    x 1.517280 0.000000 0.000000 
#    y 0.000000 1.517280 0.000000 
#    z 0.000000 0.000000 1.551280 
# 
# From -- ./inp_files/4386.got.cif
#   From: 2010.05.17/outbox.cif.g08.bks.cpg/sg187_3_cif.got.tgz:4386.got - 2010.05.20 12:09:04.
