data_PCOD9585239
_publ_section_title
;
Structure prediction by ZEFSAII (Michael W. Deem and Ramdas Pophale) SiO2 
 PCOD9585239
Probable space group: P 63 C M
;
_chemical_formula_sum "Si O2"
_cell_formula_units_Z 96
_cell_length_a 14.006803
_cell_length_b 14.006803
_cell_length_c 28.334005
_cell_angle_alpha 90.000000
_cell_angle_beta 90.000000
_cell_angle_gamma 120.000000
_cell_volume 4814.116978
_symmetry_space_group_name_H-M "P 63 C M"
_symmetry_group_IT_number 185
_symmetry_cell_setting 'hexagonal'
loop_
_space_group_symop_operation_xyz
x,y,z
x-y,x,1/2+z
-y,x-y,z
-x,-y,1/2+z
-x+y,-x,z
y,-x+y,1/2+z
-x+y,y,1/2+z
x,x-y,1/2+z
-y,-x,1/2+z
y,x,z
x-y,-y,z
-x,-x+y,z
loop_
_atom_site_type_symbol
_atom_site_label
_atom_site_fract_x
_atom_site_fract_y
_atom_site_fract_z
Si Si1 0.209596 0.872222 0.401280
Si Si2 0.411994 0.285839 0.318801
Si Si3 0.209596 0.872222 0.657144
Si Si4 0.696375 0.132983 0.476057
Si Si5 0.129369 0.564551 0.167354
Si Si6 0.129369 0.564551 0.891070
Si Si7 0.303625 0.436608 0.582366
Si Si8 0.126156 0.411994 0.239622
O O1 0.128630 0.795325 0.360365
O O2 0.165365 0.812204 0.451305
O O3 0.319930 0.865105 0.391613
O O4 0.244908 0.000000 0.400158
O O5 0.360998 0.360998 0.301195
O O6 0.529979 0.360975 0.344384
O O7 0.417613 0.208806 0.279212
O O8 0.319930 0.865105 0.666811
O O9 0.165365 0.812204 0.607118
O O10 0.128630 0.795325 0.698059
O O11 0.244908 0.000000 0.658266
O O12 0.635184 0.172967 0.439096
O O13 0.708126 0.176040 0.529212
O O14 0.624105 0.000000 0.478434
O O15 0.172967 0.537784 0.119327
O O16 0.169003 0.529979 0.214039
O O17 0.000000 0.474567 0.167704
O O18 0.000000 0.474567 0.890719
O O19 0.375895 0.375895 0.579990
O O20 0.000000 0.360998 0.257228
#
# Coordination Sequence:
#
# PCOD9585239 Si02
#       8
#    12  12  12  12  12  12  12  12
#     4  10  19  33  55  79 106 140 177 218 262 315
#     4  10  20  36  57  79 106 139 175 216 263 316
#     4  10  19  33  55  79 106 140 177 218 262 315
#     4   9  18  34  54  75 106 144 176 214 264 312
#     4   8  17  33  51  74 104 135 170 213 260 308
#     4   8  17  33  51  74 104 135 170 213 260 308
#     4   9  18  34  54  75 106 144 176 214 264 312
#     4  10  20  36  57  79 106 139 175 216 263 316
#
# _framework density 19.94135
#
# number of rings (size 3 to 8) (size 9 to 14) (size 15 to 20)
#    0.000    2.750    0.000    3.000    0.000    2.500 
#   12.000    6.250    0.000    9.500    0.000    0.000 
#    0.000    0.000    0.000    0.000    0.000    0.000 
#
# Total GULP energy -535179.946773 kJ/mol
# GULP energy per Si atom -5574.791112 kJ/mol
# Density = 1.989596 g / cm^3
# Si number density = 19.941350 Si / 1000 Ang^3
#
#
#
# Elastic Constant Matrix: (Units=GPa)
#
#
# Indices 1 2 3 4 5 6 
#
# 1 48.3983 2.3040 22.8572 0.0000 0.0000 0.0000
# 2 2.3040 48.3983 22.8572 0.0000 0.0000 0.0000
# 3 22.8572 22.8572 122.0416 0.0000 0.0000 0.0000
# 4 0.0000 0.0000 0.0000 17.4383 0.0000 0.0000
# 5 0.0000 0.0000 0.0000 0.0000 17.4383 0.0000
# 6 0.0000 0.0000 0.0000 0.0000 0.0000 23.0472
#
#
#
# Elastic Compliance Matrix: (Units=1/GPa)
#
#
# Indices 1 2 3 4 5 6 
#
# 1 0.022712 0.001018 -0.004444 0.000000 0.000000 0.000000
# 2 0.001018 0.022712 -0.004444 0.000000 0.000000 0.000000
# 3 -0.004444 -0.004444 0.009859 0.000000 0.000000 0.000000
# 4 0.000000 0.000000 0.000000 0.057345 0.000000 0.000000
# 5 0.000000 0.000000 0.000000 0.000000 0.057345 0.000000
# 6 0.000000 0.000000 0.000000 0.000000 0.000000 0.043389
#
#
# Mechanical properties :
#
#
# Convention : Reuss Voigt Hill
#
# Bulk Modulus (GPa) = 25.28997 34.98609 30.13803
# Shear Modulus (GPa) = 20.63680 22.97274 21.80477
#
# Velocity S-wave (km/s) = 3.22044 3.39782 3.31032
# Velocity P-wave (km/s) = 5.15150 5.74248 5.45500
#
# Compressibility (1/GPa) = 0.03954137
#
# Stress axis : x y z
#
# Youngs Moduli (GPa) = 44.02880 44.02880 101.43312
#
# Poissons Ratio (x) = -0.04481 0.45081
# Poissons Ratio (y) = -0.04481 0.45081
# Poissons Ratio (z) = 0.19568 0.19568
#
# Static dielectric constant tensor:
#      x y z
#    x 1.731410 0.000000 0.000000 
#    y 0.000000 1.731410 0.000000 
#    z 0.000000 0.000000 1.738770 
# 
# From -- ./inp_files/2177.got.cif
#   From: 2010.05.17/outbox.cif.g08.bks.cpg/sg185_cif.got.tgz:2177.got - 2010.05.20 12:05:34.
