data_PCOD9585180
_publ_section_title
;
Structure prediction by ZEFSAII (Michael W. Deem and Ramdas Pophale) SiO2 
 PCOD9585180
Probable space group: P 6 C C
;
_chemical_formula_sum "Si O2"
_cell_formula_units_Z 84
_cell_length_a 17.430852
_cell_length_b 17.430852
_cell_length_c 14.555540
_cell_angle_alpha 90.000000
_cell_angle_beta 90.000000
_cell_angle_gamma 120.000000
_cell_volume 3829.977165
_symmetry_space_group_name_H-M "P 6 C C"
_symmetry_group_IT_number 184
_symmetry_cell_setting 'hexagonal'
loop_
_space_group_symop_operation_xyz
x,y,z
x-y,x,z
-y,x-y,z
-x,-y,z
-x+y,-x,z
y,-x+y,z
-x+y,y,1/2+z
x,x-y,1/2+z
-y,-x,1/2+z
y,x,1/2+z
x-y,-y,1/2+z
-x,-x+y,1/2+z
loop_
_atom_site_type_symbol
_atom_site_label
_atom_site_fract_x
_atom_site_fract_y
_atom_site_fract_z
Si Si1 0.202111 0.110806 0.497390
Si Si2 0.299466 0.831257 0.389249
Si Si3 0.397310 0.231712 0.729446
Si Si4 0.165760 0.397986 0.027115
Si Si5 0.410999 0.992027 0.993138
Si Si6 0.137947 0.940841 0.719077
Si Si7 0.514160 0.421646 0.803490
O O1 0.147606 0.157144 0.463637
O O2 0.306494 0.150584 0.481865
O O3 0.195279 0.123105 0.608080
O O4 0.239638 0.827508 0.304057
O O5 0.230891 0.754171 0.457907
O O6 0.386082 0.840773 0.337960
O O7 0.341074 0.913657 0.460306
O O8 0.407221 0.206283 0.626832
O O9 0.297145 0.210639 0.742618
O O10 0.470020 0.333583 0.744675
O O11 0.070464 0.390095 0.042934
O O12 0.400133 0.942279 0.896770
O O13 0.500000 0.000000 0.036199
O O14 0.039449 0.870528 0.751639
O O15 0.500000 0.500000 0.761728
#
# Coordination Sequence:
#
# PCOD9585180 Si02
#       7
#    12  12  12  12  12  12  12
#     4   9  17  31  52  88 133 178 220 270 324 399
#     4  10  22  42  65  92 136 174 224 290 358 423
#     4  11  23  40  67 101 136 180 241 291 358 431
#     4  11  21  39  66 100 133 174 237 287 353 430
#     4   9  20  42  65  92 127 177 226 281 359 427
#     4   9  19  32  57  92 137 181 222 275 332 405
#     4   9  21  44  65  90 130 176 234 284 358 425
#
# _framework density 21.932247
#
# number of rings (size 3 to 8) (size 9 to 14) (size 15 to 20)
#    0.000    2.571    1.429    1.143    4.000    2.286 
#    6.000    1.429    0.000    0.000    0.000    2.000 
#    0.000    0.000    0.000    0.000    0.000    0.000 
#
# Total GULP energy -468419.109864 kJ/mol
# GULP energy per Si atom -5576.417975 kJ/mol
# Density = 2.188233 g / cm^3
# Si number density = 21.932247 Si / 1000 Ang^3
#
#
#
# Elastic Constant Matrix: (Units=GPa)
#
#
# Indices 1 2 3 4 5 6 
#
# 1 110.5763 68.0409 20.4884 0.0000 0.0000 0.0000
# 2 68.0409 110.5763 20.4884 0.0000 0.0000 0.0000
# 3 20.4884 20.4884 74.6661 0.0000 0.0000 0.0000
# 4 0.0000 0.0000 0.0000 28.9330 0.0000 0.0000
# 5 0.0000 0.0000 0.0000 0.0000 28.9330 0.0000
# 6 0.0000 0.0000 0.0000 0.0000 0.0000 21.2677
#
#
#
# Elastic Compliance Matrix: (Units=1/GPa)
#
#
# Indices 1 2 3 4 5 6 
#
# 1 0.014742 -0.008768 -0.001639 0.000000 0.000000 0.000000
# 2 -0.008768 0.014742 -0.001639 0.000000 0.000000 0.000000
# 3 -0.001639 -0.001639 0.014293 0.000000 0.000000 0.000000
# 4 0.000000 0.000000 0.000000 0.034563 0.000000 0.000000
# 5 0.000000 0.000000 0.000000 0.000000 0.034563 0.000000
# 6 0.000000 0.000000 0.000000 0.000000 0.000000 0.047020
#
#
# Mechanical properties :
#
#
# Convention : Reuss Voigt Hill
#
# Bulk Modulus (GPa) = 50.80208 57.09489 53.94848
# Shear Modulus (GPa) = 26.23621 28.28016 27.25818
#
# Velocity S-wave (km/s) = 3.46242 3.59476 3.52921
# Velocity P-wave (km/s) = 6.26083 6.58169 6.42326
#
# Compressibility (1/GPa) = 0.01968424
#
# Stress axis : x y z
#
# Youngs Moduli (GPa) = 67.83230 67.83230 69.96586
#
# Poissons Ratio (x) = 0.59472 0.11471
# Poissons Ratio (y) = 0.59472 0.11471
# Poissons Ratio (z) = 0.11121 0.11121
#
# Static dielectric constant tensor:
#      x y z
#    x 1.839220 0.000000 0.000000 
#    y 0.000000 1.839220 0.000000 
#    z 0.000000 0.000000 1.821640 
# 
# From -- ./inp_files/932.got.cif
#   From: 2010.05.17/outbox.cif.g08.bks.cpg/sg184_cif.got.tgz:932.got - 2010.05.20 12:04:40.
