data_PCOD9585565
_publ_section_title
;
Structure prediction by ZEFSAII (Michael W. Deem and Ramdas Pophale) SiO2 
 PCOD9585565
Probable space group: P -6 M 2
;
_chemical_formula_sum "Si O2"
_cell_formula_units_Z 66
_cell_length_a 20.777513
_cell_length_b 20.777513
_cell_length_c 10.226441
_cell_angle_alpha 90.000000
_cell_angle_beta 90.000000
_cell_angle_gamma 120.000000
_cell_volume 3823.334311
_symmetry_space_group_name_H-M "P -6 M 2"
_symmetry_group_IT_number 187
_symmetry_cell_setting 'hexagonal'
loop_
_space_group_symop_operation_xyz
x,y,z
-x+y,-x,-z
-y,x-y,z
x,y,-z
-x+y,-x,z
-y,x-y,-z
-y,-x,-z
-x+y,y,-z
x,x-y,-z
-x+y,y,z
x,x-y,z
-y,-x,z
loop_
_atom_site_type_symbol
_atom_site_label
_atom_site_fract_x
_atom_site_fract_y
_atom_site_fract_z
Si Si1 0.309882 0.844448 0.651369
Si Si2 0.275788 0.212316 0.152505
Si Si3 0.448156 0.896312 0.161704
Si Si4 0.449545 0.296915 0.780201
Si Si5 0.517373 0.186762 0.500000
Si Si6 0.532448 0.467553 0.852034
Si Si7 0.221481 0.289493 0.351255
O O1 0.338188 0.852220 0.500000
O O2 0.237887 0.762114 0.661472
O O3 0.368430 0.859706 0.765794
O O4 0.279326 0.902032 0.666147
O O5 0.254455 0.127228 0.175307
O O6 0.363869 0.261114 0.182182
O O7 0.234971 0.241088 0.246862
O O8 0.263740 0.221265 0.000000
O O9 0.491583 0.983166 0.211757
O O10 0.444024 0.888047 0.000000
O O11 0.473456 0.236728 0.823704
O O12 0.465479 0.308799 0.626007
O O13 0.495276 0.380036 0.831455
O O14 0.584184 0.168367 0.500000
O O15 0.551754 0.275877 0.500000
O O16 0.520940 0.479061 0.000000
O O17 0.230254 0.269667 0.500000
O O18 0.140238 0.280475 0.339253
#
# Coordination Sequence:
#
# PCOD9585565 Si02
#       7
#    12  12   6  12   6   6  12
#     4   9  19  38  59  81 110 143 182 224 273 331
#     4  10  21  36  55  81 113 145 178 219 268 323
#     4  11  23  37  55  83 115 147 183 231 281 331
#     4  10  21  36  52  73 105 142 185 233 282 328
#     4  10  19  34  52  72  97 134 184 240 290 332
#     4  11  22  36  52  74 108 145 187 235 283 333
#     4   9  19  36  59  86 112 139 176 223 266 318
#
# _framework density 17.262419000000001
#
# number of rings (size 3 to 8) (size 9 to 14) (size 15 to 20)
#    0.000    2.182    0.909    3.091    1.273    4.364 
#    4.364    1.818    0.000    0.364    0.000    0.000 
#    0.000    0.000    0.000    0.000    0.000    0.000 
#
# Total GULP energy -367726.445277 kJ/mol
# GULP energy per Si atom -5571.612807 kJ/mol
# Density = 1.722313 g / cm^3
# Si number density = 17.262419 Si / 1000 Ang^3
#
#
#
# Elastic Constant Matrix: (Units=GPa)
#
#
# Indices 1 2 3 4 5 6 
#
# 1 70.2568 42.4090 62.6405 0.0000 0.0002 0.0000
# 2 42.4090 70.2568 62.6405 0.0000 -0.0002 0.0000
# 3 62.6405 62.6405 132.9087 0.0000 0.0000 0.0000
# 4 0.0000 0.0000 0.0000 37.6417 0.0000 -0.0002
# 5 0.0002 -0.0002 0.0000 0.0000 37.6417 0.0000
# 6 0.0000 0.0000 0.0000 -0.0002 0.0000 13.9239
#
#
#
# Elastic Compliance Matrix: (Units=1/GPa)
#
#
# Indices 1 2 3 4 5 6 
#
# 1 0.027280 -0.008630 -0.008790 0.000000 0.000000 0.000000
# 2 -0.008630 0.027280 -0.008790 0.000000 0.000000 0.000000
# 3 -0.008790 -0.008790 0.015809 0.000000 0.000000 0.000000
# 4 0.000000 0.000000 0.000000 0.026566 0.000000 0.000000
# 5 0.000000 0.000000 0.000000 0.000000 0.026566 0.000000
# 6 0.000000 0.000000 0.000000 0.000000 0.000000 0.071819
#
#
# Mechanical properties :
#
#
# Convention : Reuss Voigt Hill
#
# Bulk Modulus (GPa) = 55.71082 67.64469 61.67775
# Shear Modulus (GPa) = 19.70661 24.89026 22.29843
#
# Velocity S-wave (km/s) = 3.38241 3.80132 3.59797
# Velocity P-wave (km/s) = 6.89907 7.65101 7.28475
#
# Compressibility (1/GPa) = 0.01794984
#
# Stress axis : x y z
#
# Youngs Moduli (GPa) = 36.65742 36.65742 63.25420
#
# Poissons Ratio (x) = 0.31635 0.55599
# Poissons Ratio (y) = 0.31635 0.55599
# Poissons Ratio (z) = 0.32221 0.32221
#
# Static dielectric constant tensor:
#      x y z
#    x 1.583840 0.000000 0.000000 
#    y 0.000000 1.583840 0.000000 
#    z 0.000000 0.000000 1.613140 
# 
# From -- ./inp_files/805.got.cif
#   From: 2010.05.17/outbox.cif.g08.bks.cpg/sg187_1_cif.got.tgz:805.got - 2010.05.20 12:09:04.
