data_PCOD9585521
_publ_section_title
;
Structure prediction by ZEFSAII (Michael W. Deem and Ramdas Pophale) SiO2 
 PCOD9585521
Probable space group: P -6 M 2
;
_chemical_formula_sum "Si O2"
_cell_formula_units_Z 96
_cell_length_a 17.111442
_cell_length_b 17.111442
_cell_length_c 23.341840
_cell_angle_alpha 90.000000
_cell_angle_beta 90.000000
_cell_angle_gamma 120.000000
_cell_volume 5918.871870
_symmetry_space_group_name_H-M "P -6 M 2"
_symmetry_group_IT_number 187
_symmetry_cell_setting 'hexagonal'
loop_
_space_group_symop_operation_xyz
x,y,z
-x+y,-x,-z
-y,x-y,z
x,y,-z
-x+y,-x,z
-y,x-y,-z
-y,-x,-z
-x+y,y,-z
x,x-y,-z
-x+y,y,z
x,x-y,z
-y,-x,z
loop_
_atom_site_type_symbol
_atom_site_label
_atom_site_fract_x
_atom_site_fract_y
_atom_site_fract_z
Si Si1 0.999852 0.820626 0.146272
Si Si2 0.338231 0.365701 0.666439
Si Si3 0.914772 0.267383 0.066261
Si Si4 0.999611 0.815127 0.279346
Si Si5 0.968628 0.391827 0.832795
Si Si6 0.851701 0.332974 0.275911
Si Si7 0.149038 0.666822 0.568210
Si Si8 0.519352 0.852732 0.227781
O O1 0.927192 0.854383 0.144210
O O2 0.967924 0.741576 0.100462
O O3 0.996528 0.789635 0.212021
O O4 0.098554 0.901447 0.134159
O O5 0.252258 0.269710 0.682774
O O6 0.425638 0.355694 0.677780
O O7 0.333860 0.403597 0.604890
O O8 0.340776 0.438575 0.711910
O O9 0.810022 0.189979 0.068543
O O10 0.935338 0.352191 0.104830
O O11 0.941012 0.286606 0.000000
O O12 0.083306 0.916695 0.284910
O O13 0.905037 0.810073 0.292779
O O14 0.971030 0.485515 0.825718
O O15 0.898401 0.329109 0.783987
O O16 0.070761 0.417119 0.818246
O O17 0.833128 0.416564 0.273155
O O18 0.760802 0.239199 0.285902
O O19 0.134929 0.667508 0.500000
O O20 0.154429 0.577215 0.581625
O O21 0.243736 0.756265 0.582490
O O22 0.417618 0.835235 0.222907
O O23 0.522578 0.761289 0.222938
#
# Coordination Sequence:
#
# PCOD9585521 Si02
#       8
#    12  12  12  12  12  12  12  12
#     4   9  17  29  45  66  92 122 154 187 225 270
#     4  11  20  31  48  75 103 129 161 199 244 289
#     4  10  20  32  46  65  89 118 152 189 232 282
#     4  10  19  31  49  72  99 130 163 200 243 293
#     4   9  19  33  49  69  91 118 154 195 237 284
#     4  10  19  32  51  74 100 128 159 197 243 295
#     4  10  20  34  52  74 102 136 172 207 241 280
#     4  10  19  31  48  71  99 126 153 189 237 293
#
# _framework density 16.219306
#
# number of rings (size 3 to 8) (size 9 to 14) (size 15 to 20)
#    0.000    2.125    0.000    5.875    0.000    4.500 
#    0.000    1.250    0.000    2.500    0.000    0.000 
#    0.000    3.000    0.000    0.000    0.000    0.000 
#
# Total GULP energy -535514.402068 kJ/mol
# GULP energy per Si atom -5578.275022 kJ/mol
# Density = 1.618239 g / cm^3
# Si number density = 16.219306 Si / 1000 Ang^3
#
#
#
# Elastic Constant Matrix: (Units=GPa)
#
#
# Indices 1 2 3 4 5 6 
#
# 1 87.5811 41.5438 35.3799 0.0000 0.0004 0.0000
# 2 41.5438 87.5811 35.3799 0.0000 -0.0004 0.0000
# 3 35.3799 35.3799 61.7400 0.0000 0.0000 0.0000
# 4 0.0000 0.0000 0.0000 17.6590 0.0000 -0.0004
# 5 0.0004 -0.0004 0.0000 0.0000 17.6590 0.0000
# 6 0.0000 0.0000 0.0000 -0.0004 0.0000 23.0187
#
#
#
# Elastic Compliance Matrix: (Units=1/GPa)
#
#
# Indices 1 2 3 4 5 6 
#
# 1 0.016506 -0.005216 -0.006470 0.000000 0.000000 0.000000
# 2 -0.005216 0.016506 -0.006470 0.000000 0.000000 0.000000
# 3 -0.006470 -0.006470 0.023612 0.000000 0.000000 0.000000
# 4 0.000000 0.000000 0.000000 0.056628 0.000000 0.000001
# 5 0.000000 0.000000 0.000000 0.000000 0.056628 0.000000
# 6 0.000000 0.000000 0.000000 0.000001 0.000000 0.043443
#
#
# Mechanical properties :
#
#
# Convention : Reuss Voigt Hill
#
# Bulk Modulus (GPa) = 49.22970 51.27881 50.25426
# Shear Modulus (GPa) = 19.50054 19.97393 19.73724
#
# Velocity S-wave (km/s) = 3.47119 3.51307 3.49219
# Velocity P-wave (km/s) = 6.81791 6.93830 6.87837
#
# Compressibility (1/GPa) = 0.02031294
#
# Stress axis : x y z
#
# Youngs Moduli (GPa) = 60.58551 60.58551 42.35202
#
# Poissons Ratio (x) = 0.31601 0.27400
# Poissons Ratio (y) = 0.31601 0.27400
# Poissons Ratio (z) = 0.39196 0.39196
#
# Static dielectric constant tensor:
#      x y z
#    x 1.551030 0.000000 0.000000 
#    y 0.000000 1.551030 0.000000 
#    z 0.000000 0.000000 1.528760 
# 
# From -- ./inp_files/3741.got.cif
#   From: 2010.05.17/outbox.cif.g08.bks.cpg/sg187_2_cif.got.tgz:3741.got - 2010.05.20 12:09:04.
