data_PCOD9585569
_publ_section_title
;
Structure prediction by ZEFSAII (Michael W. Deem and Ramdas Pophale) SiO2 
 PCOD9585569
Probable space group: P -6 M 2
;
_chemical_formula_sum "Si O2"
_cell_formula_units_Z 60
_cell_length_a 18.027754
_cell_length_b 18.027754
_cell_length_c 11.750066
_cell_angle_alpha 90.000000
_cell_angle_beta 90.000000
_cell_angle_gamma 120.000000
_cell_volume 3307.152215
_symmetry_space_group_name_H-M "P -6 M 2"
_symmetry_group_IT_number 187
_symmetry_cell_setting 'hexagonal'
loop_
_space_group_symop_operation_xyz
x,y,z
-x+y,-x,-z
-y,x-y,z
x,y,-z
-x+y,-x,z
-y,x-y,-z
-y,-x,-z
-x+y,y,-z
x,x-y,-z
-x+y,y,z
x,x-y,z
-y,-x,z
loop_
_atom_site_type_symbol
_atom_site_label
_atom_site_fract_x
_atom_site_fract_y
_atom_site_fract_z
Si Si1 0.170204 0.169831 0.252335
Si Si2 0.509631 0.667167 0.233644
Si Si3 0.011324 0.675173 0.635695
Si Si4 0.837734 0.504414 0.361424
Si Si5 0.236882 0.036120 0.000000
Si Si6 0.106163 0.719909 0.000000
O O1 0.077511 0.155022 0.281795
O O2 0.242863 0.258068 0.305658
O O3 0.181491 0.090746 0.290913
O O4 0.182450 0.177217 0.115770
O O5 0.496875 0.748438 0.251098
O O6 0.420251 0.579750 0.235226
O O7 0.575003 0.667006 0.325862
O O8 0.556796 0.680883 0.112016
O O9 0.009692 0.683062 0.500000
O O10 0.924002 0.590059 0.672454
O O11 0.836657 0.503122 0.500000
O O12 0.752711 0.505421 0.324008
O O13 0.837559 0.418780 0.323872
O O14 0.279492 0.139746 0.000000
O O15 0.291997 0.988341 0.000000
O O16 0.178158 0.821843 0.000000
#
# Coordination Sequence:
#
# PCOD9585569 Si02
#       6
#    12  12  12  12   6   6
#     4  11  22  37  58  84 115 149 190 239 291 346
#     4  11  23  39  61  86 114 147 190 244 299 353
#     4  11  23  38  56  79 113 158 199 235 283 347
#     4   9  17  31  52  77 104 135 177 230 284 335
#     4  10  20  35  60  90 117 146 184 232 286 345
#     4  10  19  37  62  86 113 146 182 228 290 349
#
# _framework density 18.142498
#
# number of rings (size 3 to 8) (size 9 to 14) (size 15 to 20)
#    0.000    1.600    2.000    3.600    0.000    4.800 
#    0.000    2.000    0.000    2.600    0.000    0.000 
#    0.000    0.000    0.000    4.000    0.000    2.600 
#
# Total GULP energy -335042.089168 kJ/mol
# GULP energy per Si atom -5584.034819 kJ/mol
# Density = 1.810121 g / cm^3
# Si number density = 18.142498 Si / 1000 Ang^3
#
#
#
# Elastic Constant Matrix: (Units=GPa)
#
#
# Indices 1 2 3 4 5 6 
#
# 1 135.2299 65.8130 23.4018 0.0000 -0.0001 0.0000
# 2 65.8130 135.2299 23.4018 0.0000 0.0001 0.0000
# 3 23.4018 23.4018 47.6250 0.0000 0.0000 0.0000
# 4 0.0000 0.0000 0.0000 16.9625 0.0000 0.0001
# 5 -0.0001 0.0001 0.0000 0.0000 16.9625 0.0000
# 6 0.0000 0.0000 0.0000 0.0001 0.0000 34.7085
#
#
#
# Elastic Compliance Matrix: (Units=1/GPa)
#
#
# Indices 1 2 3 4 5 6 
#
# 1 0.010011 -0.004395 -0.002760 0.000000 0.000000 0.000000
# 2 -0.004395 0.010011 -0.002760 0.000000 0.000000 0.000000
# 3 -0.002760 -0.002760 0.023710 0.000000 0.000000 0.000000
# 4 0.000000 0.000000 0.000000 0.058953 0.000000 0.000000
# 5 0.000000 0.000000 0.000000 0.000000 0.058953 0.000000
# 6 0.000000 0.000000 0.000000 0.000000 0.000000 0.028811
#
#
# Mechanical properties :
#
#
# Convention : Reuss Voigt Hill
#
# Bulk Modulus (GPa) = 41.83511 60.36865 51.10188
# Shear Modulus (GPa) = 22.90989 27.42460 25.16724
#
# Velocity S-wave (km/s) = 3.55741 3.89218 3.72855
# Velocity P-wave (km/s) = 6.32319 7.31749 6.83844
#
# Compressibility (1/GPa) = 0.02390337
#
# Stress axis : x y z
#
# Youngs Moduli (GPa) = 99.88879 99.88879 42.17699
#
# Poissons Ratio (x) = 0.43897 0.11640
# Poissons Ratio (y) = 0.43897 0.11640
# Poissons Ratio (z) = 0.27568 0.27568
#
# Static dielectric constant tensor:
#      x y z
#    x 1.610890 0.000000 0.000000 
#    y 0.000000 1.610890 0.000000 
#    z 0.000000 0.000000 1.616660 
# 
# From -- ./inp_files/1690.got.cif
#   From: 2010.05.17/outbox.cif.g08.bks.cpg/sg187_1_cif.got.tgz:1690.got - 2010.05.20 12:09:04.
