data_PCOD9585364
_publ_section_title
;
Structure prediction by ZEFSAII (Michael W. Deem and Ramdas Pophale) SiO2 
 PCOD9585364
Probable space group: P 63 M C
;
_chemical_formula_sum "Si O2"
_cell_formula_units_Z 52
_cell_length_a 19.323361
_cell_length_b 19.323361
_cell_length_c 11.858206
_cell_angle_alpha 90.000000
_cell_angle_beta 90.000000
_cell_angle_gamma 120.000000
_cell_volume 3834.554875
_symmetry_space_group_name_H-M "P 63 M C"
_symmetry_group_IT_number 186
_symmetry_cell_setting 'hexagonal'
loop_
_space_group_symop_operation_xyz
x,y,z
x-y,x,1/2+z
-y,x-y,z
-x,-y,1/2+z
-x+y,-x,z
y,-x+y,1/2+z
-x+y,y,z
x,x-y,z
-y,-x,z
y,x,1/2+z
x-y,-y,1/2+z
-x,-x+y,1/2+z
loop_
_atom_site_type_symbol
_atom_site_label
_atom_site_fract_x
_atom_site_fract_y
_atom_site_fract_z
Si Si1 0.481655 0.240828 0.067510
Si Si2 0.173068 0.665053 0.202683
Si Si3 0.333334 0.666668 0.566051
Si Si4 0.093106 0.465237 0.444496
Si Si5 0.666667 0.333334 0.339509
Si Si6 0.240828 0.759173 0.838034
Si Si7 0.906949 0.534788 0.460946
O O1 0.575019 0.287510 0.029187
O O2 0.478235 0.239118 0.202771
O O3 0.447583 0.295168 0.017869
O O4 0.205483 0.602742 0.202659
O O5 0.245754 0.754247 0.202596
O O6 0.121368 0.647062 0.315343
O O7 0.121249 0.646987 0.090130
O O8 0.333334 0.666667 0.702779
O O9 0.101629 0.550815 0.479954
O O10 0.000024 0.400709 0.452677
O O11 0.575017 0.287509 0.376366
O O12 0.295171 0.847592 0.887654
O O13 0.898404 0.449202 0.425480
#
# Coordination Sequence:
#
# PCOD9585364 Si02
#       7
#     6  12   2  12   2   6  12
#     4  11  20  31  49  66  88 119 157 195 232 268
#     4  10  19  32  48  65  86 118 156 196 236 271
#     4   9  18  30  42  64  86 118 153 195 229 266
#     4  10  21  33  46  65  91 119 153 193 234 275
#     4   9  18  30  42  64  86 118 153 195 229 266
#     4  11  20  31  49  66  88 119 157 195 232 268
#     4  10  21  33  46  65  91 119 153 193 234 275
#
# _framework density 13.560896
#
# number of rings (size 3 to 8) (size 9 to 14) (size 15 to 20)
#    0.000    1.846    4.615    0.231    3.231    0.000 
#    0.000    0.000    0.000    0.000    0.000    0.000 
#    0.000    0.000    0.000    0.692    0.000    4.154 
#
# Total GULP energy -290077.839657 kJ/mol
# GULP energy per Si atom -5578.419993 kJ/mol
# Density = 1.353003 g / cm^3
# Si number density = 13.560896 Si / 1000 Ang^3
#
#
#
# Elastic Constant Matrix: (Units=GPa)
#
#
# Indices 1 2 3 4 5 6 
#
# 1 93.4569 50.7533 35.4496 0.0000 0.0000 0.0000
# 2 50.7533 93.4568 35.4496 0.0000 0.0000 0.0000
# 3 35.4496 35.4496 71.5846 0.0000 0.0000 0.0000
# 4 0.0000 0.0000 0.0000 6.8236 0.0000 0.0000
# 5 0.0000 0.0000 0.0000 0.0000 6.8236 0.0000
# 6 0.0000 0.0000 0.0000 0.0000 0.0000 21.3518
#
#
#
# Elastic Compliance Matrix: (Units=1/GPa)
#
#
# Indices 1 2 3 4 5 6 
#
# 1 0.016292 -0.007126 -0.004539 0.000000 0.000000 0.000000
# 2 -0.007126 0.016292 -0.004539 0.000000 0.000000 0.000000
# 3 -0.004539 -0.004539 0.018465 0.000000 0.000000 0.000000
# 4 0.000000 0.000000 0.000000 0.146551 0.000000 0.000000
# 5 0.000000 0.000000 0.000000 0.000000 0.146550 0.000000
# 6 0.000000 0.000000 0.000000 0.000000 0.000000 0.046835
#
#
# Mechanical properties :
#
#
# Convention : Reuss Voigt Hill
#
# Bulk Modulus (GPa) = 53.64629 55.75592 54.70110
# Shear Modulus (GPa) = 11.63860 16.12284 13.88072
#
# Velocity S-wave (km/s) = 2.93276 3.45181 3.20282
# Velocity P-wave (km/s) = 7.14937 7.55587 7.35543
#
# Compressibility (1/GPa) = 0.01864062
#
# Stress axis : x y z
#
# Youngs Moduli (GPa) = 61.38139 61.38127 54.15626
#
# Poissons Ratio (x) = 0.43738 0.24582
# Poissons Ratio (y) = 0.43739 0.24582
# Poissons Ratio (z) = 0.27861 0.27861
#
# Static dielectric constant tensor:
#      x y z
#    x 1.431140 0.000000 0.000000 
#    y 0.000000 1.431140 0.000000 
#    z 0.000000 0.000000 1.462230 
# 
# From -- ./inp_files/1720.got.cif
#   From: 2010.05.17/outbox.cif.g08.bks.cpg/sg186_1_cif.got.tgz:1720.got - 2010.05.20 12:07:08.
