data_PCOD9585768
_publ_section_title
;
Structure prediction by ZEFSAII (Michael W. Deem and Ramdas Pophale) SiO2 
 PCOD9585768
Probable space group: P -6 M 2
;
_chemical_formula_sum "Si O2"
_cell_formula_units_Z 48
_cell_length_a 19.397073
_cell_length_b 19.397073
_cell_length_c 8.370790
_cell_angle_alpha 90.000000
_cell_angle_beta 90.000000
_cell_angle_gamma 120.000000
_cell_volume 2727.529642
_symmetry_space_group_name_H-M "P -6 M 2"
_symmetry_group_IT_number 187
_symmetry_cell_setting 'hexagonal'
loop_
_space_group_symop_operation_xyz
x,y,z
-x+y,-x,-z
-y,x-y,z
x,y,-z
-x+y,-x,z
-y,x-y,-z
-y,-x,-z
-x+y,y,-z
x,x-y,-z
-x+y,y,z
x,x-y,z
-y,-x,z
loop_
_atom_site_type_symbol
_atom_site_label
_atom_site_fract_x
_atom_site_fract_y
_atom_site_fract_z
Si Si1 0.334704 0.510366 0.194728
Si Si2 0.665638 0.175084 0.807026
Si Si3 0.911466 0.245341 0.690589
Si Si4 0.243353 0.329681 0.192733
O O1 0.263913 0.527825 0.238830
O O2 0.420026 0.579975 0.251346
O O3 0.305951 0.420256 0.245911
O O4 0.336879 0.510531 0.000000
O O5 0.581269 0.162537 0.751161
O O6 0.737971 0.262029 0.758237
O O7 0.689363 0.111461 0.747957
O O8 0.664387 0.173215 0.000000
O O9 0.910121 0.243721 0.500000
O O10 0.840052 0.159949 0.749926
O O11 0.998652 0.269083 0.748780
O O12 0.156104 0.312207 0.244325
O O13 0.243920 0.329968 0.000000
#
# Coordination Sequence:
#
# PCOD9585768 Si02
#       4
#    12  12  12  12
#     4   8  13  22  39  65  96 127 157 188 221 257
#     4   9  17  30  49  72  98 130 168 207 244 282
#     4  10  21  35  50  70  96 126 160 197 240 293
#     4   9  18  32  50  73  98 123 155 196 239 283
#
# _framework density 17.598341000000001
#
# number of rings (size 3 to 8) (size 9 to 14) (size 15 to 20)
#    0.000    3.000    0.000    2.750    0.000    5.500 
#    0.000    2.500    0.000    2.000    0.000    0.000 
#    0.000    2.000    0.000    0.000    0.000    0.000 
#
# Total GULP energy -267533.974584 kJ/mol
# GULP energy per Si atom -5573.624470 kJ/mol
# Density = 1.755829 g / cm^3
# Si number density = 17.598341 Si / 1000 Ang^3
#
#
#
# Elastic Constant Matrix: (Units=GPa)
#
#
# Indices 1 2 3 4 5 6 
#
# 1 112.3828 89.9705 16.5613 0.0000 0.0004 0.0000
# 2 89.9705 112.3828 16.5613 0.0000 -0.0004 0.0000
# 3 16.5613 16.5613 6.8444 0.0000 0.0000 0.0000
# 4 0.0000 0.0000 0.0000 4.1434 0.0000 -0.0004
# 5 0.0004 -0.0004 0.0000 0.0000 4.1434 0.0000
# 6 0.0000 0.0000 0.0000 -0.0004 0.0000 11.2061
#
#
#
# Elastic Compliance Matrix: (Units=1/GPa)
#
#
# Indices 1 2 3 4 5 6 
#
# 1 0.026401 -0.018218 -0.019800 0.000000 -0.000005 0.000000
# 2 -0.018218 0.026401 -0.019800 0.000000 0.000005 0.000000
# 3 -0.019800 -0.019800 0.241921 0.000000 0.000000 0.000000
# 4 0.000000 0.000000 0.000000 0.241346 0.000000 0.000009
# 5 -0.000005 0.000005 0.000000 0.000000 0.241346 0.000000
# 6 0.000000 0.000000 0.000000 0.000009 0.000000 0.089237
#
#
# Mechanical properties :
#
#
# Convention : Reuss Voigt Hill
#
# Bulk Modulus (GPa) = 5.58385 53.08846 29.33616
# Shear Modulus (GPa) = 4.79856 11.13306 7.96581
#
# Velocity S-wave (km/s) = 1.65307 2.51792 2.12985
# Velocity P-wave (km/s) = 2.61215 6.21976 4.77016
#
# Compressibility (1/GPa) = 0.17908781
#
# Stress axis : x y z
#
# Youngs Moduli (GPa) = 37.87793 37.87793 4.13359
#
# Poissons Ratio (x) = 0.69005 0.08184
# Poissons Ratio (y) = 0.69005 0.08184
# Poissons Ratio (z) = 0.74997 0.74997
#
# Static dielectric constant tensor:
#      x y z
#    x 1.593510 0.000000 0.000000 
#    y 0.000000 1.593510 0.000000 
#    z 0.000000 0.000000 1.611130 
# 
# From -- ./inp_files/347.got.cif
#   From: 2010.05.17/outbox.cif.g08.bks.cpg/sg187_1_cif.got.tgz:347.got - 2010.05.20 12:09:04.
