data_PCOD9585664
_publ_section_title
;
Structure prediction by ZEFSAII (Michael W. Deem and Ramdas Pophale) SiO2 
 PCOD9585664
Probable space group: P -6 M 2
;
_chemical_formula_sum "Si O2"
_cell_formula_units_Z 48
_cell_length_a 12.673324
_cell_length_b 12.673324
_cell_length_c 21.368776
_cell_angle_alpha 90.000000
_cell_angle_beta 90.000000
_cell_angle_gamma 120.000000
_cell_volume 2972.291190
_symmetry_space_group_name_H-M "P -6 M 2"
_symmetry_group_IT_number 187
_symmetry_cell_setting 'hexagonal'
loop_
_space_group_symop_operation_xyz
x,y,z
-x+y,-x,-z
-y,x-y,z
x,y,-z
-x+y,-x,z
-y,x-y,-z
-y,-x,-z
-x+y,y,-z
x,x-y,-z
-x+y,y,z
x,x-y,z
-y,-x,z
loop_
_atom_site_type_symbol
_atom_site_label
_atom_site_fract_x
_atom_site_fract_y
_atom_site_fract_z
Si Si1 0.082582 0.416292 0.378422
Si Si2 0.917569 0.583824 0.500000
Si Si3 0.586649 0.667254 0.137266
Si Si4 0.584564 0.667069 0.000000
Si Si5 0.415727 0.333076 0.742939
O O1 0.204988 0.409975 0.380269
O O2 0.112960 0.556480 0.379092
O O3 0.998271 0.352741 0.438564
O O4 0.005827 0.356521 0.315693
O O5 0.795052 0.590104 0.500000
O O6 0.887175 0.443588 0.500000
O O7 0.582891 0.791446 0.146091
O O8 0.448873 0.551128 0.138622
O O9 0.641195 0.671247 0.067911
O O10 0.657332 0.645660 0.193020
O O11 0.456737 0.543264 0.000000
O O12 0.561602 0.780801 0.000000
O O13 0.412566 0.206283 0.737371
O O14 0.554697 0.445304 0.743053
#
# Coordination Sequence:
#
# PCOD9585664 Si02
#       5
#    12   6  12   6  12
#     4  10  20  34  54  78 102 126 154 195 245 292
#     4  10  20  34  54  78 104 134 166 198 228 266
#     4   9  16  27  46  71  97 122 150 190 239 289
#     4   8  13  22  39  66  96 122 148 182 232 288
#     4  10  20  33  49  68  93 126 162 199 236 279
#
# _framework density 16.149156999999999
#
# number of rings (size 3 to 8) (size 9 to 14) (size 15 to 20)
#    0.000    2.500    0.000    2.875    0.000    2.000 
#    0.000    6.875    0.000   12.000    0.000    1.750 
#    0.000    0.000    0.000    0.000    0.000    0.000 
#
# Total GULP energy -267496.685453 kJ/mol
# GULP energy per Si atom -5572.847614 kJ/mol
# Density = 1.611240 g / cm^3
# Si number density = 16.149157 Si / 1000 Ang^3
#
#
#
# Elastic Constant Matrix: (Units=GPa)
#
#
# Indices 1 2 3 4 5 6 
#
# 1 101.7288 67.2315 75.7910 0.0000 0.0002 0.0000
# 2 67.2315 101.7288 75.7910 0.0000 -0.0002 0.0000
# 3 75.7910 75.7910 171.9934 0.0000 0.0000 0.0000
# 4 0.0000 0.0000 0.0000 9.8619 0.0000 -0.0002
# 5 0.0002 -0.0002 0.0000 0.0000 9.8619 0.0000
# 6 0.0000 0.0000 0.0000 -0.0002 0.0000 17.2487
#
#
#
# Elastic Compliance Matrix: (Units=1/GPa)
#
#
# Indices 1 2 3 4 5 6 
#
# 1 0.019388 -0.009600 -0.004313 0.000000 -0.000001 0.000000
# 2 -0.009600 0.019388 -0.004313 0.000000 0.000001 0.000000
# 3 -0.004313 -0.004313 0.009616 0.000000 0.000000 0.000000
# 4 0.000000 0.000000 0.000000 0.101400 0.000000 0.000001
# 5 -0.000001 0.000001 0.000000 0.000000 0.101400 0.000000
# 6 0.000000 0.000000 0.000000 0.000001 0.000000 0.057975
#
#
# Mechanical properties :
#
#
# Convention : Reuss Voigt Hill
#
# Bulk Modulus (GPa) = 83.76034 90.34199 87.05116
# Shear Modulus (GPa) = 14.30208 17.83701 16.06954
#
# Velocity S-wave (km/s) = 2.97917 3.32703 3.15790
# Velocity P-wave (km/s) = 7.98832 8.41561 8.20475
#
# Compressibility (1/GPa) = 0.01193882
#
# Stress axis : x y z
#
# Youngs Moduli (GPa) = 51.57838 51.57838 103.99777
#
# Poissons Ratio (x) = 0.49514 0.44857
# Poissons Ratio (y) = 0.49514 0.44857
# Poissons Ratio (z) = 0.22247 0.22247
#
# Static dielectric constant tensor:
#      x y z
#    x 1.501550 0.000000 0.000000 
#    y 0.000000 1.501550 0.000000 
#    z 0.000000 0.000000 1.577600 
# 
# From -- ./inp_files/3397.got.cif
#   From: 2010.05.17/outbox.cif.g08.bks.cpg/sg187_2_cif.got.tgz:3397.got - 2010.05.20 12:09:04.
