data_PCOD9585424
_publ_section_title
;
Structure prediction by ZEFSAII (Michael W. Deem and Ramdas Pophale) SiO2 
 PCOD9585424
Probable space group: P -6 M 2
;
_chemical_formula_sum "Si O2"
_cell_formula_units_Z 72
_cell_length_a 24.472950
_cell_length_b 24.472950
_cell_length_c 8.887119
_cell_angle_alpha 90.000000
_cell_angle_beta 90.000000
_cell_angle_gamma 120.000000
_cell_volume 4609.610954
_symmetry_space_group_name_H-M "P -6 M 2"
_symmetry_group_IT_number 187
_symmetry_cell_setting 'hexagonal'
loop_
_space_group_symop_operation_xyz
x,y,z
-x+y,-x,-z
-y,x-y,z
x,y,-z
-x+y,-x,z
-y,x-y,-z
-y,-x,-z
-x+y,y,-z
x,x-y,-z
-x+y,y,z
x,x-y,z
-y,-x,z
loop_
_atom_site_type_symbol
_atom_site_label
_atom_site_fract_x
_atom_site_fract_y
_atom_site_fract_z
Si Si1 0.739585 0.703365 0.319289
Si Si2 0.299795 0.822991 0.181637
Si Si3 0.111164 0.555582 0.816487
Si Si4 0.656266 0.554504 0.320112
Si Si5 0.780457 0.560915 0.319213
Si Si6 0.661606 0.769407 0.319012
Si Si7 0.849996 0.150005 0.178068
Si Si8 0.517905 0.482096 0.180296
O O1 0.746833 0.705993 0.500000
O O2 0.692521 0.629302 0.281700
O O3 0.707958 0.744223 0.272359
O O4 0.807036 0.726353 0.245063
O O5 0.249192 0.750809 0.225298
O O6 0.371605 0.851474 0.232680
O O7 0.272361 0.865649 0.245367
O O8 0.300034 0.825691 0.000000
O O9 0.037772 0.518886 0.768794
O O10 0.110881 0.555441 0.000000
O O11 0.645822 0.549049 0.500000
O O12 0.706260 0.530602 0.285151
O O13 0.589547 0.517884 0.239163
O O14 0.786876 0.573752 0.500000
O O15 0.813641 0.627282 0.233607
O O16 0.654555 0.762581 0.500000
O O17 0.683755 0.841878 0.281768
O O18 0.851723 0.148278 0.000000
O O19 0.517948 0.482053 0.000000
#
# Coordination Sequence:
#
# PCOD9585424 Si02
#       8
#    12  12   6  12   6  12   6   6
#     4   9  17  30  46  64  90 121 148 177 218 263
#     4   9  17  30  46  62  83 115 153 194 240 284
#     4   9  18  31  43  61  90 118 149 193 240 284
#     4   9  17  30  47  65  86 114 148 180 213 263
#     4   8  16  32  50  65  85 114 142 175 217 259
#     4   9  17  29  46  67  90 116 148 184 223 269
#     4  10  18  26  42  68  93 115 142 174 206 248
#     4  11  21  29  41  64  94 121 145 182 233 275
#
# _framework density 15.619539
#
# number of rings (size 3 to 8) (size 9 to 14) (size 15 to 20)
#    0.000    2.833    0.000    3.000    0.000    3.333 
#    0.500    1.250    0.000    0.333    0.000    1.167 
#    0.833    0.000    1.500    0.000    0.500    0.000 
#
# Total GULP energy -400987.803026 kJ/mol
# GULP energy per Si atom -5569.275042 kJ/mol
# Density = 1.558399 g / cm^3
# Si number density = 15.619539 Si / 1000 Ang^3
#
#
#
# Elastic Constant Matrix: (Units=GPa)
#
#
# Indices 1 2 3 4 5 6 
#
# 1 132.6041 87.3515 33.4274 0.0000 0.0002 0.0000
# 2 87.3515 132.6041 33.4274 0.0000 -0.0002 0.0000
# 3 33.4274 33.4274 13.5881 0.0000 0.0000 0.0000
# 4 0.0000 0.0000 0.0000 16.1752 0.0000 -0.0002
# 5 0.0002 -0.0002 0.0000 0.0000 16.1752 0.0000
# 6 0.0000 0.0000 0.0000 -0.0002 0.0000 22.6263
#
#
#
# Elastic Compliance Matrix: (Units=1/GPa)
#
#
# Indices 1 2 3 4 5 6 
#
# 1 0.020060 -0.002038 -0.044334 0.000000 0.000000 0.000000
# 2 -0.002038 0.020060 -0.044334 0.000000 0.000000 0.000000
# 3 -0.044334 -0.044334 0.291725 0.000000 0.000000 0.000000
# 4 0.000000 0.000000 0.000000 0.061823 0.000000 0.000000
# 5 0.000000 0.000000 0.000000 0.000000 0.061823 0.000000
# 6 0.000000 0.000000 0.000000 0.000000 0.000000 0.044196
#
#
# Mechanical properties :
#
#
# Convention : Reuss Voigt Hill
#
# Bulk Modulus (GPa) = 6.64759 65.24544 35.94652
# Shear Modulus (GPa) = 6.83766 19.30135 13.06950
#
# Velocity S-wave (km/s) = 2.09455 3.51909 2.89579
# Velocity P-wave (km/s) = 3.18036 7.64031 5.85188
#
# Compressibility (1/GPa) = 0.15043048
#
# Stress axis : x y z
#
# Youngs Moduli (GPa) = 49.85065 49.85065 3.42789
#
# Poissons Ratio (x) = 0.10161 0.15197
# Poissons Ratio (y) = 0.10161 0.15197
# Poissons Ratio (z) = 2.21010 2.21010
#
# Static dielectric constant tensor:
#      x y z
#    x 1.523570 0.000000 0.000000 
#    y 0.000000 1.523570 0.000000 
#    z 0.000000 0.000000 1.519870 
# 
# From -- ./inp_files/1106.got.cif
#   From: 2010.05.17/outbox.cif.g08.bks.cpg/sg187_1_cif.got.tgz:1106.got - 2010.05.20 12:09:04.
