data_PCOD9585213
_publ_section_title
;
Structure prediction by ZEFSAII (Michael W. Deem and Ramdas Pophale) SiO2 
 PCOD9585213
Probable space group: P 63 C M
;
_chemical_formula_sum "Si O2"
_cell_formula_units_Z 72
_cell_length_a 21.699210
_cell_length_b 21.699210
_cell_length_c 10.327031
_cell_angle_alpha 90.000000
_cell_angle_beta 90.000000
_cell_angle_gamma 120.000000
_cell_volume 4211.084519
_symmetry_space_group_name_H-M "P 63 C M"
_symmetry_group_IT_number 185
_symmetry_cell_setting 'hexagonal'
loop_
_space_group_symop_operation_xyz
x,y,z
x-y,x,1/2+z
-y,x-y,z
-x,-y,1/2+z
-x+y,-x,z
y,-x+y,1/2+z
-x+y,y,1/2+z
x,x-y,1/2+z
-y,-x,1/2+z
y,x,z
x-y,-y,z
-x,-x+y,z
loop_
_atom_site_type_symbol
_atom_site_label
_atom_site_fract_x
_atom_site_fract_y
_atom_site_fract_z
Si Si1 0.709481 0.568067 0.028460
Si Si2 0.330456 0.512907 0.786613
Si Si3 0.081910 0.277447 0.633930
Si Si4 0.277441 0.081909 0.939348
Si Si5 0.812581 0.474108 0.286610
Si Si6 0.709485 0.141420 0.044763
O O1 0.672545 0.533429 0.162977
O O2 0.783370 0.566745 0.036612
O O3 0.737032 0.649347 0.991199
O O4 0.663523 0.517297 0.913103
O O5 0.261953 0.524875 0.786613
O O6 0.397676 0.591742 0.786634
O O7 0.327440 0.466549 0.910226
O O8 0.131584 0.263170 0.536638
O O9 0.105365 0.287793 0.786639
O O10 0.087693 0.350662 0.582077
O O11 0.000000 0.216303 0.629206
O O12 0.216292 0.000000 0.944070
O O13 0.853758 0.517272 0.160086
#
# Coordination Sequence:
#
# PCOD9585213 Si02
#       6
#    12  12  12  12  12  12
#     4   9  18  31  48  72 101 143 182 226 275 319
#     4  10  19  28  47  71 104 137 190 240 289 335
#     4  10  21  38  61  88 115 141 174 216 259 308
#     4  10  21  38  61  88 115 141 174 216 259 308
#     4  10  17  30  45  69 102 141 182 238 291 331
#     4   9  18  31  48  72 101 143 182 226 275 319
#
# _framework density 17.097733000000002
#
# number of rings (size 3 to 8) (size 9 to 14) (size 15 to 20)
#    0.000    2.333    1.667    1.333    7.000    0.667 
#    0.000    3.333    0.000    6.333    0.000    0.000 
#    0.000    0.000    0.000    0.000    0.000    0.000 
#
# Total GULP energy -400917.348450 kJ/mol
# GULP energy per Si atom -5568.296506 kJ/mol
# Density = 1.705882 g / cm^3
# Si number density = 17.097733 Si / 1000 Ang^3
#
#
#
# Elastic Constant Matrix: (Units=GPa)
#
#
# Indices 1 2 3 4 5 6 
#
# 1 64.0755 26.5178 53.2221 0.0000 0.0000 0.0000
# 2 26.5178 64.0755 53.2221 0.0000 0.0000 0.0000
# 3 53.2221 53.2221 178.7369 0.0000 0.0000 0.0000
# 4 0.0000 0.0000 0.0000 23.6195 0.0000 0.0000
# 5 0.0000 0.0000 0.0000 0.0000 23.6195 0.0000
# 6 0.0000 0.0000 0.0000 0.0000 0.0000 18.7789
#
#
#
# Elastic Compliance Matrix: (Units=1/GPa)
#
#
# Indices 1 2 3 4 5 6 
#
# 1 0.021802 -0.004824 -0.005056 0.000000 0.000000 0.000000
# 2 -0.004824 0.021802 -0.005056 0.000000 0.000000 0.000000
# 3 -0.005056 -0.005056 0.008606 0.000000 0.000000 0.000000
# 4 0.000000 0.000000 0.000000 0.042338 0.000000 0.000000
# 5 0.000000 0.000000 0.000000 0.000000 0.042338 0.000000
# 6 0.000000 0.000000 0.000000 0.000000 0.000000 0.053251
#
#
# Mechanical properties :
#
#
# Convention : Reuss Voigt Hill
#
# Bulk Modulus (GPa) = 44.76249 63.64577 54.20413
# Shear Modulus (GPa) = 21.98251 24.79864 23.39057
#
# Velocity S-wave (km/s) = 3.58955 3.81255 3.70273
# Velocity P-wave (km/s) = 6.58916 7.52902 7.07472
#
# Compressibility (1/GPa) = 0.02234013
#
# Stress axis : x y z
#
# Youngs Moduli (GPa) = 45.86706 45.86706 116.20262
#
# Poissons Ratio (x) = 0.22124 0.58748
# Poissons Ratio (y) = 0.22124 0.58748
# Poissons Ratio (z) = 0.23189 0.23189
#
# Static dielectric constant tensor:
#      x y z
#    x 1.570290 0.000000 0.000000 
#    y 0.000000 1.570290 0.000000 
#    z 0.000000 0.000000 1.654310 
# 
# From -- ./inp_files/635.got.cif
#   From: 2010.05.17/outbox.cif.g08.bks.cpg/sg185_cif.got.tgz:635.got - 2010.05.20 12:05:34.
