data_PCOD9585957
_publ_section_title
;
Structure prediction by ZEFSAII (Michael W. Deem and Ramdas Pophale) SiO2 
 PCOD9585957
Probable space group: P -6 C 2
;
_chemical_formula_sum "Si O2"
_cell_formula_units_Z 64
_cell_length_a 15.810169
_cell_length_b 15.810169
_cell_length_c 16.692151
_cell_angle_alpha 90.000000
_cell_angle_beta 90.000000
_cell_angle_gamma 120.000000
_cell_volume 3613.399341
_symmetry_space_group_name_H-M "P -6 C 2"
_symmetry_group_IT_number 188
_symmetry_cell_setting 'hexagonal'
loop_
_space_group_symop_operation_xyz
x,y,z
-x+y,-x,1/2-z
-y,x-y,z
x,y,1/2-z
-x+y,-x,z
-y,x-y,1/2-z
-y,-x,-z
-x+y,y,-z
x,x-y,-z
-x+y,y,1/2+z
x,x-y,1/2+z
-y,-x,1/2+z
loop_
_atom_site_type_symbol
_atom_site_label
_atom_site_fract_x
_atom_site_fract_y
_atom_site_fract_z
Si Si1 0.500683 0.451639 0.155761
Si Si2 0.386028 0.243271 0.422176
Si Si3 0.055044 0.295772 0.003150
Si Si4 0.355149 0.298964 0.842625
Si Si5 0.358398 0.508718 0.072501
Si Si6 0.333335 0.666667 0.654597
O O1 0.493210 0.430919 0.250000
O O2 0.462534 0.350973 0.108213
O O3 0.609999 0.537415 0.137827
O O4 0.430650 0.493967 0.130943
O O5 0.423845 0.211923 0.500000
O O6 0.289284 0.244464 0.452075
O O7 0.360202 0.159173 0.357451
O O8 0.021143 0.302019 0.093167
O O9 0.124730 0.249460 0.000000
O O10 0.117421 0.403355 0.964297
O O11 0.333204 0.307930 0.750000
O O12 0.310212 0.562337 0.119434
O O13 0.421667 0.578334 0.000000
O O14 0.333334 0.666668 0.750000
#
# Coordination Sequence:
#
# PCOD9585957 Si02
#       6
#    12  12  12  12  12   4
#     4  10  20  35  56  82 117 150 186 235 281 329
#     4   9  20  35  58  83 112 148 191 233 282 345
#     4  10  20  36  57  83 108 149 190 230 282 342
#     4  10  20  37  60  85 116 150 189 237 287 342
#     4  11  20  35  53  75 110 151 190 227 276 328
#     4  12  25  35  49  78 115 152 196 237 274 326
#
# _framework density 17.711853000000001
#
# number of rings (size 3 to 8) (size 9 to 14) (size 15 to 20)
#    0.000    1.875    1.875    2.812    0.000    0.000 
#    1.125    4.688    0.000   10.125    0.000    0.000 
#    0.000    0.000    0.000    0.000    0.000    0.000 
#
# Total GULP energy -357130.110633 kJ/mol
# GULP energy per Si atom -5580.157979 kJ/mol
# Density = 1.767154 g / cm^3
# Si number density = 17.711853 Si / 1000 Ang^3
#
#
#
# Elastic Constant Matrix: (Units=GPa)
#
#
# Indices 1 2 3 4 5 6 
#
# 1 83.3241 47.8485 47.0192 -0.0002 -0.0001 0.0000
# 2 47.8485 83.3234 47.0191 0.0003 0.0000 -0.0001
# 3 47.0192 47.0191 81.7080 0.0000 -0.0001 0.0000
# 4 -0.0002 0.0003 0.0000 17.8099 -0.0001 0.0000
# 5 -0.0001 0.0000 -0.0001 -0.0001 17.8101 -0.0003
# 6 0.0000 -0.0001 0.0000 0.0000 -0.0003 17.7374
#
#
#
# Elastic Compliance Matrix: (Units=1/GPa)
#
#
# Indices 1 2 3 4 5 6 
#
# 1 0.020583 -0.007606 -0.007468 0.000000 0.000000 0.000000
# 2 -0.007606 0.020583 -0.007468 0.000000 0.000000 0.000000
# 3 -0.007468 -0.007468 0.020834 0.000000 0.000000 0.000000
# 4 0.000000 0.000000 0.000000 0.056148 0.000000 0.000000
# 5 0.000000 0.000000 0.000000 0.000000 0.056148 0.000001
# 6 0.000000 0.000000 0.000000 0.000000 0.000001 0.056378
#
#
# Mechanical properties :
#
#
# Convention : Reuss Voigt Hill
#
# Bulk Modulus (GPa) = 59.11299 59.12547 59.11923
# Shear Modulus (GPa) = 17.76858 17.76940 17.76899
#
# Velocity S-wave (km/s) = 3.17077 3.17085 3.17081
# Velocity P-wave (km/s) = 6.84488 6.84544 6.84516
#
# Compressibility (1/GPa) = 0.01691675
#
# Stress axis : x y z
#
# Youngs Moduli (GPa) = 48.58401 48.58351 47.99959
#
# Poissons Ratio (x) = 0.36951 0.35845
# Poissons Ratio (y) = 0.36951 0.35846
# Poissons Ratio (z) = 0.36282 0.36282
#
# Static dielectric constant tensor:
#      x y z
#    x 1.609130 0.000000 0.000000 
#    y 0.000000 1.609130 0.000000 
#    z 0.000000 0.000000 1.611430 
# 
# From -- ./inp_files/3058.got.cif
#   From: 2010.05.17/outbox.cif.g08.bks.cpg/sg188_2_cif.got.tgz:3058.got - 2010.05.20 12:11:46.
