data_PCOD9585158
_publ_section_title
;
Structure prediction by ZEFSAII (Michael W. Deem and Ramdas Pophale) SiO2 
 PCOD9585158
Probable space group: P 6 C C
;
_chemical_formula_sum "Si O2"
_cell_formula_units_Z 42
_cell_length_a 11.113881
_cell_length_b 11.113881
_cell_length_c 19.352291
_cell_angle_alpha 90.000000
_cell_angle_beta 90.000000
_cell_angle_gamma 120.000000
_cell_volume 2070.115143
_symmetry_space_group_name_H-M "P 6 C C"
_symmetry_group_IT_number 184
_symmetry_cell_setting 'hexagonal'
loop_
_space_group_symop_operation_xyz
x,y,z
x-y,x,z
-y,x-y,z
-x,-y,z
-x+y,-x,z
y,-x+y,z
-x+y,y,1/2+z
x,x-y,1/2+z
-y,-x,1/2+z
y,x,1/2+z
x-y,-y,1/2+z
-x,-x+y,1/2+z
loop_
_atom_site_type_symbol
_atom_site_label
_atom_site_fract_x
_atom_site_fract_y
_atom_site_fract_z
Si Si1 0.481307 0.829870 0.006030
Si Si2 0.747169 0.056292 0.625710
Si Si3 0.746705 0.061114 0.786091
Si Si4 0.500000 0.000000 0.380422
O O1 0.320344 0.789297 0.009583
O O2 0.573429 0.914768 0.070100
O O3 0.528266 0.903248 0.932469
O O4 0.711785 0.067100 0.705382
O O5 0.906732 0.174757 0.615896
O O6 0.922743 0.559154 0.833024
O O7 0.906816 0.180590 0.797464
#
# Coordination Sequence:
#
# PCOD9585158 Si02
#       4
#    12  12  12   6
#     4  10  23  39  61  89 124 170 207 263 317 378
#     4  10  21  40  65  93 124 161 213 267 325 378
#     4  10  23  42  67  96 129 169 215 272 329 392
#     4  12  22  40  62  94 134 168 218 256 328 386
#
# _framework density 20.288727999999999
#
# number of rings (size 3 to 8) (size 9 to 14) (size 15 to 20)
#    0.571    1.143    0.000    4.000    0.000    8.000 
#    1.714    0.000    0.000    3.429    0.000    0.000 
#    0.000    0.000    0.000    0.000    0.000    0.000 
#
# Total GULP energy -234360.634170 kJ/mol
# GULP energy per Si atom -5580.015099 kJ/mol
# Density = 2.024255 g / cm^3
# Si number density = 20.288728 Si / 1000 Ang^3
#
#
#
# Elastic Constant Matrix: (Units=GPa)
#
#
# Indices 1 2 3 4 5 6 
#
# 1 84.5111 12.7980 73.9341 0.0000 0.0000 0.0000
# 2 12.7980 84.5111 73.9341 0.0000 0.0000 0.0000
# 3 73.9341 73.9341 149.7573 0.0000 0.0000 0.0000
# 4 0.0000 0.0000 0.0000 32.1409 0.0000 0.0000
# 5 0.0000 0.0000 0.0000 0.0000 32.1409 0.0000
# 6 0.0000 0.0000 0.0000 0.0000 0.0000 35.8566
#
#
#
# Elastic Compliance Matrix: (Units=1/GPa)
#
#
# Indices 1 2 3 4 5 6 
#
# 1 0.027542 0.013597 -0.020310 0.000000 0.000000 0.000000
# 2 0.013597 0.027542 -0.020310 0.000000 0.000000 0.000000
# 3 -0.020310 -0.020310 0.026731 0.000000 0.000000 0.000000
# 4 0.000000 0.000000 0.000000 0.031113 0.000000 0.000000
# 5 0.000000 0.000000 0.000000 0.000000 0.031113 0.000000
# 6 0.000000 0.000000 0.000000 0.000000 0.000000 0.027889
#
#
# Mechanical properties :
#
#
# Convention : Reuss Voigt Hill
#
# Bulk Modulus (GPa) = 36.01098 71.12353 53.56726
# Shear Modulus (GPa) = 21.25560 30.56855 25.91207
#
# Velocity S-wave (km/s) = 3.24026 3.88580 3.57762
# Velocity P-wave (km/s) = 5.63798 7.43400 6.59740
#
# Compressibility (1/GPa) = 0.02776930
#
# Stress axis : x y z
#
# Youngs Moduli (GPa) = 36.30841 36.30841 37.40921
#
# Poissons Ratio (x) = -0.49370 0.75979
# Poissons Ratio (y) = -0.49370 0.75979
# Poissons Ratio (z) = 0.73743 0.73743
#
# Static dielectric constant tensor:
#      x y z
#    x 1.742500 0.000000 0.000000 
#    y 0.000000 1.742500 0.000000 
#    z 0.000000 0.000000 1.710420 
# 
# From -- ./inp_files/999.got.cif
#   From: 2010.05.17/outbox.cif.g08.bks.cpg/sg184_cif.got.tgz:999.got - 2010.05.20 12:04:40.
