data_PCOD9585083
_publ_section_title
;
Structure prediction by ZEFSAII (Michael W. Deem and Ramdas Pophale) SiO2 
 PCOD9585083
Probable space group: P 6 M M
;
_chemical_formula_sum "Si O2"
_cell_formula_units_Z 60
_cell_length_a 21.881100
_cell_length_b 21.881100
_cell_length_c 7.453999
_cell_angle_alpha 90.000000
_cell_angle_beta 90.000000
_cell_angle_gamma 120.000000
_cell_volume 3090.710046
_symmetry_space_group_name_H-M "P 6 M M"
_symmetry_group_IT_number 183
_symmetry_cell_setting 'hexagonal'
loop_
_space_group_symop_operation_xyz
x,y,z
x-y,x,z
-y,x-y,z
-x,-y,z
-x+y,-x,z
y,-x+y,z
-x+y,y,z
x,x-y,z
-y,-x,z
y,x,z
x-y,-y,z
-x,-x+y,z
loop_
_atom_site_type_symbol
_atom_site_label
_atom_site_fract_x
_atom_site_fract_y
_atom_site_fract_z
Si Si1 0.920965 0.214685 0.453970
Si Si2 0.459082 0.297771 0.956762
Si Si3 0.297771 0.459082 0.383299
Si Si4 0.917798 0.458899 0.949980
Si Si5 0.541101 0.458900 0.390081
Si Si6 0.079035 0.293719 0.886088
O O1 0.862561 0.137440 0.388187
O O2 0.890703 0.266516 0.411042
O O3 0.923044 0.211181 0.670029
O O4 0.000000 0.245967 0.385654
O O5 0.475993 0.237997 0.885053
O O6 0.501914 0.377577 0.888987
O O7 0.375812 0.266514 0.929019
O O8 0.471742 0.301821 0.170030
O O9 0.237996 0.475992 0.455008
O O10 0.377577 0.501914 0.451075
O O11 0.000000 0.500000 0.894584
O O12 0.918631 0.459316 0.170031
O O13 0.500000 0.500000 0.445477
O O14 0.137438 0.274876 0.951871
O O15 0.000000 0.245967 0.954404
#
# Coordination Sequence:
#
# PCOD9585083 Si02
#       6
#    12  12  12   6   6  12
#     4   9  17  29  45  64  86 111 138 171 211 252
#     4   9  17  29  44  63  85 111 144 177 211 251
#     4   9  17  29  44  63  85 111 144 177 211 251
#     4   9  16  26  41  61  85 111 137 171 215 253
#     4   9  16  26  41  61  85 111 137 171 215 253
#     4   9  17  29  45  64  86 111 138 171 211 252
#
# _framework density 19.413015999999999
#
# number of rings (size 3 to 8) (size 9 to 14) (size 15 to 20)
#    0.000    3.000    0.000    1.200    0.000    2.400 
#    1.200    1.000    0.000    4.000    0.000    2.800 
#    0.000    0.000    0.000   10.000    0.000   10.400 
#
# Total GULP energy -334613.902719 kJ/mol
# GULP energy per Si atom -5576.898379 kJ/mol
# Density = 1.936883 g / cm^3
# Si number density = 19.413016 Si / 1000 Ang^3
#
#
#
# Elastic Constant Matrix: (Units=GPa)
#
#
# Indices 1 2 3 4 5 6 
#
# 1 187.1527 143.3001 4.2922 0.0000 0.0000 0.0000
# 2 143.3001 187.1527 4.2922 0.0000 0.0000 0.0000
# 3 4.2922 4.2922 59.5007 0.0000 0.0000 0.0000
# 4 0.0000 0.0000 0.0000 9.0841 0.0000 0.0000
# 5 0.0000 0.0000 0.0000 0.0000 9.0841 0.0000
# 6 0.0000 0.0000 0.0000 0.0000 0.0000 21.9263
#
#
#
# Elastic Compliance Matrix: (Units=1/GPa)
#
#
# Indices 1 2 3 4 5 6 
#
# 1 0.012918 -0.009886 -0.000219 0.000000 0.000000 0.000000
# 2 -0.009886 0.012918 -0.000219 0.000000 0.000000 0.000000
# 3 -0.000219 -0.000219 0.016838 0.000000 0.000000 0.000000
# 4 0.000000 0.000000 0.000000 0.110082 0.000000 0.000000
# 5 0.000000 0.000000 0.000000 0.000000 0.110082 0.000000
# 6 0.000000 0.000000 0.000000 0.000000 0.000000 0.045607
#
#
# Mechanical properties :
#
#
# Convention : Reuss Voigt Hill
#
# Bulk Modulus (GPa) = 45.39902 81.95280 63.67591
# Shear Modulus (GPa) = 14.86176 26.81368 20.83772
#
# Velocity S-wave (km/s) = 2.76987 3.72051 3.27982
# Velocity P-wave (km/s) = 5.80226 7.79508 6.87130
#
# Compressibility (1/GPa) = 0.02202691
#
# Stress axis : x y z
#
# Youngs Moduli (GPa) = 77.41281 77.41281 59.38922
#
# Poissons Ratio (x) = 0.76530 0.01299
# Poissons Ratio (y) = 0.76530 0.01299
# Poissons Ratio (z) = 0.01693 0.01693
#
# Static dielectric constant tensor:
#      x y z
#    x 1.663930 0.000000 0.000000 
#    y 0.000000 1.663930 0.000000 
#    z 0.000000 0.000000 1.740300 
# 
# From -- ./inp_files/976.got.cif
#   From: 2010.05.17/outbox.cif.g08.bks.cpg/sg183_1_cif.got.tgz:976.got - 2010.05.20 12:02:58.
