data_PCOD9585540
_publ_section_title
;
Structure prediction by ZEFSAII (Michael W. Deem and Ramdas Pophale) SiO2 
 PCOD9585540
Probable space group: P -6 M 2
;
_chemical_formula_sum "Si O2"
_cell_formula_units_Z 72
_cell_length_a 17.704102
_cell_length_b 17.704102
_cell_length_c 15.461996
_cell_angle_alpha 90.000000
_cell_angle_beta 90.000000
_cell_angle_gamma 120.000000
_cell_volume 4197.048563
_symmetry_space_group_name_H-M "P -6 M 2"
_symmetry_group_IT_number 187
_symmetry_cell_setting 'hexagonal'
loop_
_space_group_symop_operation_xyz
x,y,z
-x+y,-x,-z
-y,x-y,z
x,y,-z
-x+y,-x,z
-y,x-y,-z
-y,-x,-z
-x+y,y,-z
x,x-y,-z
-x+y,y,z
x,x-y,z
-y,-x,z
loop_
_atom_site_type_symbol
_atom_site_label
_atom_site_fract_x
_atom_site_fract_y
_atom_site_fract_z
Si Si1 0.639874 0.666222 0.599620
Si Si2 0.839464 0.332771 0.394814
Si Si3 0.173436 0.000267 0.639407
Si Si4 0.999068 0.825195 0.849072
Si Si5 0.091722 0.724733 0.096295
Si Si6 0.513268 0.846836 0.743116
O O1 0.610137 0.650752 0.500000
O O2 0.651611 0.585482 0.630144
O O3 0.734367 0.752392 0.604937
O O4 0.572560 0.675059 0.660988
O O5 0.837759 0.330728 0.500000
O O6 0.828222 0.414111 0.367977
O O7 0.759162 0.240839 0.364794
O O8 0.078422 0.921579 0.614791
O O9 0.186348 0.093174 0.611694
O O10 0.178306 0.000560 0.744292
O O11 0.907979 0.815957 0.877001
O O12 0.019376 0.752067 0.883932
O O13 0.080221 0.919780 0.874297
O O14 0.183073 0.816928 0.098096
O O15 0.101195 0.668828 0.171920
O O16 0.080507 0.687674 0.000000
O O17 0.421709 0.843418 0.738871
O O18 0.500788 0.750394 0.746816
#
# Coordination Sequence:
#
# PCOD9585540 Si02
#       6
#    12  12  12  12  12  12
#     4  11  22  36  54  76 105 142 180 217 264 323
#     4   9  17  30  49  73 100 131 169 215 265 314
#     4  10  19  32  50  74 105 143 186 228 266 307
#     4   9  16  28  48  76 110 147 184 219 257 305
#     4   9  18  34  55  78 105 135 167 208 260 313
#     4  11  23  40  59  79 102 131 170 218 272 328
#
# _framework density 17.154913000000001
#
# number of rings (size 3 to 8) (size 9 to 14) (size 15 to 20)
#    0.000    2.167    1.667    2.167    0.000    6.000 
#    0.000    0.000    0.000    4.000    0.000    0.000 
#    0.000    0.000    0.000    0.000    0.000    2.500 
#
# Total GULP energy -401843.234144 kJ/mol
# GULP energy per Si atom -5581.156030 kJ/mol
# Density = 1.711587 g / cm^3
# Si number density = 17.154913 Si / 1000 Ang^3
#
#
#
# Elastic Constant Matrix: (Units=GPa)
#
#
# Indices 1 2 3 4 5 6 
#
# 1 106.1779 44.2993 38.1430 0.0000 0.0002 0.0000
# 2 44.2993 106.1779 38.1430 0.0000 -0.0002 0.0000
# 3 38.1430 38.1430 74.5619 0.0000 0.0000 0.0000
# 4 0.0000 0.0000 0.0000 5.7314 0.0000 -0.0002
# 5 0.0002 -0.0002 0.0000 0.0000 5.7314 0.0000
# 6 0.0000 0.0000 0.0000 -0.0002 0.0000 30.9393
#
#
#
# Elastic Compliance Matrix: (Units=1/GPa)
#
#
# Indices 1 2 3 4 5 6 
#
# 1 0.012567 -0.003594 -0.004590 0.000000 -0.000001 0.000000
# 2 -0.003594 0.012567 -0.004590 0.000000 0.000001 0.000000
# 3 -0.004590 -0.004590 0.018108 0.000000 0.000000 0.000000
# 4 0.000000 0.000000 0.000000 0.174477 0.000000 0.000001
# 5 -0.000001 0.000001 0.000000 0.000000 0.174477 0.000000
# 6 0.000000 0.000000 0.000000 0.000001 0.000000 0.032321
#
#
# Mechanical properties :
#
#
# Convention : Reuss Voigt Hill
#
# Bulk Modulus (GPa) = 56.52008 58.67649 57.59829
# Shear Modulus (GPa) = 10.96582 19.56924 15.26753
#
# Velocity S-wave (km/s) = 2.53103 3.38114 2.98649
# Velocity P-wave (km/s) = 6.44670 7.03712 6.74837
#
# Compressibility (1/GPa) = 0.01769283
#
# Stress axis : x y z
#
# Youngs Moduli (GPa) = 79.57621 79.57621 55.22485
#
# Poissons Ratio (x) = 0.28601 0.25348
# Poissons Ratio (y) = 0.28601 0.25348
# Poissons Ratio (z) = 0.36525 0.36525
#
# Static dielectric constant tensor:
#      x y z
#    x 1.566060 0.000000 0.000000 
#    y 0.000000 1.566060 0.000000 
#    z 0.000000 0.000000 1.603840 
# 
# From -- ./inp_files/3036.got.cif
#   From: 2010.05.17/outbox.cif.g08.bks.cpg/sg187_2_cif.got.tgz:3036.got - 2010.05.20 12:09:04.
