data_PCOD9585985
_publ_section_title
;
Structure prediction by ZEFSAII (Michael W. Deem and Ramdas Pophale) SiO2 
 PCOD9585985
Probable space group: P -6 C 2
;
_chemical_formula_sum "Si O2"
_cell_formula_units_Z 24
_cell_length_a 6.881517
_cell_length_b 6.881517
_cell_length_c 21.023240
_cell_angle_alpha 90.000000
_cell_angle_beta 90.000000
_cell_angle_gamma 120.000000
_cell_volume 862.181409
_symmetry_space_group_name_H-M "P -6 C 2"
_symmetry_group_IT_number 188
_symmetry_cell_setting 'hexagonal'
loop_
_space_group_symop_operation_xyz
x,y,z
-x+y,-x,1/2-z
-y,x-y,z
x,y,1/2-z
-x+y,-x,z
-y,x-y,1/2-z
-y,-x,-z
-x+y,y,-z
x,x-y,-z
-x+y,y,1/2+z
x,x-y,1/2+z
-y,-x,1/2+z
loop_
_atom_site_type_symbol
_atom_site_label
_atom_site_fract_x
_atom_site_fract_y
_atom_site_fract_z
Si Si1 0.518226 0.481774 0.500000
Si Si2 0.944586 0.386112 0.750000
Si Si3 0.220507 0.284099 0.117603
O O1 0.431897 0.215949 0.500000
O O2 0.365362 0.453106 0.438580
O O3 0.707372 0.148204 0.750000
O O4 0.068003 0.390583 0.814453
O O5 0.951547 0.179061 0.114491
#
# Coordination Sequence:
#
# PCOD9585985 Si02
#       3
#     6   6  12
#     4  10  22  42  68  92 150 200 246 312 394 446
#     4  10  20  38  74 102 142 204 240 314 400 462
#     4  10  22  40  74 107 143 200 263 310 384 473
#
# _framework density 27.836372999999998
#
# number of rings (size 3 to 8) (size 9 to 14) (size 15 to 20)
#    2.000    0.000    0.000    4.500    0.000    2.000 
#    0.000    0.000   22.000   14.000    0.000    0.000 
#    0.000    0.000    0.000    0.000    0.000    0.000 
#
# Total GULP energy -133661.507768 kJ/mol
# GULP energy per Si atom -5569.229490 kJ/mol
# Density = 2.777302 g / cm^3
# Si number density = 27.836373 Si / 1000 Ang^3
#
#
#
# Elastic Constant Matrix: (Units=GPa)
#
#
# Indices 1 2 3 4 5 6 
#
# 1 151.8047 42.5189 97.5983 0.0000 0.0000 0.0000
# 2 42.5189 151.8047 97.5983 0.0000 0.0000 0.0000
# 3 97.5983 97.5983 342.8415 0.0000 0.0000 0.0000
# 4 0.0000 0.0000 0.0000 23.9594 0.0000 0.0000
# 5 0.0000 0.0000 0.0000 0.0000 23.9594 0.0000
# 6 0.0000 0.0000 0.0000 0.0000 0.0000 54.6429
#
#
#
# Elastic Compliance Matrix: (Units=1/GPa)
#
#
# Indices 1 2 3 4 5 6 
#
# 1 0.008179 -0.000972 -0.002052 0.000000 0.000000 0.000000
# 2 -0.000972 0.008179 -0.002052 0.000000 0.000000 0.000000
# 3 -0.002052 -0.002052 0.004085 0.000000 0.000000 0.000000
# 4 0.000000 0.000000 0.000000 0.041737 0.000000 0.000000
# 5 0.000000 0.000000 0.000000 0.000000 0.041737 0.000000
# 6 0.000000 0.000000 0.000000 0.000000 0.000000 0.018301
#
#
# Mechanical properties :
#
#
# Convention : Reuss Voigt Hill
#
# Bulk Modulus (GPa) = 97.16102 124.65354 110.90728
# Shear Modulus (GPa) = 36.81944 47.76138 42.29041
#
# Velocity S-wave (km/s) = 3.64085 4.14670 3.90198
# Velocity P-wave (km/s) = 7.25634 8.23437 7.76078
#
# Compressibility (1/GPa) = 0.01029219
#
# Stress axis : x y z
#
# Youngs Moduli (GPa) = 122.27021 122.27021 244.80479
#
# Poissons Ratio (x) = 0.11881 0.50225
# Poissons Ratio (y) = 0.11881 0.50225
# Poissons Ratio (z) = 0.25085 0.25085
#
# Static dielectric constant tensor:
#      x y z
#    x 2.179880 0.000000 0.000000 
#    y 0.000000 2.179880 0.000000 
#    z 0.000000 0.000000 2.165840 
# 
# From -- ./inp_files/2747.got.cif
#   From: 2010.05.17/outbox.cif.g08.bks.cpg/sg188_2_cif.got.tgz:2747.got - 2010.05.20 12:11:46.
