data_PCOD9585284
_publ_section_title
;
Structure prediction by ZEFSAII (Michael W. Deem and Ramdas Pophale) SiO2 
 PCOD9585284
Probable space group: P 63 C M
;
_chemical_formula_sum "Si O2"
_cell_formula_units_Z 42
_cell_length_a 13.593145
_cell_length_b 13.593145
_cell_length_c 13.415189
_cell_angle_alpha 90.000000
_cell_angle_beta 90.000000
_cell_angle_gamma 120.000000
_cell_volume 2146.680081
_symmetry_space_group_name_H-M "P 63 C M"
_symmetry_group_IT_number 185
_symmetry_cell_setting 'hexagonal'
loop_
_space_group_symop_operation_xyz
x,y,z
x-y,x,1/2+z
-y,x-y,z
-x,-y,1/2+z
-x+y,-x,z
y,-x+y,1/2+z
-x+y,y,1/2+z
x,x-y,1/2+z
-y,-x,1/2+z
y,x,z
x-y,-y,z
-x,-x+y,z
loop_
_atom_site_type_symbol
_atom_site_label
_atom_site_fract_x
_atom_site_fract_y
_atom_site_fract_z
Si Si1 0.000000 0.419475 0.761030
Si Si2 0.419475 0.419475 0.931412
Si Si3 0.867499 0.867499 0.096221
Si Si4 0.219569 0.000000 0.308895
Si Si5 0.642138 0.192055 0.096221
Si Si6 0.780429 0.000000 0.383550
O O1 0.000000 0.500001 0.846221
O O2 0.888461 0.374834 0.690647
O O3 0.000000 0.321371 0.825940
O O4 0.321370 0.321370 0.866504
O O5 0.486374 0.374834 0.001795
O O6 0.795899 0.795899 0.190497
O O7 0.894405 0.000000 0.096220
O O8 0.795894 0.795894 0.001949
O O9 0.108713 0.891286 0.346224
O O10 0.761058 0.313112 0.096221
#
# Coordination Sequence:
#
# PCOD9585284 Si02
#       6
#     6   6   6   6  12   6
#     4  11  27  44  70 116 140 189 264 299 371 445
#     4  11  27  44  70 116 140 189 264 299 371 445
#     4  10  20  42  72 104 154 188 226 278 366 464
#     4  12  25  43  72 107 149 185 235 306 369 440
#     4   9  24  49  77  94 148 200 244 308 371 426
#     4  12  25  43  72 107 149 185 235 306 369 440
#
# _framework density 19.565094999999999
#
# number of rings (size 3 to 8) (size 9 to 14) (size 15 to 20)
#    0.857    0.571    2.857    0.286    8.000    6.857 
#    0.000    0.000    0.000    0.000    0.000    0.000 
#    0.000    0.000    0.000    0.000    0.000    0.000 
#
# Total GULP energy -234097.290337 kJ/mol
# GULP energy per Si atom -5573.745008 kJ/mol
# Density = 1.952056 g / cm^3
# Si number density = 19.565095 Si / 1000 Ang^3
#
#
#
# Elastic Constant Matrix: (Units=GPa)
#
#
# Indices 1 2 3 4 5 6 
#
# 1 176.5594 82.7221 99.9483 0.0000 0.0000 0.0000
# 2 82.7221 176.5594 99.9483 0.0000 0.0000 0.0000
# 3 99.9483 99.9483 242.0728 0.0000 0.0000 0.0000
# 4 0.0000 0.0000 0.0000 15.2968 0.0000 0.0000
# 5 0.0000 0.0000 0.0000 0.0000 15.2968 0.0000
# 6 0.0000 0.0000 0.0000 0.0000 0.0000 46.9187
#
#
#
# Elastic Compliance Matrix: (Units=1/GPa)
#
#
# Indices 1 2 3 4 5 6 
#
# 1 0.008157 -0.002499 -0.002336 0.000000 0.000000 0.000000
# 2 -0.002499 0.008157 -0.002336 0.000000 0.000000 0.000000
# 3 -0.002336 -0.002336 0.006060 0.000000 0.000000 0.000000
# 4 0.000000 0.000000 0.000000 0.065373 0.000000 0.000000
# 5 0.000000 0.000000 0.000000 0.000000 0.065373 0.000000
# 6 0.000000 0.000000 0.000000 0.000000 0.000000 0.021313
#
#
# Mechanical properties :
#
#
# Convention : Reuss Voigt Hill
#
# Bulk Modulus (GPa) = 124.50947 128.93655 126.72301
# Shear Modulus (GPa) = 26.11586 36.34065 31.22826
#
# Velocity S-wave (km/s) = 3.65748 4.31446 3.99948
# Velocity P-wave (km/s) = 9.03399 9.53225 9.28646
#
# Compressibility (1/GPa) = 0.00803152
#
# Stress axis : x y z
#
# Youngs Moduli (GPa) = 122.59007 122.59007 165.01634
#
# Poissons Ratio (x) = 0.30641 0.38548
# Poissons Ratio (y) = 0.30641 0.38548
# Poissons Ratio (z) = 0.28637 0.28637
#
# Static dielectric constant tensor:
#      x y z
#    x 1.688260 0.000000 0.000000 
#    y 0.000000 1.688260 0.000000 
#    z 0.000000 0.000000 1.922540 
# 
# From -- ./inp_files/839.got.cif
#   From: 2010.05.17/outbox.cif.g08.bks.cpg/sg185_cif.got.tgz:839.got - 2010.05.20 12:05:34.
