data_PCOD9585410
_publ_section_title
;
Structure prediction by ZEFSAII (Michael W. Deem and Ramdas Pophale) SiO2 
 PCOD9585410
Probable space group: P 63 M C
;
_chemical_formula_sum "Si O2"
_cell_formula_units_Z 46
_cell_length_a 11.459945
_cell_length_b 11.459945
_cell_length_c 24.145509
_cell_angle_alpha 90.000000
_cell_angle_beta 90.000000
_cell_angle_gamma 120.000000
_cell_volume 2746.199371
_symmetry_space_group_name_H-M "P 63 M C"
_symmetry_group_IT_number 186
_symmetry_cell_setting 'hexagonal'
loop_
_space_group_symop_operation_xyz
x,y,z
x-y,x,1/2+z
-y,x-y,z
-x,-y,1/2+z
-x+y,-x,z
y,-x+y,1/2+z
-x+y,y,z
x,x-y,z
-y,-x,z
y,x,1/2+z
x-y,-y,1/2+z
-x,-x+y,1/2+z
loop_
_atom_site_type_symbol
_atom_site_label
_atom_site_fract_x
_atom_site_fract_y
_atom_site_fract_z
Si Si1 0.693378 0.846689 0.482690
Si Si2 0.000000 0.000000 0.024662
Si Si3 0.944699 0.610577 0.403649
Si Si4 0.000000 0.000000 0.157789
Si Si5 0.693377 0.846689 0.699760
Si Si6 0.245258 0.754743 0.591225
Si Si7 0.055303 0.665879 0.278801
O O1 0.847975 0.923988 0.502258
O O2 0.666562 0.718991 0.445763
O O3 0.599209 0.799605 0.536563
O O4 0.000000 0.000000 0.091226
O O5 0.802705 0.605409 0.409341
O O6 0.928932 0.464466 0.413039
O O7 0.000002 0.654929 0.341225
O O8 0.923988 0.847975 0.180194
O O9 0.599210 0.799605 0.645888
O O10 0.666560 0.718991 0.736688
O O11 0.187570 0.593785 0.591225
O O12 0.071070 0.535535 0.269410
O O13 0.197296 0.802705 0.273108
#
# Coordination Sequence:
#
# PCOD9585410 Si02
#       7
#     6   2  12   2   6   6  12
#     4  12  22  41  66  90 123 163 212 256 321 375
#     4  12  24  39  67  92 121 159 198 274 314 364
#     4  11  23  39  60  90 128 169 208 257 314 377
#     4  12  24  39  67  92 121 159 198 274 314 364
#     4  12  22  41  66  90 123 163 212 256 321 375
#     4  10  24  42  62  92 118 162 208 254 304 374
#     4  11  23  39  60  90 128 169 208 257 314 377
#
# _framework density 16.750422
#
# number of rings (size 3 to 8) (size 9 to 14) (size 15 to 20)
#    0.261    0.522    6.522    2.087    0.000    0.000 
#    1.565    2.609    0.000    0.000    0.000    0.000 
#    0.000    0.000    0.000    0.000    0.000    0.000 
#
# Total GULP energy -257020.549902 kJ/mol
# GULP energy per Si atom -5587.403259 kJ/mol
# Density = 1.671230 g / cm^3
# Si number density = 16.750422 Si / 1000 Ang^3
#
#
#
# Elastic Constant Matrix: (Units=GPa)
#
#
# Indices 1 2 3 4 5 6 
#
# 1 168.7798 102.6253 100.9851 0.0000 0.0000 0.0000
# 2 102.6253 168.7798 100.9851 0.0000 0.0000 0.0000
# 3 100.9851 100.9851 165.4024 0.0000 0.0000 0.0000
# 4 0.0000 0.0000 0.0000 31.3559 0.0000 0.0000
# 5 0.0000 0.0000 0.0000 0.0000 31.3559 0.0000
# 6 0.0000 0.0000 0.0000 0.0000 0.0000 33.0772
#
#
#
# Elastic Compliance Matrix: (Units=1/GPa)
#
#
# Indices 1 2 3 4 5 6 
#
# 1 0.010934 -0.004182 -0.004123 0.000000 0.000000 0.000000
# 2 -0.004182 0.010934 -0.004123 0.000000 0.000000 0.000000
# 3 -0.004123 -0.004123 0.011080 0.000000 0.000000 0.000000
# 4 0.000000 0.000000 0.000000 0.031892 0.000000 0.000000
# 5 0.000000 0.000000 0.000000 0.000000 0.031892 0.000000
# 6 0.000000 0.000000 0.000000 0.000000 0.000000 0.030232
#
#
# Mechanical properties :
#
#
# Convention : Reuss Voigt Hill
#
# Bulk Modulus (GPa) = 123.54433 123.57255 123.55844
# Shear Modulus (GPa) = 32.35886 32.38223 32.37054
#
# Velocity S-wave (km/s) = 4.40002 4.40161 4.40081
# Velocity P-wave (km/s) = 9.98647 9.98825 9.98736
#
# Compressibility (1/GPa) = 0.00809426
#
# Stress axis : x y z
#
# Youngs Moduli (GPa) = 91.45524 91.45524 90.25275
#
# Poissons Ratio (x) = 0.38245 0.37208
# Poissons Ratio (y) = 0.38245 0.37208
# Poissons Ratio (z) = 0.37704 0.37704
#
# Static dielectric constant tensor:
#      x y z
#    x 1.534310 0.000000 0.000000 
#    y 0.000000 1.534310 0.000000 
#    z 0.000000 0.000000 1.529310 
# 
# From -- ./inp_files/3640.got.cif
#   From: 2010.05.17/outbox.cif.g08.bks.cpg/sg186_2_cif.got.tgz:3640.got - 2010.05.20 12:07:08.
