data_PCOD9585349
_publ_section_title
;
Structure prediction by ZEFSAII (Michael W. Deem and Ramdas Pophale) SiO2 
 PCOD9585349
Probable space group: P 63 M C
;
_chemical_formula_sum "Si O2"
_cell_formula_units_Z 60
_cell_length_a 28.822229
_cell_length_b 28.822229
_cell_length_c 5.152986
_cell_angle_alpha 90.000000
_cell_angle_beta 90.000000
_cell_angle_gamma 120.000000
_cell_volume 3707.188960
_symmetry_space_group_name_H-M "P 63 M C"
_symmetry_group_IT_number 186
_symmetry_cell_setting 'hexagonal'
loop_
_space_group_symop_operation_xyz
x,y,z
x-y,x,1/2+z
-y,x-y,z
-x,-y,1/2+z
-x+y,-x,z
y,-x+y,1/2+z
-x+y,y,z
x,x-y,z
-y,-x,z
y,x,1/2+z
x-y,-y,1/2+z
-x,-x+y,1/2+z
loop_
_atom_site_type_symbol
_atom_site_label
_atom_site_fract_x
_atom_site_fract_y
_atom_site_fract_z
Si Si1 0.445723 0.415915 0.452300
Si Si2 0.966556 0.663745 0.489574
Si Si3 0.115825 0.557913 0.140640
Si Si4 0.811043 0.299461 0.045069
Si Si5 0.412106 0.587895 0.641182
Si Si6 0.416619 0.152414 0.549443
O O1 0.436723 0.452221 0.660819
O O2 0.392250 0.359136 0.474253
O O3 0.496931 0.414600 0.550781
O O4 0.903114 0.639887 0.532749
O O5 0.004637 0.698423 0.725402
O O6 0.124898 0.562449 0.446084
O O7 0.167065 0.583533 0.950754
O O8 0.753315 0.246686 0.029720
O O9 0.801880 0.350083 0.066920
O O10 0.840444 0.293163 0.297081
O O11 0.843939 0.296468 0.798277
O O12 0.408694 0.204347 0.559724
#
# Coordination Sequence:
#
# PCOD9585349 Si02
#       6
#    12  12   6  12   6  12
#     4  10  19  30  42  60  88 117 141 167 205 252
#     4  10  19  30  47  70  94 118 147 183 224 260
#     4  12  22  31  46  64  86 112 140 170 204 270
#     4  10  21  36  52  70  88 113 150 187 229 280
#     4  12  22  33  50  68  84 106 138 178 230 264
#     4  10  20  36  55  71  94 122 153 186 222 272
#
# _framework density 16.184767999999998
#
# number of rings (size 3 to 8) (size 9 to 14) (size 15 to 20)
#    0.000    1.600    0.000    6.600    0.000    3.200 
#    0.600    0.000    0.000    0.000    0.000    0.000 
#    0.000    0.000    0.000    0.000    0.000    0.000 
#
# Total GULP energy -334609.138087 kJ/mol
# GULP energy per Si atom -5576.818968 kJ/mol
# Density = 1.614793 g / cm^3
# Si number density = 16.184768 Si / 1000 Ang^3
#
#
#
# Elastic Constant Matrix: (Units=GPa)
#
#
# Indices 1 2 3 4 5 6 
#
# 1 44.1492 25.9524 18.6870 0.0000 0.0000 0.0000
# 2 25.9524 44.1492 18.6870 0.0000 0.0000 0.0000
# 3 18.6870 18.6870 93.4265 0.0000 0.0000 0.0000
# 4 0.0000 0.0000 0.0000 14.7909 0.0000 0.0000
# 5 0.0000 0.0000 0.0000 0.0000 14.7909 0.0000
# 6 0.0000 0.0000 0.0000 0.0000 0.0000 9.0984
#
#
#
# Elastic Compliance Matrix: (Units=1/GPa)
#
#
# Indices 1 2 3 4 5 6 
#
# 1 0.035461 -0.019493 -0.003194 0.000000 0.000000 0.000000
# 2 -0.019493 0.035461 -0.003194 0.000000 0.000000 0.000000
# 3 -0.003194 -0.003194 0.011981 0.000000 0.000000 0.000000
# 4 0.000000 0.000000 0.000000 0.067609 0.000000 0.000000
# 5 0.000000 0.000000 0.000000 0.000000 0.067609 0.000000
# 6 0.000000 0.000000 0.000000 0.000000 0.000000 0.109909
#
#
# Mechanical properties :
#
#
# Convention : Reuss Voigt Hill
#
# Bulk Modulus (GPa) = 32.11158 34.26420 33.18789
# Shear Modulus (GPa) = 12.81481 15.62928 14.22205
#
# Velocity S-wave (km/s) = 2.81691 3.11091 2.96755
# Velocity P-wave (km/s) = 5.51939 5.84126 5.68260
#
# Compressibility (1/GPa) = 0.03114141
#
# Stress axis : x y z
#
# Youngs Moduli (GPa) = 28.19987 28.19987 83.46368
#
# Poissons Ratio (x) = 0.54971 0.26657
# Poissons Ratio (y) = 0.54971 0.26657
# Poissons Ratio (z) = 0.09007 0.09007
#
# Static dielectric constant tensor:
#      x y z
#    x 1.559240 0.000000 0.000000 
#    y 0.000000 1.559240 0.000000 
#    z 0.000000 0.000000 1.597320 
# 
# From -- ./inp_files/366.got.cif
#   From: 2010.05.17/outbox.cif.g08.bks.cpg/sg186_1_cif.got.tgz:366.got - 2010.05.20 12:07:08.
