data_PCOD9585478
_publ_section_title
;
Structure prediction by ZEFSAII (Michael W. Deem and Ramdas Pophale) SiO2 
 PCOD9585478
Probable space group: P -6 M 2
;
_chemical_formula_sum "Si O2"
_cell_formula_units_Z 60
_cell_length_a 23.797460
_cell_length_b 23.797460
_cell_length_c 7.740087
_cell_angle_alpha 90.000000
_cell_angle_beta 90.000000
_cell_angle_gamma 120.000000
_cell_volume 3796.100354
_symmetry_space_group_name_H-M "P -6 M 2"
_symmetry_group_IT_number 187
_symmetry_cell_setting 'hexagonal'
loop_
_space_group_symop_operation_xyz
x,y,z
-x+y,-x,-z
-y,x-y,z
x,y,-z
-x+y,-x,z
-y,x-y,-z
-y,-x,-z
-x+y,y,-z
x,x-y,-z
-x+y,y,z
x,x-y,z
-y,-x,z
loop_
_atom_site_type_symbol
_atom_site_label
_atom_site_fract_x
_atom_site_fract_y
_atom_site_fract_z
Si Si1 0.714325 0.922337 0.806636
Si Si2 0.536615 0.593985 0.500000
Si Si3 0.614208 0.740724 0.500000
Si Si4 0.404833 0.140478 0.208471
Si Si5 0.935700 0.746472 0.295888
Si Si6 0.951296 0.541097 0.203960
O O1 0.733170 0.866585 0.781253
O O2 0.660001 0.908426 0.665004
O O3 0.775375 0.993721 0.786412
O O4 0.687810 0.915433 0.000000
O O5 0.460955 0.539046 0.500000
O O6 0.554483 0.668224 0.500000
O O7 0.568612 0.580445 0.668465
O O8 0.597739 0.798870 0.500000
O O9 0.426901 0.213451 0.268908
O O10 0.330717 0.095793 0.268478
O O11 0.445769 0.106355 0.257856
O O12 0.404110 0.141298 0.000000
O O13 0.943488 0.759465 0.500000
O O14 0.881702 0.763404 0.229427
O O15 0.932491 0.466246 0.220288
O O16 0.966633 0.558999 0.000000
#
# Coordination Sequence:
#
# PCOD9585478 Si02
#       6
#    12   6   6  12  12  12
#     4  10  20  33  50  71  95 126 160 194 237 283
#     4  10  20  32  49  72  95 121 155 185 223 281
#     4  10  20  34  51  72  99 125 151 191 235 279
#     4   9  17  28  43  64  90 121 156 193 234 278
#     4  10  19  29  44  68  95 122 153 190 233 277
#     4   9  18  31  46  66  94 125 156 194 236 275
#
# _framework density 15.805695
#
# number of rings (size 3 to 8) (size 9 to 14) (size 15 to 20)
#    0.000    2.400    1.000    1.800    1.400    3.600 
#    0.000    0.000    0.000    1.000    0.000    2.800 
#    0.000    0.000    0.000   10.000    0.000    0.000 
#
# Total GULP energy -334423.956482 kJ/mol
# GULP energy per Si atom -5573.732608 kJ/mol
# Density = 1.576972 g / cm^3
# Si number density = 15.805695 Si / 1000 Ang^3
#
#
#
# Elastic Constant Matrix: (Units=GPa)
#
#
# Indices 1 2 3 4 5 6 
#
# 1 93.2548 50.8143 33.8576 0.0000 0.0002 0.0000
# 2 50.8143 93.2548 33.8576 0.0000 -0.0002 0.0000
# 3 33.8576 33.8576 64.4839 0.0000 0.0000 0.0000
# 4 0.0000 0.0000 0.0000 17.5636 0.0000 -0.0002
# 5 0.0002 -0.0002 0.0000 0.0000 17.5636 0.0000
# 6 0.0000 0.0000 0.0000 -0.0002 0.0000 21.2202
#
#
#
# Elastic Compliance Matrix: (Units=1/GPa)
#
#
# Indices 1 2 3 4 5 6 
#
# 1 0.016389 -0.007174 -0.004839 0.000000 0.000000 0.000000
# 2 -0.007174 0.016389 -0.004839 0.000000 0.000000 0.000000
# 3 -0.004839 -0.004839 0.020589 0.000000 0.000000 0.000000
# 4 0.000000 0.000000 0.000000 0.056936 0.000000 0.000001
# 5 0.000000 0.000000 0.000000 0.000000 0.056936 0.000000
# 6 0.000000 0.000000 0.000000 0.000001 0.000000 0.047125
#
#
# Mechanical properties :
#
#
# Convention : Reuss Voigt Hill
#
# Bulk Modulus (GPa) = 50.85126 54.22804 52.53965
# Shear Modulus (GPa) = 19.63715 20.10043 19.86879
#
# Velocity S-wave (km/s) = 3.52861 3.56999 3.54936
# Velocity P-wave (km/s) = 6.98885 7.16776 7.07887
#
# Compressibility (1/GPa) = 0.01966520
#
# Stress axis : x y z
#
# Youngs Moduli (GPa) = 61.01704 61.01704 48.57023
#
# Poissons Ratio (x) = 0.43771 0.23501
# Poissons Ratio (y) = 0.43771 0.23501
# Poissons Ratio (z) = 0.29523 0.29523
#
# Static dielectric constant tensor:
#      x y z
#    x 1.517270 0.000000 0.000000 
#    y 0.000000 1.517270 0.000000 
#    z 0.000000 0.000000 1.567220 
# 
# From -- ./inp_files/897.got.cif
#   From: 2010.05.17/outbox.cif.g08.bks.cpg/sg187_1_cif.got.tgz:897.got - 2010.05.20 12:09:04.
