data_PCOD9585057
_publ_section_title
;
Structure prediction by ZEFSAII (Michael W. Deem and Ramdas Pophale) SiO2 
 PCOD9585057
Probable space group: P 6 M M
;
_chemical_formula_sum "Si O2"
_cell_formula_units_Z 84
_cell_length_a 18.307000
_cell_length_b 18.307000
_cell_length_c 18.296432
_cell_angle_alpha 90.000000
_cell_angle_beta 90.000000
_cell_angle_gamma 120.000000
_cell_volume 5310.450936
_symmetry_space_group_name_H-M "P 6 M M"
_symmetry_group_IT_number 183
_symmetry_cell_setting 'hexagonal'
loop_
_space_group_symop_operation_xyz
x,y,z
x-y,x,z
-y,x-y,z
-x,-y,z
-x+y,-x,z
y,-x+y,z
-x+y,y,z
x,x-y,z
-y,-x,z
y,x,z
x-y,-y,z
-x,-x+y,z
loop_
_atom_site_type_symbol
_atom_site_label
_atom_site_fract_x
_atom_site_fract_y
_atom_site_fract_z
Si Si1 0.162439 0.496465 0.336650
Si Si2 0.666048 0.503424 0.507812
Si Si3 0.360926 0.094930 0.632159
Si Si4 0.899295 0.532890 0.079575
Si Si5 0.492610 0.332421 0.761615
Si Si6 0.902182 0.638993 0.213086
Si Si7 0.331763 0.495147 0.923605
O O1 0.259910 0.519819 0.328888
O O2 0.152080 0.576040 0.316443
O O3 0.140487 0.477356 0.422292
O O4 0.109519 0.417193 0.284724
O O5 0.739668 0.479336 0.515930
O O6 0.576289 0.423712 0.528278
O O7 0.693031 0.582677 0.559817
O O8 0.337179 0.168590 0.634698
O O9 0.423804 0.110975 0.699955
O O10 0.284881 0.000000 0.633883
O O11 0.865067 0.432534 0.088111
O O12 0.874923 0.573994 0.145035
O O13 0.000000 0.577846 0.082750
O O14 0.876013 0.551308 0.999370
O O15 0.516423 0.258212 0.755189
O O16 0.576523 0.423478 0.753615
O O17 0.455522 0.324509 0.843652
O O18 0.835981 0.671962 0.217928
O O19 0.000000 0.708695 0.204556
O O20 0.261107 0.522214 0.925287
O O21 0.423852 0.576149 0.924661
#
# Coordination Sequence:
#
# PCOD9585057 Si02
#       7
#    12  12  12  12  12  12  12
#     4   9  17  29  46  69  97 128 158 184 209 241
#     4   9  17  29  46  69  98 130 159 183 207 240
#     4  10  21  35  49  66  88 114 145 184 230 274
#     4   9  17  28  42  62  88 116 145 178 217 260
#     4   9  17  28  43  64  92 126 159 187 213 245
#     4  10  20  33  48  65  86 113 146 185 229 275
#     4   9  16  26  40  59  85 118 154 185 209 236
#
# _framework density 15.817866
#
# number of rings (size 3 to 8) (size 9 to 14) (size 15 to 20)
#    0.000    2.714    0.000    1.857    0.000    5.429 
#    0.000    4.286    0.000    4.857    0.000    0.000 
#    0.000    0.000    0.000    7.143    0.000   18.571 
#
# Total GULP energy -467933.211498 kJ/mol
# GULP energy per Si atom -5570.633470 kJ/mol
# Density = 1.578186 g / cm^3
# Si number density = 15.817866 Si / 1000 Ang^3
#
#
#
# Elastic Constant Matrix: (Units=GPa)
#
#
# Indices 1 2 3 4 5 6 
#
# 1 58.7758 42.1098 34.3910 0.0000 0.0000 0.0000
# 2 42.1098 58.7758 34.3910 0.0000 0.0000 0.0000
# 3 34.3910 34.3910 68.7829 0.0000 0.0000 0.0000
# 4 0.0000 0.0000 0.0000 17.3516 0.0000 0.0000
# 5 0.0000 0.0000 0.0000 0.0000 17.3516 0.0000
# 6 0.0000 0.0000 0.0000 0.0000 0.0000 8.3330
#
#
#
# Elastic Compliance Matrix: (Units=1/GPa)
#
#
# Indices 1 2 3 4 5 6 
#
# 1 0.037521 -0.022482 -0.007519 0.000000 0.000000 0.000000
# 2 -0.022482 0.037521 -0.007519 0.000000 0.000000 0.000000
# 3 -0.007519 -0.007519 0.022058 0.000000 0.000000 0.000000
# 4 0.000000 0.000000 0.000000 0.057631 0.000000 0.000000
# 5 0.000000 0.000000 0.000000 0.000000 0.057631 0.000000
# 6 0.000000 0.000000 0.000000 0.000000 0.000000 0.120005
#
#
# Mechanical properties :
#
#
# Convention : Reuss Voigt Hill
#
# Bulk Modulus (GPa) = 45.33492 45.34646 45.34069
# Shear Modulus (GPa) = 12.05516 13.63677 12.84596
#
# Velocity S-wave (km/s) = 2.76365 2.93936 2.85286
# Velocity P-wave (km/s) = 6.23751 6.34428 6.29112
#
# Compressibility (1/GPa) = 0.02205805
#
# Stress axis : x y z
#
# Youngs Moduli (GPa) = 26.65202 26.65202 45.33575
#
# Poissons Ratio (x) = 0.59919 0.34089
# Poissons Ratio (y) = 0.59919 0.34089
# Poissons Ratio (z) = 0.20040 0.20040
#
# Static dielectric constant tensor:
#      x y z
#    x 1.516070 0.000000 0.000000 
#    y 0.000000 1.516070 0.000000 
#    z 0.000000 0.000000 1.567600 
# 
# From -- ./inp_files/2900.got.cif
#   From: 2010.05.17/outbox.cif.g08.bks.cpg/sg183_2_cif.got.tgz:2900.got - 2010.05.20 12:02:58.
