data_PCOD9585359
_publ_section_title
;
Structure prediction by ZEFSAII (Michael W. Deem and Ramdas Pophale) SiO2 
 PCOD9585359
Probable space group: P 63 M C
;
_chemical_formula_sum "Si O2"
_cell_formula_units_Z 96
_cell_length_a 17.585244
_cell_length_b 17.585244
_cell_length_c 21.127095
_cell_angle_alpha 90.000000
_cell_angle_beta 90.000000
_cell_angle_gamma 120.000000
_cell_volume 5658.055643
_symmetry_space_group_name_H-M "P 63 M C"
_symmetry_group_IT_number 186
_symmetry_cell_setting 'hexagonal'
loop_
_space_group_symop_operation_xyz
x,y,z
x-y,x,1/2+z
-y,x-y,z
-x,-y,1/2+z
-x+y,-x,z
y,-x+y,1/2+z
-x+y,y,z
x,x-y,z
-y,-x,z
y,x,1/2+z
x-y,-y,1/2+z
-x,-x+y,1/2+z
loop_
_atom_site_type_symbol
_atom_site_label
_atom_site_fract_x
_atom_site_fract_y
_atom_site_fract_z
Si Si1 0.666484 0.511490 0.526340
Si Si2 0.294138 0.057418 0.330356
Si Si3 0.938067 0.243505 0.091134
Si Si4 0.596675 0.576172 0.257407
Si Si5 0.698994 0.939028 0.973506
Si Si6 0.154040 0.486894 0.174400
Si Si7 0.000337 0.180223 0.206750
Si Si8 0.153477 0.489215 0.641685
O O1 0.743660 0.487320 0.520258
O O2 0.572444 0.427557 0.513524
O O3 0.692689 0.594874 0.482185
O O4 0.669214 0.538401 0.600350
O O5 0.320305 0.160153 0.327289
O O6 0.371511 0.039986 0.310030
O O7 0.269038 0.028655 0.402642
O O8 0.220155 0.009696 0.276758
O O9 0.848778 0.151223 0.090850
O O10 0.988431 0.239983 0.154030
O O11 0.907828 0.315675 0.096432
O O12 0.991521 0.254112 0.028378
O O13 0.507196 0.492805 0.281176
O O14 0.567738 0.637711 0.219098
O O15 0.640754 0.539466 0.207954
O O16 0.710989 0.855495 0.985449
O O17 0.238720 0.477441 0.189806
O O18 0.177452 0.588726 0.178664
O O19 0.918569 0.081432 0.198548
O O20 0.091849 0.183698 0.198612
O O21 0.248080 0.496160 0.646768
O O22 0.161702 0.580851 0.622173
#
# Coordination Sequence:
#
# PCOD9585359 Si02
#       8
#    12  12  12  12  12  12  12  12
#     4   9  17  29  47  72 103 137 172 210 252 305
#     4  10  21  37  52  72 105 140 171 212 260 307
#     4  10  20  35  55  79 106 133 166 216 263 302
#     4  10  19  31  49  73 101 135 178 223 262 308
#     4  10  21  35  52  75 105 139 173 206 255 316
#     4   9  17  29  47  74 107 140 174 215 266 319
#     4  10  20  35  57  80 103 131 166 208 257 312
#     4  10  19  33  53  77 106 139 176 218 263 309
#
# _framework density 16.966958999999999
#
# number of rings (size 3 to 8) (size 9 to 14) (size 15 to 20)
#    0.000    2.250    1.250    2.000    0.000    4.000 
#    0.000    0.000    0.000    0.500    0.000    0.000 
#    0.000    5.000    0.000    0.000    0.000    0.000 
#
# Total GULP energy -535459.634343 kJ/mol
# GULP energy per Si atom -5577.704524 kJ/mol
# Density = 1.692834 g / cm^3
# Si number density = 16.966959 Si / 1000 Ang^3
#
#
#
# Elastic Constant Matrix: (Units=GPa)
#
#
# Indices 1 2 3 4 5 6 
#
# 1 81.1464 43.5046 39.4911 0.0000 0.0000 0.0000
# 2 43.5046 81.1464 39.4911 0.0000 0.0000 0.0000
# 3 39.4911 39.4911 83.9528 0.0000 0.0000 0.0000
# 4 0.0000 0.0000 0.0000 20.1995 0.0000 0.0000
# 5 0.0000 0.0000 0.0000 0.0000 20.1995 0.0000
# 6 0.0000 0.0000 0.0000 0.0000 0.0000 18.8209
#
#
#
# Elastic Compliance Matrix: (Units=1/GPa)
#
#
# Indices 1 2 3 4 5 6 
#
# 1 0.018998 -0.007569 -0.005376 0.000000 0.000000 0.000000
# 2 -0.007569 0.018998 -0.005376 0.000000 0.000000 0.000000
# 3 -0.005376 -0.005376 0.016969 0.000000 0.000000 0.000000
# 4 0.000000 0.000000 0.000000 0.049506 0.000000 0.000000
# 5 0.000000 0.000000 0.000000 0.000000 0.049506 0.000000
# 6 0.000000 0.000000 0.000000 0.000000 0.000000 0.053132
#
#
# Mechanical properties :
#
#
# Convention : Reuss Voigt Hill
#
# Bulk Modulus (GPa) = 54.57749 54.57989 54.57869
# Shear Modulus (GPa) = 20.01134 20.09456 20.05295
#
# Velocity S-wave (km/s) = 3.43801 3.44515 3.44158
# Velocity P-wave (km/s) = 6.92796 6.93279 6.93038
#
# Compressibility (1/GPa) = 0.01832257
#
# Stress axis : x y z
#
# Youngs Moduli (GPa) = 52.63844 52.63844 58.93022
#
# Poissons Ratio (x) = 0.39840 0.31681
# Poissons Ratio (y) = 0.39840 0.31681
# Poissons Ratio (z) = 0.28299 0.28299
#
# Static dielectric constant tensor:
#      x y z
#    x 1.577140 0.000000 0.000000 
#    y 0.000000 1.577140 0.000000 
#    z 0.000000 0.000000 1.557100 
# 
# From -- ./inp_files/3542.got.cif
#   From: 2010.05.17/outbox.cif.g08.bks.cpg/sg186_2_cif.got.tgz:3542.got - 2010.05.20 12:07:08.
