data_PCOD9585010
_publ_section_title
;
Structure prediction by ZEFSAII (Michael W. Deem and Ramdas Pophale) SiO2 
 PCOD9585010
Probable space group: P 6 M M
;
_chemical_formula_sum "Si O2"
_cell_formula_units_Z 84
_cell_length_a 18.376881
_cell_length_b 18.376881
_cell_length_c 17.956784
_cell_angle_alpha 90.000000
_cell_angle_beta 90.000000
_cell_angle_gamma 120.000000
_cell_volume 5251.734912
_symmetry_space_group_name_H-M "P 6 M M"
_symmetry_group_IT_number 183
_symmetry_cell_setting 'hexagonal'
loop_
_space_group_symop_operation_xyz
x,y,z
x-y,x,z
-y,x-y,z
-x,-y,z
-x+y,-x,z
y,-x+y,z
-x+y,y,z
x,x-y,z
-y,-x,z
y,x,z
x-y,-y,z
-x,-x+y,z
loop_
_atom_site_type_symbol
_atom_site_label
_atom_site_fract_x
_atom_site_fract_y
_atom_site_fract_z
Si Si1 0.331416 0.496762 0.451520
Si Si2 0.163615 0.497687 0.025018
Si Si3 0.640199 0.905054 0.324186
Si Si4 0.163615 0.497686 0.200202
Si Si5 0.459864 0.364096 0.612610
Si Si6 0.359801 0.094947 0.901035
Si Si7 0.496762 0.165347 0.773701
O O1 0.262732 0.525463 0.438933
O O2 0.424868 0.575132 0.441740
O O3 0.309606 0.422586 0.393555
O O4 0.321907 0.462919 0.535791
O O5 0.260752 0.521504 0.015612
O O6 0.152916 0.576458 0.003270
O O7 0.143383 0.480488 0.112610
O O8 0.110415 0.417165 0.973988
O O9 0.665071 0.832536 0.325294
O O10 0.582836 0.889586 0.251232
O O11 0.715051 0.000000 0.326365
O O12 0.260752 0.521503 0.209609
O O13 0.152916 0.576458 0.221951
O O14 0.546624 0.453377 0.612610
O O15 0.385133 0.385133 0.612611
O O16 0.462920 0.321908 0.689429
O O17 0.334926 0.167463 0.899929
O O18 0.422585 0.112983 0.831665
O O19 0.284950 0.000000 0.898856
O O20 0.575132 0.150263 0.783482
O O21 0.525466 0.262733 0.786287
#
# Coordination Sequence:
#
# PCOD9585010 Si02
#       7
#    12  12  12  12  12  12  12
#     4  10  19  30  45  66  94 127 160 191 223 263
#     4   9  17  29  46  69  98 131 163 191 218 252
#     4  10  21  35  50  68  90 117 149 188 234 280
#     4   9  17  29  46  69  98 131 163 191 218 252
#     4   9  17  28  42  60  84 119 163 205 235 256
#     4  10  21  35  50  68  90 117 149 188 234 280
#     4  10  19  30  45  66  94 127 160 191 223 263
#
# _framework density 15.994714
#
# number of rings (size 3 to 8) (size 9 to 14) (size 15 to 20)
#    0.000    2.429    0.000    2.714    0.000    5.143 
#    0.000    5.714    0.000    0.286    0.000    0.000 
#    0.000    0.000    0.000    7.143    0.000   29.714 
#
# Total GULP energy -468501.708514 kJ/mol
# GULP energy per Si atom -5577.401292 kJ/mol
# Density = 1.595831 g / cm^3
# Si number density = 15.994714 Si / 1000 Ang^3
#
#
#
# Elastic Constant Matrix: (Units=GPa)
#
#
# Indices 1 2 3 4 5 6 
#
# 1 76.6201 61.6905 33.4733 0.0000 0.0000 0.0000
# 2 61.6905 76.6201 33.4733 0.0000 0.0000 0.0000
# 3 33.4733 33.4733 63.4649 0.0000 0.0000 0.0000
# 4 0.0000 0.0000 0.0000 14.6441 0.0000 0.0000
# 5 0.0000 0.0000 0.0000 0.0000 14.6441 0.0000
# 6 0.0000 0.0000 0.0000 0.0000 0.0000 7.4648
#
#
#
# Elastic Compliance Matrix: (Units=1/GPa)
#
#
# Indices 1 2 3 4 5 6 
#
# 1 0.038345 -0.028636 -0.005121 0.000000 0.000000 0.000000
# 2 -0.028636 0.038345 -0.005121 0.000000 0.000000 0.000000
# 3 -0.005121 -0.005121 0.021158 0.000000 0.000000 0.000000
# 4 0.000000 0.000000 0.000000 0.068287 0.000000 0.000000
# 5 0.000000 0.000000 0.000000 0.000000 0.068287 0.000000
# 6 0.000000 0.000000 0.000000 0.000000 0.000000 0.133963
#
#
# Mechanical properties :
#
#
# Convention : Reuss Voigt Hill
#
# Bulk Modulus (GPa) = 49.76845 52.66437 51.21641
# Shear Modulus (GPa) = 11.04150 13.22180 12.13165
#
# Velocity S-wave (km/s) = 2.63025 2.87825 2.75704
# Velocity P-wave (km/s) = 6.35668 6.63651 6.49810
#
# Compressibility (1/GPa) = 0.02009305
#
# Stress axis : x y z
#
# Youngs Moduli (GPa) = 26.07904 26.07904 47.26283
#
# Poissons Ratio (x) = 0.74681 0.24202
# Poissons Ratio (y) = 0.74681 0.24202
# Poissons Ratio (z) = 0.13354 0.13354
#
# Static dielectric constant tensor:
#      x y z
#    x 1.521420 0.000000 0.000000 
#    y 0.000000 1.521420 0.000000 
#    z 0.000000 0.000000 1.555530 
# 
# From -- ./inp_files/2876.got.cif
#   From: 2010.05.17/outbox.cif.g08.bks.cpg/sg183_2_cif.got.tgz:2876.got - 2010.05.20 12:02:58.
