data_PCOD9585990
_publ_section_title
;
Structure prediction by ZEFSAII (Michael W. Deem and Ramdas Pophale) SiO2 
 PCOD9585990
Probable space group: P -6 C 2
;
_chemical_formula_sum "Si O2"
_cell_formula_units_Z 66
_cell_length_a 20.327325
_cell_length_b 20.327325
_cell_length_c 9.611399
_cell_angle_alpha 90.000000
_cell_angle_beta 90.000000
_cell_angle_gamma 120.000000
_cell_volume 3439.360506
_symmetry_space_group_name_H-M "P -6 C 2"
_symmetry_group_IT_number 188
_symmetry_cell_setting 'hexagonal'
loop_
_space_group_symop_operation_xyz
x,y,z
-x+y,-x,1/2-z
-y,x-y,z
x,y,1/2-z
-x+y,-x,z
-y,x-y,1/2-z
-y,-x,-z
-x+y,y,-z
x,x-y,-z
-x+y,y,1/2+z
x,x-y,1/2+z
-y,-x,1/2+z
loop_
_atom_site_type_symbol
_atom_site_label
_atom_site_fract_x
_atom_site_fract_y
_atom_site_fract_z
Si Si1 0.254219 0.127110 0.000000
Si Si2 0.919745 0.627755 0.098160
Si Si3 0.041913 0.200619 0.408704
Si Si4 0.060881 0.359130 0.415343
Si Si5 0.469764 0.665564 0.079581
Si Si6 0.662365 0.454798 0.912035
O O1 0.310386 0.203179 0.084251
O O2 0.201506 0.049175 0.081154
O O3 0.954989 0.636024 0.250000
O O4 0.847363 0.544882 0.086512
O O5 0.982537 0.640851 0.985510
O O6 0.065929 0.205477 0.250000
O O7 0.083807 0.167613 0.500000
O O8 0.068366 0.286467 0.460262
O O9 0.050649 0.352355 0.250000
O O10 0.130875 0.442368 0.444351
O O11 0.457380 0.662683 0.250000
O O12 0.412783 0.587218 0.000000
O O13 0.457328 0.728664 0.000000
O O14 0.653024 0.430472 0.750000
O O15 0.585080 0.414921 0.000000
O O16 0.718025 0.436050 0.000000
#
# Coordination Sequence:
#
# PCOD9585990 Si02
#       6
#     6  12  12  12  12  12
#     4  10  20  40  62  88 118 156 206 250 296 362
#     4  10  21  37  62  90 116 153 202 250 303 357
#     4  10  21  37  60  88 118 153 193 243 296 353
#     4   9  21  39  60  86 118 154 194 242 297 351
#     4  11  23  40  61  87 119 158 199 244 296 356
#     4  11  23  39  58  84 116 157 200 248 302 359
#
# _framework density 19.189613999999999
#
# number of rings (size 3 to 8) (size 9 to 14) (size 15 to 20)
#    0.000    1.818    0.909    2.545    0.000    8.000 
#    0.545    3.636    0.000    0.000    0.000    0.000 
#    0.000    0.000    0.000    0.000    0.000    0.000 
#
# Total GULP energy -368012.352920 kJ/mol
# GULP energy per Si atom -5575.944741 kJ/mol
# Density = 1.914594 g / cm^3
# Si number density = 19.189614 Si / 1000 Ang^3
#
#
#
# Elastic Constant Matrix: (Units=GPa)
#
#
# Indices 1 2 3 4 5 6 
#
# 1 76.2577 33.9618 37.5854 0.0003 0.0000 0.0000
# 2 33.9618 76.2577 37.5854 -0.0003 0.0000 0.0000
# 3 37.5854 37.5854 83.4914 0.0000 0.0000 0.0000
# 4 0.0003 -0.0003 0.0000 23.6415 0.0000 0.0000
# 5 0.0000 0.0000 0.0000 0.0000 23.6415 0.0003
# 6 0.0000 0.0000 0.0000 0.0000 0.0003 21.1479
#
#
#
# Elastic Compliance Matrix: (Units=1/GPa)
#
#
# Indices 1 2 3 4 5 6 
#
# 1 0.018368 -0.005275 -0.005894 0.000000 0.000000 0.000000
# 2 -0.005275 0.018368 -0.005894 0.000000 0.000000 0.000000
# 3 -0.005894 -0.005894 0.017284 0.000000 0.000000 0.000000
# 4 0.000000 0.000000 0.000000 0.042298 0.000000 0.000000
# 5 0.000000 0.000000 0.000000 0.000000 0.042298 -0.000001
# 6 0.000000 0.000000 0.000000 0.000000 -0.000001 0.047286
#
#
# Mechanical properties :
#
#
# Convention : Reuss Voigt Hill
#
# Bulk Modulus (GPa) = 50.26818 50.47467 50.37142
# Shear Modulus (GPa) = 22.05958 22.14449 22.10204
#
# Velocity S-wave (km/s) = 3.39419 3.40072 3.39746
# Velocity P-wave (km/s) = 6.45082 6.46375 6.45729
#
# Compressibility (1/GPa) = 0.01989330
#
# Stress axis : x y z
#
# Youngs Moduli (GPa) = 54.44339 54.44339 57.85780
#
# Poissons Ratio (x) = 0.28720 0.34100
# Poissons Ratio (y) = 0.28720 0.34100
# Poissons Ratio (z) = 0.32088 0.32088
#
# Static dielectric constant tensor:
#      x y z
#    x 1.675490 0.000000 0.000000 
#    y 0.000000 1.675490 0.000000 
#    z 0.000000 0.000000 1.660670 
# 
# From -- ./inp_files/772.got.cif
#   From: 2010.05.17/outbox.cif.g08.bks.cpg/sg188_1_cif.got.tgz:772.got - 2010.05.20 12:11:46.
