data_PCOD9585962
_publ_section_title
;
Structure prediction by ZEFSAII (Michael W. Deem and Ramdas Pophale) SiO2 
 PCOD9585962
Probable space group: P -6 C 2
;
_chemical_formula_sum "Si O2"
_cell_formula_units_Z 36
_cell_length_a 15.122254
_cell_length_b 15.122254
_cell_length_c 9.282457
_cell_angle_alpha 90.000000
_cell_angle_beta 90.000000
_cell_angle_gamma 120.000000
_cell_volume 1838.343376
_symmetry_space_group_name_H-M "P -6 C 2"
_symmetry_group_IT_number 188
_symmetry_cell_setting 'hexagonal'
loop_
_space_group_symop_operation_xyz
x,y,z
-x+y,-x,1/2-z
-y,x-y,z
x,y,1/2-z
-x+y,-x,z
-y,x-y,1/2-z
-y,-x,-z
-x+y,y,-z
x,x-y,-z
-x+y,y,1/2+z
x,x-y,1/2+z
-y,-x,1/2+z
loop_
_atom_site_type_symbol
_atom_site_label
_atom_site_fract_x
_atom_site_fract_y
_atom_site_fract_z
Si Si1 0.576545 0.423456 0.000000
Si Si2 0.071335 0.675687 0.250000
Si Si3 0.826898 0.285056 0.750000
Si Si4 0.416157 0.347917 0.750000
Si Si5 0.491962 0.858824 0.750000
Si Si6 0.223701 0.447401 0.000000
O O1 0.670034 0.465516 0.886965
O O2 0.483401 0.397086 0.893021
O O3 0.097891 0.584454 0.250000
O O4 0.126242 0.741451 0.393644
O O5 0.948373 0.619118 0.250000
O O6 0.766278 0.162804 0.750000
O O7 0.337789 0.388333 0.750000
O O8 0.483079 0.797199 0.891866
#
# Coordination Sequence:
#
# PCOD9585962 Si02
#       6
#     6   6   6   6   6   6
#     4  10  20  36  50  81 118 160 196 233 268 344
#     4  11  21  41  59  79 123 153 191 253 294 347
#     4  11  22  38  58  83 114 164 195 231 294 355
#     4  11  22  38  58  83 114 164 195 231 294 355
#     4  11  21  41  59  79 123 153 191 253 294 347
#     4  10  24  36  56  83 104 162 200 231 302 346
#
# _framework density 19.582850000000001
#
# number of rings (size 3 to 8) (size 9 to 14) (size 15 to 20)
#    0.000    1.333    3.333    4.000    0.000    0.000 
#   40.000    0.000    0.000    0.000    0.000    0.000 
#   33.333    0.000    0.000    0.000    0.000    0.000 
#
# Total GULP energy -200886.308156 kJ/mol
# GULP energy per Si atom -5580.175227 kJ/mol
# Density = 1.953828 g / cm^3
# Si number density = 19.582850 Si / 1000 Ang^3
#
#
#
# Elastic Constant Matrix: (Units=GPa)
#
#
# Indices 1 2 3 4 5 6 
#
# 1 92.2789 57.4882 42.5310 -0.0001 0.0000 0.0000
# 2 57.4882 92.2789 42.5310 0.0001 0.0000 0.0000
# 3 42.5310 42.5310 173.9358 0.0000 0.0000 0.0000
# 4 -0.0001 0.0001 0.0000 16.5457 0.0000 0.0000
# 5 0.0000 0.0000 0.0000 0.0000 16.5457 -0.0001
# 6 0.0000 0.0000 0.0000 0.0000 -0.0001 17.3953
#
#
#
# Elastic Compliance Matrix: (Units=1/GPa)
#
#
# Indices 1 2 3 4 5 6 
#
# 1 0.018249 -0.010495 -0.001896 0.000000 0.000000 0.000000
# 2 -0.010495 0.018249 -0.001896 0.000000 0.000000 0.000000
# 3 -0.001896 -0.001896 0.006676 0.000000 0.000000 0.000000
# 4 0.000000 0.000000 0.000000 0.060439 0.000000 0.000000
# 5 0.000000 0.000000 0.000000 0.000000 0.060439 0.000000
# 6 0.000000 0.000000 0.000000 0.000000 0.000000 0.057487
#
#
# Mechanical properties :
#
#
# Convention : Reuss Voigt Hill
#
# Bulk Modulus (GPa) = 68.49186 71.51044 70.00115
# Shear Modulus (GPa) = 19.60953 24.49357 22.05155
#
# Velocity S-wave (km/s) = 3.16786 3.54045 3.35933
# Velocity P-wave (km/s) = 6.95930 7.30132 7.13236
#
# Compressibility (1/GPa) = 0.01460027
#
# Stress axis : x y z
#
# Youngs Moduli (GPa) = 54.79874 54.79874 149.77992
#
# Poissons Ratio (x) = 0.57510 0.28398
# Poissons Ratio (y) = 0.57510 0.28398
# Poissons Ratio (z) = 0.10390 0.10390
#
# Static dielectric constant tensor:
#      x y z
#    x 1.723860 0.000000 0.000000 
#    y 0.000000 1.723860 0.000000 
#    z 0.000000 0.000000 1.732690 
# 
# From -- ./inp_files/285.got.cif
#   From: 2010.05.17/outbox.cif.g08.bks.cpg/sg188_1_cif.got.tgz:285.got - 2010.05.20 12:11:46.
