data_PCOD9585365
_publ_section_title
;
Structure prediction by ZEFSAII (Michael W. Deem and Ramdas Pophale) SiO2 
 PCOD9585365
Probable space group: P 63 M C
;
_chemical_formula_sum "Si O2"
_cell_formula_units_Z 72
_cell_length_a 23.684449
_cell_length_b 23.684449
_cell_length_c 8.108042
_cell_angle_alpha 90.000000
_cell_angle_beta 90.000000
_cell_angle_gamma 120.000000
_cell_volume 3938.884015
_symmetry_space_group_name_H-M "P 63 M C"
_symmetry_group_IT_number 186
_symmetry_cell_setting 'hexagonal'
loop_
_space_group_symop_operation_xyz
x,y,z
x-y,x,1/2+z
-y,x-y,z
-x,-y,1/2+z
-x+y,-x,z
y,-x+y,1/2+z
-x+y,y,z
x,x-y,z
-y,-x,z
y,x,1/2+z
x-y,-y,1/2+z
-x,-x+y,1/2+z
loop_
_atom_site_type_symbol
_atom_site_label
_atom_site_fract_x
_atom_site_fract_y
_atom_site_fract_z
Si Si1 0.467408 0.667816 0.830370
Si Si2 0.314285 0.995274 0.022924
Si Si3 0.513476 0.486525 0.472399
Si Si4 0.448851 0.551150 0.323550
Si Si5 0.306129 0.820407 0.212862
Si Si6 0.899744 0.669037 0.778692
Si Si7 0.643653 0.068711 0.263623
O O1 0.456700 0.728350 0.795020
O O2 0.400951 0.599050 0.811892
O O3 0.526724 0.670956 0.725575
O O4 0.491629 0.675413 0.022087
O O5 0.319345 0.059730 0.945633
O O6 0.310551 0.944961 0.884912
O O7 0.383865 0.021123 0.115521
O O8 0.253425 0.955886 0.141822
O O9 0.474251 0.525750 0.473003
O O10 0.530447 0.469554 0.650778
O O11 0.469905 0.422024 0.364735
O O12 0.481443 0.628310 0.316928
O O13 0.252554 0.747447 0.263465
O O14 0.272136 0.864155 0.232983
O O15 0.844033 0.688066 0.783206
#
# Coordination Sequence:
#
# PCOD9585365 Si02
#       7
#    12  12   6   6  12  12  12
#     4  11  20  33  49  70  99 138 190 239 288 337
#     4  10  21  33  54  81 106 140 179 212 270 331
#     4  12  20  28  48  70 102 122 158 228 292 320
#     4  12  20  34  48  76  98 124 172 226 282 340
#     4  10  19  32  49  68  98 135 171 218 277 328
#     4  10  20  37  55  77 113 144 174 218 261 315
#     4  11  19  33  48  76 103 130 173 230 279 335
#
# _framework density 18.279288000000001
#
# number of rings (size 3 to 8) (size 9 to 14) (size 15 to 20)
#    0.000    1.333    5.000    3.167    0.000    0.667 
#    0.500    2.500    0.000    0.000    0.000    0.000 
#    0.000    0.000    0.000    5.000    0.000    0.000 
#
# Total GULP energy -402205.168329 kJ/mol
# GULP energy per Si atom -5586.182893 kJ/mol
# Density = 1.823768 g / cm^3
# Si number density = 18.279288 Si / 1000 Ang^3
#
#
#
# Elastic Constant Matrix: (Units=GPa)
#
#
# Indices 1 2 3 4 5 6 
#
# 1 105.7619 50.9659 27.1765 0.0000 0.0000 0.0000
# 2 50.9659 105.7619 27.1765 0.0000 0.0000 0.0000
# 3 27.1765 27.1765 45.3860 0.0000 0.0000 0.0000
# 4 0.0000 0.0000 0.0000 19.4523 0.0000 0.0000
# 5 0.0000 0.0000 0.0000 0.0000 19.4523 0.0000
# 6 0.0000 0.0000 0.0000 0.0000 0.0000 27.3980
#
#
#
# Elastic Compliance Matrix: (Units=1/GPa)
#
#
# Indices 1 2 3 4 5 6 
#
# 1 0.013151 -0.005098 -0.004822 0.000000 0.000000 0.000000
# 2 -0.005098 0.013151 -0.004822 0.000000 0.000000 0.000000
# 3 -0.004822 -0.004822 0.027808 0.000000 0.000000 0.000000
# 4 0.000000 0.000000 0.000000 0.051408 0.000000 0.000000
# 5 0.000000 0.000000 0.000000 0.000000 0.051408 0.000000
# 6 0.000000 0.000000 0.000000 0.000000 0.000000 0.036499
#
#
# Mechanical properties :
#
#
# Convention : Reuss Voigt Hill
#
# Bulk Modulus (GPa) = 40.60794 51.94977 46.27885
# Shear Modulus (GPa) = 21.63406 23.36660 22.50033
#
# Velocity S-wave (km/s) = 3.44398 3.57923 3.51225
# Velocity P-wave (km/s) = 6.17075 6.75003 6.46688
#
# Compressibility (1/GPa) = 0.02462573
#
# Stress axis : x y z
#
# Youngs Moduli (GPa) = 76.03926 76.03926 35.96124
#
# Poissons Ratio (x) = 0.38768 0.17340
# Poissons Ratio (y) = 0.38768 0.17340
# Poissons Ratio (z) = 0.36665 0.36665
#
# Static dielectric constant tensor:
#      x y z
#    x 1.634880 0.000000 0.000000 
#    y 0.000000 1.634880 0.000000 
#    z 0.000000 0.000000 1.699790 
# 
# From -- ./inp_files/1246.got.cif
#   From: 2010.05.17/outbox.cif.g08.bks.cpg/sg186_1_cif.got.tgz:1246.got - 2010.05.20 12:07:08.
