data_PCOD9585921
_publ_section_title
;
Structure prediction by ZEFSAII (Michael W. Deem and Ramdas Pophale) SiO2 
 PCOD9585921
Probable space group: P -6 C 2
;
_chemical_formula_sum "Si O2"
_cell_formula_units_Z 52
_cell_length_a 11.184357
_cell_length_b 11.184357
_cell_length_c 21.773412
_cell_angle_alpha 90.000000
_cell_angle_beta 90.000000
_cell_angle_gamma 120.000000
_cell_volume 2358.735071
_symmetry_space_group_name_H-M "P -6 C 2"
_symmetry_group_IT_number 188
_symmetry_cell_setting 'hexagonal'
loop_
_space_group_symop_operation_xyz
x,y,z
-x+y,-x,1/2-z
-y,x-y,z
x,y,1/2-z
-x+y,-x,z
-y,x-y,1/2-z
-y,-x,-z
-x+y,y,-z
x,x-y,-z
-x+y,y,1/2+z
x,x-y,1/2+z
-y,-x,1/2+z
loop_
_atom_site_type_symbol
_atom_site_label
_atom_site_fract_x
_atom_site_fract_y
_atom_site_fract_z
Si Si1 0.666667 0.333333 0.824728
Si Si2 0.280714 0.393792 0.382715
Si Si3 0.813636 0.615275 0.622087
Si Si4 0.390530 0.446012 0.938781
Si Si5 0.108555 0.313615 0.750000
Si Si6 0.283787 0.192393 0.750000
O O1 0.666667 0.333334 0.750000
O O2 0.786062 0.314481 0.855283
O O3 0.287430 0.251823 0.391854
O O4 0.175721 0.407952 0.428703
O O5 0.434376 0.520823 0.389785
O O6 0.232397 0.392914 0.313205
O O7 0.908040 0.654540 0.683746
O O8 0.909314 0.604198 0.570219
O O9 0.471776 0.528225 0.000000
O O10 0.139852 0.188084 0.750000
O O11 0.944427 0.239059 0.750000
#
# Coordination Sequence:
#
# PCOD9585921 Si02
#       6
#     4  12  12  12   6   6
#     4  12  21  39  70 104 151 183 228 313 383 436
#     4  11  25  44  71 108 142 190 247 303 374 445
#     4  11  23  41  70 108 143 187 244 304 367 446
#     4  12  26  47  71  98 149 201 247 305 364 428
#     4  10  21  37  69 107 146 192 231 304 381 446
#     4  10  19  37  63 105 152 184 227 300 373 448
#
# _framework density 22.045715999999999
#
# number of rings (size 3 to 8) (size 9 to 14) (size 15 to 20)
#    0.000    0.923    5.769    1.385    0.000    2.769 
#    1.385    0.000    0.000    0.000    0.000    0.000 
#    0.000    0.000    0.000    0.000    0.000    0.000 
#
# Total GULP energy -289715.790356 kJ/mol
# GULP energy per Si atom -5571.457507 kJ/mol
# Density = 2.199554 g / cm^3
# Si number density = 22.045716 Si / 1000 Ang^3
#
#
#
# Elastic Constant Matrix: (Units=GPa)
#
#
# Indices 1 2 3 4 5 6 
#
# 1 116.9692 39.3740 54.0087 0.0000 0.0000 0.0000
# 2 39.3740 116.9692 54.0087 0.0000 0.0000 0.0000
# 3 54.0087 54.0087 119.0370 0.0000 0.0000 0.0000
# 4 0.0000 0.0000 0.0000 28.6704 0.0000 0.0000
# 5 0.0000 0.0000 0.0000 0.0000 28.6705 0.0000
# 6 0.0000 0.0000 0.0000 0.0000 0.0000 38.7976
#
#
#
# Elastic Compliance Matrix: (Units=1/GPa)
#
#
# Indices 1 2 3 4 5 6 
#
# 1 0.011102 -0.001785 -0.004227 0.000000 0.000000 0.000000
# 2 -0.001785 0.011102 -0.004227 0.000000 0.000000 0.000000
# 3 -0.004227 -0.004227 0.012237 0.000000 0.000000 0.000000
# 4 0.000000 0.000000 0.000000 0.034879 0.000000 0.000000
# 5 0.000000 0.000000 0.000000 0.000000 0.034879 0.000000
# 6 0.000000 0.000000 0.000000 0.000000 0.000000 0.025775
#
#
# Mechanical properties :
#
#
# Convention : Reuss Voigt Hill
#
# Bulk Modulus (GPa) = 71.62560 71.97314 71.79937
# Shear Modulus (GPa) = 32.23588 32.93329 32.58459
#
# Velocity S-wave (km/s) = 3.82806 3.86925 3.84871
# Velocity P-wave (km/s) = 7.21795 7.25807 7.23804
#
# Compressibility (1/GPa) = 0.01396149
#
# Stress axis : x y z
#
# Youngs Moduli (GPa) = 90.07351 90.07346 81.72236
#
# Poissons Ratio (x) = 0.16081 0.34545
# Poissons Ratio (y) = 0.16081 0.34545
# Poissons Ratio (z) = 0.38075 0.38075
#
# Static dielectric constant tensor:
#      x y z
#    x 1.912940 0.000000 0.000000 
#    y 0.000000 1.912940 0.000000 
#    z 0.000000 0.000000 1.938630 
# 
# From -- ./inp_files/3637.got.cif
#   From: 2010.05.17/outbox.cif.g08.bks.cpg/sg188_2_cif.got.tgz:3637.got - 2010.05.20 12:11:46.
