data_PCOD9585982
_publ_section_title
;
Structure prediction by ZEFSAII (Michael W. Deem and Ramdas Pophale) SiO2 
 PCOD9585982
Probable space group: P -6 C 2
;
_chemical_formula_sum "Si O2"
_cell_formula_units_Z 64
_cell_length_a 14.722162
_cell_length_b 14.722162
_cell_length_c 17.354994
_cell_angle_alpha 90.000000
_cell_angle_beta 90.000000
_cell_angle_gamma 120.000000
_cell_volume 3257.603960
_symmetry_space_group_name_H-M "P -6 C 2"
_symmetry_group_IT_number 188
_symmetry_cell_setting 'hexagonal'
loop_
_space_group_symop_operation_xyz
x,y,z
-x+y,-x,1/2-z
-y,x-y,z
x,y,1/2-z
-x+y,-x,z
-y,x-y,1/2-z
-y,-x,-z
-x+y,y,-z
x,x-y,-z
-x+y,y,1/2+z
x,x-y,1/2+z
-y,-x,1/2+z
loop_
_atom_site_type_symbol
_atom_site_label
_atom_site_fract_x
_atom_site_fract_y
_atom_site_fract_z
Si Si1 0.666668 0.333334 0.840684
Si Si2 0.394971 0.801108 0.092072
Si Si3 0.598408 0.607833 0.157759
Si Si4 0.071099 0.230808 0.343164
Si Si5 0.836410 0.768828 0.656775
Si Si6 0.762629 0.211899 0.909188
O O1 0.666667 0.333334 0.750000
O O2 0.750336 0.303816 0.872010
O O3 0.271749 0.717685 0.111361
O O4 0.431160 0.910508 0.133176
O O5 0.408364 0.816727 0.000000
O O6 0.605709 0.598087 0.250000
O O7 0.667046 0.731417 0.135662
O O8 0.660135 0.557575 0.116016
O O9 0.076027 0.230886 0.250000
O O10 0.167905 0.219565 0.371641
O O11 0.959898 0.129519 0.364239
O O12 0.830802 0.761688 0.750000
O O13 0.790378 0.653599 0.623258
O O14 0.773296 0.226705 0.000000
#
# Coordination Sequence:
#
# PCOD9585982 Si02
#       6
#     4  12  12  12  12  12
#     4  12  25  47  70  87 109 149 202 264 313 365
#     4   8  18  38  57  84 122 160 197 244 313 379
#     4  10  20  38  61  88 121 157 204 260 301 360
#     4   8  15  28  53  83 114 149 192 245 294 342
#     4   9  16  33  56  85 119 157 202 247 298 356
#     4  11  24  42  59  87 121 160 200 251 314 373
#
# _framework density 19.646341
#
# number of rings (size 3 to 8) (size 9 to 14) (size 15 to 20)
#    0.375    2.250    0.000    3.750    0.000    3.750 
#   10.125    2.812    0.000    0.000    0.000    0.000 
#    0.000    0.000    0.000    0.000    0.000    0.000 
#
# Total GULP energy -356766.041916 kJ/mol
# GULP energy per Si atom -5574.469405 kJ/mol
# Density = 1.960163 g / cm^3
# Si number density = 19.646341 Si / 1000 Ang^3
#
#
#
# Elastic Constant Matrix: (Units=GPa)
#
#
# Indices 1 2 3 4 5 6 
#
# 1 78.8019 30.1566 33.7999 0.0000 -0.0001 -0.0002
# 2 30.1566 78.8005 33.7998 0.0000 0.0000 -0.0003
# 3 33.7999 33.7998 78.8428 -0.0001 0.0002 -0.0001
# 4 0.0000 0.0000 -0.0001 19.0578 -0.0003 0.0000
# 5 -0.0001 0.0000 0.0002 -0.0003 19.0585 0.0002
# 6 -0.0002 -0.0003 -0.0001 0.0000 0.0002 24.3221
#
#
#
# Elastic Compliance Matrix: (Units=1/GPa)
#
#
# Indices 1 2 3 4 5 6 
#
# 1 0.016530 -0.004027 -0.005360 0.000000 0.000000 0.000000
# 2 -0.004027 0.016531 -0.005360 0.000000 0.000000 0.000000
# 3 -0.005360 -0.005360 0.017279 0.000000 0.000000 0.000000
# 4 0.000000 0.000000 0.000000 0.052472 0.000001 0.000000
# 5 0.000000 0.000000 0.000000 0.000001 0.052470 0.000000
# 6 0.000000 0.000000 0.000000 0.000000 0.000000 0.041115
#
#
# Mechanical properties :
#
#
# Convention : Reuss Voigt Hill
#
# Bulk Modulus (GPa) = 47.97238 47.99534 47.98386
# Shear Modulus (GPa) = 21.47396 21.73360 21.60378
#
# Velocity S-wave (km/s) = 3.30968 3.32963 3.31967
# Velocity P-wave (km/s) = 6.25110 6.26615 6.25863
#
# Compressibility (1/GPa) = 0.02084533
#
# Stress axis : x y z
#
# Youngs Moduli (GPa) = 60.49537 60.49405 57.87264
#
# Poissons Ratio (x) = 0.24360 0.31021
# Poissons Ratio (y) = 0.24361 0.31021
# Poissons Ratio (z) = 0.32426 0.32427
#
# Static dielectric constant tensor:
#      x y z
#    x 1.693420 0.000000 0.000000 
#    y 0.000000 1.693420 0.000000 
#    z 0.000000 0.000000 1.654190 
# 
# From -- ./inp_files/3092.got.cif
#   From: 2010.05.17/outbox.cif.g08.bks.cpg/sg188_2_cif.got.tgz:3092.got - 2010.05.20 12:11:46.
