data_PCOD9585571
_publ_section_title
;
Structure prediction by ZEFSAII (Michael W. Deem and Ramdas Pophale) SiO2 
 PCOD9585571
Probable space group: P -6 M 2
;
_chemical_formula_sum "Si O2"
_cell_formula_units_Z 78
_cell_length_a 17.509152
_cell_length_b 17.509152
_cell_length_c 19.368727
_cell_angle_alpha 90.000000
_cell_angle_beta 90.000000
_cell_angle_gamma 120.000000
_cell_volume 5142.353588
_symmetry_space_group_name_H-M "P -6 M 2"
_symmetry_group_IT_number 187
_symmetry_cell_setting 'hexagonal'
loop_
_space_group_symop_operation_xyz
x,y,z
-x+y,-x,-z
-y,x-y,z
x,y,-z
-x+y,-x,z
-y,x-y,-z
-y,-x,-z
-x+y,y,-z
x,x-y,-z
-x+y,y,z
x,x-y,z
-y,-x,z
loop_
_atom_site_type_symbol
_atom_site_label
_atom_site_fract_x
_atom_site_fract_y
_atom_site_fract_z
Si Si1 0.939071 0.244108 0.421397
Si Si2 0.485034 0.151425 0.079156
Si Si3 0.510629 0.845506 0.651631
Si Si4 0.486754 0.333672 0.653358
Si Si5 0.237702 0.298941 0.291280
Si Si6 0.722446 0.626847 0.209858
Si Si7 0.508954 0.843432 0.500000
O O1 0.972266 0.259641 0.500000
O O2 0.854738 0.145263 0.416431
O O3 0.899774 0.307385 0.400740
O O4 0.009840 0.257885 0.363160
O O5 0.576507 0.153013 0.090000
O O6 0.500783 0.250392 0.086962
O O7 0.414760 0.093192 0.137024
O O8 0.456232 0.123810 0.000000
O O9 0.425837 0.851674 0.672962
O O10 0.486358 0.743179 0.645973
O O11 0.595385 0.893392 0.699314
O O12 0.538930 0.887671 0.574500
O O13 0.509720 0.254860 0.651491
O O14 0.572364 0.427637 0.641778
O O15 0.442958 0.328175 0.728237
O O16 0.138512 0.277024 0.280024
O O17 0.282794 0.272476 0.231524
O O18 0.820082 0.640163 0.209598
O O19 0.403652 0.807303 0.500000
O O20 0.530223 0.765112 0.500000
#
# Coordination Sequence:
#
# PCOD9585571 Si02
#       7
#    12  12  12  12  12  12   6
#     4   9  19  34  47  59  81 111 141 179 235 289
#     4   9  16  26  44  73 107 139 165 184 200 226
#     4   9  17  27  39  56  80 108 137 170 212 257
#     4   9  16  26  41  62  88 122 159 188 212 246
#     4  10  20  31  47  66  81 105 144 189 229 270
#     4   9  18  32  47  63  90 122 148 179 225 275
#     4   8  13  22  34  48  69  96 126 160 202 252
#
# _framework density 15.168151999999999
#
# number of rings (size 3 to 8) (size 9 to 14) (size 15 to 20)
#    0.000    2.923    0.000    2.385    1.077    5.538 
#    0.000    1.538    0.000    3.846    0.000    0.000 
#    0.000    0.000    0.000    0.000    0.000    0.000 
#
# Total GULP energy -434555.359647 kJ/mol
# GULP energy per Si atom -5571.222560 kJ/mol
# Density = 1.513363 g / cm^3
# Si number density = 15.168152 Si / 1000 Ang^3
#
#
#
# Elastic Constant Matrix: (Units=GPa)
#
#
# Indices 1 2 3 4 5 6 
#
# 1 53.3508 26.3961 32.4153 0.0000 -0.0002 0.0000
# 2 26.3961 53.3508 32.4153 0.0000 0.0002 0.0000
# 3 32.4153 32.4153 89.5823 0.0000 0.0000 0.0000
# 4 0.0000 0.0000 0.0000 15.0118 0.0000 0.0002
# 5 -0.0002 0.0002 0.0000 0.0000 15.0118 0.0000
# 6 0.0000 0.0000 0.0000 0.0002 0.0000 13.4774
#
#
#
# Elastic Compliance Matrix: (Units=1/GPa)
#
#
# Indices 1 2 3 4 5 6 
#
# 1 0.027433 -0.009667 -0.006429 0.000000 0.000000 0.000000
# 2 -0.009667 0.027433 -0.006429 0.000000 0.000000 0.000000
# 3 -0.006429 -0.006429 0.015815 0.000000 0.000000 0.000000
# 4 0.000000 0.000000 0.000000 0.066614 0.000000 -0.000001
# 5 0.000000 0.000000 0.000000 0.000000 0.066614 0.000000
# 6 0.000000 0.000000 0.000000 -0.000001 0.000000 0.074199
#
#
# Mechanical properties :
#
#
# Convention : Reuss Voigt Hill
#
# Bulk Modulus (GPa) = 39.01275 42.08193 40.54734
# Shear Modulus (GPa) = 15.07389 15.70400 15.38895
#
# Velocity S-wave (km/s) = 3.15586 3.22114 3.18867
# Velocity P-wave (km/s) = 6.24942 6.45276 6.35191
#
# Compressibility (1/GPa) = 0.02563265
#
# Stress axis : x y z
#
# Youngs Moduli (GPa) = 36.45309 36.45309 63.23022
#
# Poissons Ratio (x) = 0.35238 0.40648
# Poissons Ratio (y) = 0.35238 0.40648
# Poissons Ratio (z) = 0.23434 0.23434
#
# Static dielectric constant tensor:
#      x y z
#    x 1.507890 0.000000 0.000000 
#    y 0.000000 1.507890 0.000000 
#    z 0.000000 0.000000 1.512460 
# 
# From -- ./inp_files/3193.got.cif
#   From: 2010.05.17/outbox.cif.g08.bks.cpg/sg187_2_cif.got.tgz:3193.got - 2010.05.20 12:09:04.
