data_PCOD9585060
_publ_section_title
;
Structure prediction by ZEFSAII (Michael W. Deem and Ramdas Pophale) SiO2 
 PCOD9585060
Probable space group: P 6 M M
;
_chemical_formula_sum "Si O2"
_cell_formula_units_Z 96
_cell_length_a 18.168085
_cell_length_b 18.168085
_cell_length_c 20.570683
_cell_angle_alpha 90.000000
_cell_angle_beta 90.000000
_cell_angle_gamma 120.000000
_cell_volume 5880.275169
_symmetry_space_group_name_H-M "P 6 M M"
_symmetry_group_IT_number 183
_symmetry_cell_setting 'hexagonal'
loop_
_space_group_symop_operation_xyz
x,y,z
x-y,x,z
-y,x-y,z
-x,-y,z
-x+y,-x,z
y,-x+y,z
-x+y,y,z
x,x-y,z
-y,-x,z
y,x,z
x-y,-y,z
-x,-x+y,z
loop_
_atom_site_type_symbol
_atom_site_label
_atom_site_fract_x
_atom_site_fract_y
_atom_site_fract_z
Si Si1 0.634787 0.532140 0.132880
Si Si2 0.641210 0.906156 0.632881
Si Si3 0.666281 0.160831 0.370151
Si Si4 0.733823 0.635470 0.255639
Si Si5 0.839300 0.333841 0.744430
Si Si6 0.333720 0.494549 0.895609
Si Si7 0.666160 0.505459 0.521331
Si Si8 0.364530 0.266178 0.010121
O O1 0.568345 0.431656 0.132880
O O2 0.578147 0.578147 0.132880
O O3 0.692002 0.567687 0.196940
O O4 0.692001 0.567686 0.068820
O O5 0.664409 0.832205 0.632881
O O6 0.582163 0.891605 0.695551
O O7 0.582163 0.891605 0.570210
O O8 0.719524 0.000000 0.632881
O O9 0.575344 0.150688 0.353745
O O10 0.740629 0.259372 0.364389
O O11 0.692471 0.109374 0.321587
O O12 0.664377 0.136569 0.445744
O O13 0.833829 0.667658 0.256725
O O14 0.706349 0.706349 0.246844
O O15 0.847671 0.423836 0.728313
O O16 0.741196 0.258804 0.737930
O O17 0.863432 0.335627 0.820016
O O18 0.259370 0.518739 0.901371
O O19 0.424656 0.575345 0.912017
O O20 0.307531 0.416902 0.944173
O O21 0.741196 0.482391 0.527832
O O22 0.576164 0.423837 0.537445
O O23 0.332344 0.166172 0.009034
O O24 0.293650 0.293650 0.018916
#
# Coordination Sequence:
#
# PCOD9585060 Si02
#       8
#    12  12  12  12  12  12  12  12
#     4   9  17  30  49  72  96 120 146 177 215 264
#     4  10  21  35  49  66  89 117 150 190 235 277
#     4   9  17  29  46  69  97 128 159 189 221 260
#     4  10  20  33  49  69  93 122 157 197 240 282
#     4   9  17  29  46  69  98 130 159 184 213 256
#     4   9  17  29  46  69  97 128 159 189 221 260
#     4   9  17  29  46  69  98 130 159 184 213 256
#     4  10  20  33  49  69  93 122 157 197 240 282
#
# _framework density 16.325766999999999
#
# number of rings (size 3 to 8) (size 9 to 14) (size 15 to 20)
#    0.000    2.625    0.000    2.000    0.000    5.500 
#    0.000    3.750    0.000    3.875    0.000    0.000 
#    0.000    3.000    0.000   12.500    0.000    0.000 
#
# Total GULP energy -535323.157623 kJ/mol
# GULP energy per Si atom -5576.282892 kJ/mol
# Density = 1.628861 g / cm^3
# Si number density = 16.325767 Si / 1000 Ang^3
#
#
#
# Elastic Constant Matrix: (Units=GPa)
#
#
# Indices 1 2 3 4 5 6 
#
# 1 75.6424 62.0274 37.9101 0.0000 0.0000 0.0000
# 2 62.0274 75.6424 37.9101 0.0000 0.0000 0.0000
# 3 37.9101 37.9101 60.9196 0.0000 0.0000 0.0000
# 4 0.0000 0.0000 0.0000 16.2203 0.0000 0.0000
# 5 0.0000 0.0000 0.0000 0.0000 16.2203 0.0000
# 6 0.0000 0.0000 0.0000 0.0000 0.0000 6.8075
#
#
#
# Elastic Compliance Matrix: (Units=1/GPa)
#
#
# Indices 1 2 3 4 5 6 
#
# 1 0.042250 -0.031199 -0.006877 0.000000 0.000000 0.000000
# 2 -0.031199 0.042250 -0.006877 0.000000 0.000000 0.000000
# 3 -0.006877 -0.006877 0.024974 0.000000 0.000000 0.000000
# 4 0.000000 0.000000 0.000000 0.061651 0.000000 0.000000
# 5 0.000000 0.000000 0.000000 0.000000 0.061651 0.000000
# 6 0.000000 0.000000 0.000000 0.000000 0.000000 0.146897
#
#
# Mechanical properties :
#
#
# Convention : Reuss Voigt Hill
#
# Bulk Modulus (GPa) = 51.10329 54.21108 52.65718
# Shear Modulus (GPa) = 10.50196 12.80676 11.65436
#
# Velocity S-wave (km/s) = 2.53904 2.80384 2.67472
# Velocity P-wave (km/s) = 6.32185 6.61513 6.47015
#
# Compressibility (1/GPa) = 0.01956821
#
# Stress axis : x y z
#
# Youngs Moduli (GPa) = 23.66873 23.66873 40.04102
#
# Poissons Ratio (x) = 0.73843 0.27537
# Poissons Ratio (y) = 0.73843 0.27537
# Poissons Ratio (z) = 0.16277 0.16277
#
# Static dielectric constant tensor:
#      x y z
#    x 1.534980 0.000000 0.000000 
#    y 0.000000 1.534980 0.000000 
#    z 0.000000 0.000000 1.565820 
# 
# From -- ./inp_files/3064.got.cif
#   From: 2010.05.17/outbox.cif.g08.bks.cpg/sg183_2_cif.got.tgz:3064.got - 2010.05.20 12:02:58.
