data_PCOD9585295
_publ_section_title
;
Structure prediction by ZEFSAII (Michael W. Deem and Ramdas Pophale) SiO2 
 PCOD9585295
Probable space group: P 63 C M
;
_chemical_formula_sum "Si O2"
_cell_formula_units_Z 72
_cell_length_a 14.880202
_cell_length_b 14.880202
_cell_length_c 18.959871
_cell_angle_alpha 90.000000
_cell_angle_beta 90.000000
_cell_angle_gamma 120.000000
_cell_volume 3635.663361
_symmetry_space_group_name_H-M "P 63 C M"
_symmetry_group_IT_number 185
_symmetry_cell_setting 'hexagonal'
loop_
_space_group_symop_operation_xyz
x,y,z
x-y,x,1/2+z
-y,x-y,z
-x,-y,1/2+z
-x+y,-x,z
y,-x+y,1/2+z
-x+y,y,1/2+z
x,x-y,1/2+z
-y,-x,1/2+z
y,x,z
x-y,-y,z
-x,-x+y,z
loop_
_atom_site_type_symbol
_atom_site_label
_atom_site_fract_x
_atom_site_fract_y
_atom_site_fract_z
Si Si1 0.879005 0.122607 0.591210
Si Si2 0.221577 0.877390 0.443222
Si Si3 0.410526 0.532469 0.610476
Si Si4 0.557679 0.124882 0.454220
Si Si5 0.876670 0.301692 0.838650
Si Si6 0.442014 0.190998 0.680493
O O1 0.856169 0.162865 0.517689
O O2 0.858114 0.182644 0.653497
O O3 0.000000 0.157567 0.590374
O O4 0.807445 0.000000 0.597267
O O5 0.317537 0.856205 0.449186
O O6 0.148195 0.800279 0.383303
O O7 0.271258 0.000000 0.427258
O O8 0.447280 0.447280 0.612458
O O9 0.387422 0.548950 0.529769
O O10 0.310655 0.499430 0.657759
O O11 0.504292 0.640021 0.639161
O O12 0.633369 0.159955 0.387607
O O13 0.505468 0.000000 0.456352
O O14 0.822519 0.271477 0.763332
O O15 0.000000 0.371929 0.827112
#
# Coordination Sequence:
#
# PCOD9585295 Si02
#       6
#    12  12  12  12  12  12
#     4  11  22  41  68  99 132 172 221 275 331 395
#     4  10  21  40  65  92 126 170 222 271 327 394
#     4  11  23  43  66  92 126 167 215 268 324 386
#     4   9  20  40  64  90 124 167 211 266 323 383
#     4  11  24  41  62  93 133 173 216 267 329 395
#     4  12  25  41  64  94 130 173 216 271 331 391
#
# _framework density 19.803813999999999
#
# number of rings (size 3 to 8) (size 9 to 14) (size 15 to 20)
#    0.000    1.333    1.667    4.000    2.333    2.667 
#    1.000    0.000    0.000    0.333    0.000    0.000 
#    0.000    0.000    0.000    0.000    0.000    0.000 
#
# Total GULP energy -402656.509050 kJ/mol
# GULP energy per Si atom -5592.451515 kJ/mol
# Density = 1.975874 g / cm^3
# Si number density = 19.803814 Si / 1000 Ang^3
#
#
#
# Elastic Constant Matrix: (Units=GPa)
#
#
# Indices 1 2 3 4 5 6 
#
# 1 87.0048 28.6461 50.0683 0.0000 0.0000 0.0000
# 2 28.6461 87.0048 50.0683 0.0000 0.0000 0.0000
# 3 50.0683 50.0683 165.1406 0.0000 0.0000 0.0000
# 4 0.0000 0.0000 0.0000 -0.5273 0.0000 0.0000
# 5 0.0000 0.0000 0.0000 0.0000 -0.5273 0.0000
# 6 0.0000 0.0000 0.0000 0.0000 0.0000 29.1793
#
#
#
# Elastic Compliance Matrix: (Units=1/GPa)
#
#
# Indices 1 2 3 4 5 6 
#
# 1 0.014430 -0.002705 -0.003555 0.000000 0.000000 0.000000
# 2 -0.002705 0.014430 -0.003555 0.000000 0.000000 0.000000
# 3 -0.003555 -0.003555 0.008211 0.000000 0.000000 0.000000
# 4 0.000000 0.000000 0.000000 -1.896600 0.000001 0.000000
# 5 0.000000 0.000000 0.000000 0.000001 -1.896601 0.000000
# 6 0.000000 0.000000 0.000000 0.000000 0.000000 0.034271
#
#
# Mechanical properties :
#
#
# Convention : Reuss Voigt Hill
#
# Bulk Modulus (GPa) = 57.33556 66.30173 61.81864
# Shear Modulus (GPa) = -1.35266 19.64945 9.14839
#
# Velocity S-wave (km/s) = -0.82735 3.15335 2.15164
# Velocity P-wave (km/s) = 5.30113 6.84179 6.12013
#
# Compressibility (1/GPa) = 0.01744118
#
# Stress axis : x y z
#
# Youngs Moduli (GPa) = 69.30005 69.30005 121.78880
#
# Poissons Ratio (x) = 0.18749 0.43293
# Poissons Ratio (y) = 0.18749 0.43293
# Poissons Ratio (z) = 0.24634 0.24634
#
# Static dielectric constant tensor:
#      x y z
#    x 1.699470 0.000000 0.000000 
#    y 0.000000 1.699470 0.000000 
#    z 0.000000 0.000000 1.669430 
# 
# From -- ./inp_files/1690.got.cif
#   From: 2010.05.17/outbox.cif.g08.bks.cpg/sg185_cif.got.tgz:1690.got - 2010.05.20 12:05:34.
