data_PCOD9585232
_publ_section_title
;
Structure prediction by ZEFSAII (Michael W. Deem and Ramdas Pophale) SiO2 
 PCOD9585232
Probable space group: P 63 C M
;
_chemical_formula_sum "Si O2"
_cell_formula_units_Z 96
_cell_length_a 14.222034
_cell_length_b 14.222034
_cell_length_c 27.832199
_cell_angle_alpha 90.000000
_cell_angle_beta 90.000000
_cell_angle_gamma 120.000000
_cell_volume 4875.302613
_symmetry_space_group_name_H-M "P 63 C M"
_symmetry_group_IT_number 185
_symmetry_cell_setting 'hexagonal'
loop_
_space_group_symop_operation_xyz
x,y,z
x-y,x,1/2+z
-y,x-y,z
-x,-y,1/2+z
-x+y,-x,z
y,-x+y,1/2+z
-x+y,y,1/2+z
x,x-y,1/2+z
-y,-x,1/2+z
y,x,z
x-y,-y,z
-x,-x+y,z
loop_
_atom_site_type_symbol
_atom_site_label
_atom_site_fract_x
_atom_site_fract_y
_atom_site_fract_z
Si Si1 0.218810 0.427545 0.679890
Si Si2 0.563414 0.127920 0.728001
Si Si3 0.871138 0.741927 0.099867
Si Si4 0.880028 0.761103 0.745164
Si Si5 0.783148 0.664286 0.846378
Si Si6 0.563616 0.128289 0.838265
Si Si7 0.120978 0.704941 0.915633
Si Si8 0.870891 0.129984 0.985142
O O1 0.145804 0.468006 0.707411
O O2 0.339851 0.523564 0.689638
O O3 0.179241 0.372925 0.628003
O O4 0.205710 0.326050 0.710161
O O5 0.600489 0.169993 0.783282
O O6 0.517449 0.000000 0.729716
O O7 0.807595 0.807595 0.112194
O O8 0.000000 0.815344 0.110504
O O9 0.861080 0.724219 0.042519
O O10 0.814769 0.814769 0.722785
O O11 0.818473 0.698043 0.792432
O O12 0.000000 0.852704 0.757830
O O13 0.745410 0.745410 0.866485
O O14 0.678770 0.544399 0.847390
O O15 0.878834 0.663406 0.874491
O O16 0.642865 0.171016 0.884761
O O17 0.524507 0.000000 0.836392
O O18 0.169058 0.793814 0.958578
O O19 0.000000 0.615630 0.931122
O O20 0.000000 0.197833 0.973232
O O21 0.818068 0.000000 0.974055
#
# Coordination Sequence:
#
# PCOD9585232 Si02
#       8
#    12  12  12  12  12  12  12  12
#     4  12  23  37  58  81 110 153 202 251 300 353
#     4  11  22  38  55  79 112 148 194 247 296 348
#     4  10  20  36  60  91 124 158 196 242 301 372
#     4  11  21  34  52  81 119 157 191 231 290 365
#     4  10  19  33  51  74 108 146 184 230 285 346
#     4   9  19  34  50  72 105 143 186 234 280 333
#     4  10  19  33  54  80 109 144 187 235 283 343
#     4   9  18  33  57  88 122 155 191 236 294 366
#
# _framework density 19.691085999999999
#
# number of rings (size 3 to 8) (size 9 to 14) (size 15 to 20)
#    0.000    1.750    1.250    4.375    0.000    2.000 
#    0.750    1.250    2.750    4.000    0.000    0.000 
#    0.000    0.000    0.000    0.000    0.000    0.000 
#
# Total GULP energy -534522.847914 kJ/mol
# GULP energy per Si atom -5567.946332 kJ/mol
# Density = 1.964627 g / cm^3
# Si number density = 19.691086 Si / 1000 Ang^3
#
#
#
# Elastic Constant Matrix: (Units=GPa)
#
#
# Indices 1 2 3 4 5 6 
#
# 1 877.6302 -800.9673 31.1389 0.0000 0.0000 -0.0001
# 2 -800.9673 877.6302 31.1389 0.0000 0.0000 0.0001
# 3 31.1389 31.1389 108.0115 0.0000 0.0000 0.0000
# 4 0.0000 0.0000 0.0000 20.5145 0.0000 0.0000
# 5 0.0000 0.0000 0.0000 0.0000 20.5145 0.0000
# 6 -0.0001 0.0001 0.0000 0.0000 0.0000 839.2989
#
#
#
# Elastic Compliance Matrix: (Units=1/GPa)
#
#
# Indices 1 2 3 4 5 6 
#
# 1 0.008814 0.008219 -0.004911 0.000000 0.000000 0.000000
# 2 0.008219 0.008814 -0.004911 0.000000 0.000000 0.000000
# 3 -0.004911 -0.004911 0.012090 0.000000 0.000000 0.000000
# 4 0.000000 0.000000 0.000000 0.048746 0.000000 0.000000
# 5 0.000000 0.000000 0.000000 0.000000 0.048746 0.000000
# 6 0.000000 0.000000 0.000000 0.000000 0.000000 0.001191
#
#
# Mechanical properties :
#
#
# Convention : Reuss Voigt Hill
#
# Bulk Modulus (GPa) = 37.71606 42.87699 40.29652
# Shear Modulus (GPa) = 35.60118 349.52968 192.56543
#
# Velocity S-wave (km/s) = 4.25665 13.33761 9.89977
# Velocity P-wave (km/s) = 6.58439 16.09383 12.29564
#
# Compressibility (1/GPa) = 0.02651391
#
# Stress axis : x y z
#
# Youngs Moduli (GPa) = 113.44945 113.44945 82.71550
#
# Poissons Ratio (x) = -0.93241 0.40618
# Poissons Ratio (y) = -0.93241 0.40618
# Poissons Ratio (z) = 0.55710 0.55710
#
# Static dielectric constant tensor:
#      x y z
#    x 1.437350 0.000000 0.000000 
#    y 0.000000 1.437350 0.000000 
#    z 0.000000 0.000000 1.720030 
# 
# From -- ./inp_files/2184.got.cif
#   From: 2010.05.17/outbox.cif.g08.bks.cpg/sg185_cif.got.tgz:2184.got - 2010.05.20 12:05:34.
