data_PCOD9585683
_publ_section_title
;
Structure prediction by ZEFSAII (Michael W. Deem and Ramdas Pophale) SiO2 
 PCOD9585683
Probable space group: P -6 M 2
;
_chemical_formula_sum "Si O2"
_cell_formula_units_Z 72
_cell_length_a 12.817081
_cell_length_b 12.817081
_cell_length_c 31.225471
_cell_angle_alpha 90.000000
_cell_angle_beta 90.000000
_cell_angle_gamma 120.000000
_cell_volume 4442.402322
_symmetry_space_group_name_H-M "P -6 M 2"
_symmetry_group_IT_number 187
_symmetry_cell_setting 'hexagonal'
loop_
_space_group_symop_operation_xyz
x,y,z
-x+y,-x,-z
-y,x-y,z
x,y,-z
-x+y,-x,z
-y,x-y,-z
-y,-x,-z
-x+y,y,-z
x,x-y,-z
-x+y,y,z
x,x-y,z
-y,-x,z
loop_
_atom_site_type_symbol
_atom_site_label
_atom_site_fract_x
_atom_site_fract_y
_atom_site_fract_z
Si Si1 0.000037 0.246939 0.340678
Si Si2 0.247625 0.000505 0.500000
Si Si3 0.333489 0.418390 0.918286
Si Si4 0.753971 0.753930 0.242037
Si Si5 0.666044 0.085777 0.163346
Si Si6 0.000713 0.752607 0.000000
Si Si7 0.419274 0.085720 0.581102
O O1 0.126197 0.252393 0.348735
O O2 0.998653 0.283142 0.291308
O O3 0.973777 0.323487 0.374842
O O4 0.890592 0.109409 0.345367
O O5 0.127426 0.872574 0.500000
O O6 0.216398 0.108199 0.500000
O O7 0.328502 0.020410 0.541844
O O8 0.216902 0.433803 0.913628
O O9 0.452943 0.547058 0.925685
O O10 0.355262 0.361321 0.875717
O O11 0.308448 0.329790 0.958242
O O12 0.745678 0.872839 0.233863
O O13 0.680371 0.651988 0.207254
O O14 0.892444 0.784888 0.238452
O O15 0.554658 0.109316 0.166181
O O16 0.790174 0.209827 0.156032
O O17 0.108188 0.891813 0.000000
O O18 0.871792 0.743584 0.000000
O O19 0.540390 0.080779 0.576632
O O20 0.447264 0.223632 0.580852
#
# Coordination Sequence:
#
# PCOD9585683 Si02
#       7
#    12   6  12  12  12   6  12
#     4   9  17  30  50  74  98 124 156 199 248 293
#     4  10  20  34  54  78 100 122 152 196 246 290
#     4  10  20  34  53  75  99 128 163 204 246 288
#     4   9  17  30  49  73  98 124 157 199 248 296
#     4  10  20  33  49  70  98 132 167 202 242 290
#     4  10  20  34  52  74 100 128 158 194 238 288
#     4  10  20  33  50  72  99 131 164 197 234 280
#
# _framework density 16.207446000000001
#
# number of rings (size 3 to 8) (size 9 to 14) (size 15 to 20)
#    0.000    2.333    0.000    3.000    0.000    2.000 
#    0.000    3.333    0.000   14.667    0.000    0.000 
#    0.000    0.000    0.000    0.000    0.000    0.000 
#
# Total GULP energy -401664.117897 kJ/mol
# GULP energy per Si atom -5578.668304 kJ/mol
# Density = 1.617056 g / cm^3
# Si number density = 16.207446 Si / 1000 Ang^3
#
#
#
# Elastic Constant Matrix: (Units=GPa)
#
#
# Indices 1 2 3 4 5 6 
#
# 1 120.1153 82.3399 81.8229 0.0000 0.0004 0.0000
# 2 82.3399 120.1153 81.8229 0.0000 -0.0004 0.0000
# 3 81.8229 81.8229 118.3276 0.0000 0.0000 0.0000
# 4 0.0000 0.0000 0.0000 21.7225 0.0000 -0.0004
# 5 0.0004 -0.0004 0.0000 0.0000 21.7225 0.0000
# 6 0.0000 0.0000 0.0000 -0.0004 0.0000 18.8877
#
#
#
# Elastic Compliance Matrix: (Units=1/GPa)
#
#
# Indices 1 2 3 4 5 6 
#
# 1 0.018836 -0.007637 -0.007744 0.000000 0.000000 0.000000
# 2 -0.007637 0.018836 -0.007744 0.000000 0.000000 0.000000
# 3 -0.007744 -0.007744 0.019161 0.000000 0.000000 0.000000
# 4 0.000000 0.000000 0.000000 0.046035 0.000000 0.000001
# 5 0.000000 0.000000 0.000000 0.000000 0.046035 0.000000
# 6 0.000000 0.000000 0.000000 0.000001 0.000000 0.052944
#
#
# Mechanical properties :
#
#
# Convention : Reuss Voigt Hill
#
# Bulk Modulus (GPa) = 94.49276 94.50331 94.49804
# Shear Modulus (GPa) = 19.87094 19.97136 19.92115
#
# Velocity S-wave (km/s) = 3.50528 3.51413 3.50971
# Velocity P-wave (km/s) = 8.64935 8.65451 8.65193
#
# Compressibility (1/GPa) = 0.01058282
#
# Stress axis : x y z
#
# Youngs Moduli (GPa) = 53.09115 53.09115 52.18958
#
# Poissons Ratio (x) = 0.40544 0.40415
# Poissons Ratio (y) = 0.40544 0.40415
# Poissons Ratio (z) = 0.41113 0.41113
#
# Static dielectric constant tensor:
#      x y z
#    x 1.510990 0.000000 0.000000 
#    y 0.000000 1.510990 0.000000 
#    z 0.000000 0.000000 1.542320 
# 
# From -- ./inp_files/4586.got.cif
#   From: 2010.05.17/outbox.cif.g08.bks.cpg/sg187_3_cif.got.tgz:4586.got - 2010.05.20 12:09:04.
