data_PCOD9585275
_publ_section_title
;
Structure prediction by ZEFSAII (Michael W. Deem and Ramdas Pophale) SiO2 
 PCOD9585275
Probable space group: P 63 C M
;
_chemical_formula_sum "Si O2"
_cell_formula_units_Z 84
_cell_length_a 18.059388
_cell_length_b 18.059388
_cell_length_c 15.119743
_cell_angle_alpha 90.000000
_cell_angle_beta 90.000000
_cell_angle_gamma 120.000000
_cell_volume 4270.523327
_symmetry_space_group_name_H-M "P 63 C M"
_symmetry_group_IT_number 185
_symmetry_cell_setting 'hexagonal'
loop_
_space_group_symop_operation_xyz
x,y,z
x-y,x,1/2+z
-y,x-y,z
-x,-y,1/2+z
-x+y,-x,z
y,-x+y,1/2+z
-x+y,y,1/2+z
x,x-y,1/2+z
-y,-x,1/2+z
y,x,z
x-y,-y,z
-x,-x+y,z
loop_
_atom_site_type_symbol
_atom_site_label
_atom_site_fract_x
_atom_site_fract_y
_atom_site_fract_z
Si Si1 0.898473 0.522386 0.815070
Si Si2 0.746808 0.646290 0.174449
Si Si3 0.746807 0.646289 0.852401
Si Si4 0.100883 0.899117 0.263427
Si Si5 0.187816 0.711301 0.513426
Si Si6 0.376085 0.477611 0.211777
Si Si7 0.528891 0.158216 0.513425
O O1 0.877843 0.587104 0.761877
O O2 0.862205 0.431102 0.763423
O O3 0.000000 0.566185 0.810640
O O4 0.877081 0.514945 0.918574
O O5 0.681606 0.681606 0.154592
O O6 0.838573 0.730766 0.188813
O O7 0.742979 0.585014 0.097450
O O8 0.681605 0.681605 0.872257
O O9 0.838573 0.730765 0.838041
O O10 0.742976 0.585011 0.929399
O O11 0.709264 0.587106 0.764971
O O12 0.000000 0.856348 0.241681
O O13 0.143651 0.000000 0.285174
O O14 0.145344 0.610058 0.513427
O O15 0.288799 0.747443 0.513426
O O16 0.433812 0.433812 0.216209
O O17 0.362133 0.485050 0.108272
#
# Coordination Sequence:
#
# PCOD9585275 Si02
#       7
#    12  12  12  12  12  12  12
#     4  10  20  37  62  89 115 151 203 261 321 380
#     4  10  21  39  64  92 124 167 217 270 328 392
#     4  10  21  39  64  92 124 167 217 270 328 392
#     4  10  21  40  66  96 130 170 220 276 339 402
#     4  12  24  39  57  85 126 169 220 263 322 393
#     4  10  20  37  62  89 115 151 203 261 321 380
#     4  12  24  37  55  83 121 163 204 253 314 383
#
# _framework density 19.669720000000002
#
# number of rings (size 3 to 8) (size 9 to 14) (size 15 to 20)
#    0.000    1.429    2.857    3.000    0.000    1.143 
#    0.000    2.143    0.000    0.000    0.000    2.000 
#    0.000    0.000    0.000    0.000    0.000    0.000 
#
# Total GULP energy -468305.785786 kJ/mol
# GULP energy per Si atom -5575.068878 kJ/mol
# Density = 1.962495 g / cm^3
# Si number density = 19.669720 Si / 1000 Ang^3
#
#
#
# Elastic Constant Matrix: (Units=GPa)
#
#
# Indices 1 2 3 4 5 6 
#
# 1 107.1176 53.9114 46.4538 0.0000 0.0000 0.0000
# 2 53.9114 107.1176 46.4538 0.0000 0.0000 0.0000
# 3 46.4538 46.4538 146.4995 0.0000 0.0000 0.0000
# 4 0.0000 0.0000 0.0000 32.5941 0.0000 0.0000
# 5 0.0000 0.0000 0.0000 0.0000 32.5941 0.0000
# 6 0.0000 0.0000 0.0000 0.0000 0.0000 26.6031
#
#
#
# Elastic Compliance Matrix: (Units=1/GPa)
#
#
# Indices 1 2 3 4 5 6 
#
# 1 0.013198 -0.005597 -0.002410 0.000000 0.000000 0.000000
# 2 -0.005597 0.013198 -0.002410 0.000000 0.000000 0.000000
# 3 -0.002410 -0.002410 0.008354 0.000000 0.000000 0.000000
# 4 0.000000 0.000000 0.000000 0.030680 0.000000 0.000000
# 5 0.000000 0.000000 0.000000 0.000000 0.030680 0.000000
# 6 0.000000 0.000000 0.000000 0.000000 0.000000 0.037590
#
#
# Mechanical properties :
#
#
# Convention : Reuss Voigt Hill
#
# Bulk Modulus (GPa) = 71.86369 72.70810 72.28590
# Shear Modulus (GPa) = 31.41236 32.61933 32.01585
#
# Velocity S-wave (km/s) = 4.00057 4.07671 4.03882
# Velocity P-wave (km/s) = 7.61275 7.69442 7.65369
#
# Compressibility (1/GPa) = 0.01391523
#
# Stress axis : x y z
#
# Youngs Moduli (GPa) = 75.77087 75.77087 119.69739
#
# Poissons Ratio (x) = 0.42410 0.28848
# Poissons Ratio (y) = 0.42410 0.28848
# Poissons Ratio (z) = 0.18261 0.18261
#
# Static dielectric constant tensor:
#      x y z
#    x 1.714430 0.000000 0.000000 
#    y 0.000000 1.714430 0.000000 
#    z 0.000000 0.000000 1.693760 
# 
# From -- ./inp_files/1479.got.cif
#   From: 2010.05.17/outbox.cif.g08.bks.cpg/sg185_cif.got.tgz:1479.got - 2010.05.20 12:05:34.
