data_PCOD9585138
_publ_section_title
;
Structure prediction by ZEFSAII (Michael W. Deem and Ramdas Pophale) SiO2 
 PCOD9585138
Probable space group: P 6 C C
;
_chemical_formula_sum "Si O2"
_cell_formula_units_Z 66
_cell_length_a 16.094023
_cell_length_b 16.094023
_cell_length_c 13.672416
_cell_angle_alpha 90.000000
_cell_angle_beta 90.000000
_cell_angle_gamma 120.000000
_cell_volume 3066.938948
_symmetry_space_group_name_H-M "P 6 C C"
_symmetry_group_IT_number 184
_symmetry_cell_setting 'hexagonal'
loop_
_space_group_symop_operation_xyz
x,y,z
x-y,x,z
-y,x-y,z
-x,-y,z
-x+y,-x,z
y,-x+y,z
-x+y,y,1/2+z
x,x-y,1/2+z
-y,-x,1/2+z
y,x,1/2+z
x-y,-y,1/2+z
-x,-x+y,1/2+z
loop_
_atom_site_type_symbol
_atom_site_label
_atom_site_fract_x
_atom_site_fract_y
_atom_site_fract_z
Si Si1 0.500000 0.500000 0.085140
Si Si2 0.211848 0.041072 0.176615
Si Si3 0.013822 0.712050 0.361800
Si Si4 0.045628 0.696869 0.569512
Si Si5 0.871447 0.376482 0.260641
Si Si6 0.290123 0.448952 0.771356
O O1 0.564327 0.597132 0.029538
O O2 0.578598 0.495934 0.155311
O O3 0.299257 0.045008 0.115438
O O4 0.122892 0.935740 0.154753
O O5 0.241387 0.041191 0.288494
O O6 0.058848 0.750980 0.467669
O O7 0.055157 0.647108 0.315970
O O8 0.899167 0.636953 0.349343
O O9 0.113692 0.715695 0.664920
O O10 0.857306 0.462713 0.299609
O O11 0.777216 0.272643 0.261403
#
# Coordination Sequence:
#
# PCOD9585138 Si02
#       6
#     6  12  12  12  12  12
#     4  10  20  38  64  86 124 166 208 254 314 370
#     4  11  24  44  66  94 129 167 214 266 321 378
#     4  11  21  39  64  90 127 164 213 253 317 378
#     4  10  23  38  64  93 123 168 207 259 309 374
#     4  11  19  41  59  90 126 164 213 258 318 365
#     4  10  22  38  62  91 126 168 208 267 309 379
#
# _framework density 21.519826999999999
#
# number of rings (size 3 to 8) (size 9 to 14) (size 15 to 20)
#    0.000    1.455    5.455    2.727    2.545    2.909 
#    0.000    0.000    0.000    2.182    0.000    0.000 
#    0.000    0.000    0.000    0.000    0.000    0.000 
#
# Total GULP energy -367501.324429 kJ/mol
# GULP energy per Si atom -5568.201885 kJ/mol
# Density = 2.147085 g / cm^3
# Si number density = 21.519827 Si / 1000 Ang^3
#
#
#
# Elastic Constant Matrix: (Units=GPa)
#
#
# Indices 1 2 3 4 5 6 
#
# 1 102.3726 24.2857 4.9663 0.0000 0.0000 0.0000
# 2 24.2857 102.3726 4.9663 0.0000 0.0000 0.0000
# 3 4.9663 4.9663 76.5928 0.0000 0.0000 0.0000
# 4 0.0000 0.0000 0.0000 78.7127 0.0000 0.0000
# 5 0.0000 0.0000 0.0000 0.0000 78.7127 0.0000
# 6 0.0000 0.0000 0.0000 0.0000 0.0000 39.0434
#
#
#
# Elastic Compliance Matrix: (Units=1/GPa)
#
#
# Indices 1 2 3 4 5 6 
#
# 1 0.010371 -0.002435 -0.000515 0.000000 0.000000 0.000000
# 2 -0.002435 0.010371 -0.000515 0.000000 0.000000 0.000000
# 3 -0.000515 -0.000515 0.013123 0.000000 0.000000 0.000000
# 4 0.000000 0.000000 0.000000 0.012704 0.000000 0.000000
# 5 0.000000 0.000000 0.000000 0.000000 0.012704 0.000000
# 6 0.000000 0.000000 0.000000 0.000000 0.000000 0.025612
#
#
# Mechanical properties :
#
#
# Convention : Reuss Voigt Hill
#
# Bulk Modulus (GPa) = 37.12530 38.86385 37.99457
# Shear Modulus (GPa) = 49.60642 55.76844 52.68743
#
# Velocity S-wave (km/s) = 4.80641 5.09619 4.95342
# Velocity P-wave (km/s) = 6.93478 7.26133 7.09994
#
# Compressibility (1/GPa) = 0.02693581
#
# Stress axis : x y z
#
# Youngs Moduli (GPa) = 96.42340 96.42340 76.20334
#
# Poissons Ratio (x) = 0.23482 0.03921
# Poissons Ratio (y) = 0.23482 0.03921
# Poissons Ratio (z) = 0.04961 0.04961
#
# Static dielectric constant tensor:
#      x y z
#    x 1.747070 0.000000 0.000000 
#    y 0.000000 1.747070 0.000000 
#    z 0.000000 0.000000 1.785990 
# 
# From -- ./inp_files/892.got.cif
#   From: 2010.05.17/outbox.cif.g08.bks.cpg/sg184_cif.got.tgz:892.got - 2010.05.20 12:04:40.
