data_PCOD9585167
_publ_section_title
;
Structure prediction by ZEFSAII (Michael W. Deem and Ramdas Pophale) SiO2 
 PCOD9585167
Probable space group: P 6 C C
;
_chemical_formula_sum "Si O2"
_cell_formula_units_Z 72
_cell_length_a 14.825553
_cell_length_b 14.825553
_cell_length_c 17.854271
_cell_angle_alpha 90.000000
_cell_angle_beta 90.000000
_cell_angle_gamma 120.000000
_cell_volume 3398.556995
_symmetry_space_group_name_H-M "P 6 C C"
_symmetry_group_IT_number 184
_symmetry_cell_setting 'hexagonal'
loop_
_space_group_symop_operation_xyz
x,y,z
x-y,x,z
-y,x-y,z
-x,-y,z
-x+y,-x,z
y,-x+y,z
-x+y,y,1/2+z
x,x-y,1/2+z
-y,-x,1/2+z
y,x,1/2+z
x-y,-y,1/2+z
-x,-x+y,1/2+z
loop_
_atom_site_type_symbol
_atom_site_label
_atom_site_fract_x
_atom_site_fract_y
_atom_site_fract_z
Si Si1 0.207555 0.471421 0.216850
Si Si2 0.561318 0.122833 0.588906
Si Si3 0.879308 0.250921 0.012828
Si Si4 0.245899 0.130154 0.151534
Si Si5 0.885754 0.420401 0.290595
Si Si6 0.325240 0.899311 0.947146
O O1 0.184608 0.530005 0.148592
O O2 0.147532 0.349177 0.200189
O O3 0.173336 0.513649 0.288932
O O4 0.324388 0.500607 0.234714
O O5 0.677087 0.147631 0.566741
O O6 0.512882 0.131073 0.510539
O O7 0.500000 0.000000 0.607674
O O8 0.869050 0.159093 0.067710
O O9 0.794129 0.190745 0.949521
O O10 0.990649 0.328608 0.975105
O O11 0.174244 0.181083 0.164991
O O12 0.901305 0.377902 0.368945
O O13 0.000000 0.500000 0.262484
#
# Coordination Sequence:
#
# PCOD9585167 Si02
#       6
#    12  12  12  12  12  12
#     4  12  25  46  73 102 149 200 239 306 374 441
#     4  10  21  42  71 104 137 187 243 297 361 438
#     4  11  21  43  73 104 142 191 236 306 369 435
#     4  12  23  44  74 109 141 188 246 309 373 434
#     4  12  28  47  69 105 147 192 247 296 368 455
#     4  11  25  44  73 101 149 190 251 302 367 442
#
# _framework density 21.185461
#
# number of rings (size 3 to 8) (size 9 to 14) (size 15 to 20)
#    0.000    0.667    3.333    5.500    4.667    0.000 
#    1.000    0.000    0.000    0.000    0.000    0.000 
#    0.000    0.000    0.000    0.000    0.000    0.000 
#
# Total GULP energy -402073.310081 kJ/mol
# GULP energy per Si atom -5584.351529 kJ/mol
# Density = 2.113724 g / cm^3
# Si number density = 21.185461 Si / 1000 Ang^3
#
#
#
# Elastic Constant Matrix: (Units=GPa)
#
#
# Indices 1 2 3 4 5 6 
#
# 1 148.0565 60.7126 47.4956 0.0000 0.0000 0.0000
# 2 60.7126 148.0565 47.4956 0.0000 0.0000 0.0000
# 3 47.4956 47.4956 92.4813 0.0000 0.0000 0.0000
# 4 0.0000 0.0000 0.0000 102.1448 0.0000 0.0000
# 5 0.0000 0.0000 0.0000 0.0000 102.1448 0.0000
# 6 0.0000 0.0000 0.0000 0.0000 0.0000 43.6719
#
#
#
# Elastic Compliance Matrix: (Units=1/GPa)
#
#
# Indices 1 2 3 4 5 6 
#
# 1 0.008850 -0.002599 -0.003210 0.000000 0.000000 0.000000
# 2 -0.002599 0.008850 -0.003210 0.000000 0.000000 0.000000
# 3 -0.003210 -0.003210 0.014110 0.000000 0.000000 0.000000
# 4 0.000000 0.000000 0.000000 0.009790 0.000000 0.000000
# 5 0.000000 0.000000 0.000000 0.000000 0.009790 0.000000
# 6 0.000000 0.000000 0.000000 0.000000 0.000000 0.022898
#
#
# Mechanical properties :
#
#
# Convention : Reuss Voigt Hill
#
# Bulk Modulus (GPa) = 72.61657 77.77799 75.19728
# Shear Modulus (GPa) = 51.59049 65.11834 58.35442
#
# Velocity S-wave (km/s) = 4.94011 5.55014 5.25398
# Velocity P-wave (km/s) = 8.17867 8.82409 8.50750
#
# Compressibility (1/GPa) = 0.01377096
#
# Stress axis : x y z
#
# Youngs Moduli (GPa) = 112.99688 112.99688 70.87055
#
# Poissons Ratio (x) = 0.29370 0.22750
# Poissons Ratio (y) = 0.29370 0.22750
# Poissons Ratio (z) = 0.36273 0.36273
#
# Static dielectric constant tensor:
#      x y z
#    x 1.746550 0.000000 0.000000 
#    y 0.000000 1.746550 0.000000 
#    z 0.000000 0.000000 1.808520 
# 
# From -- ./inp_files/1101.got.cif
#   From: 2010.05.17/outbox.cif.g08.bks.cpg/sg184_cif.got.tgz:1101.got - 2010.05.20 12:04:40.
