data_PCOD9585287
_publ_section_title
;
Structure prediction by ZEFSAII (Michael W. Deem and Ramdas Pophale) SiO2 
 PCOD9585287
Probable space group: P 63 C M
;
_chemical_formula_sum "Si O2"
_cell_formula_units_Z 84
_cell_length_a 14.063610
_cell_length_b 14.063610
_cell_length_c 26.457265
_cell_angle_alpha 90.000000
_cell_angle_beta 90.000000
_cell_angle_gamma 120.000000
_cell_volume 4531.784063
_symmetry_space_group_name_H-M "P 63 C M"
_symmetry_group_IT_number 185
_symmetry_cell_setting 'hexagonal'
loop_
_space_group_symop_operation_xyz
x,y,z
x-y,x,1/2+z
-y,x-y,z
-x,-y,1/2+z
-x+y,-x,z
y,-x+y,1/2+z
-x+y,y,1/2+z
x,x-y,1/2+z
-y,-x,1/2+z
y,x,z
x-y,-y,z
-x,-x+y,z
loop_
_atom_site_type_symbol
_atom_site_label
_atom_site_fract_x
_atom_site_fract_y
_atom_site_fract_z
Si Si1 0.455722 0.324021 0.551920
Si Si2 0.604240 0.871992 0.245323
Si Si3 0.875564 0.123779 0.838407
Si Si4 0.663108 0.128316 0.002998
Si Si5 0.542100 0.720622 0.389599
Si Si6 0.604937 0.122949 0.335687
Si Si7 0.715066 0.476295 0.160734
O O1 0.371471 0.371471 0.548949
O O2 0.429639 0.216131 0.519879
O O3 0.573329 0.424077 0.531886
O O4 0.468691 0.288669 0.608397
O O5 0.680993 0.865290 0.288691
O O6 0.498310 0.850172 0.278732
O O7 0.566659 0.777229 0.203814
O O8 0.666179 0.000000 0.226795
O O9 0.801598 0.131437 0.882323
O O10 0.000000 0.186261 0.854996
O O11 0.835661 0.000000 0.825540
O O12 0.623506 0.000000 0.011393
O O13 0.661977 0.149002 0.943186
O O14 0.486603 0.792862 0.375054
O O15 0.503462 0.630811 0.345598
O O16 0.580095 0.000000 0.345662
O O17 0.590479 0.373039 0.163683
#
# Coordination Sequence:
#
# PCOD9585287 Si02
#       7
#    12  12  12  12  12  12  12
#     4  11  23  41  63  85 116 157 197 244 311 369
#     4   9  21  36  56  84 117 150 188 232 281 339
#     4  10  21  38  57  81 114 154 198 238 278 333
#     4  11  22  38  59  88 119 151 201 255 299 355
#     4  11  21  34  56  83 115 154 192 234 286 343
#     4  10  21  36  52  83 121 154 190 227 276 346
#     4  10  21  37  56  84 115 144 188 238 287 347
#
# _framework density 18.535746
#
# number of rings (size 3 to 8) (size 9 to 14) (size 15 to 20)
#    0.286    1.429    1.429    4.143    4.000    4.000 
#    0.000    0.000    0.000    0.286    0.000    1.000 
#    0.000    0.000    0.000    0.000    0.000    0.000 
#
# Total GULP energy -467998.428065 kJ/mol
# GULP energy per Si atom -5571.409858 kJ/mol
# Density = 1.849356 g / cm^3
# Si number density = 18.535746 Si / 1000 Ang^3
#
#
#
# Elastic Constant Matrix: (Units=GPa)
#
#
# Indices 1 2 3 4 5 6 
#
# 1 78.5256 45.7653 37.0944 0.0000 0.0000 0.0000
# 2 45.7653 78.5256 37.0944 0.0000 0.0000 0.0000
# 3 37.0944 37.0944 82.6098 0.0000 0.0000 0.0000
# 4 0.0000 0.0000 0.0000 14.9240 0.0000 0.0000
# 5 0.0000 0.0000 0.0000 0.0000 14.9240 0.0000
# 6 0.0000 0.0000 0.0000 0.0000 0.0000 16.3801
#
#
#
# Elastic Compliance Matrix: (Units=1/GPa)
#
#
# Indices 1 2 3 4 5 6 
#
# 1 0.020758 -0.009767 -0.004936 0.000000 0.000000 0.000000
# 2 -0.009767 0.020758 -0.004936 0.000000 0.000000 0.000000
# 3 -0.004936 -0.004936 0.016538 0.000000 0.000000 0.000000
# 4 0.000000 0.000000 0.000000 0.067006 0.000000 0.000000
# 5 0.000000 0.000000 0.000000 0.000000 0.067006 0.000000
# 6 0.000000 0.000000 0.000000 0.000000 0.000000 0.061050
#
#
# Mechanical properties :
#
#
# Convention : Reuss Voigt Hill
#
# Bulk Modulus (GPa) = 53.25232 53.28545 53.26888
# Shear Modulus (GPa) = 16.74193 17.22607 16.98400
#
# Velocity S-wave (km/s) = 3.00863 3.05182 3.03030
# Velocity P-wave (km/s) = 6.39226 6.42090 6.40660
#
# Compressibility (1/GPa) = 0.01877852
#
# Stress axis : x y z
#
# Youngs Moduli (GPa) = 48.17364 48.17364 60.46828
#
# Poissons Ratio (x) = 0.47049 0.29845
# Poissons Ratio (y) = 0.47049 0.29845
# Poissons Ratio (z) = 0.23777 0.23777
#
# Static dielectric constant tensor:
#      x y z
#    x 1.688840 0.000000 0.000000 
#    y 0.000000 1.688840 0.000000 
#    z 0.000000 0.000000 1.641820 
# 
# From -- ./inp_files/2081.got.cif
#   From: 2010.05.17/outbox.cif.g08.bks.cpg/sg185_cif.got.tgz:2081.got - 2010.05.20 12:05:34.
