data_PCOD9585834
_publ_section_title
;
Structure prediction by ZEFSAII (Michael W. Deem and Ramdas Pophale) SiO2 
 PCOD9585834
Probable space group: P -6 M 2
;
_chemical_formula_sum "Si O2"
_cell_formula_units_Z 84
_cell_length_a 18.000000
_cell_length_b 18.000000
_cell_length_c 15.000000
_cell_angle_alpha 90.000000
_cell_angle_beta 90.000000
_cell_angle_gamma 120.000000
_cell_volume 4208.883462
_symmetry_space_group_name_H-M "P -6 M 2"
_symmetry_group_IT_number 187
_symmetry_cell_setting 'hexagonal'
loop_
_space_group_symop_operation_xyz
x,y,z
-x+y,-x,-z
-y,x-y,z
x,y,-z
-x+y,-x,z
-y,x-y,-z
-y,-x,-z
-x+y,y,-z
x,x-y,-z
-x+y,y,z
x,x-y,z
-y,-x,z
loop_
_atom_site_type_symbol
_atom_site_label
_atom_site_fract_x
_atom_site_fract_y
_atom_site_fract_z
Si Si1 0.355207 0.086964 0.397639
Si Si2 0.901269 0.275380 0.102365
Si Si3 0.001443 0.831533 0.391043
Si Si4 0.680477 0.759567 0.893029
Si Si5 0.155907 0.666160 0.595162
Si Si6 0.493258 0.157423 0.257712
Si Si7 0.508433 0.842190 0.209320
O O1 0.369011 0.074369 0.500000
O O2 0.351476 0.175738 0.394001
O O3 0.261641 0.015407 0.365794
O O4 0.431387 0.099693 0.335880
O O5 0.815652 0.184349 0.107401
O O6 0.888426 0.338904 0.165410
O O7 0.980818 0.265768 0.134438
O O8 0.914837 0.304119 0.000000
O O9 0.000704 0.831695 0.500000
O O10 0.921428 0.842855 0.363144
O O11 0.090521 0.909480 0.360443
O O12 0.706440 0.853220 0.856982
O O13 0.583549 0.695976 0.861844
O O14 0.684069 0.765071 0.000000
O O15 0.110974 0.659811 0.500000
O O16 0.174631 0.587316 0.596262
O O17 0.244365 0.755636 0.592850
O O18 0.117711 0.662170 0.692464
O O19 0.586517 0.173033 0.268781
O O20 0.495060 0.247530 0.259214
O O21 0.424083 0.848166 0.190860
O O22 0.485120 0.742560 0.212680
#
# Coordination Sequence:
#
# PCOD9585834 Si02
#       7
#    12  12  12  12  12  12  12
#     4   8  15  28  45  68 102 141 177 215 261 310
#     4   9  19  37  60  83 105 130 161 200 252 312
#     4   8  12  19  35  62  98 141 186 227 265 308
#     4   9  18  33  53  77 104 133 165 201 242 292
#     4   8  12  18  30  50  79 119 168 218 260 291
#     4  10  20  34  53  77 104 134 171 216 265 316
#     4   9  16  25  39  63  98 139 180 218 253 288
#
# _framework density 19.957787
#
# number of rings (size 3 to 8) (size 9 to 14) (size 15 to 20)
#    0.000    3.286    0.000    1.429    0.000    3.714 
#    0.000    2.143    0.000    3.714    0.000    4.000 
#    0.000    0.000    0.000    0.429    0.000   12.429 
#
# Total GULP energy -467871.245233 kJ/mol
# GULP energy per Si atom -5569.895777 kJ/mol
# Density = 1.991236 g / cm^3
# Si number density = 19.957787 Si / 1000 Ang^3
#
#
#
# Elastic Constant Matrix: (Units=GPa)
#
#
# Indices 1 2 3 4 5 6 
#
# 1 38.0582 24.5650 26.3568 0.0000 0.0006 0.0000
# 2 24.5650 38.0582 26.3568 0.0000 -0.0006 0.0000
# 3 26.3568 26.3568 38.0234 0.0000 0.0000 0.0000
# 4 0.0000 0.0000 0.0000 5.2058 0.0000 -0.0006
# 5 0.0006 -0.0006 0.0000 0.0000 5.2058 0.0000
# 6 0.0000 0.0000 0.0000 -0.0006 0.0000 6.7466
#
#
#
# Elastic Compliance Matrix: (Units=1/GPa)
#
#
# Indices 1 2 3 4 5 6 
#
# 1 0.056225 -0.017887 -0.026575 0.000000 -0.000008 0.000000
# 2 -0.017887 0.056225 -0.026575 0.000000 0.000008 0.000000
# 3 -0.026575 -0.026575 0.063142 0.000000 0.000000 0.000000
# 4 0.000000 0.000000 0.000000 0.192092 0.000000 0.000016
# 5 -0.000008 0.000008 0.000000 0.000000 0.192092 0.000000
# 6 0.000000 0.000000 0.000000 0.000016 0.000000 0.148223
#
#
# Mechanical properties :
#
#
# Convention : Reuss Voigt Hill
#
# Bulk Modulus (GPa) = 29.83460 29.85524 29.84492
# Shear Modulus (GPa) = 5.80555 5.88907 5.84731
#
# Velocity S-wave (km/s) = 1.70740 1.71964 1.71353
# Velocity P-wave (km/s) = 4.34376 4.35139 4.34758
#
# Compressibility (1/GPa) = 0.03351813
#
# Stress axis : x y z
#
# Youngs Moduli (GPa) = 17.78571 17.78571 15.83738
#
# Poissons Ratio (x) = 0.31813 0.42088
# Poissons Ratio (y) = 0.31813 0.42088
# Poissons Ratio (z) = 0.47266 0.47266
#
# Static dielectric constant tensor:
#      x y z
#    x 1.705190 0.000000 0.000000 
#    y 0.000000 1.705190 0.000000 
#    z 0.000000 0.000000 1.747230 
# 
# From -- ./inp_files/2644.got.cif
#   From: 2010.05.17/outbox.ucp.g08.bks.cvg/sg187_2_cif.got.tgz:2644.got - 2010.06.11 15:21:44.
