data_PCOD9585512
_publ_section_title
;
Structure prediction by ZEFSAII (Michael W. Deem and Ramdas Pophale) SiO2 
 PCOD9585512
Probable space group: P -6 M 2
;
_chemical_formula_sum "Si O2"
_cell_formula_units_Z 90
_cell_length_a 29.149367
_cell_length_b 29.149367
_cell_length_c 7.417865
_cell_angle_alpha 90.000000
_cell_angle_beta 90.000000
_cell_angle_gamma 120.000000
_cell_volume 5458.430855
_symmetry_space_group_name_H-M "P -6 M 2"
_symmetry_group_IT_number 187
_symmetry_cell_setting 'hexagonal'
loop_
_space_group_symop_operation_xyz
x,y,z
-x+y,-x,-z
-y,x-y,z
x,y,-z
-x+y,-x,z
-y,x-y,-z
-y,-x,-z
-x+y,y,-z
x,x-y,-z
-x+y,y,z
x,x-y,z
-y,-x,z
loop_
_atom_site_type_symbol
_atom_site_label
_atom_site_fract_x
_atom_site_fract_y
_atom_site_fract_z
Si Si1 0.718358 0.733292 0.711290
Si Si2 0.813150 0.088016 0.281421
Si Si3 0.234728 0.870458 0.279791
Si Si4 0.223653 0.666328 0.000000
Si Si5 0.849149 0.599255 0.211317
Si Si6 0.392070 0.344930 0.781389
Si Si7 0.536725 0.567816 0.218504
Si Si8 0.332227 0.477455 0.708188
O O1 0.725974 0.746946 0.500000
O O2 0.776162 0.748093 0.784666
O O3 0.683731 0.757470 0.786584
O O4 0.682528 0.669544 0.726664
O O5 0.812877 0.086602 0.500000
O O6 0.873821 0.126180 0.223108
O O7 0.782147 0.118860 0.226813
O O8 0.235936 0.872230 0.500000
O O9 0.179798 0.820203 0.224412
O O10 0.283852 0.862796 0.226956
O O11 0.188109 0.663676 0.170588
O O12 0.279026 0.720975 0.000000
O O13 0.231770 0.615885 0.000000
O O14 0.790755 0.581509 0.288084
O O15 0.892289 0.584662 0.283669
O O16 0.841716 0.585260 0.000000
O O17 0.420943 0.405649 0.721915
O O18 0.392826 0.344076 0.000000
O O19 0.488424 0.511577 0.276679
O O20 0.526635 0.614834 0.278904
O O21 0.537122 0.568912 0.000000
O O22 0.322659 0.484837 0.500000
#
# Coordination Sequence:
#
# PCOD9585512 Si02
#       8
#    12  12  12   6  12  12  12  12
#     4   9  15  24  38  54  75 102 130 161 197 237
#     4   8  13  20  31  49  72  98 127 156 185 218
#     4   9  17  29  45  64  84 107 137 173 214 259
#     4  12  27  46  64  80  96 114 139 180 234 290
#     4   8  13  21  33  50  73 102 134 166 198 231
#     4   9  16  25  38  56  79 106 137 172 207 248
#     4  10  19  31  46  65  89 116 146 182 224 269
#     4  11  22  38  58  78  97 119 147 181 222 278
#
# _framework density 16.488256
#
# number of rings (size 3 to 8) (size 9 to 14) (size 15 to 20)
#    0.000    2.667    2.000    0.867    0.000    1.867 
#    0.000    0.000    0.000    0.800    0.000    0.000 
#    0.000    0.000    0.000    0.800    0.000   25.600 
#
# Total GULP energy -501471.214457 kJ/mol
# GULP energy per Si atom -5571.902383 kJ/mol
# Density = 1.645073 g / cm^3
# Si number density = 16.488256 Si / 1000 Ang^3
#
#
#
# Elastic Constant Matrix: (Units=GPa)
#
#
# Indices 1 2 3 4 5 6 
#
# 1 107.0573 76.7162 10.4357 0.0000 -0.0048 0.0000
# 2 76.7162 107.0573 10.4357 0.0000 0.0048 0.0000
# 3 10.4357 10.4357 65.3963 0.0000 0.0000 0.0000
# 4 0.0000 0.0000 0.0000 -50.0773 0.0000 0.0048
# 5 -0.0048 0.0048 0.0000 0.0000 -50.0773 0.0000
# 6 0.0000 0.0000 0.0000 0.0048 0.0000 15.1706
#
#
#
# Elastic Compliance Matrix: (Units=1/GPa)
#
#
# Indices 1 2 3 4 5 6 
#
# 1 0.019250 -0.013708 -0.000884 0.000000 -0.000003 0.000000
# 2 -0.013708 0.019250 -0.000884 0.000000 0.000003 0.000000
# 3 -0.000884 -0.000884 0.015574 0.000000 0.000000 0.000000
# 4 0.000000 0.000000 0.000000 -0.019969 0.000000 0.000006
# 5 -0.000003 0.000003 0.000000 0.000000 -0.019969 0.000000
# 6 0.000000 0.000000 0.000000 0.000006 0.000000 0.065917
#
#
# Mechanical properties :
#
#
# Convention : Reuss Voigt Hill
#
# Bulk Modulus (GPa) = 43.25252 52.74290 47.99771
# Shear Modulus (GPa) = 42.11818 -4.86856 18.62481
#
# Velocity S-wave (km/s) = 5.05963 -1.72022 3.36457
# Velocity P-wave (km/s) = 7.77318 5.30208 6.65336
#
# Compressibility (1/GPa) = 0.02312004
#
# Stress axis : x y z
#
# Youngs Moduli (GPa) = 51.94745 51.94745 64.21108
#
# Poissons Ratio (x) = 0.71211 0.05679
# Poissons Ratio (y) = 0.71211 0.05679
# Poissons Ratio (z) = 0.04594 0.04594
#
# Static dielectric constant tensor:
#      x y z
#    x 1.559740 0.000000 0.000000 
#    y 0.000000 1.559740 0.000000 
#    z 0.000000 0.000000 1.623850 
# 
# From -- ./inp_files/1300.got.cif
#   From: 2010.05.17/outbox.cif.g08.bks.cpg/sg187_1_cif.got.tgz:1300.got - 2010.05.20 12:09:04.
