data_PCOD9585233
_publ_section_title
;
Structure prediction by ZEFSAII (Michael W. Deem and Ramdas Pophale) SiO2 
 PCOD9585233
Probable space group: P 63 C M
;
_chemical_formula_sum "Si O2"
_cell_formula_units_Z 96
_cell_length_a 13.760120
_cell_length_b 13.760120
_cell_length_c 30.197201
_cell_angle_alpha 90.000000
_cell_angle_beta 90.000000
_cell_angle_gamma 120.000000
_cell_volume 4951.556787
_symmetry_space_group_name_H-M "P 63 C M"
_symmetry_group_IT_number 185
_symmetry_cell_setting 'hexagonal'
loop_
_space_group_symop_operation_xyz
x,y,z
x-y,x,1/2+z
-y,x-y,z
-x,-y,1/2+z
-x+y,-x,z
y,-x+y,1/2+z
-x+y,y,1/2+z
x,x-y,1/2+z
-y,-x,1/2+z
y,x,z
x-y,-y,z
-x,-x+y,z
loop_
_atom_site_type_symbol
_atom_site_label
_atom_site_fract_x
_atom_site_fract_y
_atom_site_fract_z
Si Si1 0.321756 0.196423 0.675280
Si Si2 0.544536 0.871488 0.114867
Si Si3 0.129933 0.691314 0.928149
Si Si4 0.551193 0.132892 0.196695
Si Si5 0.256252 0.128693 0.272560
Si Si6 0.646907 0.514545 0.883963
Si Si7 0.344523 0.481021 0.286051
Si Si8 0.227192 0.700043 0.019307
O O1 0.250473 0.250473 0.656639
O O2 0.354811 0.133452 0.639740
O O3 0.439244 0.299714 0.693169
O O4 0.260800 0.127138 0.718957
O O5 0.445486 0.823763 0.151522
O O6 0.515544 0.806902 0.068929
O O7 0.581538 0.000000 0.104986
O O8 0.146734 0.586350 0.915039
O O9 0.226195 0.794935 0.900877
O O10 0.000000 0.651534 0.918643
O O11 0.157990 0.714853 0.980231
O O12 0.619064 0.177461 0.242469
O O13 0.509724 0.000000 0.196387
O O14 0.176997 0.176997 0.288228
O O15 0.383486 0.214791 0.286280
O O16 0.208611 0.000000 0.285626
O O17 0.605553 0.605553 0.882855
O O18 0.631583 0.464726 0.834298
O O19 0.414460 0.414460 0.283363
O O20 0.217066 0.577737 0.014261
#
# Coordination Sequence:
#
# PCOD9585233 Si02
#       8
#    12  12  12  12  12  12  12  12
#     4  10  20  33  50  74 109 150 191 231 276 335
#     4  11  20  34  55  79 109 144 183 229 284 339
#     4  11  21  39  64  88 118 152 194 242 297 358
#     4   9  18  33  49  69 104 145 184 225 274 331
#     4  10  19  33  53  77 108 147 191 235 277 328
#     4  10  21  38  60  86 121 157 195 247 298 351
#     4   9  18  34  53  76 109 151 191 234 287 333
#     4  10  20  36  59  83 114 138 179 235 284 349
#
# _framework density 19.387841000000002
#
# number of rings (size 3 to 8) (size 9 to 14) (size 15 to 20)
#    0.250    1.750    2.500    1.875    0.000    1.500 
#    0.750    3.750    0.000    0.500    0.000    0.000 
#    0.000    0.000    0.000    0.000    0.000    0.000 
#
# Total GULP energy -535563.700693 kJ/mol
# GULP energy per Si atom -5578.788549 kJ/mol
# Density = 1.934371 g / cm^3
# Si number density = 19.387841 Si / 1000 Ang^3
#
#
#
# Elastic Constant Matrix: (Units=GPa)
#
#
# Indices 1 2 3 4 5 6 
#
# 1 52.4357 8.6589 9.1014 0.0000 0.0000 0.0000
# 2 8.6589 52.4357 9.1014 0.0000 0.0000 0.0000
# 3 9.1014 9.1014 105.6598 0.0000 0.0000 0.0000
# 4 0.0000 0.0000 0.0000 17.3418 0.0000 0.0000
# 5 0.0000 0.0000 0.0000 0.0000 17.3418 0.0000
# 6 0.0000 0.0000 0.0000 0.0000 0.0000 21.8884
#
#
#
# Elastic Compliance Matrix: (Units=1/GPa)
#
#
# Indices 1 2 3 4 5 6 
#
# 1 0.019821 -0.003022 -0.001447 0.000000 0.000000 0.000000
# 2 -0.003022 0.019821 -0.001447 0.000000 0.000000 0.000000
# 3 -0.001447 -0.001447 0.009714 0.000000 0.000000 0.000000
# 4 0.000000 0.000000 0.000000 0.057664 0.000000 0.000000
# 5 0.000000 0.000000 0.000000 0.000000 0.057664 0.000000
# 6 0.000000 0.000000 0.000000 0.000000 0.000000 0.045686
#
#
# Mechanical properties :
#
#
# Convention : Reuss Voigt Hill
#
# Bulk Modulus (GPa) = 26.64977 29.36162 28.00570
# Shear Modulus (GPa) = 21.30282 23.55904 22.43093
#
# Velocity S-wave (km/s) = 3.31837 3.48967 3.40510
# Velocity P-wave (km/s) = 5.33456 5.60485 5.47137
#
# Compressibility (1/GPa) = 0.03752377
#
# Stress axis : x y z
#
# Youngs Moduli (GPa) = 50.45112 50.45112 102.94816
#
# Poissons Ratio (x) = 0.15246 0.14897
# Poissons Ratio (y) = 0.15246 0.14897
# Poissons Ratio (z) = 0.07301 0.07301
#
# Static dielectric constant tensor:
#      x y z
#    x 1.702740 0.000000 0.000000 
#    y 0.000000 1.702740 0.000000 
#    z 0.000000 0.000000 1.672900 
# 
# From -- ./inp_files/2235.got.cif
#   From: 2010.05.17/outbox.cif.g08.bks.cpg/sg185_cif.got.tgz:2235.got - 2010.05.20 12:05:34.
