data_PCOD9585757
_publ_section_title
;
Structure prediction by ZEFSAII (Michael W. Deem and Ramdas Pophale) SiO2 
 PCOD9585757
Probable space group: P -6 M 2
;
_chemical_formula_sum "Si O2"
_cell_formula_units_Z 84
_cell_length_a 18.785834
_cell_length_b 18.785834
_cell_length_c 13.841203
_cell_angle_alpha 90.000000
_cell_angle_beta 90.000000
_cell_angle_gamma 120.000000
_cell_volume 4230.244122
_symmetry_space_group_name_H-M "P -6 M 2"
_symmetry_group_IT_number 187
_symmetry_cell_setting 'hexagonal'
loop_
_space_group_symop_operation_xyz
x,y,z
-x+y,-x,-z
-y,x-y,z
x,y,-z
-x+y,-x,z
-y,x-y,-z
-y,-x,-z
-x+y,y,-z
x,x-y,-z
-x+y,y,z
x,x-y,z
-y,-x,z
loop_
_atom_site_type_symbol
_atom_site_label
_atom_site_fract_x
_atom_site_fract_y
_atom_site_fract_z
Si Si1 0.492889 0.827564 0.817876
Si Si2 0.968550 0.675428 0.688628
Si Si3 0.301138 0.437619 0.391920
Si Si4 0.666906 0.167985 0.615035
Si Si5 0.822151 0.333605 0.884259
Si Si6 0.635987 0.636522 0.888597
Si Si7 0.156347 0.999414 0.384349
O O1 0.400149 0.800297 0.843551
O O2 0.514647 0.757324 0.843111
O O3 0.504177 0.841103 0.701515
O O4 0.553168 0.914240 0.868275
O O5 0.892068 0.585127 0.667349
O O6 0.045860 0.682118 0.629719
O O7 0.992229 0.688451 0.801894
O O8 0.960887 0.751865 0.654442
O O9 0.331266 0.471750 0.500000
O O10 0.204094 0.408188 0.390877
O O11 0.665860 0.152484 0.500000
O O12 0.576561 0.153121 0.640449
O O13 0.737699 0.262301 0.630912
O O14 0.796445 0.398223 0.847429
O O15 0.758646 0.241355 0.849475
O O16 0.918858 0.370115 0.870558
O O17 0.813826 0.330870 0.000000
O O18 0.661756 0.659724 0.000000
O O19 0.161130 0.994399 0.500000
O O20 0.091826 0.908175 0.348003
O O21 0.123437 0.061719 0.363197
#
# Coordination Sequence:
#
# PCOD9585757 Si02
#       7
#    12  12  12  12  12  12  12
#     4  10  21  37  58  83 110 143 186 235 285 338
#     4  11  21  34  57  84 109 144 192 239 276 321
#     4   9  18  33  53  80 114 146 174 213 273 340
#     4  10  21  37  56  80 113 152 191 231 277 329
#     4   9  17  31  53  79 105 134 170 214 266 326
#     4  10  23  41  57  76 108 147 187 236 293 341
#     4  10  20  35  58  90 126 157 182 215 267 332
#
# _framework density 19.857009999999999
#
# number of rings (size 3 to 8) (size 9 to 14) (size 15 to 20)
#    0.000    2.143    0.000    3.143    0.000   10.000 
#    0.000    0.000    0.000    3.429    0.000    0.000 
#    0.000    1.143    0.000    0.000    0.000    0.000 
#
# Total GULP energy -468438.477996 kJ/mol
# GULP energy per Si atom -5576.648548 kJ/mol
# Density = 1.981182 g / cm^3
# Si number density = 19.857010 Si / 1000 Ang^3
#
#
#
# Elastic Constant Matrix: (Units=GPa)
#
#
# Indices 1 2 3 4 5 6 
#
# 1 92.0361 78.0419 20.3824 0.0000 -0.0002 0.0000
# 2 78.0419 92.0361 20.3824 0.0000 0.0002 0.0000
# 3 20.3824 20.3824 100.2054 0.0000 0.0000 0.0000
# 4 0.0000 0.0000 0.0000 10.6388 0.0000 0.0002
# 5 -0.0002 0.0002 0.0000 0.0000 10.6388 0.0000
# 6 0.0000 0.0000 0.0000 0.0002 0.0000 6.9971
#
#
#
# Elastic Compliance Matrix: (Units=1/GPa)
#
#
# Indices 1 2 3 4 5 6 
#
# 1 0.038820 -0.032639 -0.001257 0.000000 0.000001 0.000000
# 2 -0.032639 0.038820 -0.001257 0.000000 -0.000001 0.000000
# 3 -0.001257 -0.001257 0.010491 0.000000 0.000000 0.000000
# 4 0.000000 0.000000 0.000000 0.093995 0.000000 -0.000002
# 5 0.000001 -0.000001 0.000000 0.000000 0.093995 0.000000
# 6 0.000000 0.000000 0.000000 -0.000002 0.000000 0.142917
#
#
# Mechanical properties :
#
#
# Convention : Reuss Voigt Hill
#
# Bulk Modulus (GPa) = 56.10430 57.98791 57.04611
# Shear Modulus (GPa) = 10.09520 16.68634 13.39077
#
# Velocity S-wave (km/s) = 2.25721 2.90198 2.59966
# Velocity P-wave (km/s) = 5.92527 6.36355 6.14832
#
# Compressibility (1/GPa) = 0.01782394
#
# Stress axis : x y z
#
# Youngs Moduli (GPa) = 25.76015 25.76015 95.32004
#
# Poissons Ratio (x) = 0.84078 0.11984
# Poissons Ratio (y) = 0.84078 0.11984
# Poissons Ratio (z) = 0.03239 0.03239
#
# Static dielectric constant tensor:
#      x y z
#    x 1.688040 0.000000 0.000000 
#    y 0.000000 1.688040 0.000000 
#    z 0.000000 0.000000 1.734860 
# 
# From -- ./inp_files/2635.got.cif
#   From: 2010.05.17/outbox.cif.g08.bks.cpg/sg187_2_cif.got.tgz:2635.got - 2010.05.20 12:09:04.
