data_PCOD9585497
_publ_section_title
;
Structure prediction by ZEFSAII (Michael W. Deem and Ramdas Pophale) SiO2 
 PCOD9585497
Probable space group: P -6 M 2
;
_chemical_formula_sum "Si O2"
_cell_formula_units_Z 90
_cell_length_a 17.677601
_cell_length_b 17.677601
_cell_length_c 18.273014
_cell_angle_alpha 90.000000
_cell_angle_beta 90.000000
_cell_angle_gamma 120.000000
_cell_volume 4945.241136
_symmetry_space_group_name_H-M "P -6 M 2"
_symmetry_group_IT_number 187
_symmetry_cell_setting 'hexagonal'
loop_
_space_group_symop_operation_xyz
x,y,z
-x+y,-x,-z
-y,x-y,z
x,y,-z
-x+y,-x,z
-y,x-y,-z
-y,-x,-z
-x+y,y,-z
x,x-y,-z
-x+y,y,z
x,x-y,z
-y,-x,z
loop_
_atom_site_type_symbol
_atom_site_label
_atom_site_fract_x
_atom_site_fract_y
_atom_site_fract_z
Si Si1 0.846680 0.335278 0.704975
Si Si2 0.508095 0.844019 0.319305
Si Si3 0.833513 0.831454 0.744872
Si Si4 0.777357 0.973606 0.419757
Si Si5 0.695126 0.762550 0.133816
Si Si6 0.170858 0.172254 0.000000
Si Si7 0.618210 0.008650 0.417400
Si Si8 0.582752 0.593163 0.192983
O O1 0.819263 0.409632 0.713597
O O2 0.761806 0.238195 0.702383
O O3 0.917502 0.351835 0.768637
O O4 0.909483 0.362526 0.633416
O O5 0.404780 0.809559 0.315307
O O6 0.526229 0.763115 0.323198
O O7 0.546982 0.914734 0.385087
O O8 0.552999 0.909140 0.250411
O O9 0.903253 0.806506 0.772356
O O10 0.826768 0.821869 0.657102
O O11 0.742835 0.777296 0.787257
O O12 0.863922 0.931961 0.761486
O O13 0.822407 0.000868 0.500000
O O14 0.737822 0.868911 0.417350
O O15 0.705816 0.002540 0.418046
O O16 0.657838 0.828919 0.130407
O O17 0.627015 0.661201 0.128189
O O18 0.767687 0.793043 0.071532
O O19 0.067001 0.134002 0.000000
O O20 0.193904 0.096952 0.000000
O O21 0.597403 0.020352 0.500000
O O22 0.496299 0.503701 0.173961
#
# Coordination Sequence:
#
# PCOD9585497 Si02
#       8
#    12  12  12  12  12   6  12  12
#     4  10  21  36  53  72  94 122 159 207 264 322
#     4  10  19  31  49  73 101 132 166 205 250 304
#     4  10  19  30  46  69  99 135 173 213 256 303
#     4   9  18  31  46  66  92 125 167 212 258 305
#     4  10  20  34  54  80 109 142 180 217 254 300
#     4  10  21  36  55  82 118 156 188 220 257 296
#     4  10  20  33  48  65  89 123 163 209 260 312
#     4   9  19  35  55  79 105 132 163 205 258 311
#
# _framework density 18.199314000000001
#
# number of rings (size 3 to 8) (size 9 to 14) (size 15 to 20)
#    0.000    2.267    0.000    4.467    0.000    6.133 
#    0.000    3.000    0.000    2.667    0.000    0.000 
#    0.000    0.000    0.000    0.000    0.000    0.267 
#
# Total GULP energy -501433.710705 kJ/mol
# GULP energy per Si atom -5571.485674 kJ/mol
# Density = 1.815789 g / cm^3
# Si number density = 18.199314 Si / 1000 Ang^3
#
#
#
# Elastic Constant Matrix: (Units=GPa)
#
#
# Indices 1 2 3 4 5 6 
#
# 1 94.3373 64.2823 17.4271 0.0000 0.0000 0.0000
# 2 64.2823 94.3373 17.4271 0.0000 0.0000 0.0000
# 3 17.4271 17.4271 40.7641 0.0000 0.0000 0.0000
# 4 0.0000 0.0000 0.0000 15.3064 0.0000 0.0000
# 5 0.0000 0.0000 0.0000 0.0000 15.3064 0.0000
# 6 0.0000 0.0000 0.0000 0.0000 0.0000 15.0275
#
#
#
# Elastic Compliance Matrix: (Units=1/GPa)
#
#
# Indices 1 2 3 4 5 6 
#
# 1 0.020115 -0.013157 -0.002975 0.000000 0.000000 0.000000
# 2 -0.013157 0.020115 -0.002975 0.000000 0.000000 0.000000
# 3 -0.002975 -0.002975 0.027075 0.000000 0.000000 0.000000
# 4 0.000000 0.000000 0.000000 0.065332 0.000000 0.000000
# 5 0.000000 0.000000 0.000000 0.000000 0.065332 0.000000
# 6 0.000000 0.000000 0.000000 0.000000 0.000000 0.066545
#
#
# Mechanical properties :
#
#
# Convention : Reuss Voigt Hill
#
# Bulk Modulus (GPa) = 34.37336 47.52353 40.94844
# Shear Modulus (GPa) = 16.00385 17.81485 16.90935
#
# Velocity S-wave (km/s) = 2.96863 3.13209 3.05145
# Velocity P-wave (km/s) = 5.53882 6.26494 5.91304
#
# Compressibility (1/GPa) = 0.02909230
#
# Stress axis : x y z
#
# Youngs Moduli (GPa) = 49.71368 49.71368 36.93470
#
# Poissons Ratio (x) = 0.65409 0.10987
# Poissons Ratio (y) = 0.65409 0.10987
# Poissons Ratio (z) = 0.14788 0.14788
#
# Static dielectric constant tensor:
#      x y z
#    x 1.643640 0.000000 0.000000 
#    y 0.000000 1.643640 0.000000 
#    z 0.000000 0.000000 1.651180 
# 
# From -- ./inp_files/3232.got.cif
#   From: 2010.05.17/outbox.cif.g08.bks.cpg/sg187_2_cif.got.tgz:3232.got - 2010.05.20 12:09:04.
