data_PCOD9585457
_publ_section_title
;
Structure prediction by ZEFSAII (Michael W. Deem and Ramdas Pophale) SiO2 
 PCOD9585457
Probable space group: P -6 M 2
;
_chemical_formula_sum "Si O2"
_cell_formula_units_Z 72
_cell_length_a 23.844412
_cell_length_b 23.844412
_cell_length_c 7.542708
_cell_angle_alpha 90.000000
_cell_angle_beta 90.000000
_cell_angle_gamma 120.000000
_cell_volume 3713.908172
_symmetry_space_group_name_H-M "P -6 M 2"
_symmetry_group_IT_number 187
_symmetry_cell_setting 'hexagonal'
loop_
_space_group_symop_operation_xyz
x,y,z
-x+y,-x,-z
-y,x-y,z
x,y,-z
-x+y,-x,z
-y,x-y,-z
-y,-x,-z
-x+y,y,-z
x,x-y,-z
-x+y,y,z
x,x-y,z
-y,-x,z
loop_
_atom_site_type_symbol
_atom_site_label
_atom_site_fract_x
_atom_site_fract_y
_atom_site_fract_z
Si Si1 0.587743 0.048482 0.208611
Si Si2 0.931102 0.194442 0.283822
Si Si3 0.730969 0.143574 0.286578
Si Si4 0.721378 0.796362 0.717340
Si Si5 0.328799 0.409044 0.292033
Si Si6 0.462016 0.795647 0.717098
O O1 0.525645 0.051289 0.281108
O O2 0.656564 0.113243 0.235594
O O3 0.593364 0.988014 0.279380
O O4 0.578232 0.037588 0.000000
O O5 0.931017 0.195006 0.500000
O O6 0.877368 0.122633 0.227293
O O7 0.904195 0.242261 0.228563
O O8 0.004417 0.221520 0.226510
O O9 0.732781 0.144166 0.500000
O O10 0.784327 0.215674 0.225712
O O11 0.721252 0.796562 0.500000
O O12 0.726666 0.863333 0.774486
O O13 0.654638 0.733893 0.779025
O O14 0.314974 0.409254 0.500000
O O15 0.337466 0.475877 0.219763
O O16 0.461456 0.796287 0.500000
O O17 0.395689 0.791378 0.775284
O O18 0.466230 0.733115 0.770710
#
# Coordination Sequence:
#
# PCOD9585457 Si02
#       6
#    12  12  12  12  12  12
#     4  11  23  35  48  71 104 137 165 196 239 291
#     4   8  13  23  41  66  94 120 150 192 238 282
#     4   9  17  32  55  79  99 122 157 199 240 283
#     4   9  15  23  40  67  95 123 158 201 247 292
#     4  10  18  30  47  68  92 122 163 209 251 292
#     4   9  16  25  39  61  88 117 153 203 261 314
#
# _framework density 19.386583999999999
#
# number of rings (size 3 to 8) (size 9 to 14) (size 15 to 20)
#    0.000    2.667    1.667    2.667    0.000    5.000 
#    0.000    0.000    0.000    2.667    0.000    2.333 
#    0.000    1.333    0.000    0.000    0.000    3.333 
#
# Total GULP energy -401701.388748 kJ/mol
# GULP energy per Si atom -5579.185955 kJ/mol
# Density = 1.934246 g / cm^3
# Si number density = 19.386584 Si / 1000 Ang^3
#
#
#
# Elastic Constant Matrix: (Units=GPa)
#
#
# Indices 1 2 3 4 5 6 
#
# 1 144.4084 86.5734 -6.1075 0.0000 0.0014 0.0000
# 2 86.5734 144.4084 -6.1075 0.0000 -0.0014 0.0000
# 3 -6.1075 -6.1075 41.6643 0.0000 0.0000 0.0000
# 4 0.0000 0.0000 0.0000 -91.0503 0.0000 -0.0014
# 5 0.0014 -0.0014 0.0000 0.0000 -91.0503 0.0000
# 6 0.0000 0.0000 0.0000 -0.0014 0.0000 28.9175
#
#
#
# Elastic Compliance Matrix: (Units=1/GPa)
#
#
# Indices 1 2 3 4 5 6 
#
# 1 0.010827 -0.006464 0.000640 0.000000 0.000000 0.000000
# 2 -0.006464 0.010827 0.000640 0.000000 0.000000 0.000000
# 3 0.000640 0.000640 0.024189 0.000000 0.000000 0.000000
# 4 0.000000 0.000000 0.000000 -0.010983 0.000000 -0.000001
# 5 0.000000 0.000000 0.000000 0.000000 -0.010983 0.000000
# 6 0.000000 0.000000 0.000000 -0.000001 0.000000 0.034581
#
#
# Mechanical properties :
#
#
# Convention : Reuss Voigt Hill
#
# Bulk Modulus (GPa) = 28.19002 53.24423 40.71712
# Shear Modulus (GPa) = 61.99525 -13.56176 24.21675
#
# Velocity S-wave (km/s) = 5.66108 -2.64776 3.53817
# Velocity P-wave (km/s) = 7.56988 4.26340 6.14327
#
# Compressibility (1/GPa) = 0.03547354
#
# Stress axis : x y z
#
# Youngs Moduli (GPa) = 92.36290 92.36290 41.34134
#
# Poissons Ratio (x) = 0.59701 -0.02644
# Poissons Ratio (y) = 0.59701 -0.02644
# Poissons Ratio (z) = -0.05907 -0.05907
#
# Static dielectric constant tensor:
#      x y z
#    x 1.666070 0.000000 0.000000 
#    y 0.000000 1.666070 0.000000 
#    z 0.000000 0.000000 1.750680 
# 
# From -- ./inp_files/951.got.cif
#   From: 2010.05.17/outbox.cif.g08.bks.cpg/sg187_1_cif.got.tgz:951.got - 2010.05.20 12:09:04.
