data_PCOD9585944
_publ_section_title
;
Structure prediction by ZEFSAII (Michael W. Deem and Ramdas Pophale) SiO2 
 PCOD9585944
Probable space group: P -6 C 2
;
_chemical_formula_sum "Si O2"
_cell_formula_units_Z 48
_cell_length_a 19.073141
_cell_length_b 19.073141
_cell_length_c 8.651677
_cell_angle_alpha 90.000000
_cell_angle_beta 90.000000
_cell_angle_gamma 120.000000
_cell_volume 2725.683139
_symmetry_space_group_name_H-M "P -6 C 2"
_symmetry_group_IT_number 188
_symmetry_cell_setting 'hexagonal'
loop_
_space_group_symop_operation_xyz
x,y,z
-x+y,-x,1/2-z
-y,x-y,z
x,y,1/2-z
-x+y,-x,z
-y,x-y,1/2-z
-y,-x,-z
-x+y,y,-z
x,x-y,-z
-x+y,y,1/2+z
x,x-y,1/2+z
-y,-x,1/2+z
loop_
_atom_site_type_symbol
_atom_site_label
_atom_site_fract_x
_atom_site_fract_y
_atom_site_fract_z
Si Si1 0.090557 0.334808 0.065241
Si Si2 0.326932 0.240663 0.435616
Si Si3 0.487118 0.665823 0.935281
Si Si4 0.819703 0.485176 0.065531
O O1 0.096205 0.340283 0.250000
O O2 0.156932 0.313863 0.000000
O O3 0.116554 0.423098 0.995486
O O4 0.000734 0.272151 0.010158
O O5 0.319603 0.237808 0.250000
O O6 0.308342 0.154171 0.500000
O O7 0.421360 0.302845 0.475729
O O8 0.486145 0.666628 0.750000
O O9 0.420445 0.579556 0.000000
O O10 0.467899 0.733950 0.000000
O O11 0.814476 0.478933 0.250000
O O12 0.732567 0.465133 0.000000
O O13 0.843351 0.421676 0.000000
#
# Coordination Sequence:
#
# PCOD9585944 Si02
#       4
#    12  12  12  12
#     4  11  22  38  59  83 110 142 178 221 270 324
#     4  10  21  38  58  82 109 141 179 222 270 324
#     4  11  21  35  53  77 109 147 189 231 272 318
#     4  10  20  33  51  74 106 144 185 226 266 310
#
# _framework density 17.610264000000001
#
# number of rings (size 3 to 8) (size 9 to 14) (size 15 to 20)
#    0.000    1.500    0.000    8.000    0.000    4.000 
#    0.000    2.500    0.000    0.500    0.000    3.500 
#    0.000    0.000    0.000    0.000    0.000    0.000 
#
# Total GULP energy -268307.467350 kJ/mol
# GULP energy per Si atom -5589.738903 kJ/mol
# Density = 1.757018 g / cm^3
# Si number density = 17.610264 Si / 1000 Ang^3
#
#
#
# Elastic Constant Matrix: (Units=GPa)
#
#
# Indices 1 2 3 4 5 6 
#
# 1 112.7286 100.9800 65.4512 -0.0010 0.0000 0.0000
# 2 100.9800 112.7286 65.4512 0.0010 0.0000 0.0000
# 3 65.4512 65.4512 149.0486 0.0000 0.0000 0.0000
# 4 -0.0010 0.0010 0.0000 16.5842 0.0000 0.0000
# 5 0.0000 0.0000 0.0000 0.0000 16.5842 -0.0010
# 6 0.0000 0.0000 0.0000 0.0000 -0.0010 5.8743
#
#
#
# Elastic Compliance Matrix: (Units=1/GPa)
#
#
# Indices 1 2 3 4 5 6 
#
# 1 0.045759 -0.039358 -0.002811 0.000005 0.000000 0.000000
# 2 -0.039358 0.045759 -0.002811 -0.000005 0.000000 0.000000
# 3 -0.002811 -0.002811 0.009178 0.000000 0.000000 0.000000
# 4 0.000005 -0.000005 0.000000 0.060298 0.000000 0.000000
# 5 0.000000 0.000000 0.000000 0.000000 0.060298 0.000010
# 6 0.000000 0.000000 0.000000 0.000000 0.000010 0.170233
#
#
# Mechanical properties :
#
#
# Convention : Reuss Voigt Hill
#
# Bulk Modulus (GPa) = 93.14064 93.14120 93.14092
# Shear Modulus (GPa) = 10.30792 17.31675 13.81234
#
# Velocity S-wave (km/s) = 2.42200 3.13922 2.80364
# Velocity P-wave (km/s) = 7.79912 8.13294 7.96778
#
# Compressibility (1/GPa) = 0.01073645
#
# Stress axis : x y z
#
# Youngs Moduli (GPa) = 21.85369 21.85369 108.95792
#
# Poissons Ratio (x) = 0.86011 0.30626
# Poissons Ratio (y) = 0.86011 0.30626
# Poissons Ratio (z) = 0.06143 0.06143
#
# Static dielectric constant tensor:
#      x y z
#    x 1.583950 0.000000 0.000000 
#    y 0.000000 1.583950 0.000000 
#    z 0.000000 0.000000 1.583890 
# 
# From -- ./inp_files/354.got.cif
#   From: 2010.05.17/outbox.cif.g08.bks.cpg/sg188_1_cif.got.tgz:354.got - 2010.05.20 12:11:46.
