data_PCOD9585676
_publ_section_title
;
Structure prediction by ZEFSAII (Michael W. Deem and Ramdas Pophale) SiO2 
 PCOD9585676
Probable space group: P -6 M 2
;
_chemical_formula_sum "Si O2"
_cell_formula_units_Z 66
_cell_length_a 12.890563
_cell_length_b 12.890563
_cell_length_c 28.896068
_cell_angle_alpha 90.000000
_cell_angle_beta 90.000000
_cell_angle_gamma 120.000000
_cell_volume 4158.274489
_symmetry_space_group_name_H-M "P -6 M 2"
_symmetry_group_IT_number 187
_symmetry_cell_setting 'hexagonal'
loop_
_space_group_symop_operation_xyz
x,y,z
-x+y,-x,-z
-y,x-y,z
x,y,-z
-x+y,-x,z
-y,x-y,-z
-y,-x,-z
-x+y,y,-z
x,x-y,-z
-x+y,y,z
x,x-y,z
-y,-x,z
loop_
_atom_site_type_symbol
_atom_site_label
_atom_site_fract_x
_atom_site_fract_y
_atom_site_fract_z
Si Si1 0.419707 0.332295 0.500000
Si Si2 0.246976 0.999697 0.412353
Si Si3 0.667100 0.087020 0.134278
Si Si4 0.087430 0.667292 0.675499
Si Si5 0.086389 0.667118 0.948286
Si Si6 0.420941 0.087251 0.239141
O O1 0.538466 0.461535 0.500000
O O2 0.452934 0.226467 0.500000
O O3 0.336993 0.310021 0.544871
O O4 0.118448 0.881553 0.421124
O O5 0.302871 0.974420 0.366868
O O6 0.232468 0.116234 0.406413
O O7 0.552372 0.104744 0.129710
O O8 0.787009 0.212992 0.129701
O O9 0.664034 0.042439 0.186741
O O10 0.656270 0.998508 0.093592
O O11 0.088998 0.544499 0.667130
O O12 0.221246 0.778755 0.680140
O O13 0.011506 0.649257 0.722023
O O14 0.104251 0.552126 0.944652
O O15 0.213000 0.787001 0.944894
O O16 0.036342 0.662673 0.000000
O O17 0.559160 0.118319 0.241633
O O18 0.413681 0.206841 0.246763
#
# Coordination Sequence:
#
# PCOD9585676 Si02
#       6
#     6  12  12  12  12  12
#     4  10  20  34  52  74 100 128 158 194 238 286
#     4  10  20  34  53  75  99 128 163 203 242 280
#     4   9  17  29  46  68  93 119 147 183 229 279
#     4  10  20  33  49  70  98 130 161 194 234 281
#     4   9  17  29  45  65  89 118 152 189 228 270
#     4   9  17  30  48  69  92 119 152 190 232 277
#
# _framework density 15.871967
#
# number of rings (size 3 to 8) (size 9 to 14) (size 15 to 20)
#    0.000    2.545    0.000    2.364    0.000    3.273 
#    0.000    0.909    0.000   12.364    0.000    0.000 
#    0.000    0.000    0.000    0.000    0.000    0.000 
#
# Total GULP energy -367861.461734 kJ/mol
# GULP energy per Si atom -5573.658511 kJ/mol
# Density = 1.583584 g / cm^3
# Si number density = 15.871967 Si / 1000 Ang^3
#
#
#
# Elastic Constant Matrix: (Units=GPa)
#
#
# Indices 1 2 3 4 5 6 
#
# 1 95.2899 55.5995 76.8489 0.0000 -0.0002 0.0000
# 2 55.5995 95.2899 76.8489 0.0000 0.0002 0.0000
# 3 76.8489 76.8489 141.6549 0.0000 0.0000 0.0000
# 4 0.0000 0.0000 0.0000 26.9496 0.0000 0.0002
# 5 -0.0002 0.0002 0.0000 0.0000 26.9496 0.0000
# 6 0.0000 0.0000 0.0000 0.0002 0.0000 19.8452
#
#
#
# Elastic Compliance Matrix: (Units=1/GPa)
#
#
# Indices 1 2 3 4 5 6 
#
# 1 0.020004 -0.005191 -0.008036 0.000000 0.000000 0.000000
# 2 -0.005191 0.020004 -0.008036 0.000000 0.000000 0.000000
# 3 -0.008036 -0.008036 0.015779 0.000000 0.000000 0.000000
# 4 0.000000 0.000000 0.000000 0.037106 0.000000 0.000000
# 5 0.000000 0.000000 0.000000 0.000000 0.037106 0.000000
# 6 0.000000 0.000000 0.000000 0.000000 0.000000 0.050390
#
#
# Mechanical properties :
#
#
# Convention : Reuss Voigt Hill
#
# Bulk Modulus (GPa) = 75.41360 83.42547 79.41954
# Shear Modulus (GPa) = 21.99381 22.94473 22.46927
#
# Velocity S-wave (km/s) = 3.72654 3.80625 3.76660
# Velocity P-wave (km/s) = 8.13222 8.48483 8.31039
#
# Compressibility (1/GPa) = 0.01326021
#
# Stress axis : x y z
#
# Youngs Moduli (GPa) = 49.98968 49.98968 63.37563
#
# Poissons Ratio (x) = 0.25949 0.50931
# Poissons Ratio (y) = 0.25949 0.50931
# Poissons Ratio (z) = 0.40173 0.40173
#
# Static dielectric constant tensor:
#      x y z
#    x 1.499290 0.000000 0.000000 
#    y 0.000000 1.499290 0.000000 
#    z 0.000000 0.000000 1.540320 
# 
# From -- ./inp_files/4473.got.cif
#   From: 2010.05.17/outbox.cif.g08.bks.cpg/sg187_3_cif.got.tgz:4473.got - 2010.05.20 12:09:04.
