data_PCOD9585101
_publ_section_title
;
Structure prediction by ZEFSAII (Michael W. Deem and Ramdas Pophale) SiO2 
 PCOD9585101
Probable space group: P 6 C C
;
_chemical_formula_sum "Si O2"
_cell_formula_units_Z 84
_cell_length_a 17.769521
_cell_length_b 17.769521
_cell_length_c 13.791432
_cell_angle_alpha 90.000000
_cell_angle_beta 90.000000
_cell_angle_gamma 120.000000
_cell_volume 3771.303083
_symmetry_space_group_name_H-M "P 6 C C"
_symmetry_group_IT_number 184
_symmetry_cell_setting 'hexagonal'
loop_
_space_group_symop_operation_xyz
x,y,z
x-y,x,z
-y,x-y,z
-x,-y,z
-x+y,-x,z
y,-x+y,z
-x+y,y,1/2+z
x,x-y,1/2+z
-y,-x,1/2+z
y,x,1/2+z
x-y,-y,1/2+z
-x,-x+y,1/2+z
loop_
_atom_site_type_symbol
_atom_site_label
_atom_site_fract_x
_atom_site_fract_y
_atom_site_fract_z
Si Si1 0.646289 0.858710 0.810540
Si Si2 0.436169 0.402294 0.093332
Si Si3 0.200527 0.046417 0.665087
Si Si4 0.120389 0.777351 0.502091
Si Si5 0.774415 0.361915 0.238593
Si Si6 0.408467 0.493278 0.811643
Si Si7 0.571840 0.853075 0.138527
O O1 0.729658 0.931853 0.751854
O O2 0.675479 0.818269 0.896520
O O3 0.581784 0.894741 0.846473
O O4 0.599411 0.778773 0.734130
O O5 0.500000 0.500000 0.056591
O O6 0.478390 0.394419 0.194012
O O7 0.344961 0.390330 0.131029
O O8 0.406920 0.325710 0.016053
O O9 0.170978 0.119544 0.669549
O O10 0.256249 0.063828 0.565931
O O11 0.214177 0.818983 0.552719
O O12 0.731870 0.422188 0.243781
O O13 0.841857 0.405450 0.324793
O O14 0.816871 0.347785 0.143619
O O15 0.500000 0.500000 0.834184
#
# Coordination Sequence:
#
# PCOD9585101 Si02
#       7
#    12  12  12  12  12  12  12
#     4  11  24  43  68 101 138 181 231 290 358 426
#     4  11  21  40  66  98 133 177 237 291 349 419
#     4  11  25  46  72 102 135 181 230 292 365 437
#     4  11  24  43  66 101 141 179 233 287 360 427
#     4  10  18  32  62  87 119 176 220 271 355 402
#     4  11  20  37  67  96 129 177 235 289 346 413
#     4  11  21  39  65  91 127 181 227 284 351 421
#
# _framework density 22.273467
#
# number of rings (size 3 to 8) (size 9 to 14) (size 15 to 20)
#    0.286    0.857    7.143    1.857    0.000    2.286 
#    0.000    2.857    0.000    1.714    0.000    0.000 
#    0.000    0.000    0.000    0.000    0.000    0.000 
#
# Total GULP energy -467833.952721 kJ/mol
# GULP energy per Si atom -5569.451818 kJ/mol
# Density = 2.222277 g / cm^3
# Si number density = 22.273467 Si / 1000 Ang^3
#
#
#
# Elastic Constant Matrix: (Units=GPa)
#
#
# Indices 1 2 3 4 5 6 
#
# 1 102.4226 41.5171 16.1091 0.0000 0.0000 0.0000
# 2 41.5171 102.4226 16.1091 0.0000 0.0000 0.0000
# 3 16.1091 16.1091 73.1785 0.0000 0.0000 0.0000
# 4 0.0000 0.0000 0.0000 1.7983 0.0000 0.0000
# 5 0.0000 0.0000 0.0000 0.0000 1.7983 0.0000
# 6 0.0000 0.0000 0.0000 0.0000 0.0000 30.4527
#
#
#
# Elastic Compliance Matrix: (Units=1/GPa)
#
#
# Indices 1 2 3 4 5 6 
#
# 1 0.011863 -0.004556 -0.001609 0.000000 0.000000 0.000000
# 2 -0.004556 0.011863 -0.001609 0.000000 0.000000 0.000000
# 3 -0.001609 -0.001609 0.014373 0.000000 0.000000 0.000000
# 4 0.000000 0.000000 0.000000 0.556067 0.000000 0.000000
# 5 0.000000 0.000000 0.000000 0.000000 0.556067 0.000000
# 6 0.000000 0.000000 0.000000 0.000000 0.000000 0.032838
#
#
# Mechanical properties :
#
#
# Convention : Reuss Voigt Hill
#
# Bulk Modulus (GPa) = 44.33840 47.27714 45.80777
# Shear Modulus (GPa) = 4.14547 20.42910 12.28729
#
# Velocity S-wave (km/s) = 1.36573 3.03181 2.35128
# Velocity P-wave (km/s) = 4.73672 5.79031 5.28981
#
# Compressibility (1/GPa) = 0.02255381
#
# Stress axis : x y z
#
# Youngs Moduli (GPa) = 84.29461 84.29461 69.57280
#
# Poissons Ratio (x) = 0.38402 0.11192
# Poissons Ratio (y) = 0.38402 0.11192
# Poissons Ratio (z) = 0.13560 0.13560
#
# Static dielectric constant tensor:
#      x y z
#    x 1.956790 0.000000 0.000000 
#    y 0.000000 1.956790 0.000000 
#    z 0.000000 0.000000 1.853500 
# 
# From -- ./inp_files/931.got.cif
#   From: 2010.05.17/outbox.cif.g08.bks.cpg/sg184_cif.got.tgz:931.got - 2010.05.20 12:04:40.
