data_PCOD9585323
_publ_section_title
;
Structure prediction by ZEFSAII (Michael W. Deem and Ramdas Pophale) SiO2 
 PCOD9585323
Probable space group: P 63 M C
;
_chemical_formula_sum "Si O2"
_cell_formula_units_Z 96
_cell_length_a 17.537363
_cell_length_b 17.537363
_cell_length_c 22.397538
_cell_angle_alpha 90.000000
_cell_angle_beta 90.000000
_cell_angle_gamma 120.000000
_cell_volume 5965.673716
_symmetry_space_group_name_H-M "P 63 M C"
_symmetry_group_IT_number 186
_symmetry_cell_setting 'hexagonal'
loop_
_space_group_symop_operation_xyz
x,y,z
x-y,x,1/2+z
-y,x-y,z
-x,-y,1/2+z
-x+y,-x,z
y,-x+y,1/2+z
-x+y,y,z
x,x-y,z
-y,-x,z
y,x,1/2+z
x-y,-y,1/2+z
-x,-x+y,1/2+z
loop_
_atom_site_type_symbol
_atom_site_label
_atom_site_fract_x
_atom_site_fract_y
_atom_site_fract_z
Si Si1 0.898047 0.621675 0.333300
Si Si2 0.170927 0.000000 0.464543
Si Si3 0.334255 0.081841 0.554496
Si Si4 0.621678 0.723630 0.595793
Si Si5 0.486115 0.332520 0.456903
Si Si6 0.486115 0.332520 0.972190
Si Si7 0.668359 0.505762 0.214546
Si Si8 0.747584 0.081843 0.874594
O O1 0.829326 0.658652 0.337961
O O2 0.881233 0.564625 0.393792
O O3 0.871191 0.563045 0.274294
O O4 0.001755 0.690001 0.330766
O O5 0.079077 0.920924 0.488065
O O6 0.206485 0.959264 0.415686
O O7 0.158156 0.079078 0.441020
O O8 0.247220 0.040736 0.513401
O O9 0.347936 0.173968 0.579528
O O10 0.416288 0.105165 0.510374
O O11 0.311750 0.001755 0.598325
O O12 0.658657 0.829329 0.591131
O O13 0.564626 0.683393 0.535301
O O14 0.563049 0.691857 0.654799
O O15 0.512460 0.256230 0.460119
O O16 0.571134 0.428867 0.460420
O O17 0.512462 0.256231 0.968975
O O18 0.571134 0.428867 0.968675
O O19 0.416289 0.311123 0.918718
O O20 0.732254 0.464508 0.214545
O O21 0.568335 0.431666 0.214544
O O22 0.826030 0.173970 0.849562
#
# Coordination Sequence:
#
# PCOD9585323 Si02
#       8
#    12  12  12  12  12  12  12  12
#     4  10  19  33  49  69  95 125 159 196 241 286
#     4  10  17  28  45  68  96 124 154 188 231 282
#     4  10  19  31  48  70  97 126 155 195 239 283
#     4  10  19  33  49  69  95 125 159 196 241 286
#     4  10  19  30  46  68  96 128 159 193 236 287
#     4  10  19  30  46  68  96 128 159 193 236 287
#     4  10  21  34  51  72  98 128 160 198 237 282
#     4  10  19  31  48  70  97 126 155 195 239 283
#
# _framework density 16.092064000000001
#
# number of rings (size 3 to 8) (size 9 to 14) (size 15 to 20)
#    0.000    2.000    2.500    2.000    0.000    3.000 
#    0.000    3.125    0.000    0.500    0.000    0.000 
#    0.000    0.000    0.000    0.000    0.000    0.000 
#
# Total GULP energy -534904.367489 kJ/mol
# GULP energy per Si atom -5571.920495 kJ/mol
# Density = 1.605544 g / cm^3
# Si number density = 16.092064 Si / 1000 Ang^3
#
#
#
# Elastic Constant Matrix: (Units=GPa)
#
#
# Indices 1 2 3 4 5 6 
#
# 1 93.7140 48.0128 25.2375 0.0000 0.0000 0.0000
# 2 48.0128 93.7140 25.2375 0.0000 0.0000 0.0000
# 3 25.2375 25.2375 39.5151 0.0000 0.0000 0.0000
# 4 0.0000 0.0000 0.0000 14.0238 0.0000 0.0000
# 5 0.0000 0.0000 0.0000 0.0000 14.0238 0.0000
# 6 0.0000 0.0000 0.0000 0.0000 0.0000 22.8506
#
#
#
# Elastic Compliance Matrix: (Units=1/GPa)
#
#
# Indices 1 2 3 4 5 6 
#
# 1 0.015507 -0.006374 -0.005833 0.000000 0.000000 0.000000
# 2 -0.006374 0.015507 -0.005833 0.000000 0.000000 0.000000
# 3 -0.005833 -0.005833 0.032758 0.000000 0.000000 0.000000
# 4 0.000000 0.000000 0.000000 0.071307 0.000000 0.000000
# 5 0.000000 0.000000 0.000000 0.000000 0.071307 0.000000
# 6 0.000000 0.000000 0.000000 0.000000 0.000000 0.043763
#
#
# Mechanical properties :
#
#
# Convention : Reuss Voigt Hill
#
# Bulk Modulus (GPa) = 36.11210 47.10207 41.60708
# Shear Modulus (GPa) = 16.92271 18.74334 17.83303
#
# Velocity S-wave (km/s) = 3.24638 3.41656 3.33256
# Velocity P-wave (km/s) = 6.04497 6.70058 6.38120
#
# Compressibility (1/GPa) = 0.02769155
#
# Stress axis : x y z
#
# Youngs Moduli (GPa) = 64.48585 64.48585 30.52693
#
# Poissons Ratio (x) = 0.41103 0.17807
# Poissons Ratio (y) = 0.41103 0.17807
# Poissons Ratio (z) = 0.37616 0.37616
#
# Static dielectric constant tensor:
#      x y z
#    x 1.568010 0.000000 0.000000 
#    y 0.000000 1.568010 0.000000 
#    z 0.000000 0.000000 1.501950 
# 
# From -- ./inp_files/3583.got.cif
#   From: 2010.05.17/outbox.cif.g08.bks.cpg/sg186_2_cif.got.tgz:3583.got - 2010.05.20 12:07:08.
