data_PCOD9585510
_publ_section_title
;
Structure prediction by ZEFSAII (Michael W. Deem and Ramdas Pophale) SiO2 
 PCOD9585510
Probable space group: P -6 M 2
;
_chemical_formula_sum "Si O2"
_cell_formula_units_Z 78
_cell_length_a 24.078782
_cell_length_b 24.078782
_cell_length_c 8.414857
_cell_angle_alpha 90.000000
_cell_angle_beta 90.000000
_cell_angle_gamma 120.000000
_cell_volume 4225.191539
_symmetry_space_group_name_H-M "P -6 M 2"
_symmetry_group_IT_number 187
_symmetry_cell_setting 'hexagonal'
loop_
_space_group_symop_operation_xyz
x,y,z
-x+y,-x,-z
-y,x-y,z
x,y,-z
-x+y,-x,z
-y,x-y,-z
-y,-x,-z
-x+y,y,-z
x,x-y,-z
-x+y,y,z
x,x-y,z
-y,-x,z
loop_
_atom_site_type_symbol
_atom_site_label
_atom_site_fract_x
_atom_site_fract_y
_atom_site_fract_z
Si Si1 0.177853 0.488995 0.827490
Si Si2 0.873161 0.999795 0.306263
Si Si3 0.401147 0.136791 0.189348
Si Si4 0.666139 0.204610 0.308414
Si Si5 0.645839 0.759625 0.316281
Si Si6 0.763000 0.028103 0.687473
Si Si7 0.455807 0.791777 0.500000
O O1 0.250982 0.501963 0.830270
O O2 0.133406 0.413158 0.800296
O O3 0.171064 0.520292 0.666108
O O4 0.165601 0.508832 0.000000
O O5 0.868153 0.996560 0.500000
O O6 0.859224 0.929612 0.252730
O O7 0.824089 0.023401 0.250858
O O8 0.945221 0.054780 0.266361
O O9 0.398481 0.199241 0.246521
O O10 0.468443 0.147582 0.256792
O O11 0.333217 0.076897 0.236983
O O12 0.406157 0.138468 0.000000
O O13 0.666117 0.206117 0.500000
O O14 0.599263 0.198526 0.253401
O O15 0.727563 0.272438 0.254133
O O16 0.622345 0.743475 0.500000
O O17 0.668712 0.834356 0.296104
O O18 0.703133 0.746130 0.295463
O O19 0.774345 0.044269 0.500000
O O20 0.379638 0.759276 0.500000
O O21 0.477543 0.738772 0.500000
#
# Coordination Sequence:
#
# PCOD9585510 Si02
#       7
#    12  12  12  12  12  12   6
#     4   9  17  30  49  72  99 133 169 206 256 314
#     4   9  16  26  42  68 102 138 175 218 269 322
#     4  10  21  35  49  69 102 142 177 210 254 305
#     4   9  17  31  54  82 108 132 162 202 249 302
#     4   9  16  29  49  73 100 127 161 213 272 323
#     4  10  19  30  49  75 100 130 172 220 266 314
#     4  10  19  32  50  74 104 136 169 206 250 304
#
# _framework density 18.460701
#
# number of rings (size 3 to 8) (size 9 to 14) (size 15 to 20)
#    0.000    2.615    0.769    1.769    0.000    5.846 
#    0.000    0.000    0.000    4.154    0.000    2.154 
#    0.000    1.231    0.000    0.000    0.000    0.000 
#
# Total GULP energy -434401.094321 kJ/mol
# GULP energy per Si atom -5569.244799 kJ/mol
# Density = 1.841868 g / cm^3
# Si number density = 18.460701 Si / 1000 Ang^3
#
#
#
# Elastic Constant Matrix: (Units=GPa)
#
#
# Indices 1 2 3 4 5 6 
#
# 1 86.3655 58.3383 24.6049 0.0000 -0.0006 0.0000
# 2 58.3383 86.3655 24.6049 0.0000 0.0006 0.0000
# 3 24.6049 24.6049 66.7678 0.0000 0.0000 0.0000
# 4 0.0000 0.0000 0.0000 1.9522 0.0000 0.0006
# 5 -0.0006 0.0006 0.0000 0.0000 1.9522 0.0000
# 6 0.0000 0.0000 0.0000 0.0006 0.0000 14.0136
#
#
#
# Elastic Compliance Matrix: (Units=1/GPa)
#
#
# Indices 1 2 3 4 5 6 
#
# 1 0.021790 -0.013889 -0.002912 0.000000 0.000011 0.000000
# 2 -0.013889 0.021790 -0.002912 0.000000 -0.000011 0.000000
# 3 -0.002912 -0.002912 0.017123 0.000000 0.000000 0.000000
# 4 0.000000 0.000000 0.000000 0.512245 0.000000 -0.000022
# 5 0.000011 -0.000011 0.000000 0.000000 0.512245 0.000000
# 6 0.000000 0.000000 0.000000 -0.000022 0.000000 0.071359
#
#
# Mechanical properties :
#
#
# Convention : Reuss Voigt Hill
#
# Bulk Modulus (GPa) = 46.99567 50.51056 48.75312
# Shear Modulus (GPa) = 4.15603 12.38030 8.26817
#
# Velocity S-wave (km/s) = 1.50206 2.59246 2.11861
# Velocity P-wave (km/s) = 5.34047 6.03172 5.69659
#
# Compressibility (1/GPa) = 0.02127855
#
# Stress axis : x y z
#
# Youngs Moduli (GPa) = 45.89209 45.89209 58.40037
#
# Poissons Ratio (x) = 0.63742 0.17004
# Poissons Ratio (y) = 0.63742 0.17004
# Poissons Ratio (z) = 0.13362 0.13362
#
# Static dielectric constant tensor:
#      x y z
#    x 1.639970 0.000000 0.000000 
#    y 0.000000 1.639970 0.000000 
#    z 0.000000 0.000000 1.667960 
# 
# From -- ./inp_files/1143.got.cif
#   From: 2010.05.17/outbox.cif.g08.bks.cpg/sg187_1_cif.got.tgz:1143.got - 2010.05.20 12:09:04.
