data_PCOD9585436
_publ_section_title
;
Structure prediction by ZEFSAII (Michael W. Deem and Ramdas Pophale) SiO2 
 PCOD9585436
Probable space group: P -6 M 2
;
_chemical_formula_sum "Si O2"
_cell_formula_units_Z 84
_cell_length_a 17.303912
_cell_length_b 17.303912
_cell_length_c 21.314269
_cell_angle_alpha 90.000000
_cell_angle_beta 90.000000
_cell_angle_gamma 120.000000
_cell_volume 5527.002613
_symmetry_space_group_name_H-M "P -6 M 2"
_symmetry_group_IT_number 187
_symmetry_cell_setting 'hexagonal'
loop_
_space_group_symop_operation_xyz
x,y,z
-x+y,-x,-z
-y,x-y,z
x,y,-z
-x+y,-x,z
-y,x-y,-z
-y,-x,-z
-x+y,y,-z
x,x-y,-z
-x+y,y,z
x,x-y,z
-y,-x,z
loop_
_atom_site_type_symbol
_atom_site_label
_atom_site_fract_x
_atom_site_fract_y
_atom_site_fract_z
Si Si1 0.384413 0.946499 0.729629
Si Si2 0.936792 0.239560 0.693605
Si Si3 0.181937 0.179935 0.183089
Si Si4 0.693421 0.940365 0.069635
Si Si5 0.234332 0.284445 0.569764
Si Si6 0.154147 0.665913 0.601002
Si Si7 0.149102 0.482543 0.139273
O O1 0.487629 0.975257 0.734298
O O2 0.342775 0.872762 0.674479
O O3 0.338658 0.899150 0.794603
O O4 0.370827 0.028466 0.710708
O O5 0.831632 0.168369 0.691681
O O6 0.977157 0.208683 0.750206
O O7 0.981642 0.241432 0.626825
O O8 0.092993 0.185986 0.186436
O O9 0.241764 0.243133 0.126240
O O10 0.159839 0.079920 0.170132
O O11 0.699920 0.849960 0.069135
O O12 0.591102 0.907074 0.086951
O O13 0.717351 0.980235 0.000000
O O14 0.236981 0.250835 0.500000
O O15 0.136315 0.272629 0.580055
O O16 0.301746 0.391684 0.570939
O O17 0.141655 0.570828 0.580881
O O18 0.255230 0.744771 0.591178
O O19 0.248436 0.496872 0.140057
O O20 0.151227 0.575614 0.131265
#
# Coordination Sequence:
#
# PCOD9585436 Si02
#       7
#    12  12  12  12  12  12  12
#     4   9  17  29  45  66  92 121 149 186 233 278
#     4  10  19  31  50  72  90 113 149 191 231 276
#     4  10  19  31  48  69  92 118 152 194 238 281
#     4   9  18  31  45  62  89 124 156 189 231 271
#     4   9  18  31  45  63  91 125 155 184 224 271
#     4   9  16  25  40  63  93 126 160 192 222 257
#     4  10  18  28  44  66  94 126 160 192 224 263
#
# _framework density 15.198111000000001
#
# number of rings (size 3 to 8) (size 9 to 14) (size 15 to 20)
#    0.000    2.571    1.429    1.286    0.000    2.286 
#    0.000    1.429    0.000    3.143    0.000    0.000 
#    0.000    0.000    0.000    0.429    0.000   13.000 
#
# Total GULP energy -467827.711640 kJ/mol
# GULP energy per Si atom -5569.377520 kJ/mol
# Density = 1.516352 g / cm^3
# Si number density = 15.198111 Si / 1000 Ang^3
#
#
#
# Elastic Constant Matrix: (Units=GPa)
#
#
# Indices 1 2 3 4 5 6 
#
# 1 49.3816 13.4596 16.4907 0.0000 -0.0002 0.0000
# 2 13.4596 49.3816 16.4907 0.0000 0.0002 0.0000
# 3 16.4907 16.4907 90.5997 0.0000 0.0000 0.0000
# 4 0.0000 0.0000 0.0000 10.0377 0.0000 0.0002
# 5 -0.0002 0.0002 0.0000 0.0000 10.0377 0.0000
# 6 0.0000 0.0000 0.0000 0.0002 0.0000 17.9610
#
#
#
# Elastic Compliance Matrix: (Units=1/GPa)
#
#
# Indices 1 2 3 4 5 6 
#
# 1 0.022716 -0.005122 -0.003202 0.000000 0.000000 0.000000
# 2 -0.005122 0.022716 -0.003202 0.000000 0.000000 0.000000
# 3 -0.003202 -0.003202 0.012203 0.000000 0.000000 0.000000
# 4 0.000000 0.000000 0.000000 0.099624 0.000000 -0.000001
# 5 0.000000 0.000000 0.000000 0.000000 0.099624 0.000000
# 6 0.000000 0.000000 0.000000 -0.000001 0.000000 0.055676
#
#
# Mechanical properties :
#
#
# Convention : Reuss Voigt Hill
#
# Bulk Modulus (GPa) = 28.91720 31.36057 30.13889
# Shear Modulus (GPa) = 14.40337 17.13541 15.76939
#
# Velocity S-wave (km/s) = 3.08183 3.36142 3.22466
# Velocity P-wave (km/s) = 5.63309 5.97870 5.80847
#
# Compressibility (1/GPa) = 0.03458149
#
# Stress axis : x y z
#
# Youngs Moduli (GPa) = 44.02190 44.02190 81.94474
#
# Poissons Ratio (x) = 0.22549 0.26242
# Poissons Ratio (y) = 0.22549 0.26242
# Poissons Ratio (z) = 0.14098 0.14098
#
# Static dielectric constant tensor:
#      x y z
#    x 1.487700 0.000000 0.000000 
#    y 0.000000 1.487700 0.000000 
#    z 0.000000 0.000000 1.529740 
# 
# From -- ./inp_files/3638.got.cif
#   From: 2010.05.17/outbox.cif.g08.bks.cpg/sg187_2_cif.got.tgz:3638.got - 2010.05.20 12:09:04.
