data_PCOD9585707
_publ_section_title
;
Structure prediction by ZEFSAII (Michael W. Deem and Ramdas Pophale) SiO2 
 PCOD9585707
Probable space group: P -6 M 2
;
_chemical_formula_sum "Si O2"
_cell_formula_units_Z 66
_cell_length_a 12.664209
_cell_length_b 12.664209
_cell_length_c 28.903925
_cell_angle_alpha 90.000000
_cell_angle_beta 90.000000
_cell_angle_gamma 120.000000
_cell_volume 4014.612123
_symmetry_space_group_name_H-M "P -6 M 2"
_symmetry_group_IT_number 187
_symmetry_cell_setting 'hexagonal'
loop_
_space_group_symop_operation_xyz
x,y,z
-x+y,-x,-z
-y,x-y,z
x,y,-z
-x+y,-x,z
-y,x-y,-z
-y,-x,-z
-x+y,y,-z
x,x-y,-z
-x+y,y,z
x,x-y,z
-y,-x,z
loop_
_atom_site_type_symbol
_atom_site_label
_atom_site_fract_x
_atom_site_fract_y
_atom_site_fract_z
Si Si1 0.250919 0.999501 0.000000
Si Si2 0.082491 0.667165 0.090292
Si Si3 0.666847 0.083053 0.447375
Si Si4 0.584366 0.666834 0.729577
Si Si5 0.000390 0.749167 0.819476
Si Si6 0.000561 0.250985 0.640189
O O1 0.312768 0.980185 0.045352
O O2 0.110422 0.889579 0.000000
O O3 0.257272 0.128636 0.000000
O O4 0.076011 0.538006 0.089739
O O5 0.222997 0.777004 0.090032
O O6 0.021605 0.685795 0.136065
O O7 0.669355 0.041677 0.500000
O O8 0.539082 0.078164 0.440322
O O9 0.777623 0.222378 0.443982
O O10 0.691091 0.009404 0.407998
O O11 0.555458 0.777729 0.730499
O O12 0.461548 0.538453 0.732252
O O13 0.671712 0.688663 0.773198
O O14 0.657845 0.681129 0.682485
O O15 0.110516 0.889485 0.819745
O O16 0.871552 0.743104 0.820959
O O17 0.113972 0.227943 0.639355
O O18 0.875194 0.124807 0.646952
#
# Coordination Sequence:
#
# PCOD9585707 Si02
#       6
#     6  12  12  12  12  12
#     4  10  20  34  54  78 104 134 168 210 256 302
#     4  10  20  34  54  78 104 134 168 209 253 297
#     4   9  17  30  49  72  97 126 161 201 244 290
#     4  10  20  34  53  75  99 128 163 205 250 295
#     4  10  20  34  54  78 104 134 167 205 247 293
#     4  10  20  33  50  72  99 131 165 202 244 291
#
# _framework density 16.439945000000002
#
# number of rings (size 3 to 8) (size 9 to 14) (size 15 to 20)
#    0.000    2.182    0.000    3.455    0.000    1.091 
#    0.000    6.364    0.000   14.909    0.000    0.000 
#    0.000    0.000    0.000    0.000    0.000    0.000 
#
# Total GULP energy -368341.812765 kJ/mol
# GULP energy per Si atom -5580.936557 kJ/mol
# Density = 1.640253 g / cm^3
# Si number density = 16.439945 Si / 1000 Ang^3
#
#
#
# Elastic Constant Matrix: (Units=GPa)
#
#
# Indices 1 2 3 4 5 6 
#
# 1 124.6182 86.9897 80.0296 0.0000 0.0000 0.0000
# 2 86.9897 124.6182 80.0296 0.0000 0.0000 0.0000
# 3 80.0296 80.0296 149.4407 0.0000 0.0000 0.0000
# 4 0.0000 0.0000 0.0000 17.1671 0.0000 0.0000
# 5 0.0000 0.0000 0.0000 0.0000 17.1671 0.0000
# 6 0.0000 0.0000 0.0000 0.0000 0.0000 18.8142
#
#
#
# Elastic Compliance Matrix: (Units=1/GPa)
#
#
# Indices 1 2 3 4 5 6 
#
# 1 0.017259 -0.009316 -0.004254 0.000000 0.000000 0.000000
# 2 -0.009316 0.017259 -0.004254 0.000000 0.000000 0.000000
# 3 -0.004254 -0.004254 0.011248 0.000000 0.000000 0.000000
# 4 0.000000 0.000000 0.000000 0.058251 0.000000 0.000000
# 5 0.000000 0.000000 0.000000 0.000000 0.058251 0.000000
# 6 0.000000 0.000000 0.000000 0.000000 0.000000 0.053151
#
#
# Mechanical properties :
#
#
# Convention : Reuss Voigt Hill
#
# Bulk Modulus (GPa) = 98.82477 99.19721 99.01099
# Shear Modulus (GPa) = 19.65095 20.73823 20.19459
#
# Velocity S-wave (km/s) = 3.46109 3.55555 3.50864
# Velocity P-wave (km/s) = 8.73013 8.79352 8.76189
#
# Compressibility (1/GPa) = 0.01011892
#
# Stress axis : x y z
#
# Youngs Moduli (GPa) = 57.93920 57.93920 88.90667
#
# Poissons Ratio (x) = 0.53977 0.37820
# Poissons Ratio (y) = 0.53977 0.37820
# Poissons Ratio (z) = 0.24647 0.24647
#
# Static dielectric constant tensor:
#      x y z
#    x 1.517840 0.000000 0.000000 
#    y 0.000000 1.517840 0.000000 
#    z 0.000000 0.000000 1.551510 
# 
# From -- ./inp_files/4403.got.cif
#   From: 2010.05.17/outbox.cif.g08.bks.cpg/sg187_3_cif.got.tgz:4403.got - 2010.05.20 12:09:04.
