data_PCOD9585471
_publ_section_title
;
Structure prediction by ZEFSAII (Michael W. Deem and Ramdas Pophale) SiO2 
 PCOD9585471
Probable space group: P -6 M 2
;
_chemical_formula_sum "Si O2"
_cell_formula_units_Z 60
_cell_length_a 21.011525
_cell_length_b 21.011525
_cell_length_c 7.730175
_cell_angle_alpha 90.000000
_cell_angle_beta 90.000000
_cell_angle_gamma 120.000000
_cell_volume 2955.528191
_symmetry_space_group_name_H-M "P -6 M 2"
_symmetry_group_IT_number 187
_symmetry_cell_setting 'hexagonal'
loop_
_space_group_symop_operation_xyz
x,y,z
-x+y,-x,-z
-y,x-y,z
x,y,-z
-x+y,-x,z
-y,x-y,-z
-y,-x,-z
-x+y,y,-z
x,x-y,-z
-x+y,y,z
x,x-y,z
-y,-x,z
loop_
_atom_site_type_symbol
_atom_site_label
_atom_site_fract_x
_atom_site_fract_y
_atom_site_fract_z
Si Si1 0.543307 0.086614 0.293430
Si Si2 0.290016 0.435421 0.707052
Si Si3 0.292197 0.999686 0.294365
Si Si4 0.708372 0.563050 0.287725
Si Si5 0.145068 0.000095 0.790682
Si Si6 0.086977 0.543489 0.204512
O O1 0.547809 0.095618 0.500000
O O2 0.498332 0.125385 0.229343
O O3 0.499234 0.998467 0.264345
O O4 0.280451 0.426771 0.500000
O O5 0.222244 0.444488 0.773625
O O6 0.288732 0.362427 0.777249
O O7 0.371932 0.501622 0.737832
O O8 0.304783 0.999833 0.500000
O O9 0.359387 0.076387 0.229325
O O10 0.215938 0.996521 0.264588
O O11 0.709078 0.562594 0.500000
O O12 0.776874 0.553748 0.231852
O O13 0.071094 0.928907 0.730072
O O14 0.149026 0.074513 0.729183
O O15 0.143376 0.000286 0.000000
O O16 0.084144 0.542072 0.000000
#
# Coordination Sequence:
#
# PCOD9585471 Si02
#       6
#     6  12  12  12  12   6
#     4  10  18  36  60  80 116 160 198 234 282 352
#     4  10  21  39  63  87 112 148 192 230 277 345
#     4  10  19  34  58  83 109 138 180 236 285 328
#     4   9  17  30  53  84 113 144 183 233 285 331
#     4  10  21  36  52  72 104 146 186 222 269 331
#     4  12  24  38  60  88 120 152 192 240 290 340
#
# _framework density 20.300939
#
# number of rings (size 3 to 8) (size 9 to 14) (size 15 to 20)
#    0.000    2.000    2.000    2.300    0.000    4.400 
#    1.200    0.000    0.000    1.800    0.000    0.000 
#    0.000    0.000    0.000    0.000    0.000    0.000 
#
# Total GULP energy -335072.043768 kJ/mol
# GULP energy per Si atom -5584.534063 kJ/mol
# Density = 2.025473 g / cm^3
# Si number density = 20.300939 Si / 1000 Ang^3
#
#
#
# Elastic Constant Matrix: (Units=GPa)
#
#
# Indices 1 2 3 4 5 6 
#
# 1 -48.4166 367.3345 -2.4534 0.0000 0.0016 -0.0001
# 2 367.3345 -48.4166 -2.4534 0.0000 -0.0016 0.0001
# 3 -2.4534 -2.4534 27.1348 0.0000 0.0000 0.0000
# 4 0.0000 0.0000 0.0000 14.3187 0.0000 -0.0016
# 5 0.0016 -0.0016 0.0000 0.0000 14.3187 0.0000
# 6 -0.0001 0.0001 0.0000 -0.0016 0.0000 -207.8755
#
#
#
# Elastic Compliance Matrix: (Units=1/GPa)
#
#
# Indices 1 2 3 4 5 6 
#
# 1 0.000367 0.002773 0.000284 0.000000 0.000000 0.000000
# 2 0.002773 0.000367 0.000284 0.000000 0.000000 0.000000
# 3 0.000284 0.000284 0.036904 0.000000 0.000000 0.000000
# 4 0.000000 0.000000 0.000000 0.069839 0.000000 -0.000001
# 5 0.000000 0.000000 0.000000 0.000000 0.069839 0.000000
# 6 0.000000 0.000000 0.000000 -0.000001 0.000000 -0.004811
#
#
# Mechanical properties :
#
#
# Convention : Reuss Voigt Hill
#
# Bulk Modulus (GPa) = 22.56323 72.79522 47.67922
# Shear Modulus (GPa) = 27.68579 -64.65600 -18.48510
#
# Velocity S-wave (km/s) = 3.69693 -5.64959 -3.02081
# Velocity P-wave (km/s) = 5.41863 2.57319 3.37196
#
# Compressibility (1/GPa) = 0.04431990
#
# Stress axis : x y z
#
# Youngs Moduli (GPa) = 2722.25193 2722.25200 27.09707
#
# Poissons Ratio (x) = -7.54779 -0.00769
# Poissons Ratio (y) = -7.54779 -0.00769
# Poissons Ratio (z) = -0.77285 -0.77285
#
# Static dielectric constant tensor:
#      x y z
#    x 2.922660 0.000000 0.000000 
#    y 0.000000 2.922660 0.000000 
#    z 0.000000 0.000000 1.750090 
# 
# From -- ./inp_files/694.got.cif
#   From: 2010.05.17/outbox.cif.g08.bks.cpg/sg187_1_cif.got.tgz:694.got - 2010.05.20 12:09:04.
