data_PCOD9585386
_publ_section_title
;
Structure prediction by ZEFSAII (Michael W. Deem and Ramdas Pophale) SiO2 
 PCOD9585386
Probable space group: P 63 M C
;
_chemical_formula_sum "Si O2"
_cell_formula_units_Z 96
_cell_length_a 17.657700
_cell_length_b 17.657700
_cell_length_c 20.633470
_cell_angle_alpha 90.000000
_cell_angle_beta 90.000000
_cell_angle_gamma 120.000000
_cell_volume 5571.487629
_symmetry_space_group_name_H-M "P 63 M C"
_symmetry_group_IT_number 186
_symmetry_cell_setting 'hexagonal'
loop_
_space_group_symop_operation_xyz
x,y,z
x-y,x,1/2+z
-y,x-y,z
-x,-y,1/2+z
-x+y,-x,z
y,-x+y,1/2+z
-x+y,y,z
x,x-y,z
-y,-x,z
y,x,1/2+z
x-y,-y,1/2+z
-x,-x+y,1/2+z
loop_
_atom_site_type_symbol
_atom_site_label
_atom_site_fract_x
_atom_site_fract_y
_atom_site_fract_z
Si Si1 0.571490 0.967965 0.883550
Si Si2 0.314495 0.310251 0.200943
Si Si3 0.826883 0.000501 0.947911
Si Si4 0.488093 0.333967 0.258162
Si Si5 0.316480 0.244874 0.835355
Si Si6 0.845735 0.333426 0.650334
Si Si7 0.155194 0.667439 0.996478
Si Si8 0.819982 0.819211 0.096328
O O1 0.495563 0.991126 0.890058
O O2 0.540953 0.892902 0.828470
O O3 0.576356 0.924498 0.950695
O O4 0.660127 0.049875 0.859093
O O5 0.406956 0.314968 0.211664
O O6 0.260183 0.280444 0.268012
O O7 0.332010 0.407553 0.187107
O O8 0.255685 0.246831 0.144027
O O9 0.808242 0.904121 0.934625
O O10 0.787363 0.032192 0.892011
O O11 0.795871 0.002908 0.020926
O O12 0.930715 0.069286 0.948772
O O13 0.501095 0.250548 0.260278
O O14 0.577730 0.422271 0.240438
O O15 0.344220 0.172110 0.826560
O O16 0.841051 0.420526 0.664339
O O17 0.753692 0.246309 0.664506
O O18 0.861947 0.332597 0.572928
O O19 0.170763 0.585382 0.984263
O O20 0.242203 0.757798 0.980578
O O21 0.818310 0.909155 0.106539
O O22 0.917138 0.834275 0.106612
#
# Coordination Sequence:
#
# PCOD9585386 Si02
#       8
#    12  12  12  12  12  12  12  12
#     4   9  19  33  51  77 106 136 171 216 269 320
#     4  11  22  36  53  78 109 142 178 224 269 320
#     4   9  19  34  54  77 103 135 172 213 258 311
#     4  10  20  35  55  79 108 143 180 218 262 317
#     4  10  21  36  52  73 103 139 177 216 261 310
#     4  10  20  34  53  77 107 142 180 221 270 326
#     4   9  17  29  48  76 109 139 168 206 260 324
#     4  10  20  35  54  77 105 138 178 222 271 322
#
# _framework density 17.230585999999999
#
# number of rings (size 3 to 8) (size 9 to 14) (size 15 to 20)
#    0.000    2.250    0.000    2.875    1.750    5.500 
#    0.000    1.250    0.000    1.750    0.000    0.000 
#    0.000    0.000    0.000    0.000    0.000    0.000 
#
# Total GULP energy -535592.812113 kJ/mol
# GULP energy per Si atom -5579.091793 kJ/mol
# Density = 1.719137 g / cm^3
# Si number density = 17.230586 Si / 1000 Ang^3
#
#
#
# Elastic Constant Matrix: (Units=GPa)
#
#
# Indices 1 2 3 4 5 6 
#
# 1 90.4778 42.4377 35.6605 0.0000 0.0000 0.0000
# 2 42.4377 90.4778 35.6605 0.0000 0.0000 0.0000
# 3 35.6605 35.6605 57.1684 0.0000 0.0000 0.0000
# 4 0.0000 0.0000 0.0000 23.5522 0.0000 0.0000
# 5 0.0000 0.0000 0.0000 0.0000 23.5522 0.0000
# 6 0.0000 0.0000 0.0000 0.0000 0.0000 24.0200
#
#
#
# Elastic Compliance Matrix: (Units=1/GPa)
#
#
# Indices 1 2 3 4 5 6 
#
# 1 0.016062 -0.004754 -0.007054 0.000000 0.000000 0.000000
# 2 -0.004754 0.016062 -0.007054 0.000000 0.000000 0.000000
# 3 -0.007054 -0.007054 0.026293 0.000000 0.000000 0.000000
# 4 0.000000 0.000000 0.000000 0.042459 0.000000 0.000000
# 5 0.000000 0.000000 0.000000 0.000000 0.042459 0.000000
# 6 0.000000 0.000000 0.000000 0.000000 0.000000 0.041632
#
#
# Mechanical properties :
#
#
# Convention : Reuss Voigt Hill
#
# Bulk Modulus (GPa) = 48.32432 51.73790 50.03111
# Shear Modulus (GPa) = 21.77808 22.51593 22.14701
#
# Velocity S-wave (km/s) = 3.55902 3.61881 3.58904
# Velocity P-wave (km/s) = 6.70786 6.89587 6.80251
#
# Compressibility (1/GPa) = 0.02069351
#
# Stress axis : x y z
#
# Youngs Moduli (GPa) = 62.25734 62.25734 38.03339
#
# Poissons Ratio (x) = 0.29595 0.26829
# Poissons Ratio (y) = 0.29595 0.26829
# Poissons Ratio (z) = 0.43917 0.43917
#
# Static dielectric constant tensor:
#      x y z
#    x 1.573890 0.000000 0.000000 
#    y 0.000000 1.573890 0.000000 
#    z 0.000000 0.000000 1.588600 
# 
# From -- ./inp_files/3605.got.cif
#   From: 2010.05.17/outbox.cif.g08.bks.cpg/sg186_2_cif.got.tgz:3605.got - 2010.05.20 12:07:08.
