data_PCOD9585092
_publ_section_title
;
Structure prediction by ZEFSAII (Michael W. Deem and Ramdas Pophale) SiO2 
 PCOD9585092
Probable space group: P 6 C C
;
_chemical_formula_sum "Si O2"
_cell_formula_units_Z 84
_cell_length_a 17.636174
_cell_length_b 17.636174
_cell_length_c 13.812530
_cell_angle_alpha 90.000000
_cell_angle_beta 90.000000
_cell_angle_gamma 120.000000
_cell_volume 3720.596866
_symmetry_space_group_name_H-M "P 6 C C"
_symmetry_group_IT_number 184
_symmetry_cell_setting 'hexagonal'
loop_
_space_group_symop_operation_xyz
x,y,z
x-y,x,z
-y,x-y,z
-x,-y,z
-x+y,-x,z
y,-x+y,z
-x+y,y,1/2+z
x,x-y,1/2+z
-y,-x,1/2+z
y,x,1/2+z
x-y,-y,1/2+z
-x,-x+y,1/2+z
loop_
_atom_site_type_symbol
_atom_site_label
_atom_site_fract_x
_atom_site_fract_y
_atom_site_fract_z
Si Si1 0.837746 0.326366 0.833380
Si Si2 0.933660 0.806830 0.251622
Si Si3 0.337642 0.489554 0.353440
Si Si4 0.761132 0.120406 0.190431
Si Si5 0.645636 0.652889 0.462699
Si Si6 0.299265 0.917893 0.654086
Si Si7 0.812859 0.973292 0.515641
O O1 0.837739 0.415542 0.846023
O O2 0.749468 0.243957 0.872254
O O3 0.843776 0.302109 0.721615
O O4 0.924468 0.332564 0.878765
O O5 0.870092 0.840153 0.285820
O O6 0.883592 0.705106 0.276345
O O7 0.953650 0.811313 0.133652
O O8 0.350509 0.432944 0.435571
O O9 0.325529 0.440000 0.249937
O O10 0.841011 0.198958 0.129069
O O11 0.699305 0.016275 0.173366
O O12 0.586930 0.646474 0.555697
O O13 0.747598 0.728347 0.482206
O O14 0.826655 0.893504 0.483890
#
# Coordination Sequence:
#
# PCOD9585092 Si02
#       7
#    12  12  12  12  12  12  12
#     4  11  26  47  72  98 132 179 231 286 370 420
#     4  10  17  29  51  86 128 173 216 262 313 379
#     4  11  26  51  72 101 140 179 232 303 357 442
#     4  11  20  39  64  92 135 176 228 277 336 413
#     4  12  23  41  69 106 138 175 237 281 359 428
#     4  11  24  41  68  99 138 186 228 287 348 411
#     4  10  19  32  53  86 130 177 223 269 325 394
#
# _framework density 22.577023000000001
#
# number of rings (size 3 to 8) (size 9 to 14) (size 15 to 20)
#    0.000    1.143    4.286    2.714    2.000    1.143 
#    5.143    0.000    0.000    0.000    0.000    2.000 
#    0.000    0.000    0.000    0.000    0.000    0.000 
#
# Total GULP energy -467766.914013 kJ/mol
# GULP energy per Si atom -5568.653738 kJ/mol
# Density = 2.252564 g / cm^3
# Si number density = 22.577023 Si / 1000 Ang^3
#
#
#
# Elastic Constant Matrix: (Units=GPa)
#
#
# Indices 1 2 3 4 5 6 
#
# 1 225.5683 -13.9778 14.0749 0.0000 0.0000 0.0000
# 2 -13.9778 225.5683 14.0749 0.0000 0.0000 0.0000
# 3 14.0749 14.0749 44.3089 0.0000 0.0000 0.0000
# 4 0.0000 0.0000 0.0000 24.0136 0.0000 0.0000
# 5 0.0000 0.0000 0.0000 0.0000 24.0136 0.0000
# 6 0.0000 0.0000 0.0000 0.0000 0.0000 119.7730
#
#
#
# Elastic Compliance Matrix: (Units=1/GPa)
#
#
# Indices 1 2 3 4 5 6 
#
# 1 0.004555 0.000380 -0.001568 0.000000 0.000000 0.000000
# 2 0.000380 0.004555 -0.001568 0.000000 0.000000 0.000000
# 3 -0.001568 -0.001568 0.023565 0.000000 0.000000 0.000000
# 4 0.000000 0.000000 0.000000 0.041643 0.000000 0.000000
# 5 0.000000 0.000000 0.000000 0.000000 0.041643 0.000000
# 6 0.000000 0.000000 0.000000 0.000000 0.000000 0.008349
#
#
# Mechanical properties :
#
#
# Convention : Reuss Voigt Hill
#
# Bulk Modulus (GPa) = 36.81352 58.19886 47.50619
# Shear Modulus (GPa) = 36.00395 65.64496 50.82445
#
# Velocity S-wave (km/s) = 3.99772 5.39807 4.74978
# Velocity P-wave (km/s) = 6.13597 8.04276 7.15319
#
# Compressibility (1/GPa) = 0.02716393
#
# Stress axis : x y z
#
# Youngs Moduli (GPa) = 219.55796 219.55796 42.43636
#
# Poissons Ratio (x) = -0.08344 0.06652
# Poissons Ratio (y) = -0.08344 0.06652
# Poissons Ratio (z) = 0.34416 0.34416
#
# Static dielectric constant tensor:
#      x y z
#    x 1.869830 0.000000 0.000000 
#    y 0.000000 1.869830 0.000000 
#    z 0.000000 0.000000 2.050470 
# 
# From -- ./inp_files/935.got.cif
#   From: 2010.05.17/outbox.cif.g08.bks.cpg/sg184_cif.got.tgz:935.got - 2010.05.20 12:04:40.
