data_PCOD9585097
_publ_section_title
;
Structure prediction by ZEFSAII (Michael W. Deem and Ramdas Pophale) SiO2 
 PCOD9585097
Probable space group: P 6 C C
;
_chemical_formula_sum "Si O2"
_cell_formula_units_Z 84
_cell_length_a 32.529913
_cell_length_b 32.529913
_cell_length_c 5.346946
_cell_angle_alpha 90.000000
_cell_angle_beta 90.000000
_cell_angle_gamma 120.000000
_cell_volume 4900.069426
_symmetry_space_group_name_H-M "P 6 C C"
_symmetry_group_IT_number 184
_symmetry_cell_setting 'hexagonal'
loop_
_space_group_symop_operation_xyz
x,y,z
x-y,x,z
-y,x-y,z
-x,-y,z
-x+y,-x,z
y,-x+y,z
-x+y,y,1/2+z
x,x-y,1/2+z
-y,-x,1/2+z
y,x,1/2+z
x-y,-y,1/2+z
-x,-x+y,1/2+z
loop_
_atom_site_type_symbol
_atom_site_label
_atom_site_fract_x
_atom_site_fract_y
_atom_site_fract_z
Si Si1 0.413818 0.361790 0.682390
Si Si2 0.202444 0.767714 0.569452
Si Si3 0.560705 0.388795 0.790175
Si Si4 0.504335 0.444665 0.806338
Si Si5 0.700681 0.684543 0.688706
Si Si6 0.456748 0.744928 0.453311
Si Si7 0.588308 0.899649 0.692314
O O1 0.448629 0.416491 0.745928
O O2 0.357907 0.344736 0.662508
O O3 0.429578 0.347388 0.425884
O O4 0.419199 0.335216 0.922198
O O5 0.193576 0.780764 0.290633
O O6 0.241943 0.752855 0.509533
O O7 0.155967 0.723145 0.682250
O O8 0.581656 0.401569 0.510193
O O9 0.521855 0.405705 0.802398
O O10 0.542191 0.334581 0.861629
O O11 0.531445 0.479939 0.576825
O O12 0.716775 0.711122 0.428482
O O13 0.716171 0.645431 0.724447
O O14 0.434128 0.707526 0.226783
#
# Coordination Sequence:
#
# PCOD9585097 Si02
#       7
#    12  12  12  12  12  12  12
#     4  10  18  30  48  65  84 109 142 167 189 222
#     4  10  20  31  45  69  91 107 129 155 188 229
#     4  10  20  33  49  66  83 103 128 151 177 222
#     4  10  20  31  45  66  86 106 131 158 187 217
#     4   8  16  28  44  63  80 105 140 166 184 215
#     4  10  20  33  49  66  84 101 119 146 179 212
#     4  10  18  30  48  63  84 112 133 161 192 217
#
# _framework density 17.142614999999999
#
# number of rings (size 3 to 8) (size 9 to 14) (size 15 to 20)
#    0.000    2.286    0.000    3.429    0.000    4.571 
#    0.000    0.000    0.000   28.857    0.000    0.000 
#    0.000    0.000    0.000    0.000    0.000    0.000 
#
# Total GULP energy -468419.074027 kJ/mol
# GULP energy per Si atom -5576.417548 kJ/mol
# Density = 1.710360 g / cm^3
# Si number density = 17.142615 Si / 1000 Ang^3
#
#
#
# Elastic Constant Matrix: (Units=GPa)
#
#
# Indices 1 2 3 4 5 6 
#
# 1 30.3138 12.1486 12.0421 0.0000 0.0000 0.0000
# 2 12.1486 30.3138 12.0421 0.0000 0.0000 0.0000
# 3 12.0421 12.0421 120.1606 0.0000 0.0000 0.0000
# 4 0.0000 0.0000 0.0000 -18.8582 0.0000 0.0000
# 5 0.0000 0.0000 0.0000 0.0000 -18.8582 0.0000
# 6 0.0000 0.0000 0.0000 0.0000 0.0000 9.0826
#
#
#
# Elastic Compliance Matrix: (Units=1/GPa)
#
#
# Indices 1 2 3 4 5 6 
#
# 1 0.040010 -0.015040 -0.002502 0.000000 0.000000 0.000000
# 2 -0.015040 0.040010 -0.002502 0.000000 0.000000 0.000000
# 3 -0.002502 -0.002502 0.008824 0.000000 0.000000 0.000000
# 4 0.000000 0.000000 0.000000 -0.053027 0.000000 0.000000
# 5 0.000000 0.000000 0.000000 0.000000 -0.053027 0.000000
# 6 0.000000 0.000000 0.000000 0.000000 0.000000 0.110101
#
#
# Mechanical properties :
#
#
# Convention : Reuss Voigt Hill
#
# Bulk Modulus (GPa) = 20.51142 28.13934 24.32538
# Shear Modulus (GPa) = 33.50515 3.91026 18.70771
#
# Velocity S-wave (km/s) = 4.42576 1.51194 3.30706
# Velocity P-wave (km/s) = 6.17314 4.41570 5.36685
#
# Compressibility (1/GPa) = 0.04875332
#
# Stress axis : x y z
#
# Youngs Moduli (GPa) = 24.99382 24.99382 113.33037
#
# Poissons Ratio (x) = 0.37592 0.28360
# Poissons Ratio (y) = 0.37592 0.28360
# Poissons Ratio (z) = 0.06254 0.06254
#
# Static dielectric constant tensor:
#      x y z
#    x 1.599140 0.000000 0.000000 
#    y 0.000000 1.599140 0.000000 
#    z 0.000000 0.000000 1.714730 
# 
# From -- ./inp_files/35.got.cif
#   From: 2010.05.17/outbox.cif.g08.bks.cpg/sg184_cif.got.tgz:35.got - 2010.05.20 12:04:40.
