data_PCOD9585630
_publ_section_title
;
Structure prediction by ZEFSAII (Michael W. Deem and Ramdas Pophale) SiO2 
 PCOD9585630
Probable space group: P -6 M 2
;
_chemical_formula_sum "Si O2"
_cell_formula_units_Z 96
_cell_length_a 18.110253
_cell_length_b 18.110253
_cell_length_c 22.297169
_cell_angle_alpha 90.000000
_cell_angle_beta 90.000000
_cell_angle_gamma 120.000000
_cell_volume 6333.290254
_symmetry_space_group_name_H-M "P -6 M 2"
_symmetry_group_IT_number 187
_symmetry_cell_setting 'hexagonal'
loop_
_space_group_symop_operation_xyz
x,y,z
-x+y,-x,-z
-y,x-y,z
x,y,-z
-x+y,-x,z
-y,x-y,-z
-y,-x,-z
-x+y,y,-z
x,x-y,-z
-x+y,y,z
x,x-y,z
-y,-x,z
loop_
_atom_site_type_symbol
_atom_site_label
_atom_site_fract_x
_atom_site_fract_y
_atom_site_fract_z
Si Si1 0.174058 0.173344 0.206844
Si Si2 0.503759 0.665908 0.738029
Si Si3 0.333932 0.492852 0.929144
Si Si4 0.497100 0.163366 0.427080
Si Si5 0.826495 0.826711 0.649991
Si Si6 0.333471 0.494763 0.593778
Si Si7 0.998339 0.682009 0.431269
Si Si8 0.644285 0.911410 0.831349
O O1 0.177473 0.088737 0.192266
O O2 0.188131 0.189264 0.278556
O O3 0.244084 0.258538 0.173594
O O4 0.079692 0.159384 0.194622
O O5 0.486681 0.743341 0.753258
O O6 0.423310 0.576691 0.756364
O O7 0.512208 0.666219 0.666346
O O8 0.588768 0.685239 0.772746
O O9 0.254366 0.508731 0.918502
O O10 0.422184 0.577817 0.914222
O O11 0.316850 0.412791 0.888445
O O12 0.334244 0.475676 0.000000
O O13 0.499597 0.164422 0.500000
O O14 0.578737 0.157474 0.406258
O O15 0.501841 0.250921 0.407697
O O16 0.407651 0.081546 0.410482
O O17 0.839562 0.919781 0.637397
O O18 0.747989 0.756997 0.611782
O O19 0.911722 0.823443 0.635808
O O20 0.251196 0.502391 0.577237
O O21 0.420755 0.579246 0.576066
O O22 0.326253 0.408776 0.569388
O O23 0.981997 0.697940 0.500000
O O24 0.650069 0.825035 0.831547
#
# Coordination Sequence:
#
# PCOD9585630 Si02
#       8
#    12  12  12  12  12  12  12  12
#     4   9  17  30  48  67  85 107 139 181 227 271
#     4   9  16  26  41  61  85 112 142 177 216 256
#     4   9  16  25  38  59  91 131 168 194 214 242
#     4   9  17  30  48  67  84 102 127 161 201 247
#     4  10  20  34  51  69  88 110 138 174 218 270
#     4  10  20  33  47  62  82 111 148 187 224 262
#     4  11  22  34  47  64  87 113 139 171 216 268
#     4   9  16  25  39  61  87 114 146 183 219 253
#
# _framework density 15.157997999999999
#
# number of rings (size 3 to 8) (size 9 to 14) (size 15 to 20)
#    0.000    2.500    0.000    3.000    0.000    7.500 
#    0.000    1.250    0.000    1.875    0.000    0.000 
#    0.000    1.000    0.000    3.000    0.000    1.750 
#
# Total GULP energy -535319.303920 kJ/mol
# GULP energy per Si atom -5576.242749 kJ/mol
# Density = 1.512350 g / cm^3
# Si number density = 15.157998 Si / 1000 Ang^3
#
#
#
# Elastic Constant Matrix: (Units=GPa)
#
#
# Indices 1 2 3 4 5 6 
#
# 1 103.1178 49.7081 32.4428 0.0000 -0.0001 0.0000
# 2 49.7081 103.1178 32.4428 0.0000 0.0001 0.0000
# 3 32.4428 32.4428 41.4318 0.0000 0.0000 0.0000
# 4 0.0000 0.0000 0.0000 15.7461 0.0000 0.0001
# 5 -0.0001 0.0001 0.0000 0.0000 15.7461 0.0000
# 6 0.0000 0.0000 0.0000 0.0001 0.0000 26.7049
#
#
#
# Elastic Compliance Matrix: (Units=1/GPa)
#
#
# Indices 1 2 3 4 5 6 
#
# 1 0.014263 -0.004460 -0.007676 0.000000 0.000000 0.000000
# 2 -0.004460 0.014263 -0.007676 0.000000 0.000000 0.000000
# 3 -0.007676 -0.007676 0.036156 0.000000 0.000000 0.000000
# 4 0.000000 0.000000 0.000000 0.063508 0.000000 0.000000
# 5 0.000000 0.000000 0.000000 0.000000 0.063508 0.000000
# 6 0.000000 0.000000 0.000000 0.000000 0.000000 0.037446
#
#
# Mechanical properties :
#
#
# Convention : Reuss Voigt Hill
#
# Bulk Modulus (GPa) = 39.90607 52.98386 46.44497
# Shear Modulus (GPa) = 18.04274 20.51101 19.27688
#
# Velocity S-wave (km/s) = 3.45383 3.68251 3.57000
# Velocity P-wave (km/s) = 6.50301 7.28776 6.90654
#
# Compressibility (1/GPa) = 0.02505884
#
# Stress axis : x y z
#
# Youngs Moduli (GPa) = 70.11303 70.11303 27.65756
#
# Poissons Ratio (x) = 0.31274 0.21229
# Poissons Ratio (y) = 0.31274 0.21229
# Poissons Ratio (z) = 0.53815 0.53815
#
# Static dielectric constant tensor:
#      x y z
#    x 1.493990 0.000000 0.000000 
#    y 0.000000 1.493990 0.000000 
#    z 0.000000 0.000000 1.511600 
# 
# From -- ./inp_files/4075.got.cif
#   From: 2010.05.17/outbox.cif.g08.bks.cpg/sg187_3_cif.got.tgz:4075.got - 2010.05.20 12:09:04.
