data_PCOD9585077
_publ_section_title
;
Structure prediction by ZEFSAII (Michael W. Deem and Ramdas Pophale) SiO2 
 PCOD9585077
Probable space group: P 6 M M
;
_chemical_formula_sum "Si O2"
_cell_formula_units_Z 66
_cell_length_a 22.835073
_cell_length_b 22.835073
_cell_length_c 7.415071
_cell_angle_alpha 90.000000
_cell_angle_beta 90.000000
_cell_angle_gamma 120.000000
_cell_volume 3348.503476
_symmetry_space_group_name_H-M "P 6 M M"
_symmetry_group_IT_number 183
_symmetry_cell_setting 'hexagonal'
loop_
_space_group_symop_operation_xyz
x,y,z
x-y,x,z
-y,x-y,z
-x,-y,z
-x+y,-x,z
y,-x+y,z
-x+y,y,z
x,x-y,z
-y,-x,z
y,x,z
x-y,-y,z
-x,-x+y,z
loop_
_atom_site_type_symbol
_atom_site_label
_atom_site_fract_x
_atom_site_fract_y
_atom_site_fract_z
Si Si1 0.117732 0.750762 0.693940
Si Si2 0.664228 0.078781 0.047336
Si Si3 0.532689 0.832811 0.372169
Si Si4 0.000000 0.137747 0.253062
Si Si5 0.541649 0.458352 0.455991
Si Si6 0.136640 0.000000 0.826162
Si Si7 0.237503 0.237503 0.537774
Si Si8 0.080595 0.540298 0.888509
O O1 0.174864 0.825137 0.751129
O O2 0.151760 0.719153 0.567878
O O3 0.065021 0.755272 0.562163
O O4 0.083540 0.706369 0.869224
O O5 0.710709 0.127871 0.205463
O O6 0.621850 0.000000 0.106026
O O7 0.612065 0.103511 0.980709
O O8 0.503521 0.751761 0.343533
O O9 0.492264 0.874269 0.381269
O O10 0.066937 0.133874 0.297427
O O11 0.000000 0.197603 0.362592
O O12 0.000000 0.148893 0.039255
O O13 0.500000 0.500000 0.418295
O O14 0.545529 0.454472 0.673497
O O15 0.066176 0.933825 0.783258
O O16 0.194254 0.000000 0.708544
O O17 0.000000 0.500000 0.912973
#
# Coordination Sequence:
#
# PCOD9585077 Si02
#       8
#    12  12  12   6   6   6   6   6
#     4  11  24  40  58  86 125 166 208 257 319 384
#     4  11  21  38  64  94 126 166 211 265 320 383
#     4  11  25  42  65  99 136 174 214 270 335 393
#     4  10  21  38  60  84 111 148 201 261 317 378
#     4  11  21  41  75 102 131 175 234 283 329 400
#     4  10  21  38  60  84 109 144 195 255 317 376
#     4  12  24  38  59  81 116 162 202 254 310 382
#     4   9  19  35  65 100 129 159 214 279 325 372
#
# _framework density 19.710298999999999
#
# number of rings (size 3 to 8) (size 9 to 14) (size 15 to 20)
#    0.000    1.273    2.727    3.455    2.545    2.909 
#    0.545    2.727    0.000    0.000    0.000    0.000 
#    0.000    0.000    0.000    0.000    0.000    0.000 
#
# Total GULP energy -368146.084605 kJ/mol
# GULP energy per Si atom -5577.970979 kJ/mol
# Density = 1.966544 g / cm^3
# Si number density = 19.710299 Si / 1000 Ang^3
#
#
#
# Elastic Constant Matrix: (Units=GPa)
#
#
# Indices 1 2 3 4 5 6 
#
# 1 61.1459 49.8275 3.6686 0.0000 0.0000 0.0000
# 2 49.8275 61.1459 3.6686 0.0000 0.0000 0.0000
# 3 3.6686 3.6686 60.8428 0.0000 0.0000 0.0000
# 4 0.0000 0.0000 0.0000 -1.0665 0.0000 0.0000
# 5 0.0000 0.0000 0.0000 0.0000 -1.0665 0.0000
# 6 0.0000 0.0000 0.0000 0.0000 0.0000 5.6592
#
#
#
# Elastic Compliance Matrix: (Units=1/GPa)
#
#
# Indices 1 2 3 4 5 6 
#
# 1 0.048700 -0.039652 -0.000546 0.000000 0.000000 0.000000
# 2 -0.039652 0.048700 -0.000546 0.000000 0.000000 0.000000
# 3 -0.000546 -0.000546 0.016502 0.000000 0.000000 0.000000
# 4 0.000000 0.000000 0.000000 -0.937621 0.000000 0.000000
# 5 0.000000 0.000000 0.000000 0.000000 -0.937621 0.000000
# 6 0.000000 0.000000 0.000000 0.000000 0.000000 0.176704
#
#
# Mechanical properties :
#
#
# Convention : Reuss Voigt Hill
#
# Bulk Modulus (GPa) = 30.85091 33.05159 31.95125
# Shear Modulus (GPa) = -3.35043 9.10322 2.87639
#
# Velocity S-wave (km/s) = -1.30519 2.15140 1.20934
# Velocity P-wave (km/s) = 3.66262 4.79338 4.26563
#
# Compressibility (1/GPa) = 0.03241396
#
# Stress axis : x y z
#
# Youngs Moduli (GPa) = 20.53406 20.53406 60.60028
#
# Poissons Ratio (x) = 0.81422 0.03306
# Poissons Ratio (y) = 0.81422 0.03306
# Poissons Ratio (z) = 0.01120 0.01120
#
# Static dielectric constant tensor:
#      x y z
#    x 1.716580 0.000000 0.000000 
#    y 0.000000 1.716580 0.000000 
#    z 0.000000 0.000000 1.691980 
# 
# From -- ./inp_files/1040.got.cif
#   From: 2010.05.17/outbox.cif.g08.bks.cpg/sg183_1_cif.got.tgz:1040.got - 2010.05.20 12:02:58.
