data_PCOD9585691
_publ_section_title
;
Structure prediction by ZEFSAII (Michael W. Deem and Ramdas Pophale) SiO2 
 PCOD9585691
Probable space group: P -6 M 2
;
_chemical_formula_sum "Si O2"
_cell_formula_units_Z 72
_cell_length_a 12.780398
_cell_length_b 12.780398
_cell_length_c 31.379179
_cell_angle_alpha 90.000000
_cell_angle_beta 90.000000
_cell_angle_gamma 120.000000
_cell_volume 4438.752863
_symmetry_space_group_name_H-M "P -6 M 2"
_symmetry_group_IT_number 187
_symmetry_cell_setting 'hexagonal'
loop_
_space_group_symop_operation_xyz
x,y,z
-x+y,-x,-z
-y,x-y,z
x,y,-z
-x+y,-x,z
-y,x-y,-z
-y,-x,-z
-x+y,y,-z
x,x-y,-z
-x+y,y,z
x,x-y,z
-y,-x,z
loop_
_atom_site_type_symbol
_atom_site_label
_atom_site_fract_x
_atom_site_fract_y
_atom_site_fract_z
Si Si1 0.248881 0.999520 0.500000
Si Si2 0.666849 0.086112 0.839544
Si Si3 0.751536 0.999841 0.337085
Si Si4 0.581922 0.915093 0.081015
Si Si5 0.332877 0.915254 0.581720
Si Si6 0.000102 0.248747 0.000000
Si Si7 0.913814 0.333449 0.257525
O O1 0.109675 0.890326 0.500000
O O2 0.310818 0.980160 0.541576
O O3 0.255027 0.127514 0.500000
O O4 0.558274 0.116547 0.841580
O O5 0.794027 0.205974 0.847549
O O6 0.666415 0.044317 0.790993
O O7 0.638689 0.986370 0.875163
O O8 0.877070 0.122931 0.344943
O O9 0.696938 0.015779 0.292967
O O10 0.772893 0.886447 0.335089
O O11 0.658035 0.973855 0.375346
O O12 0.455324 0.910647 0.074348
O O13 0.562627 0.781314 0.082945
O O14 0.671368 0.982489 0.041800
O O15 0.461143 0.922285 0.579873
O O16 0.223879 0.776122 0.580663
O O17 0.873080 0.126920 0.000000
O O18 0.110556 0.221111 0.000000
O O19 0.922258 0.461129 0.265849
O O20 0.774310 0.225691 0.259264
#
# Coordination Sequence:
#
# PCOD9585691 Si02
#       7
#     6  12  12  12  12   6  12
#     4  10  20  34  54  78 104 134 166 200 236 280
#     4   9  17  30  49  72  97 126 161 202 246 289
#     4  10  20  33  50  71  97 129 163 201 243 290
#     4  10  20  33  50  71  97 129 162 196 233 279
#     4  10  20  34  53  75  99 127 160 200 243 287
#     4  10  20  34  52  72  94 120 152 192 236 282
#     4   9  17  30  49  72  97 126 161 201 245 292
#
# _framework density 16.220773000000001
#
# number of rings (size 3 to 8) (size 9 to 14) (size 15 to 20)
#    0.000    2.333    0.000    3.000    0.000    2.000 
#    0.000    3.333    0.000    8.667    0.000    0.000 
#    0.000    0.000    0.000    0.000    0.000    0.000 
#
# Total GULP energy -401654.392200 kJ/mol
# GULP energy per Si atom -5578.533225 kJ/mol
# Density = 1.618385 g / cm^3
# Si number density = 16.220773 Si / 1000 Ang^3
#
#
#
# Elastic Constant Matrix: (Units=GPa)
#
#
# Indices 1 2 3 4 5 6 
#
# 1 116.5572 79.6402 82.1477 0.0000 -0.0001 0.0000
# 2 79.6402 116.5572 82.1477 0.0000 0.0001 0.0000
# 3 82.1477 82.1477 139.4492 0.0000 0.0000 0.0000
# 4 0.0000 0.0000 0.0000 23.8313 0.0000 0.0001
# 5 -0.0001 0.0001 0.0000 0.0000 23.8313 0.0000
# 6 0.0000 0.0000 0.0000 0.0001 0.0000 18.4585
#
#
#
# Elastic Compliance Matrix: (Units=1/GPa)
#
#
# Indices 1 2 3 4 5 6 
#
# 1 0.018573 -0.008514 -0.005926 0.000000 0.000000 0.000000
# 2 -0.008514 0.018573 -0.005926 0.000000 0.000000 0.000000
# 3 -0.005926 -0.005926 0.014153 0.000000 0.000000 0.000000
# 4 0.000000 0.000000 0.000000 0.041962 0.000000 0.000000
# 5 0.000000 0.000000 0.000000 0.000000 0.041962 0.000000
# 6 0.000000 0.000000 0.000000 0.000000 0.000000 0.054175
#
#
# Mechanical properties :
#
#
# Convention : Reuss Voigt Hill
#
# Bulk Modulus (GPa) = 94.62531 95.60386 95.11458
# Shear Modulus (GPa) = 21.39934 21.79942 21.59938
#
# Velocity S-wave (km/s) = 3.63610 3.66993 3.65305
# Velocity P-wave (km/s) = 8.72300 8.77639 8.74973
#
# Compressibility (1/GPa) = 0.01056800
#
# Stress axis : x y z
#
# Youngs Moduli (GPa) = 53.84049 53.84049 70.65887
#
# Poissons Ratio (x) = 0.45842 0.41870
# Poissons Ratio (y) = 0.45842 0.41870
# Poissons Ratio (z) = 0.31904 0.31904
#
# Static dielectric constant tensor:
#      x y z
#    x 1.511820 0.000000 0.000000 
#    y 0.000000 1.511820 0.000000 
#    z 0.000000 0.000000 1.541810 
# 
# From -- ./inp_files/4580.got.cif
#   From: 2010.05.17/outbox.cif.g08.bks.cpg/sg187_3_cif.got.tgz:4580.got - 2010.05.20 12:09:04.
