data_PCOD9585590
_publ_section_title
;
Structure prediction by ZEFSAII (Michael W. Deem and Ramdas Pophale) SiO2 
 PCOD9585590
Probable space group: P -6 M 2
;
_chemical_formula_sum "Si O2"
_cell_formula_units_Z 72
_cell_length_a 24.693515
_cell_length_b 24.693515
_cell_length_c 8.712944
_cell_angle_alpha 90.000000
_cell_angle_beta 90.000000
_cell_angle_gamma 120.000000
_cell_volume 4601.096929
_symmetry_space_group_name_H-M "P -6 M 2"
_symmetry_group_IT_number 187
_symmetry_cell_setting 'hexagonal'
loop_
_space_group_symop_operation_xyz
x,y,z
-x+y,-x,-z
-y,x-y,z
x,y,-z
-x+y,-x,z
-y,x-y,-z
-y,-x,-z
-x+y,y,-z
x,x-y,-z
-x+y,y,z
x,x-y,z
-y,-x,z
loop_
_atom_site_type_symbol
_atom_site_label
_atom_site_fract_x
_atom_site_fract_y
_atom_site_fract_z
Si Si1 0.328754 0.997575 0.317827
Si Si2 0.875296 0.000740 0.316861
Si Si3 0.857618 0.488147 0.683735
Si Si4 0.862535 0.258759 0.816342
Si Si5 0.442180 0.002048 0.816729
Si Si6 0.067534 0.260390 0.817376
O O1 0.334890 0.000701 0.500000
O O2 0.372660 0.972605 0.246832
O O3 0.257760 0.954497 0.266450
O O4 0.355083 0.068557 0.255510
O O5 0.864695 0.002052 0.500000
O O6 0.932656 0.067345 0.270824
O O7 0.892294 0.946147 0.291883
O O8 0.811340 0.979882 0.228791
O O9 0.853983 0.491659 0.500000
O O10 0.830458 0.415229 0.726365
O O11 0.834861 0.531874 0.761983
O O12 0.930065 0.522466 0.736224
O O13 0.812400 0.187601 0.773364
O O14 0.869160 0.262816 0.000000
O O15 0.485943 0.971885 0.786075
O O16 0.441790 0.010772 0.000000
O O17 0.136457 0.272914 0.773667
O O18 0.066118 0.267790 0.000000
#
# Coordination Sequence:
#
# PCOD9585590 Si02
#       6
#    12  12  12  12  12  12
#     4  11  21  32  49  69  91 120 151 187 228 272
#     4   9  17  30  48  68  88 111 144 190 244 298
#     4   9  16  26  42  63  85 110 140 174 214 262
#     4  10  20  32  46  65  89 117 150 190 234 279
#     4   9  16  27  45  68  93 118 142 170 205 248
#     4  10  21  36  51  66  88 120 156 193 233 281
#
# _framework density 15.648441
#
# number of rings (size 3 to 8) (size 9 to 14) (size 15 to 20)
#    0.000    2.333    0.000    5.667    0.000    6.000 
#    0.000    0.000    0.000    1.333    0.000    0.000 
#    0.000    0.000    0.000    0.500    0.000    9.667 
#
# Total GULP energy -401181.667369 kJ/mol
# GULP energy per Si atom -5571.967602 kJ/mol
# Density = 1.561282 g / cm^3
# Si number density = 15.648441 Si / 1000 Ang^3
#
#
#
# Elastic Constant Matrix: (Units=GPa)
#
#
# Indices 1 2 3 4 5 6 
#
# 1 69.1207 47.9400 29.5597 0.0000 0.0004 0.0000
# 2 47.9400 69.1207 29.5597 0.0000 -0.0004 0.0000
# 3 29.5597 29.5597 56.6690 0.0000 0.0000 0.0000
# 4 0.0000 0.0000 0.0000 -31.1843 0.0000 -0.0004
# 5 0.0004 -0.0004 0.0000 0.0000 -31.1843 0.0000
# 6 0.0000 0.0000 0.0000 -0.0004 0.0000 10.5904
#
#
#
# Elastic Compliance Matrix: (Units=1/GPa)
#
#
# Indices 1 2 3 4 5 6 
#
# 1 0.029405 -0.017807 -0.006050 0.000000 0.000001 0.000000
# 2 -0.017807 0.029405 -0.006050 0.000000 -0.000001 0.000000
# 3 -0.006050 -0.006050 0.023958 0.000000 0.000000 0.000000
# 4 0.000000 0.000000 0.000000 -0.032067 0.000000 -0.000001
# 5 0.000001 -0.000001 0.000000 0.000000 -0.032067 0.000000
# 6 0.000000 0.000000 0.000000 -0.000001 0.000000 0.094426
#
#
# Mechanical properties :
#
#
# Convention : Reuss Voigt Hill
#
# Bulk Modulus (GPa) = 43.56425 45.44769 44.50597
# Shear Modulus (GPa) = 27.69713 -4.49892 11.59910
#
# Velocity S-wave (km/s) = 4.21165 -1.69742 2.72551
# Velocity P-wave (km/s) = 7.17987 5.02637 6.19737
#
# Compressibility (1/GPa) = 0.02295460
#
# Stress axis : x y z
#
# Youngs Moduli (GPa) = 34.00746 34.00746 41.74037
#
# Poissons Ratio (x) = 0.60559 0.25252
# Poissons Ratio (y) = 0.60559 0.25252
# Poissons Ratio (z) = 0.20573 0.20573
#
# Static dielectric constant tensor:
#      x y z
#    x 1.531590 0.000000 0.000000 
#    y 0.000000 1.531590 0.000000 
#    z 0.000000 0.000000 1.524160 
# 
# From -- ./inp_files/1004.got.cif
#   From: 2010.05.17/outbox.cif.g08.bks.cpg/sg187_1_cif.got.tgz:1004.got - 2010.05.20 12:09:04.
