data_PCOD9585408
_publ_section_title
;
Structure prediction by ZEFSAII (Michael W. Deem and Ramdas Pophale) SiO2 
 PCOD9585408
Probable space group: P 63 M C
;
_chemical_formula_sum "Si O2"
_cell_formula_units_Z 60
_cell_length_a 19.002309
_cell_length_b 19.002309
_cell_length_c 10.140924
_cell_angle_alpha 90.000000
_cell_angle_beta 90.000000
_cell_angle_gamma 120.000000
_cell_volume 3171.180130
_symmetry_space_group_name_H-M "P 63 M C"
_symmetry_group_IT_number 186
_symmetry_cell_setting 'hexagonal'
loop_
_space_group_symop_operation_xyz
x,y,z
x-y,x,1/2+z
-y,x-y,z
-x,-y,1/2+z
-x+y,-x,z
y,-x+y,1/2+z
-x+y,y,z
x,x-y,z
-y,-x,z
y,x,1/2+z
x-y,-y,1/2+z
-x,-x+y,1/2+z
loop_
_atom_site_type_symbol
_atom_site_label
_atom_site_fract_x
_atom_site_fract_y
_atom_site_fract_z
Si Si1 0.969115 0.300836 0.862810
Si Si2 0.320201 0.240753 0.129708
Si Si3 0.366877 0.475810 0.954622
Si Si4 0.497504 0.830232 0.250568
Si Si5 0.174692 0.666329 0.669038
O O1 0.895890 0.315298 0.819899
O O2 0.006874 0.282959 0.734014
O O3 0.040572 0.384434 0.925291
O O4 0.943517 0.236079 0.979667
O O5 0.312417 0.156209 0.174183
O O6 0.417336 0.306000 0.124764
O O7 0.464049 0.535952 0.957518
O O8 0.335814 0.504002 0.828493
O O9 0.334247 0.487045 0.093439
O O10 0.419908 0.839815 0.284499
O O11 0.480788 0.740394 0.280521
O O12 0.155809 0.577905 0.624765
O O13 0.263944 0.736057 0.627980
#
# Coordination Sequence:
#
# PCOD9585408 Si02
#       5
#    12  12  12  12  12
#     4  11  20  39  57  80 112 153 197 246 297 360
#     4  10  22  38  57  84 113 148 195 244 293 351
#     4   9  18  31  49  73 101 144 200 249 296 351
#     4  11  22  35  54  81 117 158 205 254 303 352
#     4   9  17  29  47  70 102 141 190 247 299 344
#
# _framework density 18.920399
#
# number of rings (size 3 to 8) (size 9 to 14) (size 15 to 20)
#    0.000    2.000    2.000    2.200    0.000    3.200 
#    0.000    2.000    0.000    2.400    0.000    0.000 
#    0.000    0.000    0.000   22.800    0.000    0.000 
#
# Total GULP energy -334972.402227 kJ/mol
# GULP energy per Si atom -5582.873370 kJ/mol
# Density = 1.887734 g / cm^3
# Si number density = 18.920399 Si / 1000 Ang^3
#
#
#
# Elastic Constant Matrix: (Units=GPa)
#
#
# Indices 1 2 3 4 5 6 
#
# 1 34.8944 14.4602 21.1980 0.0000 0.0000 0.0000
# 2 14.4602 34.8944 21.1980 0.0000 0.0000 0.0000
# 3 21.1980 21.1980 111.3737 0.0000 0.0000 0.0000
# 4 0.0000 0.0000 0.0000 7.3120 0.0000 0.0000
# 5 0.0000 0.0000 0.0000 0.0000 7.3120 0.0000
# 6 0.0000 0.0000 0.0000 0.0000 0.0000 10.2171
#
#
#
# Elastic Compliance Matrix: (Units=1/GPa)
#
#
# Indices 1 2 3 4 5 6 
#
# 1 0.036580 -0.012358 -0.004610 0.000000 0.000000 0.000000
# 2 -0.012358 0.036580 -0.004610 0.000000 0.000000 0.000000
# 3 -0.004610 -0.004610 0.010734 0.000000 0.000000 0.000000
# 4 0.000000 0.000000 0.000000 0.136762 0.000000 0.000000
# 5 0.000000 0.000000 0.000000 0.000000 0.136762 0.000000
# 6 0.000000 0.000000 0.000000 0.000000 0.000000 0.097875
#
#
# Mechanical properties :
#
#
# Convention : Reuss Voigt Hill
#
# Bulk Modulus (GPa) = 24.54805 32.76390 28.65597
# Shear Modulus (GPa) = 9.76513 13.25531 11.51022
#
# Velocity S-wave (km/s) = 2.27428 2.64972 2.46915
# Velocity P-wave (km/s) = 4.46083 5.16872 4.82777
#
# Compressibility (1/GPa) = 0.04073644
#
# Stress axis : x y z
#
# Youngs Moduli (GPa) = 27.33768 27.33768 93.16438
#
# Poissons Ratio (x) = 0.33783 0.42950
# Poissons Ratio (y) = 0.33783 0.42950
# Poissons Ratio (z) = 0.12603 0.12603
#
# Static dielectric constant tensor:
#      x y z
#    x 1.643190 0.000000 0.000000 
#    y 0.000000 1.643190 0.000000 
#    z 0.000000 0.000000 1.712910 
# 
# From -- ./inp_files/1758.got.cif
#   From: 2010.05.17/outbox.cif.g08.bks.cpg/sg186_1_cif.got.tgz:1758.got - 2010.05.20 12:07:08.
