data_PCOD9585777
_publ_section_title
;
Structure prediction by ZEFSAII (Michael W. Deem and Ramdas Pophale) SiO2 
 PCOD9585777
Probable space group: P -6 M 2
;
_chemical_formula_sum "Si O2"
_cell_formula_units_Z 66
_cell_length_a 22.166585
_cell_length_b 22.166585
_cell_length_c 8.101862
_cell_angle_alpha 90.000000
_cell_angle_beta 90.000000
_cell_angle_gamma 120.000000
_cell_volume 3447.569694
_symmetry_space_group_name_H-M "P -6 M 2"
_symmetry_group_IT_number 187
_symmetry_cell_setting 'hexagonal'
loop_
_space_group_symop_operation_xyz
x,y,z
-x+y,-x,-z
-y,x-y,z
x,y,-z
-x+y,-x,z
-y,x-y,-z
-y,-x,-z
-x+y,y,-z
x,x-y,-z
-x+y,y,z
x,x-y,z
-y,-x,z
loop_
_atom_site_type_symbol
_atom_site_label
_atom_site_fract_x
_atom_site_fract_y
_atom_site_fract_z
Si Si1 0.304141 0.380452 0.687999
Si Si2 0.804802 0.332509 0.300654
Si Si3 0.333705 0.803349 0.800610
Si Si4 0.765049 0.809899 0.818423
Si Si5 0.855443 0.000934 0.500000
Si Si6 0.589993 0.550098 0.194231
O O1 0.279560 0.365130 0.500000
O O2 0.311159 0.453415 0.740276
O O3 0.251129 0.314145 0.793636
O O4 0.380922 0.391112 0.707487
O O5 0.810881 0.331961 0.500000
O O6 0.788672 0.394336 0.259893
O O7 0.741580 0.258421 0.247783
O O8 0.879281 0.354695 0.223595
O O9 0.409711 0.819421 0.742524
O O10 0.274274 0.725727 0.752893
O O11 0.335916 0.806546 0.000000
O O12 0.764544 0.882272 0.815534
O O13 0.812468 0.814432 0.663937
O O14 0.790366 0.802936 0.000000
O O15 0.861581 0.930791 0.500000
O O16 0.930896 0.069105 0.500000
O O17 0.515064 0.484937 0.243895
O O18 0.586295 0.563285 0.000000
#
# Coordination Sequence:
#
# PCOD9585777 Si02
#       6
#    12  12  12  12   6  12
#     4  12  23  36  57  83 112 151 201 250 297 354
#     4   9  17  31  52  77 104 135 172 218 275 340
#     4  10  21  37  57  82 114 153 197 246 301 360
#     4  10  21  39  63  91 125 162 200 245 292 343
#     4  10  21  40  66  98 131 162 196 238 290 352
#     4  10  21  36  53  75 106 143 187 240 293 350
#
# _framework density 19.143920999999999
#
# number of rings (size 3 to 8) (size 9 to 14) (size 15 to 20)
#    0.000    1.818    0.909    3.727    0.000    8.364 
#    0.000    0.909    0.000    5.455    0.000    0.000 
#    0.000    0.000    0.000    0.000    0.000    0.000 
#
# Total GULP energy -368662.698146 kJ/mol
# GULP energy per Si atom -5585.798457 kJ/mol
# Density = 1.910035 g / cm^3
# Si number density = 19.143921 Si / 1000 Ang^3
#
#
#
# Elastic Constant Matrix: (Units=GPa)
#
#
# Indices 1 2 3 4 5 6 
#
# 1 61.9109 13.1882 29.0734 0.0000 0.0003 0.0000
# 2 13.1882 61.9109 29.0734 0.0000 -0.0003 0.0000
# 3 29.0734 29.0734 86.2712 0.0000 0.0000 0.0000
# 4 0.0000 0.0000 0.0000 23.6499 0.0000 -0.0003
# 5 0.0003 -0.0003 0.0000 0.0000 23.6499 0.0000
# 6 0.0000 0.0000 0.0000 -0.0003 0.0000 24.3613
#
#
#
# Elastic Compliance Matrix: (Units=1/GPa)
#
#
# Indices 1 2 3 4 5 6 
#
# 1 0.019271 -0.001254 -0.006072 0.000000 0.000000 0.000000
# 2 -0.001254 0.019271 -0.006072 0.000000 0.000000 0.000000
# 3 -0.006072 -0.006072 0.015684 0.000000 0.000000 0.000000
# 4 0.000000 0.000000 0.000000 0.042284 0.000000 0.000000
# 5 0.000000 0.000000 0.000000 0.000000 0.042284 0.000000
# 6 0.000000 0.000000 0.000000 0.000000 0.000000 0.041049
#
#
# Mechanical properties :
#
#
# Convention : Reuss Voigt Hill
#
# Bulk Modulus (GPa) = 36.45558 39.19588 37.82573
# Shear Modulus (GPa) = 23.17194 23.58275 23.37735
#
# Velocity S-wave (km/s) = 3.48287 3.51360 3.49827
# Velocity P-wave (km/s) = 5.93785 6.08106 6.00988
#
# Compressibility (1/GPa) = 0.02743064
#
# Stress axis : x y z
#
# Youngs Moduli (GPa) = 51.89259 51.89259 63.76063
#
# Poissons Ratio (x) = 0.06506 0.38713
# Poissons Ratio (y) = 0.06506 0.38713
# Poissons Ratio (z) = 0.31507 0.31507
#
# Static dielectric constant tensor:
#      x y z
#    x 1.638260 0.000000 0.000000 
#    y 0.000000 1.638260 0.000000 
#    z 0.000000 0.000000 1.698550 
# 
# From -- ./inp_files/783.got.cif
#   From: 2010.05.17/outbox.cif.g08.bks.cpg/sg187_1_cif.got.tgz:783.got - 2010.05.20 12:09:04.
