data_PCOD9585012
_publ_section_title
;
Structure prediction by ZEFSAII (Michael W. Deem and Ramdas Pophale) SiO2 
 PCOD9585012
Probable space group: P 6 M M
;
_chemical_formula_sum "Si O2"
_cell_formula_units_Z 96
_cell_length_a 18.251978
_cell_length_b 18.251978
_cell_length_c 20.557330
_cell_angle_alpha 90.000000
_cell_angle_beta 90.000000
_cell_angle_gamma 120.000000
_cell_volume 5930.853718
_symmetry_space_group_name_H-M "P 6 M M"
_symmetry_group_IT_number 183
_symmetry_cell_setting 'hexagonal'
loop_
_space_group_symop_operation_xyz
x,y,z
x-y,x,z
-y,x-y,z
-x,-y,z
-x+y,-x,z
y,-x+y,z
-x+y,y,z
x,x-y,z
-y,-x,z
y,x,z
x-y,-y,z
-x,-x+y,z
loop_
_atom_site_type_symbol
_atom_site_label
_atom_site_fract_x
_atom_site_fract_y
_atom_site_fract_z
Si Si1 0.097204 0.359572 0.648720
Si Si2 0.467798 0.102106 0.149192
Si Si3 0.364391 0.265939 0.271749
Si Si4 0.100836 0.365717 0.025844
Si Si5 0.366284 0.467704 0.529161
Si Si6 0.835438 0.503129 0.384224
Si Si7 0.667707 0.502760 0.757791
Si Si8 0.899073 0.532915 0.901993
O O1 0.163554 0.327107 0.653912
O O2 0.120629 0.420295 0.585852
O O3 0.110278 0.418461 0.711012
O O4 0.000000 0.288336 0.643493
O O5 0.567917 0.135834 0.149492
O O6 0.431564 0.123701 0.212831
O O7 0.431886 0.122763 0.084896
O O8 0.422341 0.000000 0.149516
O O9 0.332297 0.166149 0.272460
O O10 0.293991 0.293991 0.263965
O O11 0.417606 0.306725 0.337406
O O12 0.164623 0.329245 0.029597
O O13 0.000000 0.298313 0.029490
O O14 0.117578 0.418213 0.959148
O O15 0.436923 0.563078 0.548498
O O16 0.416425 0.416425 0.520223
O O17 0.329515 0.472165 0.459653
O O18 0.737801 0.475602 0.373073
O O19 0.852134 0.426067 0.370553
O O20 0.737771 0.475542 0.745401
O O21 0.574040 0.425961 0.744936
O O22 0.671801 0.527292 0.833401
O O23 0.875822 0.437911 0.921990
O O24 0.000000 0.583818 0.890765
#
# Coordination Sequence:
#
# PCOD9585012 Si02
#       8
#    12  12  12  12  12  12  12  12
#     4  10  20  33  49  68  90 117 151 191 232 273
#     4   9  17  30  49  71  93 118 148 181 219 266
#     4  10  20  33  50  71  94 122 157 196 236 278
#     4  10  19  31  48  69  93 122 158 198 237 277
#     4   9  17  29  46  68  93 122 155 187 220 263
#     4  10  19  30  45  67  96 128 160 193 228 266
#     4  10  19  30  45  67  96 127 156 185 219 262
#     4   9  17  29  46  67  90 119 155 192 229 270
#
# _framework density 16.186540000000001
#
# number of rings (size 3 to 8) (size 9 to 14) (size 15 to 20)
#    0.000    2.375    0.000    3.250    0.000    4.000 
#    0.000    0.000    0.000   10.375    0.000    0.000 
#    0.000    3.000    0.000    8.000    0.000    0.000 
#
# Total GULP energy -535208.222677 kJ/mol
# GULP energy per Si atom -5575.085653 kJ/mol
# Density = 1.614970 g / cm^3
# Si number density = 16.186540 Si / 1000 Ang^3
#
#
#
# Elastic Constant Matrix: (Units=GPa)
#
#
# Indices 1 2 3 4 5 6 
#
# 1 80.0583 52.5543 33.4834 0.0000 0.0000 0.0000
# 2 52.5543 80.0583 33.4834 0.0000 0.0000 0.0000
# 3 33.4834 33.4834 61.7550 0.0000 0.0000 0.0000
# 4 0.0000 0.0000 0.0000 16.8296 0.0000 0.0000
# 5 0.0000 0.0000 0.0000 0.0000 16.8296 0.0000
# 6 0.0000 0.0000 0.0000 0.0000 0.0000 13.7520
#
#
#
# Elastic Compliance Matrix: (Units=1/GPa)
#
#
# Indices 1 2 3 4 5 6 
#
# 1 0.023371 -0.012987 -0.005630 0.000000 0.000000 0.000000
# 2 -0.012987 0.023371 -0.005630 0.000000 0.000000 0.000000
# 3 -0.005630 -0.005630 0.022298 0.000000 0.000000 0.000000
# 4 0.000000 0.000000 0.000000 0.059419 0.000000 0.000000
# 5 0.000000 0.000000 0.000000 0.000000 0.059419 0.000000
# 6 0.000000 0.000000 0.000000 0.000000 0.000000 0.072717
#
#
# Mechanical properties :
#
#
# Convention : Reuss Voigt Hill
#
# Bulk Modulus (GPa) = 48.67228 51.21267 49.94248
# Shear Modulus (GPa) = 15.82586 16.30561 16.06573
#
# Velocity S-wave (km/s) = 3.13024 3.17733 3.15387
# Velocity P-wave (km/s) = 6.57263 6.72074 6.64709
#
# Compressibility (1/GPa) = 0.02054557
#
# Stress axis : x y z
#
# Youngs Moduli (GPa) = 42.78794 42.78794 44.84648
#
# Poissons Ratio (x) = 0.55570 0.25249
# Poissons Ratio (y) = 0.55570 0.25249
# Poissons Ratio (z) = 0.24090 0.24090
#
# Static dielectric constant tensor:
#      x y z
#    x 1.540510 0.000000 0.000000 
#    y 0.000000 1.540510 0.000000 
#    z 0.000000 0.000000 1.545550 
# 
# From -- ./inp_files/2958.got.cif
#   From: 2010.05.17/outbox.cif.g08.bks.cpg/sg183_2_cif.got.tgz:2958.got - 2010.05.20 12:02:58.
