data_PCOD9585900
_publ_section_title
;
Structure prediction by ZEFSAII (Michael W. Deem and Ramdas Pophale) SiO2 
 PCOD9585900
Probable space group: P -6 C 2
;
_chemical_formula_sum "Si O2"
_cell_formula_units_Z 72
_cell_length_a 15.776487
_cell_length_b 15.776487
_cell_length_c 16.573971
_cell_angle_alpha 90.000000
_cell_angle_beta 90.000000
_cell_angle_gamma 120.000000
_cell_volume 3572.545874
_symmetry_space_group_name_H-M "P -6 C 2"
_symmetry_group_IT_number 188
_symmetry_cell_setting 'hexagonal'
loop_
_space_group_symop_operation_xyz
x,y,z
-x+y,-x,1/2-z
-y,x-y,z
x,y,1/2-z
-x+y,-x,z
-y,x-y,1/2-z
-y,-x,-z
-x+y,y,-z
x,x-y,-z
-x+y,y,1/2+z
x,x-y,1/2+z
-y,-x,1/2+z
loop_
_atom_site_type_symbol
_atom_site_label
_atom_site_fract_x
_atom_site_fract_y
_atom_site_fract_z
Si Si1 0.457934 0.741428 0.096548
Si Si2 0.286890 0.022018 0.155957
Si Si3 0.679183 0.809328 0.652753
Si Si4 0.700665 0.504633 0.921548
Si Si5 0.816306 0.082112 0.079346
Si Si6 0.865968 0.370162 0.343111
O O1 0.375418 0.771603 0.118179
O O2 0.562758 0.814034 0.134290
O O3 0.470145 0.735073 0.000000
O O4 0.294692 0.006620 0.250000
O O5 0.205757 0.919093 0.122802
O O6 0.259520 0.106369 0.145698
O O7 0.395853 0.061200 0.122931
O O8 0.692883 0.807378 0.750000
O O9 0.749366 0.777946 0.607421
O O10 0.742084 0.619023 0.933343
O O11 0.588467 0.450104 0.898111
O O12 0.760132 0.488389 0.849681
O O13 0.734673 0.469345 0.000000
O O14 0.885816 0.114185 0.000000
O O15 0.887573 0.401327 0.250000
#
# Coordination Sequence:
#
# PCOD9585900 Si02
#       6
#    12  12  12  12  12  12
#     4   8  19  40  63  96 138 180 220 268 330 409
#     4   9  21  40  58  87 129 163 207 268 325 390
#     4  11  23  39  68  98 127 173 219 281 349 399
#     4  10  20  35  54  82 120 156 201 250 305 369
#     4  10  23  40  60  88 118 162 213 269 325 389
#     4  10  19  33  55  82 118 162 201 245 304 377
#
# _framework density 20.153694999999999
#
# number of rings (size 3 to 8) (size 9 to 14) (size 15 to 20)
#    0.333    2.000    0.000    1.833    2.333    4.000 
#    1.000    1.667    0.000    0.000    0.000    0.000 
#    0.000    0.000    0.000    0.000    0.000    0.000 
#
# Total GULP energy -401091.761937 kJ/mol
# GULP energy per Si atom -5570.718916 kJ/mol
# Density = 2.010782 g / cm^3
# Si number density = 20.153695 Si / 1000 Ang^3
#
#
#
# Elastic Constant Matrix: (Units=GPa)
#
#
# Indices 1 2 3 4 5 6 
#
# 1 143.2466 89.7521 39.3606 0.0000 0.0000 0.0000
# 2 89.7521 143.2466 39.3606 0.0000 0.0000 0.0000
# 3 39.3606 39.3606 70.4660 0.0000 0.0000 0.0000
# 4 0.0000 0.0000 0.0000 27.9046 0.0000 0.0000
# 5 0.0000 0.0000 0.0000 0.0000 27.9046 0.0000
# 6 0.0000 0.0000 0.0000 0.0000 0.0000 26.7472
#
#
#
# Elastic Compliance Matrix: (Units=1/GPa)
#
#
# Indices 1 2 3 4 5 6 
#
# 1 0.011992 -0.006702 -0.002955 0.000000 0.000000 0.000000
# 2 -0.006702 0.011992 -0.002955 0.000000 0.000000 0.000000
# 3 -0.002955 -0.002955 0.017492 0.000000 0.000000 0.000000
# 4 0.000000 0.000000 0.000000 0.035836 0.000000 0.000000
# 5 0.000000 0.000000 0.000000 0.000000 0.035836 0.000000
# 6 0.000000 0.000000 0.000000 0.000000 0.000000 0.037387
#
#
# Mechanical properties :
#
#
# Convention : Reuss Voigt Hill
#
# Bulk Modulus (GPa) = 61.52746 77.10067 69.31406
# Shear Modulus (GPa) = 27.59733 29.07702 28.33718
#
# Velocity S-wave (km/s) = 3.70448 3.80249 3.75381
# Velocity P-wave (km/s) = 6.99235 7.59065 7.29764
#
# Compressibility (1/GPa) = 0.01625291
#
# Stress axis : x y z
#
# Youngs Moduli (GPa) = 83.38972 83.38972 57.16755
#
# Poissons Ratio (x) = 0.55885 0.16893
# Poissons Ratio (y) = 0.55885 0.16893
# Poissons Ratio (z) = 0.24642 0.24642
#
# Static dielectric constant tensor:
#      x y z
#    x 1.727880 0.000000 0.000000 
#    y 0.000000 1.727880 0.000000 
#    z 0.000000 0.000000 1.769390 
# 
# From -- ./inp_files/3182.got.cif
#   From: 2010.05.17/outbox.cif.g08.bks.cpg/sg188_2_cif.got.tgz:3182.got - 2010.05.20 12:11:46.
