data_PCOD9585791
_publ_section_title
;
Structure prediction by ZEFSAII (Michael W. Deem and Ramdas Pophale) SiO2 
 PCOD9585791
Probable space group: P -6 M 2
;
_chemical_formula_sum "Si O2"
_cell_formula_units_Z 66
_cell_length_a 22.600768
_cell_length_b 22.600768
_cell_length_c 7.757423
_cell_angle_alpha 90.000000
_cell_angle_beta 90.000000
_cell_angle_gamma 120.000000
_cell_volume 3431.582936
_symmetry_space_group_name_H-M "P -6 M 2"
_symmetry_group_IT_number 187
_symmetry_cell_setting 'hexagonal'
loop_
_space_group_symop_operation_xyz
x,y,z
-x+y,-x,-z
-y,x-y,z
x,y,-z
-x+y,-x,z
-y,x-y,-z
-y,-x,-z
-x+y,y,-z
x,x-y,-z
-x+y,y,z
x,x-y,z
-y,-x,z
loop_
_atom_site_type_symbol
_atom_site_label
_atom_site_fract_x
_atom_site_fract_y
_atom_site_fract_z
Si Si1 0.922519 0.308913 0.301055
Si Si2 0.199278 0.667681 0.210378
Si Si3 0.000793 0.858333 0.500000
Si Si4 0.950291 0.191304 0.810116
Si Si5 0.666290 0.198011 0.710630
Si Si6 0.546472 0.955211 0.208488
O O1 0.906719 0.286546 0.500000
O O2 0.939590 0.255762 0.212095
O O3 0.858914 0.315218 0.230317
O O4 0.988098 0.383831 0.289271
O O5 0.212686 0.606343 0.262051
O O6 0.259508 0.740493 0.270270
O O7 0.122278 0.645190 0.262187
O O8 0.199729 0.668251 0.000000
O O9 0.933603 0.867206 0.500000
O O10 0.995066 0.812468 0.335423
O O11 0.069014 0.930987 0.500000
O O12 0.875491 0.124510 0.795570
O O13 0.977907 0.192467 0.000000
O O14 0.664053 0.194936 0.500000
O O15 0.592658 0.185315 0.768737
O O16 0.726981 0.273020 0.758730
O O17 0.483552 0.967104 0.252040
O O18 0.553570 0.959238 0.000000
#
# Coordination Sequence:
#
# PCOD9585791 Si02
#       6
#    12  12   6  12  12  12
#     4  11  20  32  52  76 106 148 196 239 281 340
#     4   8  13  23  42  67  92 119 156 208 271 336
#     4  10  21  40  66  96 127 156 188 230 282 342
#     4  10  21  38  61  89 121 156 194 237 282 331
#     4   9  17  28  45  71 103 138 181 237 299 356
#     4   9  18  31  46  68 101 137 178 234 293 348
#
# _framework density 19.233104999999998
#
# number of rings (size 3 to 8) (size 9 to 14) (size 15 to 20)
#    0.000    2.545    0.909    3.182    0.000    3.636 
#    0.000    0.909    0.000    3.273    0.000    0.000 
#    0.000   10.182    0.000    0.000    0.000    0.000 
#
# Total GULP energy -368402.200239 kJ/mol
# GULP energy per Si atom -5581.851519 kJ/mol
# Density = 1.918933 g / cm^3
# Si number density = 19.233105 Si / 1000 Ang^3
#
#
#
# Elastic Constant Matrix: (Units=GPa)
#
#
# Indices 1 2 3 4 5 6 
#
# 1 93.0020 39.7461 33.1718 0.0000 0.0001 0.0000
# 2 39.7461 93.0020 33.1718 0.0000 -0.0001 0.0000
# 3 33.1718 33.1718 67.7283 0.0000 0.0000 0.0000
# 4 0.0000 0.0000 0.0000 10.1567 0.0000 -0.0001
# 5 0.0001 -0.0001 0.0000 0.0000 10.1567 0.0000
# 6 0.0000 0.0000 0.0000 -0.0001 0.0000 26.6280
#
#
#
# Elastic Compliance Matrix: (Units=1/GPa)
#
#
# Indices 1 2 3 4 5 6 
#
# 1 0.014376 -0.004401 -0.004885 0.000000 0.000000 0.000000
# 2 -0.004401 0.014376 -0.004885 0.000000 0.000000 0.000000
# 3 -0.004885 -0.004885 0.019550 0.000000 0.000000 0.000000
# 4 0.000000 0.000000 0.000000 0.098457 0.000000 0.000000
# 5 0.000000 0.000000 0.000000 0.000000 0.098457 0.000000
# 6 0.000000 0.000000 0.000000 0.000000 0.000000 0.037555
#
#
# Mechanical properties :
#
#
# Convention : Reuss Voigt Hill
#
# Bulk Modulus (GPa) = 50.10476 51.76800 50.93638
# Shear Modulus (GPa) = 15.73477 19.23112 17.48295
#
# Velocity S-wave (km/s) = 2.86336 3.16554 3.01824
# Velocity P-wave (km/s) = 6.08602 6.35102 6.21993
#
# Compressibility (1/GPa) = 0.01995818
#
# Stress axis : x y z
#
# Youngs Moduli (GPa) = 69.56069 69.56069 51.14999
#
# Poissons Ratio (x) = 0.30616 0.24989
# Poissons Ratio (y) = 0.30616 0.24989
# Poissons Ratio (z) = 0.33983 0.33983
#
# Static dielectric constant tensor:
#      x y z
#    x 1.639270 0.000000 0.000000 
#    y 0.000000 1.639270 0.000000 
#    z 0.000000 0.000000 1.720960 
# 
# From -- ./inp_files/770.got.cif
#   From: 2010.05.17/outbox.cif.g08.bks.cpg/sg187_1_cif.got.tgz:770.got - 2010.05.20 12:09:04.
