data_PCOD9585532
_publ_section_title
;
Structure prediction by ZEFSAII (Michael W. Deem and Ramdas Pophale) SiO2 
 PCOD9585532
Probable space group: P -6 M 2
;
_chemical_formula_sum "Si O2"
_cell_formula_units_Z 66
_cell_length_a 17.877130
_cell_length_b 17.877130
_cell_length_c 15.855171
_cell_angle_alpha 90.000000
_cell_angle_beta 90.000000
_cell_angle_gamma 120.000000
_cell_volume 4388.308576
_symmetry_space_group_name_H-M "P -6 M 2"
_symmetry_group_IT_number 187
_symmetry_cell_setting 'hexagonal'
loop_
_space_group_symop_operation_xyz
x,y,z
-x+y,-x,-z
-y,x-y,z
x,y,-z
-x+y,-x,z
-y,x-y,-z
-y,-x,-z
-x+y,y,-z
x,x-y,-z
-x+y,y,z
x,x-y,z
-y,-x,z
loop_
_atom_site_type_symbol
_atom_site_label
_atom_site_fract_x
_atom_site_fract_y
_atom_site_fract_z
Si Si1 0.998733 0.171292 0.601530
Si Si2 0.094815 0.365696 0.661102
Si Si3 0.666947 0.510404 0.902387
Si Si4 0.489587 0.333717 0.404673
Si Si5 0.154163 0.487303 0.500000
Si Si6 0.603195 0.573788 0.247384
O O1 0.996244 0.177081 0.500000
O O2 0.905829 0.094172 0.629931
O O3 0.074879 0.149758 0.620947
O O4 0.029563 0.265886 0.637352
O O5 0.186543 0.373085 0.677862
O O6 0.109008 0.428383 0.581946
O O7 0.056219 0.392473 0.738163
O O8 0.756162 0.512324 0.886186
O O9 0.587289 0.412712 0.891798
O O10 0.651014 0.567342 0.835193
O O11 0.665986 0.534900 0.000000
O O12 0.458327 0.336230 0.500000
O O13 0.483892 0.241946 0.393289
O O14 0.589208 0.410792 0.400464
O O15 0.441446 0.353325 0.330637
O O16 0.253452 0.506904 0.500000
O O17 0.149344 0.574672 0.500000
O O18 0.505819 0.494182 0.244305
#
# Coordination Sequence:
#
# PCOD9585532 Si02
#       6
#    12  12  12  12   6  12
#     4   9  16  27  42  60  82 111 148 187 226 266
#     4  10  20  33  46  63  88 118 152 192 239 282
#     4   9  17  30  49  73 101 131 162 193 224 261
#     4   9  17  27  39  58  89 128 164 189 211 250
#     4  10  19  32  49  66  86 116 156 198 235 276
#     4  10  20  31  45  66  89 118 153 191 236 278
#
# _framework density 15.039963
#
# number of rings (size 3 to 8) (size 9 to 14) (size 15 to 20)
#    0.000    2.545    0.909    1.727    1.273    3.636 
#    0.000    3.636    0.000    0.909    0.000    0.000 
#    0.000    0.000    0.000    0.000    0.000    0.000 
#
# Total GULP energy -368058.619497 kJ/mol
# GULP energy per Si atom -5576.645750 kJ/mol
# Density = 1.500573 g / cm^3
# Si number density = 15.039963 Si / 1000 Ang^3
#
#
#
# Elastic Constant Matrix: (Units=GPa)
#
#
# Indices 1 2 3 4 5 6 
#
# 1 79.3221 52.6401 44.9705 0.0000 0.0001 0.0000
# 2 52.6401 79.3221 44.9705 0.0000 -0.0001 0.0000
# 3 44.9705 44.9705 67.2675 0.0000 0.0000 0.0000
# 4 0.0000 0.0000 0.0000 17.9303 0.0000 -0.0001
# 5 0.0001 -0.0001 0.0000 0.0000 17.9303 0.0000
# 6 0.0000 0.0000 0.0000 -0.0001 0.0000 13.3410
#
#
#
# Elastic Compliance Matrix: (Units=1/GPa)
#
#
# Indices 1 2 3 4 5 6 
#
# 1 0.025700 -0.011779 -0.009307 0.000000 0.000000 0.000000
# 2 -0.011779 0.025700 -0.009307 0.000000 0.000000 0.000000
# 3 -0.009307 -0.009307 0.027310 0.000000 0.000000 0.000000
# 4 0.000000 0.000000 0.000000 0.055771 0.000000 0.000000
# 5 0.000000 0.000000 0.000000 0.000000 0.055771 0.000000
# 6 0.000000 0.000000 0.000000 0.000000 0.000000 0.074957
#
#
# Mechanical properties :
#
#
# Convention : Reuss Voigt Hill
#
# Bulk Modulus (GPa) = 55.78784 56.78598 56.28691
# Shear Modulus (GPa) = 15.06171 15.39572 15.22872
#
# Velocity S-wave (km/s) = 3.16800 3.20293 3.18551
# Velocity P-wave (km/s) = 7.11022 7.17754 7.14396
#
# Compressibility (1/GPa) = 0.01792505
#
# Stress axis : x y z
#
# Youngs Moduli (GPa) = 38.91092 38.91092 36.61724
#
# Poissons Ratio (x) = 0.45832 0.34078
# Poissons Ratio (y) = 0.45832 0.34078
# Poissons Ratio (z) = 0.36213 0.36213
#
# Static dielectric constant tensor:
#      x y z
#    x 1.505050 0.000000 0.000000 
#    y 0.000000 1.505050 0.000000 
#    z 0.000000 0.000000 1.482400 
# 
# From -- ./inp_files/2470.got.cif
#   From: 2010.05.17/outbox.cif.g08.bks.cpg/sg187_2_cif.got.tgz:2470.got - 2010.05.20 12:09:04.
