data_PCOD9585484
_publ_section_title
;
Structure prediction by ZEFSAII (Michael W. Deem and Ramdas Pophale) SiO2 
 PCOD9585484
Probable space group: P -6 M 2
;
_chemical_formula_sum "Si O2"
_cell_formula_units_Z 90
_cell_length_a 18.911611
_cell_length_b 18.911611
_cell_length_c 16.920980
_cell_angle_alpha 90.000000
_cell_angle_beta 90.000000
_cell_angle_gamma 120.000000
_cell_volume 5240.988371
_symmetry_space_group_name_H-M "P -6 M 2"
_symmetry_group_IT_number 187
_symmetry_cell_setting 'hexagonal'
loop_
_space_group_symop_operation_xyz
x,y,z
-x+y,-x,-z
-y,x-y,z
x,y,-z
-x+y,-x,z
-y,x-y,-z
-y,-x,-z
-x+y,y,-z
x,x-y,-z
-x+y,y,z
x,x-y,z
-y,-x,z
loop_
_atom_site_type_symbol
_atom_site_label
_atom_site_fract_x
_atom_site_fract_y
_atom_site_fract_z
Si Si1 0.512511 0.178905 0.095337
Si Si2 0.991992 0.635601 0.091811
Si Si3 0.165420 0.999504 0.336364
Si Si4 0.152594 0.155349 0.000000
Si Si5 0.497027 0.666688 0.871723
Si Si6 0.969053 0.770049 0.161925
Si Si7 0.497683 0.831424 0.680861
Si Si8 0.661444 0.916537 0.409052
O O1 0.602813 0.205626 0.124437
O O2 0.483518 0.241759 0.123297
O O3 0.453428 0.083456 0.110508
O O4 0.516146 0.184870 0.000000
O O5 0.081882 0.647948 0.097070
O O6 0.979817 0.692098 0.154581
O O7 0.979452 0.654026 0.000000
O O8 0.075644 0.924357 0.356341
O O9 0.232689 0.983247 0.377690
O O10 0.171979 0.085990 0.355160
O O11 0.180311 0.997707 0.242356
O O12 0.181604 0.199090 0.916558
O O13 0.055970 0.111939 0.000000
O O14 0.183670 0.091835 0.000000
O O15 0.508270 0.754135 0.896329
O O16 0.407586 0.592415 0.893654
O O17 0.503058 0.667537 0.776122
O O18 0.874976 0.749951 0.156624
O O19 0.419733 0.839465 0.657220
O O20 0.484077 0.742039 0.658352
O O21 0.583140 0.898725 0.642899
O O22 0.650457 0.932094 0.500000
O O23 0.663059 0.831530 0.405400
#
# Coordination Sequence:
#
# PCOD9585484 Si02
#       8
#    12  12  12   6  12  12  12  12
#     4   9  17  29  47  68  91 117 148 190 242 301
#     4  11  21  33  48  69  93 126 164 209 253 312
#     4  10  20  34  52  72  96 130 173 217 258 303
#     4  10  19  30  44  62  87 118 154 198 250 304
#     4  10  21  36  52  69  92 125 167 212 256 298
#     4  10  20  33  48  68  95 126 160 205 260 308
#     4   9  17  31  52  76 102 132 165 200 240 293
#     4   9  18  32  49  72 103 133 160 197 245 292
#
# _framework density 17.172333999999999
#
# number of rings (size 3 to 8) (size 9 to 14) (size 15 to 20)
#    0.000    2.267    0.667    2.600    0.000    5.867 
#    0.000    1.333    0.000    2.400    0.000    0.000 
#    0.000    0.000    0.000    0.400    0.000    1.733 
#
# Total GULP energy -501193.761325 kJ/mol
# GULP energy per Si atom -5568.819570 kJ/mol
# Density = 1.713325 g / cm^3
# Si number density = 17.172334 Si / 1000 Ang^3
#
#
#
# Elastic Constant Matrix: (Units=GPa)
#
#
# Indices 1 2 3 4 5 6 
#
# 1 99.5380 48.9354 13.7422 0.0000 0.0002 0.0000
# 2 48.9354 99.5380 13.7422 0.0000 -0.0002 0.0000
# 3 13.7422 13.7422 32.5021 0.0000 0.0000 0.0000
# 4 0.0000 0.0000 0.0000 15.7205 0.0000 -0.0002
# 5 0.0002 -0.0002 0.0000 0.0000 15.7205 0.0000
# 6 0.0000 0.0000 0.0000 -0.0002 0.0000 25.3013
#
#
#
# Elastic Compliance Matrix: (Units=1/GPa)
#
#
# Indices 1 2 3 4 5 6 
#
# 1 0.013534 -0.006227 -0.003090 0.000000 0.000000 0.000000
# 2 -0.006227 0.013534 -0.003090 0.000000 0.000000 0.000000
# 3 -0.003090 -0.003090 0.033380 0.000000 0.000000 0.000000
# 4 0.000000 0.000000 0.000000 0.063611 0.000000 0.000000
# 5 0.000000 0.000000 0.000000 0.000000 0.063611 0.000000
# 6 0.000000 0.000000 0.000000 0.000000 0.000000 0.039524
#
#
# Mechanical properties :
#
#
# Convention : Reuss Voigt Hill
#
# Bulk Modulus (GPa) = 28.06154 42.71310 35.38732
# Shear Modulus (GPa) = 18.94753 21.69233 20.31993
#
# Velocity S-wave (km/s) = 3.32531 3.55803 3.44364
# Velocity P-wave (km/s) = 5.57855 6.46580 6.03849
#
# Compressibility (1/GPa) = 0.03563597
#
# Stress axis : x y z
#
# Youngs Moduli (GPa) = 73.88537 73.88537 29.95820
#
# Poissons Ratio (x) = 0.46011 0.09256
# Poissons Ratio (y) = 0.46011 0.09256
# Poissons Ratio (z) = 0.22827 0.22827
#
# Static dielectric constant tensor:
#      x y z
#    x 1.599850 0.000000 0.000000 
#    y 0.000000 1.599850 0.000000 
#    z 0.000000 0.000000 1.586160 
# 
# From -- ./inp_files/3249.got.cif
#   From: 2010.05.17/outbox.cif.g08.bks.cpg/sg187_2_cif.got.tgz:3249.got - 2010.05.20 12:09:04.
