data_PCOD9585721
_publ_section_title
;
Structure prediction by ZEFSAII (Michael W. Deem and Ramdas Pophale) SiO2 
 PCOD9585721
Probable space group: P -6 M 2
;
_chemical_formula_sum "Si O2"
_cell_formula_units_Z 72
_cell_length_a 12.664995
_cell_length_b 12.664995
_cell_length_c 31.322457
_cell_angle_alpha 90.000000
_cell_angle_beta 90.000000
_cell_angle_gamma 120.000000
_cell_volume 4351.074293
_symmetry_space_group_name_H-M "P -6 M 2"
_symmetry_group_IT_number 187
_symmetry_cell_setting 'hexagonal'
loop_
_space_group_symop_operation_xyz
x,y,z
-x+y,-x,-z
-y,x-y,z
x,y,-z
-x+y,-x,z
-y,x-y,-z
-y,-x,-z
-x+y,y,-z
x,x-y,-z
-x+y,y,z
x,x-y,z
-y,-x,z
loop_
_atom_site_type_symbol
_atom_site_label
_atom_site_fract_x
_atom_site_fract_y
_atom_site_fract_z
Si Si1 0.666254 0.583762 0.500000
Si Si2 0.251124 0.251153 0.333345
Si Si3 0.082265 0.666952 0.000000
Si Si4 0.917785 0.333436 0.249904
Si Si5 0.082157 0.415293 0.583115
Si Si6 0.250533 0.999517 0.083020
Si Si7 0.584403 0.666533 0.833681
O O1 0.556371 0.443630 0.500000
O O2 0.795487 0.590974 0.500000
O O3 0.647484 0.645533 0.541985
O O4 0.239434 0.119717 0.339273
O O5 0.333647 0.311780 0.291688
O O6 0.311967 0.334610 0.374795
O O7 0.119117 0.238233 0.327575
O O8 0.019904 0.685103 0.958086
O O9 0.222247 0.777754 0.000000
O O10 0.077200 0.538600 0.000000
O O11 0.903628 0.451814 0.255666
O O12 0.786921 0.213080 0.243680
O O13 0.002306 0.357265 0.208663
O O14 0.213770 0.427539 0.577036
O O15 0.094976 0.547488 0.588029
O O16 0.110197 0.889804 0.081913
O O17 0.309511 0.980537 0.125711
O O18 0.257595 0.128798 0.082331
O O19 0.569564 0.784782 0.828721
O O20 0.453723 0.546278 0.840555
#
# Coordination Sequence:
#
# PCOD9585721 Si02
#       7
#     6  12   6  12  12  12  12
#     4  10  20  34  52  74 100 130 164 202 244 290
#     4  10  20  34  52  74 101 133 169 209 253 300
#     4  10  20  34  54  78 104 134 168 208 252 298
#     4  10  20  34  52  74 101 133 169 208 251 300
#     4  10  20  34  53  76 102 132 166 205 249 297
#     4  10  20  34  53  76 102 132 166 205 248 294
#     4  10  20  34  53  76 102 132 166 206 251 299
#
# _framework density 16.547637000000002
#
# number of rings (size 3 to 8) (size 9 to 14) (size 15 to 20)
#    0.000    2.000    0.000    4.000    0.000    0.000 
#    0.000    3.333    0.000   24.000    0.000    0.000 
#    0.000    0.000    0.000    0.000    0.000    0.000 
#
# Total GULP energy -402023.440634 kJ/mol
# GULP energy per Si atom -5583.658898 kJ/mol
# Density = 1.650997 g / cm^3
# Si number density = 16.547637 Si / 1000 Ang^3
#
#
#
# Elastic Constant Matrix: (Units=GPa)
#
#
# Indices 1 2 3 4 5 6 
#
# 1 148.3798 109.6481 108.3243 0.0000 0.0000 0.0000
# 2 109.6481 148.3798 108.3243 0.0000 0.0000 0.0000
# 3 108.3243 108.3243 159.7273 0.0000 0.0000 0.0000
# 4 0.0000 0.0000 0.0000 23.2137 0.0000 0.0000
# 5 0.0000 0.0000 0.0000 0.0000 23.2137 0.0000
# 6 0.0000 0.0000 0.0000 0.0000 0.0000 19.3659
#
#
#
# Elastic Compliance Matrix: (Units=1/GPa)
#
#
# Indices 1 2 3 4 5 6 
#
# 1 0.017410 -0.008409 -0.006104 0.000000 0.000000 0.000000
# 2 -0.008409 0.017410 -0.006104 0.000000 0.000000 0.000000
# 3 -0.006104 -0.006104 0.014540 0.000000 0.000000 0.000000
# 4 0.000000 0.000000 0.000000 0.043078 0.000000 0.000000
# 5 0.000000 0.000000 0.000000 0.000000 0.043078 0.000000
# 6 0.000000 0.000000 0.000000 0.000000 0.000000 0.051637
#
#
# Mechanical properties :
#
#
# Convention : Reuss Voigt Hill
#
# Bulk Modulus (GPa) = 123.07631 123.23116 123.15373
# Shear Modulus (GPa) = 21.63602 21.83799 21.73700
#
# Velocity S-wave (km/s) = 3.61986 3.63671 3.62830
# Velocity P-wave (km/s) = 9.59216 9.60554 9.59886
#
# Compressibility (1/GPa) = 0.00812504
#
# Stress axis : x y z
#
# Youngs Moduli (GPa) = 57.43908 57.43908 68.77460
#
# Poissons Ratio (x) = 0.48300 0.41982
# Poissons Ratio (y) = 0.48300 0.41982
# Poissons Ratio (z) = 0.35062 0.35062
#
# Static dielectric constant tensor:
#      x y z
#    x 1.523590 0.000000 0.000000 
#    y 0.000000 1.523590 0.000000 
#    z 0.000000 0.000000 1.534940 
# 
# From -- ./inp_files/4546.got.cif
#   From: 2010.05.17/outbox.cif.g08.bks.cpg/sg187_3_cif.got.tgz:4546.got - 2010.05.20 12:09:04.
