data_PCOD9585581
_publ_section_title
;
Structure prediction by ZEFSAII (Michael W. Deem and Ramdas Pophale) SiO2 
 PCOD9585581
Probable space group: P -6 M 2
;
_chemical_formula_sum "Si O2"
_cell_formula_units_Z 60
_cell_length_a 12.875099
_cell_length_b 12.875099
_cell_length_c 26.023749
_cell_angle_alpha 90.000000
_cell_angle_beta 90.000000
_cell_angle_gamma 120.000000
_cell_volume 3735.955095
_symmetry_space_group_name_H-M "P -6 M 2"
_symmetry_group_IT_number 187
_symmetry_cell_setting 'hexagonal'
loop_
_space_group_symop_operation_xyz
x,y,z
-x+y,-x,-z
-y,x-y,z
x,y,-z
-x+y,-x,z
-y,x-y,-z
-y,-x,-z
-x+y,y,-z
x,x-y,-z
-x+y,y,z
x,x-y,z
-y,-x,z
loop_
_atom_site_type_symbol
_atom_site_label
_atom_site_fract_x
_atom_site_fract_y
_atom_site_fract_z
Si Si1 0.579706 0.667147 0.194804
Si Si2 0.912885 0.580489 0.000000
Si Si3 0.666891 0.088288 0.710891
Si Si4 0.000264 0.247439 0.097399
Si Si5 0.912385 0.578751 0.593553
Si Si6 0.753399 0.754020 0.500000
O O1 0.557124 0.778562 0.199474
O O2 0.455736 0.544265 0.185028
O O3 0.635986 0.649035 0.246954
O O4 0.672426 0.696877 0.148172
O O5 0.973479 0.662905 0.049896
O O6 0.773841 0.547682 0.000000
O O7 0.922983 0.461492 0.000000
O O8 0.559875 0.119750 0.713023
O O9 0.793380 0.206621 0.721474
O O10 0.668129 0.048283 0.652249
O O11 0.118825 0.237649 0.087781
O O12 0.883917 0.116084 0.103623
O O13 0.775379 0.550757 0.589744
O O14 0.917104 0.458552 0.584442
O O15 0.986042 0.676356 0.550634
O O16 0.752623 0.876312 0.500000
O O17 0.888500 0.776999 0.500000
#
# Coordination Sequence:
#
# PCOD9585581 Si02
#       6
#    12   6  12  12  12   6
#     4  10  20  33  49  69  96 131 168 203 237 279
#     4  10  20  34  52  74 100 128 158 192 232 280
#     4   9  17  30  49  73  98 122 151 191 241 291
#     4  10  20  34  53  75  99 127 160 201 246 290
#     4   9  17  30  50  74  96 118 148 192 243 289
#     4  10  20  32  46  64  90 124 158 190 224 270
#
# _framework density 16.060151000000001
#
# number of rings (size 3 to 8) (size 9 to 14) (size 15 to 20)
#    0.000    2.400    0.000    2.800    0.000    2.400 
#    0.000    2.000    0.000   11.200    0.000    0.000 
#    0.000    0.000    0.000    0.000    0.000    0.000 
#
# Total GULP energy -334649.988048 kJ/mol
# GULP energy per Si atom -5577.499801 kJ/mol
# Density = 1.602360 g / cm^3
# Si number density = 16.060151 Si / 1000 Ang^3
#
#
#
# Elastic Constant Matrix: (Units=GPa)
#
#
# Indices 1 2 3 4 5 6 
#
# 1 116.3677 78.0391 85.5968 0.0000 0.0001 0.0000
# 2 78.0391 116.3677 85.5968 0.0000 -0.0001 0.0000
# 3 85.5968 85.5968 130.7802 0.0000 0.0000 0.0000
# 4 0.0000 0.0000 0.0000 22.8421 0.0000 -0.0001
# 5 0.0001 -0.0001 0.0000 0.0000 22.8421 0.0000
# 6 0.0000 0.0000 0.0000 -0.0001 0.0000 19.1643
#
#
#
# Elastic Compliance Matrix: (Units=1/GPa)
#
#
# Indices 1 2 3 4 5 6 
#
# 1 0.019116 -0.006974 -0.007947 0.000000 0.000000 0.000000
# 2 -0.006974 0.019116 -0.007947 0.000000 0.000000 0.000000
# 3 -0.007947 -0.007947 0.018049 0.000000 0.000000 0.000000
# 4 0.000000 0.000000 0.000000 0.043779 0.000000 0.000000
# 5 0.000000 0.000000 0.000000 0.000000 0.043779 0.000000
# 6 0.000000 0.000000 0.000000 0.000000 0.000000 0.052180
#
#
# Mechanical properties :
#
#
# Convention : Reuss Voigt Hill
#
# Bulk Modulus (GPa) = 94.83126 95.77565 95.30346
# Shear Modulus (GPa) = 20.38564 20.58855 20.48709
#
# Velocity S-wave (km/s) = 3.56663 3.58434 3.57550
# Velocity P-wave (km/s) = 8.72565 8.76898 8.74734
#
# Compressibility (1/GPa) = 0.01054505
#
# Stress axis : x y z
#
# Youngs Moduli (GPa) = 52.31205 52.31205 55.40408
#
# Poissons Ratio (x) = 0.36483 0.44030
# Poissons Ratio (y) = 0.36483 0.44030
# Poissons Ratio (z) = 0.41572 0.41572
#
# Static dielectric constant tensor:
#      x y z
#    x 1.506900 0.000000 0.000000 
#    y 0.000000 1.506900 0.000000 
#    z 0.000000 0.000000 1.535480 
# 
# From -- ./inp_files/4156.got.cif
#   From: 2010.05.17/outbox.cif.g08.bks.cpg/sg187_3_cif.got.tgz:4156.got - 2010.05.20 12:09:04.
