data_PCOD9585430
_publ_section_title
;
Structure prediction by ZEFSAII (Michael W. Deem and Ramdas Pophale) SiO2 
 PCOD9585430
Probable space group: P -6 M 2
;
_chemical_formula_sum "Si O2"
_cell_formula_units_Z 96
_cell_length_a 17.545597
_cell_length_b 17.545597
_cell_length_c 24.287555
_cell_angle_alpha 90.000000
_cell_angle_beta 90.000000
_cell_angle_gamma 120.000000
_cell_volume 6475.163346
_symmetry_space_group_name_H-M "P -6 M 2"
_symmetry_group_IT_number 187
_symmetry_cell_setting 'hexagonal'
loop_
_space_group_symop_operation_xyz
x,y,z
-x+y,-x,-z
-y,x-y,z
x,y,-z
-x+y,-x,z
-y,x-y,-z
-y,-x,-z
-x+y,y,-z
x,x-y,-z
-x+y,y,z
x,x-y,z
-y,-x,z
loop_
_atom_site_type_symbol
_atom_site_label
_atom_site_fract_x
_atom_site_fract_y
_atom_site_fract_z
Si Si1 0.170377 0.000930 0.219264
Si Si2 0.273466 0.902516 0.234956
Si Si3 0.848640 0.332761 0.280557
Si Si4 0.959319 0.569705 0.169940
Si Si5 0.374739 0.096060 0.939161
Si Si6 0.825451 0.999621 0.086225
Si Si7 0.332753 0.846851 0.435512
Si Si8 0.028458 0.605449 0.337187
O O1 0.068353 0.931648 0.230706
O O2 0.227178 0.961392 0.243796
O O3 0.196212 0.098106 0.237188
O O4 0.180747 0.001448 0.152936
O O5 0.195664 0.804336 0.223289
O O6 0.328111 0.911776 0.289535
O O7 0.342853 0.950341 0.186125
O O8 0.832126 0.416063 0.284179
O O9 0.759128 0.240873 0.287789
O O10 0.891482 0.338935 0.220175
O O11 0.927035 0.351470 0.323520
O O12 0.973046 0.486523 0.169426
O O13 0.923102 0.580892 0.112080
O O14 0.384307 0.192154 0.932942
O O15 0.270034 0.027976 0.936143
O O16 0.407611 0.090879 0.000000
O O17 0.923472 0.076529 0.070783
O O18 0.809586 0.904793 0.069783
O O19 0.330821 0.867313 0.500000
O O20 0.414253 0.828505 0.428548
O O21 0.240906 0.759095 0.422052
O O22 0.353046 0.927925 0.395561
O O23 0.031472 0.515736 0.331175
#
# Coordination Sequence:
#
# PCOD9585430 Si02
#       8
#    12  12  12  12  12  12  12  12
#     4   9  16  25  40  62  88 116 142 169 201 241
#     4  10  18  28  44  64  88 117 145 176 214 258
#     4   9  17  29  47  68  89 113 145 185 227 271
#     4  10  20  33  48  65  84 109 142 182 226 271
#     4  10  20  32  46  64  86 111 140 175 215 263
#     4   9  16  27  42  63  89 116 142 166 197 240
#     4   9  16  27  45  68  94 124 157 190 222 260
#     4   9  18  30  43  65  94 122 150 183 226 269
#
# _framework density 14.82588
#
# number of rings (size 3 to 8) (size 9 to 14) (size 15 to 20)
#    0.000    2.625    1.250    2.375    0.000    4.000 
#    0.000    0.000    0.000    4.125    0.000    0.000 
#    0.000    1.000    0.000    0.000    0.000    3.375 
#
# Total GULP energy -534783.676680 kJ/mol
# GULP energy per Si atom -5570.663299 kJ/mol
# Density = 1.479214 g / cm^3
# Si number density = 14.825880 Si / 1000 Ang^3
#
#
#
# Elastic Constant Matrix: (Units=GPa)
#
#
# Indices 1 2 3 4 5 6 
#
# 1 71.5425 41.8692 39.3115 0.0000 -0.0003 0.0000
# 2 41.8692 71.5425 39.3115 0.0000 0.0003 0.0000
# 3 39.3115 39.3115 78.5535 0.0000 0.0000 0.0000
# 4 0.0000 0.0000 0.0000 14.3413 0.0000 0.0003
# 5 -0.0003 0.0003 0.0000 0.0000 14.3413 0.0000
# 6 0.0000 0.0000 0.0000 0.0003 0.0000 14.8367
#
#
#
# Elastic Compliance Matrix: (Units=1/GPa)
#
#
# Indices 1 2 3 4 5 6 
#
# 1 0.023601 -0.010099 -0.006757 0.000000 0.000001 0.000000
# 2 -0.010099 0.023601 -0.006757 0.000000 -0.000001 0.000000
# 3 -0.006757 -0.006757 0.019493 0.000000 0.000000 0.000000
# 4 0.000000 0.000000 0.000000 0.069729 0.000000 -0.000001
# 5 0.000001 -0.000001 0.000000 0.000000 0.069729 0.000000
# 6 0.000000 0.000000 0.000000 -0.000001 0.000000 0.067401
#
#
# Mechanical properties :
#
#
# Convention : Reuss Voigt Hill
#
# Bulk Modulus (GPa) = 51.36365 51.40256 51.38311
# Shear Modulus (GPa) = 15.27797 15.44692 15.36244
#
# Velocity S-wave (km/s) = 3.21361 3.23133 3.22248
# Velocity P-wave (km/s) = 6.96344 6.97625 6.96985
#
# Compressibility (1/GPa) = 0.01946902
#
# Stress axis : x y z
#
# Youngs Moduli (GPa) = 42.37119 42.37119 51.30066
#
# Poissons Ratio (x) = 0.42792 0.34663
# Poissons Ratio (y) = 0.42792 0.34663
# Poissons Ratio (z) = 0.28629 0.28629
#
# Static dielectric constant tensor:
#      x y z
#    x 1.492670 0.000000 0.000000 
#    y 0.000000 1.492670 0.000000 
#    z 0.000000 0.000000 1.498530 
# 
# From -- ./inp_files/4063.got.cif
#   From: 2010.05.17/outbox.cif.g08.bks.cpg/sg187_3_cif.got.tgz:4063.got - 2010.05.20 12:09:04.
