data_PCOD9585551
_publ_section_title
;
Structure prediction by ZEFSAII (Michael W. Deem and Ramdas Pophale) SiO2 
 PCOD9585551
Probable space group: P -6 M 2
;
_chemical_formula_sum "Si O2"
_cell_formula_units_Z 60
_cell_length_a 21.718421
_cell_length_b 21.718421
_cell_length_c 9.094027
_cell_angle_alpha 90.000000
_cell_angle_beta 90.000000
_cell_angle_gamma 120.000000
_cell_volume 3714.867822
_symmetry_space_group_name_H-M "P -6 M 2"
_symmetry_group_IT_number 187
_symmetry_cell_setting 'hexagonal'
loop_
_space_group_symop_operation_xyz
x,y,z
-x+y,-x,-z
-y,x-y,z
x,y,-z
-x+y,-x,z
-y,x-y,-z
-y,-x,-z
-x+y,y,-z
x,x-y,-z
-x+y,y,z
x,x-y,z
-y,-x,z
loop_
_atom_site_type_symbol
_atom_site_label
_atom_site_fract_x
_atom_site_fract_y
_atom_site_fract_z
Si Si1 0.551843 0.959418 0.325102
Si Si2 0.828614 0.171387 0.668928
Si Si3 0.190128 0.522797 0.826169
Si Si4 0.038632 0.824115 0.823723
Si Si5 0.701784 0.658364 0.823621
Si Si6 0.914861 0.085140 0.667652
O O1 0.562865 0.963513 0.500000
O O2 0.486757 0.973513 0.292975
O O3 0.525436 0.879922 0.267062
O O4 0.623925 0.012261 0.242559
O O5 0.816243 0.183758 0.500000
O O6 0.880406 0.243538 0.754199
O O7 0.871725 0.128276 0.666212
O O8 0.257443 0.514886 0.786637
O O9 0.208463 0.604232 0.807431
O O10 0.174576 0.505723 0.000000
O O11 0.119981 0.880020 0.784302
O O12 0.009651 0.741902 0.783466
O O13 0.987346 0.849100 0.750349
O O14 0.031578 0.825510 0.000000
O O15 0.701441 0.653672 0.000000
O O16 0.927645 0.072356 0.500000
#
# Coordination Sequence:
#
# PCOD9585551 Si02
#       6
#    12   6  12  12  12   6
#     4  10  21  35  49  69 100 134 165 200 247 301
#     4   9  17  31  51  73  97 123 151 187 235 287
#     4   9  17  30  48  68  91 124 169 218 263 305
#     4   9  18  32  48  66  90 123 162 201 244 292
#     4  10  19  32  52  75  98 125 161 204 244 287
#     4   9  17  29  45  65  89 117 151 195 241 281
#
# _framework density 16.151315
#
# number of rings (size 3 to 8) (size 9 to 14) (size 15 to 20)
#    0.000    2.600    0.000    2.000    0.000    6.800 
#    0.600    2.000    0.000    1.200    0.000    0.000 
#    1.000    0.000    1.800    0.000    1.800    0.000 
#
# Total GULP energy -334537.484382 kJ/mol
# GULP energy per Si atom -5575.624740 kJ/mol
# Density = 1.611455 g / cm^3
# Si number density = 16.151315 Si / 1000 Ang^3
#
#
#
# Elastic Constant Matrix: (Units=GPa)
#
#
# Indices 1 2 3 4 5 6 
#
# 1 87.3636 65.4824 56.4919 0.0000 0.0001 0.0000
# 2 65.4824 87.3636 56.4919 0.0000 -0.0001 0.0000
# 3 56.4919 56.4919 67.9277 0.0000 0.0000 0.0000
# 4 0.0000 0.0000 0.0000 22.7492 0.0000 -0.0001
# 5 0.0001 -0.0001 0.0000 0.0000 22.7492 0.0000
# 6 0.0000 0.0000 0.0000 -0.0001 0.0000 10.9406
#
#
#
# Elastic Compliance Matrix: (Units=1/GPa)
#
#
# Indices 1 2 3 4 5 6 
#
# 1 0.031342 -0.014359 -0.014124 0.000000 0.000000 0.000000
# 2 -0.014359 0.031342 -0.014124 0.000000 0.000000 0.000000
# 3 -0.014124 -0.014124 0.038213 0.000000 0.000000 0.000000
# 4 0.000000 0.000000 0.000000 0.043958 0.000000 0.000001
# 5 0.000000 0.000000 0.000000 0.000000 0.043958 0.000000
# 6 0.000000 0.000000 0.000000 0.000001 0.000000 0.091403
#
#
# Mechanical properties :
#
#
# Convention : Reuss Voigt Hill
#
# Bulk Modulus (GPa) = 63.75838 66.62077 65.18958
# Shear Modulus (GPa) = 13.48958 15.56705 14.52831
#
# Velocity S-wave (km/s) = 2.89312 3.10792 3.00244
# Velocity P-wave (km/s) = 7.12190 7.36318 7.24354
#
# Compressibility (1/GPa) = 0.01568421
#
# Stress axis : x y z
#
# Youngs Moduli (GPa) = 31.90602 31.90602 26.16884
#
# Poissons Ratio (x) = 0.45815 0.36960
# Poissons Ratio (y) = 0.45815 0.36960
# Poissons Ratio (z) = 0.45063 0.45063
#
# Static dielectric constant tensor:
#      x y z
#    x 1.527350 0.000000 0.000000 
#    y 0.000000 1.527350 0.000000 
#    z 0.000000 0.000000 1.540930 
# 
# From -- ./inp_files/671.got.cif
#   From: 2010.05.17/outbox.cif.g08.bks.cpg/sg187_1_cif.got.tgz:671.got - 2010.05.20 12:09:04.
