data_PCOD9585910
_publ_section_title
;
Structure prediction by ZEFSAII (Michael W. Deem and Ramdas Pophale) SiO2 
 PCOD9585910
Probable space group: P -6 C 2
;
_chemical_formula_sum "Si O2"
_cell_formula_units_Z 70
_cell_length_a 15.576994
_cell_length_b 15.576994
_cell_length_c 15.385595
_cell_angle_alpha 90.000000
_cell_angle_beta 90.000000
_cell_angle_gamma 120.000000
_cell_volume 3233.048600
_symmetry_space_group_name_H-M "P -6 C 2"
_symmetry_group_IT_number 188
_symmetry_cell_setting 'hexagonal'
loop_
_space_group_symop_operation_xyz
x,y,z
-x+y,-x,1/2-z
-y,x-y,z
x,y,1/2-z
-x+y,-x,z
-y,x-y,1/2-z
-y,-x,-z
-x+y,y,-z
x,x-y,-z
-x+y,y,1/2+z
x,x-y,1/2+z
-y,-x,1/2+z
loop_
_atom_site_type_symbol
_atom_site_label
_atom_site_fract_x
_atom_site_fract_y
_atom_site_fract_z
Si Si1 0.122434 0.905722 0.145466
Si Si2 0.782573 0.680968 0.416320
Si Si3 0.450787 0.679916 0.750000
Si Si4 0.786633 0.218479 0.750000
Si Si5 0.000000 0.000000 0.855822
Si Si6 0.548128 0.453943 0.250000
Si Si7 0.429912 0.981984 0.417006
Si Si8 0.568983 0.790197 0.596105
O O1 0.120248 0.891429 0.250000
O O2 0.137287 0.821660 0.100595
O O3 0.031126 0.919878 0.117760
O O4 0.219432 0.008491 0.120266
O O5 0.849213 0.698425 0.500000
O O6 0.812213 0.634266 0.336565
O O7 0.666952 0.605984 0.439920
O O8 0.346233 0.582206 0.750000
O O9 0.512408 0.701803 0.663214
O O10 0.842631 0.336191 0.750000
O O11 0.667099 0.167660 0.750000
O O12 0.000000 0.000000 0.750000
O O13 0.522793 0.496041 0.164175
O O14 0.481617 0.963233 0.500000
O O15 0.327723 0.886487 0.385002
O O16 0.527813 0.763907 0.500000
#
# Coordination Sequence:
#
# PCOD9585910 Si02
#       8
#    12  12   6   6   4   6  12  12
#     4  10  20  42  65  90 129 168 205 255 314 375
#     4  10  20  35  59  86 121 164 205 254 314 371
#     4  10  25  42  68  92 120 168 209 258 320 380
#     4  10  19  34  58  82 118 160 212 259 308 376
#     4   9  21  36  67  95 121 166 209 253 304 377
#     4  10  20  36  58  86 118 166 209 259 316 370
#     4  10  22  37  58  85 125 162 204 261 318 374
#     4  11  24  42  67  94 127 165 210 265 322 381
#
# _framework density 21.651392000000001
#
# number of rings (size 3 to 8) (size 9 to 14) (size 15 to 20)
#    0.171    1.714    1.714    1.714    4.800    2.743 
#    0.000    0.857    0.000    5.486    0.000    0.000 
#    0.000    0.000    0.000    0.000    0.000    0.000 
#
# Total GULP energy -391233.633590 kJ/mol
# GULP energy per Si atom -5589.051908 kJ/mol
# Density = 2.160211 g / cm^3
# Si number density = 21.651392 Si / 1000 Ang^3
#
#
#
# Elastic Constant Matrix: (Units=GPa)
#
#
# Indices 1 2 3 4 5 6 
#
# 1 42.1358 -3.6720 2.1065 0.0000 0.0000 0.0000
# 2 -3.6720 42.1358 2.1065 0.0000 0.0000 0.0000
# 3 2.1065 2.1065 84.0436 0.0000 0.0000 0.0000
# 4 0.0000 0.0000 0.0000 17.5003 0.0000 0.0000
# 5 0.0000 0.0000 0.0000 0.0000 17.5003 0.0000
# 6 0.0000 0.0000 0.0000 0.0000 0.0000 22.9039
#
#
#
# Elastic Compliance Matrix: (Units=1/GPa)
#
#
# Indices 1 2 3 4 5 6 
#
# 1 0.023950 0.002120 -0.000653 0.000000 0.000000 0.000000
# 2 0.002120 0.023950 -0.000653 0.000000 0.000000 0.000000
# 3 -0.000653 -0.000653 0.011931 0.000000 0.000000 0.000000
# 4 0.000000 0.000000 0.000000 0.057142 0.000000 0.000000
# 5 0.000000 0.000000 0.000000 0.000000 0.057142 0.000000
# 6 0.000000 0.000000 0.000000 0.000000 0.000000 0.043661
#
#
# Mechanical properties :
#
#
# Convention : Reuss Voigt Hill
#
# Bulk Modulus (GPa) = 16.27136 18.82191 17.54664
# Shear Modulus (GPa) = 21.12951 22.76586 21.94769
#
# Velocity S-wave (km/s) = 3.12732 3.24616 3.18730
# Velocity P-wave (km/s) = 4.53560 4.77097 4.65477
#
# Compressibility (1/GPa) = 0.06145768
#
# Stress axis : x y z
#
# Youngs Moduli (GPa) = 41.75333 41.75333 83.81284
#
# Poissons Ratio (x) = -0.08851 0.05477
# Poissons Ratio (y) = -0.08851 0.05477
# Poissons Ratio (z) = 0.02728 0.02728
#
# Static dielectric constant tensor:
#      x y z
#    x 1.794340 0.000000 0.000000 
#    y 0.000000 1.794340 0.000000 
#    z 0.000000 0.000000 1.848400 
# 
# From -- ./inp_files/3269.got.cif
#   From: 2010.05.17/outbox.cif.g08.bks.cpg/sg188_2_cif.got.tgz:3269.got - 2010.05.20 12:11:46.
