data_PCOD9585865
_publ_section_title
;
Structure prediction by ZEFSAII (Michael W. Deem and Ramdas Pophale) SiO2 
 PCOD9585865
Probable space group: P -6 C 2
;
_chemical_formula_sum "Si O2"
_cell_formula_units_Z 48
_cell_length_a 18.816540
_cell_length_b 18.816540
_cell_length_c 9.770093
_cell_angle_alpha 90.000000
_cell_angle_beta 90.000000
_cell_angle_gamma 120.000000
_cell_volume 2995.772746
_symmetry_space_group_name_H-M "P -6 C 2"
_symmetry_group_IT_number 188
_symmetry_cell_setting 'hexagonal'
loop_
_space_group_symop_operation_xyz
x,y,z
-x+y,-x,1/2-z
-y,x-y,z
x,y,1/2-z
-x+y,-x,z
-y,x-y,1/2-z
-y,-x,-z
-x+y,y,-z
x,x-y,-z
-x+y,y,1/2+z
x,x-y,1/2+z
-y,-x,1/2+z
loop_
_atom_site_type_symbol
_atom_site_label
_atom_site_fract_x
_atom_site_fract_y
_atom_site_fract_z
Si Si1 0.200411 0.184860 0.975380
Si Si2 0.512509 0.212845 0.250000
Si Si3 0.277951 0.241825 0.250000
Si Si4 0.578789 0.421212 0.500000
Si Si5 0.771085 0.674707 0.250000
Si Si6 0.890738 0.534001 0.250000
Si Si7 0.031411 0.105858 0.250000
O O1 0.280162 0.237130 0.881572
O O2 0.121167 0.158994 0.881221
O O3 0.195361 0.097681 0.000000
O O4 0.222914 0.230730 0.118523
O O5 0.557081 0.209487 0.390091
O O6 0.421725 0.133439 0.250000
O O7 0.493274 0.286761 0.250000
O O8 0.301668 0.168914 0.250000
O O9 0.368765 0.319863 0.250000
O O10 0.505973 0.402428 0.392790
O O11 0.084857 0.060844 0.250000
#
# Coordination Sequence:
#
# PCOD9585865 Si02
#       7
#    12   6   6   6   6   6   6
#     4   9  16  28  43  61  70  90 133 156 184 224
#     4  10  18  31  39  52  70  96 128 156 202 234
#     4   9  16  27  47  60  68  83 124 186 188 202
#     4  10  20  28  36  54  72  96 120 148 192 276
#     4   8  15  27  45  53  66  90 122 170 190 218
#     4  10  19  32  40  54  75  98 124 156 210 236
#     4   9  20  33  41  53  85 117 118 134 188 264
#
# _framework density 16.022576999999998
#
# number of rings (size 3 to 8) (size 9 to 14) (size 15 to 20)
#    0.250    2.500    0.000    3.000    0.000    5.000 
#   15.000    1.250    0.000    0.000    0.000    0.000 
#    0.000    0.000    0.000    0.000    0.000    0.000 
#
# Total GULP energy -267304.087029 kJ/mol
# GULP energy per Si atom -5568.835146 kJ/mol
# Density = 1.598611 g / cm^3
# Si number density = 16.022577 Si / 1000 Ang^3
#
#
#
# Elastic Constant Matrix: (Units=GPa)
#
#
# Indices 1 2 3 4 5 6 
#
# 1 53.5608 30.2665 45.3669 -0.0004 0.0000 0.0000
# 2 30.2665 53.5608 45.3669 0.0004 0.0000 0.0000
# 3 45.3669 45.3669 173.1629 0.0000 0.0000 0.0000
# 4 -0.0004 0.0004 0.0000 36.7912 0.0000 0.0000
# 5 0.0000 0.0000 0.0000 0.0000 36.7912 -0.0004
# 6 0.0000 0.0000 0.0000 0.0000 -0.0004 11.6472
#
#
#
# Elastic Compliance Matrix: (Units=1/GPa)
#
#
# Indices 1 2 3 4 5 6 
#
# 1 0.029790 -0.013139 -0.004362 0.000000 0.000000 0.000000
# 2 -0.013139 0.029790 -0.004362 0.000000 0.000000 0.000000
# 3 -0.004362 -0.004362 0.008061 0.000000 0.000000 0.000000
# 4 0.000000 0.000000 0.000000 0.027180 0.000000 0.000000
# 5 0.000000 0.000000 0.000000 0.000000 0.027180 0.000001
# 6 0.000000 0.000000 0.000000 0.000000 0.000001 0.085858
#
#
# Mechanical properties :
#
#
# Convention : Reuss Voigt Hill
#
# Bulk Modulus (GPa) = 41.81773 58.03166 49.92469
# Shear Modulus (GPa) = 19.26352 27.66486 23.46419
#
# Velocity S-wave (km/s) = 3.47114 4.15977 3.83096
# Velocity P-wave (km/s) = 6.49777 7.70512 7.12706
#
# Compressibility (1/GPa) = 0.02391330
#
# Stress axis : x y z
#
# Youngs Moduli (GPa) = 33.56828 33.56828 124.05823
#
# Poissons Ratio (x) = 0.44105 0.54119
# Poissons Ratio (y) = 0.44105 0.54119
# Poissons Ratio (z) = 0.14644 0.14644
#
# Static dielectric constant tensor:
#      x y z
#    x 1.555650 0.000000 0.000000 
#    y 0.000000 1.555650 0.000000 
#    z 0.000000 0.000000 1.594360 
# 
# From -- ./inp_files/561.got.cif
#   From: 2010.05.17/outbox.cif.g08.bks.cpg/sg188_1_cif.got.tgz:561.got - 2010.05.20 12:11:46.
