data_PCOD9585173
_publ_section_title
;
Structure prediction by ZEFSAII (Michael W. Deem and Ramdas Pophale) SiO2 
 PCOD9585173
Probable space group: P 6 C C
;
_chemical_formula_sum "Si O2"
_cell_formula_units_Z 78
_cell_length_a 20.785510
_cell_length_b 20.785510
_cell_length_c 8.668496
_cell_angle_alpha 90.000000
_cell_angle_beta 90.000000
_cell_angle_gamma 120.000000
_cell_volume 3243.364469
_symmetry_space_group_name_H-M "P 6 C C"
_symmetry_group_IT_number 184
_symmetry_cell_setting 'hexagonal'
loop_
_space_group_symop_operation_xyz
x,y,z
x-y,x,z
-y,x-y,z
-x,-y,z
-x+y,-x,z
y,-x+y,z
-x+y,y,1/2+z
x,x-y,1/2+z
-y,-x,1/2+z
y,x,1/2+z
x-y,-y,1/2+z
-x,-x+y,1/2+z
loop_
_atom_site_type_symbol
_atom_site_label
_atom_site_fract_x
_atom_site_fract_y
_atom_site_fract_z
Si Si1 0.503777 0.206856 0.553070
Si Si2 0.671741 0.572028 0.281794
Si Si3 0.908086 0.711464 0.713299
Si Si4 0.064506 0.426800 0.222980
Si Si5 0.375747 0.536848 0.022013
Si Si6 0.944005 0.719502 0.074283
Si Si7 0.000000 0.500000 0.489769
O O1 0.446930 0.155192 0.422180
O O2 0.473870 0.157415 0.713179
O O3 0.515846 0.288748 0.528308
O O4 0.578430 0.203879 0.516544
O O5 0.618687 0.605126 0.323415
O O6 0.622365 0.497745 0.186704
O O7 0.789506 0.716977 0.393638
O O8 0.737962 0.628529 0.170955
O O9 0.840143 0.721519 0.674908
O O10 0.977303 0.767178 0.612336
O O11 0.039787 0.468660 0.100096
O O12 0.053357 0.350982 0.140412
O O13 0.424293 0.504811 0.922147
#
# Coordination Sequence:
#
# PCOD9585173 Si02
#       7
#    12  12  12  12  12  12   6
#     4  11  21  41  63  92 128 175 239 294 381 450
#     4  10  22  39  61  91 132 179 229 298 372 453
#     4  11  23  41  69 102 145 186 242 298 378 444
#     4   9  19  39  62  88 130 171 235 291 367 449
#     4  10  22  39  61  91 130 172 231 308 363 472
#     4  11  22  41  67 103 142 190 236 303 366 455
#     4   8  18  40  60  86 130 180 232 304 374 458
#
# _framework density 24.049098999999998
#
# number of rings (size 3 to 8) (size 9 to 14) (size 15 to 20)
#    0.000    1.846    1.538    2.154    0.000    1.231 
#    2.769   33.846    0.000    0.308    0.000    2.154 
#    0.000    0.000    0.000    0.000    0.000    0.000 
#
# Total GULP energy -434219.222524 kJ/mol
# GULP energy per Si atom -5566.913109 kJ/mol
# Density = 2.399436 g / cm^3
# Si number density = 24.049099 Si / 1000 Ang^3
#
#
#
# Elastic Constant Matrix: (Units=GPa)
#
#
# Indices 1 2 3 4 5 6 
#
# 1 176.3146 73.3927 14.9562 0.0000 0.0000 0.0000
# 2 73.3927 176.3146 14.9562 0.0000 0.0000 0.0000
# 3 14.9562 14.9562 159.4472 0.0000 0.0000 0.0000
# 4 0.0000 0.0000 0.0000 56.2546 0.0000 0.0000
# 5 0.0000 0.0000 0.0000 0.0000 56.2546 0.0000
# 6 0.0000 0.0000 0.0000 0.0000 0.0000 51.4610
#
#
#
# Elastic Compliance Matrix: (Units=1/GPa)
#
#
# Indices 1 2 3 4 5 6 
#
# 1 0.006883 -0.002833 -0.000380 0.000000 0.000000 0.000000
# 2 -0.002833 0.006883 -0.000380 0.000000 0.000000 0.000000
# 3 -0.000380 -0.000380 0.006343 0.000000 0.000000 0.000000
# 4 0.000000 0.000000 0.000000 0.017776 0.000000 0.000000
# 5 0.000000 0.000000 0.000000 0.000000 0.017776 0.000000
# 6 0.000000 0.000000 0.000000 0.000000 0.000000 0.019432
#
#
# Mechanical properties :
#
#
# Convention : Reuss Voigt Hill
#
# Bulk Modulus (GPa) = 77.37723 79.85405 78.61564
# Shear Modulus (GPa) = 57.74504 60.04547 58.89526
#
# Velocity S-wave (km/s) = 4.90545 5.00221 4.95406
# Velocity P-wave (km/s) = 8.02054 8.16330 8.09224
#
# Compressibility (1/GPa) = 0.01292370
#
# Stress axis : x y z
#
# Youngs Moduli (GPa) = 145.28233 145.28233 157.65564
#
# Poissons Ratio (x) = 0.41158 0.05989
# Poissons Ratio (y) = 0.41158 0.05989
# Poissons Ratio (z) = 0.05519 0.05519
#
# Static dielectric constant tensor:
#      x y z
#    x 1.978590 0.000000 0.000000 
#    y 0.000000 1.978590 0.000000 
#    z 0.000000 0.000000 1.951010 
# 
# From -- ./inp_files/965.got.cif
#   From: 2010.05.17/outbox.cif.g08.bks.cpg/sg184_cif.got.tgz:965.got - 2010.05.20 12:04:40.
