data_PCOD9585822
_publ_section_title
;
Structure prediction by ZEFSAII (Michael W. Deem and Ramdas Pophale) SiO2 
 PCOD9585822
Probable space group: P -6 M 2
;
_chemical_formula_sum "Si O2"
_cell_formula_units_Z 96
_cell_length_a 18.000000
_cell_length_b 18.000000
_cell_length_c 24.000000
_cell_angle_alpha 90.000000
_cell_angle_beta 90.000000
_cell_angle_gamma 120.000000
_cell_volume 6734.213540
_symmetry_space_group_name_H-M "P -6 M 2"
_symmetry_group_IT_number 187
_symmetry_cell_setting 'hexagonal'
loop_
_space_group_symop_operation_xyz
x,y,z
-x+y,-x,-z
-y,x-y,z
x,y,-z
-x+y,-x,z
-y,x-y,-z
-y,-x,-z
-x+y,y,-z
x,x-y,-z
-x+y,y,z
x,x-y,z
-y,-x,z
loop_
_atom_site_type_symbol
_atom_site_label
_atom_site_fract_x
_atom_site_fract_y
_atom_site_fract_z
Si Si1 0.936463 0.240610 0.731849
Si Si2 0.665760 0.503087 0.092538
Si Si3 0.157347 0.666688 0.435128
Si Si4 0.937125 0.698971 0.063780
Si Si5 0.332707 0.487980 0.222504
Si Si6 0.242973 0.307474 0.833934
Si Si7 0.497680 0.163563 0.226509
Si Si8 0.097238 0.726175 0.331812
O O1 0.856997 0.143004 0.724297
O O2 0.892720 0.298589 0.744937
O O3 0.995996 0.252683 0.785609
O O4 0.006058 0.287946 0.682780
O O5 0.739263 0.478526 0.081175
O O6 0.573350 0.426651 0.074786
O O7 0.698907 0.596096 0.066792
O O8 0.663878 0.513582 0.159659
O O9 0.133347 0.667452 0.500000
O O10 0.152639 0.576320 0.424163
O O11 0.255424 0.744577 0.428652
O O12 0.102932 0.686372 0.390552
O O13 0.856700 0.713399 0.078537
O O14 0.013946 0.740100 0.108070
O O15 0.962728 0.727680 0.000000
O O16 0.254403 0.508806 0.218202
O O17 0.425818 0.574182 0.216334
O O18 0.309503 0.408867 0.179598
O O19 0.321503 0.441886 0.282666
O O20 0.148834 0.297667 0.831015
O O21 0.572169 0.144337 0.244248
O O22 0.525911 0.262956 0.236280
O O23 0.174918 0.825083 0.329944
#
# Coordination Sequence:
#
# PCOD9585822 Si02
#       8
#    12  12  12  12  12  12  12  12
#     4  10  18  30  48  66  87 116 146 178 222 271
#     4   9  16  27  42  63  89 116 142 166 196 238
#     4   9  16  26  42  66  98 134 166 191 216 251
#     4  10  20  34  50  65  83 108 138 173 216 266
#     4   9  17  28  44  66  93 123 151 179 210 250
#     4  10  20  33  48  67  87 109 139 176 222 271
#     4   9  16  25  40  62  88 116 142 169 200 240
#     4   9  18  30  43  64  92 121 152 189 230 268
#
# _framework density 14.255561999999999
#
# number of rings (size 3 to 8) (size 9 to 14) (size 15 to 20)
#    0.000    2.625    1.250    2.375    0.000    5.000 
#    0.000    1.250    0.000    5.625    0.000    0.000 
#    0.000    1.000    0.000    0.000    0.000    0.000 
#
# Total GULP energy -534859.830746 kJ/mol
# GULP energy per Si atom -5571.456570 kJ/mol
# Density = 1.422312 g / cm^3
# Si number density = 14.255562 Si / 1000 Ang^3
#
#
#
# Elastic Constant Matrix: (Units=GPa)
#
#
# Indices 1 2 3 4 5 6 
#
# 1 93.0470 52.1144 43.4281 0.0000 0.0000 0.0000
# 2 52.1144 93.0470 43.4281 0.0000 0.0000 0.0000
# 3 43.4281 43.4281 77.1841 0.0000 0.0000 0.0000
# 4 0.0000 0.0000 0.0000 19.1992 0.0000 0.0000
# 5 0.0000 0.0000 0.0000 0.0000 19.1992 0.0000
# 6 0.0000 0.0000 0.0000 0.0000 0.0000 20.4663
#
#
#
# Elastic Compliance Matrix: (Units=1/GPa)
#
#
# Indices 1 2 3 4 5 6 
#
# 1 0.017408 -0.007023 -0.005843 0.000000 0.000000 0.000000
# 2 -0.007023 0.017408 -0.005843 0.000000 0.000000 0.000000
# 3 -0.005843 -0.005843 0.019532 0.000000 0.000000 0.000000
# 4 0.000000 0.000000 0.000000 0.052086 0.000000 0.000000
# 5 0.000000 0.000000 0.000000 0.000000 0.052086 0.000000
# 6 0.000000 0.000000 0.000000 0.000000 0.000000 0.048861
#
#
# Mechanical properties :
#
#
# Convention : Reuss Voigt Hill
#
# Bulk Modulus (GPa) = 59.07101 60.13545 59.60323
# Shear Modulus (GPa) = 19.96484 20.06010 20.01247
#
# Velocity S-wave (km/s) = 3.74638 3.75531 3.75084
# Velocity P-wave (km/s) = 7.76150 7.81527 7.78844
#
# Compressibility (1/GPa) = 0.01692878
#
# Stress axis : x y z
#
# Youngs Moduli (GPa) = 57.44556 57.44556 51.19925
#
# Poissons Ratio (x) = 0.40342 0.29917
# Poissons Ratio (y) = 0.40342 0.29917
# Poissons Ratio (z) = 0.33567 0.33567
#
# Static dielectric constant tensor:
#      x y z
#    x 1.467880 0.000000 0.000000 
#    y 0.000000 1.467880 0.000000 
#    z 0.000000 0.000000 1.479490 
# 
# From -- ./inp_files/4072.got.cif
#   From: 2010.05.17/outbox.ucp.g08.bks.cvg/sg187_3_cif.got.tgz:4072.got - 2010.06.11 15:21:44.
