data_PCOD9585799
_publ_section_title
;
Structure prediction by ZEFSAII (Michael W. Deem and Ramdas Pophale) SiO2 
 PCOD9585799
Probable space group: P -6 M 2
;
_chemical_formula_sum "Si O2"
_cell_formula_units_Z 69
_cell_length_a 20.970503
_cell_length_b 20.970503
_cell_length_c 9.786275
_cell_angle_alpha 90.000000
_cell_angle_beta 90.000000
_cell_angle_gamma 120.000000
_cell_volume 3727.054492
_symmetry_space_group_name_H-M "P -6 M 2"
_symmetry_group_IT_number 187
_symmetry_cell_setting 'hexagonal'
loop_
_space_group_symop_operation_xyz
x,y,z
-x+y,-x,-z
-y,x-y,z
x,y,-z
-x+y,-x,z
-y,x-y,-z
-y,-x,-z
-x+y,y,-z
x,x-y,-z
-x+y,y,z
x,x-y,z
-y,-x,z
loop_
_atom_site_type_symbol
_atom_site_label
_atom_site_fract_x
_atom_site_fract_y
_atom_site_fract_z
Si Si1 0.663516 0.471858 0.500000
Si Si2 0.784394 0.815968 0.342364
Si Si3 0.543718 0.456283 0.000000
Si Si4 0.812958 0.187043 0.153523
Si Si5 0.065347 0.685361 0.662141
Si Si6 0.900924 0.801848 0.157214
Si Si7 0.333314 0.816749 0.838239
Si Si8 0.908416 0.353014 0.250216
O O1 0.615745 0.384256 0.500000
O O2 0.749256 0.498512 0.500000
O O3 0.641147 0.501101 0.369237
O O4 0.797170 0.800306 0.500000
O O5 0.785370 0.892685 0.341649
O O6 0.701807 0.752385 0.302972
O O7 0.847330 0.821548 0.242096
O O8 0.599771 0.511738 0.119720
O O9 0.856751 0.143250 0.150747
O O10 0.865435 0.265813 0.219572
O O11 0.797790 0.202211 0.000000
O O12 0.081501 0.690312 0.500000
O O13 0.129838 0.684405 0.748895
O O14 0.989967 0.611137 0.696504
O O15 0.914845 0.829690 0.000000
O O16 0.411929 0.823858 0.802999
O O17 0.266995 0.733006 0.821099
O O18 0.336162 0.835210 0.000000
#
# Coordination Sequence:
#
# PCOD9585799 Si02
#       8
#     6  12   3   6  12   6  12  12
#     4  12  25  42  64  90 123 162 214 270 328 386
#     4  10  22  42  66  93 131 171 212 261 318 387
#     4  12  28  40  64  88 136 176 204 264 332 394
#     4  11  22  40  66  94 127 164 215 267 320 385
#     4  11  24  40  64  98 130 164 208 268 323 377
#     4  11  23  39  65  99 127 166 215 268 317 380
#     4  10  23  42  66  92 126 169 215 257 307 376
#     4  12  24  41  65  94 127 166 211 268 326 385
#
# _framework density 18.513279000000001
#
# number of rings (size 3 to 8) (size 9 to 14) (size 15 to 20)
#    0.000    1.043    5.217    1.043    2.435    3.130 
#    2.087    0.000    0.000    1.043    0.000    0.000 
#    0.000    0.000    0.000    0.000    0.000    0.000 
#
# Total GULP energy -384455.335431 kJ/mol
# GULP energy per Si atom -5571.816456 kJ/mol
# Density = 1.847114 g / cm^3
# Si number density = 18.513279 Si / 1000 Ang^3
#
#
#
# Elastic Constant Matrix: (Units=GPa)
#
#
# Indices 1 2 3 4 5 6 
#
# 1 100.3235 43.1735 54.7003 0.0000 0.0000 0.0000
# 2 43.1735 100.3235 54.7003 0.0000 0.0000 0.0000
# 3 54.7003 54.7003 119.1376 0.0000 0.0000 0.0000
# 4 0.0000 0.0000 0.0000 28.1195 0.0000 0.0000
# 5 0.0000 0.0000 0.0000 0.0000 28.1195 0.0000
# 6 0.0000 0.0000 0.0000 0.0000 0.0000 28.5750
#
#
#
# Elastic Compliance Matrix: (Units=1/GPa)
#
#
# Indices 1 2 3 4 5 6 
#
# 1 0.014110 -0.003388 -0.004923 0.000000 0.000000 0.000000
# 2 -0.003388 0.014110 -0.004923 0.000000 0.000000 0.000000
# 3 -0.004923 -0.004923 0.012914 0.000000 0.000000 0.000000
# 4 0.000000 0.000000 0.000000 0.035563 0.000000 0.000000
# 5 0.000000 0.000000 0.000000 0.000000 0.035563 0.000000
# 6 0.000000 0.000000 0.000000 0.000000 0.000000 0.034996
#
#
# Mechanical properties :
#
#
# Convention : Reuss Voigt Hill
#
# Bulk Modulus (GPa) = 68.18173 69.43699 68.80936
# Shear Modulus (GPa) = 27.99385 28.11014 28.05200
#
# Velocity S-wave (km/s) = 3.89279 3.90086 3.89683
# Velocity P-wave (km/s) = 7.55735 7.60769 7.58256
#
# Compressibility (1/GPa) = 0.01466669
#
# Stress axis : x y z
#
# Youngs Moduli (GPa) = 70.87247 70.87247 77.43467
#
# Poissons Ratio (x) = 0.24011 0.38119
# Poissons Ratio (y) = 0.24011 0.38119
# Poissons Ratio (z) = 0.34889 0.34889
#
# Static dielectric constant tensor:
#      x y z
#    x 1.622170 0.000000 0.000000 
#    y 0.000000 1.622170 0.000000 
#    z 0.000000 0.000000 1.637830 
# 
# From -- ./inp_files/821.got.cif
#   From: 2010.05.17/outbox.cif.g08.bks.cpg/sg187_1_cif.got.tgz:821.got - 2010.05.20 12:09:04.
