data_PCOD9585562
_publ_section_title
;
Structure prediction by ZEFSAII (Michael W. Deem and Ramdas Pophale) SiO2 
 PCOD9585562
Probable space group: P -6 M 2
;
_chemical_formula_sum "Si O2"
_cell_formula_units_Z 90
_cell_length_a 17.932252
_cell_length_b 17.932252
_cell_length_c 17.242436
_cell_angle_alpha 90.000000
_cell_angle_beta 90.000000
_cell_angle_gamma 120.000000
_cell_volume 4801.743100
_symmetry_space_group_name_H-M "P -6 M 2"
_symmetry_group_IT_number 187
_symmetry_cell_setting 'hexagonal'
loop_
_space_group_symop_operation_xyz
x,y,z
-x+y,-x,-z
-y,x-y,z
x,y,-z
-x+y,-x,z
-y,x-y,-z
-y,-x,-z
-x+y,y,-z
x,x-y,-z
-x+y,y,z
x,x-y,z
-y,-x,z
loop_
_atom_site_type_symbol
_atom_site_label
_atom_site_fract_x
_atom_site_fract_y
_atom_site_fract_z
Si Si1 0.665462 0.499146 0.302419
Si Si2 0.000512 0.821883 0.000000
Si Si3 0.495837 0.162042 0.886086
Si Si4 0.689540 0.688134 0.880079
Si Si5 0.245633 0.932785 0.411786
Si Si6 0.159995 0.665569 0.332215
Si Si7 0.507321 0.666321 0.144917
Si Si8 0.934419 0.240661 0.709840
O O1 0.736921 0.473842 0.324946
O O2 0.571331 0.428670 0.329437
O O3 0.664505 0.500696 0.208206
O O4 0.700735 0.597350 0.324241
O O5 0.003491 0.766853 0.927319
O O6 0.083258 0.916743 0.000000
O O7 0.912224 0.824447 0.000000
O O8 0.575898 0.151796 0.912127
O O9 0.504972 0.252486 0.910439
O O10 0.402456 0.083163 0.906343
O O11 0.596770 0.680570 0.888769
O O12 0.717115 0.700007 0.789797
O O13 0.269206 0.962870 0.500000
O O14 0.153443 0.846558 0.411859
O O15 0.310481 0.904417 0.374622
O O16 0.243942 0.002068 0.354847
O O17 0.149343 0.574672 0.355824
O O18 0.256678 0.743323 0.348443
O O19 0.148679 0.663941 0.238879
O O20 0.494851 0.747426 0.126459
O O21 0.423883 0.576118 0.121782
O O22 0.852148 0.147853 0.726658
#
# Coordination Sequence:
#
# PCOD9585562 Si02
#       8
#    12   6  12  12  12  12  12  12
#     4   8  14  24  43  72 106 142 178 216 257 305
#     4  12  27  46  67  90 118 150 188 238 297 358
#     4   9  16  28  48  77 113 150 189 232 281 334
#     4  11  21  38  61  87 114 150 193 240 287 341
#     4  10  21  36  53  76 108 144 183 230 284 341
#     4   9  17  30  50  78 113 153 194 235 278 329
#     4  10  19  33  56  87 121 158 198 240 284 334
#     4  10  20  35  56  82 108 138 181 230 280 335
#
# _framework density 18.743193000000002
#
# number of rings (size 3 to 8) (size 9 to 14) (size 15 to 20)
#    0.000    2.267    1.333    3.400    0.000    4.267 
#    0.000    1.333    0.000    1.067    0.000    1.867 
#    0.000    1.067    0.000    0.000    0.000    0.000 
#
# Total GULP energy -502328.301394 kJ/mol
# GULP energy per Si atom -5581.425571 kJ/mol
# Density = 1.870053 g / cm^3
# Si number density = 18.743193 Si / 1000 Ang^3
#
#
#
# Elastic Constant Matrix: (Units=GPa)
#
#
# Indices 1 2 3 4 5 6 
#
# 1 111.8125 62.0029 26.5321 0.0000 -0.0004 0.0000
# 2 62.0029 111.8125 26.5321 0.0000 0.0004 0.0000
# 3 26.5321 26.5321 29.2534 0.0000 0.0000 0.0000
# 4 0.0000 0.0000 0.0000 3.5390 0.0000 0.0004
# 5 -0.0004 0.0004 0.0000 0.0000 3.5390 0.0000
# 6 0.0000 0.0000 0.0000 0.0004 0.0000 24.9048
#
#
#
# Elastic Compliance Matrix: (Units=1/GPa)
#
#
# Indices 1 2 3 4 5 6 
#
# 1 0.014016 -0.006060 -0.007216 0.000000 0.000003 0.000000
# 2 -0.006060 0.014016 -0.007216 0.000000 -0.000003 0.000000
# 3 -0.007216 -0.007216 0.047274 0.000000 0.000000 0.000000
# 4 0.000000 0.000000 0.000000 0.282562 0.000000 -0.000005
# 5 0.000003 -0.000003 0.000000 0.000000 0.282562 0.000000
# 6 0.000000 0.000000 0.000000 -0.000005 0.000000 0.040153
#
#
# Mechanical properties :
#
#
# Convention : Reuss Voigt Hill
#
# Bulk Modulus (GPa) = 29.13607 53.66807 41.40207
# Shear Modulus (GPa) = 6.82121 15.58401 11.20261
#
# Velocity S-wave (km/s) = 1.90976 2.88661 2.44742
# Velocity P-wave (km/s) = 4.52123 6.30917 5.48849
#
# Compressibility (1/GPa) = 0.03432172
#
# Stress axis : x y z
#
# Youngs Moduli (GPa) = 71.34532 71.34532 21.15344
#
# Poissons Ratio (x) = 0.43236 0.15265
# Poissons Ratio (y) = 0.43236 0.15265
# Poissons Ratio (z) = 0.51483 0.51483
#
# Static dielectric constant tensor:
#      x y z
#    x 1.637350 0.000000 0.000000 
#    y 0.000000 1.637350 0.000000 
#    z 0.000000 0.000000 1.662030 
# 
# From -- ./inp_files/3235.got.cif
#   From: 2010.05.17/outbox.cif.g08.bks.cpg/sg187_2_cif.got.tgz:3235.got - 2010.05.20 12:09:04.
