data_PCOD9585894
_publ_section_title
;
Structure prediction by ZEFSAII (Michael W. Deem and Ramdas Pophale) SiO2 
 PCOD9585894
Probable space group: P -6 C 2
;
_chemical_formula_sum "Si O2"
_cell_formula_units_Z 58
_cell_length_a 14.619064
_cell_length_b 14.619064
_cell_length_c 14.962258
_cell_angle_alpha 90.000000
_cell_angle_beta 90.000000
_cell_angle_gamma 120.000000
_cell_volume 2769.280232
_symmetry_space_group_name_H-M "P -6 C 2"
_symmetry_group_IT_number 188
_symmetry_cell_setting 'hexagonal'
loop_
_space_group_symop_operation_xyz
x,y,z
-x+y,-x,1/2-z
-y,x-y,z
x,y,1/2-z
-x+y,-x,z
-y,x-y,1/2-z
-y,-x,-z
-x+y,y,-z
x,x-y,-z
-x+y,y,1/2+z
x,x-y,1/2+z
-y,-x,1/2+z
loop_
_atom_site_type_symbol
_atom_site_label
_atom_site_fract_x
_atom_site_fract_y
_atom_site_fract_z
Si Si1 0.595862 0.191724 0.500000
Si Si2 0.851462 0.094243 0.648131
Si Si3 0.251980 0.441061 0.896550
Si Si4 0.780224 0.865009 0.603231
Si Si5 0.953930 0.573200 0.858609
Si Si6 0.333334 0.666667 0.110678
O O1 0.722980 0.277021 0.500000
O O2 0.580989 0.115105 0.584370
O O3 0.859017 0.127134 0.750000
O O4 0.741450 0.082208 0.615298
O O5 0.961462 0.176480 0.605436
O O6 0.847544 0.981515 0.644379
O O7 0.156596 0.335379 0.856328
O O8 0.360864 0.438878 0.885221
O O9 0.266703 0.547875 0.857983
O O10 0.220435 0.440870 0.000000
O O11 0.775736 0.887868 0.500000
O O12 0.944589 0.557715 0.750000
O O13 0.333334 0.666667 0.000000
#
# Coordination Sequence:
#
# PCOD9585894 Si02
#       6
#     6  12  12  12  12   4
#     4  10  26  46  72 102 124 174 230 302 372 448
#     4  10  20  35  57  87 128 172 216 265 328 399
#     4   9  20  36  63  95 130 174 217 275 331 406
#     4  10  19  32  53  88 126 170 207 266 316 397
#     4  10  23  44  69  99 138 178 229 294 357 430
#     4   9  18  36  61  92 121 166 215 271 322 386
#
# _framework density 20.94407
#
# number of rings (size 3 to 8) (size 9 to 14) (size 15 to 20)
#    0.207    2.069    0.000    1.655    4.345    6.621 
#    0.000    1.034    0.000    0.000    0.000    0.000 
#    0.000    0.000    0.000    0.000    0.000    0.000 
#
# Total GULP energy -322999.270457 kJ/mol
# GULP energy per Si atom -5568.952939 kJ/mol
# Density = 2.089640 g / cm^3
# Si number density = 20.944070 Si / 1000 Ang^3
#
#
#
# Elastic Constant Matrix: (Units=GPa)
#
#
# Indices 1 2 3 4 5 6 
#
# 1 68.7404 38.4702 29.1376 -0.0005 0.0000 0.0004
# 2 38.4702 68.7422 29.1378 0.0010 0.0003 0.0003
# 3 29.1376 29.1378 101.9601 -0.0001 0.0001 0.0001
# 4 -0.0005 0.0010 -0.0001 -96.5469 -0.0002 -0.0001
# 5 0.0000 0.0003 0.0001 -0.0002 -96.5545 -0.0018
# 6 0.0004 0.0003 0.0001 -0.0001 -0.0018 15.1356
#
#
#
# Elastic Compliance Matrix: (Units=1/GPa)
#
#
# Indices 1 2 3 4 5 6 
#
# 1 0.022039 -0.010996 -0.003156 0.000000 0.000000 0.000000
# 2 -0.010996 0.022038 -0.003156 0.000000 0.000000 0.000000
# 3 -0.003156 -0.003156 0.011611 0.000000 0.000000 0.000000
# 4 0.000000 0.000000 0.000000 -0.010358 0.000000 0.000000
# 5 0.000000 0.000000 0.000000 0.000000 -0.010357 -0.000001
# 6 0.000000 0.000000 0.000000 0.000000 -0.000001 0.066069
#
#
# Mechanical properties :
#
#
# Convention : Reuss Voigt Hill
#
# Bulk Modulus (GPa) = 47.45219 48.10380 47.77799
# Shear Modulus (GPa) = 35.04263 -26.08001 4.48131
#
# Velocity S-wave (km/s) = 4.09486 -3.53260 1.46434
# Velocity P-wave (km/s) = 6.71289 2.52559 5.07157
#
# Compressibility (1/GPa) = 0.02107384
#
# Stress axis : x y z
#
# Youngs Moduli (GPa) = 45.37401 45.37524 86.12213
#
# Poissons Ratio (x) = 0.49895 0.27178
# Poissons Ratio (y) = 0.49894 0.27177
# Poissons Ratio (z) = 0.14319 0.14319
#
# Static dielectric constant tensor:
#      x y z
#    x 1.828430 0.000000 0.000000 
#    y 0.000000 1.828430 0.000000 
#    z 0.000000 0.000000 1.695470 
# 
# From -- ./inp_files/2308.got.cif
#   From: 2010.05.17/outbox.cif.g08.bks.cpg/sg188_2_cif.got.tgz:2308.got - 2010.05.20 12:11:46.
