data_PCOD9585968
_publ_section_title
;
Structure prediction by ZEFSAII (Michael W. Deem and Ramdas Pophale) SiO2 
 PCOD9585968
Probable space group: P -6 C 2
;
_chemical_formula_sum "Si O2"
_cell_formula_units_Z 52
_cell_length_a 11.666780
_cell_length_b 11.666780
_cell_length_c 23.521020
_cell_angle_alpha 90.000000
_cell_angle_beta 90.000000
_cell_angle_gamma 120.000000
_cell_volume 2772.610093
_symmetry_space_group_name_H-M "P -6 C 2"
_symmetry_group_IT_number 188
_symmetry_cell_setting 'hexagonal'
loop_
_space_group_symop_operation_xyz
x,y,z
-x+y,-x,1/2-z
-y,x-y,z
x,y,1/2-z
-x+y,-x,z
-y,x-y,1/2-z
-y,-x,-z
-x+y,y,-z
x,x-y,-z
-x+y,y,1/2+z
x,x-y,1/2+z
-y,-x,1/2+z
loop_
_atom_site_type_symbol
_atom_site_label
_atom_site_fract_x
_atom_site_fract_y
_atom_site_fract_z
Si Si1 0.600298 0.934199 0.127828
Si Si2 0.002797 0.267718 0.750000
Si Si3 0.002796 0.267718 0.250000
Si Si4 0.847388 0.694776 0.067946
Si Si5 0.600298 0.934199 0.627828
Si Si6 0.000000 0.000000 0.930961
O O1 0.645377 0.967593 0.193418
O O2 0.451448 0.902896 0.120857
O O3 0.613925 0.806962 0.111268
O O4 0.700972 0.063358 0.092188
O O5 0.108200 0.216401 0.750000
O O6 0.855166 0.144834 0.750000
O O7 0.032406 0.354623 0.306582
O O8 0.700972 0.637615 0.092187
O O9 0.924351 0.848703 0.087962
O O10 0.845324 0.690647 0.000000
O O11 0.000000 0.000000 0.000000
#
# Coordination Sequence:
#
# PCOD9585968 Si02
#       6
#    12   6   6  12  12   4
#     4  11  23  40  63  91 125 161 201 248 305 365
#     4  10  20  36  62  94 122 153 197 252 304 360
#     4  10  20  36  62  94 122 153 197 252 304 360
#     4  11  22  39  65  91 119 157 207 256 302 355
#     4  11  23  40  63  91 125 161 201 248 305 365
#     4   9  18  36  63  91 113 148 198 258 304 347
#
# _framework density 18.754891000000001
#
# number of rings (size 3 to 8) (size 9 to 14) (size 15 to 20)
#    0.000    1.385    4.615    1.385    0.000    0.923 
#    1.385    2.308    0.000    2.769    0.000    0.000 
#    0.000    0.000    0.000    0.000    0.000    0.000 
#
# Total GULP energy -290491.620079 kJ/mol
# GULP energy per Si atom -5586.377309 kJ/mol
# Density = 1.871220 g / cm^3
# Si number density = 18.754891 Si / 1000 Ang^3
#
#
#
# Elastic Constant Matrix: (Units=GPa)
#
#
# Indices 1 2 3 4 5 6 
#
# 1 92.9836 25.1729 21.5039 0.0000 0.0000 0.0000
# 2 25.1729 92.9836 21.5039 0.0000 0.0000 0.0000
# 3 21.5039 21.5039 77.9462 0.0000 0.0000 0.0000
# 4 0.0000 0.0000 0.0000 3.0833 0.0000 0.0000
# 5 0.0000 0.0000 0.0000 0.0000 3.0833 0.0000
# 6 0.0000 0.0000 0.0000 0.0000 0.0000 33.9053
#
#
#
# Elastic Compliance Matrix: (Units=1/GPa)
#
#
# Indices 1 2 3 4 5 6 
#
# 1 0.012078 -0.002669 -0.002596 0.000000 0.000000 0.000000
# 2 -0.002669 0.012078 -0.002596 0.000000 0.000000 0.000000
# 3 -0.002596 -0.002596 0.014261 0.000000 0.000000 0.000000
# 4 0.000000 0.000000 0.000000 0.324329 0.000000 0.000000
# 5 0.000000 0.000000 0.000000 0.000000 0.324329 0.000000
# 6 0.000000 0.000000 0.000000 0.000000 0.000000 0.029494
#
#
# Mechanical properties :
#
#
# Convention : Reuss Voigt Hill
#
# Bulk Modulus (GPa) = 44.06143 44.47498 44.26821
# Shear Modulus (GPa) = 6.75809 21.06323 13.91066
#
# Velocity S-wave (km/s) = 1.90031 3.35487 2.72639
# Velocity P-wave (km/s) = 5.32534 6.22673 5.79359
#
# Compressibility (1/GPa) = 0.02269559
#
# Stress axis : x y z
#
# Youngs Moduli (GPa) = 82.79848 82.79848 70.11903
#
# Poissons Ratio (x) = 0.22102 0.18199
# Poissons Ratio (y) = 0.22102 0.18199
# Poissons Ratio (z) = 0.21490 0.21490
#
# Static dielectric constant tensor:
#      x y z
#    x 1.625930 0.000000 0.000000 
#    y 0.000000 1.625930 0.000000 
#    z 0.000000 0.000000 1.639230 
# 
# From -- ./inp_files/3638.got.cif
#   From: 2010.05.17/outbox.cif.g08.bks.cpg/sg188_2_cif.got.tgz:3638.got - 2010.05.20 12:11:46.
