data_PCOD9585702
_publ_section_title
;
Structure prediction by ZEFSAII (Michael W. Deem and Ramdas Pophale) SiO2 
 PCOD9585702
Probable space group: P -6 M 2
;
_chemical_formula_sum "Si O2"
_cell_formula_units_Z 60
_cell_length_a 12.858534
_cell_length_b 12.858534
_cell_length_c 25.973967
_cell_angle_alpha 90.000000
_cell_angle_beta 90.000000
_cell_angle_gamma 120.000000
_cell_volume 3719.219680
_symmetry_space_group_name_H-M "P -6 M 2"
_symmetry_group_IT_number 187
_symmetry_cell_setting 'hexagonal'
loop_
_space_group_symop_operation_xyz
x,y,z
-x+y,-x,-z
-y,x-y,z
x,y,-z
-x+y,-x,z
-y,x-y,-z
-y,-x,-z
-x+y,y,-z
x,x-y,-z
-x+y,y,z
x,x-y,z
-y,-x,z
loop_
_atom_site_type_symbol
_atom_site_label
_atom_site_fract_x
_atom_site_fract_y
_atom_site_fract_z
Si Si1 0.419934 0.086137 0.249359
Si Si2 0.666850 0.578537 0.059849
Si Si3 0.333667 0.419780 0.346478
Si Si4 0.580167 0.666871 0.152562
Si Si5 0.000086 0.754581 0.440824
O O1 0.558219 0.116437 0.248865
O O2 0.412452 0.206226 0.249313
O O3 0.358986 0.005249 0.299666
O O4 0.358077 0.004844 0.199286
O O5 0.793164 0.586328 0.070864
O O6 0.558839 0.441162 0.066169
O O7 0.638180 0.655813 0.099388
O O8 0.666085 0.611213 0.000000
O O9 0.211251 0.422502 0.337761
O O10 0.446378 0.553623 0.349312
O O11 0.318590 0.347874 0.399210
O O12 0.585385 0.792693 0.157865
O O13 0.442663 0.557338 0.153558
O O14 0.001015 0.716822 0.500000
O O15 0.107334 0.892667 0.436616
O O16 0.873053 0.746105 0.430992
#
# Coordination Sequence:
#
# PCOD9585702 Si02
#       5
#    12  12  12  12  12
#     4  10  20  34  53  75  97 122 155 198 246 291
#     4   9  17  30  50  75 100 126 158 199 245 288
#     4  10  20  33  50  72  99 131 164 197 235 282
#     4  10  20  33  50  72  99 131 164 197 235 282
#     4   9  17  30  49  72  97 126 161 201 243 285
#
# _framework density 16.132417
#
# number of rings (size 3 to 8) (size 9 to 14) (size 15 to 20)
#    0.000    2.400    0.000    2.800    0.000    2.400 
#    0.000    4.000    0.000   11.200    0.000    0.000 
#    0.000    0.000    0.000    0.000    0.000    0.000 
#
# Total GULP energy -334675.074424 kJ/mol
# GULP energy per Si atom -5577.917907 kJ/mol
# Density = 1.609570 g / cm^3
# Si number density = 16.132417 Si / 1000 Ang^3
#
#
#
# Elastic Constant Matrix: (Units=GPa)
#
#
# Indices 1 2 3 4 5 6 
#
# 1 118.8100 81.0883 78.7932 0.0000 -0.0002 0.0000
# 2 81.0883 118.8100 78.7932 0.0000 0.0002 0.0000
# 3 78.7932 78.7932 109.6411 0.0000 0.0000 0.0000
# 4 0.0000 0.0000 0.0000 23.1307 0.0000 0.0002
# 5 -0.0002 0.0002 0.0000 0.0000 23.1307 0.0000
# 6 0.0000 0.0000 0.0000 0.0002 0.0000 18.8609
#
#
#
# Elastic Compliance Matrix: (Units=1/GPa)
#
#
# Indices 1 2 3 4 5 6 
#
# 1 0.019025 -0.007485 -0.008294 0.000000 0.000000 0.000000
# 2 -0.007485 0.019025 -0.008294 0.000000 0.000000 0.000000
# 3 -0.008294 -0.008294 0.021041 0.000000 0.000000 0.000000
# 4 0.000000 0.000000 0.000000 0.043233 0.000000 0.000000
# 5 0.000000 0.000000 0.000000 0.000000 0.043233 0.000000
# 6 0.000000 0.000000 0.000000 0.000000 0.000000 0.053020
#
#
# Mechanical properties :
#
#
# Convention : Reuss Voigt Hill
#
# Bulk Modulus (GPa) = 91.34258 91.62338 91.48298
# Shear Modulus (GPa) = 19.97041 20.26353 20.11697
#
# Velocity S-wave (km/s) = 3.52221 3.54796 3.53511
# Velocity P-wave (km/s) = 8.56065 8.58498 8.57282
#
# Compressibility (1/GPa) = 0.01094780
#
# Stress axis : x y z
#
# Youngs Moduli (GPa) = 52.56146 52.56146 47.52586
#
# Poissons Ratio (x) = 0.39340 0.39417
# Poissons Ratio (y) = 0.39340 0.39417
# Poissons Ratio (z) = 0.43593 0.43593
#
# Static dielectric constant tensor:
#      x y z
#    x 1.508670 0.000000 0.000000 
#    y 0.000000 1.508670 0.000000 
#    z 0.000000 0.000000 1.545420 
# 
# From -- ./inp_files/4138.got.cif
#   From: 2010.05.17/outbox.cif.g08.bks.cpg/sg187_3_cif.got.tgz:4138.got - 2010.05.20 12:09:04.
