data_PCOD9585934
_publ_section_title
;
Structure prediction by ZEFSAII (Michael W. Deem and Ramdas Pophale) SiO2 
 PCOD9585934
Probable space group: P -6 C 2
;
_chemical_formula_sum "Si O2"
_cell_formula_units_Z 30
_cell_length_a 6.953024
_cell_length_b 6.953024
_cell_length_c 26.914605
_cell_angle_alpha 90.000000
_cell_angle_beta 90.000000
_cell_angle_gamma 120.000000
_cell_volume 1126.849974
_symmetry_space_group_name_H-M "P -6 C 2"
_symmetry_group_IT_number 188
_symmetry_cell_setting 'hexagonal'
loop_
_space_group_symop_operation_xyz
x,y,z
-x+y,-x,1/2-z
-y,x-y,z
x,y,1/2-z
-x+y,-x,z
-y,x-y,1/2-z
-y,-x,-z
-x+y,y,-z
x,x-y,-z
-x+y,y,1/2+z
x,x-y,1/2+z
-y,-x,1/2+z
loop_
_atom_site_type_symbol
_atom_site_label
_atom_site_fract_x
_atom_site_fract_y
_atom_site_fract_z
Si Si1 0.266700 0.385757 0.648733
Si Si2 0.388840 0.114867 0.250000
Si Si3 0.845285 0.624515 0.945967
O O1 0.508923 0.615428 0.648236
O O2 0.263020 0.267185 0.699910
O O3 0.244344 0.236417 0.601156
O O4 0.487141 0.379053 0.250000
O O5 0.577161 0.478264 0.944693
O O6 0.864381 0.728762 0.000000
#
# Coordination Sequence:
#
# PCOD9585934 Si02
#       3
#    12   6  12
#     4  10  20  32  56  94 122 142 190 266 305 336
#     4  10  20  34  62  86 110 166 210 214 282 402
#     4   8  16  34  60  76 103 161 207 231 274 376
#
# _framework density 26.622883999999999
#
# number of rings (size 3 to 8) (size 9 to 14) (size 15 to 20)
#    2.000    0.800    0.000    3.600    0.000    0.000 
#    0.000    8.000    0.000   22.400    0.000    0.000 
#    0.000    0.000    0.000    0.000    0.000    0.000 
#
# Total GULP energy -167051.600484 kJ/mol
# GULP energy per Si atom -5568.386683 kJ/mol
# Density = 2.656229 g / cm^3
# Si number density = 26.622884 Si / 1000 Ang^3
#
#
#
# Elastic Constant Matrix: (Units=GPa)
#
#
# Indices 1 2 3 4 5 6 
#
# 1 112.8484 47.0682 74.2757 -0.0001 0.0000 0.0000
# 2 47.0682 112.8484 74.2757 0.0001 0.0000 0.0000
# 3 74.2757 74.2757 328.2784 0.0000 0.0000 0.0000
# 4 -0.0001 0.0001 0.0000 -138.0307 0.0000 0.0000
# 5 0.0000 0.0000 0.0000 0.0000 -138.0307 -0.0001
# 6 0.0000 0.0000 0.0000 0.0000 -0.0001 32.8901
#
#
#
# Elastic Compliance Matrix: (Units=1/GPa)
#
#
# Indices 1 2 3 4 5 6 
#
# 1 0.011560 -0.003642 -0.001791 0.000000 0.000000 0.000000
# 2 -0.003642 0.011560 -0.001791 0.000000 0.000000 0.000000
# 3 -0.001791 -0.001791 0.003857 0.000000 0.000000 0.000000
# 4 0.000000 0.000000 0.000000 -0.007245 0.000000 0.000000
# 5 0.000000 0.000000 0.000000 0.000000 -0.007245 0.000000
# 6 0.000000 0.000000 0.000000 0.000000 0.000000 0.030404
#
#
# Mechanical properties :
#
#
# Convention : Reuss Voigt Hill
#
# Bulk Modulus (GPa) = 79.83396 105.02383 92.42889
# Shear Modulus (GPa) = 81.27883 -24.74390 28.26746
#
# Velocity S-wave (km/s) = 5.53136 -3.05195 3.26202
# Velocity P-wave (km/s) = 8.41705 5.20722 6.99864
#
# Compressibility (1/GPa) = 0.01252600
#
# Stress axis : x y z
#
# Youngs Moduli (GPa) = 86.50724 86.50724 259.28143
#
# Poissons Ratio (x) = 0.31510 0.46447
# Poissons Ratio (y) = 0.31510 0.46447
# Poissons Ratio (z) = 0.15497 0.15497
#
# Static dielectric constant tensor:
#      x y z
#    x 2.153940 0.000000 0.000000 
#    y 0.000000 2.153940 0.000000 
#    z 0.000000 0.000000 2.066330 
# 
# From -- ./inp_files/3908.got.cif
#   From: 2010.05.17/outbox.cif.g08.bks.cpg/sg188_2_cif.got.tgz:3908.got - 2010.05.20 12:11:46.
