data_PCOD9585618
_publ_section_title
;
Structure prediction by ZEFSAII (Michael W. Deem and Ramdas Pophale) SiO2 
 PCOD9585618
Probable space group: P -6 M 2
;
_chemical_formula_sum "Si O2"
_cell_formula_units_Z 96
_cell_length_a 17.806226
_cell_length_b 17.806226
_cell_length_c 21.548160
_cell_angle_alpha 90.000000
_cell_angle_beta 90.000000
_cell_angle_gamma 120.000000
_cell_volume 5916.768614
_symmetry_space_group_name_H-M "P -6 M 2"
_symmetry_group_IT_number 187
_symmetry_cell_setting 'hexagonal'
loop_
_space_group_symop_operation_xyz
x,y,z
-x+y,-x,-z
-y,x-y,z
x,y,-z
-x+y,-x,z
-y,x-y,-z
-y,-x,-z
-x+y,y,-z
x,x-y,-z
-x+y,y,z
x,x-y,z
-y,-x,z
loop_
_atom_site_type_symbol
_atom_site_label
_atom_site_fract_x
_atom_site_fract_y
_atom_site_fract_z
Si Si1 0.842263 0.333748 0.397395
Si Si2 0.759751 0.058050 0.431728
Si Si3 0.842467 0.333663 0.751965
Si Si4 0.300790 0.060602 0.801602
Si Si5 0.666642 0.501045 0.926387
Si Si6 0.001039 0.819616 0.685538
Si Si7 0.166631 0.500474 0.075024
Si Si8 0.682262 0.996890 0.072582
O O1 0.849655 0.424828 0.414991
O O2 0.747039 0.252961 0.413946
O O3 0.914229 0.313157 0.423869
O O4 0.850754 0.331841 0.322649
O O5 0.752581 0.019208 0.500000
O O6 0.850040 0.149961 0.429676
O O7 0.767685 0.004814 0.374808
O O8 0.853050 0.426525 0.767484
O O9 0.745469 0.254532 0.765862
O O10 0.911423 0.311706 0.783728
O O11 0.301841 0.150920 0.802281
O O12 0.272230 0.018659 0.869735
O O13 0.235662 0.005238 0.746733
O O14 0.758841 0.517681 0.902107
O O15 0.585809 0.414192 0.900871
O O16 0.657024 0.585004 0.921965
O O17 0.667485 0.487612 0.000000
O O18 0.087301 0.912700 0.685086
O O19 0.914534 0.829068 0.685051
O O20 0.259850 0.519700 0.097805
O O21 0.143611 0.571806 0.098148
O O22 0.093899 0.402585 0.086589
O O23 0.171348 0.507289 0.000000
O O24 0.709694 0.998178 0.000000
#
# Coordination Sequence:
#
# PCOD9585618 Si02
#       8
#    12  12  12  12  12  12  12  12
#     4   9  15  25  42  67 101 142 184 215 234 260
#     4   9  17  30  48  72 104 135 159 191 237 279
#     4   9  16  27  44  66  93 128 170 209 239 271
#     4  10  20  34  50  68  94 127 161 198 242 289
#     4   9  16  26  40  59  86 121 159 195 230 270
#     4  10  20  36  56  76  95 120 156 197 241 293
#     4   9  17  30  48  68  89 113 143 182 232 291
#     4  10  20  32  47  68  93 120 154 197 241 288
#
# _framework density 16.225073999999999
#
# number of rings (size 3 to 8) (size 9 to 14) (size 15 to 20)
#    0.000    2.625    1.250    1.375    0.000    6.250 
#    0.000    0.000    0.000    3.000    0.000    0.000 
#    0.000    1.000    0.000    1.750    0.000    3.250 
#
# Total GULP energy -534702.310235 kJ/mol
# GULP energy per Si atom -5569.815732 kJ/mol
# Density = 1.618814 g / cm^3
# Si number density = 16.225074 Si / 1000 Ang^3
#
#
#
# Elastic Constant Matrix: (Units=GPa)
#
#
# Indices 1 2 3 4 5 6 
#
# 1 52.5571 21.2837 34.3180 0.0000 -0.0003 0.0000
# 2 21.2837 52.5571 34.3180 0.0000 0.0003 0.0000
# 3 34.3180 34.3180 101.5634 0.0000 0.0000 0.0000
# 4 0.0000 0.0000 0.0000 3.6470 0.0000 0.0003
# 5 -0.0003 0.0003 0.0000 0.0000 3.6470 0.0000
# 6 0.0000 0.0000 0.0000 0.0003 0.0000 15.6367
#
#
#
# Elastic Compliance Matrix: (Units=1/GPa)
#
#
# Indices 1 2 3 4 5 6 
#
# 1 0.025860 -0.006116 -0.006671 0.000000 0.000002 0.000000
# 2 -0.006116 0.025860 -0.006671 0.000000 -0.000002 0.000000
# 3 -0.006671 -0.006671 0.014355 0.000000 0.000000 0.000000
# 4 0.000000 0.000000 0.000000 0.274200 0.000000 -0.000005
# 5 0.000002 -0.000002 0.000000 0.000000 0.274200 0.000000
# 6 0.000000 0.000000 0.000000 -0.000005 0.000000 0.063952
#
#
# Mechanical properties :
#
#
# Convention : Reuss Voigt Hill
#
# Bulk Modulus (GPa) = 36.82344 42.94635 39.88489
# Shear Modulus (GPa) = 6.88328 12.36997 9.62663
#
# Velocity S-wave (km/s) = 2.06194 2.76415 2.43845
# Velocity P-wave (km/s) = 5.33043 6.05920 5.70646
#
# Compressibility (1/GPa) = 0.02715661
#
# Stress axis : x y z
#
# Youngs Moduli (GPa) = 38.66981 38.66982 69.66428
#
# Poissons Ratio (x) = 0.23651 0.46476
# Poissons Ratio (y) = 0.23651 0.46476
# Poissons Ratio (z) = 0.25798 0.25798
#
# Static dielectric constant tensor:
#      x y z
#    x 1.534730 0.000000 0.000000 
#    y 0.000000 1.534730 0.000000 
#    z 0.000000 0.000000 1.599080 
# 
# From -- ./inp_files/3742.got.cif
#   From: 2010.05.17/outbox.cif.g08.bks.cpg/sg187_2_cif.got.tgz:3742.got - 2010.05.20 12:09:04.
