data_PCOD9585352
_publ_section_title
;
Structure prediction by ZEFSAII (Michael W. Deem and Ramdas Pophale) SiO2 
 PCOD9585352
Probable space group: P 63 M C
;
_chemical_formula_sum "Si O2"
_cell_formula_units_Z 96
_cell_length_a 17.396425
_cell_length_b 17.396425
_cell_length_c 23.382114
_cell_angle_alpha 90.000000
_cell_angle_beta 90.000000
_cell_angle_gamma 120.000000
_cell_volume 6128.221066
_symmetry_space_group_name_H-M "P 63 M C"
_symmetry_group_IT_number 186
_symmetry_cell_setting 'hexagonal'
loop_
_space_group_symop_operation_xyz
x,y,z
x-y,x,1/2+z
-y,x-y,z
-x,-y,1/2+z
-x+y,-x,z
y,-x+y,1/2+z
-x+y,y,z
x,x-y,z
-y,-x,z
y,x,1/2+z
x-y,-y,1/2+z
-x,-x+y,1/2+z
loop_
_atom_site_type_symbol
_atom_site_label
_atom_site_fract_x
_atom_site_fract_y
_atom_site_fract_z
Si Si1 0.666957 0.518210 0.679140
Si Si2 0.386348 0.431792 0.940057
Si Si3 0.386353 0.427323 0.066204
Si Si4 0.101514 0.720728 0.292624
Si Si5 0.510686 0.667232 0.407190
Si Si6 0.652265 0.912859 0.833406
Si Si7 0.504269 0.837775 0.736629
Si Si8 0.846795 0.514382 0.101475
O O1 0.753070 0.506140 0.682350
O O2 0.576801 0.423200 0.681898
O O3 0.666428 0.565303 0.619916
O O4 0.671161 0.578255 0.733018
O O5 0.468024 0.531977 0.930313
O O6 0.431950 0.369849 0.938356
O O7 0.314246 0.399798 0.890091
O O8 0.347754 0.423554 0.003487
O O9 0.481121 0.518880 0.067141
O O10 0.412561 0.351390 0.073998
O O11 0.179354 0.820647 0.284745
O O12 0.133992 0.677125 0.341282
O O13 0.014362 0.718481 0.316780
O O14 0.525085 0.762543 0.425693
O O15 0.408427 0.591574 0.412405
O O16 0.686846 0.843423 0.840242
O O17 0.584721 0.879637 0.780097
O O18 0.432344 0.864687 0.753233
O O19 0.463792 0.731896 0.739938
O O20 0.527542 0.860421 0.670138
O O21 0.759606 0.519211 0.085759
O O22 0.832374 0.416187 0.088881
#
# Coordination Sequence:
#
# PCOD9585352 Si02
#       8
#    12  12  12  12  12  12  12  12
#     4  10  19  31  48  68  90 117 149 182 216 257
#     4   9  18  31  43  58  85 120 154 187 224 259
#     4   9  18  30  42  58  84 119 155 190 226 258
#     4   9  18  31  46  66  91 113 132 168 223 270
#     4   9  16  26  42  64  90 119 150 183 220 265
#     4  10  19  30  47  67  84 109 145 179 211 256
#     4   9  16  25  39  61  88 115 142 174 211 248
#     4   9  16  26  41  62  89 120 153 187 222 263
#
# _framework density 15.665232
#
# number of rings (size 3 to 8) (size 9 to 14) (size 15 to 20)
#    0.000    2.750    0.000    2.000    0.000    4.500 
#    0.000    1.250    0.000    2.000    0.000    0.000 
#    0.000    0.000    0.000    0.375    0.000    6.875 
#
# Total GULP energy -534740.391145 kJ/mol
# GULP energy per Si atom -5570.212408 kJ/mol
# Density = 1.562958 g / cm^3
# Si number density = 15.665232 Si / 1000 Ang^3
#
#
#
# Elastic Constant Matrix: (Units=GPa)
#
#
# Indices 1 2 3 4 5 6 
#
# 1 50.5066 15.6623 18.7790 0.0000 0.0000 0.0000
# 2 15.6623 50.5066 18.7790 0.0000 0.0000 0.0000
# 3 18.7790 18.7790 70.1766 0.0000 0.0000 0.0000
# 4 0.0000 0.0000 0.0000 13.1265 0.0000 0.0000
# 5 0.0000 0.0000 0.0000 0.0000 13.1265 0.0000
# 6 0.0000 0.0000 0.0000 0.0000 0.0000 17.4221
#
#
#
# Elastic Compliance Matrix: (Units=1/GPa)
#
#
# Indices 1 2 3 4 5 6 
#
# 1 0.023259 -0.005440 -0.004768 0.000000 0.000000 0.000000
# 2 -0.005440 0.023259 -0.004768 0.000000 0.000000 0.000000
# 3 -0.004768 -0.004768 0.016802 0.000000 0.000000 0.000000
# 4 0.000000 0.000000 0.000000 0.076182 0.000000 0.000000
# 5 0.000000 0.000000 0.000000 0.000000 0.076182 0.000000
# 6 0.000000 0.000000 0.000000 0.000000 0.000000 0.057398
#
#
# Mechanical properties :
#
#
# Convention : Reuss Voigt Hill
#
# Bulk Modulus (GPa) = 29.96974 30.84782 30.40878
# Shear Modulus (GPa) = 15.91556 16.59966 16.25761
#
# Velocity S-wave (km/s) = 3.19090 3.25876 3.22501
# Velocity P-wave (km/s) = 5.72265 5.82185 5.77246
#
# Compressibility (1/GPa) = 0.03336699
#
# Stress axis : x y z
#
# Youngs Moduli (GPa) = 42.99362 42.99362 59.51757
#
# Poissons Ratio (x) = 0.23388 0.28380
# Poissons Ratio (y) = 0.23388 0.28380
# Poissons Ratio (z) = 0.20501 0.20501
#
# Static dielectric constant tensor:
#      x y z
#    x 1.518860 0.000000 0.000000 
#    y 0.000000 1.518860 0.000000 
#    z 0.000000 0.000000 1.552960 
# 
# From -- ./inp_files/3577.got.cif
#   From: 2010.05.17/outbox.cif.g08.bks.cpg/sg186_2_cif.got.tgz:3577.got - 2010.05.20 12:07:08.
