data_PCOD9585116
_publ_section_title
;
Structure prediction by ZEFSAII (Michael W. Deem and Ramdas Pophale) SiO2 
 PCOD9585116
Probable space group: P 6 C C
;
_chemical_formula_sum "Si O2"
_cell_formula_units_Z 72
_cell_length_a 21.300555
_cell_length_b 21.300555
_cell_length_c 9.215717
_cell_angle_alpha 90.000000
_cell_angle_beta 90.000000
_cell_angle_gamma 120.000000
_cell_volume 3621.109021
_symmetry_space_group_name_H-M "P 6 C C"
_symmetry_group_IT_number 184
_symmetry_cell_setting 'hexagonal'
loop_
_space_group_symop_operation_xyz
x,y,z
x-y,x,z
-y,x-y,z
-x,-y,z
-x+y,-x,z
y,-x+y,z
-x+y,y,1/2+z
x,x-y,1/2+z
-y,-x,1/2+z
y,x,1/2+z
x-y,-y,1/2+z
-x,-x+y,1/2+z
loop_
_atom_site_type_symbol
_atom_site_label
_atom_site_fract_x
_atom_site_fract_y
_atom_site_fract_z
Si Si1 0.532220 0.304816 0.953250
Si Si2 0.831598 0.415799 0.203250
Si Si3 0.785739 0.684958 0.953250
Si Si4 0.481672 0.344737 0.453250
Si Si5 0.269553 0.369850 0.453250
Si Si6 1.000000 0.282322 0.703250
O O1 0.569435 0.350517 0.810463
O O2 0.518674 0.224509 0.953250
O O3 0.453389 0.296878 0.953250
O O4 0.569435 0.350517 0.096037
O O5 0.877969 0.484968 0.308592
O O6 0.877969 0.393000 0.097908
O O7 0.712074 0.604458 0.953250
O O8 0.853064 0.671393 0.953250
O O9 0.780844 0.726233 0.811369
O O10 0.780844 0.726233 0.095131
O O11 0.295654 0.346386 0.594933
O O12 0.295654 0.346386 0.311567
#
# Coordination Sequence:
#
# PCOD9585116 Si02
#       6
#    12  12  12  12  12  12
#     4  10  20  36  51  70  96 139 173 218 278 326
#     4  10  20  32  48  71  94 126 170 226 264 330
#     4  10  20  36  58  78 110 142 173 209 265 313
#     4  10  20  36  51  70  96 139 173 218 278 326
#     4  10  20  36  58  78 110 142 173 209 265 313
#     4  10  20  32  56  89 102 134 183 218 240 316
#
# _framework density 19.883412
#
# number of rings (size 3 to 8) (size 9 to 14) (size 15 to 20)
#    0.000    2.000    0.000    4.000    0.000    5.333 
#   20.000    0.000    0.000   70.000    0.000    0.000 
#    0.000    0.000    0.000  462.000    0.000    0.000 
#
# Total GULP energy -401969.255355 kJ/mol
# GULP energy per Si atom -5582.906324 kJ/mol
# Density = 1.983816 g / cm^3
# Si number density = 19.883412 Si / 1000 Ang^3
#
#
#
# Elastic Constant Matrix: (Units=GPa)
#
#
# Indices 1 2 3 4 5 6 
#
# 1 61.2816 52.3210 40.7679 0.0000 0.0000 0.0000
# 2 52.3210 61.2816 40.7679 0.0000 0.0000 0.0000
# 3 40.7679 40.7679 160.3959 0.0000 0.0000 0.0000
# 4 0.0000 0.0000 0.0000 28.6264 0.0000 0.0000
# 5 0.0000 0.0000 0.0000 0.0000 28.6264 0.0000
# 6 0.0000 0.0000 0.0000 0.0000 0.0000 4.4803
#
#
#
# Elastic Compliance Matrix: (Units=1/GPa)
#
#
# Indices 1 2 3 4 5 6 
#
# 1 0.061183 -0.050416 -0.002737 0.000000 0.000000 0.000000
# 2 -0.050416 0.061183 -0.002737 0.000000 0.000000 0.000000
# 3 -0.002737 -0.002737 0.007626 0.000000 0.000000 0.000000
# 4 0.000000 0.000000 0.000000 0.034933 0.000000 0.000000
# 5 0.000000 0.000000 0.000000 0.000000 0.034933 0.000000
# 6 0.000000 0.000000 0.000000 0.000000 0.000000 0.223198
#
#
# Mechanical properties :
#
#
# Convention : Reuss Voigt Hill
#
# Bulk Modulus (GPa) = 54.90637 61.18585 58.04611
# Shear Modulus (GPa) = 9.24378 22.28678 15.76528
#
# Velocity S-wave (km/s) = 2.15849 3.35158 2.81888
# Velocity P-wave (km/s) = 5.82119 6.76879 6.31279
#
# Compressibility (1/GPa) = 0.01821282
#
# Stress axis : x y z
#
# Youngs Moduli (GPa) = 16.34446 16.34446 131.13571
#
# Poissons Ratio (x) = 0.82402 0.35886
# Poissons Ratio (y) = 0.82402 0.35886
# Poissons Ratio (z) = 0.04473 0.04473
#
# Static dielectric constant tensor:
#      x y z
#    x 1.690470 0.000000 0.000000 
#    y 0.000000 1.690470 0.000000 
#    z 0.000000 0.000000 1.760380 
# 
# From -- ./inp_files/345.got.cif
#   From: 2010.05.17/outbox.cif.g08.bks.cpg/sg184_cif.got.tgz:345.got - 2010.05.20 12:04:40.
