data_PCOD9585960
_publ_section_title
;
Structure prediction by ZEFSAII (Michael W. Deem and Ramdas Pophale) SiO2 
 PCOD9585960
Probable space group: P -6 C 2
;
_chemical_formula_sum "Si O2"
_cell_formula_units_Z 66
_cell_length_a 20.413979
_cell_length_b 20.413979
_cell_length_c 9.464332
_cell_angle_alpha 90.000000
_cell_angle_beta 90.000000
_cell_angle_gamma 120.000000
_cell_volume 3415.670159
_symmetry_space_group_name_H-M "P -6 C 2"
_symmetry_group_IT_number 188
_symmetry_cell_setting 'hexagonal'
loop_
_space_group_symop_operation_xyz
x,y,z
-x+y,-x,1/2-z
-y,x-y,z
x,y,1/2-z
-x+y,-x,z
-y,x-y,1/2-z
-y,-x,-z
-x+y,y,-z
x,x-y,-z
-x+y,y,1/2+z
x,x-y,1/2+z
-y,-x,1/2+z
loop_
_atom_site_type_symbol
_atom_site_label
_atom_site_fract_x
_atom_site_fract_y
_atom_site_fract_z
Si Si1 0.116310 0.121194 0.589615
Si Si2 0.868449 0.736897 0.500000
Si Si3 0.376427 0.077373 0.594584
Si Si4 0.546607 0.208559 0.588571
Si Si5 0.203007 0.669480 0.916906
Si Si6 0.022758 0.443760 0.085075
O O1 0.089405 0.110842 0.750000
O O2 0.082293 0.164586 0.500000
O O3 0.205773 0.149714 0.588328
O O4 0.090195 0.045098 0.500000
O O5 0.788936 0.684619 0.575624
O O6 0.366283 0.041925 0.750000
O O7 0.457482 0.153263 0.590736
O O8 0.382452 0.022494 0.480771
O O9 0.573816 0.224784 0.750000
O O10 0.585136 0.170273 0.500000
O O11 0.564512 0.282256 0.500000
O O12 0.223137 0.675255 0.750000
O O13 0.112970 0.636491 0.924993
O O14 0.252315 0.747686 0.000000
O O15 0.218093 0.609047 0.000000
O O16 0.002854 0.442855 0.250000
O O17 0.007860 0.503930 0.000000
#
# Coordination Sequence:
#
# PCOD9585960 Si02
#       6
#    12   6  12  12  12  12
#     4  10  21  37  62  90 122 155 196 247 305 369
#     4  10  24  42  66  92 126 158 208 252 318 380
#     4  11  23  41  64  90 120 161 205 254 312 373
#     4  11  23  39  59  86 118 156 200 250 306 360
#     4  10  20  35  57  87 122 161 204 252 304 357
#     4  10  22  39  61  89 122 163 210 256 305 368
#
# _framework density 19.322710000000001
#
# number of rings (size 3 to 8) (size 9 to 14) (size 15 to 20)
#    0.545    1.091    0.909    3.818    0.000    6.545 
#    0.000    0.909    0.000    0.000    0.000    0.000 
#    0.000    0.000    0.000    0.000    0.000    0.000 
#
# Total GULP energy -367735.398333 kJ/mol
# GULP energy per Si atom -5571.748460 kJ/mol
# Density = 1.927873 g / cm^3
# Si number density = 19.322710 Si / 1000 Ang^3
#
#
#
# Elastic Constant Matrix: (Units=GPa)
#
#
# Indices 1 2 3 4 5 6 
#
# 1 89.4611 28.6783 55.9827 0.0001 0.0000 0.0000
# 2 28.6783 89.4611 55.9827 -0.0001 0.0000 0.0000
# 3 55.9827 55.9827 194.9489 0.0000 0.0000 0.0000
# 4 0.0001 -0.0001 0.0000 20.7408 0.0000 0.0000
# 5 0.0000 0.0000 0.0000 0.0000 20.7408 0.0001
# 6 0.0000 0.0000 0.0000 0.0000 0.0001 30.3914
#
#
#
# Elastic Compliance Matrix: (Units=1/GPa)
#
#
# Indices 1 2 3 4 5 6 
#
# 1 0.014041 -0.002411 -0.003340 0.000000 0.000000 0.000000
# 2 -0.002411 0.014041 -0.003340 0.000000 0.000000 0.000000
# 3 -0.003340 -0.003340 0.007048 0.000000 0.000000 0.000000
# 4 0.000000 0.000000 0.000000 0.048214 0.000000 0.000000
# 5 0.000000 0.000000 0.000000 0.000000 0.048214 0.000000
# 6 0.000000 0.000000 0.000000 0.000000 0.000000 0.032904
#
#
# Mechanical properties :
#
#
# Convention : Reuss Voigt Hill
#
# Bulk Modulus (GPa) = 59.00262 72.79540 65.89901
# Shear Modulus (GPa) = 26.55446 29.92307 28.23877
#
# Velocity S-wave (km/s) = 3.71113 3.93949 3.82701
# Velocity P-wave (km/s) = 6.99749 7.64513 7.32847
#
# Compressibility (1/GPa) = 0.01694840
#
# Stress axis : x y z
#
# Youngs Moduli (GPa) = 71.22067 71.22067 141.89184
#
# Poissons Ratio (x) = 0.17172 0.47387
# Poissons Ratio (y) = 0.17172 0.47387
# Poissons Ratio (z) = 0.23785 0.23785
#
# Static dielectric constant tensor:
#      x y z
#    x 1.709690 0.000000 0.000000 
#    y 0.000000 1.709690 0.000000 
#    z 0.000000 0.000000 1.709120 
# 
# From -- ./inp_files/800.got.cif
#   From: 2010.05.17/outbox.cif.g08.bks.cpg/sg188_1_cif.got.tgz:800.got - 2010.05.20 12:11:46.
