data_PCOD9585018
_publ_section_title
;
Structure prediction by ZEFSAII (Michael W. Deem and Ramdas Pophale) SiO2 
 PCOD9585018
Probable space group: P 6 M M
;
_chemical_formula_sum "Si O2"
_cell_formula_units_Z 84
_cell_length_a 17.985139
_cell_length_b 17.985139
_cell_length_c 18.209024
_cell_angle_alpha 90.000000
_cell_angle_beta 90.000000
_cell_angle_gamma 120.000000
_cell_volume 5100.877541
_symmetry_space_group_name_H-M "P 6 M M"
_symmetry_group_IT_number 183
_symmetry_cell_setting 'hexagonal'
loop_
_space_group_symop_operation_xyz
x,y,z
x-y,x,z
-y,x-y,z
-x,-y,z
-x+y,-x,z
y,-x+y,z
-x+y,y,z
x,x-y,z
-y,-x,z
y,x,z
x-y,-y,z
-x,-x+y,z
loop_
_atom_site_type_symbol
_atom_site_label
_atom_site_fract_x
_atom_site_fract_y
_atom_site_fract_z
Si Si1 0.629843 0.730244 0.783510
Si Si2 0.266897 0.365822 0.067160
Si Si3 0.900143 0.632176 0.503875
Si Si4 0.635942 0.103639 0.927373
Si Si5 0.668194 0.162916 0.198191
Si Si6 0.332707 0.490526 0.642465
Si Si7 0.467009 0.364140 0.361662
O O1 0.663200 0.831600 0.778207
O O2 0.701494 0.701494 0.788364
O O3 0.569214 0.693667 0.855154
O O4 0.570387 0.685301 0.712736
O O5 0.165881 0.331761 0.068454
O O6 0.294739 0.294739 0.056454
O O7 0.307543 0.417396 0.142305
O O8 0.308235 0.434345 0.000912
O O9 0.832388 0.664776 0.514201
O O10 0.883975 0.565955 0.569781
O O11 0.878688 0.579275 0.427917
O O12 0.000000 0.704181 0.503190
O O13 0.569183 0.138366 0.925678
O O14 0.578670 0.000000 0.928001
O O15 0.572190 0.144379 0.186084
O O16 0.737652 0.262349 0.184928
O O17 0.675128 0.141681 0.282844
O O18 0.257723 0.515445 0.642544
O O19 0.425855 0.574146 0.644651
O O20 0.565559 0.434442 0.380140
O O21 0.416830 0.416830 0.353025
#
# Coordination Sequence:
#
# PCOD9585018 Si02
#       7
#    12  12  12  12  12  12  12
#     4  10  20  33  50  72  97 127 163 202 242 282
#     4  10  20  33  50  71  94 122 157 197 239 282
#     4  10  20  33  49  69  93 122 157 196 236 277
#     4   9  17  30  49  72  96 122 153 187 224 271
#     4  10  19  30  45  67  96 128 160 193 229 270
#     4  10  20  33  50  73 100 128 156 188 228 275
#     4   9  17  29  46  68  93 122 156 191 227 272
#
# _framework density 16.467753999999999
#
# number of rings (size 3 to 8) (size 9 to 14) (size 15 to 20)
#    0.000    2.286    0.000    3.286    0.000    3.714 
#    0.000    0.000    0.000    9.000    0.000    0.000 
#    0.000    6.857    0.000    4.571    0.000    0.571 
#
# Total GULP energy -468454.468250 kJ/mol
# GULP energy per Si atom -5576.838908 kJ/mol
# Density = 1.643027 g / cm^3
# Si number density = 16.467754 Si / 1000 Ang^3
#
#
#
# Elastic Constant Matrix: (Units=GPa)
#
#
# Indices 1 2 3 4 5 6 
#
# 1 89.4868 61.9666 36.2728 0.0000 0.0000 0.0000
# 2 61.9666 89.4868 36.2728 0.0000 0.0000 0.0000
# 3 36.2728 36.2728 86.0938 0.0000 0.0000 0.0000
# 4 0.0000 0.0000 0.0000 18.4125 0.0000 0.0000
# 5 0.0000 0.0000 0.0000 0.0000 18.4125 0.0000
# 6 0.0000 0.0000 0.0000 0.0000 0.0000 13.7601
#
#
#
# Elastic Compliance Matrix: (Units=1/GPa)
#
#
# Indices 1 2 3 4 5 6 
#
# 1 0.022304 -0.014032 -0.003485 0.000000 0.000000 0.000000
# 2 -0.014032 0.022304 -0.003485 0.000000 0.000000 0.000000
# 3 -0.003485 -0.003485 0.014552 0.000000 0.000000 0.000000
# 4 0.000000 0.000000 0.000000 0.054311 0.000000 0.000000
# 5 0.000000 0.000000 0.000000 0.000000 0.054311 0.000000
# 6 0.000000 0.000000 0.000000 0.000000 0.000000 0.072674
#
#
# Mechanical properties :
#
#
# Convention : Reuss Voigt Hill
#
# Bulk Modulus (GPa) = 58.29055 59.34353 58.81704
# Shear Modulus (GPa) = 17.35026 18.82073 18.08550
#
# Velocity S-wave (km/s) = 3.24943 3.38432 3.31756
# Velocity P-wave (km/s) = 7.03932 7.16840 7.10415
#
# Compressibility (1/GPa) = 0.01715544
#
# Stress axis : x y z
#
# Youngs Moduli (GPa) = 44.83409 44.83409 68.71933
#
# Poissons Ratio (x) = 0.62913 0.23950
# Poissons Ratio (y) = 0.62913 0.23950
# Poissons Ratio (z) = 0.15625 0.15625
#
# Static dielectric constant tensor:
#      x y z
#    x 1.547050 0.000000 0.000000 
#    y 0.000000 1.547050 0.000000 
#    z 0.000000 0.000000 1.557500 
# 
# From -- ./inp_files/2259.got.cif
#   From: 2010.05.17/outbox.cif.g08.bks.cpg/sg183_2_cif.got.tgz:2259.got - 2010.05.20 12:02:58.
