data_PCOD9585751
_publ_section_title
;
Structure prediction by ZEFSAII (Michael W. Deem and Ramdas Pophale) SiO2 
 PCOD9585751
Probable space group: P -6 M 2
;
_chemical_formula_sum "Si O2"
_cell_formula_units_Z 60
_cell_length_a 22.125549
_cell_length_b 22.125549
_cell_length_c 7.515436
_cell_angle_alpha 90.000000
_cell_angle_beta 90.000000
_cell_angle_gamma 120.000000
_cell_volume 3186.199196
_symmetry_space_group_name_H-M "P -6 M 2"
_symmetry_group_IT_number 187
_symmetry_cell_setting 'hexagonal'
loop_
_space_group_symop_operation_xyz
x,y,z
-x+y,-x,-z
-y,x-y,z
x,y,-z
-x+y,-x,z
-y,x-y,-z
-y,-x,-z
-x+y,y,-z
x,x-y,-z
-x+y,y,z
x,x-y,z
-y,-x,z
loop_
_atom_site_type_symbol
_atom_site_label
_atom_site_fract_x
_atom_site_fract_y
_atom_site_fract_z
Si Si1 0.813175 0.334334 0.500000
Si Si2 0.622662 0.743093 0.212448
Si Si3 0.143407 0.001808 0.500000
Si Si4 0.469531 0.665731 0.712650
Si Si5 0.762105 0.018330 0.784430
Si Si6 0.721661 0.587503 0.199417
O O1 0.735395 0.264606 0.500000
O O2 0.807812 0.403906 0.500000
O O3 0.855617 0.328849 0.668305
O O4 0.624681 0.812341 0.285816
O O5 0.546595 0.679056 0.253427
O O6 0.689706 0.739709 0.268970
O O7 0.627402 0.749166 0.000000
O O8 0.120646 0.060323 0.500000
O O9 0.193516 0.015422 0.328809
O O10 0.076062 0.923939 0.500000
O O11 0.461907 0.665747 0.500000
O O12 0.466457 0.733229 0.782556
O O13 0.405938 0.594063 0.782293
O O14 0.749833 0.082671 0.741712
O O15 0.773352 0.019045 0.000000
O O16 0.790127 0.580254 0.189841
O O17 0.692285 0.580185 0.000000
#
# Coordination Sequence:
#
# PCOD9585751 Si02
#       6
#     6  12   6  12  12  12
#     4  10  20  35  55  81 114 151 187 227 279 340
#     4   9  18  32  50  74 102 132 173 224 272 321
#     4  12  26  41  61  89 122 155 187 227 277 336
#     4   9  17  29  46  68  97 135 178 223 271 325
#     4  10  21  39  63  87 112 148 192 235 282 337
#     4   9  18  34  57  83 109 140 185 237 281 327
#
# _framework density 18.831213999999999
#
# number of rings (size 3 to 8) (size 9 to 14) (size 15 to 20)
#    0.000    2.400    0.000    2.200    1.400    4.800 
#    0.000    1.000    0.000    7.200    0.000    0.000 
#    0.000    0.000    0.000    0.000    0.000    0.000 
#
# Total GULP energy -334527.385937 kJ/mol
# GULP energy per Si atom -5575.456432 kJ/mol
# Density = 1.878835 g / cm^3
# Si number density = 18.831214 Si / 1000 Ang^3
#
#
#
# Elastic Constant Matrix: (Units=GPa)
#
#
# Indices 1 2 3 4 5 6 
#
# 1 91.6002 28.8503 37.4162 0.0000 -0.0253 0.0000
# 2 28.8503 91.6002 37.4162 0.0000 0.0253 0.0000
# 3 37.4162 37.4162 84.4408 0.0000 0.0000 0.0000
# 4 0.0000 0.0000 0.0000 -287.5515 0.0000 0.0253
# 5 -0.0253 0.0253 0.0000 0.0000 -287.5514 0.0000
# 6 0.0000 0.0000 0.0000 0.0253 0.0000 31.3750
#
#
#
# Elastic Compliance Matrix: (Units=1/GPa)
#
#
# Indices 1 2 3 4 5 6 
#
# 1 0.013696 -0.002240 -0.005076 0.000000 -0.000001 0.000000
# 2 -0.002240 0.013696 -0.005076 0.000000 0.000001 0.000000
# 3 -0.005076 -0.005076 0.016341 0.000000 0.000000 0.000000
# 4 0.000000 0.000000 0.000000 -0.003478 0.000000 0.000003
# 5 -0.000001 0.000001 0.000000 0.000000 -0.003478 0.000000
# 6 0.000000 0.000000 0.000000 0.000003 0.000000 0.031873
#
#
# Mechanical properties :
#
#
# Convention : Reuss Voigt Hill
#
# Bulk Modulus (GPa) = 52.77534 52.77849 52.77692
# Shear Modulus (GPa) = 50.12454 -97.81502 -23.84524
#
# Velocity S-wave (km/s) = 5.16484 -7.21497 -3.56232
# Velocity P-wave (km/s) = 7.97833 6.42804 3.34171
#
# Compressibility (1/GPa) = 0.01894824
#
# Stress axis : x y z
#
# Youngs Moduli (GPa) = 73.01378 73.01378 61.19529
#
# Poissons Ratio (x) = 0.16357 0.31064
# Poissons Ratio (y) = 0.16357 0.31064
# Poissons Ratio (z) = 0.37063 0.37063
#
# Static dielectric constant tensor:
#      x y z
#    x 1.645100 0.000000 0.000000 
#    y 0.000000 1.645100 0.000000 
#    z 0.000000 0.000000 1.712570 
# 
# From -- ./inp_files/658.got.cif
#   From: 2010.05.17/outbox.cif.g08.bks.cpg/sg187_1_cif.got.tgz:658.got - 2010.05.20 12:09:04.
