data_PCOD9585743
_publ_section_title
;
Structure prediction by ZEFSAII (Michael W. Deem and Ramdas Pophale) SiO2 
 PCOD9585743
Probable space group: P -6 M 2
;
_chemical_formula_sum "Si O2"
_cell_formula_units_Z 44
_cell_length_a 11.885182
_cell_length_b 11.885182
_cell_length_c 19.594225
_cell_angle_alpha 90.000000
_cell_angle_beta 90.000000
_cell_angle_gamma 120.000000
_cell_volume 2397.013034
_symmetry_space_group_name_H-M "P -6 M 2"
_symmetry_group_IT_number 187
_symmetry_cell_setting 'hexagonal'
loop_
_space_group_symop_operation_xyz
x,y,z
-x+y,-x,-z
-y,x-y,z
x,y,-z
-x+y,-x,z
-y,x-y,-z
-y,-x,-z
-x+y,y,-z
x,x-y,-z
-x+y,y,z
x,x-y,z
-y,-x,z
loop_
_atom_site_type_symbol
_atom_site_label
_atom_site_fract_x
_atom_site_fract_y
_atom_site_fract_z
Si Si1 0.737272 0.736470 0.646062
Si Si2 0.330648 0.924124 0.215198
Si Si3 0.398562 0.333449 0.924245
Si Si4 0.482863 0.517138 0.418375
Si Si5 0.333334 0.666667 0.416928
O O1 0.725511 0.862756 0.626137
O O2 0.700884 0.710022 0.726172
O O3 0.628459 0.606631 0.608575
O O4 0.880292 0.760584 0.633145
O O5 0.475181 0.950362 0.227901
O O6 0.228226 0.771775 0.219347
O O7 0.326338 0.974908 0.139894
O O8 0.399718 0.199859 0.917922
O O9 0.545435 0.454566 0.921493
O O10 0.346794 0.336930 0.000000
O O11 0.484464 0.515537 0.500000
O O12 0.407550 0.592451 0.394215
O O13 0.333334 0.666667 0.500000
#
# Coordination Sequence:
#
# PCOD9585743 Si02
#       5
#    12  12  12   6   2
#     4  11  23  40  62  89 121 157 197 243 295 351
#     4  10  20  34  54  80 110 146 190 237 287 343
#     4   9  17  30  49  74 105 142 183 228 280 339
#     4  11  22  40  66  92 119 154 198 242 289 349
#     4   9  18  36  66  96 114 144 196 248 280 333
#
# _framework density 18.356179000000001
#
# number of rings (size 3 to 8) (size 9 to 14) (size 15 to 20)
#    0.000    1.909    2.727    1.636    0.000    2.182 
#    0.818    0.000    0.000    3.818    0.000    0.000 
#    0.000    0.000    0.000    0.000    0.000    0.000 
#
# Total GULP energy -245465.542867 kJ/mol
# GULP energy per Si atom -5578.762338 kJ/mol
# Density = 1.831440 g / cm^3
# Si number density = 18.356179 Si / 1000 Ang^3
#
#
#
# Elastic Constant Matrix: (Units=GPa)
#
#
# Indices 1 2 3 4 5 6 
#
# 1 75.9422 19.7361 23.5959 0.0000 0.0000 -0.0001
# 2 19.7361 75.9421 23.5959 0.0000 0.0000 0.0000
# 3 23.5959 23.5959 80.5566 0.0000 0.0000 0.0000
# 4 0.0000 0.0000 0.0000 21.3804 0.0000 0.0001
# 5 0.0000 0.0000 0.0000 0.0000 21.3804 0.0000
# 6 -0.0001 0.0000 0.0000 0.0001 0.0000 28.1031
#
#
#
# Elastic Compliance Matrix: (Units=1/GPa)
#
#
# Indices 1 2 3 4 5 6 
#
# 1 0.015004 -0.002787 -0.003578 0.000000 0.000000 0.000000
# 2 -0.002787 0.015004 -0.003578 0.000000 0.000000 0.000000
# 3 -0.003578 -0.003578 0.014510 0.000000 0.000000 0.000000
# 4 0.000000 0.000000 0.000000 0.046772 0.000000 0.000000
# 5 0.000000 0.000000 0.000000 0.000000 0.046772 0.000000
# 6 0.000000 0.000000 0.000000 0.000000 0.000000 0.035583
#
#
# Mechanical properties :
#
#
# Convention : Reuss Voigt Hill
#
# Bulk Modulus (GPa) = 40.60137 40.69964 40.65051
# Shear Modulus (GPa) = 24.78391 25.20697 24.99544
#
# Velocity S-wave (km/s) = 3.67845 3.70971 3.69411
# Velocity P-wave (km/s) = 6.34098 6.36943 6.35522
#
# Compressibility (1/GPa) = 0.02462971
#
# Stress axis : x y z
#
# Youngs Moduli (GPa) = 66.64813 66.64802 68.91828
#
# Poissons Ratio (x) = 0.18578 0.24662
# Poissons Ratio (y) = 0.18578 0.24662
# Poissons Ratio (z) = 0.23849 0.23849
#
# Static dielectric constant tensor:
#      x y z
#    x 1.604320 0.000000 0.000000 
#    y 0.000000 1.604320 0.000000 
#    z 0.000000 0.000000 1.653310 
# 
# From -- ./inp_files/2902.got.cif
#   From: 2010.05.17/outbox.cif.g08.bks.cpg/sg187_2_cif.got.tgz:2902.got - 2010.05.20 12:09:04.
