data_PCOD9585332
_publ_section_title
;
Structure prediction by ZEFSAII (Michael W. Deem and Ramdas Pophale) SiO2 
 PCOD9585332
Probable space group: P 63 M C
;
_chemical_formula_sum "Si O2"
_cell_formula_units_Z 84
_cell_length_a 18.212622
_cell_length_b 18.212622
_cell_length_c 20.212173
_cell_angle_alpha 90.000000
_cell_angle_beta 90.000000
_cell_angle_gamma 120.000000
_cell_volume 5806.154478
_symmetry_space_group_name_H-M "P 63 M C"
_symmetry_group_IT_number 186
_symmetry_cell_setting 'hexagonal'
loop_
_space_group_symop_operation_xyz
x,y,z
x-y,x,1/2+z
-y,x-y,z
-x,-y,1/2+z
-x+y,-x,z
y,-x+y,1/2+z
-x+y,y,z
x,x-y,z
-y,-x,z
y,x,1/2+z
x-y,-y,1/2+z
-x,-x+y,1/2+z
loop_
_atom_site_type_symbol
_atom_site_label
_atom_site_fract_x
_atom_site_fract_y
_atom_site_fract_z
Si Si1 0.931592 0.239278 0.509720
Si Si2 0.899731 0.368173 0.327803
Si Si3 0.163146 0.666026 0.679112
Si Si4 0.768891 0.711576 0.357841
Si Si5 0.311716 0.068662 0.124416
Si Si6 0.171614 0.999605 0.236920
Si Si7 0.334108 0.502790 0.973698
O O1 0.854250 0.145751 0.527707
O O2 0.961302 0.233473 0.435499
O O3 0.890331 0.299571 0.502299
O O4 0.005734 0.277306 0.562710
O O5 0.941200 0.470600 0.327881
O O6 0.850991 0.337543 0.258505
O O7 0.954077 0.321214 0.335579
O O8 0.842630 0.337737 0.393957
O O9 0.152154 0.576077 0.658670
O O10 0.257179 0.742822 0.664570
O O11 0.097491 0.689824 0.645810
O O12 0.842955 0.685910 0.349383
O O13 0.796385 0.790601 0.310074
O O14 0.310355 0.155178 0.110525
O O15 0.248088 0.024045 0.185780
O O16 0.148678 0.074339 0.231500
O O17 0.090684 0.909317 0.223456
O O18 0.264740 0.529479 0.989677
O O19 0.426788 0.573213 0.996340
#
# Coordination Sequence:
#
# PCOD9585332 Si02
#       7
#    12  12  12  12  12  12  12
#     4   9  18  31  46  63  86 117 148 178 215 258
#     4   9  15  24  41  64  90 118 143 169 208 256
#     4  10  18  28  43  64  90 118 146 175 210 254
#     4   9  16  29  46  64  89 115 141 178 219 255
#     4  10  20  32  46  63  87 116 145 179 218 258
#     4  10  19  31  48  66  85 109 141 181 220 260
#     4   9  16  25  41  64  91 119 146 176 209 251
#
# _framework density 14.467408000000001
#
# number of rings (size 3 to 8) (size 9 to 14) (size 15 to 20)
#    0.000    2.571    1.429    3.000    0.000    1.143 
#    0.000    1.429    0.000    0.571    0.000    0.000 
#    0.000    0.000    0.000    2.000    0.000    0.571 
#
# Total GULP energy -467632.348917 kJ/mol
# GULP energy per Si atom -5567.051773 kJ/mol
# Density = 1.443448 g / cm^3
# Si number density = 14.467408 Si / 1000 Ang^3
#
#
#
# Elastic Constant Matrix: (Units=GPa)
#
#
# Indices 1 2 3 4 5 6 
#
# 1 83.7050 52.7974 45.4088 0.0000 0.0000 0.0000
# 2 52.7974 83.7050 45.4088 0.0000 0.0000 0.0000
# 3 45.4088 45.4088 68.3364 0.0000 0.0000 0.0000
# 4 0.0000 0.0000 0.0000 19.6956 0.0000 0.0000
# 5 0.0000 0.0000 0.0000 0.0000 19.6956 0.0000
# 6 0.0000 0.0000 0.0000 0.0000 0.0000 15.4538
#
#
#
# Elastic Compliance Matrix: (Units=1/GPa)
#
#
# Indices 1 2 3 4 5 6 
#
# 1 0.022743 -0.009612 -0.008725 0.000000 0.000000 0.000000
# 2 -0.009612 0.022743 -0.008725 0.000000 0.000000 0.000000
# 3 -0.008725 -0.008725 0.026229 0.000000 0.000000 0.000000
# 4 0.000000 0.000000 0.000000 0.050773 0.000000 0.000000
# 5 0.000000 0.000000 0.000000 0.000000 0.050773 0.000000
# 6 0.000000 0.000000 0.000000 0.000000 0.000000 0.064709
#
#
# Mechanical properties :
#
#
# Convention : Reuss Voigt Hill
#
# Bulk Modulus (GPa) = 56.85125 58.10848 57.47986
# Shear Modulus (GPa) = 16.78089 17.11109 16.94599
#
# Velocity S-wave (km/s) = 3.40944 3.44282 3.42617
# Velocity P-wave (km/s) = 7.40813 7.48708 7.44771
#
# Compressibility (1/GPa) = 0.01758976
#
# Stress axis : x y z
#
# Youngs Moduli (GPa) = 43.97004 43.97004 38.12508
#
# Poissons Ratio (x) = 0.42263 0.33266
# Poissons Ratio (y) = 0.42263 0.33266
# Poissons Ratio (z) = 0.38366 0.38366
#
# Static dielectric constant tensor:
#      x y z
#    x 1.475650 0.000000 0.000000 
#    y 0.000000 1.475650 0.000000 
#    z 0.000000 0.000000 1.466710 
# 
# From -- ./inp_files/3473.got.cif
#   From: 2010.05.17/outbox.cif.g08.bks.cpg/sg186_2_cif.got.tgz:3473.got - 2010.05.20 12:07:08.
