data_PCOD9585622
_publ_section_title
;
Structure prediction by ZEFSAII (Michael W. Deem and Ramdas Pophale) SiO2 
 PCOD9585622
Probable space group: P -6 M 2
;
_chemical_formula_sum "Si O2"
_cell_formula_units_Z 72
_cell_length_a 24.201763
_cell_length_b 24.201763
_cell_length_c 8.935385
_cell_angle_alpha 90.000000
_cell_angle_beta 90.000000
_cell_angle_gamma 120.000000
_cell_volume 4532.501003
_symmetry_space_group_name_H-M "P -6 M 2"
_symmetry_group_IT_number 187
_symmetry_cell_setting 'hexagonal'
loop_
_space_group_symop_operation_xyz
x,y,z
-x+y,-x,-z
-y,x-y,z
x,y,-z
-x+y,-x,z
-y,x-y,-z
-y,-x,-z
-x+y,y,-z
x,x-y,-z
-x+y,y,z
x,x-y,z
-y,-x,z
loop_
_atom_site_type_symbol
_atom_site_label
_atom_site_fract_x
_atom_site_fract_y
_atom_site_fract_z
Si Si1 0.179731 0.359461 0.819911
Si Si2 0.442873 0.885745 0.828421
Si Si3 0.404330 0.367133 0.677493
Si Si4 0.520512 0.479489 0.172282
Si Si5 0.109343 0.218685 0.678116
Si Si6 0.896249 0.232539 0.177025
Si Si7 0.568658 0.671227 0.181906
Si Si8 0.843529 0.814414 0.179121
O O1 0.145146 0.290291 0.744440
O O2 0.145036 0.399597 0.780983
O O3 0.175101 0.350202 0.000000
O O4 0.374144 0.869281 0.765027
O O5 0.481625 0.963249 0.828398
O O6 0.431367 0.862734 0.000000
O O7 0.405131 0.373918 0.500000
O O8 0.474178 0.414022 0.744611
O O9 0.377854 0.294829 0.726861
O O10 0.357723 0.390043 0.749356
O O11 0.530871 0.469130 0.000000
O O12 0.110870 0.221740 0.500000
O O13 0.144827 0.181658 0.736618
O O14 0.824649 0.175352 0.203721
O O15 0.942039 0.202971 0.207885
O O16 0.902740 0.248623 0.000000
O O17 0.568780 0.665266 0.000000
O O18 0.914892 0.829784 0.219192
O O19 0.842546 0.823835 0.000000
#
# Coordination Sequence:
#
# PCOD9585622 Si02
#       8
#     6   6  12   6   6  12  12  12
#     4  10  20  32  48  69  94 128 173 211 240 291
#     4   7  12  25  45  64  83 111 149 191 234 273
#     4  11  20  29  45  72 102 127 154 192 241 290
#     4   9  17  31  49  67  92 126 159 188 221 266
#     4  12  24  34  48  72 101 127 153 200 265 318
#     4   9  18  33  52  71  93 125 164 199 233 283
#     4   9  17  30  47  66  90 126 166 202 240 287
#     4   9  19  37  57  72  88 120 167 210 247 296
#
# _framework density 15.885268999999999
#
# number of rings (size 3 to 8) (size 9 to 14) (size 15 to 20)
#    0.000    2.500    0.000    5.500    0.000    6.000 
#    0.500    1.667    0.000    0.333    0.000    2.333 
#    0.833    0.000    1.500    2.500    1.500    4.667 
#
# Total GULP energy -401404.016813 kJ/mol
# GULP energy per Si atom -5575.055789 kJ/mol
# Density = 1.584911 g / cm^3
# Si number density = 15.885269 Si / 1000 Ang^3
#
#
#
# Elastic Constant Matrix: (Units=GPa)
#
#
# Indices 1 2 3 4 5 6 
#
# 1 96.6152 61.3912 51.4419 0.0000 -0.0006 0.0000
# 2 61.3912 96.6152 51.4419 0.0000 0.0006 0.0000
# 3 51.4419 51.4419 60.2597 0.0000 0.0000 0.0000
# 4 0.0000 0.0000 0.0000 -0.0783 0.0000 0.0006
# 5 -0.0006 0.0006 0.0000 0.0000 -0.0783 0.0000
# 6 0.0000 0.0000 0.0000 0.0006 0.0000 17.6120
#
#
#
# Elastic Compliance Matrix: (Units=1/GPa)
#
#
# Indices 1 2 3 4 5 6 
#
# 1 0.021320 -0.007070 -0.012164 0.000000 -0.000206 0.000000
# 2 -0.007070 0.021320 -0.012164 0.000000 0.000206 0.000000
# 3 -0.012164 -0.012164 0.037364 0.000000 0.000000 0.000000
# 4 0.000000 0.000000 0.000000-12.774109 0.000006 0.000412
# 5 -0.000206 0.000206 0.000000 0.000006-12.774116 0.000000
# 6 0.000000 0.000000 0.000000 0.000412 0.000000 0.056780
#
#
# Mechanical properties :
#
#
# Convention : Reuss Voigt Hill
#
# Bulk Modulus (GPa) = 58.12235 64.67111 61.39673
# Shear Modulus (GPa) = -0.19729 9.43876 4.62073
#
# Velocity S-wave (km/s) = -0.35280 2.44023 1.70738
# Velocity P-wave (km/s) = 6.04171 6.98136 6.52846
#
# Compressibility (1/GPa) = 0.01720509
#
# Stress axis : x y z
#
# Youngs Moduli (GPa) = 46.90508 46.90508 26.76398
#
# Poissons Ratio (x) = 0.33162 0.32557
# Poissons Ratio (y) = 0.33162 0.32557
# Poissons Ratio (z) = 0.57057 0.57057
#
# Static dielectric constant tensor:
#      x y z
#    x 1.526430 0.000000 0.000000 
#    y 0.000000 1.526430 0.000000 
#    z 0.000000 0.000000 1.526280 
# 
# From -- ./inp_files/1127.got.cif
#   From: 2010.05.17/outbox.cif.g08.bks.cpg/sg187_1_cif.got.tgz:1127.got - 2010.05.20 12:09:04.
