data_PCOD9585136
_publ_section_title
;
Structure prediction by ZEFSAII (Michael W. Deem and Ramdas Pophale) SiO2 
 PCOD9585136
Probable space group: P 6 C C
;
_chemical_formula_sum "Si O2"
_cell_formula_units_Z 60
_cell_length_a 14.382730
_cell_length_b 14.382730
_cell_length_c 13.697269
_cell_angle_alpha 90.000000
_cell_angle_beta 90.000000
_cell_angle_gamma 120.000000
_cell_volume 2453.845822
_symmetry_space_group_name_H-M "P 6 C C"
_symmetry_group_IT_number 184
_symmetry_cell_setting 'hexagonal'
loop_
_space_group_symop_operation_xyz
x,y,z
x-y,x,z
-y,x-y,z
-x,-y,z
-x+y,-x,z
y,-x+y,z
-x+y,y,1/2+z
x,x-y,1/2+z
-y,-x,1/2+z
y,x,1/2+z
x-y,-y,1/2+z
-x,-x+y,1/2+z
loop_
_atom_site_type_symbol
_atom_site_label
_atom_site_fract_x
_atom_site_fract_y
_atom_site_fract_z
Si Si1 0.073784 0.832927 0.801500
Si Si2 0.478824 0.242280 0.053098
Si Si3 0.828640 0.383872 0.199641
Si Si4 0.755868 0.924340 0.565129
Si Si5 0.486127 0.181064 0.842846
O O1 0.074788 0.828054 0.683487
O O2 0.116119 0.757272 0.841052
O O3 0.953884 0.797437 0.831105
O O4 0.559481 0.348613 0.116348
O O5 0.456879 0.143423 0.126849
O O6 0.368170 0.240807 0.033558
O O7 0.520386 0.219503 0.952665
O O8 0.754140 0.289577 0.277567
O O9 0.888546 0.476554 0.278677
O O10 0.795040 0.840650 0.535677
#
# Coordination Sequence:
#
# PCOD9585136 Si02
#       5
#    12  12  12  12  12
#     4  10  21  42  71 103 139 178 221 273 336 406
#     4  11  22  39  67 101 134 173 225 279 335 398
#     4  10  20  38  57  88 126 172 214 268 327 380
#     4  10  21  42  71 103 139 178 221 273 336 406
#     4  11  22  39  67 101 134 173 225 279 335 398
#
# _framework density 24.451414
#
# number of rings (size 3 to 8) (size 9 to 14) (size 15 to 20)
#    0.000    1.600    4.000    4.800    0.000    3.200 
#    0.000    4.000    0.000    7.200    0.000    0.000 
#    0.000    0.000    0.000    0.000    0.000    0.000 
#
# Total GULP energy -334291.615787 kJ/mol
# GULP energy per Si atom -5571.526930 kJ/mol
# Density = 2.439576 g / cm^3
# Si number density = 24.451414 Si / 1000 Ang^3
#
#
#
# Elastic Constant Matrix: (Units=GPa)
#
#
# Indices 1 2 3 4 5 6 
#
# 1 84.2649 39.6158 2.3668 0.0000 0.0000 0.0000
# 2 39.6158 84.2649 2.3668 0.0000 0.0000 0.0000
# 3 2.3668 2.3668 156.8693 0.0000 0.0000 0.0000
# 4 0.0000 0.0000 0.0000 21.6673 0.0000 0.0000
# 5 0.0000 0.0000 0.0000 0.0000 21.6673 0.0000
# 6 0.0000 0.0000 0.0000 0.0000 0.0000 22.3246
#
#
#
# Elastic Compliance Matrix: (Units=1/GPa)
#
#
# Indices 1 2 3 4 5 6 
#
# 1 0.015237 -0.007160 -0.000122 0.000000 0.000000 0.000000
# 2 -0.007160 0.015237 -0.000122 0.000000 0.000000 0.000000
# 3 -0.000122 -0.000122 0.006378 0.000000 0.000000 0.000000
# 4 0.000000 0.000000 0.000000 0.046152 0.000000 0.000000
# 5 0.000000 0.000000 0.000000 0.000000 0.046152 0.000000
# 6 0.000000 0.000000 0.000000 0.000000 0.000000 0.044794
#
#
# Mechanical properties :
#
#
# Convention : Reuss Voigt Hill
#
# Bulk Modulus (GPa) = 45.36209 46.01088 45.68648
# Shear Modulus (GPa) = 25.49637 31.86851 28.68244
#
# Velocity S-wave (km/s) = 3.23265 3.61410 3.42868
# Velocity P-wave (km/s) = 5.70312 6.02277 5.86512
#
# Compressibility (1/GPa) = 0.02204484
#
# Stress axis : x y z
#
# Youngs Moduli (GPa) = 65.63019 65.63019 156.77891
#
# Poissons Ratio (x) = 0.46991 0.01911
# Poissons Ratio (y) = 0.46991 0.01911
# Poissons Ratio (z) = 0.00800 0.00800
#
# Static dielectric constant tensor:
#      x y z
#    x 2.060530 0.000000 0.000000 
#    y 0.000000 2.060530 0.000000 
#    z 0.000000 0.000000 2.004420 
# 
# From -- ./inp_files/819.got.cif
#   From: 2010.05.17/outbox.cif.g08.bks.cpg/sg184_cif.got.tgz:819.got - 2010.05.20 12:04:40.
