data_PCOD9585849
_publ_section_title
;
Structure prediction by ZEFSAII (Michael W. Deem and Ramdas Pophale) SiO2 
 PCOD9585849
Probable space group: P -6 C 2
;
_chemical_formula_sum "Si O2"
_cell_formula_units_Z 66
_cell_length_a 13.861154
_cell_length_b 13.861154
_cell_length_c 20.958683
_cell_angle_alpha 90.000000
_cell_angle_beta 90.000000
_cell_angle_gamma 120.000000
_cell_volume 3487.332828
_symmetry_space_group_name_H-M "P -6 C 2"
_symmetry_group_IT_number 188
_symmetry_cell_setting 'hexagonal'
loop_
_space_group_symop_operation_xyz
x,y,z
-x+y,-x,1/2-z
-y,x-y,z
x,y,1/2-z
-x+y,-x,z
-y,x-y,1/2-z
-y,-x,-z
-x+y,y,-z
x,x-y,-z
-x+y,y,1/2+z
x,x-y,1/2+z
-y,-x,1/2+z
loop_
_atom_site_type_symbol
_atom_site_label
_atom_site_fract_x
_atom_site_fract_y
_atom_site_fract_z
Si Si1 0.893339 0.549394 0.607855
Si Si2 0.686853 0.641172 0.250000
Si Si3 0.913711 0.661792 0.250000
Si Si4 0.436714 0.114457 0.612021
Si Si5 0.511987 0.639816 0.058881
Si Si6 0.547706 0.686523 0.885709
Si Si7 0.205362 0.838463 0.750000
O O1 0.923395 0.573246 0.683485
O O2 0.861651 0.421892 0.596510
O O3 0.794423 0.574151 0.591470
O O4 0.005614 0.622931 0.567524
O O5 0.819815 0.695469 0.250000
O O6 0.656719 0.737730 0.250000
O O7 0.895685 0.586631 0.311938
O O8 0.034751 0.770613 0.250000
O O9 0.350325 0.986964 0.591082
O O10 0.427012 0.570085 0.115959
O O11 0.542964 0.766045 0.068596
O O12 0.432569 0.567432 0.000000
O O13 0.572762 0.736400 0.815305
#
# Coordination Sequence:
#
# PCOD9585849 Si02
#       7
#    12   6   6  12  12  12   6
#     4  10  19  33  56  83 113 151 188 238 295 352
#     4  10  17  31  54  77 115 150 186 236 296 348
#     4   8  17  29  46  77 112 149 180 227 281 359
#     4   9  18  32  53  80 114 145 186 229 292 352
#     4  11  22  37  57  81 112 156 201 243 294 351
#     4  10  21  36  56  81 115 151 189 245 295 353
#     4  10  18  34  54  82 117 143 194 239 295 353
#
# _framework density 18.925637999999999
#
# number of rings (size 3 to 8) (size 9 to 14) (size 15 to 20)
#    0.000    2.182    1.818    1.818    0.000    2.909 
#    0.545    5.455    0.000    0.727    0.000    0.000 
#    0.000    0.000    0.000    0.000    0.000    0.000 
#
# Total GULP energy -367790.934953 kJ/mol
# GULP energy per Si atom -5572.589924 kJ/mol
# Density = 1.888256 g / cm^3
# Si number density = 18.925638 Si / 1000 Ang^3
#
#
#
# Elastic Constant Matrix: (Units=GPa)
#
#
# Indices 1 2 3 4 5 6 
#
# 1 136.5881 80.2487 29.3119 0.0001 0.0000 0.0000
# 2 80.2487 136.5881 29.3119 -0.0001 0.0000 0.0000
# 3 29.3119 29.3119 71.1587 0.0000 0.0000 0.0000
# 4 0.0001 -0.0001 0.0000 30.2709 0.0000 0.0000
# 5 0.0000 0.0000 0.0000 0.0000 30.2709 0.0001
# 6 0.0000 0.0000 0.0000 0.0000 0.0001 28.1697
#
#
#
# Elastic Compliance Matrix: (Units=1/GPa)
#
#
# Indices 1 2 3 4 5 6 
#
# 1 0.011470 -0.006280 -0.002138 0.000000 0.000000 0.000000
# 2 -0.006280 0.011470 -0.002138 0.000000 0.000000 0.000000
# 3 -0.002138 -0.002138 0.015814 0.000000 0.000000 0.000000
# 4 0.000000 0.000000 0.000000 0.033035 0.000000 0.000000
# 5 0.000000 0.000000 0.000000 0.000000 0.033035 0.000000
# 6 0.000000 0.000000 0.000000 0.000000 0.000000 0.035499
#
#
# Mechanical properties :
#
#
# Convention : Reuss Voigt Hill
#
# Bulk Modulus (GPa) = 56.68076 69.11999 62.90037
# Shear Modulus (GPa) = 29.88383 31.43979 30.66181
#
# Velocity S-wave (km/s) = 3.97799 4.08024 4.02944
# Velocity P-wave (km/s) = 7.14936 7.66805 7.41324
#
# Compressibility (1/GPa) = 0.01764267
#
# Stress axis : x y z
#
# Youngs Moduli (GPa) = 87.18656 87.18656 63.23395
#
# Poissons Ratio (x) = 0.54753 0.13518
# Poissons Ratio (y) = 0.54753 0.13518
# Poissons Ratio (z) = 0.18638 0.18638
#
# Static dielectric constant tensor:
#      x y z
#    x 1.662450 0.000000 0.000000 
#    y 0.000000 1.662450 0.000000 
#    z 0.000000 0.000000 1.736260 
# 
# From -- ./inp_files/3768.got.cif
#   From: 2010.05.17/outbox.cif.g08.bks.cpg/sg188_2_cif.got.tgz:3768.got - 2010.05.20 12:11:46.
