data_PCOD9585052
_publ_section_title
;
Structure prediction by ZEFSAII (Michael W. Deem and Ramdas Pophale) SiO2 
 PCOD9585052
Probable space group: P 6 M M
;
_chemical_formula_sum "Si O2"
_cell_formula_units_Z 84
_cell_length_a 28.249756
_cell_length_b 28.249756
_cell_length_c 7.171910
_cell_angle_alpha 90.000000
_cell_angle_beta 90.000000
_cell_angle_gamma 120.000000
_cell_volume 4956.725456
_symmetry_space_group_name_H-M "P 6 M M"
_symmetry_group_IT_number 183
_symmetry_cell_setting 'hexagonal'
loop_
_space_group_symop_operation_xyz
x,y,z
x-y,x,z
-y,x-y,z
-x,-y,z
-x+y,-x,z
y,-x+y,z
-x+y,y,z
x,x-y,z
-y,-x,z
y,x,z
x-y,-y,z
-x,-x+y,z
loop_
_atom_site_type_symbol
_atom_site_label
_atom_site_fract_x
_atom_site_fract_y
_atom_site_fract_z
Si Si1 0.416363 0.479723 0.250000
Si Si2 0.758938 0.935345 0.381143
Si Si3 0.869739 0.490436 0.911541
Si Si4 0.680046 0.554463 0.538279
Si Si5 0.678163 0.741464 0.670247
Si Si6 0.224095 0.888704 0.073081
Si Si7 0.459789 0.176953 0.182521
O O1 0.455852 0.544149 0.290713
O O2 0.449997 0.449997 0.283347
O O3 0.366457 0.453465 0.391068
O O4 0.402805 0.476814 0.030062
O O5 0.775992 0.887996 0.372366
O O6 0.723930 0.927747 0.568376
O O7 0.712995 0.921002 0.221394
O O8 0.805597 0.000000 0.368132
O O9 0.859118 0.429559 0.878535
O O10 0.868711 0.520315 0.723611
O O11 0.831756 0.496908 0.065816
O O12 0.719425 0.617513 0.590952
O O13 0.710968 0.532837 0.405229
O O14 0.696576 0.696576 0.639267
O O15 0.676453 0.753088 0.887013
O O16 0.167898 0.832103 0.033558
O O17 0.267040 0.870389 0.143641
O O18 0.463602 0.231801 0.113503
#
# Coordination Sequence:
#
# PCOD9585052 Si02
#       7
#    12  12  12  12  12  12  12
#     4   9  19  34  49  68  99 139 181 219 256 303
#     4  10  21  37  56  80 112 148 185 227 276 327
#     4  10  21  37  55  76 104 138 178 222 268 317
#     4  11  20  33  49  77 104 142 177 224 266 321
#     4  11  21  31  48  78 111 146 182 220 264 317
#     4  10  19  34  53  76 107 141 180 224 269 320
#     4  10  21  36  56  80 105 136 176 225 280 334
#
# _framework density 16.946670999999998
#
# number of rings (size 3 to 8) (size 9 to 14) (size 15 to 20)
#    0.000    1.857    2.857    1.714    0.000    2.857 
#    0.000    1.429    0.000    0.429    0.000    1.000 
#    0.000    0.000    0.000    4.571    0.000    0.000 
#
# Total GULP energy -467680.742835 kJ/mol
# GULP energy per Si atom -5567.627891 kJ/mol
# Density = 1.690810 g / cm^3
# Si number density = 16.946671 Si / 1000 Ang^3
#
#
#
# Elastic Constant Matrix: (Units=GPa)
#
#
# Indices 1 2 3 4 5 6 
#
# 1 67.4380 33.6623 16.1697 0.0000 0.0000 0.0000
# 2 33.6623 67.4380 16.1697 0.0000 0.0000 0.0000
# 3 16.1697 16.1697 82.5038 0.0000 0.0000 0.0000
# 4 0.0000 0.0000 0.0000 19.8784 0.0000 0.0000
# 5 0.0000 0.0000 0.0000 0.0000 19.8784 0.0000
# 6 0.0000 0.0000 0.0000 0.0000 0.0000 16.8878
#
#
#
# Elastic Compliance Matrix: (Units=1/GPa)
#
#
# Indices 1 2 3 4 5 6 
#
# 1 0.020080 -0.009527 -0.002068 0.000000 0.000000 0.000000
# 2 -0.009527 0.020080 -0.002068 0.000000 0.000000 0.000000
# 3 -0.002068 -0.002068 0.012931 0.000000 0.000000 0.000000
# 4 0.000000 0.000000 0.000000 0.050306 0.000000 0.000000
# 5 0.000000 0.000000 0.000000 0.000000 0.050306 0.000000
# 6 0.000000 0.000000 0.000000 0.000000 0.000000 0.059214
#
#
# Mechanical properties :
#
#
# Convention : Reuss Voigt Hill
#
# Bulk Modulus (GPa) = 38.81387 38.82037 38.81712
# Shear Modulus (GPa) = 20.09386 21.42080 20.75733
#
# Velocity S-wave (km/s) = 3.44715 3.55915 3.50360
# Velocity P-wave (km/s) = 6.22873 6.31246 6.27074
#
# Compressibility (1/GPa) = 0.02576398
#
# Stress axis : x y z
#
# Youngs Moduli (GPa) = 49.80100 49.80100 77.33149
#
# Poissons Ratio (x) = 0.47446 0.15994
# Poissons Ratio (y) = 0.47446 0.15994
# Poissons Ratio (z) = 0.10300 0.10300
#
# Static dielectric constant tensor:
#      x y z
#    x 1.612900 0.000000 0.000000 
#    y 0.000000 1.612900 0.000000 
#    z 0.000000 0.000000 1.588810 
# 
# From -- ./inp_files/562.got.cif
#   From: 2010.05.17/outbox.cif.g08.bks.cpg/sg183_1_cif.got.tgz:562.got - 2010.05.20 12:02:58.
