data_PCOD9585971
_publ_section_title
;
Structure prediction by ZEFSAII (Michael W. Deem and Ramdas Pophale) SiO2 
 PCOD9585971
Probable space group: P -6 C 2
;
_chemical_formula_sum "Si O2"
_cell_formula_units_Z 84
_cell_length_a 17.337745
_cell_length_b 17.337745
_cell_length_c 16.729004
_cell_angle_alpha 90.000000
_cell_angle_beta 90.000000
_cell_angle_gamma 120.000000
_cell_volume 4354.977735
_symmetry_space_group_name_H-M "P -6 C 2"
_symmetry_group_IT_number 188
_symmetry_cell_setting 'hexagonal'
loop_
_space_group_symop_operation_xyz
x,y,z
-x+y,-x,1/2-z
-y,x-y,z
x,y,1/2-z
-x+y,-x,z
-y,x-y,1/2-z
-y,-x,-z
-x+y,y,-z
x,x-y,-z
-x+y,y,1/2+z
x,x-y,1/2+z
-y,-x,1/2+z
loop_
_atom_site_type_symbol
_atom_site_label
_atom_site_fract_x
_atom_site_fract_y
_atom_site_fract_z
Si Si1 0.939050 0.120608 0.841873
Si Si2 0.101160 0.361677 0.161325
Si Si3 0.332609 0.487378 0.525258
Si Si4 0.694684 0.104008 0.662994
Si Si5 0.372550 0.267885 0.340384
Si Si6 0.956349 0.387409 0.992382
Si Si7 0.121666 0.938044 0.089101
O O1 0.909079 0.098249 0.750000
O O2 0.949242 0.216474 0.859024
O O3 0.035374 0.132023 0.854749
O O4 0.866132 0.043937 0.897647
O O5 0.138300 0.370497 0.250000
O O6 0.140578 0.456986 0.118222
O O7 0.110048 0.287282 0.112042
O O8 0.994543 0.318457 0.167711
O O9 0.417669 0.582332 0.500000
O O10 0.242320 0.484640 0.500000
O O11 0.350126 0.409400 0.491439
O O12 0.655575 0.112898 0.750000
O O13 0.794152 0.186444 0.661729
O O14 0.658671 0.098320 0.573195
O O15 0.388677 0.306278 0.250000
O O16 0.424549 0.335479 0.411441
O O17 0.966640 0.483320 0.000000
O O18 0.086374 0.913627 0.000000
#
# Coordination Sequence:
#
# PCOD9585971 Si02
#       7
#    12  12  12  12  12  12  12
#     4  11  23  38  54  79 122 170 212 258 299 339
#     4  10  20  37  59  86 118 155 198 245 297 358
#     4  10  22  41  62  85 112 149 191 241 308 370
#     4   9  18  35  61  85 113 156 198 234 289 357
#     4  10  21  37  60  89 117 158 205 248 295 352
#     4  10  22  37  58  88 119 148 188 248 307 364
#     4  12  24  35  54  84 123 170 217 256 297 350
#
# _framework density 19.288271999999999
#
# number of rings (size 3 to 8) (size 9 to 14) (size 15 to 20)
#    0.000    1.714    1.429    3.000    6.000    1.714 
#    0.000    2.857    0.000    2.286    0.000    0.000 
#    0.000    0.000    0.000    0.000    0.000    0.000 
#
# Total GULP energy -467784.851290 kJ/mol
# GULP energy per Si atom -5568.867277 kJ/mol
# Density = 1.924437 g / cm^3
# Si number density = 19.288272 Si / 1000 Ang^3
#
#
#
# Elastic Constant Matrix: (Units=GPa)
#
#
# Indices 1 2 3 4 5 6 
#
# 1 59.0939 22.3352 44.9146 -0.0008 0.0000 0.0000
# 2 22.3352 59.0939 44.9146 0.0008 0.0000 0.0000
# 3 44.9146 44.9146 140.5706 0.0000 0.0000 0.0000
# 4 -0.0008 0.0008 0.0000 20.6168 0.0000 0.0000
# 5 0.0000 0.0000 0.0000 0.0000 20.6168 -0.0008
# 6 0.0000 0.0000 0.0000 0.0000 -0.0008 18.3793
#
#
#
# Elastic Compliance Matrix: (Units=1/GPa)
#
#
# Indices 1 2 3 4 5 6 
#
# 1 0.023085 -0.004119 -0.006060 0.000001 0.000000 0.000000
# 2 -0.004119 0.023085 -0.006060 -0.000001 0.000000 0.000000
# 3 -0.006060 -0.006060 0.010986 0.000000 0.000000 0.000000
# 4 0.000001 -0.000001 0.000000 0.048504 0.000000 0.000000
# 5 0.000000 0.000000 0.000000 0.000000 0.048504 0.000002
# 6 0.000000 0.000000 0.000000 0.000000 0.000002 0.054409
#
#
# Mechanical properties :
#
#
# Convention : Reuss Voigt Hill
#
# Bulk Modulus (GPa) = 40.52165 53.67635 47.09900
# Shear Modulus (GPa) = 20.05797 21.69554 20.87676
#
# Velocity S-wave (km/s) = 3.22825 3.35745 3.29349
# Velocity P-wave (km/s) = 5.91181 6.55125 6.23973
#
# Compressibility (1/GPa) = 0.02467817
#
# Stress axis : x y z
#
# Youngs Moduli (GPa) = 43.31817 43.31817 91.02266
#
# Poissons Ratio (x) = 0.17845 0.55158
# Poissons Ratio (y) = 0.17845 0.55158
# Poissons Ratio (z) = 0.26250 0.26250
#
# Static dielectric constant tensor:
#      x y z
#    x 1.698140 0.000000 0.000000 
#    y 0.000000 1.698140 0.000000 
#    z 0.000000 0.000000 1.728870 
# 
# From -- ./inp_files/2589.got.cif
#   From: 2010.05.17/outbox.cif.g08.bks.cpg/sg188_2_cif.got.tgz:2589.got - 2010.05.20 12:11:46.
