data_PCOD9585607
_publ_section_title
;
Structure prediction by ZEFSAII (Michael W. Deem and Ramdas Pophale) SiO2 
 PCOD9585607
Probable space group: P -6 M 2
;
_chemical_formula_sum "Si O2"
_cell_formula_units_Z 60
_cell_length_a 12.871287
_cell_length_b 12.871287
_cell_length_c 26.031844
_cell_angle_alpha 90.000000
_cell_angle_beta 90.000000
_cell_angle_gamma 120.000000
_cell_volume 3734.904599
_symmetry_space_group_name_H-M "P -6 M 2"
_symmetry_group_IT_number 187
_symmetry_cell_setting 'hexagonal'
loop_
_space_group_symop_operation_xyz
x,y,z
-x+y,-x,-z
-y,x-y,z
x,y,-z
-x+y,-x,z
-y,x-y,-z
-y,-x,-z
-x+y,y,-z
x,x-y,-z
-x+y,y,z
x,x-y,z
-y,-x,z
loop_
_atom_site_type_symbol
_atom_site_label
_atom_site_fract_x
_atom_site_fract_y
_atom_site_fract_z
Si Si1 0.665659 0.085893 0.000000
Si Si2 0.999772 0.754555 0.210912
Si Si3 0.085788 0.419373 0.402550
Si Si4 0.913314 0.333959 0.305045
Si Si5 0.246304 0.247239 0.500000
Si Si6 0.753939 0.999887 0.093162
O O1 0.677492 0.021009 0.949375
O O2 0.780374 0.219627 0.000000
O O3 0.544812 0.089624 0.000000
O O4 0.126898 0.873103 0.220296
O O5 0.893075 0.786149 0.214784
O O6 0.970664 0.653284 0.252895
O O7 0.997887 0.714139 0.152080
O O8 0.217149 0.434298 0.396319
O O9 0.095641 0.547821 0.412071
O O10 0.022715 0.329645 0.450112
O O11 0.005525 0.363215 0.351830
O O12 0.890127 0.445064 0.300645
O O13 0.789416 0.210585 0.314317
O O14 0.107234 0.214468 0.500000
O O15 0.256368 0.128184 0.500000
O O16 0.889804 0.110197 0.087803
O O17 0.751532 0.875766 0.084804
#
# Coordination Sequence:
#
# PCOD9585607 Si02
#       6
#     6  12  12  12   6  12
#     4  10  20  32  46  66  94 128 162 194 230 276
#     4   9  17  30  49  73  98 122 151 191 241 291
#     4  10  20  34  53  75  99 128 163 204 246 287
#     4  10  20  33  49  70  98 132 167 201 237 281
#     4  10  20  34  52  74 100 128 158 194 238 288
#     4   9  17  30  50  74  96 118 148 192 243 289
#
# _framework density 16.064668000000001
#
# number of rings (size 3 to 8) (size 9 to 14) (size 15 to 20)
#    0.000    2.400    0.000    2.800    0.000    2.400 
#    0.000    2.000    0.000   13.600    0.000    0.000 
#    0.000    0.000    0.000    0.000    0.000    0.000 
#
# Total GULP energy -334634.566613 kJ/mol
# GULP energy per Si atom -5577.242777 kJ/mol
# Density = 1.602810 g / cm^3
# Si number density = 16.064668 Si / 1000 Ang^3
#
#
#
# Elastic Constant Matrix: (Units=GPa)
#
#
# Indices 1 2 3 4 5 6 
#
# 1 112.6415 71.7264 83.7189 0.0000 -0.0004 0.0000
# 2 71.7264 112.6415 83.7189 0.0000 0.0004 0.0000
# 3 83.7189 83.7189 127.3030 0.0000 0.0000 0.0000
# 4 0.0000 0.0000 0.0000 23.9858 0.0000 0.0004
# 5 -0.0004 0.0004 0.0000 0.0000 23.9858 0.0000
# 6 0.0000 0.0000 0.0000 0.0004 0.0000 20.4575
#
#
#
# Elastic Compliance Matrix: (Units=1/GPa)
#
#
# Indices 1 2 3 4 5 6 
#
# 1 0.018954 -0.005487 -0.008856 0.000000 0.000000 0.000000
# 2 -0.005487 0.018954 -0.008856 0.000000 0.000000 0.000000
# 3 -0.008856 -0.008856 0.019504 0.000000 0.000000 0.000000
# 4 0.000000 0.000000 0.000000 0.041691 0.000000 -0.000001
# 5 0.000000 0.000000 0.000000 0.000000 0.041691 0.000000
# 6 0.000000 0.000000 0.000000 -0.000001 0.000000 0.048882
#
#
# Mechanical properties :
#
#
# Convention : Reuss Voigt Hill
#
# Bulk Modulus (GPa) = 90.80721 92.32381 91.56551
# Shear Modulus (GPa) = 20.85537 21.24729 21.05133
#
# Velocity S-wave (km/s) = 3.60698 3.64072 3.62389
# Velocity P-wave (km/s) = 8.60208 8.67571 8.63898
#
# Compressibility (1/GPa) = 0.01101234
#
# Stress axis : x y z
#
# Youngs Moduli (GPa) = 52.75935 52.75935 51.27182
#
# Poissons Ratio (x) = 0.28948 0.45409
# Poissons Ratio (y) = 0.28948 0.45409
# Poissons Ratio (z) = 0.46726 0.46726
#
# Static dielectric constant tensor:
#      x y z
#    x 1.506730 0.000000 0.000000 
#    y 0.000000 1.506730 0.000000 
#    z 0.000000 0.000000 1.536810 
# 
# From -- ./inp_files/4212.got.cif
#   From: 2010.05.17/outbox.cif.g08.bks.cpg/sg187_3_cif.got.tgz:4212.got - 2010.05.20 12:09:04.
