data_PCOD9585583
_publ_section_title
;
Structure prediction by ZEFSAII (Michael W. Deem and Ramdas Pophale) SiO2 
 PCOD9585583
Probable space group: P -6 M 2
;
_chemical_formula_sum "Si O2"
_cell_formula_units_Z 60
_cell_length_a 12.820749
_cell_length_b 12.820749
_cell_length_c 26.161493
_cell_angle_alpha 90.000000
_cell_angle_beta 90.000000
_cell_angle_gamma 120.000000
_cell_volume 3724.088150
_symmetry_space_group_name_H-M "P -6 M 2"
_symmetry_group_IT_number 187
_symmetry_cell_setting 'hexagonal'
loop_
_space_group_symop_operation_xyz
x,y,z
-x+y,-x,-z
-y,x-y,z
x,y,-z
-x+y,-x,z
-y,x-y,-z
-y,-x,-z
-x+y,y,-z
x,x-y,-z
-x+y,y,z
x,x-y,z
-y,-x,z
loop_
_atom_site_type_symbol
_atom_site_label
_atom_site_fract_x
_atom_site_fract_y
_atom_site_fract_z
Si Si1 0.581682 0.666096 0.000000
Si Si2 0.246453 0.000164 0.710314
Si Si3 0.246675 0.247015 0.406110
Si Si4 0.915194 0.333920 0.902331
Si Si5 0.914437 0.334126 0.500000
Si Si6 0.581014 0.666536 0.194709
O O1 0.643639 0.646287 0.950287
O O2 0.442731 0.557270 0.000000
O O3 0.587991 0.793996 0.000000
O O4 0.254654 0.127327 0.720642
O O5 0.288879 0.001505 0.652129
O O6 0.316362 0.968778 0.752562
O O7 0.107311 0.892689 0.712109
O O8 0.219643 0.109822 0.409717
O O9 0.342792 0.320852 0.449451
O O10 0.125213 0.250426 0.414718
O O11 0.884670 0.442335 0.903762
O O12 0.794374 0.205627 0.904439
O O13 0.991368 0.351851 0.850949
O O14 0.779491 0.220510 0.500000
O O15 0.913325 0.456663 0.500000
O O16 0.578397 0.789199 0.184938
O O17 0.446640 0.553361 0.197459
#
# Coordination Sequence:
#
# PCOD9585583 Si02
#       6
#     6  12  12  12   6  12
#     4  10  20  34  54  78 104 134 166 200 236 280
#     4   9  17  30  49  73  99 125 154 191 238 289
#     4   9  17  30  50  74  96 119 151 195 243 286
#     4  10  20  34  53  75  99 127 160 201 246 290
#     4  10  20  32  46  64  90 124 158 192 230 278
#     4  10  20  33  50  71  97 130 166 203 239 280
#
# _framework density 16.111325999999998
#
# number of rings (size 3 to 8) (size 9 to 14) (size 15 to 20)
#    0.000    2.400    0.000    2.800    0.000    2.400 
#    0.000    4.000    0.000    8.800    0.000    0.000 
#    0.000    0.000    0.000    0.000    0.000    0.000 
#
# Total GULP energy -334655.479847 kJ/mol
# GULP energy per Si atom -5577.591331 kJ/mol
# Density = 1.607466 g / cm^3
# Si number density = 16.111326 Si / 1000 Ang^3
#
#
#
# Elastic Constant Matrix: (Units=GPa)
#
#
# Indices 1 2 3 4 5 6 
#
# 1 111.2078 74.3402 80.6800 0.0000 -0.0001 0.0000
# 2 74.3402 111.2078 80.6800 0.0000 0.0001 0.0000
# 3 80.6800 80.6800 139.2983 0.0000 0.0000 0.0000
# 4 0.0000 0.0000 0.0000 22.0048 0.0000 0.0001
# 5 -0.0001 0.0001 0.0000 0.0000 22.0048 0.0000
# 6 0.0000 0.0000 0.0000 0.0001 0.0000 18.4338
#
#
#
# Elastic Compliance Matrix: (Units=1/GPa)
#
#
# Indices 1 2 3 4 5 6 
#
# 1 0.018992 -0.008133 -0.006289 0.000000 0.000000 0.000000
# 2 -0.008133 0.018992 -0.006289 0.000000 0.000000 0.000000
# 3 -0.006289 -0.006289 0.014464 0.000000 0.000000 0.000000
# 4 0.000000 0.000000 0.000000 0.045445 0.000000 0.000000
# 5 0.000000 0.000000 0.000000 0.000000 0.045445 0.000000
# 6 0.000000 0.000000 0.000000 0.000000 0.000000 0.054248
#
#
# Mechanical properties :
#
#
# Convention : Reuss Voigt Hill
#
# Bulk Modulus (GPa) = 90.70554 92.56824 91.63689
# Shear Modulus (GPa) = 20.60306 20.88958 20.74632
#
# Velocity S-wave (km/s) = 3.57990 3.60471 3.59233
# Velocity P-wave (km/s) = 8.57374 8.65479 8.61436
#
# Compressibility (1/GPa) = 0.01102468
#
# Stress axis : x y z
#
# Youngs Moduli (GPa) = 52.65512 52.65512 69.13583
#
# Poissons Ratio (x) = 0.42822 0.43482
# Poissons Ratio (y) = 0.42822 0.43482
# Poissons Ratio (z) = 0.33117 0.33117
#
# Static dielectric constant tensor:
#      x y z
#    x 1.507220 0.000000 0.000000 
#    y 0.000000 1.507220 0.000000 
#    z 0.000000 0.000000 1.546040 
# 
# From -- ./inp_files/4183.got.cif
#   From: 2010.05.17/outbox.cif.g08.bks.cpg/sg187_3_cif.got.tgz:4183.got - 2010.05.20 12:09:04.
