data_PCOD9585322
_publ_section_title
;
Structure prediction by ZEFSAII (Michael W. Deem and Ramdas Pophale) SiO2 
 PCOD9585322
Probable space group: P 63 M C
;
_chemical_formula_sum "Si O2"
_cell_formula_units_Z 72
_cell_length_a 24.959114
_cell_length_b 24.959114
_cell_length_c 8.373840
_cell_angle_alpha 90.000000
_cell_angle_beta 90.000000
_cell_angle_gamma 120.000000
_cell_volume 4517.660799
_symmetry_space_group_name_H-M "P 63 M C"
_symmetry_group_IT_number 186
_symmetry_cell_setting 'hexagonal'
loop_
_space_group_symop_operation_xyz
x,y,z
x-y,x,1/2+z
-y,x-y,z
-x,-y,1/2+z
-x+y,-x,z
y,-x+y,1/2+z
-x+y,y,z
x,x-y,z
-y,-x,z
y,x,1/2+z
x-y,-y,1/2+z
-x,-x+y,1/2+z
loop_
_atom_site_type_symbol
_atom_site_label
_atom_site_fract_x
_atom_site_fract_y
_atom_site_fract_z
Si Si1 0.632877 0.929901 0.978320
Si Si2 0.937592 0.749786 0.651521
Si Si3 0.599018 0.737221 0.666479
Si Si4 0.384909 0.976701 0.267437
Si Si5 0.485019 0.088807 0.061865
Si Si6 0.929588 0.734058 0.032356
O O1 0.598174 0.874209 0.854683
O O2 0.644939 0.989771 0.872616
O O3 0.691867 0.927672 0.044069
O O4 0.597022 0.934387 0.131815
O O5 0.882553 0.765107 0.619816
O O6 0.934517 0.734732 0.840118
O O7 0.008367 0.798609 0.606726
O O8 0.594300 0.797150 0.632765
O O9 0.543808 0.676551 0.587846
O O10 0.667092 0.752936 0.602044
O O11 0.403473 0.939240 0.386085
O O12 0.444796 0.031829 0.182409
O O13 0.556938 0.113875 0.087909
O O14 0.870240 0.740479 0.073672
#
# Coordination Sequence:
#
# PCOD9585322 Si02
#       6
#    12  12  12  12  12  12
#     4  10  17  28  45  67  96 126 153 188 228 274
#     4  11  20  30  47  70  94 122 157 194 238 286
#     4  10  20  33  49  69  95 126 160 196 232 274
#     4   9  18  29  45  70  99 126 155 185 224 279
#     4  10  18  30  48  70  98 127 154 187 229 277
#     4  10  21  34  48  68  94 123 157 198 239 282
#
# _framework density 15.937452
#
# number of rings (size 3 to 8) (size 9 to 14) (size 15 to 20)
#    0.000    2.000    0.000    7.000    0.000    2.000 
#    0.000    1.667    0.000    0.667    0.000    0.000 
#    0.000    1.333    0.000    0.000    0.000    0.000 
#
# Total GULP energy -401371.735501 kJ/mol
# GULP energy per Si atom -5574.607438 kJ/mol
# Density = 1.590118 g / cm^3
# Si number density = 15.937452 Si / 1000 Ang^3
#
#
#
# Elastic Constant Matrix: (Units=GPa)
#
#
# Indices 1 2 3 4 5 6 
#
# 1 87.0597 44.5284 27.6824 0.0000 0.0000 0.0000
# 2 44.5284 87.0597 27.6824 0.0000 0.0000 0.0000
# 3 27.6824 27.6824 80.3599 0.0000 0.0000 0.0000
# 4 0.0000 0.0000 0.0000 12.3056 0.0000 0.0000
# 5 0.0000 0.0000 0.0000 0.0000 12.3056 0.0000
# 6 0.0000 0.0000 0.0000 0.0000 0.0000 21.2657
#
#
#
# Elastic Compliance Matrix: (Units=1/GPa)
#
#
# Indices 1 2 3 4 5 6 
#
# 1 0.016200 -0.007312 -0.003062 0.000000 0.000000 0.000000
# 2 -0.007312 0.016200 -0.003062 0.000000 0.000000 0.000000
# 3 -0.003062 -0.003062 0.014553 0.000000 0.000000 0.000000
# 4 0.000000 0.000000 0.000000 0.081264 0.000000 0.000000
# 5 0.000000 0.000000 0.000000 0.000000 0.081264 0.000000
# 6 0.000000 0.000000 0.000000 0.000000 0.000000 0.047024
#
#
# Mechanical properties :
#
#
# Convention : Reuss Voigt Hill
#
# Bulk Modulus (GPa) = 49.79546 50.47396 50.13471
# Shear Modulus (GPa) = 17.23726 19.48113 18.35919
#
# Velocity S-wave (km/s) = 3.29227 3.50000 3.39772
# Velocity P-wave (km/s) = 6.76492 6.93341 6.84968
#
# Compressibility (1/GPa) = 0.02008215
#
# Stress axis : x y z
#
# Youngs Moduli (GPa) = 61.72897 61.72897 68.71265
#
# Poissons Ratio (x) = 0.45138 0.21037
# Poissons Ratio (y) = 0.45138 0.21037
# Poissons Ratio (z) = 0.18899 0.18899
#
# Static dielectric constant tensor:
#      x y z
#    x 1.540370 0.000000 0.000000 
#    y 0.000000 1.540370 0.000000 
#    z 0.000000 0.000000 1.557850 
# 
# From -- ./inp_files/1214.got.cif
#   From: 2010.05.17/outbox.cif.g08.bks.cpg/sg186_1_cif.got.tgz:1214.got - 2010.05.20 12:07:08.
