data_PCOD9585355
_publ_section_title
;
Structure prediction by ZEFSAII (Michael W. Deem and Ramdas Pophale) SiO2 
 PCOD9585355
Probable space group: P 63 M C
;
_chemical_formula_sum "Si O2"
_cell_formula_units_Z 72
_cell_length_a 24.832936
_cell_length_b 24.832936
_cell_length_c 9.178057
_cell_angle_alpha 90.000000
_cell_angle_beta 90.000000
_cell_angle_gamma 120.000000
_cell_volume 4901.596089
_symmetry_space_group_name_H-M "P 63 M C"
_symmetry_group_IT_number 186
_symmetry_cell_setting 'hexagonal'
loop_
_space_group_symop_operation_xyz
x,y,z
x-y,x,1/2+z
-y,x-y,z
-x,-y,1/2+z
-x+y,-x,z
y,-x+y,1/2+z
-x+y,y,z
x,x-y,z
-y,-x,z
y,x,1/2+z
x-y,-y,1/2+z
-x,-x+y,1/2+z
loop_
_atom_site_type_symbol
_atom_site_label
_atom_site_fract_x
_atom_site_fract_y
_atom_site_fract_z
Si Si1 0.277853 0.434105 0.765690
Si Si2 0.716567 0.984122 0.590111
Si Si3 0.740773 0.608368 0.938921
Si Si4 0.794528 0.082891 0.358446
Si Si5 0.043826 0.405428 0.224630
Si Si6 0.596446 0.065172 0.415440
O O1 0.228485 0.456969 0.796798
O O2 0.282767 0.430289 0.590372
O O3 0.244585 0.362582 0.823165
O O4 0.344482 0.468650 0.841546
O O5 0.675234 0.925759 0.484726
O O6 0.742258 0.960389 0.718917
O O7 0.766931 0.041024 0.498798
O O8 0.672168 0.007122 0.662713
O O9 0.805859 0.611717 0.900291
O O10 0.689068 0.584735 0.813024
O O11 0.864878 0.135123 0.374277
O O12 0.996257 0.411626 0.333097
O O13 0.060627 0.449235 0.084311
O O14 0.534176 0.068352 0.400258
#
# Coordination Sequence:
#
# PCOD9585355 Si02
#       6
#    12  12  12  12  12  12
#     4   9  17  33  51  71  95 121 165 212 247 302
#     4  11  16  32  48  65 104 128 163 201 232 279
#     4  10  19  31  52  73  96 132 166 199 248 297
#     4  10  19  30  48  70  96 136 167 194 244 293
#     4  12  19  33  47  70 104 133 168 205 247 296
#     4  12  22  33  49  71  99 138 172 207 256 307
#
# _framework density 14.689093
#
# number of rings (size 3 to 8) (size 9 to 14) (size 15 to 20)
#    0.000    1.333    8.333    2.000    0.000    1.333 
#    0.000    0.833    0.000    0.333    0.000    0.000 
#    0.000    1.333    0.000   19.000    0.000    0.500 
#
# Total GULP energy -401456.305414 kJ/mol
# GULP energy per Si atom -5575.782020 kJ/mol
# Density = 1.465566 g / cm^3
# Si number density = 14.689093 Si / 1000 Ang^3
#
#
#
# Elastic Constant Matrix: (Units=GPa)
#
#
# Indices 1 2 3 4 5 6 
#
# 1 88.0656 58.2306 62.2369 0.0000 0.0000 0.0000
# 2 58.2306 88.0656 62.2369 0.0000 0.0000 0.0000
# 3 62.2369 62.2369 93.4899 0.0000 0.0000 0.0000
# 4 0.0000 0.0000 0.0000 18.5069 0.0000 0.0000
# 5 0.0000 0.0000 0.0000 0.0000 18.5069 0.0000
# 6 0.0000 0.0000 0.0000 0.0000 0.0000 14.9175
#
#
#
# Elastic Compliance Matrix: (Units=1/GPa)
#
#
# Indices 1 2 3 4 5 6 
#
# 1 0.024641 -0.008876 -0.010495 0.000000 0.000000 0.000000
# 2 -0.008876 0.024641 -0.010495 0.000000 0.000000 0.000000
# 3 -0.010495 -0.010495 0.024669 0.000000 0.000000 0.000000
# 4 0.000000 0.000000 0.000000 0.054034 0.000000 0.000000
# 5 0.000000 0.000000 0.000000 0.000000 0.054034 0.000000
# 6 0.000000 0.000000 0.000000 0.000000 0.000000 0.067035
#
#
# Mechanical properties :
#
#
# Convention : Reuss Voigt Hill
#
# Bulk Modulus (GPa) = 70.32450 70.55887 70.44169
# Shear Modulus (GPa) = 15.94763 16.18069 16.06416
#
# Velocity S-wave (km/s) = 3.29854 3.32255 3.31057
# Velocity P-wave (km/s) = 7.90483 7.92832 7.91659
#
# Compressibility (1/GPa) = 0.01421979
#
# Stress axis : x y z
#
# Youngs Moduli (GPa) = 40.58250 40.58250 40.53655
#
# Poissons Ratio (x) = 0.36023 0.42542
# Poissons Ratio (y) = 0.36023 0.42542
# Poissons Ratio (z) = 0.42590 0.42590
#
# Static dielectric constant tensor:
#      x y z
#    x 1.473030 0.000000 0.000000 
#    y 0.000000 1.473030 0.000000 
#    z 0.000000 0.000000 1.514340 
# 
# From -- ./inp_files/1188.got.cif
#   From: 2010.05.17/outbox.cif.g08.bks.cpg/sg186_1_cif.got.tgz:1188.got - 2010.05.20 12:07:08.
