data_PCOD9585070
_publ_section_title
;
Structure prediction by ZEFSAII (Michael W. Deem and Ramdas Pophale) SiO2 
 PCOD9585070
Probable space group: P 6 M M
;
_chemical_formula_sum "Si O2"
_cell_formula_units_Z 72
_cell_length_a 22.187219
_cell_length_b 22.187219
_cell_length_c 9.745877
_cell_angle_alpha 90.000000
_cell_angle_beta 90.000000
_cell_angle_gamma 120.000000
_cell_volume 4154.868642
_symmetry_space_group_name_H-M "P 6 M M"
_symmetry_group_IT_number 183
_symmetry_cell_setting 'hexagonal'
loop_
_space_group_symop_operation_xyz
x,y,z
x-y,x,z
-y,x-y,z
-x,-y,z
-x+y,-x,z
y,-x+y,z
-x+y,y,z
x,x-y,z
-y,-x,z
y,x,z
x-y,-y,z
-x,-x+y,z
loop_
_atom_site_type_symbol
_atom_site_label
_atom_site_fract_x
_atom_site_fract_y
_atom_site_fract_z
Si Si1 0.078752 0.782116 0.298040
Si Si2 0.809837 0.475449 0.320860
Si Si3 0.610636 0.531990 0.544160
Si Si4 0.789193 0.709046 0.617765
Si Si5 0.083091 0.401281 0.808943
Si Si6 0.419905 0.082362 0.119559
O O1 0.140274 0.859727 0.266893
O O2 0.085271 0.769446 0.460031
O O3 0.086254 0.727187 0.203267
O O4 0.000000 0.766399 0.278808
O O5 0.740854 0.481707 0.306333
O O6 0.790790 0.395395 0.337996
O O7 0.858016 0.520617 0.448730
O O8 0.863869 0.509381 0.195002
O O9 0.537131 0.462870 0.523389
O O10 0.596296 0.596296 0.512809
O O11 0.633410 0.539070 0.702099
O O12 0.871089 0.742177 0.628918
O O13 0.761991 0.761991 0.645421
O O14 0.751880 0.645861 0.724303
O O15 0.000000 0.353155 0.823067
O O16 0.107165 0.422558 0.963303
O O17 0.397776 0.000000 0.122891
#
# Coordination Sequence:
#
# PCOD9585070 Si02
#       6
#    12  12  12  12  12  12
#     4   9  17  30  48  71  99 131 166 202 243 291
#     4  11  23  38  54  72  98 133 171 205 238 281
#     4   9  18  34  56  78  98 122 156 199 243 287
#     4   9  17  29  46  67  94 128 163 199 239 288
#     4   9  18  31  48  75 105 126 148 188 246 301
#     4  10  20  33  52  78 104 127 156 200 251 298
#
# _framework density 17.329069
#
# number of rings (size 3 to 8) (size 9 to 14) (size 15 to 20)
#    0.000    2.500    0.000    2.167    0.000    7.667 
#    0.000    1.667    0.000    0.333    0.000    4.667 
#    0.000    0.000    0.000    8.333    0.000    8.667 
#
# Total GULP energy -401040.503765 kJ/mol
# GULP energy per Si atom -5570.006997 kJ/mol
# Density = 1.728963 g / cm^3
# Si number density = 17.329069 Si / 1000 Ang^3
#
#
#
# Elastic Constant Matrix: (Units=GPa)
#
#
# Indices 1 2 3 4 5 6 
#
# 1 70.2933 37.8650 16.9867 0.0000 0.0000 0.0000
# 2 37.8650 70.2933 16.9867 0.0000 0.0000 0.0000
# 3 16.9867 16.9867 91.8886 0.0000 0.0000 0.0000
# 4 0.0000 0.0000 0.0000 10.3062 0.0000 0.0000
# 5 0.0000 0.0000 0.0000 0.0000 10.3062 0.0000
# 6 0.0000 0.0000 0.0000 0.0000 0.0000 16.2142
#
#
#
# Elastic Compliance Matrix: (Units=1/GPa)
#
#
# Indices 1 2 3 4 5 6 
#
# 1 0.020326 -0.010511 -0.001815 0.000000 0.000000 0.000000
# 2 -0.010511 0.020326 -0.001815 0.000000 0.000000 0.000000
# 3 -0.001815 -0.001815 0.011554 0.000000 0.000000 0.000000
# 4 0.000000 0.000000 0.000000 0.097029 0.000000 0.000000
# 5 0.000000 0.000000 0.000000 0.000000 0.097029 0.000000
# 6 0.000000 0.000000 0.000000 0.000000 0.000000 0.061674
#
#
# Mechanical properties :
#
#
# Convention : Reuss Voigt Hill
#
# Bulk Modulus (GPa) = 41.79415 41.79466 41.79440
# Shear Modulus (GPa) = 14.52670 18.07445 16.30057
#
# Velocity S-wave (km/s) = 2.89846 3.23308 3.07033
# Velocity P-wave (km/s) = 5.94741 6.17314 6.06133
#
# Compressibility (1/GPa) = 0.02392680
#
# Stress axis : x y z
#
# Youngs Moduli (GPa) = 49.19697 49.19697 86.55297
#
# Poissons Ratio (x) = 0.51710 0.15705
# Poissons Ratio (y) = 0.51710 0.15705
# Poissons Ratio (z) = 0.08927 0.08927
#
# Static dielectric constant tensor:
#      x y z
#    x 1.602610 0.000000 0.000000 
#    y 0.000000 1.602610 0.000000 
#    z 0.000000 0.000000 1.614660 
# 
# From -- ./inp_files/1202.got.cif
#   From: 2010.05.17/outbox.cif.g08.bks.cpg/sg183_1_cif.got.tgz:1202.got - 2010.05.20 12:02:58.
