data_PCOD9585133
_publ_section_title
;
Structure prediction by ZEFSAII (Michael W. Deem and Ramdas Pophale) SiO2 
 PCOD9585133
Probable space group: P 6 C C
;
_chemical_formula_sum "Si O2"
_cell_formula_units_Z 84
_cell_length_a 17.444037
_cell_length_b 17.444037
_cell_length_c 14.719646
_cell_angle_alpha 90.000000
_cell_angle_beta 90.000000
_cell_angle_gamma 120.000000
_cell_volume 3879.019793
_symmetry_space_group_name_H-M "P 6 C C"
_symmetry_group_IT_number 184
_symmetry_cell_setting 'hexagonal'
loop_
_space_group_symop_operation_xyz
x,y,z
x-y,x,z
-y,x-y,z
-x,-y,z
-x+y,-x,z
y,-x+y,z
-x+y,y,1/2+z
x,x-y,1/2+z
-y,-x,1/2+z
y,x,1/2+z
x-y,-y,1/2+z
-x,-x+y,1/2+z
loop_
_atom_site_type_symbol
_atom_site_label
_atom_site_fract_x
_atom_site_fract_y
_atom_site_fract_z
Si Si1 0.761251 0.597778 0.022990
Si Si2 0.141798 0.197759 0.739073
Si Si3 0.093410 0.517012 0.294120
Si Si4 0.201285 0.121923 0.458238
Si Si5 0.294246 0.459496 0.376891
Si Si6 0.234653 0.398435 0.715141
Si Si7 0.419720 0.008660 0.980752
O O1 0.792957 0.581019 0.117345
O O2 0.825319 0.696561 0.985940
O O3 0.758056 0.528953 0.946560
O O4 0.670710 0.597685 0.040174
O O5 0.171012 0.128050 0.707363
O O6 0.131359 0.196581 0.848865
O O7 0.214177 0.297735 0.714017
O O8 0.155688 0.618535 0.326907
O O9 0.137522 0.472313 0.237113
O O10 0.060416 0.460082 0.386456
O O11 0.000000 0.500000 0.253005
O O12 0.140616 0.161951 0.490512
O O13 0.230747 0.402857 0.294304
O O14 0.335854 0.416723 0.445297
O O15 0.500000 0.000000 0.021049
#
# Coordination Sequence:
#
# PCOD9585133 Si02
#       7
#    12  12  12  12  12  12  12
#     4  12  23  40  68 105 137 178 246 290 360 437
#     4  10  22  38  67  97 143 191 238 293 350 426
#     4   9  21  45  70  92 132 181 238 290 366 425
#     4  10  20  37  60  94 138 187 235 289 345 418
#     4  10  22  44  68  93 139 181 228 295 359 434
#     4  12  25  41  69 105 140 186 243 298 365 440
#     4   9  20  43  69  95 129 182 232 285 363 428
#
# _framework density 21.654955000000001
#
# number of rings (size 3 to 8) (size 9 to 14) (size 15 to 20)
#    0.000    2.000    2.857    1.143    6.000    3.429 
#    6.000    1.429    0.000    1.714    0.000    0.000 
#    0.000    0.000    0.000    0.000    0.000    0.000 
#
# Total GULP energy -468822.773518 kJ/mol
# GULP energy per Si atom -5581.223494 kJ/mol
# Density = 2.160567 g / cm^3
# Si number density = 21.654955 Si / 1000 Ang^3
#
#
#
# Elastic Constant Matrix: (Units=GPa)
#
#
# Indices 1 2 3 4 5 6 
#
# 1 106.9622 65.7528 19.2575 0.0000 0.0000 0.0000
# 2 65.7528 106.9622 19.2575 0.0000 0.0000 0.0000
# 3 19.2575 19.2575 64.3953 0.0000 0.0000 0.0000
# 4 0.0000 0.0000 0.0000 10.2454 0.0000 0.0000
# 5 0.0000 0.0000 0.0000 0.0000 10.2454 0.0000
# 6 0.0000 0.0000 0.0000 0.0000 0.0000 20.6047
#
#
#
# Elastic Compliance Matrix: (Units=1/GPa)
#
#
# Indices 1 2 3 4 5 6 
#
# 1 0.015235 -0.009031 -0.001855 0.000000 0.000000 0.000000
# 2 -0.009031 0.015235 -0.001855 0.000000 0.000000 0.000000
# 3 -0.001855 -0.001855 0.016639 0.000000 0.000000 0.000000
# 4 0.000000 0.000000 0.000000 0.097605 0.000000 0.000000
# 5 0.000000 0.000000 0.000000 0.000000 0.097605 0.000000
# 6 0.000000 0.000000 0.000000 0.000000 0.000000 0.048533
#
#
# Mechanical properties :
#
#
# Convention : Reuss Voigt Hill
#
# Bulk Modulus (GPa) = 46.24259 54.09503 50.16881
# Shear Modulus (GPa) = 15.45389 19.82254 17.63821
#
# Velocity S-wave (km/s) = 2.67431 3.02881 2.85706
# Velocity P-wave (km/s) = 5.56206 6.10461 5.83964
#
# Compressibility (1/GPa) = 0.02162509
#
# Stress axis : x y z
#
# Youngs Moduli (GPa) = 65.63846 65.63846 60.10096
#
# Poissons Ratio (x) = 0.59281 0.11150
# Poissons Ratio (y) = 0.59281 0.11150
# Poissons Ratio (z) = 0.12177 0.12177
#
# Static dielectric constant tensor:
#      x y z
#    x 2.237430 0.000000 0.000000 
#    y 0.000000 2.237430 0.000000 
#    z 0.000000 0.000000 1.801800 
# 
# From -- ./inp_files/928.got.cif
#   From: 2010.05.17/outbox.cif.g08.bks.cpg/sg184_cif.got.tgz:928.got - 2010.05.20 12:04:40.
