data_PCOD9585727
_publ_section_title
;
Structure prediction by ZEFSAII (Michael W. Deem and Ramdas Pophale) SiO2 
 PCOD9585727
Probable space group: P -6 M 2
;
_chemical_formula_sum "Si O2"
_cell_formula_units_Z 60
_cell_length_a 21.772126
_cell_length_b 21.772126
_cell_length_c 8.390553
_cell_angle_alpha 90.000000
_cell_angle_beta 90.000000
_cell_angle_gamma 120.000000
_cell_volume 3444.473872
_symmetry_space_group_name_H-M "P -6 M 2"
_symmetry_group_IT_number 187
_symmetry_cell_setting 'hexagonal'
loop_
_space_group_symop_operation_xyz
x,y,z
-x+y,-x,-z
-y,x-y,z
x,y,-z
-x+y,-x,z
-y,x-y,-z
-y,-x,-z
-x+y,y,-z
x,x-y,-z
-x+y,y,z
x,x-y,z
-y,-x,z
loop_
_atom_site_type_symbol
_atom_site_label
_atom_site_fract_x
_atom_site_fract_y
_atom_site_fract_z
Si Si1 0.296709 0.841221 0.692480
Si Si2 0.705306 0.920754 0.807274
Si Si3 0.918388 0.459194 0.188490
Si Si4 0.458617 0.298740 0.309388
Si Si5 0.298155 0.080471 0.807195
Si Si6 0.459489 0.918977 0.692874
O O1 0.297874 0.840361 0.500000
O O2 0.239105 0.760896 0.745033
O O3 0.264872 0.890267 0.747064
O O4 0.377675 0.876510 0.748621
O O5 0.728421 0.864211 0.756044
O O6 0.754821 0.000854 0.752504
O O7 0.703849 0.920914 0.000000
O O8 0.874020 0.496772 0.240781
O O9 0.998423 0.499212 0.258186
O O10 0.925804 0.462902 0.000000
O O11 0.464420 0.303148 0.500000
O O12 0.479279 0.239640 0.255490
O O13 0.376794 0.266707 0.260365
O O14 0.274846 0.137423 0.762032
O O15 0.302880 0.080430 0.000000
O O16 0.458900 0.917799 0.500000
#
# Coordination Sequence:
#
# PCOD9585727 Si02
#       6
#    12  12   6  12  12   6
#     4   9  18  32  48  69  96 126 162 203 248 294
#     4   9  17  29  46  68  94 125 159 195 238 287
#     4  12  24  36  54  78 104 134 170 210 252 302
#     4  10  21  37  55  75 100 130 164 204 251 301
#     4   9  17  30  49  72  98 127 161 203 247 292
#     4  10  20  34  52  74 102 134 170 214 260 306
#
# _framework density 17.419205000000002
#
# number of rings (size 3 to 8) (size 9 to 14) (size 15 to 20)
#    0.000    2.400    0.000    2.700    0.000    6.000 
#    1.200    0.000    0.000    0.400    0.000    2.800 
#    0.000    0.000    0.000   10.000    0.000   10.400 
#
# Total GULP energy -334583.672705 kJ/mol
# GULP energy per Si atom -5576.394545 kJ/mol
# Density = 1.737956 g / cm^3
# Si number density = 17.419205 Si / 1000 Ang^3
#
#
#
# Elastic Constant Matrix: (Units=GPa)
#
#
# Indices 1 2 3 4 5 6 
#
# 1 153.5266 111.2477 22.3150 0.0000 0.0000 0.0000
# 2 111.2477 153.5266 22.3150 0.0000 0.0000 0.0000
# 3 22.3150 22.3150 16.3697 0.0000 0.0000 0.0000
# 4 0.0000 0.0000 0.0000 12.0600 0.0000 0.0000
# 5 0.0000 0.0000 0.0000 0.0000 12.0600 0.0000
# 6 0.0000 0.0000 0.0000 0.0000 0.0000 21.1394
#
#
#
# Elastic Compliance Matrix: (Units=1/GPa)
#
#
# Indices 1 2 3 4 5 6 
#
# 1 0.014278 -0.009374 -0.006684 0.000000 0.000000 0.000000
# 2 -0.009374 0.014278 -0.006684 0.000000 0.000000 0.000000
# 3 -0.006684 -0.006684 0.079313 0.000000 0.000000 0.000000
# 4 0.000000 0.000000 0.000000 0.082919 0.000000 0.000000
# 5 0.000000 0.000000 0.000000 0.000000 0.082919 0.000000
# 6 0.000000 0.000000 0.000000 0.000000 0.000000 0.047305
#
#
# Mechanical properties :
#
#
# Convention : Reuss Voigt Hill
#
# Bulk Modulus (GPa) = 16.03024 70.57534 43.30279
# Shear Modulus (GPa) = 12.91015 20.22156 16.56586
#
# Velocity S-wave (km/s) = 2.72535 3.41086 3.08719
# Velocity P-wave (km/s) = 4.37333 7.49104 6.13358
#
# Compressibility (1/GPa) = 0.06238211
#
# Stress axis : x y z
#
# Youngs Moduli (GPa) = 70.03781 70.03781 12.60831
#
# Poissons Ratio (x) = 0.65657 0.08428
# Poissons Ratio (y) = 0.65657 0.08428
# Poissons Ratio (z) = 0.46816 0.46816
#
# Static dielectric constant tensor:
#      x y z
#    x 1.587670 0.000000 0.000000 
#    y 0.000000 1.587670 0.000000 
#    z 0.000000 0.000000 1.600260 
# 
# From -- ./inp_files/675.got.cif
#   From: 2010.05.17/outbox.cif.g08.bks.cpg/sg187_1_cif.got.tgz:675.got - 2010.05.20 12:09:04.
