data_PCOD9585930
_publ_section_title
;
Structure prediction by ZEFSAII (Michael W. Deem and Ramdas Pophale) SiO2 
 PCOD9585930
Probable space group: P -6 C 2
;
_chemical_formula_sum "Si O2"
_cell_formula_units_Z 72
_cell_length_a 24.373845
_cell_length_b 24.373845
_cell_length_c 8.804117
_cell_angle_alpha 90.000000
_cell_angle_beta 90.000000
_cell_angle_gamma 120.000000
_cell_volume 4529.648760
_symmetry_space_group_name_H-M "P -6 C 2"
_symmetry_group_IT_number 188
_symmetry_cell_setting 'hexagonal'
loop_
_space_group_symop_operation_xyz
x,y,z
-x+y,-x,1/2-z
-y,x-y,z
x,y,1/2-z
-x+y,-x,z
-y,x-y,1/2-z
-y,-x,-z
-x+y,y,-z
x,x-y,-z
-x+y,y,1/2+z
x,x-y,1/2+z
-y,-x,1/2+z
loop_
_atom_site_type_symbol
_atom_site_label
_atom_site_fract_x
_atom_site_fract_y
_atom_site_fract_z
Si Si1 0.446746 0.440026 0.924748
Si Si2 0.811883 0.069395 0.931814
Si Si3 0.147323 0.630233 0.576050
Si Si4 0.119333 0.120074 0.432984
Si Si5 0.330958 0.006429 0.931443
Si Si6 0.256615 0.398510 0.069287
O O1 0.452606 0.425535 0.750000
O O2 0.410337 0.480652 0.924672
O O3 0.514455 0.485545 0.000000
O O4 0.401309 0.377174 0.018243
O O5 0.818447 0.069748 0.750000
O O6 0.862493 0.137508 0.000000
O O7 0.831546 0.021047 0.006504
O O8 0.740990 0.047510 0.982029
O O9 0.168441 0.644059 0.750000
O O10 0.169600 0.584800 0.500000
O O11 0.163313 0.694139 0.489313
O O12 0.118058 0.118296 0.250000
O O13 0.104152 0.052076 0.500000
O O14 0.067968 0.135935 0.500000
O O15 0.327765 0.012455 0.750000
O O16 0.285788 0.931936 0.972610
O O17 0.253427 0.399446 0.250000
O O18 0.188340 0.376680 0.000000
#
# Coordination Sequence:
#
# PCOD9585930 Si02
#       6
#    12  12  12  12  12  12
#     4   9  16  27  45  70  96 122 150 183 222 266
#     4  11  22  37  54  72  95 126 163 202 245 298
#     4   9  16  27  44  64  87 114 147 182 221 269
#     4  11  21  35  52  71  92 117 153 201 256 310
#     4  10  20  34  50  70  96 127 161 198 239 287
#     4  10  20  32  47  67  93 122 155 196 243 290
#
# _framework density 15.895272
#
# number of rings (size 3 to 8) (size 9 to 14) (size 15 to 20)
#    0.000    2.000    0.000    6.167    0.000    6.667 
#    0.000    1.667    0.000    0.333    0.000    2.333 
#    0.000    0.000    0.000    0.500    0.000    7.000 
#
# Total GULP energy -401792.177745 kJ/mol
# GULP energy per Si atom -5580.446913 kJ/mol
# Density = 1.585909 g / cm^3
# Si number density = 15.895272 Si / 1000 Ang^3
#
#
#
# Elastic Constant Matrix: (Units=GPa)
#
#
# Indices 1 2 3 4 5 6 
#
# 1 65.3383 54.0886 41.2919 0.0002 0.0000 0.0000
# 2 54.0886 65.3383 41.2919 -0.0002 0.0000 0.0000
# 3 41.2919 41.2919 118.2339 0.0000 0.0000 0.0000
# 4 0.0002 -0.0002 0.0000 24.2614 0.0000 0.0000
# 5 0.0000 0.0000 0.0000 0.0000 24.2614 0.0002
# 6 0.0000 0.0000 0.0000 0.0000 0.0002 5.6249
#
#
#
# Elastic Compliance Matrix: (Units=1/GPa)
#
#
# Indices 1 2 3 4 5 6 
#
# 1 0.049965 -0.038926 -0.003855 -0.000001 0.000000 0.000000
# 2 -0.038926 0.049965 -0.003855 0.000001 0.000000 0.000000
# 3 -0.003855 -0.003855 0.011151 0.000000 0.000000 0.000000
# 4 -0.000001 0.000001 0.000000 0.041218 0.000000 0.000000
# 5 0.000000 0.000000 0.000000 0.000000 0.041218 -0.000001
# 6 0.000000 0.000000 0.000000 0.000000 -0.000001 0.177782
#
#
# Mechanical properties :
#
#
# Convention : Reuss Voigt Hill
#
# Bulk Modulus (GPa) = 56.15495 58.02839 57.09167
# Shear Modulus (GPa) = 10.62680 18.31205 14.46943
#
# Velocity S-wave (km/s) = 2.58844 3.39786 3.02039
# Velocity P-wave (km/s) = 6.65869 7.20971 6.93967
#
# Compressibility (1/GPa) = 0.01780787
#
# Stress axis : x y z
#
# Youngs Moduli (GPa) = 20.01392 20.01392 89.68051
#
# Poissons Ratio (x) = 0.77906 0.34575
# Poissons Ratio (y) = 0.77906 0.34575
# Poissons Ratio (z) = 0.07716 0.07716
#
# Static dielectric constant tensor:
#      x y z
#    x 1.522110 0.000000 0.000000 
#    y 0.000000 1.522110 0.000000 
#    z 0.000000 0.000000 1.532010 
# 
# From -- ./inp_files/1002.got.cif
#   From: 2010.05.17/outbox.cif.g08.bks.cpg/sg188_1_cif.got.tgz:1002.got - 2010.05.20 12:11:46.
