data_PCOD9585334
_publ_section_title
;
Structure prediction by ZEFSAII (Michael W. Deem and Ramdas Pophale) SiO2 
 PCOD9585334
Probable space group: P 63 M C
;
_chemical_formula_sum "Si O2"
_cell_formula_units_Z 96
_cell_length_a 17.535742
_cell_length_b 17.535742
_cell_length_c 23.529307
_cell_angle_alpha 90.000000
_cell_angle_beta 90.000000
_cell_angle_gamma 120.000000
_cell_volume 6265.966408
_symmetry_space_group_name_H-M "P 63 M C"
_symmetry_group_IT_number 186
_symmetry_cell_setting 'hexagonal'
loop_
_space_group_symop_operation_xyz
x,y,z
x-y,x,1/2+z
-y,x-y,z
-x,-y,1/2+z
-x+y,-x,z
y,-x+y,1/2+z
-x+y,y,z
x,x-y,z
-y,-x,z
y,x,1/2+z
x-y,-y,1/2+z
-x,-x+y,1/2+z
loop_
_atom_site_type_symbol
_atom_site_label
_atom_site_fract_x
_atom_site_fract_y
_atom_site_fract_z
Si Si1 0.486733 0.152915 0.705530
Si Si2 0.260759 0.345254 0.877051
Si Si3 0.000001 0.180719 0.455529
Si Si4 0.666038 0.511816 0.934094
Si Si5 0.609210 0.041455 0.592004
Si Si6 0.511815 0.845778 0.976963
Si Si7 0.609209 0.041452 0.819054
Si Si8 0.915504 0.260760 0.034007
O O1 0.588833 0.177665 0.705531
O O2 0.479439 0.239720 0.705530
O O3 0.444293 0.095513 0.649171
O O4 0.444290 0.095512 0.761888
O O5 0.176055 0.352111 0.859325
O O6 0.225020 0.247936 0.902919
O O7 0.306760 0.413434 0.929339
O O8 0.333914 0.370671 0.829359
O O9 0.913540 0.086461 0.465982
O O10 0.086458 0.172915 0.445075
O O11 0.022921 0.247938 0.508138
O O12 0.746674 0.493347 0.928715
O O13 0.576224 0.423777 0.950088
O O14 0.649242 0.544647 0.874079
O O15 0.693238 0.586564 0.981720
O O16 0.505711 0.011421 0.593133
O O17 0.649245 0.104599 0.536979
O O18 0.629331 0.963247 0.581699
O O19 0.423778 0.847556 0.960968
O O20 0.493343 0.746672 0.982339
O O21 0.505710 0.011419 0.817922
O O22 0.823943 0.176058 0.051734
#
# Coordination Sequence:
#
# PCOD9585334 Si02
#       8
#    12  12  12  12  12  12  12  12
#     4  10  21  34  51  72  98 130 162 196 231 278
#     4  10  19  31  49  71  94 124 158 196 240 288
#     4  10  19  30  45  66  92 120 152 192 239 288
#     4  10  18  28  45  70 101 131 158 190 232 285
#     4  10  19  32  48  69  97 128 163 198 238 283
#     4  10  18  28  45  70 101 131 158 190 232 285
#     4  10  19  32  48  69  97 128 163 198 238 283
#     4  10  19  31  49  71  94 124 158 196 240 288
#
# _framework density 15.320862
#
# number of rings (size 3 to 8) (size 9 to 14) (size 15 to 20)
#    0.000    2.000    2.500    2.000    0.000    3.000 
#    0.000    3.125    0.000    0.500    0.000    0.000 
#    0.000    0.000    0.000    0.000    0.000    0.000 
#
# Total GULP energy -535609.179282 kJ/mol
# GULP energy per Si atom -5579.262284 kJ/mol
# Density = 1.528599 g / cm^3
# Si number density = 15.320862 Si / 1000 Ang^3
#
#
#
# Elastic Constant Matrix: (Units=GPa)
#
#
# Indices 1 2 3 4 5 6 
#
# 1 116.9705 73.9295 47.7979 0.0000 0.0000 0.0000
# 2 73.9295 116.9705 47.7979 0.0000 0.0000 0.0000
# 3 47.7979 47.7979 67.1833 0.0000 0.0000 0.0000
# 4 0.0000 0.0000 0.0000 16.6977 0.0000 0.0000
# 5 0.0000 0.0000 0.0000 0.0000 16.6977 0.0000
# 6 0.0000 0.0000 0.0000 0.0000 0.0000 21.5205
#
#
#
# Elastic Compliance Matrix: (Units=1/GPa)
#
#
# Indices 1 2 3 4 5 6 
#
# 1 0.015686 -0.007548 -0.005789 0.000000 0.000000 0.000000
# 2 -0.007548 0.015686 -0.005789 0.000000 0.000000 0.000000
# 3 -0.005789 -0.005789 0.023123 0.000000 0.000000 0.000000
# 4 0.000000 0.000000 0.000000 0.059888 0.000000 0.000000
# 5 0.000000 0.000000 0.000000 0.000000 0.059888 0.000000
# 6 0.000000 0.000000 0.000000 0.000000 0.000000 0.046467
#
#
# Mechanical properties :
#
#
# Convention : Reuss Voigt Hill
#
# Bulk Modulus (GPa) = 61.57762 71.13056 66.35409
# Shear Modulus (GPa) = 18.91037 19.75645 19.33341
#
# Velocity S-wave (km/s) = 3.51706 3.59487 3.55618
# Velocity P-wave (km/s) = 7.53473 7.98492 7.76309
#
# Compressibility (1/GPa) = 0.01623967
#
# Stress axis : x y z
#
# Youngs Moduli (GPa) = 63.75280 63.75280 43.24784
#
# Poissons Ratio (x) = 0.48121 0.25038
# Poissons Ratio (y) = 0.48121 0.25038
# Poissons Ratio (z) = 0.36910 0.36910
#
# Static dielectric constant tensor:
#      x y z
#    x 1.513500 0.000000 0.000000 
#    y 0.000000 1.513500 0.000000 
#    z 0.000000 0.000000 1.476780 
# 
# From -- ./inp_files/3589.got.cif
#   From: 2010.05.17/outbox.cif.g08.bks.cpg/sg186_2_cif.got.tgz:3589.got - 2010.05.20 12:07:08.
