data_PCOD9585118
_publ_section_title
;
Structure prediction by ZEFSAII (Michael W. Deem and Ramdas Pophale) SiO2 
 PCOD9585118
Probable space group: P 6 C C
;
_chemical_formula_sum "Si O2"
_cell_formula_units_Z 60
_cell_length_a 16.823302
_cell_length_b 16.823302
_cell_length_c 13.546491
_cell_angle_alpha 90.000000
_cell_angle_beta 90.000000
_cell_angle_gamma 120.000000
_cell_volume 3320.319888
_symmetry_space_group_name_H-M "P 6 C C"
_symmetry_group_IT_number 184
_symmetry_cell_setting 'hexagonal'
loop_
_space_group_symop_operation_xyz
x,y,z
x-y,x,z
-y,x-y,z
-x,-y,z
-x+y,-x,z
y,-x+y,z
-x+y,y,1/2+z
x,x-y,1/2+z
-y,-x,1/2+z
y,x,1/2+z
x-y,-y,1/2+z
-x,-x+y,1/2+z
loop_
_atom_site_type_symbol
_atom_site_label
_atom_site_fract_x
_atom_site_fract_y
_atom_site_fract_z
Si Si1 0.138619 0.514812 0.520820
Si Si2 0.362922 1.000000 0.887498
Si Si3 0.514812 0.376194 0.754177
Si Si4 0.163736 0.451966 0.018861
Si Si5 0.548034 0.836264 0.756136
O O1 0.126558 0.510445 0.637498
O O2 0.212820 0.482618 0.500604
O O3 0.161300 0.616512 0.493028
O O4 0.047457 0.439792 0.469827
O O5 0.392335 0.952543 0.805170
O O6 0.369878 0.086381 0.824381
O O7 0.283497 0.913619 0.950615
O O8 0.616512 0.455213 0.781969
O O9 0.482617 0.269798 0.774393
O O10 0.146009 0.432837 0.137498
#
# Coordination Sequence:
#
# PCOD9585118 Si02
#       5
#    12  12  12  12  12
#     4  10  20  33  48  66  90 122 159 196 232 271
#     4  12  21  30  46  68  92 118 153 198 241 274
#     4  10  20  33  48  66  90 122 159 196 232 271
#     4  10  20  33  48  66  90 122 159 196 232 271
#     4  10  20  33  48  66  90 122 159 196 232 271
#
# _framework density 18.070547999999999
#
# number of rings (size 3 to 8) (size 9 to 14) (size 15 to 20)
#    0.000    1.600    0.000    6.800    0.000    6.400 
#    0.000    4.000    0.000    0.000    0.000    0.000 
#    0.000    0.000    0.000   38.400    0.000  288.000 
#
# Total GULP energy -334391.553673 kJ/mol
# GULP energy per Si atom -5573.192561 kJ/mol
# Density = 1.802942 g / cm^3
# Si number density = 18.070548 Si / 1000 Ang^3
#
#
#
# Elastic Constant Matrix: (Units=GPa)
#
#
# Indices 1 2 3 4 5 6 
#
# 1 49.7651 27.2289 12.4699 0.0000 0.0000 0.0000
# 2 27.2289 49.7651 12.4699 0.0000 0.0000 0.0000
# 3 12.4699 12.4699 58.2611 0.0000 0.0000 0.0000
# 4 0.0000 0.0000 0.0000 33.7335 0.0000 0.0000
# 5 0.0000 0.0000 0.0000 0.0000 33.7335 0.0000
# 6 0.0000 0.0000 0.0000 0.0000 0.0000 11.2681
#
#
#
# Elastic Compliance Matrix: (Units=1/GPa)
#
#
# Indices 1 2 3 4 5 6 
#
# 1 0.029164 -0.015209 -0.002987 0.000000 0.000000 0.000000
# 2 -0.015209 0.029164 -0.002987 0.000000 0.000000 0.000000
# 3 -0.002987 -0.002987 0.018443 0.000000 0.000000 0.000000
# 4 0.000000 0.000000 0.000000 0.029644 0.000000 0.000000
# 5 0.000000 0.000000 0.000000 0.000000 0.029644 0.000000
# 6 0.000000 0.000000 0.000000 0.000000 0.000000 0.088746
#
#
# Mechanical properties :
#
#
# Convention : Reuss Voigt Hill
#
# Bulk Modulus (GPa) = 29.06472 29.12540 29.09506
# Shear Modulus (GPa) = 17.94430 22.78852 20.36641
#
# Velocity S-wave (km/s) = 3.15463 3.55503 3.36080
# Velocity P-wave (km/s) = 5.42106 5.74487 5.58531
#
# Compressibility (1/GPa) = 0.03440598
#
# Stress axis : x y z
#
# Youngs Moduli (GPa) = 34.28845 34.28845 54.22188
#
# Poissons Ratio (x) = 0.52149 0.16196
# Poissons Ratio (y) = 0.52149 0.16196
# Poissons Ratio (z) = 0.10242 0.10242
#
# Static dielectric constant tensor:
#      x y z
#    x 1.652940 0.000000 0.000000 
#    y 0.000000 1.652940 0.000000 
#    z 0.000000 0.000000 1.721440 
# 
# From -- ./inp_files/847.got.cif
#   From: 2010.05.17/outbox.cif.g08.bks.cpg/sg184_cif.got.tgz:847.got - 2010.05.20 12:04:40.
