data_PCOD9585086
_publ_section_title
;
Structure prediction by ZEFSAII (Michael W. Deem and Ramdas Pophale) SiO2 
 PCOD9585086
Probable space group: P 6 M M
;
_chemical_formula_sum "Si O2"
_cell_formula_units_Z 96
_cell_length_a 18.000000
_cell_length_b 18.000000
_cell_length_c 21.000000
_cell_angle_alpha 90.000000
_cell_angle_beta 90.000000
_cell_angle_gamma 120.000000
_cell_volume 5892.436847
_symmetry_space_group_name_H-M "P 6 M M"
_symmetry_group_IT_number 183
_symmetry_cell_setting 'hexagonal'
loop_
_space_group_symop_operation_xyz
x,y,z
x-y,x,z
-y,x-y,z
-x,-y,z
-x+y,-x,z
y,-x+y,z
-x+y,y,z
x,x-y,z
-y,-x,z
y,x,z
x-y,-y,z
-x,-x+y,z
loop_
_atom_site_type_symbol
_atom_site_label
_atom_site_fract_x
_atom_site_fract_y
_atom_site_fract_z
Si Si1 0.906507 0.640767 0.863040
Si Si2 0.093601 0.358131 0.498171
Si Si3 0.666244 0.157384 0.606441
Si Si4 0.333399 0.491169 0.750636
Si Si5 0.162415 0.668410 0.246306
Si Si6 0.668973 0.164259 0.971616
Si Si7 0.905518 0.264676 0.354729
Si Si8 0.638901 0.097681 0.109159
O O1 0.831535 0.663069 0.862087
O O2 0.893287 0.580874 0.802411
O O3 0.892104 0.581903 0.924548
O O4 0.000000 0.721023 0.863106
O O5 0.168170 0.336339 0.508030
O O6 0.103715 0.424791 0.551933
O O7 0.104259 0.395031 0.426582
O O8 0.000000 0.276957 0.501730
O O9 0.578854 0.157707 0.598083
O O10 0.746349 0.253651 0.601109
O O11 0.667459 0.127795 0.678555
O O12 0.256735 0.513470 0.754878
O O13 0.423931 0.576070 0.762291
O O14 0.148599 0.574300 0.248836
O O15 0.261261 0.738740 0.256847
O O16 0.109176 0.681480 0.301215
O O17 0.136600 0.683232 0.176034
O O18 0.573057 0.146114 0.963657
O O19 0.737134 0.262867 0.956152
O O20 0.681894 0.146526 0.044571
O O21 0.832663 0.167338 0.346090
O O22 0.000000 0.280178 0.349186
O O23 0.548866 0.097731 0.111506
O O24 0.615479 0.000000 0.104132
#
# Coordination Sequence:
#
# PCOD9585086 Si02
#       8
#    12  12  12  12  12  12  12  12
#     4  10  21  35  50  68  90 117 148 185 229 273
#     4   9  18  32  48  66  88 114 145 181 224 271
#     4   9  17  29  45  66  93 125 158 189 219 252
#     4   9  17  29  46  68  95 126 157 186 216 253
#     4  10  19  30  44  63  89 121 156 191 225 261
#     4  10  19  30  45  66  94 127 159 187 216 256
#     4   9  18  32  49  67  87 113 144 180 223 271
#     4   9  17  28  42  60  83 115 156 198 232 258
#
# _framework density 16.292071
#
# number of rings (size 3 to 8) (size 9 to 14) (size 15 to 20)
#    0.000    2.625    0.000    2.000    0.000    4.500 
#    0.000    5.000    0.000    1.875    0.000    1.750 
#    0.000    0.000    0.000    6.250    0.000   29.250 
#
# Total GULP energy -534594.289853 kJ/mol
# GULP energy per Si atom -5568.690519 kJ/mol
# Density = 1.625499 g / cm^3
# Si number density = 16.292071 Si / 1000 Ang^3
#
#
#
# Elastic Constant Matrix: (Units=GPa)
#
#
# Indices 1 2 3 4 5 6 
#
# 1 36.1290 66.1231 47.2635 0.0000 0.0000 0.0000
# 2 66.1231 36.1290 47.2635 0.0000 0.0000 0.0000
# 3 47.2635 47.2635 89.4736 0.0000 0.0000 0.0000
# 4 0.0000 0.0000 0.0000 9.8917 0.0000 0.0000
# 5 0.0000 0.0000 0.0000 0.0000 9.8917 0.0000
# 6 0.0000 0.0000 0.0000 0.0000 0.0000 -14.9970
#
#
#
# Elastic Compliance Matrix: (Units=1/GPa)
#
#
# Indices 1 2 3 4 5 6 
#
# 1 -0.007113 0.026227 -0.010096 0.000000 0.000000 0.000000
# 2 0.026227 -0.007113 -0.010096 0.000000 0.000000 0.000000
# 3 -0.010096 -0.010096 0.021843 0.000000 0.000000 0.000000
# 4 0.000000 0.000000 0.000000 0.101094 0.000000 0.000000
# 5 0.000000 0.000000 0.000000 0.000000 0.101094 0.000000
# 6 0.000000 0.000000 0.000000 0.000000 0.000000 -0.066680
#
#
# Mechanical properties :
#
#
# Convention : Reuss Voigt Hill
#
# Bulk Modulus (GPa) = 50.80226 53.67021 52.23624
# Shear Modulus (GPa) = 36.33208 1.02940 18.68074
#
# Velocity S-wave (km/s) = 4.72746 0.79575 3.38984
# Velocity P-wave (km/s) = 7.81335 5.81879 6.88864
#
# Compressibility (1/GPa) = 0.01968416
#
# Stress axis : x y z
#
# Youngs Moduli (GPa) = -140.58257 -140.58257 45.78093
#
# Poissons Ratio (x) = 3.68701 0.46222
# Poissons Ratio (y) = 3.68701 0.46222
# Poissons Ratio (z) = -1.41938 -1.41938
#
# Static dielectric constant tensor:
#      x y z
#    x 1.532880 0.000000 0.000000 
#    y 0.000000 1.532880 0.000000 
#    z 0.000000 0.000000 1.571720 
# 
# From -- ./inp_files/3067.got.cif
#   From: 2010.05.17/outbox.ucp.g08.bks.cvg/sg183_2_cif.got.tgz:3067.got - 2010.06.11 15:21:10.
