data_PCOD9585023
_publ_section_title
;
Structure prediction by ZEFSAII (Michael W. Deem and Ramdas Pophale) SiO2 
 PCOD9585023
Probable space group: P 6 M M
;
_chemical_formula_sum "Si O2"
_cell_formula_units_Z 96
_cell_length_a 18.146586
_cell_length_b 18.146586
_cell_length_c 20.562218
_cell_angle_alpha 90.000000
_cell_angle_beta 90.000000
_cell_angle_gamma 120.000000
_cell_volume 5863.952631
_symmetry_space_group_name_H-M "P 6 M M"
_symmetry_group_IT_number 183
_symmetry_cell_setting 'hexagonal'
loop_
_space_group_symop_operation_xyz
x,y,z
x-y,x,z
-y,x-y,z
-x,-y,z
-x+y,-x,z
y,-x+y,z
-x+y,y,z
x,x-y,z
-y,-x,z
y,x,z
x-y,-y,z
-x,-x+y,z
loop_
_atom_site_type_symbol
_atom_site_label
_atom_site_fract_x
_atom_site_fract_y
_atom_site_fract_z
Si Si1 0.268524 0.903261 0.043810
Si Si2 0.666393 0.160568 0.159549
Si Si3 0.467400 0.365300 0.543126
Si Si4 0.495954 0.331970 0.687962
Si Si5 0.667510 0.507568 0.923068
Si Si6 0.731551 0.096870 0.802345
Si Si7 0.494176 0.333835 0.310609
Si Si8 0.097150 0.360040 0.422676
O O1 0.169330 0.830671 0.040993
O O2 0.307129 0.890397 0.110689
O O3 0.290645 0.000000 0.037631
O O4 0.314854 0.881523 0.986013
O O5 0.575509 0.151018 0.143337
O O6 0.740574 0.259427 0.153535
O O7 0.664647 0.135950 0.235035
O O8 0.563852 0.436149 0.525214
O O9 0.415916 0.415916 0.551455
O O10 0.470098 0.327428 0.612690
O O11 0.421371 0.299583 0.485426
O O12 0.524825 0.262412 0.700081
O O13 0.573497 0.426504 0.700477
O O14 0.417168 0.306497 0.735544
O O15 0.740557 0.481114 0.923044
O O16 0.574760 0.425241 0.923025
O O17 0.685091 0.566771 0.860195
O O18 0.830828 0.169173 0.805495
O O19 0.709115 0.000000 0.807986
O O20 0.516884 0.258442 0.316649
O O21 0.575835 0.424165 0.326221
O O22 0.417963 0.309979 0.360068
O O23 0.163852 0.327704 0.416434
O O24 0.000000 0.287913 0.429410
#
# Coordination Sequence:
#
# PCOD9585023 Si02
#       8
#    12  12  12  12  12  12  12  12
#     4  10  21  35  50  69  93 122 156 196 241 283
#     4   9  17  29  46  69  98 130 160 187 217 258
#     4   9  17  29  46  68  93 121 153 188 224 265
#     4  10  19  30  45  67  97 131 164 194 223 258
#     4  10  20  33  50  73 102 134 164 191 220 259
#     4  10  21  35  51  71  94 122 156 196 241 284
#     4   9  17  29  46  69  97 128 158 186 217 258
#     4  10  20  33  48  66  89 117 151 191 235 280
#
# _framework density 16.371210999999999
#
# number of rings (size 3 to 8) (size 9 to 14) (size 15 to 20)
#    0.000    2.375    0.000    2.750    0.000    5.250 
#    0.000    3.750    0.000    4.375    0.000    0.000 
#    0.000    3.000    0.000   10.250    0.000    0.000 
#
# Total GULP energy -535588.761271 kJ/mol
# GULP energy per Si atom -5579.049597 kJ/mol
# Density = 1.633395 g / cm^3
# Si number density = 16.371211 Si / 1000 Ang^3
#
#
#
# Elastic Constant Matrix: (Units=GPa)
#
#
# Indices 1 2 3 4 5 6 
#
# 1 85.3899 70.4942 39.1994 0.0000 0.0000 0.0000
# 2 70.4942 85.3899 39.1994 0.0000 0.0000 0.0000
# 3 39.1994 39.1994 63.2575 0.0000 0.0000 0.0000
# 4 0.0000 0.0000 0.0000 16.2019 0.0000 0.0000
# 5 0.0000 0.0000 0.0000 0.0000 16.2019 0.0000
# 6 0.0000 0.0000 0.0000 0.0000 0.0000 7.4478
#
#
#
# Elastic Compliance Matrix: (Units=1/GPa)
#
#
# Indices 1 2 3 4 5 6 
#
# 1 0.038227 -0.028907 -0.005775 0.000000 0.000000 0.000000
# 2 -0.028907 0.038227 -0.005775 0.000000 0.000000 0.000000
# 3 -0.005775 -0.005775 0.022966 0.000000 0.000000 0.000000
# 4 0.000000 0.000000 0.000000 0.061721 0.000000 0.000000
# 5 0.000000 0.000000 0.000000 0.000000 0.061721 0.000000
# 6 0.000000 0.000000 0.000000 0.000000 0.000000 0.134267
#
#
# Mechanical properties :
#
#
# Convention : Reuss Voigt Hill
#
# Bulk Modulus (GPa) = 54.04119 59.09148 56.56633
# Shear Modulus (GPa) = 11.25591 13.64662 12.45127
#
# Velocity S-wave (km/s) = 2.62495 2.89030 2.76081
# Velocity P-wave (km/s) = 6.50144 6.87834 6.69254
#
# Compressibility (1/GPa) = 0.01850440
#
# Stress axis : x y z
#
# Youngs Moduli (GPa) = 26.15983 26.15983 43.54299
#
# Poissons Ratio (x) = 0.75620 0.25147
# Poissons Ratio (y) = 0.75620 0.25147
# Poissons Ratio (z) = 0.15108 0.15108
#
# Static dielectric constant tensor:
#      x y z
#    x 1.535380 0.000000 0.000000 
#    y 0.000000 1.535380 0.000000 
#    z 0.000000 0.000000 1.561180 
# 
# From -- ./inp_files/3050.got.cif
#   From: 2010.05.17/outbox.cif.g08.bks.cpg/sg183_2_cif.got.tgz:3050.got - 2010.05.20 12:02:58.
