data_PCOD9585020
_publ_section_title
;
Structure prediction by ZEFSAII (Michael W. Deem and Ramdas Pophale) SiO2 
 PCOD9585020
Probable space group: P 6 M M
;
_chemical_formula_sum "Si O2"
_cell_formula_units_Z 72
_cell_length_a 18.460220
_cell_length_b 18.460220
_cell_length_c 15.182256
_cell_angle_alpha 90.000000
_cell_angle_beta 90.000000
_cell_angle_gamma 120.000000
_cell_volume 4480.646552
_symmetry_space_group_name_H-M "P 6 M M"
_symmetry_group_IT_number 183
_symmetry_cell_setting 'hexagonal'
loop_
_space_group_symop_operation_xyz
x,y,z
x-y,x,z
-y,x-y,z
-x,-y,z
-x+y,-x,z
y,-x+y,z
-x+y,y,z
x,x-y,z
-y,-x,z
y,x,z
x-y,-y,z
-x,-x+y,z
loop_
_atom_site_type_symbol
_atom_site_label
_atom_site_fract_x
_atom_site_fract_y
_atom_site_fract_z
Si Si1 0.467540 0.367837 0.306770
Si Si2 0.640450 0.739391 0.467768
Si Si3 0.833490 0.332582 0.823525
Si Si4 0.736296 0.094773 0.967767
Si Si5 0.900297 0.367837 0.628765
Si Si6 0.833490 0.500908 0.112011
O O1 0.559917 0.440084 0.336247
O O2 0.415532 0.415532 0.289827
O O3 0.418444 0.301325 0.382500
O O4 0.477032 0.331521 0.214670
O O5 0.676215 0.838108 0.467767
O O6 0.707628 0.707628 0.467768
O O7 0.581556 0.698676 0.553037
O O8 0.848967 0.424484 0.844165
O O9 0.737422 0.262579 0.840067
O O10 0.887955 0.306664 0.883804
O O11 0.854489 0.331523 0.720865
O O12 0.833527 0.166474 0.967766
O O13 0.715698 0.000000 0.967768
O O14 0.693338 0.112047 0.051731
O O15 0.880168 0.440084 0.599288
O O16 0.000000 0.415531 0.645709
O O17 0.737421 0.474841 0.095469
O O18 0.848968 0.424484 0.091372
#
# Coordination Sequence:
#
# PCOD9585020 Si02
#       6
#    12  12  12  12  12  12
#     4   9  17  29  46  67  90 118 152 189 227 267
#     4  10  19  31  47  66  89 117 152 192 233 277
#     4  10  19  30  45  67  97 130 161 189 217 252
#     4  10  21  35  51  70  91 117 150 190 233 275
#     4   9  17  29  46  67  90 118 152 189 227 267
#     4  10  19  30  45  67  97 130 161 189 217 252
#
# _framework density 16.069109000000001
#
# number of rings (size 3 to 8) (size 9 to 14) (size 15 to 20)
#    0.000    2.333    0.000    3.333    0.000    4.667 
#    0.000    1.667    0.000    5.000    0.000    0.000 
#    0.000    0.000    0.000   10.667    0.000    0.000 
#
# Total GULP energy -401599.930318 kJ/mol
# GULP energy per Si atom -5577.776810 kJ/mol
# Density = 1.603254 g / cm^3
# Si number density = 16.069109 Si / 1000 Ang^3
#
#
#
# Elastic Constant Matrix: (Units=GPa)
#
#
# Indices 1 2 3 4 5 6 
#
# 1 86.3138 53.9179 33.3812 0.0000 0.0000 0.0000
# 2 53.9179 86.3138 33.3812 0.0000 0.0000 0.0000
# 3 33.3812 33.3812 57.6547 0.0000 0.0000 0.0000
# 4 0.0000 0.0000 0.0000 18.2280 0.0000 0.0000
# 5 0.0000 0.0000 0.0000 0.0000 18.2280 0.0000
# 6 0.0000 0.0000 0.0000 0.0000 0.0000 16.1980
#
#
#
# Elastic Compliance Matrix: (Units=1/GPa)
#
#
# Indices 1 2 3 4 5 6 
#
# 1 0.020356 -0.010512 -0.005700 0.000000 0.000000 0.000000
# 2 -0.010512 0.020356 -0.005700 0.000000 0.000000 0.000000
# 3 -0.005700 -0.005700 0.023945 0.000000 0.000000 0.000000
# 4 0.000000 0.000000 0.000000 0.054861 0.000000 0.000000
# 5 0.000000 0.000000 0.000000 0.000000 0.054861 0.000000
# 6 0.000000 0.000000 0.000000 0.000000 0.000000 0.061736
#
#
# Mechanical properties :
#
#
# Convention : Reuss Voigt Hill
#
# Bulk Modulus (GPa) = 47.99692 52.40475 50.20083
# Shear Modulus (GPa) = 17.42870 17.83761 17.63316
#
# Velocity S-wave (km/s) = 3.29691 3.33536 3.31619
# Velocity P-wave (km/s) = 6.66534 6.89317 6.78021
#
# Compressibility (1/GPa) = 0.02083467
#
# Stress axis : x y z
#
# Youngs Moduli (GPa) = 49.12458 49.12458 41.76239
#
# Poissons Ratio (x) = 0.51638 0.23804
# Poissons Ratio (y) = 0.51638 0.23804
# Poissons Ratio (z) = 0.28001 0.28001
#
# Static dielectric constant tensor:
#      x y z
#    x 1.525720 0.000000 0.000000 
#    y 0.000000 1.525720 0.000000 
#    z 0.000000 0.000000 1.540220 
# 
# From -- ./inp_files/2502.got.cif
#   From: 2010.05.17/outbox.cif.g08.bks.cpg/sg183_2_cif.got.tgz:2502.got - 2010.05.20 12:02:58.
