data_PCOD9585301
_publ_section_title
;
Structure prediction by ZEFSAII (Michael W. Deem and Ramdas Pophale) SiO2 
 PCOD9585301
Probable space group: P 63 C M
;
_chemical_formula_sum "Si O2"
_cell_formula_units_Z 52
_cell_length_a 11.416249
_cell_length_b 11.416249
_cell_length_c 24.041693
_cell_angle_alpha 90.000000
_cell_angle_beta 90.000000
_cell_angle_gamma 120.000000
_cell_volume 2713.579465
_symmetry_space_group_name_H-M "P 63 C M"
_symmetry_group_IT_number 185
_symmetry_cell_setting 'hexagonal'
loop_
_space_group_symop_operation_xyz
x,y,z
x-y,x,1/2+z
-y,x-y,z
-x,-y,1/2+z
-x+y,-x,z
y,-x+y,1/2+z
-x+y,y,1/2+z
x,x-y,1/2+z
-y,-x,1/2+z
y,x,z
x-y,-y,z
-x,-x+y,z
loop_
_atom_site_type_symbol
_atom_site_label
_atom_site_fract_x
_atom_site_fract_y
_atom_site_fract_z
Si Si1 0.000000 0.000000 0.742115
Si Si2 0.730476 0.000000 0.108069
Si Si3 0.494249 0.280927 0.317305
Si Si4 0.730476 0.730476 0.741059
Si Si5 0.719073 0.213322 0.031822
Si Si6 0.843308 0.156692 0.424563
Si Si7 0.000000 0.000000 0.107012
O O1 0.000000 0.134334 0.759902
O O2 0.000000 0.000000 0.674564
O O3 0.724495 0.000000 0.174564
O O4 0.736026 0.132150 0.082077
O O5 0.865666 0.000000 0.089225
O O6 0.567570 0.191022 0.315891
O O7 0.396125 0.263975 0.267050
O O8 0.408339 0.242934 0.373531
O O9 0.808978 0.376548 0.033237
O O10 0.757068 0.165406 0.975596
O O11 0.000000 0.220851 0.408213
O O12 0.779152 0.000000 0.440914
#
# Coordination Sequence:
#
# PCOD9585301 Si02
#       7
#     2   6  12   6  12  12   2
#     4   9  24  45  66  97 128 181 228 285 343 395
#     4  11  24  45  71  99 141 182 234 290 342 420
#     4  10  25  42  66 102 135 182 229 279 353 411
#     4  11  24  45  71  99 141 182 234 290 342 420
#     4  10  25  42  66 102 135 182 229 279 353 411
#     4  12  25  42  70 103 142 184 228 292 350 421
#     4   9  24  45  66  97 128 181 228 285 343 395
#
# _framework density 19.162882
#
# number of rings (size 3 to 8) (size 9 to 14) (size 15 to 20)
#    0.923    0.462    2.308    1.615    6.462    3.692 
#    0.000    2.308    0.000    0.000    0.000    0.000 
#    0.000    0.000    0.000    0.000    0.000    0.000 
#
# Total GULP energy -290197.768613 kJ/mol
# GULP energy per Si atom -5580.726319 kJ/mol
# Density = 1.911927 g / cm^3
# Si number density = 19.162882 Si / 1000 Ang^3
#
#
#
# Elastic Constant Matrix: (Units=GPa)
#
#
# Indices 1 2 3 4 5 6 
#
# 1 117.1069 74.2129 45.6311 0.0000 0.0000 0.0000
# 2 74.2129 117.1069 45.6311 0.0000 0.0000 0.0000
# 3 45.6311 45.6311 113.2025 0.0000 0.0000 0.0000
# 4 0.0000 0.0000 0.0000 42.7246 0.0000 0.0000
# 5 0.0000 0.0000 0.0000 0.0000 42.7246 0.0000
# 6 0.0000 0.0000 0.0000 0.0000 0.0000 21.4470
#
#
#
# Elastic Compliance Matrix: (Units=1/GPa)
#
#
# Indices 1 2 3 4 5 6 
#
# 1 0.014892 -0.008421 -0.002608 0.000000 0.000000 0.000000
# 2 -0.008421 0.014892 -0.002608 0.000000 0.000000 0.000000
# 3 -0.002608 -0.002608 0.010937 0.000000 0.000000 0.000000
# 4 0.000000 0.000000 0.000000 0.023406 0.000000 0.000000
# 5 0.000000 0.000000 0.000000 0.000000 0.023406 0.000000
# 6 0.000000 0.000000 0.000000 0.000000 0.000000 0.046627
#
#
# Mechanical properties :
#
#
# Convention : Reuss Voigt Hill
#
# Bulk Modulus (GPa) = 74.37692 75.37404 74.87548
# Shear Modulus (GPa) = 30.13561 33.50866 31.82213
#
# Velocity S-wave (km/s) = 3.96991 4.18619 4.07948
# Velocity P-wave (km/s) = 7.74021 7.92366 7.83247
#
# Compressibility (1/GPa) = 0.01344503
#
# Stress axis : x y z
#
# Youngs Moduli (GPa) = 67.14924 67.14924 91.43585
#
# Poissons Ratio (x) = 0.56547 0.23851
# Poissons Ratio (y) = 0.56547 0.23851
# Poissons Ratio (z) = 0.17516 0.17516
#
# Static dielectric constant tensor:
#      x y z
#    x 1.664110 0.000000 0.000000 
#    y 0.000000 1.664110 0.000000 
#    z 0.000000 0.000000 1.628570 
# 
# From -- ./inp_files/2041.got.cif
#   From: 2010.05.17/outbox.cif.g08.bks.cpg/sg185_cif.got.tgz:2041.got - 2010.05.20 12:05:34.
