data_PCOD9585211
_publ_section_title
;
Structure prediction by ZEFSAII (Michael W. Deem and Ramdas Pophale) SiO2 
 PCOD9585211
Probable space group: P 6 C C
;
_chemical_formula_sum "Si O2"
_cell_formula_units_Z 84
_cell_length_a 18.000000
_cell_length_b 18.000000
_cell_length_c 15.000000
_cell_angle_alpha 90.000000
_cell_angle_beta 90.000000
_cell_angle_gamma 120.000000
_cell_volume 4208.883462
_symmetry_space_group_name_H-M "P 6 C C"
_symmetry_group_IT_number 184
_symmetry_cell_setting 'hexagonal'
loop_
_space_group_symop_operation_xyz
x,y,z
x-y,x,z
-y,x-y,z
-x,-y,z
-x+y,-x,z
y,-x+y,z
-x+y,y,1/2+z
x,x-y,1/2+z
-y,-x,1/2+z
y,x,1/2+z
x-y,-y,1/2+z
-x,-x+y,1/2+z
loop_
_atom_site_type_symbol
_atom_site_label
_atom_site_fract_x
_atom_site_fract_y
_atom_site_fract_z
Si Si1 0.059446 0.304197 0.177830
Si Si2 0.671653 0.238783 0.344596
Si Si3 0.846121 0.037053 0.008195
Si Si4 0.244788 0.805991 0.730670
Si Si5 0.553792 0.956011 0.139727
Si Si6 0.956353 0.266085 0.350587
Si Si7 0.055677 0.598916 0.927434
O O1 0.039421 0.236865 0.100581
O O2 0.161722 0.365151 0.180979
O O3 0.017156 0.363225 0.159705
O O4 0.012754 0.259137 0.270275
O O5 0.747881 0.337787 0.358270
O O6 0.709864 0.224389 0.252812
O O7 0.648822 0.155245 0.400363
O O8 0.944022 0.109040 0.001886
O O9 0.796842 0.054215 0.929280
O O10 0.335059 0.863791 0.681325
O O11 0.250710 0.864740 0.815582
O O12 0.500000 0.000000 0.173158
O O13 0.544899 0.947428 0.033859
O O14 0.010791 0.362551 0.386533
O O15 0.000000 0.500000 0.896248
#
# Coordination Sequence:
#
# PCOD9585211 Si02
#       7
#    12  12  12  12  12  12  12
#     4  11  23  43  67 100 130 173 227 276 328 407
#     4  10  24  41  63 100 135 179 223 278 343 404
#     4  12  26  45  69  99 134 169 215 280 345 410
#     4  11  23  40  67  95 136 175 225 274 341 391
#     4  10  24  41  65  95 130 177 223 280 329 403
#     4  11  23  41  71  97 129 179 225 275 324 415
#     4  11  22  45  65  96 130 181 231 275 336 398
#
# _framework density 19.957787
#
# number of rings (size 3 to 8) (size 9 to 14) (size 15 to 20)
#    0.286    0.857    2.857    3.571    2.000    2.286 
#    5.143    0.000    0.000    1.714    0.000    0.000 
#    0.000    0.000    0.000    0.000    0.000    0.000 
#
# Total GULP energy -468540.480093 kJ/mol
# GULP energy per Si atom -5577.862858 kJ/mol
# Density = 1.991236 g / cm^3
# Si number density = 19.957787 Si / 1000 Ang^3
#
#
#
# Elastic Constant Matrix: (Units=GPa)
#
#
# Indices 1 2 3 4 5 6 
#
# 1 94.3797 30.9920 36.3308 0.0000 0.0000 0.0000
# 2 30.9920 94.3797 36.3308 0.0000 0.0000 0.0000
# 3 36.3308 36.3308 92.9971 0.0000 0.0000 0.0000
# 4 0.0000 0.0000 0.0000 2.6958 0.0000 0.0000
# 5 0.0000 0.0000 0.0000 0.0000 2.6958 0.0000
# 6 0.0000 0.0000 0.0000 0.0000 0.0000 31.6939
#
#
#
# Elastic Compliance Matrix: (Units=1/GPa)
#
#
# Indices 1 2 3 4 5 6 
#
# 1 0.013043 -0.002733 -0.004028 0.000000 0.000000 0.000000
# 2 -0.002733 0.013043 -0.004028 0.000000 0.000000 0.000000
# 3 -0.004028 -0.004028 0.013900 0.000000 0.000000 0.000000
# 4 0.000000 0.000000 0.000000 0.370948 0.000000 0.000000
# 5 0.000000 0.000000 0.000000 0.000000 0.370948 0.000000
# 6 0.000000 0.000000 0.000000 0.000000 0.000000 0.031552
#
#
# Mechanical properties :
#
#
# Convention : Reuss Voigt Hill
#
# Bulk Modulus (GPa) = 54.31947 54.34042 54.32994
# Shear Modulus (GPa) = 5.94425 19.29063 12.61744
#
# Velocity S-wave (km/s) = 1.72768 3.11235 2.51710
# Velocity P-wave (km/s) = 5.59072 6.34053 5.97739
#
# Compressibility (1/GPa) = 0.01840961
#
# Stress axis : x y z
#
# Youngs Moduli (GPa) = 76.66724 76.66724 71.94087
#
# Poissons Ratio (x) = 0.20950 0.28978
# Poissons Ratio (y) = 0.20950 0.28978
# Poissons Ratio (z) = 0.30882 0.30882
#
# Static dielectric constant tensor:
#      x y z
#    x 1.699860 0.000000 0.000000 
#    y 0.000000 1.699860 0.000000 
#    z 0.000000 0.000000 1.723710 
# 
# From -- ./inp_files/946.got.cif
#   From: 2010.05.17/outbox.ucp.g08.bks.cvg/sg184_cif.got.tgz:946.got - 2010.06.11 15:21:18.
