data_PCOD9585893
_publ_section_title
;
Structure prediction by ZEFSAII (Michael W. Deem and Ramdas Pophale) SiO2 
 PCOD9585893
Probable space group: P -6 C 2
;
_chemical_formula_sum "Si O2"
_cell_formula_units_Z 72
_cell_length_a 15.630979
_cell_length_b 15.630979
_cell_length_c 16.490104
_cell_angle_alpha 90.000000
_cell_angle_beta 90.000000
_cell_angle_gamma 120.000000
_cell_volume 3489.204192
_symmetry_space_group_name_H-M "P -6 C 2"
_symmetry_group_IT_number 188
_symmetry_cell_setting 'hexagonal'
loop_
_space_group_symop_operation_xyz
x,y,z
-x+y,-x,1/2-z
-y,x-y,z
x,y,1/2-z
-x+y,-x,z
-y,x-y,1/2-z
-y,-x,-z
-x+y,y,-z
x,x-y,-z
-x+y,y,1/2+z
x,x-y,1/2+z
-y,-x,1/2+z
loop_
_atom_site_type_symbol
_atom_site_label
_atom_site_fract_x
_atom_site_fract_y
_atom_site_fract_z
Si Si1 0.450118 0.764604 0.151687
Si Si2 0.287548 0.004786 0.154958
Si Si3 0.672406 0.792395 0.650829
Si Si4 0.707963 0.509617 0.918807
Si Si5 0.831901 0.089388 0.084021
Si Si6 0.872615 0.379132 0.343289
O O1 0.349986 0.766655 0.128636
O O2 0.453799 0.768215 0.250000
O O3 0.559463 0.846456 0.125181
O O4 0.297454 0.992553 0.250000
O O5 0.251969 0.084390 0.143928
O O6 0.398410 0.052040 0.121470
O O7 0.209286 0.898381 0.123196
O O8 0.677130 0.789288 0.750000
O O9 0.763021 0.783621 0.615295
O O10 0.755479 0.626192 0.927388
O O11 0.594739 0.458980 0.896319
O O12 0.766789 0.488372 0.848659
O O13 0.736512 0.473023 0.000000
O O14 0.891359 0.108642 0.000000
O O15 0.895970 0.411614 0.250000
#
# Coordination Sequence:
#
# PCOD9585893 Si02
#       6
#    12  12  12  12  12  12
#     4   7  13  27  49  85 127 153 181 230 282 356
#     4   9  20  37  55  82 115 144 190 252 299 350
#     4  10  19  34  59  84 114 158 196 243 309 356
#     4  10  20  34  52  77 113 154 193 231 282 347
#     4  10  22  38  55  78 109 148 198 246 292 350
#     4  10  19  32  52  80 115 149 187 237 291 347
#
# _framework density 20.635078
#
# number of rings (size 3 to 8) (size 9 to 14) (size 15 to 20)
#    0.333    2.333    0.000    1.833    0.000    4.000 
#    1.000    3.333    0.000    0.000    0.000    3.500 
#    0.000    0.000    0.000    0.000    0.000    0.333 
#
# Total GULP energy -401085.860728 kJ/mol
# GULP energy per Si atom -5570.636955 kJ/mol
# Density = 2.058811 g / cm^3
# Si number density = 20.635078 Si / 1000 Ang^3
#
#
#
# Elastic Constant Matrix: (Units=GPa)
#
#
# Indices 1 2 3 4 5 6 
#
# 1 66.7021 24.8889 17.1034 0.0000 0.0000 0.0000
# 2 24.8889 66.7021 17.1034 0.0000 0.0000 0.0000
# 3 17.1034 17.1034 40.8727 0.0000 0.0000 0.0000
# 4 0.0000 0.0000 0.0000 16.5867 0.0000 0.0000
# 5 0.0000 0.0000 0.0000 0.0000 16.5867 0.0000
# 6 0.0000 0.0000 0.0000 0.0000 0.0000 20.9066
#
#
#
# Elastic Compliance Matrix: (Units=1/GPa)
#
#
# Indices 1 2 3 4 5 6 
#
# 1 0.018428 -0.005488 -0.005415 0.000000 0.000000 0.000000
# 2 -0.005488 0.018428 -0.005415 0.000000 0.000000 0.000000
# 3 -0.005415 -0.005415 0.028998 0.000000 0.000000 0.000000
# 4 0.000000 0.000000 0.000000 0.060289 0.000000 0.000000
# 5 0.000000 0.000000 0.000000 0.000000 0.060289 0.000000
# 6 0.000000 0.000000 0.000000 0.000000 0.000000 0.047832
#
#
# Mechanical properties :
#
#
# Convention : Reuss Voigt Hill
#
# Bulk Modulus (GPa) = 30.10327 32.49648 31.29987
# Shear Modulus (GPa) = 17.98731 18.49472 18.24101
#
# Velocity S-wave (km/s) = 2.95564 2.99703 2.97641
# Velocity P-wave (km/s) = 5.12521 5.26865 5.19742
#
# Compressibility (1/GPa) = 0.03321899
#
# Stress axis : x y z
#
# Youngs Moduli (GPa) = 54.26468 54.26468 34.48501
#
# Poissons Ratio (x) = 0.29779 0.18674
# Poissons Ratio (y) = 0.29779 0.18674
# Poissons Ratio (z) = 0.29384 0.29384
#
# Static dielectric constant tensor:
#      x y z
#    x 1.754720 0.000000 0.000000 
#    y 0.000000 1.754720 0.000000 
#    z 0.000000 0.000000 1.786620 
# 
# From -- ./inp_files/3181.got.cif
#   From: 2010.05.17/outbox.cif.g08.bks.cpg/sg188_2_cif.got.tgz:3181.got - 2010.05.20 12:11:46.
