data_PCOD9585839
_publ_section_title
;
Structure prediction by ZEFSAII (Michael W. Deem and Ramdas Pophale) SiO2 
 PCOD9585839
Probable space group: P -6 C 2
;
_chemical_formula_sum "Si O2"
_cell_formula_units_Z 72
_cell_length_a 24.702726
_cell_length_b 24.702726
_cell_length_c 8.768493
_cell_angle_alpha 90.000000
_cell_angle_beta 90.000000
_cell_angle_gamma 120.000000
_cell_volume 4633.886090
_symmetry_space_group_name_H-M "P -6 C 2"
_symmetry_group_IT_number 188
_symmetry_cell_setting 'hexagonal'
loop_
_space_group_symop_operation_xyz
x,y,z
-x+y,-x,1/2-z
-y,x-y,z
x,y,1/2-z
-x+y,-x,z
-y,x-y,1/2-z
-y,-x,-z
-x+y,y,-z
x,x-y,-z
-x+y,y,1/2+z
x,x-y,1/2+z
-y,-x,1/2+z
loop_
_atom_site_type_symbol
_atom_site_label
_atom_site_fract_x
_atom_site_fract_y
_atom_site_fract_z
Si Si1 0.405337 0.926960 0.568312
Si Si2 0.332346 0.782178 0.567322
Si Si3 0.189973 0.039326 0.932194
Si Si4 0.657740 0.993481 0.932264
Si Si5 0.888521 0.218850 0.432923
Si Si6 0.735398 0.810997 0.066844
O O1 0.410033 0.929325 0.750000
O O2 0.472522 0.945043 0.500000
O O3 0.358512 0.854399 0.523914
O O4 0.376804 0.968602 0.511048
O O5 0.331335 0.777359 0.750000
O O6 0.264978 0.735023 0.500000
O O7 0.382400 0.764799 0.500000
O O8 0.186533 0.038148 0.750000
O O9 0.161963 0.080982 0.000000
O O10 0.262215 0.075749 0.988101
O O11 0.166230 0.970710 0.999363
O O12 0.648916 0.987393 0.750000
O O13 0.690672 0.952719 0.975711
O O14 0.708100 0.066059 0.965131
O O15 0.887555 0.209907 0.250000
O O16 0.818793 0.181208 0.500000
O O17 0.738970 0.814408 0.250000
O O18 0.712179 0.856090 0.000000
#
# Coordination Sequence:
#
# PCOD9585839 Si02
#       6
#    12  12  12  12  12  12
#     4  10  21  35  51  68  89 120 158 194 235 286
#     4  10  20  33  48  66  85 109 143 190 244 296
#     4  10  17  27  44  64  86 114 146 181 219 265
#     4   9  19  33  48  67  94 123 153 189 230 274
#     4   9  16  27  44  68  94 119 145 177 214 255
#     4  10  20  33  47  67  93 121 153 193 239 286
#
# _framework density 15.537715
#
# number of rings (size 3 to 8) (size 9 to 14) (size 15 to 20)
#    0.000    2.333    0.000    5.667    0.000    6.667 
#    0.000    3.333    0.000    0.333    0.000    2.333 
#    0.000    0.000    0.000    0.500    0.000    8.000 
#
# Total GULP energy -401298.180965 kJ/mol
# GULP energy per Si atom -5573.585847 kJ/mol
# Density = 1.550235 g / cm^3
# Si number density = 15.537715 Si / 1000 Ang^3
#
#
#
# Elastic Constant Matrix: (Units=GPa)
#
#
# Indices 1 2 3 4 5 6 
#
# 1 83.5314 59.8798 39.7333 -0.0004 0.0000 0.0000
# 2 59.8798 83.5314 39.7333 0.0004 0.0000 0.0000
# 3 39.7333 39.7333 69.2730 0.0000 0.0000 0.0000
# 4 -0.0004 0.0004 0.0000 34.5756 0.0000 0.0000
# 5 0.0000 0.0000 0.0000 0.0000 34.5756 -0.0004
# 6 0.0000 0.0000 0.0000 0.0000 -0.0004 11.8258
#
#
#
# Elastic Compliance Matrix: (Units=1/GPa)
#
#
# Indices 1 2 3 4 5 6 
#
# 1 0.026251 -0.016029 -0.005863 0.000000 0.000000 0.000000
# 2 -0.016029 0.026251 -0.005863 0.000000 0.000000 0.000000
# 3 -0.005863 -0.005863 0.021161 0.000000 0.000000 0.000000
# 4 0.000000 0.000000 0.000000 0.028922 0.000000 0.000000
# 5 0.000000 0.000000 0.000000 0.000000 0.028922 0.000001
# 6 0.000000 0.000000 0.000000 0.000000 0.000001 0.084561
#
#
# Mechanical properties :
#
#
# Convention : Reuss Voigt Hill
#
# Bulk Modulus (GPa) = 55.08725 57.22541 56.15633
# Shear Modulus (GPa) = 18.00962 22.66139 20.33550
#
# Velocity S-wave (km/s) = 3.40824 3.82314 3.62164
# Velocity P-wave (km/s) = 7.14276 7.50990 7.32862
#
# Compressibility (1/GPa) = 0.01815302
#
# Stress axis : x y z
#
# Youngs Moduli (GPa) = 38.09379 38.09379 47.25604
#
# Poissons Ratio (x) = 0.61062 0.27706
# Poissons Ratio (y) = 0.61062 0.27706
# Poissons Ratio (z) = 0.22334 0.22334
#
# Static dielectric constant tensor:
#      x y z
#    x 1.529590 0.000000 0.000000 
#    y 0.000000 1.529590 0.000000 
#    z 0.000000 0.000000 1.517090 
# 
# From -- ./inp_files/1022.got.cif
#   From: 2010.05.17/outbox.cif.g08.bks.cpg/sg188_1_cif.got.tgz:1022.got - 2010.05.20 12:11:46.
