data_PCOD9585339
_publ_section_title
;
Structure prediction by ZEFSAII (Michael W. Deem and Ramdas Pophale) SiO2 
 PCOD9585339
Probable space group: P 63 M C
;
_chemical_formula_sum "Si O2"
_cell_formula_units_Z 84
_cell_length_a 24.029708
_cell_length_b 24.029708
_cell_length_c 10.211312
_cell_angle_alpha 90.000000
_cell_angle_beta 90.000000
_cell_angle_gamma 120.000000
_cell_volume 5106.333370
_symmetry_space_group_name_H-M "P 63 M C"
_symmetry_group_IT_number 186
_symmetry_cell_setting 'hexagonal'
loop_
_space_group_symop_operation_xyz
x,y,z
x-y,x,1/2+z
-y,x-y,z
-x,-y,1/2+z
-x+y,-x,z
y,-x+y,1/2+z
-x+y,y,z
x,x-y,z
-y,-x,z
y,x,1/2+z
x-y,-y,1/2+z
-x,-x+y,1/2+z
loop_
_atom_site_type_symbol
_atom_site_label
_atom_site_fract_x
_atom_site_fract_y
_atom_site_fract_z
Si Si1 0.472708 0.067311 0.008290
Si Si2 0.028253 0.416024 0.781566
Si Si3 0.743825 0.130036 0.959705
Si Si4 0.650495 0.726311 0.187519
Si Si5 0.942160 0.181208 0.999243
Si Si6 0.763648 0.790060 0.773157
Si Si7 0.625289 0.748671 0.889122
O O1 0.547729 0.095458 0.975380
O O2 0.462481 0.045023 0.158826
O O3 0.439913 0.111992 0.998189
O O4 0.432240 0.008666 0.906243
O O5 0.091913 0.414952 0.829825
O O6 0.977211 0.347344 0.717642
O O7 0.802071 0.197930 0.008834
O O8 0.745081 0.127723 0.802051
O O9 0.759889 0.073930 0.003439
O O10 0.725970 0.762097 0.218480
O O11 0.635788 0.739807 0.042616
O O12 0.877865 0.122136 0.943323
O O13 0.952425 0.166530 0.146363
O O14 0.001208 0.197184 0.906224
O O15 0.693808 0.776818 0.816218
O O16 0.602573 0.801287 0.873774
#
# Coordination Sequence:
#
# PCOD9585339 Si02
#       7
#    12  12  12  12  12  12  12
#     4  11  21  34  53  71  96 136 174 207 253 304
#     4  10  20  34  48  70 101 134 169 212 243 299
#     4   9  18  31  49  71  97 125 165 210 249 300
#     4   9  16  29  47  66  98 133 162 198 244 288
#     4  10  19  32  48  67  96 137 166 193 247 298
#     4  10  18  30  42  66  98 127 167 197 226 281
#     4  11  19  28  49  75  98 134 170 201 250 304
#
# _framework density 16.45016
#
# number of rings (size 3 to 8) (size 9 to 14) (size 15 to 20)
#    0.000    2.000    2.857    3.857    0.000    2.286 
#    0.000    0.000    0.000    0.286    0.000    0.000 
#    0.000    0.000    0.000   16.571    0.000    2.000 
#
# Total GULP energy -467690.204021 kJ/mol
# GULP energy per Si atom -5567.740524 kJ/mol
# Density = 1.641272 g / cm^3
# Si number density = 16.450160 Si / 1000 Ang^3
#
#
#
# Elastic Constant Matrix: (Units=GPa)
#
#
# Indices 1 2 3 4 5 6 
#
# 1 55.6786 31.6182 20.1130 0.0000 0.0000 0.0000
# 2 31.6182 55.6786 20.1130 0.0000 0.0000 0.0000
# 3 20.1130 20.1130 122.1090 0.0000 0.0000 0.0000
# 4 0.0000 0.0000 0.0000 7.6908 0.0000 0.0000
# 5 0.0000 0.0000 0.0000 0.0000 7.6908 0.0000
# 6 0.0000 0.0000 0.0000 0.0000 0.0000 12.0302
#
#
#
# Elastic Compliance Matrix: (Units=1/GPa)
#
#
# Indices 1 2 3 4 5 6 
#
# 1 0.026979 -0.014583 -0.002042 0.000000 0.000000 0.000000
# 2 -0.014583 0.026979 -0.002042 0.000000 0.000000 0.000000
# 3 -0.002042 -0.002042 0.008862 0.000000 0.000000 0.000000
# 4 0.000000 0.000000 0.000000 0.130026 0.000000 0.000000
# 5 0.000000 0.000000 0.000000 0.000000 0.130026 0.000000
# 6 0.000000 0.000000 0.000000 0.000000 0.000000 0.083124
#
#
# Mechanical properties :
#
#
# Convention : Reuss Voigt Hill
#
# Bulk Modulus (GPa) = 39.23587 41.90609 40.57098
# Shear Modulus (GPa) = 11.06623 16.25715 13.66169
#
# Velocity S-wave (km/s) = 2.59648 3.14708 2.88495
# Velocity P-wave (km/s) = 5.73516 6.22378 5.98446
#
# Compressibility (1/GPa) = 0.02548689
#
# Stress axis : x y z
#
# Youngs Moduli (GPa) = 37.06584 37.06584 112.84098
#
# Poissons Ratio (x) = 0.54053 0.23040
# Poissons Ratio (y) = 0.54053 0.23040
# Poissons Ratio (z) = 0.07568 0.07568
#
# Static dielectric constant tensor:
#      x y z
#    x 1.566590 0.000000 0.000000 
#    y 0.000000 1.566590 0.000000 
#    z 0.000000 0.000000 1.613370 
# 
# From -- ./inp_files/2022.got.cif
#   From: 2010.05.17/outbox.cif.g08.bks.cpg/sg186_2_cif.got.tgz:2022.got - 2010.05.20 12:07:08.
