data_PCOD9585950
_publ_section_title
;
Structure prediction by ZEFSAII (Michael W. Deem and Ramdas Pophale) SiO2 
 PCOD9585950
Probable space group: P -6 C 2
;
_chemical_formula_sum "Si O2"
_cell_formula_units_Z 76
_cell_length_a 18.088945
_cell_length_b 18.088945
_cell_length_c 14.796542
_cell_angle_alpha 90.000000
_cell_angle_beta 90.000000
_cell_angle_gamma 120.000000
_cell_volume 4192.927369
_symmetry_space_group_name_H-M "P -6 C 2"
_symmetry_group_IT_number 188
_symmetry_cell_setting 'hexagonal'
loop_
_space_group_symop_operation_xyz
x,y,z
-x+y,-x,1/2-z
-y,x-y,z
x,y,1/2-z
-x+y,-x,z
-y,x-y,1/2-z
-y,-x,-z
-x+y,y,-z
x,x-y,-z
-x+y,y,1/2+z
x,x-y,1/2+z
-y,-x,1/2+z
loop_
_atom_site_type_symbol
_atom_site_label
_atom_site_fract_x
_atom_site_fract_y
_atom_site_fract_z
Si Si1 0.235404 0.463419 0.852399
Si Si2 0.000000 0.000000 0.142628
Si Si3 0.924346 0.801368 0.901005
Si Si4 0.250722 0.996660 0.852700
Si Si5 0.083236 0.591409 0.856846
Si Si6 0.572443 0.933004 0.445542
Si Si7 0.171282 0.905841 0.353307
O O1 0.212265 0.477000 0.750000
O O2 0.337289 0.522282 0.863153
O O3 0.166919 0.457503 0.924782
O O4 0.221613 0.367272 0.854342
O O5 0.935088 0.903500 0.112878
O O6 0.000000 0.000000 0.250000
O O7 0.836430 0.754349 0.846369
O O8 0.999788 0.780633 0.890952
O O9 0.889671 0.779341 0.000000
O O10 0.256609 0.969660 0.750000
O O11 0.322089 0.990414 0.909445
O O12 0.159878 0.922012 0.892626
O O13 0.060808 0.596250 0.750000
O O14 0.057764 0.495361 0.882861
O O15 0.050154 0.616172 0.948539
O O16 0.154529 0.920023 0.250000
#
# Coordination Sequence:
#
# PCOD9585950 Si02
#       7
#    12   4  12  12  12  12  12
#     4   9  18  33  53  75 100 133 171 213 265 318
#     4  12  22  35  46  60  94 134 181 234 283 323
#     4  12  23  31  46  72  96 131 178 230 277 318
#     4  10  20  34  53  71  97 135 175 220 270 320
#     4  10  20  34  53  76  99 128 166 213 263 317
#     4  10  20  35  55  76 101 132 171 217 264 322
#     4   9  18  32  49  67  94 133 173 216 264 316
#
# _framework density 18.12576
#
# number of rings (size 3 to 8) (size 9 to 14) (size 15 to 20)
#    0.000    1.895    1.579    4.737    2.211    0.000 
#    0.947    0.000    0.000    0.000    0.000    0.000 
#    0.000    0.000    0.000    0.947    6.316   12.789 
#
# Total GULP energy -423111.468545 kJ/mol
# GULP energy per Si atom -5567.256165 kJ/mol
# Density = 1.808450 g / cm^3
# Si number density = 18.125760 Si / 1000 Ang^3
#
#
#
# Elastic Constant Matrix: (Units=GPa)
#
#
# Indices 1 2 3 4 5 6 
#
# 1 47.0069 27.8071 27.4868 0.0001 0.0000 0.0000
# 2 27.8071 47.0069 27.4868 -0.0001 0.0000 0.0000
# 3 27.4868 27.4868 118.5214 0.0000 0.0000 0.0000
# 4 0.0001 -0.0001 0.0000 24.2333 0.0000 0.0000
# 5 0.0000 0.0000 0.0000 0.0000 24.2333 0.0001
# 6 0.0000 0.0000 0.0000 0.0000 0.0001 9.5999
#
#
#
# Elastic Compliance Matrix: (Units=1/GPa)
#
#
# Indices 1 2 3 4 5 6 
#
# 1 0.034098 -0.017986 -0.003737 0.000000 0.000000 0.000000
# 2 -0.017986 0.034098 -0.003737 0.000000 0.000000 0.000000
# 3 -0.003737 -0.003737 0.010170 0.000000 0.000000 0.000000
# 4 0.000000 0.000000 0.000000 0.041266 0.000000 0.000000
# 5 0.000000 0.000000 0.000000 0.000000 0.041266 -0.000001
# 6 0.000000 0.000000 0.000000 0.000000 -0.000001 0.104168
#
#
# Mechanical properties :
#
#
# Convention : Reuss Voigt Hill
#
# Bulk Modulus (GPa) = 36.43222 42.01075 39.22148
# Shear Modulus (GPa) = 15.37833 20.26359 17.82096
#
# Velocity S-wave (km/s) = 2.91593 3.34719 3.13898
# Velocity P-wave (km/s) = 5.61072 6.17786 5.90111
#
# Compressibility (1/GPa) = 0.02744823
#
# Stress axis : x y z
#
# Youngs Moduli (GPa) = 29.32723 29.32723 98.32404
#
# Poissons Ratio (x) = 0.52747 0.36740
# Poissons Ratio (y) = 0.52747 0.36740
# Poissons Ratio (z) = 0.10959 0.10959
#
# Static dielectric constant tensor:
#      x y z
#    x 1.667790 0.000000 0.000000 
#    y 0.000000 1.667790 0.000000 
#    z 0.000000 0.000000 1.779520 
# 
# From -- ./inp_files/2484.got.cif
#   From: 2010.05.17/outbox.cif.g08.bks.cpg/sg188_2_cif.got.tgz:2484.got - 2010.05.20 12:11:46.
