data_PCOD9585593
_publ_section_title
;
Structure prediction by ZEFSAII (Michael W. Deem and Ramdas Pophale) SiO2 
 PCOD9585593
Probable space group: P -6 M 2
;
_chemical_formula_sum "Si O2"
_cell_formula_units_Z 66
_cell_length_a 13.004092
_cell_length_b 13.004092
_cell_length_c 28.406470
_cell_angle_alpha 90.000000
_cell_angle_beta 90.000000
_cell_angle_gamma 120.000000
_cell_volume 4160.140198
_symmetry_space_group_name_H-M "P -6 M 2"
_symmetry_group_IT_number 187
_symmetry_cell_setting 'hexagonal'
loop_
_space_group_symop_operation_xyz
x,y,z
-x+y,-x,-z
-y,x-y,z
x,y,-z
-x+y,-x,z
-y,x-y,-z
-y,-x,-z
-x+y,y,-z
x,x-y,-z
-x+y,y,z
x,x-y,z
-y,-x,z
loop_
_atom_site_type_symbol
_atom_site_label
_atom_site_fract_x
_atom_site_fract_y
_atom_site_fract_z
Si Si1 0.245495 0.244669 0.500000
Si Si2 0.666935 0.088819 0.412678
Si Si3 0.577026 0.666143 0.862506
Si Si4 0.757285 0.000085 0.945644
Si Si5 0.242074 0.999523 0.670175
Si Si6 0.758787 0.758553 0.779804
O O1 0.126274 0.252547 0.500000
O O2 0.328263 0.305894 0.545355
O O3 0.214370 0.107185 0.500000
O O4 0.540835 0.081669 0.417296
O O5 0.774296 0.225705 0.414049
O O6 0.680767 0.031777 0.364393
O O7 0.553264 0.776632 0.863246
O O8 0.456346 0.543655 0.862533
O O9 0.656401 0.680934 0.908180
O O10 0.654669 0.682533 0.816106
O O11 0.784980 0.892490 0.940227
O O12 0.720352 0.997717 0.000000
O O13 0.875801 0.124200 0.936931
O O14 0.212108 0.106054 0.664806
O O15 0.272753 0.998141 0.725049
O O16 0.125858 0.874142 0.658735
O O17 0.874429 0.748857 0.789930
O O18 0.789451 0.894726 0.785480
#
# Coordination Sequence:
#
# PCOD9585593 Si02
#       6
#     6  12  12  12  12  12
#     4  10  20  34  54  78 100 122 152 196 248 294
#     4  10  20  33  50  71  97 130 165 198 229 268
#     4  10  20  32  46  65  92 127 163 195 226 266
#     4   9  17  30  50  75  98 118 144 185 238 288
#     4   9  17  30  50  75 100 124 152 192 242 290
#     4   9  17  30  50  75  98 120 150 193 245 292
#
# _framework density 15.864849
#
# number of rings (size 3 to 8) (size 9 to 14) (size 15 to 20)
#    0.000    2.545    0.000    2.364    0.000    3.273 
#    0.000    4.545    0.000    9.091    0.000    0.000 
#    0.000    0.000    0.000    0.000    0.000    0.000 
#
# Total GULP energy -368050.528312 kJ/mol
# GULP energy per Si atom -5576.523156 kJ/mol
# Density = 1.582874 g / cm^3
# Si number density = 15.864849 Si / 1000 Ang^3
#
#
#
# Elastic Constant Matrix: (Units=GPa)
#
#
# Indices 1 2 3 4 5 6 
#
# 1 115.2873 76.5177 79.6476 0.0000 0.0001 0.0000
# 2 76.5177 115.2873 79.6476 0.0000 -0.0001 0.0000
# 3 79.6476 79.6476 103.7953 0.0000 0.0000 0.0000
# 4 0.0000 0.0000 0.0000 16.5540 0.0000 -0.0001
# 5 0.0001 -0.0001 0.0000 0.0000 16.5540 0.0000
# 6 0.0000 0.0000 0.0000 -0.0001 0.0000 19.3848
#
#
#
# Elastic Compliance Matrix: (Units=1/GPa)
#
#
# Indices 1 2 3 4 5 6 
#
# 1 0.020084 -0.005710 -0.011030 0.000000 0.000000 0.000000
# 2 -0.005710 0.020084 -0.011030 0.000000 0.000000 0.000000
# 3 -0.011030 -0.011030 0.026562 0.000000 0.000000 0.000000
# 4 0.000000 0.000000 0.000000 0.060408 0.000000 0.000000
# 5 0.000000 0.000000 0.000000 0.000000 0.060408 0.000000
# 6 0.000000 0.000000 0.000000 0.000000 0.000000 0.051587
#
#
# Mechanical properties :
#
#
# Convention : Reuss Voigt Hill
#
# Bulk Modulus (GPa) = 89.36278 89.55508 89.45893
# Shear Modulus (GPa) = 16.75588 17.06903 16.91245
#
# Velocity S-wave (km/s) = 3.25339 3.28365 3.26856
# Velocity P-wave (km/s) = 8.40015 8.42305 8.41161
#
# Compressibility (1/GPa) = 0.01119034
#
# Stress axis : x y z
#
# Youngs Moduli (GPa) = 49.79149 49.79149 37.64756
#
# Poissons Ratio (x) = 0.28429 0.41525
# Poissons Ratio (y) = 0.28429 0.41525
# Poissons Ratio (z) = 0.54920 0.54920
#
# Static dielectric constant tensor:
#      x y z
#    x 1.497950 0.000000 0.000000 
#    y 0.000000 1.497950 0.000000 
#    z 0.000000 0.000000 1.549750 
# 
# From -- ./inp_files/4382.got.cif
#   From: 2010.05.17/outbox.cif.g08.bks.cpg/sg187_3_cif.got.tgz:4382.got - 2010.05.20 12:09:04.
