data_PCOD9585760
_publ_section_title
;
Structure prediction by ZEFSAII (Michael W. Deem and Ramdas Pophale) SiO2 
 PCOD9585760
Probable space group: P -6 M 2
;
_chemical_formula_sum "Si O2"
_cell_formula_units_Z 66
_cell_length_a 22.538740
_cell_length_b 22.538740
_cell_length_c 7.544929
_cell_angle_alpha 90.000000
_cell_angle_beta 90.000000
_cell_angle_gamma 120.000000
_cell_volume 3319.288921
_symmetry_space_group_name_H-M "P -6 M 2"
_symmetry_group_IT_number 187
_symmetry_cell_setting 'hexagonal'
loop_
_space_group_symop_operation_xyz
x,y,z
-x+y,-x,-z
-y,x-y,z
x,y,-z
-x+y,-x,z
-y,x-y,-z
-y,-x,-z
-x+y,y,-z
x,x-y,-z
-x+y,y,z
x,x-y,z
-y,-x,z
loop_
_atom_site_type_symbol
_atom_site_label
_atom_site_fract_x
_atom_site_fract_y
_atom_site_fract_z
Si Si1 0.326591 0.888391 0.713439
Si Si2 0.037130 0.518565 0.304419
Si Si3 0.843606 0.549949 0.286165
Si Si4 0.330477 0.794957 0.000000
Si Si5 0.920799 0.216217 0.716387
Si Si6 0.890696 0.445348 0.195225
Si Si7 0.715394 0.925723 0.715714
O O1 0.321203 0.878881 0.500000
O O2 0.405915 0.940382 0.767102
O O3 0.271498 0.910877 0.762421
O O4 0.311519 0.822768 0.826374
O O5 0.069543 0.534772 0.500000
O O6 0.956203 0.478102 0.318133
O O7 0.846178 0.548831 0.500000
O O8 0.771264 0.542527 0.234397
O O9 0.901248 0.627044 0.230666
O O10 0.851062 0.486922 0.219839
O O11 0.285972 0.714029 0.000000
O O12 0.410156 0.820312 0.000000
O O13 0.920874 0.216440 0.500000
O O14 0.857402 0.142599 0.771297
O O15 0.996145 0.233541 0.774527
O O16 0.921431 0.460716 0.000000
O O17 0.718599 0.925724 0.500000
O O18 0.726462 0.863231 0.776458
#
# Coordination Sequence:
#
# PCOD9585760 Si02
#       7
#    12   6  12   6  12   6  12
#     4  10  21  38  58  80 109 146 185 235 285 330
#     4  10  20  36  58  78 104 142 186 231 273 328
#     4   9  18  35  55  72  96 136 188 230 262 317
#     4  12  25  40  58  78 109 146 188 232 276 342
#     4   8  14  27  49  74  99 132 175 220 261 309
#     4  12  24  32  50  82 114 140 168 222 286 347
#     4   9  16  27  47  77 108 136 174 222 273 326
#
# _framework density 19.883775
#
# number of rings (size 3 to 8) (size 9 to 14) (size 15 to 20)
#    0.000    2.364    0.909    3.636    1.273    4.364 
#    0.545    0.000    0.000    1.455    0.000    2.545 
#    0.000    0.000    0.000    0.000    0.000    0.182 
#
# Total GULP energy -367839.236017 kJ/mol
# GULP energy per Si atom -5573.321758 kJ/mol
# Density = 1.983852 g / cm^3
# Si number density = 19.883775 Si / 1000 Ang^3
#
#
#
# Elastic Constant Matrix: (Units=GPa)
#
#
# Indices 1 2 3 4 5 6 
#
# 1 136.5208 87.1289 12.8599 0.0000 -0.0002 0.0000
# 2 87.1289 136.5208 12.8599 0.0000 0.0002 0.0000
# 3 12.8599 12.8599 53.5212 0.0000 0.0000 0.0000
# 4 0.0000 0.0000 0.0000 -0.6727 0.0000 0.0002
# 5 -0.0002 0.0002 0.0000 0.0000 -0.6727 0.0000
# 6 0.0000 0.0000 0.0000 0.0002 0.0000 24.6960
#
#
#
# Elastic Compliance Matrix: (Units=1/GPa)
#
#
# Indices 1 2 3 4 5 6 
#
# 1 0.012422 -0.007824 -0.001105 0.000000 -0.000006 0.000000
# 2 -0.007824 0.012422 -0.001105 0.000000 0.000006 0.000000
# 3 -0.001105 -0.001105 0.019215 0.000000 0.000000 0.000000
# 4 0.000000 0.000000 0.000000 -1.486643 0.000000 0.000011
# 5 -0.000006 0.000006 0.000000 0.000000 -1.486643 0.000000
# 6 0.000000 0.000000 0.000000 0.000011 0.000000 0.040492
#
#
# Mechanical properties :
#
#
# Convention : Reuss Voigt Hill
#
# Bulk Modulus (GPa) = 41.68001 61.36222 51.52112
# Shear Modulus (GPa) = -1.74784 18.91774 8.58495
#
# Velocity S-wave (km/s) = -0.93858 3.08785 2.08013
# Velocity P-wave (km/s) = 4.45340 6.60610 5.63353
#
# Compressibility (1/GPa) = 0.02399231
#
# Stress axis : x y z
#
# Youngs Moduli (GPa) = 80.50050 80.50050 52.04234
#
# Poissons Ratio (x) = 0.62983 0.05750
# Poissons Ratio (y) = 0.62983 0.05750
# Poissons Ratio (z) = 0.08894 0.08894
#
# Static dielectric constant tensor:
#      x y z
#    x 1.701590 0.000000 0.000000 
#    y 0.000000 1.701590 0.000000 
#    z 0.000000 0.000000 1.776400 
# 
# From -- ./inp_files/804.got.cif
#   From: 2010.05.17/outbox.cif.g08.bks.cpg/sg187_1_cif.got.tgz:804.got - 2010.05.20 12:09:04.
