data_PCOD9585591
_publ_section_title
;
Structure prediction by ZEFSAII (Michael W. Deem and Ramdas Pophale) SiO2 
 PCOD9585591
Probable space group: P -6 M 2
;
_chemical_formula_sum "Si O2"
_cell_formula_units_Z 66
_cell_length_a 13.240088
_cell_length_b 13.240088
_cell_length_c 28.781182
_cell_angle_alpha 90.000000
_cell_angle_beta 90.000000
_cell_angle_gamma 120.000000
_cell_volume 4369.391915
_symmetry_space_group_name_H-M "P -6 M 2"
_symmetry_group_IT_number 187
_symmetry_cell_setting 'hexagonal'
loop_
_space_group_symop_operation_xyz
x,y,z
-x+y,-x,-z
-y,x-y,z
x,y,-z
-x+y,-x,z
-y,x-y,-z
-y,-x,-z
-x+y,y,-z
x,x-y,-z
-x+y,y,z
x,x-y,z
-y,-x,z
loop_
_atom_site_type_symbol
_atom_site_label
_atom_site_fract_x
_atom_site_fract_y
_atom_site_fract_z
Si Si1 0.092691 0.425989 0.000000
Si Si2 0.667030 0.094623 0.180199
Si Si3 0.999919 0.759414 0.632860
Si Si4 0.666249 0.094735 0.712625
Si Si5 0.332750 0.424490 0.898166
Si Si6 0.095933 0.666228 0.445728
O O1 0.040745 0.372833 0.949605
O O2 0.221203 0.442406 0.000000
O O3 0.102467 0.551234 0.000000
O O4 0.559756 0.119512 0.175280
O O5 0.788254 0.211747 0.172090
O O6 0.664205 0.057600 0.233821
O O7 0.645416 0.996145 0.143108
O O8 0.885938 0.771877 0.627185
O O9 0.977486 0.675600 0.676913
O O10 0.020946 0.698695 0.588218
O O11 0.115170 0.884830 0.638971
O O12 0.543003 0.086005 0.702114
O O13 0.770767 0.229234 0.709557
O O14 0.214237 0.428473 0.893037
O O15 0.444510 0.555491 0.896719
O O16 0.064651 0.664597 0.500000
O O17 0.085148 0.542574 0.434404
O O18 0.229999 0.770002 0.440622
#
# Coordination Sequence:
#
# PCOD9585591 Si02
#       6
#     6  12  12  12  12  12
#     4   8  13  22  37  58  82 108 138 170 206 248
#     4   9  17  29  45  64  86 113 144 178 216 260
#     4  10  20  32  46  65  91 122 152 181 215 258
#     4   9  17  30  48  67  85 109 145 187 226 261
#     4   9  16  26  42  63  86 110 137 172 213 256
#     4   9  17  30  49  71  92 114 142 178 218 257
#
# _framework density 15.105076
#
# number of rings (size 3 to 8) (size 9 to 14) (size 15 to 20)
#    0.000    2.909    0.000    1.545    0.000    4.727 
#    0.000    0.455    0.000    2.182    0.000    1.273 
#    0.000    0.000    0.000    0.000    0.000    0.000 
#
# Total GULP energy -367411.937313 kJ/mol
# GULP energy per Si atom -5566.847535 kJ/mol
# Density = 1.507070 g / cm^3
# Si number density = 15.105076 Si / 1000 Ang^3
#
#
#
# Elastic Constant Matrix: (Units=GPa)
#
#
# Indices 1 2 3 4 5 6 
#
# 1 89.6462 45.7995 75.7984 0.0000 0.0000 0.0000
# 2 45.7995 89.6462 75.7984 0.0000 0.0000 0.0000
# 3 75.7984 75.7984 124.0289 0.0000 0.0000 0.0000
# 4 0.0000 0.0000 0.0000 24.4036 0.0000 0.0000
# 5 0.0000 0.0000 0.0000 0.0000 24.4036 0.0000
# 6 0.0000 0.0000 0.0000 0.0000 0.0000 21.9233
#
#
#
# Elastic Compliance Matrix: (Units=1/GPa)
#
#
# Indices 1 2 3 4 5 6 
#
# 1 0.023086 0.000279 -0.014279 0.000000 0.000000 0.000000
# 2 0.000279 0.023086 -0.014279 0.000000 0.000000 0.000000
# 3 -0.014279 -0.014279 0.025515 0.000000 0.000000 0.000000
# 4 0.000000 0.000000 0.000000 0.040978 0.000000 0.000000
# 5 0.000000 0.000000 0.000000 0.000000 0.040978 0.000000
# 6 0.000000 0.000000 0.000000 0.000000 0.000000 0.045614
#
#
# Mechanical properties :
#
#
# Convention : Reuss Voigt Hill
#
# Bulk Modulus (GPa) = 66.09880 77.56819 71.83349
# Shear Modulus (GPa) = 19.16764 21.20778 20.18771
#
# Velocity S-wave (km/s) = 3.56610 3.75109 3.65976
# Velocity P-wave (km/s) = 7.79810 8.38002 8.09429
#
# Compressibility (1/GPa) = 0.01512887
#
# Stress axis : x y z
#
# Youngs Moduli (GPa) = 43.31683 43.31683 39.19204
#
# Poissons Ratio (x) = -0.01208 0.55962
# Poissons Ratio (y) = -0.01208 0.55962
# Poissons Ratio (z) = 0.61852 0.61852
#
# Static dielectric constant tensor:
#      x y z
#    x 1.471800 0.000000 0.000000 
#    y 0.000000 1.471800 0.000000 
#    z 0.000000 0.000000 1.523350 
# 
# From -- ./inp_files/4412.got.cif
#   From: 2010.05.17/outbox.cif.g08.bks.cpg/sg187_3_cif.got.tgz:4412.got - 2010.05.20 12:09:04.
