data_PCOD9585574
_publ_section_title
;
Structure prediction by ZEFSAII (Michael W. Deem and Ramdas Pophale) SiO2 
 PCOD9585574
Probable space group: P -6 M 2
;
_chemical_formula_sum "Si O2"
_cell_formula_units_Z 66
_cell_length_a 13.193640
_cell_length_b 13.193640
_cell_length_c 28.908362
_cell_angle_alpha 90.000000
_cell_angle_beta 90.000000
_cell_angle_gamma 120.000000
_cell_volume 4357.961365
_symmetry_space_group_name_H-M "P -6 M 2"
_symmetry_group_IT_number 187
_symmetry_cell_setting 'hexagonal'
loop_
_space_group_symop_operation_xyz
x,y,z
-x+y,-x,-z
-y,x-y,z
x,y,-z
-x+y,-x,z
-y,x-y,-z
-y,-x,-z
-x+y,y,-z
x,x-y,-z
-x+y,y,z
x,x-y,z
-y,-x,z
loop_
_atom_site_type_symbol
_atom_site_label
_atom_site_fract_x
_atom_site_fract_y
_atom_site_fract_z
Si Si1 0.903029 0.331954 0.500000
Si Si2 0.333458 0.908435 0.683608
Si Si3 0.759237 0.759314 0.947749
Si Si4 0.423698 0.331887 0.397805
Si Si5 0.427503 0.093789 0.129716
Si Si6 0.906180 0.573423 0.763394
O O1 0.765911 0.234090 0.500000
O O2 0.918561 0.459281 0.500000
O O3 0.947385 0.319135 0.550195
O O4 0.440907 0.881813 0.683400
O O5 0.209974 0.790027 0.682971
O O6 0.353590 0.991741 0.639604
O O7 0.351859 0.988368 0.728551
O O8 0.759460 0.879730 0.942917
O O9 0.685463 0.669156 0.907759
O O10 0.890998 0.781996 0.943724
O O11 0.718307 0.713255 0.000000
O O12 0.426020 0.213010 0.387218
O O13 0.556892 0.443109 0.397795
O O14 0.545374 0.090747 0.122120
O O15 0.451564 0.225782 0.124440
O O16 0.390435 0.060261 0.183138
O O17 0.789960 0.579919 0.752638
O O18 0.878042 0.439021 0.759303
#
# Coordination Sequence:
#
# PCOD9585574 Si02
#       6
#     6  12  12  12  12  12
#     4   8  13  22  39  66  96 118 136 166 216 270
#     4  10  20  32  45  61  85 118 153 186 217 252
#     4   9  17  29  45  64  86 115 152 191 224 251
#     4   9  16  27  46  71  95 116 140 176 222 268
#     4   9  17  29  46  69  95 119 141 170 215 270
#     4   9  17  30  49  71  92 113 139 176 222 269
#
# _framework density 15.144696
#
# number of rings (size 3 to 8) (size 9 to 14) (size 15 to 20)
#    0.000    2.909    0.000    1.545    0.000    4.727 
#    0.000    2.273    0.000    4.364    0.000    1.273 
#    0.000    0.000    0.000    0.000    0.000    0.000 
#
# Total GULP energy -367425.391134 kJ/mol
# GULP energy per Si atom -5567.051381 kJ/mol
# Density = 1.511023 g / cm^3
# Si number density = 15.144696 Si / 1000 Ang^3
#
#
#
# Elastic Constant Matrix: (Units=GPa)
#
#
# Indices 1 2 3 4 5 6 
#
# 1 81.6099 46.6967 74.5159 0.0000 0.0000 0.0000
# 2 46.6967 81.6099 74.5159 0.0000 0.0000 0.0000
# 3 74.5159 74.5159 132.5069 0.0000 0.0000 0.0000
# 4 0.0000 0.0000 0.0000 19.9871 0.0000 0.0000
# 5 0.0000 0.0000 0.0000 0.0000 19.9871 0.0000
# 6 0.0000 0.0000 0.0000 0.0000 0.0000 17.4566
#
#
#
# Elastic Compliance Matrix: (Units=1/GPa)
#
#
# Indices 1 2 3 4 5 6 
#
# 1 0.025558 -0.003085 -0.012638 0.000000 0.000000 0.000000
# 2 -0.003085 0.025558 -0.012638 0.000000 0.000000 0.000000
# 3 -0.012638 -0.012638 0.021761 0.000000 0.000000 0.000000
# 4 0.000000 0.000000 0.000000 0.050032 0.000000 0.000000
# 5 0.000000 0.000000 0.000000 0.000000 0.050032 0.000000
# 6 0.000000 0.000000 0.000000 0.000000 0.000000 0.057285
#
#
# Mechanical properties :
#
#
# Convention : Reuss Voigt Hill
#
# Bulk Modulus (GPa) = 61.89871 76.35375 69.12623
# Shear Modulus (GPa) = 17.10388 18.15271 17.62830
#
# Velocity S-wave (km/s) = 3.36425 3.46586 3.41543
# Velocity P-wave (km/s) = 7.48673 8.15732 7.82921
#
# Compressibility (1/GPa) = 0.01615543
#
# Stress axis : x y z
#
# Youngs Moduli (GPa) = 39.12713 39.12713 45.95460
#
# Poissons Ratio (x) = 0.12070 0.58076
# Poissons Ratio (y) = 0.12070 0.58076
# Poissons Ratio (z) = 0.49448 0.49448
#
# Static dielectric constant tensor:
#      x y z
#    x 1.472180 0.000000 0.000000 
#    y 0.000000 1.472180 0.000000 
#    z 0.000000 0.000000 1.541260 
# 
# From -- ./inp_files/4383.got.cif
#   From: 2010.05.17/outbox.cif.g08.bks.cpg/sg187_3_cif.got.tgz:4383.got - 2010.05.20 12:09:04.
