data_PCOD9585024
_publ_section_title
;
Structure prediction by ZEFSAII (Michael W. Deem and Ramdas Pophale) SiO2 
 PCOD9585024
Probable space group: P 6 M M
;
_chemical_formula_sum "Si O2"
_cell_formula_units_Z 60
_cell_length_a 18.077613
_cell_length_b 18.077613
_cell_length_c 12.887021
_cell_angle_alpha 90.000000
_cell_angle_beta 90.000000
_cell_angle_gamma 120.000000
_cell_volume 3647.248361
_symmetry_space_group_name_H-M "P 6 M M"
_symmetry_group_IT_number 183
_symmetry_cell_setting 'hexagonal'
loop_
_space_group_symop_operation_xyz
x,y,z
x-y,x,z
-y,x-y,z
-x,-y,z
-x+y,-x,z
y,-x+y,z
-x+y,y,z
x,x-y,z
-y,-x,z
y,x,z
x-y,-y,z
-x,-x+y,z
loop_
_atom_site_type_symbol
_atom_site_label
_atom_site_fract_x
_atom_site_fract_y
_atom_site_fract_z
Si Si1 0.504309 0.668112 0.657680
Si Si2 0.732902 0.099465 0.087934
Si Si3 0.840992 0.332668 0.281569
Si Si4 0.897815 0.532912 0.888560
Si Si5 0.096680 0.731484 0.474910
O O1 0.474905 0.737453 0.637171
O O2 0.426974 0.573027 0.638198
O O3 0.529871 0.673518 0.778018
O O4 0.583298 0.693451 0.581793
O O5 0.832856 0.167145 0.101262
O O6 0.683707 0.116381 0.181102
O O7 0.704948 0.000000 0.087681
O O8 0.700461 0.120028 0.980902
O O9 0.850776 0.425388 0.281954
O O10 0.741467 0.258534 0.281012
O O11 0.882504 0.315503 0.382473
O O12 0.871813 0.435907 0.917810
O O13 0.000000 0.583700 0.873486
O O14 0.169195 0.830806 0.469659
O O15 0.000000 0.710081 0.465774
#
# Coordination Sequence:
#
# PCOD9585024 Si02
#       5
#    12  12  12  12  12
#     4  10  19  30  45  67  97 131 164 195 227 266
#     4  10  20  33  49  69  93 122 157 197 240 283
#     4  10  20  33  50  73 101 131 160 189 222 263
#     4   9  17  29  46  68  93 122 157 195 232 273
#     4  10  21  35  51  71  94 122 156 195 238 281
#
# _framework density 16.450756999999999
#
# number of rings (size 3 to 8) (size 9 to 14) (size 15 to 20)
#    0.000    2.200    0.000    3.400    0.000    4.400 
#    0.000    2.000    0.000    6.800    0.000    0.000 
#    0.000    4.800    0.000    6.400    0.000    0.000 
#
# Total GULP energy -334781.129959 kJ/mol
# GULP energy per Si atom -5579.685499 kJ/mol
# Density = 1.641331 g / cm^3
# Si number density = 16.450757 Si / 1000 Ang^3
#
#
#
# Elastic Constant Matrix: (Units=GPa)
#
#
# Indices 1 2 3 4 5 6 
#
# 1 89.2643 77.8406 38.6096 0.0000 0.0000 0.0000
# 2 77.8406 89.2643 38.6096 0.0000 0.0000 0.0000
# 3 38.6096 38.6096 68.2335 0.0000 0.0000 0.0000
# 4 0.0000 0.0000 0.0000 18.0468 0.0000 0.0000
# 5 0.0000 0.0000 0.0000 0.0000 18.0468 0.0000
# 6 0.0000 0.0000 0.0000 0.0000 0.0000 5.7119
#
#
#
# Elastic Compliance Matrix: (Units=1/GPa)
#
#
# Indices 1 2 3 4 5 6 
#
# 1 0.047820 -0.039717 -0.004585 0.000000 0.000000 0.000000
# 2 -0.039717 0.047820 -0.004585 0.000000 0.000000 0.000000
# 3 -0.004585 -0.004585 0.019844 0.000000 0.000000 0.000000
# 4 0.000000 0.000000 0.000000 0.055411 0.000000 0.000000
# 5 0.000000 0.000000 0.000000 0.000000 0.055411 0.000000
# 6 0.000000 0.000000 0.000000 0.000000 0.000000 0.175074
#
#
# Mechanical properties :
#
#
# Convention : Reuss Voigt Hill
#
# Bulk Modulus (GPa) = 56.46449 61.87575 59.17012
# Shear Modulus (GPa) = 9.89982 14.47459 12.18720
#
# Velocity S-wave (km/s) = 2.45579 2.96948 2.72477
# Velocity P-wave (km/s) = 6.51453 7.03217 6.77829
#
# Compressibility (1/GPa) = 0.01771025
#
# Stress axis : x y z
#
# Youngs Moduli (GPa) = 20.91170 20.91170 50.39196
#
# Poissons Ratio (x) = 0.83055 0.23105
# Poissons Ratio (y) = 0.83055 0.23105
# Poissons Ratio (z) = 0.09588 0.09588
#
# Static dielectric constant tensor:
#      x y z
#    x 1.543260 0.000000 0.000000 
#    y 0.000000 1.543260 0.000000 
#    z 0.000000 0.000000 1.558180 
# 
# From -- ./inp_files/1586.got.cif
#   From: 2010.05.17/outbox.cif.g08.bks.cpg/sg183_1_cif.got.tgz:1586.got - 2010.05.20 12:02:58.
