data_PCOD9585808
_publ_section_title
;
Structure prediction by ZEFSAII (Michael W. Deem and Ramdas Pophale) SiO2 
 PCOD9585808
Probable space group: P -6 M 2
;
_chemical_formula_sum "Si O2"
_cell_formula_units_Z 60
_cell_length_a 21.492538
_cell_length_b 21.492538
_cell_length_c 8.911889
_cell_angle_alpha 90.000000
_cell_angle_beta 90.000000
_cell_angle_gamma 120.000000
_cell_volume 3565.133580
_symmetry_space_group_name_H-M "P -6 M 2"
_symmetry_group_IT_number 187
_symmetry_cell_setting 'hexagonal'
loop_
_space_group_symop_operation_xyz
x,y,z
-x+y,-x,-z
-y,x-y,z
x,y,-z
-x+y,-x,z
-y,x-y,-z
-y,-x,-z
-x+y,y,-z
x,x-y,-z
-x+y,y,z
x,x-y,z
-y,-x,z
loop_
_atom_site_type_symbol
_atom_site_label
_atom_site_fract_x
_atom_site_fract_y
_atom_site_fract_z
Si Si1 0.040572 0.451273 0.679755
Si Si2 0.413640 0.206820 0.179334
Si Si3 0.795660 0.969095 0.180246
Si Si4 0.873487 0.746975 0.679334
Si Si5 0.635762 0.506769 0.319754
Si Si6 0.117939 0.373906 0.820245
O O1 0.047058 0.452582 0.500000
O O2 0.062145 0.531073 0.731547
O O3 0.086299 0.419632 0.750000
O O4 0.955951 0.401030 0.713181
O O5 0.333333 0.166667 0.250000
O O6 0.458431 0.169402 0.235416
O O7 0.406998 0.203499 0.000000
O O8 0.817503 0.908752 0.218702
O O9 0.710715 0.932303 0.213181
O O10 0.836069 0.044304 0.264584
O O11 0.805159 0.980876 0.000000
O O12 0.870167 0.740333 0.500000
O O13 0.647543 0.509050 0.500000
O O14 0.575419 0.424582 0.281299
O O15 0.197739 0.395478 0.768453
O O16 0.119249 0.380392 0.000000
#
# Coordination Sequence:
#
# PCOD9585808 Si02
#       6
#    12   6  12   6  12  12
#     4   9  18  32  51  76 103 130 164 206 249 300
#     4  12  24  36  54  80 110 142 182 228 270 318
#     4   9  19  37  57  77 104 137 174 216 267 323
#     4  12  24  36  54  80 110 142 182 228 270 318
#     4   9  19  37  57  77 104 137 174 216 267 323
#     4   9  18  32  51  76 103 130 164 206 249 300
#
# _framework density 16.829664000000001
#
# number of rings (size 3 to 8) (size 9 to 14) (size 15 to 20)
#    0.000    2.400    0.000    5.400    0.000    6.400 
#    1.200    4.000    0.000    0.400    0.000    0.000 
#    0.000    0.000    0.000    0.000    0.000    0.000 
#
# Total GULP energy -334704.076063 kJ/mol
# GULP energy per Si atom -5578.401268 kJ/mol
# Density = 1.679136 g / cm^3
# Si number density = 16.829664 Si / 1000 Ang^3
#
#
#
# Elastic Constant Matrix: (Units=GPa)
#
#
# Indices 1 2 3 4 5 6 
#
# 1 144.2738 104.1868 71.4153 0.0000 0.0000 0.0000
# 2 104.1868 144.2738 71.4153 0.0000 0.0000 0.0000
# 3 71.4153 71.4153 62.0198 0.0000 0.0000 0.0000
# 4 0.0000 0.0000 0.0000 29.2589 0.0000 0.0000
# 5 0.0000 0.0000 0.0000 0.0000 29.2589 0.0000
# 6 0.0000 0.0000 0.0000 0.0000 0.0000 20.0435
#
#
#
# Elastic Compliance Matrix: (Units=1/GPa)
#
#
# Indices 1 2 3 4 5 6 
#
# 1 0.018426 -0.006520 -0.013709 0.000000 0.000000 0.000000
# 2 -0.006520 0.018426 -0.013709 0.000000 0.000000 0.000000
# 3 -0.013709 -0.013709 0.047697 0.000000 0.000000 0.000000
# 4 0.000000 0.000000 0.000000 0.034178 0.000000 0.000000
# 5 0.000000 0.000000 0.000000 0.000000 0.034178 0.000000
# 6 0.000000 0.000000 0.000000 0.000000 0.000000 0.049891
#
#
# Mechanical properties :
#
#
# Convention : Reuss Voigt Hill
#
# Bulk Modulus (GPa) = 59.98676 93.84469 76.91572
# Shear Modulus (GPa) = 18.10089 22.61559 20.35824
#
# Velocity S-wave (km/s) = 3.28309 3.66976 3.48180
# Velocity P-wave (km/s) = 7.07760 8.59294 7.87182
#
# Compressibility (1/GPa) = 0.01667035
#
# Stress axis : x y z
#
# Youngs Moduli (GPa) = 54.27176 54.27176 20.96586
#
# Poissons Ratio (x) = 0.35385 0.28743
# Poissons Ratio (y) = 0.35385 0.28743
# Poissons Ratio (z) = 0.74404 0.74404
#
# Static dielectric constant tensor:
#      x y z
#    x 1.556450 0.000000 0.000000 
#    y 0.000000 1.556450 0.000000 
#    z 0.000000 0.000000 1.564510 
# 
# From -- ./inp_files/698.got.cif
#   From: 2010.05.17/outbox.cif.g08.bks.cpg/sg187_1_cif.got.tgz:698.got - 2010.05.20 12:09:04.
