data_PCOD9585477
_publ_section_title
;
Structure prediction by ZEFSAII (Michael W. Deem and Ramdas Pophale) SiO2 
 PCOD9585477
Probable space group: P -6 M 2
;
_chemical_formula_sum "Si O2"
_cell_formula_units_Z 90
_cell_length_a 29.086542
_cell_length_b 29.086542
_cell_length_c 7.730441
_cell_angle_alpha 90.000000
_cell_angle_beta 90.000000
_cell_angle_gamma 120.000000
_cell_volume 5663.945772
_symmetry_space_group_name_H-M "P -6 M 2"
_symmetry_group_IT_number 187
_symmetry_cell_setting 'hexagonal'
loop_
_space_group_symop_operation_xyz
x,y,z
-x+y,-x,-z
-y,x-y,z
x,y,-z
-x+y,-x,z
-y,x-y,-z
-y,-x,-z
-x+y,y,-z
x,x-y,-z
-x+y,y,z
x,x-y,z
-y,-x,z
loop_
_atom_site_type_symbol
_atom_site_label
_atom_site_fract_x
_atom_site_fract_y
_atom_site_fract_z
Si Si1 0.514173 0.928969 0.700749
Si Si2 0.575357 0.523878 0.204984
Si Si3 0.811290 0.810020 0.788770
Si Si4 0.321611 0.383097 0.292175
Si Si5 0.899213 0.696173 0.206578
Si Si6 0.940747 0.322272 0.704991
Si Si7 0.697666 0.797397 0.792450
Si Si8 0.889195 0.000114 0.500000
O O1 0.504640 0.912353 0.500000
O O2 0.456907 0.913814 0.779405
O O3 0.556501 0.913809 0.775256
O O4 0.548114 0.993454 0.707013
O O5 0.537990 0.462011 0.253461
O O6 0.637592 0.557541 0.244681
O O7 0.570012 0.527965 0.000000
O O8 0.805119 0.753198 0.739835
O O9 0.754794 0.805050 0.744015
O O10 0.856596 0.855579 0.670401
O O11 0.819974 0.818172 0.000000
O O12 0.328225 0.386598 0.500000
O O13 0.347053 0.348110 0.223359
O O14 0.259645 0.350697 0.256676
O O15 0.844290 0.688580 0.277941
O O16 0.908965 0.647763 0.244628
O O17 0.898059 0.699540 0.000000
O O18 0.944627 0.323827 0.500000
O O19 0.691980 0.845990 0.723208
O O20 0.698280 0.799599 0.000000
O O21 0.892359 0.946180 0.500000
O O22 0.947234 0.052767 0.500000
#
# Coordination Sequence:
#
# PCOD9585477 Si02
#       8
#    12  12  12  12  12  12  12   6
#     4   8  14  25  39  56  82 114 146 178 209 244
#     4   9  16  25  39  59  84 117 154 187 217 250
#     4  10  22  41  60  79 100 126 160 196 239 300
#     4   9  17  27  41  63  87 114 149 185 222 264
#     4  10  20  33  50  71  94 121 154 196 244 290
#     4  10  19  29  43  64  90 119 152 189 229 275
#     4  10  20  32  47  67  91 120 152 190 238 287
#     4  12  27  44  64  84 102 122 147 192 252 314
#
# _framework density 15.889983000000001
#
# number of rings (size 3 to 8) (size 9 to 14) (size 15 to 20)
#    0.000    2.400    1.333    2.467    1.867    5.067 
#    0.000    0.000    0.000    0.800    0.000    0.000 
#    0.000    0.000    0.000    0.800    0.000   13.867 
#
# Total GULP energy -501144.871729 kJ/mol
# GULP energy per Si atom -5568.276353 kJ/mol
# Density = 1.585382 g / cm^3
# Si number density = 15.889983 Si / 1000 Ang^3
#
#
#
# Elastic Constant Matrix: (Units=GPa)
#
#
# Indices 1 2 3 4 5 6 
#
# 1 115.7622 87.5163 17.7978 0.0000 0.0004 0.0000
# 2 87.5163 115.7622 17.7978 0.0000 -0.0004 0.0000
# 3 17.7978 17.7978 37.4627 0.0000 0.0000 0.0000
# 4 0.0000 0.0000 0.0000 18.3894 0.0000 -0.0004
# 5 0.0004 -0.0004 0.0000 0.0000 18.3894 0.0000
# 6 0.0000 0.0000 0.0000 -0.0004 0.0000 14.1230
#
#
#
# Elastic Compliance Matrix: (Units=1/GPa)
#
#
# Indices 1 2 3 4 5 6 
#
# 1 0.020385 -0.015019 -0.002549 0.000000 -0.000001 0.000000
# 2 -0.015019 0.020385 -0.002549 0.000000 0.000001 0.000000
# 3 -0.002549 -0.002549 0.029115 0.000000 0.000000 0.000000
# 4 0.000000 0.000000 0.000000 0.054379 0.000000 0.000001
# 5 -0.000001 0.000001 0.000000 0.000000 0.054379 0.000000
# 6 0.000000 0.000000 0.000000 0.000001 0.000000 0.070807
#
#
# Mechanical properties :
#
#
# Convention : Reuss Voigt Hill
#
# Bulk Modulus (GPa) = 33.72658 57.24564 45.48611
# Shear Modulus (GPa) = 16.69077 19.90538 18.29808
#
# Velocity S-wave (km/s) = 3.24450 3.54319 3.39713
# Velocity P-wave (km/s) = 5.94195 7.26935 6.63891
#
# Compressibility (1/GPa) = 0.02965020
#
# Stress axis : x y z
#
# Youngs Moduli (GPa) = 49.05684 49.05684 34.34614
#
# Poissons Ratio (x) = 0.73677 0.08755
# Poissons Ratio (y) = 0.73677 0.08755
# Poissons Ratio (z) = 0.12505 0.12505
#
# Static dielectric constant tensor:
#      x y z
#    x 1.564220 0.000000 0.000000 
#    y 0.000000 1.564220 0.000000 
#    z 0.000000 0.000000 1.577330 
# 
# From -- ./inp_files/1285.got.cif
#   From: 2010.05.17/outbox.cif.g08.bks.cpg/sg187_1_cif.got.tgz:1285.got - 2010.05.20 12:09:04.
