data_PCOD9585438
_publ_section_title
;
Structure prediction by ZEFSAII (Michael W. Deem and Ramdas Pophale) SiO2 
 PCOD9585438
Probable space group: P -6 M 2
;
_chemical_formula_sum "Si O2"
_cell_formula_units_Z 60
_cell_length_a 22.702493
_cell_length_b 22.702493
_cell_length_c 7.580970
_cell_angle_alpha 90.000000
_cell_angle_beta 90.000000
_cell_angle_gamma 120.000000
_cell_volume 3383.783050
_symmetry_space_group_name_H-M "P -6 M 2"
_symmetry_group_IT_number 187
_symmetry_cell_setting 'hexagonal'
loop_
_space_group_symop_operation_xyz
x,y,z
-x+y,-x,-z
-y,x-y,z
x,y,-z
-x+y,-x,z
-y,x-y,-z
-y,-x,-z
-x+y,y,-z
x,x-y,-z
-x+y,y,z
x,x-y,z
-y,-x,z
loop_
_atom_site_type_symbol
_atom_site_label
_atom_site_fract_x
_atom_site_fract_y
_atom_site_fract_z
Si Si1 0.962824 0.289843 0.210420
Si Si2 0.535439 0.203081 0.714373
Si Si3 0.952427 0.411870 0.712162
Si Si4 0.042720 0.215723 0.788851
Si Si5 0.828484 0.171517 0.199233
Si Si6 0.906077 0.812153 0.293080
O O1 0.987901 0.368548 0.239568
O O2 0.885572 0.242173 0.284184
O O3 0.011485 0.262008 0.278329
O O4 0.956515 0.278035 0.000000
O O5 0.531232 0.201015 0.500000
O O6 0.613748 0.227495 0.758349
O O7 0.514291 0.257146 0.776213
O O8 0.492421 0.125642 0.777273
O O9 0.950624 0.412855 0.500000
O O10 0.978169 0.489085 0.772338
O O11 0.115421 0.230842 0.719144
O O12 0.985139 0.137745 0.752618
O O13 0.048877 0.224643 0.000000
O O14 0.869847 0.130153 0.194158
O O15 0.814806 0.185194 0.000000
O O16 0.898522 0.797043 0.500000
#
# Coordination Sequence:
#
# PCOD9585438 Si02
#       6
#    12  12  12  12   6   6
#     4   9  17  29  46  65  82 105 141 181 216 254
#     4   8  13  21  33  49  69  95 129 168 205 241
#     4   9  18  29  39  57  85 112 140 172 212 262
#     4   9  18  34  52  66  85 116 150 179 216 271
#     4   8  16  30  44  60  84 112 146 180 214 264
#     4  10  18  28  44  68  94 114 138 178 220 254
#
# _framework density 17.731632999999999
#
# number of rings (size 3 to 8) (size 9 to 14) (size 15 to 20)
#    0.000    3.200    0.000    3.500    1.400    4.800 
#    0.600    0.000    0.000    0.000    0.000    0.000 
#    0.000    0.000    0.000    0.600    0.000    9.200 
#
# Total GULP energy -334208.485483 kJ/mol
# GULP energy per Si atom -5570.141425 kJ/mol
# Density = 1.769128 g / cm^3
# Si number density = 17.731633 Si / 1000 Ang^3
#
#
#
# Elastic Constant Matrix: (Units=GPa)
#
#
# Indices 1 2 3 4 5 6 
#
# 1 95.8669 47.1095 2.9932 0.0000 0.0001 0.0000
# 2 47.1095 95.8669 2.9932 0.0000 -0.0001 0.0000
# 3 2.9932 2.9932 45.7471 0.0000 0.0000 0.0000
# 4 0.0000 0.0000 0.0000 23.2519 0.0000 -0.0001
# 5 0.0001 -0.0001 0.0000 0.0000 23.2519 0.0000
# 6 0.0000 0.0000 0.0000 -0.0001 0.0000 24.3787
#
#
#
# Elastic Compliance Matrix: (Units=1/GPa)
#
#
# Indices 1 2 3 4 5 6 
#
# 1 0.013762 -0.006748 -0.000459 0.000000 0.000000 0.000000
# 2 -0.006748 0.013762 -0.000459 0.000000 0.000000 0.000000
# 3 -0.000459 -0.000459 0.021919 0.000000 0.000000 0.000000
# 4 0.000000 0.000000 0.000000 0.043007 0.000000 0.000000
# 5 0.000000 0.000000 0.000000 0.000000 0.043007 0.000000
# 6 0.000000 0.000000 0.000000 0.000000 0.000000 0.041019
#
#
# Mechanical properties :
#
#
# Convention : Reuss Voigt Hill
#
# Bulk Modulus (GPa) = 29.31641 38.18586 33.75113
# Shear Modulus (GPa) = 24.60890 26.46882 25.53886
#
# Velocity S-wave (km/s) = 3.72943 3.86780 3.79924
# Velocity P-wave (km/s) = 5.92572 6.44428 6.19043
#
# Compressibility (1/GPa) = 0.03411059
#
# Stress axis : x y z
#
# Youngs Moduli (GPa) = 72.66629 72.66629 45.62173
#
# Poissons Ratio (x) = 0.49036 0.02094
# Poissons Ratio (y) = 0.49036 0.02094
# Poissons Ratio (z) = 0.03335 0.03335
#
# Static dielectric constant tensor:
#      x y z
#    x 1.644060 0.000000 0.000000 
#    y 0.000000 1.644060 0.000000 
#    z 0.000000 0.000000 1.670870 
# 
# From -- ./inp_files/881.got.cif
#   From: 2010.05.17/outbox.cif.g08.bks.cpg/sg187_1_cif.got.tgz:881.got - 2010.05.20 12:09:04.
