data_PCOD9585496
_publ_section_title
;
Structure prediction by ZEFSAII (Michael W. Deem and Ramdas Pophale) SiO2 
 PCOD9585496
Probable space group: P -6 M 2
;
_chemical_formula_sum "Si O2"
_cell_formula_units_Z 90
_cell_length_a 17.877942
_cell_length_b 17.877942
_cell_length_c 20.878760
_cell_angle_alpha 90.000000
_cell_angle_beta 90.000000
_cell_angle_gamma 120.000000
_cell_volume 5779.235364
_symmetry_space_group_name_H-M "P -6 M 2"
_symmetry_group_IT_number 187
_symmetry_cell_setting 'hexagonal'
loop_
_space_group_symop_operation_xyz
x,y,z
-x+y,-x,-z
-y,x-y,z
x,y,-z
-x+y,-x,z
-y,x-y,-z
-y,-x,-z
-x+y,y,-z
x,x-y,-z
-x+y,y,z
x,x-y,z
-y,-x,z
loop_
_atom_site_type_symbol
_atom_site_label
_atom_site_fract_x
_atom_site_fract_y
_atom_site_fract_z
Si Si1 0.827713 0.998910 0.119895
Si Si2 0.156651 0.666054 0.927816
Si Si3 0.029113 0.426400 0.191385
Si Si4 0.633433 0.905922 0.309406
Si Si5 0.730341 0.094356 0.118294
Si Si6 0.173096 0.000226 0.724856
Si Si7 0.333649 0.843299 0.425546
Si Si8 0.491128 0.158317 0.000000
O O1 0.924602 0.075399 0.104288
O O2 0.760915 0.027436 0.095450
O O3 0.812862 0.906431 0.099193
O O4 0.818799 0.997664 0.197501
O O5 0.182198 0.591099 0.924490
O O6 0.240865 0.759136 0.919332
O O7 0.088546 0.644520 0.871541
O O8 0.121713 0.661165 0.000000
O O9 0.012649 0.506325 0.197652
O O10 0.075312 0.415988 0.253334
O O11 0.944393 0.335576 0.176690
O O12 0.627712 0.813856 0.297444
O O13 0.735074 0.975495 0.305192
O O14 0.586897 0.898670 0.376620
O O15 0.818853 0.181148 0.135598
O O16 0.684538 0.116476 0.061873
O O17 0.076778 0.923223 0.708141
O O18 0.185948 0.092974 0.707300
O O19 0.334903 0.867662 0.500000
O O20 0.424419 0.848838 0.410675
O O21 0.255636 0.744365 0.418991
O O22 0.572974 0.145948 0.000000
O O23 0.518370 0.259185 0.000000
#
# Coordination Sequence:
#
# PCOD9585496 Si02
#       8
#    12  12  12  12  12  12  12   6
#     4   9  16  28  47  70  96 124 155 189 227 276
#     4   9  18  31  46  63  86 118 154 185 215 257
#     4  11  21  31  46  68  93 120 150 188 236 290
#     4  10  19  30  46  69  99 129 158 196 240 283
#     4  10  21  35  51  69  90 117 151 195 244 288
#     4   9  16  27  45  69  95 125 159 192 225 267
#     4   9  17  30  48  69  94 127 167 207 244 284
#     4  10  21  38  57  72  86 110 150 200 249 298
#
# _framework density 15.572995000000001
#
# number of rings (size 3 to 8) (size 9 to 14) (size 15 to 20)
#    0.000    2.400    1.333    1.800    0.933    2.667 
#    0.000    0.333    0.000    4.933    0.000    0.933 
#    0.000    1.067    0.000    0.000    0.000    1.333 
#
# Total GULP energy -501940.605668 kJ/mol
# GULP energy per Si atom -5577.117841 kJ/mol
# Density = 1.553755 g / cm^3
# Si number density = 15.572995 Si / 1000 Ang^3
#
#
#
# Elastic Constant Matrix: (Units=GPa)
#
#
# Indices 1 2 3 4 5 6 
#
# 1 95.0423 56.8107 34.7809 0.0000 -0.0004 0.0000
# 2 56.8107 95.0423 34.7809 0.0000 0.0004 0.0000
# 3 34.7809 34.7809 51.5178 0.0000 0.0000 0.0000
# 4 0.0000 0.0000 0.0000 14.9710 0.0000 0.0004
# 5 -0.0004 0.0004 0.0000 0.0000 14.9710 0.0000
# 6 0.0000 0.0000 0.0000 0.0004 0.0000 19.1158
#
#
#
# Elastic Compliance Matrix: (Units=1/GPa)
#
#
# Indices 1 2 3 4 5 6 
#
# 1 0.017845 -0.008311 -0.006436 0.000000 0.000001 0.000000
# 2 -0.008311 0.017845 -0.006436 0.000000 -0.000001 0.000000
# 3 -0.006436 -0.006436 0.028102 0.000000 0.000000 0.000000
# 4 0.000000 0.000000 0.000000 0.066796 0.000000 -0.000001
# 5 0.000001 -0.000001 0.000000 0.000000 0.066796 0.000000
# 6 0.000000 0.000000 0.000000 -0.000001 0.000000 0.052313
#
#
# Mechanical properties :
#
#
# Convention : Reuss Voigt Hill
#
# Bulk Modulus (GPa) = 46.67829 54.92749 50.80289
# Shear Modulus (GPa) = 16.71089 17.49354 17.10222
#
# Velocity S-wave (km/s) = 3.27933 3.35524 3.31750
# Velocity P-wave (km/s) = 6.66165 7.09632 6.88242
#
# Compressibility (1/GPa) = 0.02142323
#
# Stress axis : x y z
#
# Youngs Moduli (GPa) = 56.03782 56.03782 35.58520
#
# Poissons Ratio (x) = 0.46575 0.22904
# Poissons Ratio (y) = 0.46575 0.22904
# Poissons Ratio (z) = 0.36069 0.36069
#
# Static dielectric constant tensor:
#      x y z
#    x 1.525730 0.000000 0.000000 
#    y 0.000000 1.525730 0.000000 
#    z 0.000000 0.000000 1.505750 
# 
# From -- ./inp_files/3258.got.cif
#   From: 2010.05.17/outbox.cif.g08.bks.cpg/sg187_2_cif.got.tgz:3258.got - 2010.05.20 12:09:04.
