data_PCOD9585475
_publ_section_title
;
Structure prediction by ZEFSAII (Michael W. Deem and Ramdas Pophale) SiO2 
 PCOD9585475
Probable space group: P -6 M 2
;
_chemical_formula_sum "Si O2"
_cell_formula_units_Z 96
_cell_length_a 17.929801
_cell_length_b 17.929801
_cell_length_c 25.315521
_cell_angle_alpha 90.000000
_cell_angle_beta 90.000000
_cell_angle_gamma 120.000000
_cell_volume 7048.041299
_symmetry_space_group_name_H-M "P -6 M 2"
_symmetry_group_IT_number 187
_symmetry_cell_setting 'hexagonal'
loop_
_space_group_symop_operation_xyz
x,y,z
-x+y,-x,-z
-y,x-y,z
x,y,-z
-x+y,-x,z
-y,x-y,-z
-y,-x,-z
-x+y,y,-z
x,x-y,-z
-x+y,y,z
x,x-y,z
-y,-x,z
loop_
_atom_site_type_symbol
_atom_site_label
_atom_site_fract_x
_atom_site_fract_y
_atom_site_fract_z
Si Si1 0.255546 0.338574 0.862345
Si Si2 0.499509 0.834343 0.938207
Si Si3 0.156036 0.666633 0.327200
Si Si4 0.760876 0.700508 0.940957
Si Si5 0.835253 0.332952 0.212864
Si Si6 0.839119 0.334066 0.085256
Si Si7 0.397355 0.969743 0.228776
Si Si8 0.511316 0.667134 0.443243
O O1 0.161040 0.322080 0.848001
O O2 0.294828 0.413369 0.906349
O O3 0.254893 0.259342 0.892526
O O4 0.322745 0.378807 0.814380
O O5 0.427800 0.855599 0.918499
O O6 0.465060 0.732530 0.933363
O O7 0.514824 0.855803 0.000000
O O8 0.177732 0.588866 0.328425
O O9 0.242938 0.757063 0.317585
O O10 0.087557 0.642838 0.280737
O O11 0.119732 0.669650 0.385505
O O12 0.854123 0.708246 0.935576
O O13 0.692281 0.598167 0.937351
O O14 0.755147 0.731409 0.000000
O O15 0.806022 0.403011 0.223749
O O16 0.761635 0.238366 0.228348
O O17 0.846837 0.334049 0.149119
O O18 0.928334 0.367960 0.238202
O O19 0.852503 0.426252 0.069088
O O20 0.742995 0.257006 0.071723
O O21 0.478738 0.957475 0.211467
O O22 0.556109 0.673883 0.500000
O O23 0.493636 0.746818 0.442049
O O24 0.421668 0.578333 0.444705
#
# Coordination Sequence:
#
# PCOD9585475 Si02
#       8
#    12  12  12  12  12  12  12  12
#     4  11  21  32  46  61  76  97 127 158 188 226
#     4   9  17  28  41  56  74  96 122 152 182 209
#     4   9  16  25  36  52  78 113 149 180 208 236
#     4  10  21  35  48  61  77  96 118 150 196 242
#     4   9  16  27  44  63  82 103 127 154 186 228
#     4   9  16  27  43  63  84 104 123 143 175 226
#     4  10  19  29  41  59  85 112 135 161 193 230
#     4   8  12  18  30  48  70  99 138 181 217 244
#
# _framework density 13.620806
#
# number of rings (size 3 to 8) (size 9 to 14) (size 15 to 20)
#    0.000    2.625    1.250    1.750    0.000    4.500 
#    0.000    0.000    0.000    5.000    0.000    0.000 
#    0.000    0.500    0.000    0.375    0.000    5.250 
#
# Total GULP energy -534427.115683 kJ/mol
# GULP energy per Si atom -5566.949122 kJ/mol
# Density = 1.358980 g / cm^3
# Si number density = 13.620806 Si / 1000 Ang^3
#
#
#
# Elastic Constant Matrix: (Units=GPa)
#
#
# Indices 1 2 3 4 5 6 
#
# 1 52.1314 24.5476 32.2244 0.0000 -0.0001 0.0000
# 2 24.5476 52.1314 32.2244 0.0000 0.0001 0.0000
# 3 32.2244 32.2244 75.0022 0.0000 0.0000 0.0000
# 4 0.0000 0.0000 0.0000 11.4394 0.0000 0.0001
# 5 -0.0001 0.0001 0.0000 0.0000 11.4394 0.0000
# 6 0.0000 0.0000 0.0000 0.0001 0.0000 13.7919
#
#
#
# Elastic Compliance Matrix: (Units=1/GPa)
#
#
# Indices 1 2 3 4 5 6 
#
# 1 0.028333 -0.007920 -0.008770 0.000000 0.000000 0.000000
# 2 -0.007920 0.028333 -0.008770 0.000000 0.000000 0.000000
# 3 -0.008770 -0.008770 0.020869 0.000000 0.000000 0.000000
# 4 0.000000 0.000000 0.000000 0.087417 0.000000 -0.000001
# 5 0.000000 0.000000 0.000000 0.000000 0.087417 0.000000
# 6 0.000000 0.000000 0.000000 -0.000001 0.000000 0.072506
#
#
# Mechanical properties :
#
#
# Convention : Reuss Voigt Hill
#
# Bulk Modulus (GPa) = 37.57469 39.69532 38.63501
# Shear Modulus (GPa) = 12.99818 13.35203 13.17511
#
# Velocity S-wave (km/s) = 3.09251 3.13432 3.11348
# Velocity P-wave (km/s) = 6.35591 6.50423 6.43050
#
# Compressibility (1/GPa) = 0.02661366
#
# Stress axis : x y z
#
# Youngs Moduli (GPa) = 35.29451 35.29451 47.91753
#
# Poissons Ratio (x) = 0.27954 0.42025
# Poissons Ratio (y) = 0.27954 0.42025
# Poissons Ratio (z) = 0.30954 0.30954
#
# Static dielectric constant tensor:
#      x y z
#    x 1.451300 0.000000 0.000000 
#    y 0.000000 1.451300 0.000000 
#    z 0.000000 0.000000 1.472510 
# 
# From -- ./inp_files/4102.got.cif
#   From: 2010.05.17/outbox.cif.g08.bks.cpg/sg187_3_cif.got.tgz:4102.got - 2010.05.20 12:09:04.
