data_PCOD9585498
_publ_section_title
;
Structure prediction by ZEFSAII (Michael W. Deem and Ramdas Pophale) SiO2 
 PCOD9585498
Probable space group: P -6 M 2
;
_chemical_formula_sum "Si O2"
_cell_formula_units_Z 90
_cell_length_a 17.670347
_cell_length_b 17.670347
_cell_length_c 18.544737
_cell_angle_alpha 90.000000
_cell_angle_beta 90.000000
_cell_angle_gamma 120.000000
_cell_volume 5014.659696
_symmetry_space_group_name_H-M "P -6 M 2"
_symmetry_group_IT_number 187
_symmetry_cell_setting 'hexagonal'
loop_
_space_group_symop_operation_xyz
x,y,z
-x+y,-x,-z
-y,x-y,z
x,y,-z
-x+y,-x,z
-y,x-y,-z
-y,-x,-z
-x+y,y,-z
x,x-y,-z
-x+y,y,z
x,x-y,z
-y,-x,z
loop_
_atom_site_type_symbol
_atom_site_label
_atom_site_fract_x
_atom_site_fract_y
_atom_site_fract_z
Si Si1 0.844218 0.335869 0.677677
Si Si2 0.510812 0.846411 0.296687
Si Si3 0.832642 0.830844 0.740721
Si Si4 0.777573 0.801668 0.421178
Si Si5 0.762191 0.696087 0.133962
Si Si6 0.174348 0.173119 0.000000
Si Si7 0.605583 0.990096 0.418634
Si Si8 0.594297 0.582979 0.197549
O O1 0.810063 0.405032 0.682691
O O2 0.763112 0.236889 0.672542
O O3 0.915296 0.369119 0.613034
O O4 0.908627 0.354156 0.745708
O O5 0.409048 0.818095 0.285891
O O6 0.523701 0.761851 0.300171
O O7 0.543020 0.908858 0.367586
O O8 0.567054 0.918045 0.234910
O O9 0.933013 0.866025 0.761268
O O10 0.824999 0.813954 0.654927
O O11 0.778494 0.745802 0.789184
O O12 0.805472 0.902736 0.755885
O O13 0.822105 0.814443 0.500000
O O14 0.747344 0.873672 0.419392
O O15 0.696058 0.706058 0.419657
O O16 0.830351 0.660702 0.130241
O O17 0.788985 0.766043 0.070662
O O18 0.660886 0.625790 0.132374
O O19 0.096116 0.192231 0.000000
O O20 0.139492 0.069746 0.000000
O O21 0.572908 0.978453 0.500000
O O22 0.504240 0.495761 0.180580
#
# Coordination Sequence:
#
# PCOD9585498 Si02
#       8
#    12  12  12  12  12   6  12  12
#     4  10  20  34  52  73  97 126 162 206 257 313
#     4  10  20  33  50  72  98 128 163 206 257 313
#     4  10  19  30  46  69  99 135 173 213 256 303
#     4   9  18  31  46  66  91 122 165 214 261 307
#     4  10  20  34  54  80 108 139 178 219 257 302
#     4  10  21  36  55  82 118 156 188 220 257 296
#     4  10  20  33  48  65  89 123 163 209 260 312
#     4   9  19  35  55  79 105 132 163 205 258 311
#
# _framework density 17.947379999999999
#
# number of rings (size 3 to 8) (size 9 to 14) (size 15 to 20)
#    0.000    2.267    0.000    4.467    0.000    6.133 
#    0.000    3.000    0.000    2.667    0.000    0.000 
#    0.000    0.000    0.000    0.000    0.000    0.267 
#
# Total GULP energy -501416.341008 kJ/mol
# GULP energy per Si atom -5571.292678 kJ/mol
# Density = 1.790653 g / cm^3
# Si number density = 17.947380 Si / 1000 Ang^3
#
#
#
# Elastic Constant Matrix: (Units=GPa)
#
#
# Indices 1 2 3 4 5 6 
#
# 1 68.2933 88.8203 16.7701 0.0000 0.0001 0.0000
# 2 88.8203 68.2933 16.7701 0.0000 -0.0001 0.0000
# 3 16.7701 16.7701 36.8954 0.0000 0.0000 0.0000
# 4 0.0000 0.0000 0.0000 14.8446 0.0000 -0.0001
# 5 0.0001 -0.0001 0.0000 0.0000 14.8446 0.0000
# 6 0.0000 0.0000 0.0000 -0.0001 0.0000 -10.2635
#
#
#
# Elastic Compliance Matrix: (Units=1/GPa)
#
#
# Indices 1 2 3 4 5 6 
#
# 1 -0.020834 0.027883 -0.003204 0.000000 0.000000 0.000000
# 2 0.027883 -0.020834 -0.003204 0.000000 0.000000 0.000000
# 3 -0.003204 -0.003204 0.030016 0.000000 0.000000 0.000000
# 4 0.000000 0.000000 0.000000 0.067364 0.000000 -0.000001
# 5 0.000000 0.000000 0.000000 0.000000 0.067364 0.000000
# 6 0.000000 0.000000 0.000000 -0.000001 0.000000 -0.097433
#
#
# Mechanical properties :
#
#
# Convention : Reuss Voigt Hill
#
# Bulk Modulus (GPa) = 31.95075 46.46702 39.20889
# Shear Modulus (GPa) = -727.57311 7.29326 -360.13993
#
# Velocity S-wave (km/s) = -20.15620 2.01805 -14.18097
# Velocity P-wave (km/s) = 22.88789 5.60151 15.69201
#
# Compressibility (1/GPa) = 0.03129817
#
# Stress axis : x y z
#
# Youngs Moduli (GPa) = -47.99897 -47.99897 33.31541
#
# Poissons Ratio (x) = 1.33833 0.10674
# Poissons Ratio (y) = 1.33833 0.10674
# Poissons Ratio (z) = -0.15378 -0.15378
#
# Static dielectric constant tensor:
#      x y z
#    x 1.644820 0.000000 0.000000 
#    y 0.000000 1.644820 0.000000 
#    z 0.000000 0.000000 1.659210 
# 
# From -- ./inp_files/3233.got.cif
#   From: 2010.05.17/outbox.cif.g08.bks.cpg/sg187_2_cif.got.tgz:3233.got - 2010.05.20 12:09:04.
