data_PCOD9585280
_publ_section_title
;
Structure prediction by ZEFSAII (Michael W. Deem and Ramdas Pophale) SiO2 
 PCOD9585280
Probable space group: P 63 C M
;
_chemical_formula_sum "Si O2"
_cell_formula_units_Z 72
_cell_length_a 14.131469
_cell_length_b 14.131469
_cell_length_c 17.070399
_cell_angle_alpha 90.000000
_cell_angle_beta 90.000000
_cell_angle_gamma 120.000000
_cell_volume 2952.221402
_symmetry_space_group_name_H-M "P 63 C M"
_symmetry_group_IT_number 185
_symmetry_cell_setting 'hexagonal'
loop_
_space_group_symop_operation_xyz
x,y,z
x-y,x,1/2+z
-y,x-y,z
-x,-y,1/2+z
-x+y,-x,z
y,-x+y,1/2+z
-x+y,y,1/2+z
x,x-y,1/2+z
-y,-x,1/2+z
y,x,z
x-y,-y,z
-x,-x+y,z
loop_
_atom_site_type_symbol
_atom_site_label
_atom_site_fract_x
_atom_site_fract_y
_atom_site_fract_z
Si Si1 0.879785 0.760165 0.845440
Si Si2 0.719156 0.531995 0.274306
Si Si3 0.874161 0.446538 0.922715
Si Si4 0.251729 0.481737 0.032024
Si Si5 0.877615 0.754204 0.534763
Si Si6 0.393875 0.521035 0.176546
O O1 0.788026 0.788026 0.818190
O O2 0.871499 0.654120 0.806257
O O3 0.000000 0.860321 0.829964
O O4 0.869519 0.747087 0.939741
O O5 0.641143 0.457146 0.345126
O O6 0.632337 0.499131 0.204477
O O7 0.815631 0.512784 0.243828
O O8 0.000000 0.478868 0.908478
O O9 0.870781 0.537924 0.976612
O O10 0.804201 0.335171 0.973724
O O11 0.159661 0.366315 0.064279
O O12 0.335289 0.542313 0.103057
O O13 0.796344 0.796344 0.559260
O O14 0.000000 0.839052 0.559416
O O15 0.432973 0.432973 0.161865
#
# Coordination Sequence:
#
# PCOD9585280 Si02
#       6
#    12  12  12  12  12  12
#     4  10  20  38  67 105 143 183 232 295 364 434
#     4  12  25  45  71 106 150 195 248 305 373 452
#     4  12  25  45  73 106 139 184 244 310 373 437
#     4  12  25  45  71 101 142 187 242 305 369 438
#     4  10  20  38  66 102 139 179 227 289 359 429
#     4  12  27  47  72 106 149 202 253 306 376 462
#
# _framework density 24.388415999999999
#
# number of rings (size 3 to 8) (size 9 to 14) (size 15 to 20)
#    0.000    0.667    1.667    7.000    0.000    1.333 
#    0.000    4.167    0.000    0.000    0.000    4.667 
#    0.000    0.000    0.000    0.000    0.000    0.000 
#
# Total GULP energy -402142.423518 kJ/mol
# GULP energy per Si atom -5585.311438 kJ/mol
# Density = 2.433291 g / cm^3
# Si number density = 24.388416 Si / 1000 Ang^3
#
#
#
# Elastic Constant Matrix: (Units=GPa)
#
#
# Indices 1 2 3 4 5 6 
#
# 1 139.2652 63.6474 48.1565 0.0000 0.0000 0.0000
# 2 63.6474 139.2652 48.1565 0.0000 0.0000 0.0000
# 3 48.1565 48.1565 81.9874 0.0000 0.0000 0.0000
# 4 0.0000 0.0000 0.0000 20.2659 0.0000 0.0000
# 5 0.0000 0.0000 0.0000 0.0000 20.2659 0.0000
# 6 0.0000 0.0000 0.0000 0.0000 0.0000 37.8089
#
#
#
# Elastic Compliance Matrix: (Units=1/GPa)
#
#
# Indices 1 2 3 4 5 6 
#
# 1 0.010029 -0.003196 -0.004014 0.000000 0.000000 0.000000
# 2 -0.003196 0.010029 -0.004014 0.000000 0.000000 0.000000
# 3 -0.004014 -0.004014 0.016912 0.000000 0.000000 0.000000
# 4 0.000000 0.000000 0.000000 0.049344 0.000000 0.000000
# 5 0.000000 0.000000 0.000000 0.000000 0.049344 0.000000
# 6 0.000000 0.000000 0.000000 0.000000 0.000000 0.026449
#
#
# Mechanical properties :
#
#
# Convention : Reuss Voigt Hill
#
# Bulk Modulus (GPa) = 68.85163 75.60429 72.22796
# Shear Modulus (GPa) = 26.40005 29.03862 27.71933
#
# Velocity S-wave (km/s) = 3.29368 3.45436 3.37497
# Velocity P-wave (km/s) = 6.53888 6.85401 6.69830
#
# Compressibility (1/GPa) = 0.01452399
#
# Stress axis : x y z
#
# Youngs Moduli (GPa) = 99.71221 99.71221 59.12975
#
# Poissons Ratio (x) = 0.31863 0.23733
# Poissons Ratio (y) = 0.31863 0.23733
# Poissons Ratio (z) = 0.40021 0.40021
#
# Static dielectric constant tensor:
#      x y z
#    x 1.946850 0.000000 0.000000 
#    y 0.000000 1.946850 0.000000 
#    z 0.000000 0.000000 2.007560 
# 
# From -- ./inp_files/1700.got.cif
#   From: 2010.05.17/outbox.cif.g08.bks.cpg/sg185_cif.got.tgz:1700.got - 2010.05.20 12:05:34.
