data_PCOD9585658
_publ_section_title
;
Structure prediction by ZEFSAII (Michael W. Deem and Ramdas Pophale) SiO2 
 PCOD9585658
Probable space group: P -6 M 2
;
_chemical_formula_sum "Si O2"
_cell_formula_units_Z 66
_cell_length_a 12.792355
_cell_length_b 12.792355
_cell_length_c 29.069319
_cell_angle_alpha 90.000000
_cell_angle_beta 90.000000
_cell_angle_gamma 120.000000
_cell_volume 4119.708575
_symmetry_space_group_name_H-M "P -6 M 2"
_symmetry_group_IT_number 187
_symmetry_cell_setting 'hexagonal'
loop_
_space_group_symop_operation_xyz
x,y,z
-x+y,-x,-z
-y,x-y,z
x,y,-z
-x+y,-x,z
-y,x-y,-z
-y,-x,-z
-x+y,y,-z
x,x-y,-z
-x+y,y,z
x,x-y,z
-y,-x,z
loop_
_atom_site_type_symbol
_atom_site_label
_atom_site_fract_x
_atom_site_fract_y
_atom_site_fract_z
Si Si1 0.333261 0.913473 0.446764
Si Si2 0.332609 0.914157 0.000000
Si Si3 0.914280 0.333072 0.362803
Si Si4 0.085094 0.418898 0.724531
Si Si5 0.915246 0.333285 0.812298
Si Si6 0.332516 0.415732 0.101085
O O1 0.334796 0.949435 0.500000
O O2 0.442242 0.884484 0.441429
O O3 0.206560 0.793441 0.437690
O O4 0.360370 0.017540 0.410482
O O5 0.325733 0.964361 0.950068
O O6 0.223317 0.776684 0.000000
O O7 0.458058 0.916116 0.000000
O O8 0.885947 0.442974 0.362261
O O9 0.793279 0.206722 0.357571
O O10 0.006377 0.359096 0.321011
O O11 0.205806 0.411612 0.725209
O O12 0.116026 0.558013 0.724978
O O13 0.002233 0.356387 0.768953
O O14 0.887766 0.443883 0.812359
O O15 0.793088 0.206913 0.809046
O O16 0.988788 0.345350 0.858790
O O17 0.209653 0.419305 0.108701
O O18 0.447575 0.552426 0.101674
#
# Coordination Sequence:
#
# PCOD9585658 Si02
#       6
#    12   6  12  12  12  12
#     4   9  17  30  50  75 100 126 158 200 249 294
#     4   8  13  22  39  66  96 122 148 182 232 288
#     4  10  20  33  50  72  99 131 164 196 230 273
#     4  10  20  34  54  78 100 120 146 188 241 290
#     4  10  20  33  49  68  93 126 161 194 227 270
#     4   9  16  27  46  71  97 122 150 190 239 287
#
# _framework density 16.020551000000001
#
# number of rings (size 3 to 8) (size 9 to 14) (size 15 to 20)
#    0.000    2.545    0.000    2.636    0.000    2.545 
#    0.000    5.909    0.000   11.273    0.000    1.273 
#    0.000    0.000    0.000    0.000    0.000    0.000 
#
# Total GULP energy -367838.120159 kJ/mol
# GULP energy per Si atom -5573.304851 kJ/mol
# Density = 1.598409 g / cm^3
# Si number density = 16.020551 Si / 1000 Ang^3
#
#
#
# Elastic Constant Matrix: (Units=GPa)
#
#
# Indices 1 2 3 4 5 6 
#
# 1 100.1220 70.5287 74.3003 0.0000 -0.0004 0.0000
# 2 70.5287 100.1220 74.3003 0.0000 0.0004 0.0000
# 3 74.3003 74.3003 129.0639 0.0000 0.0000 0.0000
# 4 0.0000 0.0000 0.0000 11.7558 0.0000 0.0004
# 5 -0.0004 0.0004 0.0000 0.0000 11.7558 0.0000
# 6 0.0000 0.0000 0.0000 0.0004 0.0000 14.7967
#
#
#
# Elastic Compliance Matrix: (Units=1/GPa)
#
#
# Indices 1 2 3 4 5 6 
#
# 1 0.022771 -0.011020 -0.006765 0.000000 0.000001 0.000000
# 2 -0.011020 0.022771 -0.006765 0.000000 -0.000001 0.000000
# 3 -0.006765 -0.006765 0.015537 0.000000 0.000000 0.000000
# 4 0.000000 0.000000 0.000000 0.085064 0.000000 -0.000003
# 5 0.000001 -0.000001 0.000000 0.000000 0.085064 0.000000
# 6 0.000000 0.000000 0.000000 -0.000003 0.000000 0.067583
#
#
# Mechanical properties :
#
#
# Convention : Reuss Voigt Hill
#
# Bulk Modulus (GPa) = 83.47775 85.28517 84.38146
# Shear Modulus (GPa) = 14.20930 15.00690 14.60810
#
# Velocity S-wave (km/s) = 2.98139 3.06392 3.02294
# Velocity P-wave (km/s) = 8.00446 8.11586 8.06035
#
# Compressibility (1/GPa) = 0.01197924
#
# Stress axis : x y z
#
# Youngs Moduli (GPa) = 43.91572 43.91572 64.36405
#
# Poissons Ratio (x) = 0.48397 0.43539
# Poissons Ratio (y) = 0.48397 0.43539
# Poissons Ratio (z) = 0.29707 0.29707
#
# Static dielectric constant tensor:
#      x y z
#    x 1.500020 0.000000 0.000000 
#    y 0.000000 1.500020 0.000000 
#    z 0.000000 0.000000 1.569270 
# 
# From -- ./inp_files/4441.got.cif
#   From: 2010.05.17/outbox.cif.g08.bks.cpg/sg187_3_cif.got.tgz:4441.got - 2010.05.20 12:09:04.
