data_PCOD9585913
_publ_section_title
;
Structure prediction by ZEFSAII (Michael W. Deem and Ramdas Pophale) SiO2 
 PCOD9585913
Probable space group: P -6 C 2
;
_chemical_formula_sum "Si O2"
_cell_formula_units_Z 72
_cell_length_a 23.492985
_cell_length_b 23.492985
_cell_length_c 8.680890
_cell_angle_alpha 90.000000
_cell_angle_beta 90.000000
_cell_angle_gamma 120.000000
_cell_volume 4149.266098
_symmetry_space_group_name_H-M "P -6 C 2"
_symmetry_group_IT_number 188
_symmetry_cell_setting 'hexagonal'
loop_
_space_group_symop_operation_xyz
x,y,z
-x+y,-x,1/2-z
-y,x-y,z
x,y,1/2-z
-x+y,-x,z
-y,x-y,1/2-z
-y,-x,-z
-x+y,y,-z
x,x-y,-z
-x+y,y,1/2+z
x,x-y,1/2+z
-y,-x,1/2+z
loop_
_atom_site_type_symbol
_atom_site_label
_atom_site_fract_x
_atom_site_fract_y
_atom_site_fract_z
Si Si1 0.920130 0.398688 0.565271
Si Si2 0.253383 0.254055 0.935279
Si Si3 0.389312 0.131107 0.065693
Si Si4 0.126894 0.126970 0.434482
Si Si5 0.524285 0.926776 0.064973
Si Si6 0.617253 0.745171 0.935621
O O1 0.917625 0.397858 0.750000
O O2 0.900159 0.450080 0.500000
O O3 0.877631 0.325801 0.500424
O O4 0.996866 0.428179 0.517557
O O5 0.247298 0.252464 0.750000
O O6 0.321820 0.257369 0.975674
O O7 0.194048 0.188701 0.007048
O O8 0.250958 0.316638 0.000516
O O9 0.393504 0.135419 0.250000
O O10 0.388786 0.194393 0.000000
O O11 0.124875 0.125073 0.250000
O O12 0.121773 0.060887 0.500000
O O13 0.066725 0.133450 0.500000
O O14 0.520923 0.926096 0.250000
O O15 0.557514 0.884165 0.017999
O O16 0.452651 0.905301 0.000000
O O17 0.620644 0.748489 0.750000
O O18 0.610404 0.805202 0.000000
#
# Coordination Sequence:
#
# PCOD9585913 Si02
#       6
#    12  12  12  12  12  12
#     4  10  19  35  58  85 116 148 186 232 281 334
#     4  11  23  39  58  83 113 150 191 236 289 343
#     4  11  23  37  57  85 118 155 194 236 286 338
#     4  12  25  42  61  80 105 139 185 237 290 347
#     4   9  19  34  56  83 113 146 184 230 281 332
#     4  11  22  37  56  84 118 155 192 236 287 339
#
# _framework density 17.352466
#
# number of rings (size 3 to 8) (size 9 to 14) (size 15 to 20)
#    0.000    1.333    1.667    4.667    0.000    5.333 
#    0.000    0.000    0.000    0.667    0.000    2.333 
#    0.000    0.000    0.000    0.000    0.000    0.000 
#
# Total GULP energy -402457.101250 kJ/mol
# GULP energy per Si atom -5589.681962 kJ/mol
# Density = 1.731297 g / cm^3
# Si number density = 17.352466 Si / 1000 Ang^3
#
#
#
# Elastic Constant Matrix: (Units=GPa)
#
#
# Indices 1 2 3 4 5 6 
#
# 1 126.9174 77.2966 50.3647 0.0005 0.0000 0.0000
# 2 77.2966 126.9174 50.3647 -0.0005 0.0000 0.0000
# 3 50.3647 50.3647 73.6810 0.0000 0.0000 0.0000
# 4 0.0005 -0.0005 0.0000 27.9247 0.0000 0.0000
# 5 0.0000 0.0000 0.0000 0.0000 27.9247 0.0005
# 6 0.0000 0.0000 0.0000 0.0000 0.0005 24.8104
#
#
#
# Elastic Compliance Matrix: (Units=1/GPa)
#
#
# Indices 1 2 3 4 5 6 
#
# 1 0.013770 -0.006383 -0.005050 0.000000 0.000000 0.000000
# 2 -0.006383 0.013770 -0.005050 0.000000 0.000000 0.000000
# 3 -0.005050 -0.005050 0.020476 0.000000 0.000000 0.000000
# 4 0.000000 0.000000 0.000000 0.035811 0.000000 0.000000
# 5 0.000000 0.000000 0.000000 0.000000 0.035811 -0.000001
# 6 0.000000 0.000000 0.000000 0.000000 -0.000001 0.040306
#
#
# Mechanical properties :
#
#
# Convention : Reuss Voigt Hill
#
# Bulk Modulus (GPa) = 66.43799 75.95195 71.19497
# Shear Modulus (GPa) = 25.26211 26.09795 25.68003
#
# Velocity S-wave (km/s) = 3.81966 3.88234 3.85113
# Velocity P-wave (km/s) = 7.60418 7.99762 7.80338
#
# Compressibility (1/GPa) = 0.01505163
#
# Stress axis : x y z
#
# Youngs Moduli (GPa) = 72.62021 72.62021 48.83846
#
# Poissons Ratio (x) = 0.46350 0.24663
# Poissons Ratio (y) = 0.46350 0.24663
# Poissons Ratio (z) = 0.36672 0.36672
#
# Static dielectric constant tensor:
#      x y z
#    x 1.569630 0.000000 0.000000 
#    y 0.000000 1.569630 0.000000 
#    z 0.000000 0.000000 1.587080 
# 
# From -- ./inp_files/1034.got.cif
#   From: 2010.05.17/outbox.cif.g08.bks.cpg/sg188_1_cif.got.tgz:1034.got - 2010.05.20 12:11:46.
