data_PCOD9585951
_publ_section_title
;
Structure prediction by ZEFSAII (Michael W. Deem and Ramdas Pophale) SiO2 
 PCOD9585951
Probable space group: P -6 C 2
;
_chemical_formula_sum "Si O2"
_cell_formula_units_Z 76
_cell_length_a 17.380391
_cell_length_b 17.380391
_cell_length_c 17.170910
_cell_angle_alpha 90.000000
_cell_angle_beta 90.000000
_cell_angle_gamma 120.000000
_cell_volume 4492.033934
_symmetry_space_group_name_H-M "P -6 C 2"
_symmetry_group_IT_number 188
_symmetry_cell_setting 'hexagonal'
loop_
_space_group_symop_operation_xyz
x,y,z
-x+y,-x,1/2-z
-y,x-y,z
x,y,1/2-z
-x+y,-x,z
-y,x-y,1/2-z
-y,-x,-z
-x+y,y,-z
x,x-y,-z
-x+y,y,1/2+z
x,x-y,1/2+z
-y,-x,1/2+z
loop_
_atom_site_type_symbol
_atom_site_label
_atom_site_fract_x
_atom_site_fract_y
_atom_site_fract_z
Si Si1 0.031386 0.484069 0.659032
Si Si2 0.149055 0.149210 0.446811
Si Si3 0.744335 0.221169 0.159807
Si Si4 0.309771 0.282190 0.158044
Si Si5 0.853162 0.406361 0.410701
Si Si6 0.390179 0.609663 0.592601
Si Si7 0.000000 0.000000 0.657675
O O1 0.010644 0.484290 0.750000
O O2 0.129339 0.561234 0.638957
O O3 0.022292 0.388112 0.643199
O O4 0.956606 0.490777 0.610240
O O5 0.173757 0.086879 0.500000
O O6 0.231469 0.230051 0.403575
O O7 0.086737 0.173474 0.500000
O O8 0.085231 0.084728 0.378966
O O9 0.762008 0.246607 0.250000
O O10 0.749047 0.131848 0.148314
O O11 0.644016 0.196174 0.139103
O O12 0.812380 0.303793 0.108966
O O13 0.281967 0.268246 0.250000
O O14 0.838660 0.419330 0.500000
O O15 0.429254 0.714779 0.609344
O O16 0.399192 0.600809 0.500000
O O17 0.000000 0.000000 0.750000
#
# Coordination Sequence:
#
# PCOD9585951 Si02
#       7
#    12  12  12  12  12  12   4
#     4  10  20  34  53  77 104 141 178 216 261 313
#     4   9  18  32  49  76 101 124 167 213 257 312
#     4  10  20  35  53  75 105 145 181 222 263 310
#     4   9  19  34  52  73 104 140 174 210 261 318
#     4  11  21  33  52  78 108 142 186 222 263 311
#     4   8  17  35  56  78 101 129 168 214 264 318
#     4   9  16  29  55  72  91 131 166 204 250 302
#
# _framework density 16.918838999999998
#
# number of rings (size 3 to 8) (size 9 to 14) (size 15 to 20)
#    0.316    2.211    0.000    4.737    0.000    3.158 
#    2.842    0.000    3.474    0.000    0.000    0.000 
#    0.000    0.000    0.000    0.000    0.000    0.000 
#
# Total GULP energy -423577.638143 kJ/mol
# GULP energy per Si atom -5573.389976 kJ/mol
# Density = 1.688033 g / cm^3
# Si number density = 16.918839 Si / 1000 Ang^3
#
#
#
# Elastic Constant Matrix: (Units=GPa)
#
#
# Indices 1 2 3 4 5 6 
#
# 1 50.6136 28.0495 22.1313 -0.0021 0.0000 0.0000
# 2 28.0495 50.6136 22.1313 0.0021 0.0000 0.0000
# 3 22.1313 22.1313 73.9748 0.0000 0.0000 0.0000
# 4 -0.0021 0.0021 0.0000 -97.0946 0.0000 0.0000
# 5 0.0000 0.0000 0.0000 0.0000 -97.0946 -0.0021
# 6 0.0000 0.0000 0.0000 0.0000 -0.0021 11.2821
#
#
#
# Elastic Compliance Matrix: (Units=1/GPa)
#
#
# Indices 1 2 3 4 5 6 
#
# 1 0.029802 -0.014516 -0.004573 -0.000001 0.000000 0.000000
# 2 -0.014516 0.029802 -0.004573 0.000001 0.000000 0.000000
# 3 -0.004573 -0.004573 0.016254 0.000000 0.000000 0.000000
# 4 -0.000001 0.000001 0.000000 -0.010299 0.000000 0.000000
# 5 0.000000 0.000000 0.000000 0.000000 -0.010299 -0.000002
# 6 0.000000 0.000000 0.000000 0.000000 -0.000002 0.088636
#
#
# Mechanical properties :
#
#
# Convention : Reuss Voigt Hill
#
# Bulk Modulus (GPa) = 35.04659 35.53623 35.29141
# Shear Modulus (GPa) = 24.90890 -29.72208 -2.40659
#
# Velocity S-wave (km/s) = 3.84116 -4.19590 -1.19395
# Velocity P-wave (km/s) = 6.35863 1.55710 4.35934
#
# Compressibility (1/GPa) = 0.02853344
#
# Stress axis : x y z
#
# Youngs Moduli (GPa) = 33.55498 33.55498 61.52190
#
# Poissons Ratio (x) = 0.48709 0.28134
# Poissons Ratio (y) = 0.48709 0.28134
# Poissons Ratio (z) = 0.15345 0.15345
#
# Static dielectric constant tensor:
#      x y z
#    x 1.562680 0.000000 0.000000 
#    y 0.000000 1.562680 0.000000 
#    z 0.000000 0.000000 1.571720 
# 
# From -- ./inp_files/2544.got.cif
#   From: 2010.05.17/outbox.cif.g08.bks.cpg/sg188_2_cif.got.tgz:2544.got - 2010.05.20 12:11:46.
