data_PCOD9585704
_publ_section_title
;
Structure prediction by ZEFSAII (Michael W. Deem and Ramdas Pophale) SiO2 
 PCOD9585704
Probable space group: P -6 M 2
;
_chemical_formula_sum "Si O2"
_cell_formula_units_Z 66
_cell_length_a 12.703359
_cell_length_b 12.703359
_cell_length_c 28.742690
_cell_angle_alpha 90.000000
_cell_angle_beta 90.000000
_cell_angle_gamma 120.000000
_cell_volume 4016.938528
_symmetry_space_group_name_H-M "P -6 M 2"
_symmetry_group_IT_number 187
_symmetry_cell_setting 'hexagonal'
loop_
_space_group_symop_operation_xyz
x,y,z
-x+y,-x,-z
-y,x-y,z
x,y,-z
-x+y,-x,z
-y,x-y,-z
-y,-x,-z
-x+y,y,-z
x,x-y,-z
-x+y,y,z
x,x-y,z
-y,-x,z
loop_
_atom_site_type_symbol
_atom_site_label
_atom_site_fract_x
_atom_site_fract_y
_atom_site_fract_z
Si Si1 0.916757 0.582674 0.000000
Si Si2 0.333278 0.417566 0.446473
Si Si3 0.999609 0.249127 0.639915
Si Si4 0.000590 0.750427 0.181072
Si Si5 0.082805 0.666791 0.090402
Si Si6 0.083561 0.666975 0.729315
O O1 0.998505 0.643700 0.045549
O O2 0.796136 0.592272 0.000000
O O3 0.884383 0.442192 0.000000
O O4 0.330795 0.378486 0.500000
O O5 0.223102 0.446204 0.441463
O O6 0.460581 0.539420 0.438251
O O7 0.307975 0.315801 0.408627
O O8 0.872769 0.127232 0.645745
O O9 0.110501 0.221001 0.640354
O O10 0.026020 0.342085 0.682099
O O11 0.109376 0.890625 0.182289
O O12 0.023383 0.690694 0.135620
O O13 0.017575 0.687441 0.226756
O O14 0.871243 0.742485 0.180019
O O15 0.095265 0.547633 0.096874
O O16 0.214685 0.785316 0.083562
O O17 0.077390 0.538695 0.731149
O O18 0.223227 0.776774 0.730729
#
# Coordination Sequence:
#
# PCOD9585704 Si02
#       6
#     6  12  12  12  12  12
#     4  10  20  34  52  74 102 136 172 208 248 298
#     4   9  17  30  50  75 100 126 158 200 249 296
#     4  10  20  33  50  72  99 131 165 201 242 290
#     4  10  20  34  53  76 103 135 169 205 245 292
#     4  10  20  34  54  78 104 134 168 210 256 300
#     4  10  20  34  54  78 102 128 160 203 252 298
#
# _framework density 16.430423000000001
#
# number of rings (size 3 to 8) (size 9 to 14) (size 15 to 20)
#    0.000    2.182    0.000    3.455    0.000    1.091 
#    0.000    6.364    0.000   14.909    0.000    0.000 
#    0.000    0.000    0.000    0.000    0.000    0.000 
#
# Total GULP energy -368369.068161 kJ/mol
# GULP energy per Si atom -5581.349518 kJ/mol
# Density = 1.639303 g / cm^3
# Si number density = 16.430423 Si / 1000 Ang^3
#
#
#
# Elastic Constant Matrix: (Units=GPa)
#
#
# Indices 1 2 3 4 5 6 
#
# 1 129.0100 92.5362 78.6091 0.0000 0.0004 0.0000
# 2 92.5362 129.0100 78.6091 0.0000 -0.0004 0.0000
# 3 78.6091 78.6091 125.8388 0.0000 0.0000 0.0000
# 4 0.0000 0.0000 0.0000 15.4684 0.0000 -0.0004
# 5 0.0004 -0.0004 0.0000 0.0000 15.4684 0.0000
# 6 0.0000 0.0000 0.0000 -0.0004 0.0000 18.2369
#
#
#
# Elastic Compliance Matrix: (Units=1/GPa)
#
#
# Indices 1 2 3 4 5 6 
#
# 1 0.017762 -0.009654 -0.005065 0.000000 -0.000001 0.000000
# 2 -0.009654 0.017762 -0.005065 0.000000 0.000001 0.000000
# 3 -0.005065 -0.005065 0.014275 0.000000 0.000000 0.000000
# 4 0.000000 0.000000 0.000000 0.064648 0.000000 0.000001
# 5 -0.000001 0.000001 0.000000 0.000000 0.064648 0.000000
# 6 0.000000 0.000000 0.000000 0.000001 0.000000 0.054834
#
#
# Mechanical properties :
#
#
# Convention : Reuss Voigt Hill
#
# Bulk Modulus (GPa) = 97.74282 98.15196 97.94739
# Shear Modulus (GPa) = 18.05650 18.77501 18.41576
#
# Velocity S-wave (km/s) = 3.31866 3.38405 3.35152
# Velocity P-wave (km/s) = 8.61991 8.66814 8.64406
#
# Compressibility (1/GPa) = 0.01023093
#
# Stress axis : x y z
#
# Youngs Moduli (GPa) = 56.29839 56.29839 70.05457
#
# Poissons Ratio (x) = 0.54353 0.35482
# Poissons Ratio (y) = 0.54353 0.35482
# Poissons Ratio (z) = 0.28515 0.28515
#
# Static dielectric constant tensor:
#      x y z
#    x 1.517470 0.000000 0.000000 
#    y 0.000000 1.517470 0.000000 
#    z 0.000000 0.000000 1.550820 
# 
# From -- ./inp_files/4421.got.cif
#   From: 2010.05.17/outbox.cif.g08.bks.cpg/sg187_3_cif.got.tgz:4421.got - 2010.05.20 12:09:04.
