data_PCOD9585014
_publ_section_title
;
Structure prediction by ZEFSAII (Michael W. Deem and Ramdas Pophale) SiO2 
 PCOD9585014
Probable space group: P 6 M M
;
_chemical_formula_sum "Si O2"
_cell_formula_units_Z 96
_cell_length_a 18.233526
_cell_length_b 18.233526
_cell_length_c 20.584828
_cell_angle_alpha 90.000000
_cell_angle_beta 90.000000
_cell_angle_gamma 120.000000
_cell_volume 5926.785307
_symmetry_space_group_name_H-M "P 6 M M"
_symmetry_group_IT_number 183
_symmetry_cell_setting 'hexagonal'
loop_
_space_group_symop_operation_xyz
x,y,z
x-y,x,z
-y,x-y,z
-x,-y,z
-x+y,-x,z
y,-x+y,z
-x+y,y,z
x,x-y,z
-y,-x,z
y,x,z
x-y,-y,z
-x,-x+y,z
loop_
_atom_site_type_symbol
_atom_site_label
_atom_site_fract_x
_atom_site_fract_y
_atom_site_fract_z
Si Si1 0.100075 0.361037 0.648720
Si Si2 0.467831 0.102234 0.148721
Si Si3 0.364560 0.266093 0.271307
Si Si4 0.098467 0.364560 0.026135
Si Si5 0.365938 0.467331 0.528257
Si Si6 0.835358 0.503155 0.383762
Si Si7 0.634064 0.532671 0.769186
Si Si8 0.835359 0.503156 0.913680
O O1 0.160813 0.321626 0.648721
O O2 0.120102 0.420259 0.585490
O O3 0.120101 0.420260 0.711950
O O4 0.000000 0.294886 0.648720
O O5 0.568040 0.136079 0.148720
O O6 0.431950 0.123665 0.212591
O O7 0.431949 0.123665 0.084852
O O8 0.422127 0.000000 0.148721
O O9 0.332473 0.166237 0.271824
O O10 0.294052 0.294052 0.263431
O O11 0.417516 0.306695 0.337024
O O12 0.166236 0.332472 0.025618
O O13 0.000000 0.294051 0.034011
O O14 0.110821 0.417516 0.960418
O O15 0.437509 0.562492 0.547416
O O16 0.415618 0.415618 0.518613
O O17 0.328654 0.472056 0.459145
O O18 0.737638 0.475275 0.372121
O O19 0.852525 0.426262 0.370445
O O20 0.562491 0.437510 0.750029
O O21 0.584385 0.584385 0.778830
O O22 0.671349 0.527947 0.838297
O O23 0.737638 0.475275 0.925322
O O24 0.852525 0.426263 0.926995
#
# Coordination Sequence:
#
# PCOD9585014 Si02
#       8
#    12  12  12  12  12  12  12  12
#     4  10  19  31  47  66  89 117 152 192 231 271
#     4   9  17  30  49  72  96 122 152 183 217 262
#     4  10  20  33  50  71  94 122 157 197 238 279
#     4  10  20  33  50  71  94 122 157 197 238 279
#     4   9  17  29  46  67  90 118 151 185 222 267
#     4  10  19  30  45  67  96 127 157 188 223 264
#     4   9  17  29  46  67  90 118 151 185 222 267
#     4  10  19  30  45  67  96 127 157 188 223 264
#
# _framework density 16.197649999999999
#
# number of rings (size 3 to 8) (size 9 to 14) (size 15 to 20)
#    0.000    2.375    0.000    3.250    0.000    4.000 
#    0.000    0.000    0.000    7.375    0.000    0.000 
#    0.000    3.000    0.000    8.000    0.000    0.000 
#
# Total GULP energy -535204.366505 kJ/mol
# GULP energy per Si atom -5575.045484 kJ/mol
# Density = 1.616078 g / cm^3
# Si number density = 16.197650 Si / 1000 Ang^3
#
#
#
# Elastic Constant Matrix: (Units=GPa)
#
#
# Indices 1 2 3 4 5 6 
#
# 1 82.4677 48.6693 33.2241 0.0000 0.0000 0.0000
# 2 48.6693 82.4677 33.2241 0.0000 0.0000 0.0000
# 3 33.2241 33.2241 62.9651 0.0000 0.0000 0.0000
# 4 0.0000 0.0000 0.0000 16.4925 0.0000 0.0000
# 5 0.0000 0.0000 0.0000 0.0000 16.4925 0.0000
# 6 0.0000 0.0000 0.0000 0.0000 0.0000 16.8992
#
#
#
# Elastic Compliance Matrix: (Units=1/GPa)
#
#
# Indices 1 2 3 4 5 6 
#
# 1 0.019998 -0.009589 -0.005492 0.000000 0.000000 0.000000
# 2 -0.009589 0.019998 -0.005492 0.000000 0.000000 0.000000
# 3 -0.005492 -0.005492 0.021678 0.000000 0.000000 0.000000
# 4 0.000000 0.000000 0.000000 0.060634 0.000000 0.000000
# 5 0.000000 0.000000 0.000000 0.000000 0.060634 0.000000
# 6 0.000000 0.000000 0.000000 0.000000 0.000000 0.059174
#
#
# Mechanical properties :
#
#
# Convention : Reuss Voigt Hill
#
# Bulk Modulus (GPa) = 48.71813 50.90392 49.81103
# Shear Modulus (GPa) = 17.23518 17.49572 17.36545
#
# Velocity S-wave (km/s) = 3.26552 3.29011 3.27784
# Velocity P-wave (km/s) = 6.66039 6.77703 6.71896
#
# Compressibility (1/GPa) = 0.02052624
#
# Stress axis : x y z
#
# Youngs Moduli (GPa) = 50.00539 50.00539 46.13016
#
# Poissons Ratio (x) = 0.47952 0.25335
# Poissons Ratio (y) = 0.47952 0.25335
# Poissons Ratio (z) = 0.27464 0.27464
#
# Static dielectric constant tensor:
#      x y z
#    x 1.536370 0.000000 0.000000 
#    y 0.000000 1.536370 0.000000 
#    z 0.000000 0.000000 1.546530 
# 
# From -- ./inp_files/2934.got.cif
#   From: 2010.05.17/outbox.cif.g08.bks.cpg/sg183_2_cif.got.tgz:2934.got - 2010.05.20 12:02:58.
