data_PCOD9585566
_publ_section_title
;
Structure prediction by ZEFSAII (Michael W. Deem and Ramdas Pophale) SiO2 
 PCOD9585566
Probable space group: P -6 M 2
;
_chemical_formula_sum "Si O2"
_cell_formula_units_Z 84
_cell_length_a 17.322926
_cell_length_b 17.322926
_cell_length_c 16.343745
_cell_angle_alpha 90.000000
_cell_angle_beta 90.000000
_cell_angle_gamma 120.000000
_cell_volume 4247.415130
_symmetry_space_group_name_H-M "P -6 M 2"
_symmetry_group_IT_number 187
_symmetry_cell_setting 'hexagonal'
loop_
_space_group_symop_operation_xyz
x,y,z
-x+y,-x,-z
-y,x-y,z
x,y,-z
-x+y,-x,z
-y,x-y,-z
-y,-x,-z
-x+y,y,-z
x,x-y,-z
-x+y,y,z
x,x-y,z
-y,-x,z
loop_
_atom_site_type_symbol
_atom_site_label
_atom_site_fract_x
_atom_site_fract_y
_atom_site_fract_z
Si Si1 0.184099 0.002129 0.176689
Si Si2 0.665413 0.512868 0.912404
Si Si3 0.086581 0.360086 0.091151
Si Si4 0.148983 0.664735 0.758030
Si Si5 0.848567 0.334141 0.731537
Si Si6 0.293805 0.233920 0.653592
Si Si7 0.606846 0.896152 0.411681
O O1 0.173409 0.086705 0.156301
O O2 0.235824 0.022655 0.263271
O O3 0.244525 0.986229 0.111681
O O4 0.088493 0.911508 0.182358
O O5 0.763426 0.526852 0.914492
O O6 0.591972 0.408029 0.910363
O O7 0.656006 0.544879 0.823262
O O8 0.650837 0.546243 0.000000
O O9 0.180513 0.361026 0.093333
O O10 0.093840 0.423416 0.165485
O O11 0.078573 0.388506 0.000000
O O12 0.162646 0.581323 0.767511
O O13 0.243730 0.756271 0.757638
O O14 0.103380 0.659640 0.670590
O O15 0.856684 0.428342 0.708575
O O16 0.744212 0.255788 0.735541
O O17 0.896288 0.294945 0.675419
O O18 0.279394 0.139697 0.622403
O O19 0.269822 0.292785 0.596278
O O20 0.568821 0.901607 0.500000
O O21 0.606728 0.803364 0.409631
#
# Coordination Sequence:
#
# PCOD9585566 Si02
#       7
#    12  12  12  12  12  12  12
#     4  10  19  34  56  82 113 150 195 245 298 358
#     4   8  12  19  34  57  86 122 168 221 271 314
#     4   9  18  34  56  82 116 155 192 236 289 340
#     4  10  20  36  59  87 120 156 195 238 285 343
#     4   9  17  29  46  69 100 142 191 240 286 333
#     4  10  20  34  54  82 114 147 187 237 294 354
#     4  10  21  39  63  88 114 148 187 230 290 359
#
# _framework density 19.776733
#
# number of rings (size 3 to 8) (size 9 to 14) (size 15 to 20)
#    0.000    2.571    1.429    1.000    0.000    3.429 
#    0.000    0.714    0.000    5.429    0.000    0.000 
#    0.000    1.143    0.000    0.000    0.000    1.714 
#
# Total GULP energy -468307.084734 kJ/mol
# GULP energy per Si atom -5575.084342 kJ/mol
# Density = 1.973172 g / cm^3
# Si number density = 19.776733 Si / 1000 Ang^3
#
#
#
# Elastic Constant Matrix: (Units=GPa)
#
#
# Indices 1 2 3 4 5 6 
#
# 1 68.7370 16.1641 29.3755 0.0000 0.0000 0.0000
# 2 16.1641 68.7370 29.3755 0.0000 0.0000 0.0000
# 3 29.3755 29.3755 109.4434 0.0000 0.0000 0.0000
# 4 0.0000 0.0000 0.0000 -21.8625 0.0000 0.0000
# 5 0.0000 0.0000 0.0000 0.0000 -21.8625 0.0000
# 6 0.0000 0.0000 0.0000 0.0000 0.0000 26.2865
#
#
#
# Elastic Compliance Matrix: (Units=1/GPa)
#
#
# Indices 1 2 3 4 5 6 
#
# 1 0.016743 -0.002278 -0.003883 0.000000 0.000000 0.000000
# 2 -0.002278 0.016743 -0.003883 0.000000 0.000000 0.000000
# 3 -0.003883 -0.003883 0.011221 0.000000 0.000000 0.000000
# 4 0.000000 0.000000 0.000000 -0.045740 0.000000 0.000000
# 5 0.000000 0.000000 0.000000 0.000000 -0.045740 0.000000
# 6 0.000000 0.000000 0.000000 0.000000 0.000000 0.038042
#
#
# Mechanical properties :
#
#
# Convention : Reuss Voigt Hill
#
# Bulk Modulus (GPa) = 40.61512 44.08306 42.34909
# Shear Modulus (GPa) = 255.58853 7.97911 131.78382
#
# Velocity S-wave (km/s) = 11.38058 2.01081 8.17193
# Velocity P-wave (km/s) = 13.90221 5.26592 10.51193
#
# Compressibility (1/GPa) = 0.02462137
#
# Stress axis : x y z
#
# Youngs Moduli (GPa) = 59.72592 59.72592 89.11578
#
# Poissons Ratio (x) = 0.13606 0.34600
# Poissons Ratio (y) = 0.13606 0.34600
# Poissons Ratio (z) = 0.23189 0.23189
#
# Static dielectric constant tensor:
#      x y z
#    x 1.693180 0.000000 0.000000 
#    y 0.000000 1.693180 0.000000 
#    z 0.000000 0.000000 1.728410 
# 
# From -- ./inp_files/2600.got.cif
#   From: 2010.05.17/outbox.cif.g08.bks.cpg/sg187_2_cif.got.tgz:2600.got - 2010.05.20 12:09:04.
