data_PCOD9585492
_publ_section_title
;
Structure prediction by ZEFSAII (Michael W. Deem and Ramdas Pophale) SiO2 
 PCOD9585492
Probable space group: P -6 M 2
;
_chemical_formula_sum "Si O2"
_cell_formula_units_Z 78
_cell_length_a 17.943611
_cell_length_b 17.943611
_cell_length_c 17.545714
_cell_angle_alpha 90.000000
_cell_angle_beta 90.000000
_cell_angle_gamma 120.000000
_cell_volume 4892.393369
_symmetry_space_group_name_H-M "P -6 M 2"
_symmetry_group_IT_number 187
_symmetry_cell_setting 'hexagonal'
loop_
_space_group_symop_operation_xyz
x,y,z
-x+y,-x,-z
-y,x-y,z
x,y,-z
-x+y,-x,z
-y,x-y,-z
-y,-x,-z
-x+y,y,-z
x,x-y,-z
-x+y,y,z
x,x-y,z
-y,-x,z
loop_
_atom_site_type_symbol
_atom_site_label
_atom_site_fract_x
_atom_site_fract_y
_atom_site_fract_z
Si Si1 0.491661 0.158180 0.813716
Si Si2 0.178611 0.000468 0.500000
Si Si3 0.400470 0.429167 0.412901
Si Si4 0.000199 0.821374 0.200764
Si Si5 0.496654 0.332413 0.632728
Si Si6 0.711126 0.944402 0.650107
Si Si7 0.745945 0.073248 0.913085
O O1 0.576315 0.152630 0.830827
O O2 0.508268 0.254134 0.829936
O O3 0.475208 0.145339 0.722822
O O4 0.409395 0.091927 0.862293
O O5 0.081471 0.918530 0.500000
O O6 0.224804 0.991433 0.425045
O O7 0.176711 0.088356 0.500000
O O8 0.374446 0.433127 0.500000
O O9 0.475656 0.524345 0.389868
O O10 0.444929 0.370085 0.410568
O O11 0.318652 0.380552 0.358801
O O12 0.914869 0.829737 0.205059
O O13 0.990711 0.761239 0.129267
O O14 0.007037 0.773182 0.275811
O O15 0.085250 0.914751 0.196926
O O16 0.478047 0.239024 0.608786
O O17 0.597647 0.402354 0.624945
O O18 0.700044 0.850022 0.651226
O O19 0.835334 0.164667 0.914519
O O20 0.716911 0.048979 0.000000
#
# Coordination Sequence:
#
# PCOD9585492 Si02
#       7
#    12   6  12  12  12  12  12
#     4   9  16  27  44  65  91 124 161 199 239 284
#     4  10  19  30  45  68  98 130 160 192 233 282
#     4  10  20  33  47  66  91 122 160 197 233 278
#     4  10  20  34  52  72  95 124 160 199 239 287
#     4   9  17  28  42  61  87 120 158 196 232 270
#     4  10  20  34  51  71  95 123 154 192 242 286
#     4   9  18  31  45  64  92 123 156 198 244 285
#
# _framework density 15.943117000000001
#
# number of rings (size 3 to 8) (size 9 to 14) (size 15 to 20)
#    0.000    2.462    0.769    1.923    0.000    4.615 
#    0.000    1.538    0.000    3.077    0.000    0.000 
#    0.000    0.000    0.000    0.462    0.000    2.462 
#
# Total GULP energy -434923.329740 kJ/mol
# GULP energy per Si atom -5575.940125 kJ/mol
# Density = 1.590683 g / cm^3
# Si number density = 15.943117 Si / 1000 Ang^3
#
#
#
# Elastic Constant Matrix: (Units=GPa)
#
#
# Indices 1 2 3 4 5 6 
#
# 1 56.6666 23.5050 19.7898 0.0000 0.0000 0.0000
# 2 23.5050 56.6666 19.7898 0.0000 0.0000 0.0000
# 3 19.7898 19.7898 51.6532 0.0000 0.0000 0.0000
# 4 0.0000 0.0000 0.0000 13.1896 0.0000 0.0000
# 5 0.0000 0.0000 0.0000 0.0000 13.1896 0.0000
# 6 0.0000 0.0000 0.0000 0.0000 0.0000 16.5808
#
#
#
# Elastic Compliance Matrix: (Units=1/GPa)
#
#
# Indices 1 2 3 4 5 6 
#
# 1 0.022769 -0.007386 -0.005894 0.000000 0.000000 0.000000
# 2 -0.007386 0.022769 -0.005894 0.000000 0.000000 0.000000
# 3 -0.005894 -0.005894 0.023876 0.000000 0.000000 0.000000
# 4 0.000000 0.000000 0.000000 0.075817 0.000000 0.000000
# 5 0.000000 0.000000 0.000000 0.000000 0.075817 0.000000
# 6 0.000000 0.000000 0.000000 0.000000 0.000000 0.060311
#
#
# Mechanical properties :
#
#
# Convention : Reuss Voigt Hill
#
# Bulk Modulus (GPa) = 32.18832 32.35062 32.26947
# Shear Modulus (GPa) = 15.14868 15.38547 15.26707
#
# Velocity S-wave (km/s) = 3.08583 3.10985 3.09786
# Velocity P-wave (km/s) = 5.73845 5.76457 5.75152
#
# Compressibility (1/GPa) = 0.03106717
#
# Stress axis : x y z
#
# Youngs Moduli (GPa) = 43.91916 43.91916 41.88329
#
# Poissons Ratio (x) = 0.32440 0.24684
# Poissons Ratio (y) = 0.32440 0.24684
# Poissons Ratio (z) = 0.25884 0.25884
#
# Static dielectric constant tensor:
#      x y z
#    x 1.524560 0.000000 0.000000 
#    y 0.000000 1.524560 0.000000 
#    z 0.000000 0.000000 1.547360 
# 
# From -- ./inp_files/3157.got.cif
#   From: 2010.05.17/outbox.cif.g08.bks.cpg/sg187_2_cif.got.tgz:3157.got - 2010.05.20 12:09:04.
