data_PCOD9585421
_publ_section_title
;
Structure prediction by ZEFSAII (Michael W. Deem and Ramdas Pophale) SiO2 
 PCOD9585421
Probable space group: P -6 M 2
;
_chemical_formula_sum "Si O2"
_cell_formula_units_Z 90
_cell_length_a 27.462461
_cell_length_b 27.462461
_cell_length_c 7.655402
_cell_angle_alpha 90.000000
_cell_angle_beta 90.000000
_cell_angle_gamma 120.000000
_cell_volume 5000.086751
_symmetry_space_group_name_H-M "P -6 M 2"
_symmetry_group_IT_number 187
_symmetry_cell_setting 'hexagonal'
loop_
_space_group_symop_operation_xyz
x,y,z
-x+y,-x,-z
-y,x-y,z
x,y,-z
-x+y,-x,z
-y,x-y,-z
-y,-x,-z
-x+y,y,-z
x,x-y,-z
-x+y,y,z
x,x-y,z
-y,-x,z
loop_
_atom_site_type_symbol
_atom_site_label
_atom_site_fract_x
_atom_site_fract_y
_atom_site_fract_z
Si Si1 0.862645 0.533436 0.787377
Si Si2 0.893812 0.999576 0.289795
Si Si3 0.689278 0.789204 0.209927
Si Si4 0.342568 0.257413 0.802909
Si Si5 0.223743 0.206249 0.208638
Si Si6 0.562740 0.016154 0.209854
Si Si7 0.667292 0.449243 0.500000
Si Si8 0.029619 0.667689 0.299576
O O1 0.874087 0.595387 0.731338
O O2 0.920892 0.533887 0.747174
O O3 0.814133 0.485860 0.671508
O O4 0.854335 0.527545 0.000000
O O5 0.894100 0.997910 0.500000
O O6 0.956559 0.043442 0.231156
O O7 0.874406 0.937203 0.223641
O O8 0.852804 0.022257 0.239096
O O9 0.683766 0.841883 0.275346
O O10 0.745839 0.789929 0.274487
O O11 0.640597 0.725824 0.253399
O O12 0.692890 0.793790 0.000000
O O13 0.282565 0.214533 0.719455
O O14 0.337694 0.314292 0.807856
O O15 0.343870 0.238453 0.000000
O O16 0.232029 0.214592 0.000000
O O17 0.503731 0.007461 0.275641
O O18 0.581289 0.972150 0.272606
O O19 0.560504 0.013211 0.000000
O O20 0.607918 0.392083 0.500000
O O21 0.718799 0.437597 0.500000
O O22 0.015926 0.671030 0.500000
#
# Coordination Sequence:
#
# PCOD9585421 Si02
#       8
#    12  12  12  12  12  12   6  12
#     4   9  19  38  62  85 109 139 174 209 250 306
#     4  10  21  36  50  64  86 120 160 202 248 298
#     4   9  17  30  46  62  87 127 168 201 237 288
#     4   8  16  32  52  74 102 132 157 188 237 300
#     4   9  17  31  51  74  97 119 148 194 249 298
#     4   9  17  30  49  73 100 130 164 202 244 295
#     4  12  27  44  62  84 110 140 175 218 262 302
#     4  10  18  25  39  67 100 129 158 197 242 289
#
# _framework density 17.999687999999999
#
# number of rings (size 3 to 8) (size 9 to 14) (size 15 to 20)
#    0.000    2.667    0.000    3.800    3.733    5.333 
#    0.000    0.667    0.000    4.000    0.000    0.000 
#    0.000    0.000    0.000    0.400    0.000    7.733 
#
# Total GULP energy -501537.569229 kJ/mol
# GULP energy per Si atom -5572.639658 kJ/mol
# Density = 1.795872 g / cm^3
# Si number density = 17.999688 Si / 1000 Ang^3
#
#
#
# Elastic Constant Matrix: (Units=GPa)
#
#
# Indices 1 2 3 4 5 6 
#
# 1 78.9814 52.8660 16.4318 0.0000 -0.0001 0.0000
# 2 52.8660 78.9814 16.4318 0.0000 0.0001 0.0000
# 3 16.4318 16.4318 54.2338 0.0000 0.0000 0.0000
# 4 0.0000 0.0000 0.0000 9.4526 0.0000 0.0001
# 5 -0.0001 0.0001 0.0000 0.0000 9.4526 0.0000
# 6 0.0000 0.0000 0.0000 0.0001 0.0000 13.0577
#
#
#
# Elastic Compliance Matrix: (Units=1/GPa)
#
#
# Indices 1 2 3 4 5 6 
#
# 1 0.023248 -0.015044 -0.002486 0.000000 0.000001 0.000000
# 2 -0.015044 0.023248 -0.002486 0.000000 -0.000001 0.000000
# 3 -0.002486 -0.002486 0.019945 0.000000 0.000000 0.000000
# 4 0.000000 0.000000 0.000000 0.105791 0.000000 -0.000001
# 5 0.000001 -0.000001 0.000000 0.000000 0.105791 0.000000
# 6 0.000000 0.000000 0.000000 -0.000001 0.000000 0.076583
#
#
# Mechanical properties :
#
#
# Convention : Reuss Voigt Hill
#
# Bulk Modulus (GPa) = 37.86391 42.62842 40.24616
# Shear Modulus (GPa) = 12.39340 14.82369 13.60855
#
# Velocity S-wave (km/s) = 2.62684 2.87287 2.75261
# Velocity P-wave (km/s) = 5.50290 5.89396 5.70179
#
# Compressibility (1/GPa) = 0.02641037
#
# Stress axis : x y z
#
# Youngs Moduli (GPa) = 43.01463 43.01463 50.13814
#
# Poissons Ratio (x) = 0.64710 0.12463
# Poissons Ratio (y) = 0.64710 0.12463
# Poissons Ratio (z) = 0.10692 0.10692
#
# Static dielectric constant tensor:
#      x y z
#    x 1.641250 0.000000 0.000000 
#    y 0.000000 1.641250 0.000000 
#    z 0.000000 0.000000 1.670240 
# 
# From -- ./inp_files/1279.got.cif
#   From: 2010.05.17/outbox.cif.g08.bks.cpg/sg187_1_cif.got.tgz:1279.got - 2010.05.20 12:09:04.
