data_PCOD9585621
_publ_section_title
;
Structure prediction by ZEFSAII (Michael W. Deem and Ramdas Pophale) SiO2 
 PCOD9585621
Probable space group: P -6 M 2
;
_chemical_formula_sum "Si O2"
_cell_formula_units_Z 96
_cell_length_a 17.966435
_cell_length_b 17.966435
_cell_length_c 21.374343
_cell_angle_alpha 90.000000
_cell_angle_beta 90.000000
_cell_angle_gamma 120.000000
_cell_volume 5975.128191
_symmetry_space_group_name_H-M "P -6 M 2"
_symmetry_group_IT_number 187
_symmetry_cell_setting 'hexagonal'
loop_
_space_group_symop_operation_xyz
x,y,z
-x+y,-x,-z
-y,x-y,z
x,y,-z
-x+y,-x,z
-y,x-y,-z
-y,-x,-z
-x+y,y,-z
x,x-y,-z
-x+y,y,z
x,x-y,z
-y,-x,z
loop_
_atom_site_type_symbol
_atom_site_label
_atom_site_fract_x
_atom_site_fract_y
_atom_site_fract_z
Si Si1 0.067132 0.760612 0.877906
Si Si2 0.666372 0.155168 0.677094
Si Si3 0.489445 0.155800 0.181972
Si Si4 0.825370 0.825750 0.621931
Si Si5 0.369798 0.096144 0.067570
Si Si6 0.173399 0.000447 0.770425
Si Si7 0.333535 0.492828 0.073689
Si Si8 0.730994 0.642932 0.569884
O O1 0.146595 0.853406 0.895193
O O2 0.105087 0.696181 0.883743
O O3 0.987473 0.722227 0.924642
O O4 0.030062 0.772352 0.812143
O O5 0.579623 0.159245 0.670728
O O6 0.749059 0.250942 0.671343
O O7 0.669631 0.124875 0.747770
O O8 0.674580 0.097100 0.623963
O O9 0.580035 0.160069 0.176360
O O10 0.502437 0.251219 0.176324
O O11 0.426908 0.100480 0.126416
O O12 0.819590 0.909795 0.607178
O O13 0.811129 0.808136 0.696557
O O14 0.758133 0.740431 0.585923
O O15 0.921120 0.842240 0.608702
O O16 0.362414 0.181207 0.070568
O O17 0.407990 0.095107 0.000000
O O18 0.187870 0.093935 0.788691
O O19 0.073358 0.926643 0.778530
O O20 0.258930 0.517859 0.079386
O O21 0.426200 0.573801 0.088248
O O22 0.333535 0.469532 0.000000
O O23 0.694799 0.618340 0.500000
O O24 0.821172 0.642343 0.571040
#
# Coordination Sequence:
#
# PCOD9585621 Si02
#       8
#    12  12  12  12  12  12  12  12
#     4  10  20  32  48  69  90 116 152 192 236 283
#     4   9  17  30  49  71  94 124 162 203 240 280
#     4   9  18  32  51  72  94 122 158 197 236 279
#     4   9  17  29  47  69  95 128 166 203 237 276
#     4  10  21  34  47  66  93 124 156 192 238 288
#     4   9  17  29  47  70  94 122 157 198 238 277
#     4   9  17  30  48  68  88 111 141 180 228 283
#     4   9  18  30  44  67  98 129 159 193 238 284
#
# _framework density 16.066600999999999
#
# number of rings (size 3 to 8) (size 9 to 14) (size 15 to 20)
#    0.000    2.750    0.000    1.375    1.750    4.500 
#    0.000    0.000    0.000    2.500    0.000    0.000 
#    0.000    0.000    0.000    0.375    0.000    1.625 
#
# Total GULP energy -534809.527235 kJ/mol
# GULP energy per Si atom -5570.932575 kJ/mol
# Density = 1.603003 g / cm^3
# Si number density = 16.066601 Si / 1000 Ang^3
#
#
#
# Elastic Constant Matrix: (Units=GPa)
#
#
# Indices 1 2 3 4 5 6 
#
# 1 60.3817 20.7804 46.7510 0.0000 -0.0004 0.0000
# 2 20.7804 60.3817 46.7510 0.0000 0.0004 0.0000
# 3 46.7510 46.7510 98.7482 0.0000 0.0000 0.0000
# 4 0.0000 0.0000 0.0000 14.7670 0.0000 0.0004
# 5 -0.0004 0.0004 0.0000 0.0000 14.7670 0.0000
# 6 0.0000 0.0000 0.0000 0.0004 0.0000 19.8006
#
#
#
# Elastic Compliance Matrix: (Units=1/GPa)
#
#
# Indices 1 2 3 4 5 6 
#
# 1 0.026178 0.000926 -0.012832 0.000000 0.000001 0.000000
# 2 0.000926 0.026178 -0.012832 0.000000 -0.000001 0.000000
# 3 -0.012832 -0.012832 0.022277 0.000000 0.000000 0.000000
# 4 0.000000 0.000000 0.000000 0.067718 0.000000 -0.000001
# 5 0.000001 -0.000001 0.000000 0.000000 0.067718 0.000000
# 6 0.000000 0.000000 0.000000 -0.000001 0.000000 0.050503
#
#
# Mechanical properties :
#
#
# Convention : Reuss Voigt Hill
#
# Bulk Modulus (GPa) = 39.75039 49.78627 44.76833
# Shear Modulus (GPa) = 15.70182 16.88222 16.29202
#
# Velocity S-wave (km/s) = 3.12956 3.24507 3.18784
# Velocity P-wave (km/s) = 6.15253 6.71530 6.44007
#
# Compressibility (1/GPa) = 0.02515699
#
# Stress axis : x y z
#
# Youngs Moduli (GPa) = 38.20021 38.20021 44.88926
#
# Poissons Ratio (x) = -0.03538 0.57602
# Poissons Ratio (y) = -0.03538 0.57602
# Poissons Ratio (z) = 0.49019 0.49019
#
# Static dielectric constant tensor:
#      x y z
#    x 1.532070 0.000000 0.000000 
#    y 0.000000 1.532070 0.000000 
#    z 0.000000 0.000000 1.560590 
# 
# From -- ./inp_files/3788.got.cif
#   From: 2010.05.17/outbox.cif.g08.bks.cpg/sg187_2_cif.got.tgz:3788.got - 2010.05.20 12:09:04.
