data_PCOD9585242
_publ_section_title
;
Structure prediction by ZEFSAII (Michael W. Deem and Ramdas Pophale) SiO2 
 PCOD9585242
Probable space group: P 63 C M
;
_chemical_formula_sum "Si O2"
_cell_formula_units_Z 72
_cell_length_a 14.873947
_cell_length_b 14.873947
_cell_length_c 19.261024
_cell_angle_alpha 90.000000
_cell_angle_beta 90.000000
_cell_angle_gamma 120.000000
_cell_volume 3690.306714
_symmetry_space_group_name_H-M "P 63 C M"
_symmetry_group_IT_number 185
_symmetry_cell_setting 'hexagonal'
loop_
_space_group_symop_operation_xyz
x,y,z
x-y,x,1/2+z
-y,x-y,z
-x,-y,1/2+z
-x+y,-x,z
y,-x+y,1/2+z
-x+y,y,1/2+z
x,x-y,1/2+z
-y,-x,1/2+z
y,x,z
x-y,-y,z
-x,-x+y,z
loop_
_atom_site_type_symbol
_atom_site_label
_atom_site_fract_x
_atom_site_fract_y
_atom_site_fract_z
Si Si1 0.879571 0.463463 0.284880
Si Si2 0.310410 0.879538 0.181664
Si Si3 0.325577 0.117005 0.767675
Si Si4 0.429684 0.637323 0.937946
Si Si5 0.876058 0.123983 0.420191
Si Si6 0.390959 0.271573 0.531736
O O1 0.836208 0.367835 0.231349
O O2 0.880577 0.565526 0.257091
O O3 0.820117 0.439559 0.357454
O O4 0.000000 0.498985 0.300535
O O5 0.212102 0.872235 0.221748
O O6 0.270591 0.830604 0.105792
O O7 0.397032 0.000000 0.171490
O O8 0.309498 0.136029 0.848171
O O9 0.235292 0.000000 0.750282
O O10 0.440139 0.749520 0.953830
O O11 0.518675 0.640375 0.984184
O O12 0.830269 0.158165 0.484401
O O13 0.000000 0.187733 0.416907
O O14 0.832104 0.000000 0.426481
O O15 0.306808 0.306808 0.546568
#
# Coordination Sequence:
#
# PCOD9585242 Si02
#       6
#    12  12  12  12  12  12
#     4  10  19  35  57  81 111 150 192 233 286 348
#     4  10  22  37  58  85 114 153 199 241 291 355
#     4  10  20  36  58  84 117 153 192 245 301 351
#     4  10  21  34  54  80 111 142 190 234 280 344
#     4  10  20  36  60  86 116 153 196 243 296 359
#     4  10  21  40  58  80 119 157 189 242 302 345
#
# _framework density 19.510573000000001
#
# number of rings (size 3 to 8) (size 9 to 14) (size 15 to 20)
#    0.333    1.667    1.667    2.167    0.000    2.000 
#    1.000    0.833    0.000    0.333    0.000    0.000 
#    0.000    0.000    0.000    0.000    0.000    0.000 
#
# Total GULP energy -400854.224963 kJ/mol
# GULP energy per Si atom -5567.419791 kJ/mol
# Density = 1.946617 g / cm^3
# Si number density = 19.510573 Si / 1000 Ang^3
#
#
#
# Elastic Constant Matrix: (Units=GPa)
#
#
# Indices 1 2 3 4 5 6 
#
# 1 69.1457 17.1904 34.4714 0.0000 0.0000 0.0000
# 2 17.1904 69.1457 34.4714 0.0000 0.0000 0.0000
# 3 34.4714 34.4714 124.3228 0.0000 0.0000 0.0000
# 4 0.0000 0.0000 0.0000 19.7263 0.0000 0.0000
# 5 0.0000 0.0000 0.0000 0.0000 19.7263 0.0000
# 6 0.0000 0.0000 0.0000 0.0000 0.0000 25.9777
#
#
#
# Elastic Compliance Matrix: (Units=1/GPa)
#
#
# Indices 1 2 3 4 5 6 
#
# 1 0.017062 -0.002185 -0.004125 0.000000 0.000000 0.000000
# 2 -0.002185 0.017062 -0.004125 0.000000 0.000000 0.000000
# 3 -0.004125 -0.004125 0.010331 0.000000 0.000000 0.000000
# 4 0.000000 0.000000 0.000000 0.050694 0.000000 0.000000
# 5 0.000000 0.000000 0.000000 0.000000 0.050694 0.000000
# 6 0.000000 0.000000 0.000000 0.000000 0.000000 0.038495
#
#
# Mechanical properties :
#
#
# Convention : Reuss Voigt Hill
#
# Bulk Modulus (GPa) = 42.40060 48.32008 45.36034
# Shear Modulus (GPa) = 23.46661 24.85146 24.15903
#
# Velocity S-wave (km/s) = 3.47185 3.57283 3.52270
# Velocity P-wave (km/s) = 6.15231 6.46838 6.31233
#
# Compressibility (1/GPa) = 0.02358457
#
# Stress axis : x y z
#
# Youngs Moduli (GPa) = 58.61013 58.61013 96.79602
#
# Poissons Ratio (x) = 0.12809 0.39927
# Poissons Ratio (y) = 0.12809 0.39927
# Poissons Ratio (z) = 0.24176 0.24176
#
# Static dielectric constant tensor:
#      x y z
#    x 1.733430 0.000000 0.000000 
#    y 0.000000 1.733430 0.000000 
#    z 0.000000 0.000000 1.700630 
# 
# From -- ./inp_files/1704.got.cif
#   From: 2010.05.17/outbox.cif.g08.bks.cpg/sg185_cif.got.tgz:1704.got - 2010.05.20 12:05:34.
