data_PCOD9585638
_publ_section_title
;
Structure prediction by ZEFSAII (Michael W. Deem and Ramdas Pophale) SiO2 
 PCOD9585638
Probable space group: P -6 M 2
;
_chemical_formula_sum "Si O2"
_cell_formula_units_Z 60
_cell_length_a 12.712309
_cell_length_b 12.712309
_cell_length_c 26.504886
_cell_angle_alpha 90.000000
_cell_angle_beta 90.000000
_cell_angle_gamma 120.000000
_cell_volume 3709.415257
_symmetry_space_group_name_H-M "P -6 M 2"
_symmetry_group_IT_number 187
_symmetry_cell_setting 'hexagonal'
loop_
_space_group_symop_operation_xyz
x,y,z
-x+y,-x,-z
-y,x-y,z
x,y,-z
-x+y,-x,z
-y,x-y,-z
-y,-x,-z
-x+y,y,-z
x,x-y,-z
-x+y,y,z
x,x-y,z
-y,-x,z
loop_
_atom_site_type_symbol
_atom_site_label
_atom_site_fract_x
_atom_site_fract_y
_atom_site_fract_z
Si Si1 0.916615 0.582735 0.000000
Si Si2 0.747395 0.747960 0.389351
Si Si3 0.333066 0.916816 0.902364
Si Si4 0.000207 0.750159 0.804210
Si Si5 0.749439 0.749735 0.500000
Si Si6 0.416871 0.083413 0.293483
O O1 0.997595 0.644150 0.049480
O O2 0.795417 0.590833 0.000000
O O3 0.885550 0.442775 0.000000
O O4 0.751550 0.875775 0.382689
O O5 0.693347 0.696909 0.445254
O O6 0.676174 0.656683 0.344303
O O7 0.884504 0.769007 0.387944
O O8 0.451977 0.903953 0.896299
O O9 0.214181 0.785820 0.910270
O O10 0.310411 0.975117 0.852652
O O11 0.117321 0.882680 0.797301
O O12 0.879950 0.759899 0.811799
O O13 0.978680 0.668971 0.754703
O O14 0.770545 0.885273 0.500000
O O15 0.877863 0.755725 0.500000
O O16 0.539739 0.079478 0.289638
O O17 0.443913 0.221957 0.294925
#
# Coordination Sequence:
#
# PCOD9585638 Si02
#       6
#     6  12  12  12   6  12
#     4  10  20  34  52  74 100 130 166 208 252 292
#     4   9  16  27  46  71  97 122 150 189 237 287
#     4  10  20  34  53  76 103 135 169 203 238 281
#     4  10  20  34  53  76 101 127 156 195 243 293
#     4   8  13  22  39  66  96 122 148 182 230 284
#     4  10  20  33  48  66  91 124 161 198 235 278
#
# _framework density 16.175056999999999
#
# number of rings (size 3 to 8) (size 9 to 14) (size 15 to 20)
#    0.000    2.400    0.000    3.100    0.000    1.600 
#    0.000    3.500    0.000   13.600    0.000    1.400 
#    0.000    0.000    0.000    0.000    0.000    0.000 
#
# Total GULP energy -334478.090733 kJ/mol
# GULP energy per Si atom -5574.634846 kJ/mol
# Density = 1.613824 g / cm^3
# Si number density = 16.175057 Si / 1000 Ang^3
#
#
#
# Elastic Constant Matrix: (Units=GPa)
#
#
# Indices 1 2 3 4 5 6 
#
# 1 107.5015 72.4583 88.2177 0.0000 0.0002 0.0000
# 2 72.4583 107.5015 88.2177 0.0000 -0.0002 0.0000
# 3 88.2177 88.2177 163.3155 0.0000 0.0000 0.0000
# 4 0.0000 0.0000 0.0000 19.8755 0.0000 -0.0002
# 5 0.0002 -0.0002 0.0000 0.0000 19.8755 0.0000
# 6 0.0000 0.0000 0.0000 -0.0002 0.0000 17.5216
#
#
#
# Elastic Compliance Matrix: (Units=1/GPa)
#
#
# Indices 1 2 3 4 5 6 
#
# 1 0.020174 -0.008362 -0.006381 0.000000 0.000000 0.000000
# 2 -0.008362 0.020174 -0.006381 0.000000 0.000000 0.000000
# 3 -0.006381 -0.006381 0.013017 0.000000 0.000000 0.000000
# 4 0.000000 0.000000 0.000000 0.050313 0.000000 0.000001
# 5 0.000000 0.000000 0.000000 0.000000 0.050313 0.000000
# 6 0.000000 0.000000 0.000000 0.000001 0.000000 0.057072
#
#
# Mechanical properties :
#
#
# Convention : Reuss Voigt Hill
#
# Bulk Modulus (GPa) = 89.93948 97.34510 93.64229
# Shear Modulus (GPa) = 19.45395 20.08283 19.76839
#
# Velocity S-wave (km/s) = 3.47178 3.52745 3.49972
# Velocity P-wave (km/s) = 8.47322 8.76946 8.62261
#
# Compressibility (1/GPa) = 0.01111859
#
# Stress axis : x y z
#
# Youngs Moduli (GPa) = 49.56771 49.56771 76.82541
#
# Poissons Ratio (x) = 0.41447 0.49021
# Poissons Ratio (y) = 0.41447 0.49021
# Poissons Ratio (z) = 0.31628 0.31628
#
# Static dielectric constant tensor:
#      x y z
#    x 1.507020 0.000000 0.000000 
#    y 0.000000 1.507020 0.000000 
#    z 0.000000 0.000000 1.558660 
# 
# From -- ./inp_files/4175.got.cif
#   From: 2010.05.17/outbox.cif.g08.bks.cpg/sg187_3_cif.got.tgz:4175.got - 2010.05.20 12:09:04.
