data_PCOD9585220
_publ_section_title
;
Structure prediction by ZEFSAII (Michael W. Deem and Ramdas Pophale) SiO2 
 PCOD9585220
Probable space group: P 63 C M
;
_chemical_formula_sum "Si O2"
_cell_formula_units_Z 72
_cell_length_a 22.923231
_cell_length_b 22.923231
_cell_length_c 10.197757
_cell_angle_alpha 90.000000
_cell_angle_beta 90.000000
_cell_angle_gamma 120.000000
_cell_volume 4640.736954
_symmetry_space_group_name_H-M "P 63 C M"
_symmetry_group_IT_number 185
_symmetry_cell_setting 'hexagonal'
loop_
_space_group_symop_operation_xyz
x,y,z
x-y,x,1/2+z
-y,x-y,z
-x,-y,1/2+z
-x+y,-x,z
y,-x+y,1/2+z
-x+y,y,1/2+z
x,x-y,1/2+z
-y,-x,1/2+z
y,x,z
x-y,-y,z
-x,-x+y,z
loop_
_atom_site_type_symbol
_atom_site_label
_atom_site_fract_x
_atom_site_fract_y
_atom_site_fract_z
Si Si1 0.280432 0.203868 0.647600
Si Si2 0.381787 0.259530 0.888569
Si Si3 0.876161 0.257588 0.907039
Si Si4 0.489426 0.081328 0.311970
Si Si5 0.295621 0.219268 0.150382
Si Si6 0.595258 0.513858 0.005500
O O1 0.219548 0.219548 0.653220
O O2 0.332238 0.243150 0.765139
O O3 0.322038 0.233253 0.513973
O O4 0.267041 0.127973 0.657364
O O5 0.402755 0.202198 0.897869
O O6 0.444478 0.333172 0.867866
O O7 0.337816 0.249065 0.017611
O O8 0.907752 0.255787 0.768296
O O9 0.887870 0.329114 0.952785
O O10 0.552326 0.100076 0.406850
O O11 0.443600 0.000000 0.315863
O O12 0.506369 0.100062 0.158199
O O13 0.237212 0.237212 0.157987
O O14 0.560471 0.560471 0.001873
#
# Coordination Sequence:
#
# PCOD9585220 Si02
#       6
#    12  12  12  12  12  12
#     4  10  18  32  51  70  97 137 171 203 255 309
#     4  10  20  33  51  73  99 134 170 206 249 295
#     4  10  20  33  51  73  99 134 170 206 249 295
#     4  10  20  33  50  73 101 131 161 197 245 298
#     4  10  20  30  47  76 103 127 167 217 255 295
#     4  10  20  33  50  73 101 131 161 197 245 298
#
# _framework density 15.514777
#
# number of rings (size 3 to 8) (size 9 to 14) (size 15 to 20)
#    0.000    2.000    1.667    3.000    2.333    0.000 
#    0.000    0.000    0.000    1.000    0.000    0.000 
#    0.000    8.000    0.000    0.000    0.000    1.333 
#
# Total GULP energy -401534.573050 kJ/mol
# GULP energy per Si atom -5576.869070 kJ/mol
# Density = 1.547947 g / cm^3
# Si number density = 15.514777 Si / 1000 Ang^3
#
#
#
# Elastic Constant Matrix: (Units=GPa)
#
#
# Indices 1 2 3 4 5 6 
#
# 1 83.2331 39.6319 7.8758 0.0000 0.0000 0.0000
# 2 39.6319 83.2331 7.8758 0.0000 0.0000 0.0000
# 3 7.8758 7.8758 40.9495 0.0000 0.0000 0.0000
# 4 0.0000 0.0000 0.0000 112.3891 0.0000 0.0000
# 5 0.0000 0.0000 0.0000 0.0000 112.3891 0.0000
# 6 0.0000 0.0000 0.0000 0.0000 0.0000 21.8006
#
#
#
# Elastic Compliance Matrix: (Units=1/GPa)
#
#
# Indices 1 2 3 4 5 6 
#
# 1 0.015640 -0.007295 -0.001605 0.000000 0.000000 0.000000
# 2 -0.007295 0.015640 -0.001605 0.000000 0.000000 0.000000
# 3 -0.001605 -0.001605 0.025038 0.000000 0.000000 0.000000
# 4 0.000000 0.000000 0.000000 0.008898 0.000000 0.000000
# 5 0.000000 0.000000 0.000000 0.000000 0.008898 0.000000
# 6 0.000000 0.000000 0.000000 0.000000 0.000000 0.045870
#
#
# Mechanical properties :
#
#
# Convention : Reuss Voigt Hill
#
# Bulk Modulus (GPa) = 28.32268 35.35366 31.83817
# Shear Modulus (GPa) = 32.73056 59.45124 46.09090
#
# Velocity S-wave (km/s) = 4.59806 6.19696 5.45639
# Velocity P-wave (km/s) = 6.81795 8.60463 7.76286
#
# Compressibility (1/GPa) = 0.03530739
#
# Stress axis : x y z
#
# Youngs Moduli (GPa) = 63.93883 63.93883 39.93983
#
# Poissons Ratio (x) = 0.46645 0.06410
# Poissons Ratio (y) = 0.46645 0.06410
# Poissons Ratio (z) = 0.10262 0.10262
#
# Static dielectric constant tensor:
#      x y z
#    x 1.503310 0.000000 0.000000 
#    y 0.000000 1.503310 0.000000 
#    z 0.000000 0.000000 1.533050 
# 
# From -- ./inp_files/616.got.cif
#   From: 2010.05.17/outbox.cif.g08.bks.cpg/sg185_cif.got.tgz:616.got - 2010.05.20 12:05:34.
