data_PCOD9585335
_publ_section_title
;
Structure prediction by ZEFSAII (Michael W. Deem and Ramdas Pophale) SiO2 
 PCOD9585335
Probable space group: P 63 M C
;
_chemical_formula_sum "Si O2"
_cell_formula_units_Z 72
_cell_length_a 23.977055
_cell_length_b 23.977055
_cell_length_c 9.596302
_cell_angle_alpha 90.000000
_cell_angle_beta 90.000000
_cell_angle_gamma 120.000000
_cell_volume 4777.780764
_symmetry_space_group_name_H-M "P 63 M C"
_symmetry_group_IT_number 186
_symmetry_cell_setting 'hexagonal'
loop_
_space_group_symop_operation_xyz
x,y,z
x-y,x,1/2+z
-y,x-y,z
-x,-y,1/2+z
-x+y,-x,z
y,-x+y,1/2+z
-x+y,y,z
x,x-y,z
-y,-x,z
y,x,1/2+z
x-y,-y,1/2+z
-x,-x+y,1/2+z
loop_
_atom_site_type_symbol
_atom_site_label
_atom_site_fract_x
_atom_site_fract_y
_atom_site_fract_z
Si Si1 0.467005 0.400704 0.399430
Si Si2 0.852813 0.575035 0.236699
Si Si3 0.068217 0.261093 0.437052
Si Si4 0.145194 0.416689 0.414068
Si Si5 0.595406 0.955963 0.203137
Si Si6 0.715542 0.747245 0.725422
O O1 0.536280 0.463721 0.399344
O O2 0.466159 0.338432 0.334263
O O3 0.418509 0.410746 0.298920
O O4 0.438039 0.384604 0.554779
O O5 0.781362 0.562723 0.254430
O O6 0.903193 0.650570 0.269050
O O7 0.861717 0.564490 0.072404
O O8 0.118664 0.237328 0.404333
O O9 0.107778 0.338793 0.418442
O O10 0.047958 0.252708 0.597473
O O11 0.005606 0.237213 0.342643
O O12 0.219735 0.439469 0.386720
O O13 0.109021 0.432782 0.294749
O O14 0.672308 0.985047 0.179679
#
# Coordination Sequence:
#
# PCOD9585335 Si02
#       6
#    12  12  12  12  12  12
#     4  11  21  31  44  65  93 124 158 193 231 276
#     4   9  17  31  50  69  90 117 150 189 234 282
#     4   9  16  26  40  61  91 123 151 180 217 260
#     4   8  15  28  46  67  90 118 151 188 230 274
#     4  10  18  29  44  63  91 124 158 192 225 267
#     4   9  15  27  44  63  88 120 154 182 216 261
#
# _framework density 15.069758
#
# number of rings (size 3 to 8) (size 9 to 14) (size 15 to 20)
#    0.000    2.667    0.000    7.000    0.000    0.667 
#    0.000    5.833    0.000    0.333    0.000    0.000 
#    0.000    1.333    0.000   19.000    0.000    1.833 
#
# Total GULP energy -400963.309880 kJ/mol
# GULP energy per Si atom -5568.934859 kJ/mol
# Density = 1.503546 g / cm^3
# Si number density = 15.069758 Si / 1000 Ang^3
#
#
#
# Elastic Constant Matrix: (Units=GPa)
#
#
# Indices 1 2 3 4 5 6 
#
# 1 48.0806 23.6340 38.4915 0.0000 0.0000 0.0000
# 2 23.6340 48.0806 38.4915 0.0000 0.0000 0.0000
# 3 38.4915 38.4915 89.1576 0.0000 0.0000 0.0000
# 4 0.0000 0.0000 0.0000 12.1721 0.0000 0.0000
# 5 0.0000 0.0000 0.0000 0.0000 12.1721 0.0000
# 6 0.0000 0.0000 0.0000 0.0000 0.0000 12.2233
#
#
#
# Elastic Compliance Matrix: (Units=1/GPa)
#
#
# Indices 1 2 3 4 5 6 
#
# 1 0.033447 -0.007459 -0.011220 0.000000 0.000000 0.000000
# 2 -0.007459 0.033447 -0.011220 0.000000 0.000000 0.000000
# 3 -0.011220 -0.011220 0.020904 0.000000 0.000000 0.000000
# 4 0.000000 0.000000 0.000000 0.082155 0.000000 0.000000
# 5 0.000000 0.000000 0.000000 0.000000 0.082155 0.000000
# 6 0.000000 0.000000 0.000000 0.000000 0.000000 0.081811
#
#
# Mechanical properties :
#
#
# Convention : Reuss Voigt Hill
#
# Bulk Modulus (GPa) = 35.71286 42.95031 39.33159
# Shear Modulus (GPa) = 12.40544 12.96027 12.68285
#
# Velocity S-wave (km/s) = 2.87226 2.93579 2.90420
# Velocity P-wave (km/s) = 5.89488 6.32888 6.11573
#
# Compressibility (1/GPa) = 0.02800112
#
# Stress axis : x y z
#
# Youngs Moduli (GPa) = 29.89824 29.89824 47.83848
#
# Poissons Ratio (x) = 0.22300 0.53673
# Poissons Ratio (y) = 0.22300 0.53673
# Poissons Ratio (z) = 0.33545 0.33545
#
# Static dielectric constant tensor:
#      x y z
#    x 1.497130 0.000000 0.000000 
#    y 0.000000 1.497130 0.000000 
#    z 0.000000 0.000000 1.510800 
# 
# From -- ./inp_files/1195.got.cif
#   From: 2010.05.17/outbox.cif.g08.bks.cpg/sg186_1_cif.got.tgz:1195.got - 2010.05.20 12:07:08.
