data_PCOD9585756
_publ_section_title
;
Structure prediction by ZEFSAII (Michael W. Deem and Ramdas Pophale) SiO2 
 PCOD9585756
Probable space group: P -6 M 2
;
_chemical_formula_sum "Si O2"
_cell_formula_units_Z 69
_cell_length_a 23.663624
_cell_length_b 23.663624
_cell_length_c 7.547056
_cell_angle_alpha 90.000000
_cell_angle_beta 90.000000
_cell_angle_gamma 120.000000
_cell_volume 3659.912616
_symmetry_space_group_name_H-M "P -6 M 2"
_symmetry_group_IT_number 187
_symmetry_cell_setting 'hexagonal'
loop_
_space_group_symop_operation_xyz
x,y,z
-x+y,-x,-z
-y,x-y,z
x,y,-z
-x+y,-x,z
-y,x-y,-z
-y,-x,-z
-x+y,y,-z
x,x-y,-z
-x+y,y,z
x,x-y,z
-y,-x,z
loop_
_atom_site_type_symbol
_atom_site_label
_atom_site_fract_x
_atom_site_fract_y
_atom_site_fract_z
Si Si1 0.024664 0.788218 0.212195
Si Si2 0.624882 0.536878 0.295803
Si Si3 0.062173 0.593343 0.711768
Si Si4 0.891268 0.237017 0.787890
Si Si5 0.569014 0.430987 0.000000
Si Si6 0.129671 0.746003 0.211831
Si Si7 0.002445 0.130713 0.500000
O O1 0.956369 0.722347 0.242868
O O2 0.020514 0.841991 0.330105
O O3 0.080460 0.771381 0.270391
O O4 0.032247 0.803111 0.000000
O O5 0.608580 0.515279 0.500000
O O6 0.577291 0.564167 0.231750
O O7 0.697904 0.596258 0.291975
O O8 0.615003 0.482143 0.157053
O O9 0.060643 0.589800 0.500000
O O10 0.084516 0.542258 0.777397
O O11 0.103676 0.670030 0.752096
O O12 0.827932 0.172069 0.723976
O O13 0.885991 0.241348 0.000000
O O14 0.202209 0.797792 0.277295
O O15 0.129892 0.750418 0.000000
O O16 0.927528 0.072473 0.500000
O O17 0.051034 0.102068 0.500000
#
# Coordination Sequence:
#
# PCOD9585756 Si02
#       7
#    12  12  12  12   3  12   6
#     4  10  22  41  63  88 121 158 201 249 309 378
#     4  11  22  35  55  86 118 157 201 237 292 361
#     4  10  21  35  53  82 116 149 191 237 286 350
#     4  10  20  35  57  88 124 161 199 244 302 372
#     4  12  22  36  58  78 122 168 190 248 286 342
#     4  10  21  35  56  86 117 151 198 246 296 355
#     4  12  27  44  64  88 115 156 210 262 316 370
#
# _framework density 18.852907999999999
#
# number of rings (size 3 to 8) (size 9 to 14) (size 15 to 20)
#    0.000    1.565    3.478    1.391    3.652    3.130 
#    0.000    0.000    0.000    1.391    0.000    0.000 
#    3.478    0.000    1.043    0.000    0.000    0.000 
#
# Total GULP energy -384362.708613 kJ/mol
# GULP energy per Si atom -5570.474038 kJ/mol
# Density = 1.881000 g / cm^3
# Si number density = 18.852908 Si / 1000 Ang^3
#
#
#
# Elastic Constant Matrix: (Units=GPa)
#
#
# Indices 1 2 3 4 5 6 
#
# 1 46.2379 73.6769 12.5076 0.0000 -0.0008 0.0000
# 2 73.6769 46.2379 12.5076 0.0000 0.0008 0.0000
# 3 12.5076 12.5076 71.0307 0.0000 0.0000 0.0000
# 4 0.0000 0.0000 0.0000 18.2797 0.0000 0.0008
# 5 -0.0008 0.0008 0.0000 0.0000 18.2797 0.0000
# 6 0.0000 0.0000 0.0000 0.0008 0.0000 -13.7195
#
#
#
# Elastic Compliance Matrix: (Units=1/GPa)
#
#
# Indices 1 2 3 4 5 6 
#
# 1 -0.013894 0.022551 -0.001524 0.000000 -0.000002 0.000000
# 2 0.022551 -0.013894 -0.001524 0.000000 0.000002 0.000000
# 3 -0.001524 -0.001524 0.014615 0.000000 0.000000 0.000000
# 4 0.000000 0.000000 0.000000 0.054706 0.000000 0.000003
# 5 -0.000002 0.000002 0.000000 0.000000 0.054706 0.000000
# 6 0.000000 0.000000 0.000000 0.000003 0.000000 -0.072889
#
#
# Mechanical properties :
#
#
# Convention : Reuss Voigt Hill
#
# Bulk Modulus (GPa) = 38.71156 40.09897 39.40527
# Shear Modulus (GPa) = -709.88502 8.88895 -350.49803
#
# Velocity S-wave (km/s) = -19.42566 2.17374 -13.64974
# Velocity P-wave (km/s) = 21.96733 5.25507 15.08224
#
# Compressibility (1/GPa) = 0.02583207
#
# Stress axis : x y z
#
# Youngs Moduli (GPa) = -71.97541 -71.97541 68.42155
#
# Poissons Ratio (x) = 1.62311 0.10430
# Poissons Ratio (y) = 1.62311 0.10430
# Poissons Ratio (z) = -0.10972 -0.10972
#
# Static dielectric constant tensor:
#      x y z
#    x 1.681830 0.000000 0.000000 
#    y 0.000000 1.681830 0.000000 
#    z 0.000000 0.000000 1.682760 
# 
# From -- ./inp_files/791.got.cif
#   From: 2010.05.17/outbox.cif.g08.bks.cpg/sg187_1_cif.got.tgz:791.got - 2010.05.20 12:09:04.
