data_PCOD9585229
_publ_section_title
;
Structure prediction by ZEFSAII (Michael W. Deem and Ramdas Pophale) SiO2 
 PCOD9585229
Probable space group: P 63 C M
;
_chemical_formula_sum "Si O2"
_cell_formula_units_Z 84
_cell_length_a 17.922538
_cell_length_b 17.922538
_cell_length_c 15.463933
_cell_angle_alpha 90.000000
_cell_angle_beta 90.000000
_cell_angle_gamma 120.000000
_cell_volume 4301.794013
_symmetry_space_group_name_H-M "P 63 C M"
_symmetry_group_IT_number 185
_symmetry_cell_setting 'hexagonal'
loop_
_space_group_symop_operation_xyz
x,y,z
x-y,x,1/2+z
-y,x-y,z
-x,-y,1/2+z
-x+y,-x,z
y,-x+y,1/2+z
-x+y,y,1/2+z
x,x-y,1/2+z
-y,-x,1/2+z
y,x,z
x-y,-y,z
-x,-x+y,z
loop_
_atom_site_type_symbol
_atom_site_label
_atom_site_fract_x
_atom_site_fract_y
_atom_site_fract_z
Si Si1 0.404031 0.899299 0.207290
Si Si2 0.094242 0.908203 0.709244
Si Si3 0.345587 0.246495 0.800707
Si Si4 0.186038 0.094242 0.002666
Si Si5 0.389664 0.610336 0.855955
Si Si6 0.099092 0.345587 0.911203
Si Si7 0.100701 0.595969 0.504620
O O1 0.315555 0.891340 0.242906
O O2 0.420489 0.838772 0.271310
O O3 0.397341 0.876343 0.105955
O O4 0.476150 0.000000 0.216094
O O5 0.097773 0.827130 0.743300
O O6 0.101180 0.909760 0.605955
O O7 0.000000 0.892080 0.731066
O O8 0.165748 0.000000 0.744948
O O9 0.302437 0.302437 0.839548
O O10 0.371530 0.185765 0.855955
O O11 0.165748 0.165748 0.966962
O O12 0.107920 0.000000 0.980844
O O13 0.270643 0.097773 0.968610
O O14 0.425543 0.712771 0.855955
O O15 0.418283 0.579511 0.940600
O O16 0.000000 0.302437 0.872362
O O17 0.108660 0.424215 0.969004
O O18 0.000000 0.523850 0.495816
#
# Coordination Sequence:
#
# PCOD9585229 Si02
#       7
#    12  12  12  12  12  12  12
#     4  10  21  39  63  89 119 155 193 237 293 357
#     4   9  16  26  41  64  98 143 196 250 300 348
#     4  10  19  31  49  74 109 152 199 248 299 354
#     4   9  16  26  41  64  98 143 196 250 300 348
#     4  10  23  40  64  94 124 154 190 240 291 350
#     4  10  19  31  49  74 109 152 199 248 299 354
#     4  10  21  39  63  89 119 155 193 237 293 357
#
# _framework density 19.526737000000001
#
# number of rings (size 3 to 8) (size 9 to 14) (size 15 to 20)
#    0.286    2.000    0.000    3.286    0.000    5.714 
#    0.000    0.000    0.000    4.571    0.000   12.000 
#    0.000    0.000    0.000    0.000    0.000    0.000 
#
# Total GULP energy -467706.527703 kJ/mol
# GULP energy per Si atom -5567.934854 kJ/mol
# Density = 1.948229 g / cm^3
# Si number density = 19.526737 Si / 1000 Ang^3
#
#
#
# Elastic Constant Matrix: (Units=GPa)
#
#
# Indices 1 2 3 4 5 6 
#
# 1 77.9304 48.3302 53.4047 0.0000 0.0000 0.0000
# 2 48.3302 77.9304 53.4047 0.0000 0.0000 0.0000
# 3 53.4047 53.4047 118.1563 0.0000 0.0000 0.0000
# 4 0.0000 0.0000 0.0000 30.7569 0.0000 0.0000
# 5 0.0000 0.0000 0.0000 0.0000 30.7569 0.0000
# 6 0.0000 0.0000 0.0000 0.0000 0.0000 14.8001
#
#
#
# Elastic Compliance Matrix: (Units=1/GPa)
#
#
# Indices 1 2 3 4 5 6 
#
# 1 0.023303 -0.010480 -0.005796 0.000000 0.000000 0.000000
# 2 -0.010480 0.023303 -0.005796 0.000000 0.000000 0.000000
# 3 -0.005796 -0.005796 0.013703 0.000000 0.000000 0.000000
# 4 0.000000 0.000000 0.000000 0.032513 0.000000 0.000000
# 5 0.000000 0.000000 0.000000 0.000000 0.032513 0.000000
# 6 0.000000 0.000000 0.000000 0.000000 0.000000 0.067567
#
#
# Mechanical properties :
#
#
# Convention : Reuss Voigt Hill
#
# Bulk Modulus (GPa) = 61.86030 64.92184 63.39107
# Shear Modulus (GPa) = 20.62412 23.18794 21.90603
#
# Velocity S-wave (km/s) = 3.25345 3.44975 3.35303
# Velocity P-wave (km/s) = 6.77213 7.01338 6.89381
#
# Compressibility (1/GPa) = 0.01616546
#
# Stress axis : x y z
#
# Youngs Moduli (GPa) = 42.91236 42.91236 72.97888
#
# Poissons Ratio (x) = 0.44973 0.42297
# Poissons Ratio (y) = 0.44973 0.42297
# Poissons Ratio (z) = 0.24871 0.24871
#
# Static dielectric constant tensor:
#      x y z
#    x 1.707910 0.000000 0.000000 
#    y 0.000000 1.707910 0.000000 
#    z 0.000000 0.000000 1.678210 
# 
# From -- ./inp_files/1485.got.cif
#   From: 2010.05.17/outbox.cif.g08.bks.cpg/sg185_cif.got.tgz:1485.got - 2010.05.20 12:05:34.
