data_PCOD9585474
_publ_section_title
;
Structure prediction by ZEFSAII (Michael W. Deem and Ramdas Pophale) SiO2 
 PCOD9585474
Probable space group: P -6 M 2
;
_chemical_formula_sum "Si O2"
_cell_formula_units_Z 66
_cell_length_a 17.665503
_cell_length_b 17.665503
_cell_length_c 15.777365
_cell_angle_alpha 90.000000
_cell_angle_beta 90.000000
_cell_angle_gamma 120.000000
_cell_volume 4263.999256
_symmetry_space_group_name_H-M "P -6 M 2"
_symmetry_group_IT_number 187
_symmetry_cell_setting 'hexagonal'
loop_
_space_group_symop_operation_xyz
x,y,z
-x+y,-x,-z
-y,x-y,z
x,y,-z
-x+y,-x,z
-y,x-y,-z
-y,-x,-z
-x+y,y,-z
x,x-y,-z
-x+y,y,z
x,x-y,z
-y,-x,z
loop_
_atom_site_type_symbol
_atom_site_label
_atom_site_fract_x
_atom_site_fract_y
_atom_site_fract_z
Si Si1 0.431017 0.397263 0.159946
Si Si2 0.847850 0.334215 0.673457
Si Si3 0.064172 0.758596 0.899951
Si Si4 0.665124 0.160641 0.000000
Si Si5 0.938249 0.693930 0.592658
Si Si6 0.179468 0.180113 0.254280
O O1 0.500215 0.499786 0.165508
O O2 0.447283 0.352652 0.241418
O O3 0.333709 0.375824 0.139990
O O4 0.458124 0.358411 0.081268
O O5 0.840894 0.420447 0.655558
O O6 0.751556 0.248445 0.682687
O O7 0.901695 0.310698 0.606574
O O8 0.164872 0.835129 0.893505
O O9 0.010569 0.788450 0.838809
O O10 0.040379 0.749471 0.000000
O O11 0.763698 0.236303 0.000000
O O12 0.599645 0.199289 0.000000
O O13 0.980858 0.722424 0.500000
O O14 0.851092 0.702183 0.592251
O O15 0.992531 0.752307 0.672637
O O16 0.086363 0.172726 0.269834
O O17 0.172348 0.086174 0.257355
#
# Coordination Sequence:
#
# PCOD9585474 Si02
#       6
#    12  12  12   6  12  12
#     4  10  19  31  48  70  94 126 165 202 241 287
#     4  10  19  31  47  69  98 132 168 203 240 283
#     4  10  20  34  51  73  98 127 160 197 242 293
#     4  10  19  28  41  64  96 130 164 200 237 276
#     4   9  18  32  49  69  94 125 161 201 243 287
#     4  10  20  34  51  71  96 126 162 203 248 294
#
# _framework density 15.478426000000001
#
# number of rings (size 3 to 8) (size 9 to 14) (size 15 to 20)
#    0.000    2.182    2.727    1.000    0.000    1.818 
#    0.000    1.818    0.000    3.636    0.000    0.000 
#    0.000    0.000    0.000    0.000    0.000   16.545 
#
# Total GULP energy -367493.568179 kJ/mol
# GULP energy per Si atom -5568.084366 kJ/mol
# Density = 1.544320 g / cm^3
# Si number density = 15.478426 Si / 1000 Ang^3
#
#
#
# Elastic Constant Matrix: (Units=GPa)
#
#
# Indices 1 2 3 4 5 6 
#
# 1 77.7122 47.6251 34.1554 0.0000 0.0003 0.0000
# 2 47.6251 77.7122 34.1554 0.0000 -0.0003 0.0000
# 3 34.1554 34.1554 76.5081 0.0000 0.0000 0.0000
# 4 0.0000 0.0000 0.0000 12.0736 0.0000 -0.0003
# 5 0.0003 -0.0003 0.0000 0.0000 12.0736 0.0000
# 6 0.0000 0.0000 0.0000 -0.0003 0.0000 15.0436
#
#
#
# Elastic Compliance Matrix: (Units=1/GPa)
#
#
# Indices 1 2 3 4 5 6 
#
# 1 0.021890 -0.011346 -0.004707 0.000000 -0.000001 0.000000
# 2 -0.011346 0.021890 -0.004707 0.000000 0.000001 0.000000
# 3 -0.004707 -0.004707 0.017273 0.000000 0.000000 0.000000
# 4 0.000000 0.000000 0.000000 0.082826 0.000000 0.000002
# 5 -0.000001 0.000001 0.000000 0.000000 0.082826 0.000000
# 6 0.000000 0.000000 0.000000 0.000002 0.000000 0.066474
#
#
# Mechanical properties :
#
#
# Convention : Reuss Voigt Hill
#
# Bulk Modulus (GPa) = 51.19622 51.53382 51.36502
# Shear Modulus (GPa) = 14.65370 15.57125 15.11248
#
# Velocity S-wave (km/s) = 3.08022 3.17519 3.12806
# Velocity P-wave (km/s) = 6.76742 6.84169 6.80465
#
# Compressibility (1/GPa) = 0.01953269
#
# Stress axis : x y z
#
# Youngs Moduli (GPa) = 45.68223 45.68223 57.89286
#
# Poissons Ratio (x) = 0.51833 0.27251
# Poissons Ratio (y) = 0.51833 0.27251
# Poissons Ratio (z) = 0.21503 0.21503
#
# Static dielectric constant tensor:
#      x y z
#    x 1.508620 0.000000 0.000000 
#    y 0.000000 1.508620 0.000000 
#    z 0.000000 0.000000 1.531460 
# 
# From -- ./inp_files/2437.got.cif
#   From: 2010.05.17/outbox.cif.g08.bks.cpg/sg187_2_cif.got.tgz:2437.got - 2010.05.20 12:09:04.
