data_PCOD9585021
_publ_section_title
;
Structure prediction by ZEFSAII (Michael W. Deem and Ramdas Pophale) SiO2 
 PCOD9585021
Probable space group: P 6 M M
;
_chemical_formula_sum "Si O2"
_cell_formula_units_Z 96
_cell_length_a 18.182196
_cell_length_b 18.182196
_cell_length_c 20.544136
_cell_angle_alpha 90.000000
_cell_angle_beta 90.000000
_cell_angle_gamma 120.000000
_cell_volume 5881.812597
_symmetry_space_group_name_H-M "P 6 M M"
_symmetry_group_IT_number 183
_symmetry_cell_setting 'hexagonal'
loop_
_space_group_symop_operation_xyz
x,y,z
x-y,x,z
-y,x-y,z
-x,-y,z
-x+y,-x,z
y,-x+y,z
-x+y,y,z
x,x-y,z
-y,-x,z
y,x,z
x-y,-y,z
-x,-x+y,z
loop_
_atom_site_type_symbol
_atom_site_label
_atom_site_fract_x
_atom_site_fract_y
_atom_site_fract_z
Si Si1 0.898340 0.365487 0.416170
Si Si2 0.835504 0.332004 0.028995
Si Si3 0.361347 0.261102 0.294934
Si Si4 0.332004 0.496501 0.560872
Si Si5 0.096875 0.731703 0.915427
Si Si6 0.898340 0.532853 0.173697
Si Si7 0.160205 0.667531 0.794934
Si Si8 0.365173 0.268298 0.674441
O O1 0.874921 0.437461 0.397221
O O2 0.879565 0.300119 0.358388
O O3 0.855892 0.327754 0.485276
O O4 0.000000 0.415067 0.426067
O O5 0.852694 0.426347 0.015935
O O6 0.737426 0.262575 0.016262
O O7 0.855892 0.327753 0.104591
O O8 0.889277 0.306155 0.982330
O O9 0.321388 0.160694 0.294934
O O10 0.295244 0.295244 0.294934
O O11 0.420554 0.300119 0.231480
O O12 0.262575 0.525150 0.573606
O O13 0.426347 0.573654 0.573933
O O14 0.306155 0.416879 0.607537
O O15 0.169098 0.830903 0.912168
O O16 0.118578 0.685195 0.857788
O O17 0.000000 0.708932 0.909649
O O18 0.874922 0.437461 0.192645
O O19 0.000000 0.584934 0.163801
O O20 0.149859 0.574930 0.794935
O O21 0.259478 0.740523 0.794934
O O22 0.118577 0.685193 0.732080
O O23 0.338198 0.169099 0.677701
O O24 0.291069 0.291069 0.680219
#
# Coordination Sequence:
#
# PCOD9585021 Si02
#       8
#    12  12  12  12  12  12  12  12
#     4   9  17  29  46  67  90 118 152 189 227 268
#     4  10  19  30  45  67  97 130 161 190 221 260
#     4  10  19  31  47  66  89 117 152 192 233 277
#     4  10  19  30  45  67  97 130 161 190 221 260
#     4  10  21  35  51  71  94 122 156 196 240 282
#     4   9  17  29  46  67  90 118 152 189 227 268
#     4  10  20  33  50  73 102 134 165 194 224 261
#     4  10  21  35  51  71  94 122 156 196 240 282
#
# _framework density 16.321498999999999
#
# number of rings (size 3 to 8) (size 9 to 14) (size 15 to 20)
#    0.000    2.250    0.000    3.375    0.000    5.000 
#    0.000    2.500    0.000    3.875    0.000    0.000 
#    0.000    3.000    0.000    8.000    0.000    0.000 
#
# Total GULP energy -535534.261602 kJ/mol
# GULP energy per Si atom -5578.481892 kJ/mol
# Density = 1.628435 g / cm^3
# Si number density = 16.321499 Si / 1000 Ang^3
#
#
#
# Elastic Constant Matrix: (Units=GPa)
#
#
# Indices 1 2 3 4 5 6 
#
# 1 90.7264 64.1119 36.6992 0.0000 0.0000 0.0000
# 2 64.1119 90.7264 36.6992 0.0000 0.0000 0.0000
# 3 36.6992 36.6992 61.7683 0.0000 0.0000 0.0000
# 4 0.0000 0.0000 0.0000 18.2062 0.0000 0.0000
# 5 0.0000 0.0000 0.0000 0.0000 18.2062 0.0000
# 6 0.0000 0.0000 0.0000 0.0000 0.0000 13.3072
#
#
#
# Elastic Compliance Matrix: (Units=1/GPa)
#
#
# Indices 1 2 3 4 5 6 
#
# 1 0.023282 -0.014292 -0.005342 0.000000 0.000000 0.000000
# 2 -0.014292 0.023282 -0.005342 0.000000 0.000000 0.000000
# 3 -0.005342 -0.005342 0.022537 0.000000 0.000000 0.000000
# 4 0.000000 0.000000 0.000000 0.054926 0.000000 0.000000
# 5 0.000000 0.000000 0.000000 0.000000 0.054926 0.000000
# 6 0.000000 0.000000 0.000000 0.000000 0.000000 0.075147
#
#
# Mechanical properties :
#
#
# Convention : Reuss Voigt Hill
#
# Bulk Modulus (GPa) = 52.21564 57.58239 54.89902
# Shear Modulus (GPa) = 16.10648 16.99130 16.54889
#
# Velocity S-wave (km/s) = 3.14479 3.23001 3.18768
# Velocity P-wave (km/s) = 6.72664 7.01907 6.87441
#
# Compressibility (1/GPa) = 0.01915135
#
# Stress axis : x y z
#
# Youngs Moduli (GPa) = 42.95165 42.95165 44.37176
#
# Poissons Ratio (x) = 0.61385 0.23702
# Poissons Ratio (y) = 0.61385 0.23702
# Poissons Ratio (z) = 0.22943 0.22943
#
# Static dielectric constant tensor:
#      x y z
#    x 1.535890 0.000000 0.000000 
#    y 0.000000 1.535890 0.000000 
#    z 0.000000 0.000000 1.553330 
# 
# From -- ./inp_files/3125.got.cif
#   From: 2010.05.17/outbox.cif.g08.bks.cpg/sg183_2_cif.got.tgz:3125.got - 2010.05.20 12:02:58.
