data_PCOD9585096
_publ_section_title
;
Structure prediction by ZEFSAII (Michael W. Deem and Ramdas Pophale) SiO2 
 PCOD9585096
Probable space group: P 6 C C
;
_chemical_formula_sum "Si O2"
_cell_formula_units_Z 80
_cell_length_a 22.014992
_cell_length_b 22.014992
_cell_length_c 14.103181
_cell_angle_alpha 90.000000
_cell_angle_beta 90.000000
_cell_angle_gamma 120.000000
_cell_volume 5919.496598
_symmetry_space_group_name_H-M "P 6 C C"
_symmetry_group_IT_number 184
_symmetry_cell_setting 'hexagonal'
loop_
_space_group_symop_operation_xyz
x,y,z
x-y,x,z
-y,x-y,z
-x,-y,z
-x+y,-x,z
y,-x+y,z
-x+y,y,1/2+z
x,x-y,1/2+z
-y,-x,1/2+z
y,x,1/2+z
x-y,-y,1/2+z
-x,-x+y,1/2+z
loop_
_atom_site_type_symbol
_atom_site_label
_atom_site_fract_x
_atom_site_fract_y
_atom_site_fract_z
Si Si1 0.666667 0.333334 0.710645
Si Si2 0.992930 0.570418 0.667018
Si Si3 0.051142 0.469766 0.355179
Si Si4 0.666667 0.333334 0.483738
Si Si5 0.467176 0.663568 0.261665
Si Si6 0.131800 0.489899 0.061109
Si Si7 0.752123 0.491352 0.939422
Si Si8 0.506873 0.634390 0.539500
O O1 0.666668 0.333334 0.597148
O O2 0.643779 0.387576 0.746666
O O3 0.914972 0.545978 0.633213
O O4 0.000000 0.500000 0.670978
O O5 0.013362 0.600912 0.772760
O O6 0.052662 0.618477 0.591384
O O7 0.125567 0.525345 0.306826
O O8 0.075274 0.452313 0.452413
O O9 0.000000 0.500000 0.378233
O O10 0.684098 0.408663 0.447283
O O11 0.499760 0.676110 0.157084
O O12 0.502586 0.728134 0.335960
O O13 0.168192 0.472311 0.975070
O O14 0.135702 0.564865 0.042074
O O15 0.702902 0.502789 0.014792
#
# Coordination Sequence:
#
# PCOD9585096 Si02
#       8
#     4  12  12   4  12  12  12  12
#     4  12  19  29  37  52  77  91 118 134 184 220
#     4   8  16  29  41  53  69  88 115 146 170 206
#     4   9  17  29  42  55  67  87 118 144 173 207
#     4  12  19  29  37  49  74  97 106 143 175 226
#     4  10  21  28  40  53  71  94 111 144 177 221
#     4  10  18  30  39  53  70  90 114 142 176 213
#     4  11  19  29  39  54  73  93 116 140 182 222
#     4  10  18  29  44  56  71  93 118 145 181 217
#
# _framework density 13.514662
#
# number of rings (size 3 to 8) (size 9 to 14) (size 15 to 20)
#    0.000    2.100    3.000    3.150    2.100    0.000 
#    0.000    0.000    0.000    0.000    0.000    0.000 
#    0.000    0.000    0.000    0.000    0.000    0.000 
#
# Total GULP energy -445589.208761 kJ/mol
# GULP energy per Si atom -5569.865110 kJ/mol
# Density = 1.348390 g / cm^3
# Si number density = 13.514662 Si / 1000 Ang^3
#
#
#
# Elastic Constant Matrix: (Units=GPa)
#
#
# Indices 1 2 3 4 5 6 
#
# 1 20.8077 1.2063 7.0627 0.0000 0.0000 -0.0001
# 2 1.2063 20.8072 7.0626 0.0000 0.0000 -0.0001
# 3 7.0627 7.0626 62.2607 0.0000 -0.0001 0.0000
# 4 0.0000 0.0000 0.0000 18.9903 -0.0001 0.0000
# 5 0.0000 0.0000 -0.0001 -0.0001 18.9904 0.0000
# 6 -0.0001 -0.0001 0.0000 0.0000 0.0000 9.8006
#
#
#
# Elastic Compliance Matrix: (Units=1/GPa)
#
#
# Indices 1 2 3 4 5 6 
#
# 1 0.050004 -0.001013 -0.005557 0.000000 0.000000 0.000001
# 2 -0.001013 0.050005 -0.005558 0.000000 0.000000 0.000001
# 3 -0.005557 -0.005558 0.017322 0.000000 0.000000 0.000000
# 4 0.000000 0.000000 0.000000 0.052658 0.000000 0.000000
# 5 0.000000 0.000000 0.000000 0.000000 0.052658 0.000000
# 6 0.000001 0.000001 0.000000 0.000000 0.000000 0.102035
#
#
# Mechanical properties :
#
#
# Convention : Reuss Voigt Hill
#
# Bulk Modulus (GPa) = 10.74381 14.94874 12.84628
# Shear Modulus (GPa) = 13.15915 15.45920 14.30917
#
# Velocity S-wave (km/s) = 3.12379 3.38580 3.25743
# Velocity P-wave (km/s) = 4.58015 5.13518 4.86558
#
# Compressibility (1/GPa) = 0.09307682
#
# Stress axis : x y z
#
# Youngs Moduli (GPa) = 19.99836 19.99780 57.72891
#
# Poissons Ratio (x) = 0.02025 0.32083
# Poissons Ratio (y) = 0.02025 0.32083
# Poissons Ratio (z) = 0.11114 0.11114
#
# Static dielectric constant tensor:
#      x y z
#    x 1.441540 0.000000 0.000000 
#    y 0.000000 1.441540 0.000000 
#    z 0.000000 0.000000 1.547400 
# 
# From -- ./inp_files/970.got.cif
#   From: 2010.05.17/outbox.cif.g08.bks.cpg/sg184_cif.got.tgz:970.got - 2010.05.20 12:04:40.
