data_PCOD9585493
_publ_section_title
;
Structure prediction by ZEFSAII (Michael W. Deem and Ramdas Pophale) SiO2 
 PCOD9585493
Probable space group: P -6 M 2
;
_chemical_formula_sum "Si O2"
_cell_formula_units_Z 54
_cell_length_a 18.094423
_cell_length_b 18.094423
_cell_length_c 11.059892
_cell_angle_alpha 90.000000
_cell_angle_beta 90.000000
_cell_angle_gamma 120.000000
_cell_volume 3135.963472
_symmetry_space_group_name_H-M "P -6 M 2"
_symmetry_group_IT_number 187
_symmetry_cell_setting 'hexagonal'
loop_
_space_group_symop_operation_xyz
x,y,z
-x+y,-x,-z
-y,x-y,z
x,y,-z
-x+y,-x,z
-y,x-y,-z
-y,-x,-z
-x+y,y,-z
x,x-y,-z
-x+y,y,z
x,x-y,z
-y,-x,z
loop_
_atom_site_type_symbol
_atom_site_label
_atom_site_fract_x
_atom_site_fract_y
_atom_site_fract_z
Si Si1 0.668089 0.164059 0.000000
Si Si2 0.333311 0.843086 0.636439
Si Si3 0.270091 0.365598 0.139111
Si Si4 0.665447 0.499685 0.356436
Si Si5 0.739231 0.090875 0.202947
O O1 0.691861 0.123490 0.888356
O O2 0.735196 0.264804 0.000000
O O3 0.572771 0.145542 0.000000
O O4 0.330374 0.875971 0.500000
O O5 0.421913 0.843826 0.645737
O O6 0.253465 0.746536 0.641432
O O7 0.321453 0.889679 0.752854
O O8 0.173571 0.347142 0.147263
O O9 0.281779 0.284825 0.165111
O O10 0.299321 0.395359 0.000000
O O11 0.662597 0.491527 0.500000
O O12 0.741459 0.482917 0.312922
O O13 0.573643 0.426358 0.309152
O O14 0.696297 0.597568 0.325733
O O15 0.838824 0.161177 0.201170
#
# Coordination Sequence:
#
# PCOD9585493 Si02
#       5
#     6  12  12  12  12
#     4  10  19  30  45  68  98 132 166 196 225 264
#     4   9  18  33  53  76 103 136 172 207 244 291
#     4  10  21  37  54  74  99 129 165 209 262 313
#     4   9  17  29  46  70 103 142 179 211 242 281
#     4  10  20  34  51  71  95 128 168 206 251 302
#
# _framework density 17.219587000000001
#
# number of rings (size 3 to 8) (size 9 to 14) (size 15 to 20)
#    0.000    2.444    1.111    1.222    0.000    4.889 
#    0.000    4.444    0.000    1.778    0.000    0.000 
#    0.000    0.000    0.000   11.111    0.000    2.667 
#
# Total GULP energy -300644.870333 kJ/mol
# GULP energy per Si atom -5567.497599 kJ/mol
# Density = 1.718039 g / cm^3
# Si number density = 17.219587 Si / 1000 Ang^3
#
#
#
# Elastic Constant Matrix: (Units=GPa)
#
#
# Indices 1 2 3 4 5 6 
#
# 1 52.2679 43.0410 40.3540 0.0000 0.0000 0.0000
# 2 43.0410 52.2679 40.3540 0.0000 0.0000 0.0000
# 3 40.3540 40.3540 101.1244 0.0000 0.0000 0.0000
# 4 0.0000 0.0000 0.0000 19.3669 0.0000 0.0000
# 5 0.0000 0.0000 0.0000 0.0000 19.3669 0.0000
# 6 0.0000 0.0000 0.0000 0.0000 0.0000 4.6135
#
#
#
# Elastic Compliance Matrix: (Units=1/GPa)
#
#
# Indices 1 2 3 4 5 6 
#
# 1 0.062113 -0.046265 -0.006324 0.000000 0.000000 0.000000
# 2 -0.046265 0.062113 -0.006324 0.000000 0.000000 0.000000
# 3 -0.006324 -0.006324 0.014936 0.000000 0.000000 0.000000
# 4 0.000000 0.000000 0.000000 0.051635 0.000000 0.000000
# 5 0.000000 0.000000 0.000000 0.000000 0.051635 0.000000
# 6 0.000000 0.000000 0.000000 0.000000 0.000000 0.216756
#
#
# Mechanical properties :
#
#
# Convention : Reuss Voigt Hill
#
# Bulk Modulus (GPa) = 46.87150 50.35092 48.61121
# Shear Modulus (GPa) = 8.55982 14.13020 11.34501
#
# Velocity S-wave (km/s) = 2.23199 2.86770 2.56958
# Velocity P-wave (km/s) = 5.82420 6.34578 6.09058
#
# Compressibility (1/GPa) = 0.02133493
#
# Stress axis : x y z
#
# Youngs Moduli (GPa) = 16.09976 16.09976 66.95249
#
# Poissons Ratio (x) = 0.74486 0.42340
# Poissons Ratio (y) = 0.74486 0.42340
# Poissons Ratio (z) = 0.10181 0.10181
#
# Static dielectric constant tensor:
#      x y z
#    x 1.577310 0.000000 0.000000 
#    y 0.000000 1.577310 0.000000 
#    z 0.000000 0.000000 1.770950 
# 
# From -- ./inp_files/1535.got.cif
#   From: 2010.05.17/outbox.cif.g08.bks.cpg/sg187_1_cif.got.tgz:1535.got - 2010.05.20 12:09:04.
