data_PCOD9585938
_publ_section_title
;
Structure prediction by ZEFSAII (Michael W. Deem and Ramdas Pophale) SiO2 
 PCOD9585938
Probable space group: P -6 C 2
;
_chemical_formula_sum "Si O2"
_cell_formula_units_Z 72
_cell_length_a 24.110789
_cell_length_b 24.110789
_cell_length_c 8.719228
_cell_angle_alpha 90.000000
_cell_angle_beta 90.000000
_cell_angle_gamma 120.000000
_cell_volume 4389.666342
_symmetry_space_group_name_H-M "P -6 C 2"
_symmetry_group_IT_number 188
_symmetry_cell_setting 'hexagonal'
loop_
_space_group_symop_operation_xyz
x,y,z
-x+y,-x,1/2-z
-y,x-y,z
x,y,1/2-z
-x+y,-x,z
-y,x-y,1/2-z
-y,-x,-z
-x+y,y,-z
x,x-y,-z
-x+y,y,1/2+z
x,x-y,1/2+z
-y,-x,1/2+z
loop_
_atom_site_type_symbol
_atom_site_label
_atom_site_fract_x
_atom_site_fract_y
_atom_site_fract_z
Si Si1 0.542748 0.208694 0.065360
Si Si2 0.253533 0.389184 0.566184
Si Si3 0.859023 0.595630 0.064943
Si Si4 0.557028 0.003536 0.576322
Si Si5 0.368793 0.849190 0.421419
Si Si6 0.672598 0.001508 0.070905
O O1 0.544345 0.210658 0.250000
O O2 0.599397 0.198794 0.000000
O O3 0.552070 0.276035 0.000000
O O4 0.472160 0.155389 0.007478
O O5 0.254057 0.392482 0.750000
O O6 0.184642 0.369283 0.500000
O O7 0.304360 0.461394 0.506357
O O8 0.279826 0.342062 0.518319
O O9 0.855403 0.588981 0.250000
O O10 0.928037 0.656317 0.024625
O O11 0.802730 0.605459 0.000000
O O12 0.578942 0.027442 0.750000
O O13 0.515230 0.030459 0.500000
O O14 0.511996 0.926353 0.590025
O O15 0.611688 0.010265 0.463184
O O16 0.353128 0.822531 0.250000
O O17 0.412186 0.824372 0.500000
O O18 0.677537 0.991077 0.250000
#
# Coordination Sequence:
#
# PCOD9585938 Si02
#       6
#    12  12  12  12  12  12
#     4  11  21  34  51  70  94 124 162 207 254 301
#     4  10  20  33  50  73  99 126 157 193 237 286
#     4  10  21  36  52  70  92 122 160 200 243 289
#     4   9  16  26  41  62  88 117 149 185 225 268
#     4   8  15  26  41  62  86 114 147 181 218 262
#     4  10  20  33  49  69  94 123 155 192 236 286
#
# _framework density 16.402156999999999
#
# number of rings (size 3 to 8) (size 9 to 14) (size 15 to 20)
#    0.000    2.333    0.000    5.667    0.000    8.000 
#    0.000    0.000    0.000    0.333    0.000    0.000 
#    0.000    0.000    0.000    0.500    0.000    8.000 
#
# Total GULP energy -401198.042916 kJ/mol
# GULP energy per Si atom -5572.195040 kJ/mol
# Density = 1.636482 g / cm^3
# Si number density = 16.402157 Si / 1000 Ang^3
#
#
#
# Elastic Constant Matrix: (Units=GPa)
#
#
# Indices 1 2 3 4 5 6 
#
# 1 70.2403 50.6932 29.9555 0.0001 0.0000 0.0000
# 2 50.6932 70.2403 29.9555 -0.0001 0.0000 0.0000
# 3 29.9555 29.9555 66.2368 0.0000 0.0000 0.0000
# 4 0.0001 -0.0001 0.0000 17.5225 0.0000 0.0000
# 5 0.0000 0.0000 0.0000 0.0000 17.5225 0.0001
# 6 0.0000 0.0000 0.0000 0.0000 0.0001 9.7735
#
#
#
# Elastic Compliance Matrix: (Units=1/GPa)
#
#
# Indices 1 2 3 4 5 6 
#
# 1 0.030908 -0.020251 -0.004819 0.000000 0.000000 0.000000
# 2 -0.020251 0.030908 -0.004819 0.000000 0.000000 0.000000
# 3 -0.004819 -0.004819 0.019456 0.000000 0.000000 0.000000
# 4 0.000000 0.000000 0.000000 0.057070 0.000000 0.000000
# 5 0.000000 0.000000 0.000000 0.000000 0.057070 0.000000
# 6 0.000000 0.000000 0.000000 0.000000 0.000000 0.102317
#
#
# Mechanical properties :
#
#
# Convention : Reuss Voigt Hill
#
# Bulk Modulus (GPa) = 46.52902 47.54731 47.03817
# Shear Modulus (GPa) = 13.71096 15.37123 14.54109
#
# Velocity S-wave (km/s) = 2.89437 3.06461 2.98070
# Velocity P-wave (km/s) = 6.29278 6.44777 6.37075
#
# Compressibility (1/GPa) = 0.02149196
#
# Stress axis : x y z
#
# Youngs Moduli (GPa) = 32.35451 32.35451 51.39674
#
# Poissons Ratio (x) = 0.65521 0.24770
# Poissons Ratio (y) = 0.65521 0.24770
# Poissons Ratio (z) = 0.15593 0.15593
#
# Static dielectric constant tensor:
#      x y z
#    x 1.574040 0.000000 0.000000 
#    y 0.000000 1.574040 0.000000 
#    z 0.000000 0.000000 1.575740 
# 
# From -- ./inp_files/996.got.cif
#   From: 2010.05.17/outbox.cif.g08.bks.cpg/sg188_1_cif.got.tgz:996.got - 2010.05.20 12:11:46.
