data_PCOD9585578
_publ_section_title
;
Structure prediction by ZEFSAII (Michael W. Deem and Ramdas Pophale) SiO2 
 PCOD9585578
Probable space group: P -6 M 2
;
_chemical_formula_sum "Si O2"
_cell_formula_units_Z 66
_cell_length_a 13.514185
_cell_length_b 13.514185
_cell_length_c 27.979433
_cell_angle_alpha 90.000000
_cell_angle_beta 90.000000
_cell_angle_gamma 120.000000
_cell_volume 4425.366671
_symmetry_space_group_name_H-M "P -6 M 2"
_symmetry_group_IT_number 187
_symmetry_cell_setting 'hexagonal'
loop_
_space_group_symop_operation_xyz
x,y,z
-x+y,-x,-z
-y,x-y,z
x,y,-z
-x+y,-x,z
-y,x-y,-z
-y,-x,-z
-x+y,y,-z
x,x-y,-z
-x+y,y,z
x,x-y,z
-y,-x,z
loop_
_atom_site_type_symbol
_atom_site_label
_atom_site_fract_x
_atom_site_fract_y
_atom_site_fract_z
Si Si1 0.333571 0.432487 0.870996
Si Si2 0.232807 0.999527 0.576077
Si Si3 0.567027 0.666368 0.760651
Si Si4 0.234169 0.233800 0.055435
Si Si5 0.667167 0.096221 0.500000
Si Si6 0.999601 0.768001 0.311308
O O1 0.228149 0.456297 0.876583
O O2 0.452227 0.547774 0.879189
O O3 0.330891 0.396236 0.815785
O O4 0.311464 0.333790 0.908084
O O5 0.204808 0.102404 0.568732
O O6 0.345182 0.033809 0.545012
O O7 0.256437 0.997197 0.632431
O O8 0.121938 0.878063 0.563305
O O9 0.542899 0.771450 0.755335
O O10 0.452157 0.547844 0.752583
O O11 0.664579 0.688271 0.723052
O O12 0.237938 0.118969 0.064281
O O13 0.105058 0.210115 0.061283
O O14 0.266439 0.268025 0.000000
O O15 0.772108 0.227893 0.500000
O O16 0.545177 0.090353 0.500000
O O17 0.102919 0.897082 0.303411
O O18 0.879780 0.759560 0.300981
#
# Coordination Sequence:
#
# PCOD9585578 Si02
#       6
#    12  12  12  12   6  12
#     4   9  17  29  45  65  88 114 145 182 222 259
#     4   9  17  30  49  71  92 115 145 183 224 263
#     4   9  17  29  45  64  87 117 151 184 216 254
#     4   9  17  29  45  65  89 116 144 175 214 262
#     4  10  20  32  46  64  88 118 150 184 220 258
#     4   9  17  29  46  69  95 119 143 176 221 267
#
# _framework density 14.914019
#
# number of rings (size 3 to 8) (size 9 to 14) (size 15 to 20)
#    0.000    2.909    0.000    1.273    0.000    5.455 
#    0.000    0.909    0.000    5.455    0.000    0.000 
#    0.000    0.000    0.000    0.000    0.000    0.000 
#
# Total GULP energy -367659.441053 kJ/mol
# GULP energy per Si atom -5570.597592 kJ/mol
# Density = 1.488007 g / cm^3
# Si number density = 14.914019 Si / 1000 Ang^3
#
#
#
# Elastic Constant Matrix: (Units=GPa)
#
#
# Indices 1 2 3 4 5 6 
#
# 1 99.7058 60.5429 76.5659 0.0000 0.0000 0.0000
# 2 60.5429 99.7058 76.5659 0.0000 0.0000 0.0000
# 3 76.5659 76.5659 99.1220 0.0000 0.0000 0.0000
# 4 0.0000 0.0000 0.0000 25.4627 0.0000 0.0000
# 5 0.0000 0.0000 0.0000 0.0000 25.4627 0.0000
# 6 0.0000 0.0000 0.0000 0.0000 0.0000 19.5815
#
#
#
# Elastic Compliance Matrix: (Units=1/GPa)
#
#
# Indices 1 2 3 4 5 6 
#
# 1 0.024682 -0.000852 -0.018407 0.000000 0.000000 0.000000
# 2 -0.000852 0.024682 -0.018407 0.000000 0.000000 0.000000
# 3 -0.018407 -0.018407 0.038526 0.000000 0.000000 0.000000
# 4 0.000000 0.000000 0.000000 0.039273 0.000000 0.000000
# 5 0.000000 0.000000 0.000000 0.000000 0.039273 0.000000
# 6 0.000000 0.000000 0.000000 0.000000 0.000000 0.051069
#
#
# Mechanical properties :
#
#
# Convention : Reuss Voigt Hill
#
# Bulk Modulus (GPa) = 79.63945 80.65365 80.14655
# Shear Modulus (GPa) = 16.83363 19.75866 18.29614
#
# Velocity S-wave (km/s) = 3.36328 3.64378 3.50633
# Velocity P-wave (km/s) = 8.28234 8.47935 8.38142
#
# Compressibility (1/GPa) = 0.01255659
#
# Stress axis : x y z
#
# Youngs Moduli (GPa) = 40.51494 40.51494 25.95662
#
# Poissons Ratio (x) = 0.03452 0.47779
# Poissons Ratio (y) = 0.03452 0.47779
# Poissons Ratio (z) = 0.74577 0.74577
#
# Static dielectric constant tensor:
#      x y z
#    x 1.467350 0.000000 0.000000 
#    y 0.000000 1.467350 0.000000 
#    z 0.000000 0.000000 1.506240 
# 
# From -- ./inp_files/4469.got.cif
#   From: 2010.05.17/outbox.cif.g08.bks.cpg/sg187_3_cif.got.tgz:4469.got - 2010.05.20 12:09:04.
