data_PCOD9585526
_publ_section_title
;
Structure prediction by ZEFSAII (Michael W. Deem and Ramdas Pophale) SiO2 
 PCOD9585526
Probable space group: P -6 M 2
;
_chemical_formula_sum "Si O2"
_cell_formula_units_Z 66
_cell_length_a 22.887532
_cell_length_b 22.887532
_cell_length_c 7.412379
_cell_angle_alpha 90.000000
_cell_angle_beta 90.000000
_cell_angle_gamma 120.000000
_cell_volume 3362.684931
_symmetry_space_group_name_H-M "P -6 M 2"
_symmetry_group_IT_number 187
_symmetry_cell_setting 'hexagonal'
loop_
_space_group_symop_operation_xyz
x,y,z
-x+y,-x,-z
-y,x-y,z
x,y,-z
-x+y,-x,z
-y,x-y,-z
-y,-x,-z
-x+y,y,-z
x,x-y,-z
-x+y,y,z
x,x-y,z
-y,-x,z
loop_
_atom_site_type_symbol
_atom_site_label
_atom_site_fract_x
_atom_site_fract_y
_atom_site_fract_z
Si Si1 0.800562 0.334303 0.780163
Si Si2 0.865852 0.865472 0.720435
Si Si3 0.019653 0.744087 0.708146
Si Si4 0.333841 0.806383 0.000000
Si Si5 0.138056 0.721853 0.709263
Si Si6 0.381613 0.258048 0.781870
O O1 0.812248 0.406124 0.718675
O O2 0.726809 0.273192 0.727259
O O3 0.854572 0.312274 0.724524
O O4 0.800993 0.335096 0.000000
O O5 0.865621 0.863262 0.500000
O O6 0.928330 0.856660 0.779756
O O7 0.793391 0.805554 0.784257
O O8 0.875589 0.937795 0.771754
O O9 0.040887 0.763164 0.500000
O O10 0.075960 0.728888 0.784127
O O11 0.947410 0.676880 0.714552
O O12 0.325558 0.844554 0.172071
O O13 0.269482 0.730519 0.000000
O O14 0.402675 0.805349 0.000000
O O15 0.125482 0.700007 0.500000
O O16 0.204077 0.795924 0.716427
O O17 0.369424 0.184712 0.727061
O O18 0.380116 0.258838 0.000000
#
# Coordination Sequence:
#
# PCOD9585526 Si02
#       6
#    12  12  12   6  12  12
#     4   8  13  23  41  64  87 113 148 194 247 301
#     4   9  16  26  43  69  99 129 166 216 270 318
#     4  10  19  31  50  72  97 136 179 216 259 318
#     4  10  21  38  62  90 117 146 180 220 270 328
#     4   9  19  36  57  83 115 147 182 227 271 316
#     4   9  18  30  44  66  98 130 165 215 267 315
#
# _framework density 19.627175000000001
#
# number of rings (size 3 to 8) (size 9 to 14) (size 15 to 20)
#    0.000    2.909    0.000    2.636    1.273    5.091 
#    0.000    0.909    0.000    2.727    0.000    0.000 
#    0.000    2.909    0.000    0.000    0.000    0.000 
#
# Total GULP energy -368336.713186 kJ/mol
# GULP energy per Si atom -5580.859291 kJ/mol
# Density = 1.958250 g / cm^3
# Si number density = 19.627175 Si / 1000 Ang^3
#
#
#
# Elastic Constant Matrix: (Units=GPa)
#
#
# Indices 1 2 3 4 5 6 
#
# 1 134.9479 73.1165 28.1479 0.0000 0.0004 0.0000
# 2 73.1165 134.9479 28.1479 0.0000 -0.0004 0.0000
# 3 28.1479 28.1479 76.8561 0.0000 0.0000 0.0000
# 4 0.0000 0.0000 0.0000 6.3722 0.0000 -0.0004
# 5 0.0004 -0.0004 0.0000 0.0000 6.3722 0.0000
# 6 0.0000 0.0000 0.0000 -0.0004 0.0000 30.9157
#
#
#
# Elastic Compliance Matrix: (Units=1/GPa)
#
#
# Indices 1 2 3 4 5 6 
#
# 1 0.010754 -0.005419 -0.001954 0.000000 -0.000001 0.000000
# 2 -0.005419 0.010754 -0.001954 0.000000 0.000001 0.000000
# 3 -0.001954 -0.001954 0.014442 0.000000 0.000000 0.000000
# 4 0.000000 0.000000 0.000000 0.156931 0.000000 0.000002
# 5 -0.000001 0.000001 0.000000 0.000000 0.156931 0.000000
# 6 0.000000 0.000000 0.000000 0.000002 0.000000 0.032346
#
#
# Mechanical properties :
#
#
# Convention : Reuss Voigt Hill
#
# Bulk Modulus (GPa) = 57.81411 67.28628 62.55019
# Shear Modulus (GPa) = 12.29780 23.22135 17.75957
#
# Velocity S-wave (km/s) = 2.50585 3.44339 3.01133
# Velocity P-wave (km/s) = 6.15569 7.08278 6.63545
#
# Compressibility (1/GPa) = 0.01729682
#
# Stress axis : x y z
#
# Youngs Moduli (GPa) = 92.98928 92.98928 69.24012
#
# Poissons Ratio (x) = 0.50392 0.13528
# Poissons Ratio (y) = 0.50392 0.13528
# Poissons Ratio (z) = 0.18169 0.18169
#
# Static dielectric constant tensor:
#      x y z
#    x 1.654000 0.000000 0.000000 
#    y 0.000000 1.654000 0.000000 
#    z 0.000000 0.000000 1.775810 
# 
# From -- ./inp_files/757.got.cif
#   From: 2010.05.17/outbox.cif.g08.bks.cpg/sg187_1_cif.got.tgz:757.got - 2010.05.20 12:09:04.
