data_PCOD9585490
_publ_section_title
;
Structure prediction by ZEFSAII (Michael W. Deem and Ramdas Pophale) SiO2 
 PCOD9585490
Probable space group: P -6 M 2
;
_chemical_formula_sum "Si O2"
_cell_formula_units_Z 96
_cell_length_a 17.892791
_cell_length_b 17.892791
_cell_length_c 23.125209
_cell_angle_alpha 90.000000
_cell_angle_beta 90.000000
_cell_angle_gamma 120.000000
_cell_volume 6411.689409
_symmetry_space_group_name_H-M "P -6 M 2"
_symmetry_group_IT_number 187
_symmetry_cell_setting 'hexagonal'
loop_
_space_group_symop_operation_xyz
x,y,z
-x+y,-x,-z
-y,x-y,z
x,y,-z
-x+y,-x,z
-y,x-y,-z
-y,-x,-z
-x+y,y,-z
x,x-y,-z
-x+y,y,z
x,x-y,z
-y,-x,z
loop_
_atom_site_type_symbol
_atom_site_label
_atom_site_fract_x
_atom_site_fract_y
_atom_site_fract_z
Si Si1 0.823346 0.000238 0.933762
Si Si2 0.590729 0.008704 0.240573
Si Si3 0.333637 0.490792 0.678621
Si Si4 0.275569 0.898444 0.566478
Si Si5 0.494917 0.333319 0.334225
Si Si6 0.834935 0.334289 0.932264
Si Si7 0.335899 0.081056 0.150486
Si Si8 0.905645 0.260548 0.567317
O O1 0.817269 0.908635 0.925451
O O2 0.772562 0.021452 0.885370
O O3 0.794272 0.003229 0.000000
O O4 0.922401 0.077600 0.930401
O O5 0.503090 0.006180 0.217184
O O6 0.631359 0.086599 0.286751
O O7 0.668525 0.030705 0.196383
O O8 0.559167 0.919371 0.274996
O O9 0.242312 0.484623 0.691086
O O10 0.410853 0.589148 0.677954
O O11 0.326009 0.448375 0.615441
O O12 0.303354 0.896237 0.500000
O O13 0.176294 0.823707 0.570953
O O14 0.290645 0.993550 0.577392
O O15 0.492504 0.246252 0.314490
O O16 0.591945 0.408056 0.345719
O O17 0.436794 0.310941 0.391403
O O18 0.855353 0.427677 0.911894
O O19 0.733023 0.266978 0.927319
O O20 0.881796 0.295046 0.895788
O O21 0.856823 0.338889 0.000000
O O22 0.331383 0.165692 0.172847
O O23 0.895903 0.276351 0.500000
O O24 0.840871 0.159130 0.578384
#
# Coordination Sequence:
#
# PCOD9585490 Si02
#       8
#    12  12  12  12  12  12  12  12
#     4   9  17  30  49  72  96 120 146 178 221 272
#     4  10  20  33  47  64  88 121 158 191 224 263
#     4  10  20  34  50  69  91 117 147 183 227 276
#     4   9  17  30  49  72  95 118 146 183 230 283
#     4  10  19  31  45  63  88 120 157 194 230 269
#     4   9  16  26  41  62  89 120 151 182 218 261
#     4  10  19  30  45  66  91 119 151 189 225 258
#     4   9  17  29  46  68  93 121 152 188 231 277
#
# _framework density 14.972652
#
# number of rings (size 3 to 8) (size 9 to 14) (size 15 to 20)
#    0.000    2.500    1.250    1.625    0.000    3.500 
#    0.000    1.250    0.000    5.750    0.000    1.750 
#    0.000    0.000    0.000    0.000    0.000    6.625 
#
# Total GULP energy -534517.865361 kJ/mol
# GULP energy per Si atom -5567.894431 kJ/mol
# Density = 1.493857 g / cm^3
# Si number density = 14.972652 Si / 1000 Ang^3
#
#
#
# Elastic Constant Matrix: (Units=GPa)
#
#
# Indices 1 2 3 4 5 6 
#
# 1 93.7705 54.8079 49.3523 0.0000 0.0000 0.0000
# 2 54.8079 93.7705 49.3523 0.0000 0.0000 0.0000
# 3 49.3523 49.3523 61.1412 0.0000 0.0000 0.0000
# 4 0.0000 0.0000 0.0000 24.2383 0.0000 0.0000
# 5 0.0000 0.0000 0.0000 0.0000 24.2383 0.0000
# 6 0.0000 0.0000 0.0000 0.0000 0.0000 19.4813
#
#
#
# Elastic Compliance Matrix: (Units=1/GPa)
#
#
# Indices 1 2 3 4 5 6 
#
# 1 0.020089 -0.005576 -0.011714 0.000000 0.000000 0.000000
# 2 -0.005576 0.020089 -0.011714 0.000000 0.000000 0.000000
# 3 -0.011714 -0.011714 0.035267 0.000000 0.000000 0.000000
# 4 0.000000 0.000000 0.000000 0.041257 0.000000 0.000000
# 5 0.000000 0.000000 0.000000 0.000000 0.041257 0.000000
# 6 0.000000 0.000000 0.000000 0.000000 0.000000 0.051331
#
#
# Mechanical properties :
#
#
# Convention : Reuss Voigt Hill
#
# Bulk Modulus (GPa) = 57.35697 61.74523 59.55110
# Shear Modulus (GPa) = 18.30745 19.93622 19.12183
#
# Velocity S-wave (km/s) = 3.50054 3.65294 3.57755
# Velocity P-wave (km/s) = 7.39793 7.68897 7.54485
#
# Compressibility (1/GPa) = 0.01743467
#
# Stress axis : x y z
#
# Youngs Moduli (GPa) = 49.77812 49.77812 28.35509
#
# Poissons Ratio (x) = 0.27759 0.33216
# Poissons Ratio (y) = 0.27759 0.33216
# Poissons Ratio (z) = 0.58312 0.58312
#
# Static dielectric constant tensor:
#      x y z
#    x 1.486390 0.000000 0.000000 
#    y 0.000000 1.486390 0.000000 
#    z 0.000000 0.000000 1.496640 
# 
# From -- ./inp_files/3757.got.cif
#   From: 2010.05.17/outbox.cif.g08.bks.cpg/sg187_2_cif.got.tgz:3757.got - 2010.05.20 12:09:04.
