data_PCOD9585375
_publ_section_title
;
Structure prediction by ZEFSAII (Michael W. Deem and Ramdas Pophale) SiO2 
 PCOD9585375
Probable space group: P 63 M C
;
_chemical_formula_sum "Si O2"
_cell_formula_units_Z 84
_cell_length_a 21.083108
_cell_length_b 21.083108
_cell_length_c 10.886998
_cell_angle_alpha 90.000000
_cell_angle_beta 90.000000
_cell_angle_gamma 120.000000
_cell_volume 4190.907176
_symmetry_space_group_name_H-M "P 63 M C"
_symmetry_group_IT_number 186
_symmetry_cell_setting 'hexagonal'
loop_
_space_group_symop_operation_xyz
x,y,z
x-y,x,1/2+z
-y,x-y,z
-x,-y,1/2+z
-x+y,-x,z
y,-x+y,1/2+z
-x+y,y,z
x,x-y,z
-y,-x,z
y,x,1/2+z
x-y,-y,1/2+z
-x,-x+y,1/2+z
loop_
_atom_site_type_symbol
_atom_site_label
_atom_site_fract_x
_atom_site_fract_y
_atom_site_fract_z
Si Si1 0.521789 0.188435 0.700010
Si Si2 0.945473 0.543494 0.080152
Si Si3 0.999531 0.150156 0.911482
Si Si4 0.768394 0.808457 0.658818
Si Si5 0.355174 0.028838 0.288222
Si Si6 0.601907 0.874156 0.408838
Si Si7 0.900996 0.379775 0.449063
O O1 0.589305 0.178609 0.741139
O O2 0.546559 0.273280 0.683299
O O3 0.457757 0.156430 0.799952
O O4 0.493924 0.146913 0.570654
O O5 0.916331 0.458166 0.096261
O O6 0.982553 0.588495 0.203789
O O7 0.013204 0.574470 0.985891
O O8 0.886037 0.562485 0.026450
O O9 0.074070 0.148140 0.921749
O O10 0.996298 0.196564 0.026981
O O11 0.998637 0.179464 0.775239
O O12 0.930240 0.069761 0.925183
O O13 0.760590 0.880295 0.655310
O O14 0.692526 0.738537 0.694731
O O15 0.414067 0.097624 0.368494
O O16 0.297322 0.956687 0.363321
O O17 0.628102 0.814051 0.426563
O O18 0.882169 0.441085 0.398040
#
# Coordination Sequence:
#
# PCOD9585375 Si02
#       7
#    12  12  12  12  12  12  12
#     4  10  19  34  55  83 116 150 189 237 295 356
#     4  10  20  36  59  84 112 149 199 247 287 343
#     4  10  21  40  63  88 115 155 202 252 298 351
#     4  10  24  39  57  86 123 156 196 247 304 364
#     4  11  22  37  58  83 111 155 194 239 296 357
#     4  10  22  36  56  86 120 156 193 240 301 359
#     4   9  19  34  54  80 110 143 191 246 287 336
#
# _framework density 20.043392999999998
#
# number of rings (size 3 to 8) (size 9 to 14) (size 15 to 20)
#    0.000    2.000    1.429    1.571    4.000    3.429 
#    0.000    4.286    0.000    0.286    0.000    0.000 
#    0.000    0.000    0.000    0.000    0.000    0.000 
#
# Total GULP energy -468259.793868 kJ/mol
# GULP energy per Si atom -5574.521356 kJ/mol
# Density = 1.999777 g / cm^3
# Si number density = 20.043393 Si / 1000 Ang^3
#
#
#
# Elastic Constant Matrix: (Units=GPa)
#
#
# Indices 1 2 3 4 5 6 
#
# 1 31.1427 48.6471 29.8195 0.0000 0.0000 0.0000
# 2 48.6471 31.1427 29.8195 0.0000 0.0000 0.0000
# 3 29.8195 29.8195 90.5525 0.0000 0.0000 0.0000
# 4 0.0000 0.0000 0.0000 22.3927 0.0000 0.0000
# 5 0.0000 0.0000 0.0000 0.0000 22.3927 0.0000
# 6 0.0000 0.0000 0.0000 0.0000 0.0000 -8.7522
#
#
#
# Elastic Compliance Matrix: (Units=1/GPa)
#
#
# Indices 1 2 3 4 5 6 
#
# 1 -0.020252 0.036877 -0.005475 0.000000 0.000000 0.000000
# 2 0.036877 -0.020252 -0.005475 0.000000 0.000000 0.000000
# 3 -0.005475 -0.005475 0.014649 0.000000 0.000000 0.000000
# 4 0.000000 0.000000 0.000000 0.044658 0.000000 0.000000
# 5 0.000000 0.000000 0.000000 0.000000 0.044658 0.000000
# 6 0.000000 0.000000 0.000000 0.000000 0.000000 -0.114257
#
#
# Mechanical properties :
#
#
# Convention : Reuss Voigt Hill
#
# Bulk Modulus (GPa) = 38.46127 41.04556 39.75342
# Shear Modulus (GPa) = -53.20014 10.17675 -21.51169
#
# Velocity S-wave (km/s) = -5.15753 2.25574 -3.27961
# Velocity P-wave (km/s) = 4.02941 5.22564 2.35278
#
# Compressibility (1/GPa) = 0.02600018
#
# Stress axis : x y z
#
# Youngs Moduli (GPa) = -49.37835 -49.37835 68.26396
#
# Poissons Ratio (x) = 1.82091 0.37372
# Poissons Ratio (y) = 1.82091 0.37372
# Poissons Ratio (z) = -0.27033 -0.27033
#
# Static dielectric constant tensor:
#      x y z
#    x 1.732970 0.000000 0.000000 
#    y 0.000000 1.732970 0.000000 
#    z 0.000000 0.000000 1.775070 
# 
# From -- ./inp_files/1905.got.cif
#   From: 2010.05.17/outbox.cif.g08.bks.cpg/sg186_1_cif.got.tgz:1905.got - 2010.05.20 12:07:08.
