data_PCOD9585062
_publ_section_title
;
Structure prediction by ZEFSAII (Michael W. Deem and Ramdas Pophale) SiO2 
 PCOD9585062
Probable space group: P 6 M M
;
_chemical_formula_sum "Si O2"
_cell_formula_units_Z 60
_cell_length_a 18.127454
_cell_length_b 18.127454
_cell_length_c 12.885028
_cell_angle_alpha 90.000000
_cell_angle_beta 90.000000
_cell_angle_gamma 120.000000
_cell_volume 3666.820256
_symmetry_space_group_name_H-M "P 6 M M"
_symmetry_group_IT_number 183
_symmetry_cell_setting 'hexagonal'
loop_
_space_group_symop_operation_xyz
x,y,z
x-y,x,z
-y,x-y,z
-x,-y,z
-x+y,-x,z
y,-x+y,z
-x+y,y,z
x,x-y,z
-y,-x,z
y,x,z
x-y,-y,z
-x,-x+y,z
loop_
_atom_site_type_symbol
_atom_site_label
_atom_site_fract_x
_atom_site_fract_y
_atom_site_fract_z
Si Si1 0.468515 0.102876 0.608990
Si Si2 0.365800 0.099305 0.411829
Si Si3 0.507187 0.666917 0.219963
Si Si4 0.266587 0.363805 0.037791
Si Si5 0.263457 0.361898 0.795221
O O1 0.568724 0.137447 0.599514
O O2 0.426942 0.124043 0.512305
O O3 0.439875 0.125056 0.716769
O O4 0.422329 0.000000 0.607947
O O5 0.332315 0.166158 0.403996
O O6 0.425143 0.113674 0.312131
O O7 0.295122 0.000000 0.419405
O O8 0.482786 0.741393 0.222870
O O9 0.425018 0.574983 0.231540
O O10 0.556791 0.677778 0.112424
O O11 0.168359 0.336717 0.058474
O O12 0.291573 0.291573 0.057565
O O13 0.283243 0.387117 0.916010
O O14 0.163799 0.327597 0.779790
O O15 0.293404 0.293404 0.773374
#
# Coordination Sequence:
#
# PCOD9585062 Si02
#       5
#    12  12  12  12  12
#     4   9  17  29  46  68  92 118 150 188 227 268
#     4  10  20  33  50  72  97 125 157 193 232 273
#     4  10  20  33  49  70  96 124 153 187 230 278
#     4   9  18  31  47  68  93 122 156 194 235 277
#     4   9  17  30  48  69  93 122 157 195 234 276
#
# _framework density 16.362950999999999
#
# number of rings (size 3 to 8) (size 9 to 14) (size 15 to 20)
#    0.000    2.600    0.000    2.000    0.000    3.200 
#    0.000    2.000    0.000    5.000    0.000    2.800 
#    0.000    9.600    0.000    0.400    0.000    0.800 
#
# Total GULP energy -334263.107997 kJ/mol
# GULP energy per Si atom -5571.051800 kJ/mol
# Density = 1.632571 g / cm^3
# Si number density = 16.362951 Si / 1000 Ang^3
#
#
#
# Elastic Constant Matrix: (Units=GPa)
#
#
# Indices 1 2 3 4 5 6 
#
# 1 88.5507 63.1531 39.6833 0.0000 0.0000 0.0000
# 2 63.1531 88.5507 39.6833 0.0000 0.0000 0.0000
# 3 39.6833 39.6833 65.8276 0.0000 0.0000 0.0000
# 4 0.0000 0.0000 0.0000 18.2408 0.0000 0.0000
# 5 0.0000 0.0000 0.0000 0.0000 18.2408 0.0000
# 6 0.0000 0.0000 0.0000 0.0000 0.0000 12.6988
#
#
#
# Elastic Compliance Matrix: (Units=1/GPa)
#
#
# Indices 1 2 3 4 5 6 
#
# 1 0.024501 -0.014873 -0.005804 0.000000 0.000000 0.000000
# 2 -0.014873 0.024501 -0.005804 0.000000 0.000000 0.000000
# 3 -0.005804 -0.005804 0.022189 0.000000 0.000000 0.000000
# 4 0.000000 0.000000 0.000000 0.054822 0.000000 0.000000
# 5 0.000000 0.000000 0.000000 0.000000 0.054822 0.000000
# 6 0.000000 0.000000 0.000000 0.000000 0.000000 0.078748
#
#
# Mechanical properties :
#
#
# Convention : Reuss Voigt Hill
#
# Bulk Modulus (GPa) = 54.85837 58.66317 56.76077
# Shear Modulus (GPa) = 15.69253 16.53002 16.11128
#
# Velocity S-wave (km/s) = 3.10018 3.18183 3.14127
# Velocity P-wave (km/s) = 6.81275 7.03049 6.92247
#
# Compressibility (1/GPa) = 0.01822876
#
# Stress axis : x y z
#
# Youngs Moduli (GPa) = 40.81445 40.81445 45.06658
#
# Poissons Ratio (x) = 0.60702 0.26158
# Poissons Ratio (y) = 0.60702 0.26158
# Poissons Ratio (z) = 0.23690 0.23690
#
# Static dielectric constant tensor:
#      x y z
#    x 1.541530 0.000000 0.000000 
#    y 0.000000 1.541530 0.000000 
#    z 0.000000 0.000000 1.566470 
# 
# From -- ./inp_files/1591.got.cif
#   From: 2010.05.17/outbox.cif.g08.bks.cpg/sg183_1_cif.got.tgz:1591.got - 2010.05.20 12:02:58.
