data_PCOD9585302
_publ_section_title
;
Structure prediction by ZEFSAII (Michael W. Deem and Ramdas Pophale) SiO2 
 PCOD9585302
Probable space group: P 63 C M
;
_chemical_formula_sum "Si O2"
_cell_formula_units_Z 60
_cell_length_a 18.825920
_cell_length_b 18.825920
_cell_length_c 10.261476
_cell_angle_alpha 90.000000
_cell_angle_beta 90.000000
_cell_angle_gamma 120.000000
_cell_volume 3149.581734
_symmetry_space_group_name_H-M "P 63 C M"
_symmetry_group_IT_number 185
_symmetry_cell_setting 'hexagonal'
loop_
_space_group_symop_operation_xyz
x,y,z
x-y,x,1/2+z
-y,x-y,z
-x,-y,1/2+z
-x+y,-x,z
y,-x+y,1/2+z
-x+y,y,1/2+z
x,x-y,1/2+z
-y,-x,1/2+z
y,x,z
x-y,-y,z
-x,-x+y,z
loop_
_atom_site_type_symbol
_atom_site_label
_atom_site_fract_x
_atom_site_fract_y
_atom_site_fract_z
Si Si1 0.640781 0.819032 0.932110
Si Si2 0.597996 0.450117 0.646703
Si Si3 0.000000 0.708882 0.031032
Si Si4 0.455356 0.000000 0.468332
Si Si5 0.260957 0.475784 0.678825
Si Si6 0.567928 0.567928 0.801699
Si Si7 0.000000 0.715722 0.346197
O O1 0.577527 0.801352 0.811393
O O2 0.704189 0.789423 0.892914
O O3 0.587338 0.768562 0.057598
O O4 0.692643 0.914560 0.971633
O O5 0.556245 0.470825 0.524957
O O6 0.533607 0.358965 0.691826
O O7 0.689169 0.463866 0.640018
O O8 0.616711 0.529865 0.732080
O O9 0.000000 0.626271 0.993001
O O10 0.000000 0.714616 0.188082
O O11 0.483443 0.000000 0.324256
O O12 0.633545 0.000000 0.398002
#
# Coordination Sequence:
#
# PCOD9585302 Si02
#       7
#    12  12   6   6  12   6   6
#     4  12  24  44  72  95 138 178 228 289 346 412
#     4  11  23  38  59  87 131 173 225 280 326 386
#     4  12  22  46  67  98 137 170 220 287 348 407
#     4  11  19  38  61  84 124 174 218 278 328 384
#     4  12  25  40  61  99 131 186 235 284 342 394
#     4  11  19  38  61  84 124 174 218 278 328 384
#     4  12  22  46  67  98 137 170 220 287 348 407
#
# _framework density 19.050149000000001
#
# number of rings (size 3 to 8) (size 9 to 14) (size 15 to 20)
#    0.000    0.400    8.000    2.800    0.000    2.400 
#    0.000    0.000    0.000    0.400    0.000    0.000 
#    0.000    0.000    0.000    0.000    0.000    0.000 
#
# Total GULP energy -334009.277826 kJ/mol
# GULP energy per Si atom -5566.821297 kJ/mol
# Density = 1.900679 g / cm^3
# Si number density = 19.050149 Si / 1000 Ang^3
#
#
#
# Elastic Constant Matrix: (Units=GPa)
#
#
# Indices 1 2 3 4 5 6 
#
# 1 120.8882 69.9136 27.9174 0.0000 0.0000 0.0000
# 2 69.9136 120.8882 27.9174 0.0000 0.0000 0.0000
# 3 27.9174 27.9174 73.3654 0.0000 0.0000 0.0000
# 4 0.0000 0.0000 0.0000 17.1862 0.0000 0.0000
# 5 0.0000 0.0000 0.0000 0.0000 17.1862 0.0000
# 6 0.0000 0.0000 0.0000 0.0000 0.0000 25.4873
#
#
#
# Elastic Compliance Matrix: (Units=1/GPa)
#
#
# Indices 1 2 3 4 5 6 
#
# 1 0.012758 -0.006860 -0.002244 0.000000 0.000000 0.000000
# 2 -0.006860 0.012758 -0.002244 0.000000 0.000000 0.000000
# 3 -0.002244 -0.002244 0.015338 0.000000 0.000000 0.000000
# 4 0.000000 0.000000 0.000000 0.058186 0.000000 0.000000
# 5 0.000000 0.000000 0.000000 0.000000 0.058186 0.000000
# 6 0.000000 0.000000 0.000000 0.000000 0.000000 0.039235
#
#
# Mechanical properties :
#
#
# Convention : Reuss Voigt Hill
#
# Bulk Modulus (GPa) = 55.07536 62.95985 59.01761
# Shear Modulus (GPa) = 22.20147 24.59819 23.39983
#
# Velocity S-wave (km/s) = 3.41753 3.59727 3.50855
# Velocity P-wave (km/s) = 6.67429 7.09754 6.88917
#
# Compressibility (1/GPa) = 0.01815694
#
# Stress axis : x y z
#
# Youngs Moduli (GPa) = 78.38411 78.38411 65.19583
#
# Poissons Ratio (x) = 0.53771 0.14632
# Poissons Ratio (y) = 0.53771 0.14632
# Poissons Ratio (z) = 0.17591 0.17591
#
# Static dielectric constant tensor:
#      x y z
#    x 1.759550 0.000000 0.000000 
#    y 0.000000 1.759550 0.000000 
#    z 0.000000 0.000000 1.790760 
# 
# From -- ./inp_files/982.got.cif
#   From: 2010.05.17/outbox.cif.g08.bks.cpg/sg185_cif.got.tgz:982.got - 2010.05.20 12:05:34.
