data_PCOD9585418
_publ_section_title
;
Structure prediction by ZEFSAII (Michael W. Deem and Ramdas Pophale) SiO2 
 PCOD9585418
Probable space group: P -6 M 2
;
_chemical_formula_sum "Si O2"
_cell_formula_units_Z 90
_cell_length_a 28.303926
_cell_length_b 28.303926
_cell_length_c 7.574522
_cell_angle_alpha 90.000000
_cell_angle_beta 90.000000
_cell_angle_gamma 120.000000
_cell_volume 5255.078686
_symmetry_space_group_name_H-M "P -6 M 2"
_symmetry_group_IT_number 187
_symmetry_cell_setting 'hexagonal'
loop_
_space_group_symop_operation_xyz
x,y,z
-x+y,-x,-z
-y,x-y,z
x,y,-z
-x+y,-x,z
-y,x-y,-z
-y,-x,-z
-x+y,y,-z
x,x-y,-z
-x+y,y,z
x,x-y,z
-y,-x,z
loop_
_atom_site_type_symbol
_atom_site_label
_atom_site_fract_x
_atom_site_fract_y
_atom_site_fract_z
Si Si1 0.877664 0.226202 0.715050
Si Si2 0.662119 0.633400 0.705834
Si Si3 0.650966 0.736062 0.796826
Si Si4 0.528789 0.859782 0.214441
Si Si5 0.764693 0.934234 0.211525
Si Si6 0.837695 0.059632 0.711444
Si Si7 0.435628 0.976767 0.787691
Si Si8 0.332701 0.553526 0.500000
O O1 0.875130 0.226000 0.500000
O O2 0.815984 0.184017 0.775650
O O3 0.913436 0.289036 0.771643
O O4 0.914155 0.199097 0.768590
O O5 0.672917 0.648635 0.500000
O O6 0.660487 0.684217 0.794062
O O7 0.601599 0.582784 0.723470
O O8 0.590082 0.715074 0.727427
O O9 0.704944 0.786121 0.716178
O O10 0.648056 0.750081 0.000000
O O11 0.527265 0.915260 0.254434
O O12 0.482819 0.811303 0.328555
O O13 0.523273 0.851291 0.000000
O O14 0.780385 0.890193 0.276146
O O15 0.808948 0.996617 0.244044
O O16 0.759154 0.929535 0.000000
O O17 0.838663 0.062483 0.500000
O O18 0.899058 0.100943 0.775688
O O19 0.493209 0.986417 0.721911
O O20 0.437323 0.979919 0.000000
O O21 0.390314 0.609687 0.500000
O O22 0.282080 0.564159 0.500000
#
# Coordination Sequence:
#
# PCOD9585418 Si02
#       8
#    12  12  12  12  12  12  12   6
#     4   8  14  25  41  62  90 123 155 186 225 270
#     4  10  17  25  44  69  95 124 158 197 230 268
#     4   9  18  32  49  70  99 129 154 184 233 294
#     4   9  20  39  61  80 103 135 166 199 243 304
#     4  10  20  32  47  69  98 126 151 190 244 293
#     4   9  17  31  49  66  88 120 156 191 225 271
#     4   9  18  32  49  70  97 129 160 192 239 292
#     4  12  27  44  62  82 102 126 163 212 260 302
#
# _framework density 17.126290000000001
#
# number of rings (size 3 to 8) (size 9 to 14) (size 15 to 20)
#    0.000    2.667    1.333    2.467    3.733    2.400 
#    0.000    1.333    0.000    2.667    0.000    0.000 
#    0.000    0.000    0.000    0.400    0.000    6.133 
#
# Total GULP energy -501528.636975 kJ/mol
# GULP energy per Si atom -5572.540411 kJ/mol
# Density = 1.708731 g / cm^3
# Si number density = 17.126290 Si / 1000 Ang^3
#
#
#
# Elastic Constant Matrix: (Units=GPa)
#
#
# Indices 1 2 3 4 5 6 
#
# 1 104.9663 68.2038 17.6435 0.0000 0.0005 0.0000
# 2 68.2038 104.9663 17.6435 0.0000 -0.0005 0.0000
# 3 17.6435 17.6435 48.1384 0.0000 0.0000 0.0000
# 4 0.0000 0.0000 0.0000 13.1095 0.0000 -0.0005
# 5 0.0005 -0.0005 0.0000 0.0000 13.1095 0.0000
# 6 0.0000 0.0000 0.0000 -0.0005 0.0000 18.3812
#
#
#
# Elastic Compliance Matrix: (Units=1/GPa)
#
#
# Indices 1 2 3 4 5 6 
#
# 1 0.016721 -0.010480 -0.002287 0.000000 -0.000001 0.000000
# 2 -0.010480 0.016721 -0.002287 0.000000 0.000001 0.000000
# 3 -0.002287 -0.002287 0.022450 0.000000 0.000000 0.000000
# 4 0.000000 0.000000 0.000000 0.076280 0.000000 0.000002
# 5 -0.000001 0.000001 0.000000 0.000000 0.076280 0.000000
# 6 0.000000 0.000000 0.000000 0.000002 0.000000 0.054403
#
#
# Mechanical properties :
#
#
# Convention : Reuss Voigt Hill
#
# Bulk Modulus (GPa) = 38.78629 51.67250 45.22940
# Shear Modulus (GPa) = 16.58038 19.22539 17.90288
#
# Velocity S-wave (km/s) = 3.11484 3.35411 3.23669
# Velocity P-wave (km/s) = 5.96932 6.72584 6.35884
#
# Compressibility (1/GPa) = 0.02578230
#
# Stress axis : x y z
#
# Youngs Moduli (GPa) = 59.80423 59.80423 44.54314
#
# Poissons Ratio (x) = 0.62678 0.10189
# Poissons Ratio (y) = 0.62678 0.10189
# Poissons Ratio (z) = 0.13679 0.13679
#
# Static dielectric constant tensor:
#      x y z
#    x 1.591200 0.000000 0.000000 
#    y 0.000000 1.591200 0.000000 
#    z 0.000000 0.000000 1.655360 
# 
# From -- ./inp_files/1295.got.cif
#   From: 2010.05.17/outbox.cif.g08.bks.cpg/sg187_1_cif.got.tgz:1295.got - 2010.05.20 12:09:04.
