data_PCOD9585340
_publ_section_title
;
Structure prediction by ZEFSAII (Michael W. Deem and Ramdas Pophale) SiO2 
 PCOD9585340
Probable space group: P 63 M C
;
_chemical_formula_sum "Si O2"
_cell_formula_units_Z 96
_cell_length_a 17.449502
_cell_length_b 17.449502
_cell_length_c 23.096316
_cell_angle_alpha 90.000000
_cell_angle_beta 90.000000
_cell_angle_gamma 120.000000
_cell_volume 6090.310272
_symmetry_space_group_name_H-M "P 63 M C"
_symmetry_group_IT_number 186
_symmetry_cell_setting 'hexagonal'
loop_
_space_group_symop_operation_xyz
x,y,z
x-y,x,1/2+z
-y,x-y,z
-x,-y,1/2+z
-x+y,-x,z
y,-x+y,1/2+z
-x+y,y,z
x,x-y,z
-y,-x,z
y,x,1/2+z
x-y,-y,1/2+z
-x,-x+y,1/2+z
loop_
_atom_site_type_symbol
_atom_site_label
_atom_site_fract_x
_atom_site_fract_y
_atom_site_fract_z
Si Si1 0.093538 0.730989 0.290320
Si Si2 0.919246 0.661604 0.358072
Si Si3 0.844034 0.512693 0.902500
Si Si4 0.964969 0.572773 0.452812
Si Si5 0.153376 0.666405 0.181661
Si Si6 0.721840 0.626743 0.569276
Si Si7 0.832494 0.831384 0.937845
Si Si8 0.822874 0.999019 0.577180
O O1 0.163015 0.836986 0.289541
O O2 0.128836 0.692150 0.341023
O O3 0.104029 0.692004 0.230113
O O4 0.992183 0.697335 0.307260
O O5 0.822742 0.645484 0.342006
O O6 0.918464 0.582634 0.394732
O O7 0.960583 0.740673 0.405345
O O8 0.756269 0.512538 0.923087
O O9 0.827682 0.413841 0.896489
O O10 0.929728 0.566762 0.942869
O O11 0.948264 0.474132 0.458628
O O12 0.934413 0.602058 0.509941
O O13 0.144560 0.572280 0.192634
O O14 0.255759 0.744241 0.184157
O O15 0.116861 0.671640 0.118822
O O16 0.815634 0.631268 0.558040
O O17 0.749087 0.724415 0.593001
O O18 0.900671 0.801342 0.917730
O O19 0.869745 0.934873 0.926294
O O20 0.822611 0.820377 0.006835
O O21 0.919531 0.080470 0.594087
O O22 0.810742 0.905371 0.596644
#
# Coordination Sequence:
#
# PCOD9585340 Si02
#       8
#    12  12  12  12  12  12  12  12
#     4   9  18  31  47  71  97 122 152 188 233 280
#     4  10  18  30  48  68  92 125 157 186 225 273
#     4   9  17  28  45  68  96 125 154 187 229 282
#     4  10  19  30  44  65  92 122 154 190 234 281
#     4  10  20  34  53  73  94 119 152 194 239 286
#     4  10  19  32  48  68  93 123 156 192 236 280
#     4   9  15  23  39  65  96 126 154 183 215 254
#     4   9  16  26  42  66  96 128 159 188 219 258
#
# _framework density 15.762744
#
# number of rings (size 3 to 8) (size 9 to 14) (size 15 to 20)
#    0.000    2.500    1.250    2.000    0.000    2.500 
#    0.000    1.875    0.000    3.000    0.000    0.000 
#    0.000    0.000    0.000    0.500    0.000    0.000 
#
# Total GULP energy -534857.656562 kJ/mol
# GULP energy per Si atom -5571.433923 kJ/mol
# Density = 1.572687 g / cm^3
# Si number density = 15.762744 Si / 1000 Ang^3
#
#
#
# Elastic Constant Matrix: (Units=GPa)
#
#
# Indices 1 2 3 4 5 6 
#
# 1 80.3242 38.4496 20.0144 0.0000 0.0000 0.0000
# 2 38.4496 80.3242 20.0144 0.0000 0.0000 0.0000
# 3 20.0144 20.0144 45.2478 0.0000 0.0000 0.0000
# 4 0.0000 0.0000 0.0000 15.3704 0.0000 0.0000
# 5 0.0000 0.0000 0.0000 0.0000 15.3704 0.0000
# 6 0.0000 0.0000 0.0000 0.0000 0.0000 20.9373
#
#
#
# Elastic Compliance Matrix: (Units=1/GPa)
#
#
# Indices 1 2 3 4 5 6 
#
# 1 0.016888 -0.006993 -0.004377 0.000000 0.000000 0.000000
# 2 -0.006993 0.016888 -0.004377 0.000000 0.000000 0.000000
# 3 -0.004377 -0.004377 0.025972 0.000000 0.000000 0.000000
# 4 0.000000 0.000000 0.000000 0.065060 0.000000 0.000000
# 5 0.000000 0.000000 0.000000 0.000000 0.065060 0.000000
# 6 0.000000 0.000000 0.000000 0.000000 0.000000 0.047762
#
#
# Mechanical properties :
#
#
# Convention : Reuss Voigt Hill
#
# Bulk Modulus (GPa) = 35.39228 40.31701 37.85465
# Shear Modulus (GPa) = 17.95073 18.83015 18.39044
#
# Velocity S-wave (km/s) = 3.37828 3.46005 3.41941
# Velocity P-wave (km/s) = 6.14157 6.44946 6.29740
#
# Compressibility (1/GPa) = 0.02825475
#
# Stress axis : x y z
#
# Youngs Moduli (GPa) = 59.21514 59.21514 38.50259
#
# Poissons Ratio (x) = 0.41411 0.16851
# Poissons Ratio (y) = 0.41411 0.16851
# Poissons Ratio (z) = 0.25916 0.25916
#
# Static dielectric constant tensor:
#      x y z
#    x 1.542610 0.000000 0.000000 
#    y 0.000000 1.542610 0.000000 
#    z 0.000000 0.000000 1.507840 
# 
# From -- ./inp_files/3532.got.cif
#   From: 2010.05.17/outbox.cif.g08.bks.cpg/sg186_2_cif.got.tgz:3532.got - 2010.05.20 12:07:08.
