data_PCOD9585580
_publ_section_title
;
Structure prediction by ZEFSAII (Michael W. Deem and Ramdas Pophale) SiO2 
 PCOD9585580
Probable space group: P -6 M 2
;
_chemical_formula_sum "Si O2"
_cell_formula_units_Z 72
_cell_length_a 13.213595
_cell_length_b 13.213595
_cell_length_c 30.589171
_cell_angle_alpha 90.000000
_cell_angle_beta 90.000000
_cell_angle_gamma 120.000000
_cell_volume 4625.304423
_symmetry_space_group_name_H-M "P -6 M 2"
_symmetry_group_IT_number 187
_symmetry_cell_setting 'hexagonal'
loop_
_space_group_symop_operation_xyz
x,y,z
-x+y,-x,-z
-y,x-y,z
x,y,-z
-x+y,-x,z
-y,x-y,-z
-y,-x,-z
-x+y,y,-z
x,x-y,-z
-x+y,y,z
x,x-y,z
-y,-x,z
loop_
_atom_site_type_symbol
_atom_site_label
_atom_site_fract_x
_atom_site_fract_y
_atom_site_fract_z
Si Si1 0.426044 0.092634 0.250194
Si Si2 0.237519 0.238000 0.426473
Si Si3 0.095337 0.429021 0.073880
Si Si4 0.907480 0.333523 0.500000
Si Si5 0.999957 0.759336 0.000000
Si Si6 0.237072 0.237530 0.324092
Si Si7 0.570810 0.903795 0.824028
O O1 0.552336 0.104672 0.255459
O O2 0.436610 0.218305 0.244894
O O3 0.344461 0.031176 0.292175
O O4 0.364951 0.010430 0.208332
O O5 0.209085 0.104543 0.432531
O O6 0.345498 0.315562 0.457867
O O7 0.266050 0.267315 0.375270
O O8 0.123527 0.247054 0.437099
O O9 0.229431 0.458861 0.068228
O O10 0.085208 0.542604 0.063545
O O11 0.065443 0.398638 0.124943
O O12 0.018813 0.321629 0.042092
O O13 0.774226 0.225775 0.500000
O O14 0.911416 0.455708 0.500000
O O15 0.107064 0.892936 0.000000
O O16 0.877105 0.754209 0.000000
O O17 0.124327 0.248654 0.313487
O O18 0.206712 0.103356 0.318909
O O19 0.436112 0.872223 0.819288
O O20 0.582860 0.791430 0.813722
#
# Coordination Sequence:
#
# PCOD9585580 Si02
#       7
#    12  12  12   6   6  12  12
#     4  10  20  32  46  65  92 127 163 194 222 260
#     4   9  17  30  50  74  95 115 143 185 236 282
#     4   9  17  30  50  74  95 115 144 188 239 282
#     4  10  20  32  46  66  94 128 162 192 222 260
#     4  10  20  32  46  64  90 124 156 184 216 262
#     4   9  17  30  49  72  95 117 144 184 235 284
#     4   9  17  30  49  72  95 118 147 187 235 281
#
# _framework density 15.566544
#
# number of rings (size 3 to 8) (size 9 to 14) (size 15 to 20)
#    0.000    2.667    0.000    2.000    0.000    4.000 
#    0.000    1.667    0.000    5.333    0.000    0.000 
#    0.000    0.000    0.000    0.000    0.000    0.000 
#
# Total GULP energy -401384.565714 kJ/mol
# GULP energy per Si atom -5574.785635 kJ/mol
# Density = 1.553111 g / cm^3
# Si number density = 15.566544 Si / 1000 Ang^3
#
#
#
# Elastic Constant Matrix: (Units=GPa)
#
#
# Indices 1 2 3 4 5 6 
#
# 1 123.2216 82.4700 82.0615 0.0000 0.0001 0.0000
# 2 82.4700 123.2216 82.0615 0.0000 -0.0001 0.0000
# 3 82.0615 82.0615 94.4708 0.0000 0.0000 0.0000
# 4 0.0000 0.0000 0.0000 19.7400 0.0000 -0.0001
# 5 0.0001 -0.0001 0.0000 0.0000 19.7400 0.0000
# 6 0.0000 0.0000 0.0000 -0.0001 0.0000 20.3758
#
#
#
# Elastic Compliance Matrix: (Units=1/GPa)
#
#
# Indices 1 2 3 4 5 6 
#
# 1 0.020190 -0.004349 -0.013760 0.000000 0.000000 0.000000
# 2 -0.004349 0.020190 -0.013760 0.000000 0.000000 0.000000
# 3 -0.013760 -0.013760 0.034491 0.000000 0.000000 0.000000
# 4 0.000000 0.000000 0.000000 0.050658 0.000000 0.000000
# 5 0.000000 0.000000 0.000000 0.000000 0.050658 0.000000
# 6 0.000000 0.000000 0.000000 0.000000 0.000000 0.049078
#
#
# Mechanical properties :
#
#
# Convention : Reuss Voigt Hill
#
# Bulk Modulus (GPa) = 89.83161 92.67776 91.25469
# Shear Modulus (GPa) = 17.08148 18.25926 17.67037
#
# Velocity S-wave (km/s) = 3.31618 3.42860 3.37285
# Velocity P-wave (km/s) = 8.51446 8.67983 8.59754
#
# Compressibility (1/GPa) = 0.01113194
#
# Stress axis : x y z
#
# Youngs Moduli (GPa) = 49.52960 49.52960 28.99330
#
# Poissons Ratio (x) = 0.21540 0.39895
# Poissons Ratio (y) = 0.21540 0.39895
# Poissons Ratio (z) = 0.68154 0.68154
#
# Static dielectric constant tensor:
#      x y z
#    x 1.490460 0.000000 0.000000 
#    y 0.000000 1.490460 0.000000 
#    z 0.000000 0.000000 1.524770 
# 
# From -- ./inp_files/4598.got.cif
#   From: 2010.05.17/outbox.cif.g08.bks.cpg/sg187_3_cif.got.tgz:4598.got - 2010.05.20 12:09:04.
