data_PCOD9585376
_publ_section_title
;
Structure prediction by ZEFSAII (Michael W. Deem and Ramdas Pophale) SiO2 
 PCOD9585376
Probable space group: P 63 M C
;
_chemical_formula_sum "Si O2"
_cell_formula_units_Z 60
_cell_length_a 18.117627
_cell_length_b 18.117627
_cell_length_c 9.969472
_cell_angle_alpha 90.000000
_cell_angle_beta 90.000000
_cell_angle_gamma 120.000000
_cell_volume 2834.036363
_symmetry_space_group_name_H-M "P 63 M C"
_symmetry_group_IT_number 186
_symmetry_cell_setting 'hexagonal'
loop_
_space_group_symop_operation_xyz
x,y,z
x-y,x,1/2+z
-y,x-y,z
-x,-y,1/2+z
-x+y,-x,z
y,-x+y,1/2+z
-x+y,y,z
x,x-y,z
-y,-x,z
y,x,1/2+z
x-y,-y,1/2+z
-x,-x+y,1/2+z
loop_
_atom_site_type_symbol
_atom_site_label
_atom_site_fract_x
_atom_site_fract_y
_atom_site_fract_z
Si Si1 0.570371 0.974492 0.842320
Si Si2 0.333849 0.501301 0.309497
Si Si3 0.826736 0.828742 0.243814
Si Si4 0.144592 0.447785 0.607187
Si Si5 0.002542 0.724781 0.002521
O O1 0.489103 0.978206 0.900325
O O2 0.540448 0.910920 0.718170
O O3 0.635156 0.068742 0.782682
O O4 0.624807 0.953665 0.948040
O O5 0.239822 0.479644 0.266931
O O6 0.406805 0.593196 0.258990
O O7 0.334956 0.502863 0.472530
O O8 0.855153 0.927577 0.257422
O O9 0.779875 0.778799 0.378387
O O10 0.755199 0.787654 0.128061
O O11 0.909127 0.818253 0.215739
O O12 0.230129 0.460257 0.671658
O O13 0.089026 0.351743 0.550499
#
# Coordination Sequence:
#
# PCOD9585376 Si02
#       5
#    12  12  12  12  12
#     4  10  21  38  62  92 125 163 207 261 325 390
#     4   9  18  32  54  84 118 155 196 246 302 363
#     4  12  25  43  65  94 133 180 230 279 330 388
#     4  10  19  35  58  87 123 160 205 259 315 380
#     4  11  23  40  62  93 126 170 216 273 326 387
#
# _framework density 21.171216999999999
#
# number of rings (size 3 to 8) (size 9 to 14) (size 15 to 20)
#    0.000    1.600    2.000    3.400    0.000    3.200 
#    0.000    2.000    0.000    0.400    0.000    0.000 
#    0.000    0.000    0.000    0.000    0.000    0.000 
#
# Total GULP energy -334747.122297 kJ/mol
# GULP energy per Si atom -5579.118705 kJ/mol
# Density = 2.112303 g / cm^3
# Si number density = 21.171217 Si / 1000 Ang^3
#
#
#
# Elastic Constant Matrix: (Units=GPa)
#
#
# Indices 1 2 3 4 5 6 
#
# 1 67.2960 52.2518 9.4203 0.0000 0.0000 0.0000
# 2 52.2518 67.2960 9.4203 0.0000 0.0000 0.0000
# 3 9.4203 9.4203 70.2728 0.0000 0.0000 0.0000
# 4 0.0000 0.0000 0.0000 18.4439 0.0000 0.0000
# 5 0.0000 0.0000 0.0000 0.0000 18.4439 0.0000
# 6 0.0000 0.0000 0.0000 0.0000 0.0000 7.5221
#
#
#
# Elastic Compliance Matrix: (Units=1/GPa)
#
#
# Indices 1 2 3 4 5 6 
#
# 1 0.037508 -0.028963 -0.001146 0.000000 0.000000 0.000000
# 2 -0.028963 0.037508 -0.001146 0.000000 0.000000 0.000000
# 3 -0.001146 -0.001146 0.014537 0.000000 0.000000 0.000000
# 4 0.000000 0.000000 0.000000 0.054218 0.000000 0.000000
# 5 0.000000 0.000000 0.000000 0.000000 0.054218 0.000000
# 6 0.000000 0.000000 0.000000 0.000000 0.000000 0.132942
#
#
# Mechanical properties :
#
#
# Convention : Reuss Voigt Hill
#
# Bulk Modulus (GPa) = 36.97403 38.56107 37.76755
# Shear Modulus (GPa) = 12.42372 17.80013 15.11193
#
# Velocity S-wave (km/s) = 2.42507 2.90275 2.67459
# Velocity P-wave (km/s) = 5.03423 5.43029 5.23601
#
# Compressibility (1/GPa) = 0.02704601
#
# Stress axis : x y z
#
# Youngs Moduli (GPa) = 26.66082 26.66082 68.78818
#
# Poissons Ratio (x) = 0.77217 0.07880
# Poissons Ratio (y) = 0.77217 0.07880
# Poissons Ratio (z) = 0.03054 0.03054
#
# Static dielectric constant tensor:
#      x y z
#    x 1.774950 0.000000 0.000000 
#    y 0.000000 1.774950 0.000000 
#    z 0.000000 0.000000 1.754170 
# 
# From -- ./inp_files/1752.got.cif
#   From: 2010.05.17/outbox.cif.g08.bks.cpg/sg186_1_cif.got.tgz:1752.got - 2010.05.20 12:07:08.
