data_PCOD9585579
_publ_section_title
;
Structure prediction by ZEFSAII (Michael W. Deem and Ramdas Pophale) SiO2 
 PCOD9585579
Probable space group: P -6 M 2
;
_chemical_formula_sum "Si O2"
_cell_formula_units_Z 60
_cell_length_a 13.312166
_cell_length_b 13.312166
_cell_length_c 25.678867
_cell_angle_alpha 90.000000
_cell_angle_beta 90.000000
_cell_angle_gamma 120.000000
_cell_volume 3940.977349
_symmetry_space_group_name_H-M "P -6 M 2"
_symmetry_group_IT_number 187
_symmetry_cell_setting 'hexagonal'
loop_
_space_group_symop_operation_xyz
x,y,z
-x+y,-x,-z
-y,x-y,z
x,y,-z
-x+y,-x,z
-y,x-y,-z
-y,-x,-z
-x+y,y,-z
x,x-y,-z
-x+y,y,z
x,x-y,z
-y,-x,z
loop_
_atom_site_type_symbol
_atom_site_label
_atom_site_fract_x
_atom_site_fract_y
_atom_site_fract_z
Si Si1 0.573034 0.666438 0.000000
Si Si2 0.236376 0.999332 0.708558
Si Si3 0.237490 0.237519 0.412485
Si Si4 0.903939 0.332671 0.912357
Si Si5 0.906545 0.333199 0.500000
Si Si6 0.430154 0.333653 0.208346
O O1 0.635281 0.646331 0.950288
O O2 0.439890 0.560111 0.000000
O O3 0.578653 0.789327 0.000000
O O4 0.214203 0.107102 0.714759
O O5 0.269880 0.000399 0.648090
O O6 0.333816 0.018981 0.749871
O O7 0.119449 0.880552 0.718118
O O8 0.208850 0.104425 0.419071
O O9 0.344564 0.313671 0.450272
O O10 0.122867 0.245733 0.424044
O O11 0.876054 0.438027 0.917300
O O12 0.789148 0.210853 0.925116
O O13 0.935258 0.329239 0.851936
O O14 0.773561 0.226440 0.500000
O O15 0.911318 0.455659 0.500000
O O16 0.454506 0.227253 0.214863
O O17 0.546327 0.453674 0.216863
#
# Coordination Sequence:
#
# PCOD9585579 Si02
#       6
#     6  12  12  12   6  12
#     4  10  20  32  46  64  88 118 150 184 222 266
#     4   9  17  29  46  68  93 120 150 185 224 265
#     4   9  17  30  49  71  91 113 146 190 233 265
#     4   9  17  30  49  71  92 115 147 189 231 266
#     4  10  20  32  46  66  94 124 150 178 218 272
#     4   9  17  29  46  69  95 121 149 183 224 267
#
# _framework density 15.224651
#
# number of rings (size 3 to 8) (size 9 to 14) (size 15 to 20)
#    0.000    2.800    0.000    1.600    0.000    4.800 
#    0.000    2.000    0.000    6.000    0.000    0.000 
#    0.000    0.000    0.000    0.000    0.000    0.000 
#
# Total GULP energy -334329.580260 kJ/mol
# GULP energy per Si atom -5572.159671 kJ/mol
# Density = 1.519000 g / cm^3
# Si number density = 15.224651 Si / 1000 Ang^3
#
#
#
# Elastic Constant Matrix: (Units=GPa)
#
#
# Indices 1 2 3 4 5 6 
#
# 1 102.3276 65.4243 81.8527 0.0000 -0.0007 0.0000
# 2 65.4243 102.3276 81.8527 0.0000 0.0007 0.0000
# 3 81.8527 81.8527 111.5720 0.0000 0.0000 0.0000
# 4 0.0000 0.0000 0.0000 21.2135 0.0000 0.0007
# 5 -0.0007 0.0007 0.0000 0.0000 21.2135 0.0000
# 6 0.0000 0.0000 0.0000 0.0007 0.0000 18.4516
#
#
#
# Elastic Compliance Matrix: (Units=1/GPa)
#
#
# Indices 1 2 3 4 5 6 
#
# 1 0.024042 -0.003056 -0.015395 0.000000 0.000001 0.000000
# 2 -0.003056 0.024042 -0.015395 0.000000 -0.000001 0.000000
# 3 -0.015395 -0.015395 0.031552 0.000000 0.000000 0.000000
# 4 0.000000 0.000000 0.000000 0.047140 0.000000 -0.000002
# 5 0.000001 -0.000001 0.000000 0.000000 0.047140 0.000000
# 6 0.000000 0.000000 0.000000 -0.000002 0.000000 0.054196
#
#
# Mechanical properties :
#
#
# Convention : Reuss Voigt Hill
#
# Bulk Modulus (GPa) = 83.74701 86.05406 84.90054
# Shear Modulus (GPa) = 16.67865 17.98224 17.33044
#
# Velocity S-wave (km/s) = 3.31343 3.44048 3.37755
# Velocity P-wave (km/s) = 8.35256 8.51047 8.43189
#
# Compressibility (1/GPa) = 0.01194072
#
# Stress axis : x y z
#
# Youngs Moduli (GPa) = 41.59471 41.59471 31.69384
#
# Poissons Ratio (x) = 0.12713 0.48794
# Poissons Ratio (y) = 0.12713 0.48794
# Poissons Ratio (z) = 0.64037 0.64037
#
# Static dielectric constant tensor:
#      x y z
#    x 1.476530 0.000000 0.000000 
#    y 0.000000 1.476530 0.000000 
#    z 0.000000 0.000000 1.525220 
# 
# From -- ./inp_files/4192.got.cif
#   From: 2010.05.17/outbox.cif.g08.bks.cpg/sg187_3_cif.got.tgz:4192.got - 2010.05.20 12:09:04.
