data_PCOD9585979
_publ_section_title
;
Structure prediction by ZEFSAII (Michael W. Deem and Ramdas Pophale) SiO2 
 PCOD9585979
Probable space group: P -6 C 2
;
_chemical_formula_sum "Si O2"
_cell_formula_units_Z 64
_cell_length_a 14.896114
_cell_length_b 14.896114
_cell_length_c 15.645859
_cell_angle_alpha 90.000000
_cell_angle_beta 90.000000
_cell_angle_gamma 120.000000
_cell_volume 3006.602529
_symmetry_space_group_name_H-M "P -6 C 2"
_symmetry_group_IT_number 188
_symmetry_cell_setting 'hexagonal'
loop_
_space_group_symop_operation_xyz
x,y,z
-x+y,-x,1/2-z
-y,x-y,z
x,y,1/2-z
-x+y,-x,z
-y,x-y,1/2-z
-y,-x,-z
-x+y,y,-z
x,x-y,-z
-x+y,y,1/2+z
x,x-y,1/2+z
-y,-x,1/2+z
loop_
_atom_site_type_symbol
_atom_site_label
_atom_site_fract_x
_atom_site_fract_y
_atom_site_fract_z
Si Si1 0.343987 0.313652 0.982588
Si Si2 0.427317 0.166778 0.157643
Si Si3 0.307155 0.851413 0.349634
Si Si4 0.897632 0.496149 0.120427
Si Si5 0.651611 0.711248 0.842875
Si Si6 0.333335 0.666668 0.853722
O O1 0.344566 0.230477 0.918195
O O2 0.330950 0.391636 0.919123
O O3 0.458716 0.370259 0.024446
O O4 0.273381 0.288004 0.067260
O O5 0.377639 0.130297 0.250000
O O6 0.481929 0.290151 0.154157
O O7 0.513793 0.132657 0.145149
O O8 0.336451 0.885758 0.250000
O O9 0.182746 0.774402 0.348084
O O10 0.352399 0.778497 0.379235
O O11 0.008156 0.585822 0.157089
O O12 0.706879 0.736553 0.750000
O O13 0.333334 0.666668 0.750000
#
# Coordination Sequence:
#
# PCOD9585979 Si02
#       6
#    12  12  12  12  12   4
#     4  10  23  36  55  83 115 149 196 248 300 345
#     4  12  22  38  58  82 115 155 205 254 300 355
#     4  10  20  38  60  87 118 157 201 248 295 354
#     4  10  24  38  57  80 117 157 205 251 302 352
#     4   9  20  38  59  78 112 155 199 244 297 351
#     4   9  21  33  55  83 116 155 196 237 295 356
#
# _framework density 21.286484999999999
#
# number of rings (size 3 to 8) (size 9 to 14) (size 15 to 20)
#    1.125    0.750    0.000    4.312    2.625    0.000 
#    0.000    4.688    0.000    0.000    0.000    0.000 
#    1.875    3.000    2.250    1.125    0.000    0.000 
#
# Total GULP energy -356338.470462 kJ/mol
# GULP energy per Si atom -5567.788601 kJ/mol
# Density = 2.123804 g / cm^3
# Si number density = 21.286485 Si / 1000 Ang^3
#
#
#
# Elastic Constant Matrix: (Units=GPa)
#
#
# Indices 1 2 3 4 5 6 
#
# 1 64.8920 29.2539 27.0516 0.0000 0.0000 0.0000
# 2 29.2539 64.8929 27.0518 0.0000 0.0000 0.0001
# 3 27.0516 27.0518 193.9704 0.0000 0.0000 0.0000
# 4 0.0000 0.0000 0.0000 17.3550 0.0000 0.0000
# 5 0.0000 0.0000 0.0000 0.0000 17.3548 0.0000
# 6 0.0000 0.0001 0.0000 0.0000 0.0000 17.8194
#
#
#
# Elastic Compliance Matrix: (Units=1/GPa)
#
#
# Indices 1 2 3 4 5 6 
#
# 1 0.019804 -0.008256 -0.001610 0.000000 0.000000 0.000000
# 2 -0.008256 0.019803 -0.001610 0.000000 0.000000 0.000000
# 3 -0.001610 -0.001610 0.005605 0.000000 0.000000 0.000000
# 4 0.000000 0.000000 0.000000 0.057620 0.000000 0.000000
# 5 0.000000 0.000000 0.000000 0.000000 0.057621 0.000000
# 6 0.000000 0.000000 0.000000 0.000000 0.000000 0.056119
#
#
# Mechanical properties :
#
#
# Convention : Reuss Voigt Hill
#
# Bulk Modulus (GPa) = 44.92885 54.49666 49.71275
# Shear Modulus (GPa) = 20.24747 26.53236 23.38992
#
# Velocity S-wave (km/s) = 3.08748 3.53433 3.31843
# Velocity P-wave (km/s) = 5.81916 6.50480 6.17151
#
# Compressibility (1/GPa) = 0.02225741
#
# Stress axis : x y z
#
# Youngs Moduli (GPa) = 50.49612 50.49680 178.42453
#
# Poissons Ratio (x) = 0.41691 0.28734
# Poissons Ratio (y) = 0.41690 0.28733
# Poissons Ratio (z) = 0.08132 0.08132
#
# Static dielectric constant tensor:
#      x y z
#    x 1.784190 0.000000 0.000000 
#    y 0.000000 1.784190 0.000000 
#    z 0.000000 0.000000 1.890100 
# 
# From -- ./inp_files/3077.got.cif
#   From: 2010.05.17/outbox.cif.g08.bks.cpg/sg188_2_cif.got.tgz:3077.got - 2010.05.20 12:11:46.
