data_PCOD9585170
_publ_section_title
;
Structure prediction by ZEFSAII (Michael W. Deem and Ramdas Pophale) SiO2 
 PCOD9585170
Probable space group: P 6 C C
;
_chemical_formula_sum "Si O2"
_cell_formula_units_Z 78
_cell_length_a 22.823570
_cell_length_b 22.823570
_cell_length_c 9.153949
_cell_angle_alpha 90.000000
_cell_angle_beta 90.000000
_cell_angle_gamma 120.000000
_cell_volume 4129.583703
_symmetry_space_group_name_H-M "P 6 C C"
_symmetry_group_IT_number 184
_symmetry_cell_setting 'hexagonal'
loop_
_space_group_symop_operation_xyz
x,y,z
x-y,x,z
-y,x-y,z
-x,-y,z
-x+y,-x,z
y,-x+y,z
-x+y,y,1/2+z
x,x-y,1/2+z
-y,-x,1/2+z
y,x,1/2+z
x-y,-y,1/2+z
-x,-x+y,1/2+z
loop_
_atom_site_type_symbol
_atom_site_label
_atom_site_fract_x
_atom_site_fract_y
_atom_site_fract_z
Si Si1 0.647565 0.029186 0.930760
Si Si2 0.120553 0.733805 0.955227
Si Si3 0.314187 0.758772 0.148062
Si Si4 0.365656 0.785383 0.839347
Si Si5 0.399465 0.242245 0.114363
Si Si6 0.532162 0.631366 0.683482
Si Si7 0.500000 0.500000 0.546117
O O1 0.651425 0.048097 0.759343
O O2 0.651653 0.961246 0.949158
O O3 0.705929 0.089569 0.025899
O O4 0.571245 0.016507 0.969920
O O5 0.144057 0.752679 0.788089
O O6 0.166026 0.802200 0.049119
O O7 0.131656 0.677350 0.041469
O O8 0.367087 0.804534 0.272242
O O9 0.271516 0.689038 0.232889
O O10 0.269377 0.790208 0.097076
O O11 0.353832 0.760376 0.002822
O O12 0.354276 0.847586 0.810607
O O13 0.489286 0.552837 0.641395
#
# Coordination Sequence:
#
# PCOD9585170 Si02
#       7
#    12  12  12  12  12  12   6
#     4  11  23  42  62  92 121 157 200 249 308 367
#     4  11  24  39  65  86 121 150 197 244 301 367
#     4  12  25  41  59  81 109 151 196 254 314 377
#     4  12  25  40  59  79 111 148 197 253 312 383
#     4  12  23  42  63  89 116 156 198 249 305 369
#     4  11  22  39  58  86 114 152 190 252 310 371
#     4  10  22  36  60  88 118 150 200 252 306 370
#
# _framework density 18.888103000000001
#
# number of rings (size 3 to 8) (size 9 to 14) (size 15 to 20)
#    0.000    0.615    3.077    6.308    2.154    2.462 
#    0.000    0.000    0.000    0.000    0.000    0.000 
#    0.000    0.000    0.000    0.462    0.000    7.692 
#
# Total GULP energy -435102.705111 kJ/mol
# GULP energy per Si atom -5578.239809 kJ/mol
# Density = 1.884511 g / cm^3
# Si number density = 18.888103 Si / 1000 Ang^3
#
#
#
# Elastic Constant Matrix: (Units=GPa)
#
#
# Indices 1 2 3 4 5 6 
#
# 1 88.9697 32.5744 39.9203 0.0000 0.0000 0.0000
# 2 32.5744 88.9697 39.9203 0.0000 0.0000 0.0000
# 3 39.9203 39.9203 139.7720 0.0000 0.0000 0.0000
# 4 0.0000 0.0000 0.0000 22.1231 0.0000 0.0000
# 5 0.0000 0.0000 0.0000 0.0000 22.1231 0.0000
# 6 0.0000 0.0000 0.0000 0.0000 0.0000 28.1976
#
#
#
# Elastic Compliance Matrix: (Units=1/GPa)
#
#
# Indices 1 2 3 4 5 6 
#
# 1 0.013930 -0.003802 -0.002893 0.000000 0.000000 0.000000
# 2 -0.003802 0.013930 -0.002893 0.000000 0.000000 0.000000
# 3 -0.002893 -0.002893 0.008807 0.000000 0.000000 0.000000
# 4 0.000000 0.000000 0.000000 0.045202 0.000000 0.000000
# 5 0.000000 0.000000 0.000000 0.000000 0.045202 0.000000
# 6 0.000000 0.000000 0.000000 0.000000 0.000000 0.035464
#
#
# Mechanical properties :
#
#
# Convention : Reuss Voigt Hill
#
# Bulk Modulus (GPa) = 57.16986 60.28239 58.72613
# Shear Modulus (GPa) = 26.66115 28.17518 27.41816
#
# Velocity S-wave (km/s) = 3.76111 3.86643 3.81413
# Velocity P-wave (km/s) = 7.01389 7.20536 7.11027
#
# Compressibility (1/GPa) = 0.01749173
#
# Stress axis : x y z
#
# Youngs Moduli (GPa) = 71.78875 71.78875 113.54889
#
# Poissons Ratio (x) = 0.27296 0.32844
# Poissons Ratio (y) = 0.27296 0.32844
# Poissons Ratio (z) = 0.20765 0.20765
#
# Static dielectric constant tensor:
#      x y z
#    x 1.717330 0.000000 0.000000 
#    y 0.000000 1.717330 0.000000 
#    z 0.000000 0.000000 1.709710 
# 
# From -- ./inp_files/392.got.cif
#   From: 2010.05.17/outbox.cif.g08.bks.cpg/sg184_cif.got.tgz:392.got - 2010.05.20 12:04:40.
