data_PCOD9585932
_publ_section_title
;
Structure prediction by ZEFSAII (Michael W. Deem and Ramdas Pophale) SiO2 
 PCOD9585932
Probable space group: P -6 C 2
;
_chemical_formula_sum "Si O2"
_cell_formula_units_Z 72
_cell_length_a 22.057179
_cell_length_b 22.057179
_cell_length_c 9.527153
_cell_angle_alpha 90.000000
_cell_angle_beta 90.000000
_cell_angle_gamma 120.000000
_cell_volume 4014.151013
_symmetry_space_group_name_H-M "P -6 C 2"
_symmetry_group_IT_number 188
_symmetry_cell_setting 'hexagonal'
loop_
_space_group_symop_operation_xyz
x,y,z
-x+y,-x,1/2-z
-y,x-y,z
x,y,1/2-z
-x+y,-x,z
-y,x-y,1/2-z
-y,-x,-z
-x+y,y,-z
x,x-y,-z
-x+y,y,1/2+z
x,x-y,1/2+z
-y,-x,1/2+z
loop_
_atom_site_type_symbol
_atom_site_label
_atom_site_fract_x
_atom_site_fract_y
_atom_site_fract_z
Si Si1 0.584312 0.848211 0.588612
Si Si2 0.088892 0.177784 0.000000
Si Si3 0.794241 0.333892 0.920804
Si Si4 0.914653 0.930529 0.250000
Si Si5 0.394167 0.067158 0.585691
Si Si6 0.419435 0.958779 0.411507
Si Si7 0.715144 0.756748 0.909984
O O1 0.595800 0.836714 0.750000
O O2 0.556309 0.778154 0.500000
O O3 0.538166 0.885415 0.583926
O O4 0.657023 0.905434 0.517920
O O5 0.099320 0.130430 0.887158
O O6 0.058492 0.222753 0.927489
O O7 0.785135 0.337937 0.750000
O O8 0.854087 0.311667 0.940042
O O9 0.724266 0.275735 0.000000
O O10 0.814830 0.407415 0.000000
O O11 0.985871 0.928554 0.250000
O O12 0.402321 0.053998 0.750000
O O13 0.407569 0.017435 0.484274
O O14 0.310094 0.036873 0.566648
O O15 0.440108 0.977297 0.250000
O O16 0.476983 0.953965 0.500000
O O17 0.688655 0.748542 0.750000
#
# Coordination Sequence:
#
# PCOD9585932 Si02
#       7
#    12   6  12   6  12  12  12
#     4  10  20  32  50  78 113 143 182 231 277 333
#     4  12  20  36  64  84 112 150 194 246 286 352
#     4  11  23  40  63  87 116 154 197 242 289 345
#     4  10  24  42  58  78 106 146 194 242 288 328
#     4   9  20  38  58  82 118 151 183 233 288 344
#     4  10  20  33  52  80 110 146 186 225 273 337
#     4  10  20  34  56  88 116 148 187 229 294 348
#
# _framework density 17.936544999999999
#
# number of rings (size 3 to 8) (size 9 to 14) (size 15 to 20)
#    0.167    1.667    1.667    2.667    1.167    4.667 
#    0.000    1.667    0.000    0.333    0.000    0.000 
#    0.000    0.000    0.000    0.000    0.000    0.000 
#
# Total GULP energy -400958.899141 kJ/mol
# GULP energy per Si atom -5568.873599 kJ/mol
# Density = 1.789572 g / cm^3
# Si number density = 17.936545 Si / 1000 Ang^3
#
#
#
# Elastic Constant Matrix: (Units=GPa)
#
#
# Indices 1 2 3 4 5 6 
#
# 1 53.4725 20.6945 24.0364 0.0000 0.0000 0.0000
# 2 20.6945 53.4725 24.0364 0.0000 0.0000 0.0000
# 3 24.0364 24.0364 107.3178 0.0000 0.0000 0.0000
# 4 0.0000 0.0000 0.0000 30.6643 0.0000 0.0000
# 5 0.0000 0.0000 0.0000 0.0000 30.6643 0.0000
# 6 0.0000 0.0000 0.0000 0.0000 0.0000 16.3890
#
#
#
# Elastic Compliance Matrix: (Units=1/GPa)
#
#
# Indices 1 2 3 4 5 6 
#
# 1 0.023141 -0.007368 -0.003533 0.000000 0.000000 0.000000
# 2 -0.007368 0.023141 -0.003533 0.000000 0.000000 0.000000
# 3 -0.003533 -0.003533 0.010901 0.000000 0.000000 0.000000
# 4 0.000000 0.000000 0.000000 0.032611 0.000000 0.000000
# 5 0.000000 0.000000 0.000000 0.000000 0.032611 0.000000
# 6 0.000000 0.000000 0.000000 0.000000 0.000000 0.061017
#
#
# Mechanical properties :
#
#
# Convention : Reuss Voigt Hill
#
# Bulk Modulus (GPa) = 35.31636 39.08859 37.20247
# Shear Modulus (GPa) = 22.55040 25.24323 23.89681
#
# Velocity S-wave (km/s) = 3.54959 3.75555 3.65402
# Velocity P-wave (km/s) = 6.04416 6.37539 6.21198
#
# Compressibility (1/GPa) = 0.02831549
#
# Stress axis : x y z
#
# Youngs Moduli (GPa) = 43.21409 43.21409 91.73811
#
# Poissons Ratio (x) = 0.31839 0.32408
# Poissons Ratio (y) = 0.31839 0.32408
# Poissons Ratio (z) = 0.15266 0.15266
#
# Static dielectric constant tensor:
#      x y z
#    x 1.629950 0.000000 0.000000 
#    y 0.000000 1.629950 0.000000 
#    z 0.000000 0.000000 1.608820 
# 
# From -- ./inp_files/1116.got.cif
#   From: 2010.05.17/outbox.cif.g08.bks.cpg/sg188_1_cif.got.tgz:1116.got - 2010.05.20 12:11:46.
