data_PCOD9585261
_publ_section_title
;
Structure prediction by ZEFSAII (Michael W. Deem and Ramdas Pophale) SiO2 
 PCOD9585261
Probable space group: P 63 C M
;
_chemical_formula_sum "Si O2"
_cell_formula_units_Z 72
_cell_length_a 14.840895
_cell_length_b 14.840895
_cell_length_c 18.899655
_cell_angle_alpha 90.000000
_cell_angle_beta 90.000000
_cell_angle_gamma 120.000000
_cell_volume 3604.995219
_symmetry_space_group_name_H-M "P 63 C M"
_symmetry_group_IT_number 185
_symmetry_cell_setting 'hexagonal'
loop_
_space_group_symop_operation_xyz
x,y,z
x-y,x,1/2+z
-y,x-y,z
-x,-y,1/2+z
-x+y,-x,z
y,-x+y,1/2+z
-x+y,y,1/2+z
x,x-y,1/2+z
-y,-x,1/2+z
y,x,z
x-y,-y,z
-x,-x+y,z
loop_
_atom_site_type_symbol
_atom_site_label
_atom_site_fract_x
_atom_site_fract_y
_atom_site_fract_z
Si Si1 0.123847 0.693603 0.593330
Si Si2 0.183399 0.725579 0.879429
Si Si3 0.122748 0.519576 0.945873
Si Si4 0.124252 0.877814 0.656780
Si Si5 0.119896 0.879404 0.823122
Si Si6 0.656408 0.211113 0.733425
O O1 0.155866 0.659343 0.522044
O O2 0.162135 0.814328 0.608194
O O3 0.152590 0.652382 0.662776
O O4 0.000000 0.638906 0.589472
O O5 0.140637 0.635143 0.937651
O O6 0.306694 0.800221 0.892213
O O7 0.137386 0.802229 0.872802
O O8 0.158967 0.664131 0.804994
O O9 0.000000 0.438760 0.933883
O O10 0.138934 0.862340 0.740510
O O11 0.000000 0.828521 0.647038
O O12 0.184445 0.000000 0.642665
O O13 0.000000 0.849360 0.827267
O O14 0.195390 0.000000 0.840421
O O15 0.759996 0.325594 0.733017
#
# Coordination Sequence:
#
# PCOD9585261 Si02
#       6
#    12  12  12  12  12  12
#     4  10  22  40  60  88 125 163 207 258 312 369
#     4  12  21  40  63  89 124 165 205 258 313 374
#     4  11  25  41  61  90 124 167 210 252 310 376
#     4   9  17  32  57  87 122 160 202 255 313 372
#     4  10  20  35  59  91 125 162 207 261 318 374
#     4  10  21  38  60  89 115 157 204 252 310 367
#
# _framework density 19.972287000000001
#
# number of rings (size 3 to 8) (size 9 to 14) (size 15 to 20)
#    0.333    1.333    3.333    1.667    2.333    2.000 
#    0.000    2.500    0.000    0.000    0.000    2.333 
#    0.000    0.000    0.000    0.000    0.000    0.000 
#
# Total GULP energy -401636.788365 kJ/mol
# GULP energy per Si atom -5578.288727 kJ/mol
# Density = 1.992683 g / cm^3
# Si number density = 19.972287 Si / 1000 Ang^3
#
#
#
# Elastic Constant Matrix: (Units=GPa)
#
#
# Indices 1 2 3 4 5 6 
#
# 1 68.3909 24.1371 35.0567 0.0000 0.0000 0.0000
# 2 24.1371 68.3909 35.0567 0.0000 0.0000 0.0000
# 3 35.0567 35.0567 85.7457 0.0000 0.0000 0.0000
# 4 0.0000 0.0000 0.0000 22.8631 0.0000 0.0000
# 5 0.0000 0.0000 0.0000 0.0000 22.8631 0.0000
# 6 0.0000 0.0000 0.0000 0.0000 0.0000 22.1269
#
#
#
# Elastic Compliance Matrix: (Units=1/GPa)
#
#
# Indices 1 2 3 4 5 6 
#
# 1 0.019128 -0.003469 -0.006402 0.000000 0.000000 0.000000
# 2 -0.003469 0.019128 -0.006402 0.000000 0.000000 0.000000
# 3 -0.006402 -0.006402 0.016897 0.000000 0.000000 0.000000
# 4 0.000000 0.000000 0.000000 0.043739 0.000000 0.000000
# 5 0.000000 0.000000 0.000000 0.000000 0.043739 0.000000
# 6 0.000000 0.000000 0.000000 0.000000 0.000000 0.045194
#
#
# Mechanical properties :
#
#
# Convention : Reuss Voigt Hill
#
# Bulk Modulus (GPa) = 44.23473 45.66983 44.95228
# Shear Modulus (GPa) = 21.93889 22.12239 22.03064
#
# Velocity S-wave (km/s) = 3.31791 3.33176 3.32484
# Velocity P-wave (km/s) = 6.07241 6.14142 6.10701
#
# Compressibility (1/GPa) = 0.02260667
#
# Stress axis : x y z
#
# Youngs Moduli (GPa) = 52.27992 52.27992 59.18135
#
# Poissons Ratio (x) = 0.18137 0.37888
# Poissons Ratio (y) = 0.18137 0.37888
# Poissons Ratio (z) = 0.33469 0.33469
#
# Static dielectric constant tensor:
#      x y z
#    x 1.704530 0.000000 0.000000 
#    y 0.000000 1.704530 0.000000 
#    z 0.000000 0.000000 1.717230 
# 
# From -- ./inp_files/1692.got.cif
#   From: 2010.05.17/outbox.cif.g08.bks.cpg/sg185_cif.got.tgz:1692.got - 2010.05.20 12:05:34.
