data_PCOD9585055
_publ_section_title
;
Structure prediction by ZEFSAII (Michael W. Deem and Ramdas Pophale) SiO2 
 PCOD9585055
Probable space group: P 6 M M
;
_chemical_formula_sum "Si O2"
_cell_formula_units_Z 30
_cell_length_a 16.810232
_cell_length_b 16.810232
_cell_length_c 7.263553
_cell_angle_alpha 90.000000
_cell_angle_beta 90.000000
_cell_angle_gamma 120.000000
_cell_volume 1777.571817
_symmetry_space_group_name_H-M "P 6 M M"
_symmetry_group_IT_number 183
_symmetry_cell_setting 'hexagonal'
loop_
_space_group_symop_operation_xyz
x,y,z
x-y,x,z
-y,x-y,z
-x,-y,z
-x+y,-x,z
y,-x+y,z
-x+y,y,z
x,x-y,z
-y,-x,z
y,x,z
x-y,-y,z
-x,-x+y,z
loop_
_atom_site_type_symbol
_atom_site_label
_atom_site_fract_x
_atom_site_fract_y
_atom_site_fract_z
Si Si1 0.667532 0.144815 0.343230
Si Si2 0.653299 0.000000 0.050526
Si Si3 0.810497 0.810497 0.843230
Si Si4 0.000000 0.346701 0.635934
O O1 0.572569 0.145137 0.343230
O O2 0.754050 0.245951 0.343230
O O3 0.669922 0.087807 0.166615
O O4 0.669922 0.087807 0.519845
O O5 0.619127 0.000000 0.843230
O O6 0.748379 0.000000 0.014661
O O7 0.908803 0.817606 0.843230
O O8 0.748379 0.748379 0.671800
#
# Coordination Sequence:
#
# PCOD9585055 Si02
#       4
#    12   6   6   6
#     4  11  22  37  58  86 116 149 192 243 288 334
#     4   9  21  38  59  79 111 155 197 223 281 356
#     4  10  19  34  57  84 110 140 182 234 281 330
#     4   9  21  38  59  79 111 155 197 223 281 356
#
# _framework density 16.876954000000001
#
# number of rings (size 3 to 8) (size 9 to 14) (size 15 to 20)
#    1.200    0.800    0.000    5.400    0.000    3.200 
#    0.000    0.000    0.000    4.800    0.000   14.000 
#    0.000    0.000    0.000    0.000    0.000    0.000 
#
# Total GULP energy -167169.186268 kJ/mol
# GULP energy per Si atom -5572.306209 kJ/mol
# Density = 1.683854 g / cm^3
# Si number density = 16.876954 Si / 1000 Ang^3
#
#
#
# Elastic Constant Matrix: (Units=GPa)
#
#
# Indices 1 2 3 4 5 6 
#
# 1 147.5758 129.3421 63.3078 0.0000 0.0000 0.0000
# 2 129.3421 147.5758 63.3078 0.0000 0.0000 0.0000
# 3 63.3078 63.3078 139.6102 0.0000 0.0000 0.0000
# 4 0.0000 0.0000 0.0000 7.7567 0.0000 0.0000
# 5 0.0000 0.0000 0.0000 0.0000 7.7567 0.0000
# 6 0.0000 0.0000 0.0000 0.0000 0.0000 9.1168
#
#
#
# Elastic Compliance Matrix: (Units=1/GPa)
#
#
# Indices 1 2 3 4 5 6 
#
# 1 0.029700 -0.025144 -0.002066 0.000000 0.000000 0.000000
# 2 -0.025144 0.029700 -0.002066 0.000000 0.000000 0.000000
# 3 -0.002066 -0.002066 0.009036 0.000000 0.000000 0.000000
# 4 0.000000 0.000000 0.000000 0.128921 0.000000 0.000000
# 5 0.000000 0.000000 0.000000 0.000000 0.128921 0.000000
# 6 0.000000 0.000000 0.000000 0.000000 0.000000 0.109687
#
#
# Mechanical properties :
#
#
# Convention : Reuss Voigt Hill
#
# Bulk Modulus (GPa) = 101.16900 105.18636 103.17768
# Shear Modulus (GPa) = 10.04398 16.84631 13.44514
#
# Velocity S-wave (km/s) = 2.44217 3.16283 2.82557
# Velocity P-wave (km/s) = 8.24788 8.70625 8.48016
#
# Compressibility (1/GPa) = 0.00988445
#
# Stress axis : x y z
#
# Youngs Moduli (GPa) = 33.67043 33.67043 110.66386
#
# Poissons Ratio (x) = 0.84661 0.22862
# Poissons Ratio (y) = 0.84661 0.22862
# Poissons Ratio (z) = 0.06956 0.06956
#
# Static dielectric constant tensor:
#      x y z
#    x 1.545530 0.000000 0.000000 
#    y 0.000000 1.545530 0.000000 
#    z 0.000000 0.000000 1.565690 
# 
# From -- ./inp_files/601.got.cif
#   From: 2010.05.17/outbox.cif.g08.bks.cpg/sg183_1_cif.got.tgz:601.got - 2010.05.20 12:02:58.
