data_PCOD9585649
_publ_section_title
;
Structure prediction by ZEFSAII (Michael W. Deem and Ramdas Pophale) SiO2 
 PCOD9585649
Probable space group: P -6 M 2
;
_chemical_formula_sum "Si O2"
_cell_formula_units_Z 66
_cell_length_a 12.667887
_cell_length_b 12.667887
_cell_length_c 29.486703
_cell_angle_alpha 90.000000
_cell_angle_beta 90.000000
_cell_angle_gamma 120.000000
_cell_volume 4097.936350
_symmetry_space_group_name_H-M "P -6 M 2"
_symmetry_group_IT_number 187
_symmetry_cell_setting 'hexagonal'
loop_
_space_group_symop_operation_xyz
x,y,z
-x+y,-x,-z
-y,x-y,z
x,y,-z
-x+y,-x,z
-y,x-y,-z
-y,-x,-z
-x+y,y,-z
x,x-y,-z
-x+y,y,z
x,x-y,z
-y,-x,z
loop_
_atom_site_type_symbol
_atom_site_label
_atom_site_fract_x
_atom_site_fract_y
_atom_site_fract_z
Si Si1 0.332811 0.916930 0.000000
Si Si2 0.416023 0.332915 0.176933
Si Si3 0.251276 0.000117 0.911640
Si Si4 0.666452 0.585778 0.451301
Si Si5 0.666398 0.586207 0.351731
Si Si6 0.748735 0.999663 0.264698
O O1 0.313368 0.978518 0.955465
O O2 0.223402 0.776599 0.000000
O O3 0.462531 0.925061 0.000000
O O4 0.446681 0.223341 0.177759
O O5 0.537981 0.462020 0.175584
O O6 0.332954 0.310843 0.132818
O O7 0.338008 0.317100 0.221953
O O8 0.119193 0.880808 0.905969
O O9 0.238377 0.119189 0.917946
O O10 0.662421 0.642882 0.500000
O O11 0.788453 0.576906 0.452028
O O12 0.549247 0.450754 0.450747
O O13 0.665795 0.639076 0.401892
O O14 0.781486 0.562972 0.350454
O O15 0.541144 0.458857 0.346009
O O16 0.687420 0.677523 0.311026
O O17 0.887352 0.112649 0.264484
O O18 0.746625 0.873313 0.261242
#
# Coordination Sequence:
#
# PCOD9585649 Si02
#       6
#     6  12  12  12  12  12
#     4  10  20  34  52  74 102 136 172 208 246 288
#     4  10  20  34  53  76 101 127 154 189 235 286
#     4  10  20  34  54  78 104 134 167 204 241 279
#     4   8  12  18  31  55  87 118 144 172 213 268
#     4   9  16  26  43  67  93 119 146 181 227 278
#     4  10  20  33  49  67  89 120 157 196 233 271
#
# _framework density 16.105667
#
# number of rings (size 3 to 8) (size 9 to 14) (size 15 to 20)
#    0.000    2.545    0.000    2.909    0.000    2.182 
#    0.000    4.545    0.000   10.727    0.000    0.000 
#    0.000    1.455    0.000    0.000    0.000    0.000 
#
# Total GULP energy -367673.488331 kJ/mol
# GULP energy per Si atom -5570.810429 kJ/mol
# Density = 1.606901 g / cm^3
# Si number density = 16.105667 Si / 1000 Ang^3
#
#
#
# Elastic Constant Matrix: (Units=GPa)
#
#
# Indices 1 2 3 4 5 6 
#
# 1 92.5626 64.9132 77.2963 0.0000 0.0003 0.0000
# 2 64.9132 92.5626 77.2963 0.0000 -0.0003 0.0000
# 3 77.2963 77.2963 182.7241 0.0000 0.0000 0.0000
# 4 0.0000 0.0000 0.0000 16.0758 0.0000 -0.0003
# 5 0.0003 -0.0003 0.0000 0.0000 16.0758 0.0000
# 6 0.0000 0.0000 0.0000 -0.0003 0.0000 13.8247
#
#
#
# Elastic Compliance Matrix: (Units=1/GPa)
#
#
# Indices 1 2 3 4 5 6 
#
# 1 0.023514 -0.012654 -0.004594 0.000000 -0.000001 0.000000
# 2 -0.012654 0.023514 -0.004594 0.000000 0.000001 0.000000
# 3 -0.004594 -0.004594 0.009360 0.000000 0.000000 0.000000
# 4 0.000000 0.000000 0.000000 0.062205 0.000000 0.000001
# 5 -0.000001 0.000001 0.000000 0.000000 0.062205 0.000000
# 6 0.000000 0.000000 0.000000 0.000001 0.000000 0.072334
#
#
# Mechanical properties :
#
#
# Convention : Reuss Voigt Hill
#
# Bulk Modulus (GPa) = 78.71847 89.65123 84.18485
# Shear Modulus (GPa) = 16.60854 19.08481 17.84668
#
# Velocity S-wave (km/s) = 3.21475 3.44608 3.33242
# Velocity P-wave (km/s) = 7.92224 8.46281 8.19698
#
# Compressibility (1/GPa) = 0.01270350
#
# Stress axis : x y z
#
# Youngs Moduli (GPa) = 42.52842 42.52842 106.84303
#
# Poissons Ratio (x) = 0.53813 0.49085
# Poissons Ratio (y) = 0.53813 0.49085
# Poissons Ratio (z) = 0.19538 0.19538
#
# Static dielectric constant tensor:
#      x y z
#    x 1.502200 0.000000 0.000000 
#    y 0.000000 1.502200 0.000000 
#    z 0.000000 0.000000 1.578390 
# 
# From -- ./inp_files/4417.got.cif
#   From: 2010.05.17/outbox.cif.g08.bks.cpg/sg187_3_cif.got.tgz:4417.got - 2010.05.20 12:09:04.
