data_PCOD9585528
_publ_section_title
;
Structure prediction by ZEFSAII (Michael W. Deem and Ramdas Pophale) SiO2 
 PCOD9585528
Probable space group: P -6 M 2
;
_chemical_formula_sum "Si O2"
_cell_formula_units_Z 72
_cell_length_a 23.741714
_cell_length_b 23.741714
_cell_length_c 7.682623
_cell_angle_alpha 90.000000
_cell_angle_beta 90.000000
_cell_angle_gamma 120.000000
_cell_volume 3750.285164
_symmetry_space_group_name_H-M "P -6 M 2"
_symmetry_group_IT_number 187
_symmetry_cell_setting 'hexagonal'
loop_
_space_group_symop_operation_xyz
x,y,z
-x+y,-x,-z
-y,x-y,z
x,y,-z
-x+y,-x,z
-y,x-y,-z
-y,-x,-z
-x+y,y,-z
x,x-y,-z
-x+y,y,z
x,x-y,z
-y,-x,z
loop_
_atom_site_type_symbol
_atom_site_label
_atom_site_fract_x
_atom_site_fract_y
_atom_site_fract_z
Si Si1 0.327470 0.924564 0.204958
Si Si2 0.853659 0.271827 0.290235
Si Si3 0.203624 0.537011 0.289114
Si Si4 0.587006 0.540200 0.792798
Si Si5 0.199533 0.926157 0.295404
Si Si6 0.802814 0.070854 0.287184
O O1 0.333422 0.860929 0.231430
O O2 0.261090 0.915316 0.283088
O O3 0.392031 0.987428 0.277672
O O4 0.323623 0.934756 0.000000
O O5 0.853078 0.270805 0.500000
O O6 0.780943 0.219058 0.231017
O O7 0.886255 0.346140 0.234916
O O8 0.900497 0.243662 0.232998
O O9 0.204178 0.537476 0.500000
O O10 0.268331 0.536661 0.230587
O O11 0.203678 0.601839 0.230367
O O12 0.523385 0.476616 0.722717
O O13 0.577780 0.541573 0.000000
O O14 0.187408 0.929468 0.500000
O O15 0.134985 0.865016 0.219906
O O16 0.223084 0.997885 0.222201
O O17 0.801275 0.069637 0.500000
O O18 0.875720 0.124281 0.235392
#
# Coordination Sequence:
#
# PCOD9585528 Si02
#       6
#    12  12  12  12  12  12
#     4  11  22  35  50  71 102 136 166 205 255 301
#     4   9  17  31  53  78 100 125 161 204 248 294
#     4  10  21  37  55  72  91 121 165 214 259 304
#     4  10  21  35  50  72 104 138 169 203 246 297
#     4  10  19  31  50  75 102 134 172 209 246 295
#     4   8  14  27  48  72  99 128 159 200 247 292
#
# _framework density 19.198540000000001
#
# number of rings (size 3 to 8) (size 9 to 14) (size 15 to 20)
#    0.000    2.333    1.667    2.667    0.000    5.667 
#    0.000    0.000    0.000    2.167    0.000    2.333 
#    0.000    0.000    0.000    0.000    0.000    0.000 
#
# Total GULP energy -401846.020413 kJ/mol
# GULP energy per Si atom -5581.194728 kJ/mol
# Density = 1.915484 g / cm^3
# Si number density = 19.198540 Si / 1000 Ang^3
#
#
#
# Elastic Constant Matrix: (Units=GPa)
#
#
# Indices 1 2 3 4 5 6 
#
# 1 107.5638 57.1723 -8.0897 0.0000 -0.0006 0.0000
# 2 57.1723 107.5638 -8.0897 0.0000 0.0006 0.0000
# 3 -8.0897 -8.0897 31.8753 0.0000 0.0000 0.0000
# 4 0.0000 0.0000 0.0000 -1.0037 0.0000 0.0006
# 5 -0.0006 0.0006 0.0000 0.0000 -1.0037 0.0000
# 6 0.0000 0.0000 0.0000 0.0006 0.0000 25.1957
#
#
#
# Elastic Compliance Matrix: (Units=1/GPa)
#
#
# Indices 1 2 3 4 5 6 
#
# 1 0.013035 -0.006810 0.001580 0.000000 -0.000012 0.000000
# 2 -0.006810 0.013035 0.001580 0.000000 0.000012 0.000000
# 3 0.001580 0.001580 0.032174 0.000000 0.000000 0.000000
# 4 0.000000 0.000000 0.000000 -0.996332 0.000000 0.000023
# 5 -0.000012 0.000012 0.000000 0.000000 -0.996332 0.000000
# 6 0.000000 0.000000 0.000000 0.000023 0.000000 0.039689
#
#
# Mechanical properties :
#
#
# Convention : Reuss Voigt Hill
#
# Bulk Modulus (GPa) = 19.62892 36.55428 28.09160
# Shear Modulus (GPa) = -2.67316 18.37167 7.84926
#
# Velocity S-wave (km/s) = -1.18127 3.09679 2.02419
# Velocity P-wave (km/s) = 2.89583 5.64520 4.48632
#
# Compressibility (1/GPa) = 0.05094523
#
# Stress axis : x y z
#
# Youngs Moduli (GPa) = 76.71616 76.71616 31.08072
#
# Poissons Ratio (x) = 0.52240 -0.04911
# Poissons Ratio (y) = 0.52240 -0.04911
# Poissons Ratio (z) = -0.12121 -0.12121
#
# Static dielectric constant tensor:
#      x y z
#    x 1.661940 0.000000 0.000000 
#    y 0.000000 1.661940 0.000000 
#    z 0.000000 0.000000 1.728110 
# 
# From -- ./inp_files/949.got.cif
#   From: 2010.05.17/outbox.cif.g08.bks.cpg/sg187_1_cif.got.tgz:949.got - 2010.05.20 12:09:04.
