data_PCOD9585973
_publ_section_title
;
Structure prediction by ZEFSAII (Michael W. Deem and Ramdas Pophale) SiO2 
 PCOD9585973
Probable space group: P -6 C 2
;
_chemical_formula_sum "Si O2"
_cell_formula_units_Z 64
_cell_length_a 16.350733
_cell_length_b 16.350733
_cell_length_c 15.031594
_cell_angle_alpha 90.000000
_cell_angle_beta 90.000000
_cell_angle_gamma 120.000000
_cell_volume 3480.247437
_symmetry_space_group_name_H-M "P -6 C 2"
_symmetry_group_IT_number 188
_symmetry_cell_setting 'hexagonal'
loop_
_space_group_symop_operation_xyz
x,y,z
-x+y,-x,1/2-z
-y,x-y,z
x,y,1/2-z
-x+y,-x,z
-y,x-y,1/2-z
-y,-x,-z
-x+y,y,-z
x,x-y,-z
-x+y,y,1/2+z
x,x-y,1/2+z
-y,-x,1/2+z
loop_
_atom_site_type_symbol
_atom_site_label
_atom_site_fract_x
_atom_site_fract_y
_atom_site_fract_z
Si Si1 0.389223 0.429022 0.988574
Si Si2 0.083130 0.312189 0.143937
Si Si3 0.880216 0.161337 0.149140
Si Si4 0.696440 0.524877 0.421880
Si Si5 0.702394 0.972059 0.144284
Si Si6 0.666667 0.333334 0.854746
O O1 0.304877 0.397237 0.917038
O O2 0.449268 0.381202 0.953139
O O3 0.460488 0.539513 0.000000
O O4 0.344831 0.381146 0.082871
O O5 0.072804 0.326869 0.250000
O O6 0.170929 0.295525 0.134842
O O7 0.985873 0.220320 0.111706
O O8 0.891999 0.138348 0.250000
O O9 0.842553 0.235714 0.146260
O O10 0.799223 0.062974 0.110457
O O11 0.767563 0.535126 0.500000
O O12 0.652533 0.418676 0.387890
O O13 0.690810 0.985528 0.250000
O O14 0.666667 0.333334 0.750000
#
# Coordination Sequence:
#
# PCOD9585973 Si02
#       6
#    12  12  12  12  12   4
#     4  11  22  36  57  83 110 151 192 239 289 342
#     4   9  20  37  58  85 118 151 190 238 288 345
#     4   9  18  34  55  81 115 150 186 229 277 334
#     4  11  20  35  51  74 109 147 189 229 278 322
#     4  10  20  37  60  87 116 152 192 234 287 350
#     4  12  25  35  49  75 112 155 196 237 274 335
#
# _framework density 18.389498
#
# number of rings (size 3 to 8) (size 9 to 14) (size 15 to 20)
#    0.000    1.875    1.875    2.812    0.000    1.500 
#    1.125    0.000    0.000    3.000    0.000    0.000 
#    0.000    0.000    0.000    0.000    0.000    0.000 
#
# Total GULP energy -356933.521257 kJ/mol
# GULP energy per Si atom -5577.086270 kJ/mol
# Density = 1.834764 g / cm^3
# Si number density = 18.389498 Si / 1000 Ang^3
#
#
#
# Elastic Constant Matrix: (Units=GPa)
#
#
# Indices 1 2 3 4 5 6 
#
# 1 83.1267 47.8433 34.1797 -0.0003 -0.0001 0.0003
# 2 47.8433 83.1270 34.1796 0.0003 0.0000 0.0001
# 3 34.1797 34.1796 79.0182 0.0000 0.0000 0.0000
# 4 -0.0003 0.0003 0.0000 20.7459 0.0001 0.0000
# 5 -0.0001 0.0000 0.0000 0.0001 20.7459 -0.0003
# 6 0.0003 0.0001 0.0000 0.0000 -0.0003 17.6414
#
#
#
# Elastic Compliance Matrix: (Units=1/GPa)
#
#
# Indices 1 2 3 4 5 6 
#
# 1 0.019102 -0.009240 -0.004266 0.000000 0.000000 0.000000
# 2 -0.009240 0.019102 -0.004266 0.000000 0.000000 0.000000
# 3 -0.004266 -0.004266 0.016346 0.000000 0.000000 0.000000
# 4 0.000000 0.000000 0.000000 0.048202 0.000000 0.000000
# 5 0.000000 0.000000 0.000000 0.000000 0.048202 0.000001
# 6 0.000000 0.000000 0.000000 0.000000 0.000001 0.056685
#
#
# Mechanical properties :
#
#
# Convention : Reuss Voigt Hill
#
# Bulk Modulus (GPa) = 52.61431 53.07521 52.84476
# Shear Modulus (GPa) = 20.03871 20.43127 20.23499
#
# Velocity S-wave (km/s) = 3.30461 3.33683 3.32076
# Velocity P-wave (km/s) = 6.57524 6.61591 6.59561
#
# Compressibility (1/GPa) = 0.01900624
#
# Stress axis : x y z
#
# Youngs Moduli (GPa) = 52.35089 52.35122 61.17825
#
# Poissons Ratio (x) = 0.48372 0.26098
# Poissons Ratio (y) = 0.48372 0.26097
# Poissons Ratio (z) = 0.22332 0.22332
#
# Static dielectric constant tensor:
#      x y z
#    x 1.635320 0.000000 0.000000 
#    y 0.000000 1.635320 0.000000 
#    z 0.000000 0.000000 1.674620 
# 
# From -- ./inp_files/3045.got.cif
#   From: 2010.05.17/outbox.cif.g08.bks.cpg/sg188_2_cif.got.tgz:3045.got - 2010.05.20 12:11:46.
