data_PCOD9585592
_publ_section_title
;
Structure prediction by ZEFSAII (Michael W. Deem and Ramdas Pophale) SiO2 
 PCOD9585592
Probable space group: P -6 M 2
;
_chemical_formula_sum "Si O2"
_cell_formula_units_Z 66
_cell_length_a 13.013801
_cell_length_b 13.013801
_cell_length_c 28.440287
_cell_angle_alpha 90.000000
_cell_angle_beta 90.000000
_cell_angle_gamma 120.000000
_cell_volume 4171.314444
_symmetry_space_group_name_H-M "P -6 M 2"
_symmetry_group_IT_number 187
_symmetry_cell_setting 'hexagonal'
loop_
_space_group_symop_operation_xyz
x,y,z
-x+y,-x,-z
-y,x-y,z
x,y,-z
-x+y,-x,z
-y,x-y,-z
-y,-x,-z
-x+y,y,-z
x,x-y,-z
-x+y,y,z
x,x-y,z
-y,-x,z
loop_
_atom_site_type_symbol
_atom_site_label
_atom_site_fract_x
_atom_site_fract_y
_atom_site_fract_z
Si Si1 0.421504 0.332465 0.500000
Si Si2 0.244525 0.999938 0.412991
Si Si3 0.667122 0.089709 0.137217
Si Si4 0.091865 0.666487 0.671085
Si Si5 0.090996 0.666801 0.945571
Si Si6 0.333103 0.908447 0.220355
O O1 0.539908 0.460093 0.500000
O O2 0.452858 0.226429 0.500000
O O3 0.338721 0.310724 0.545348
O O4 0.119862 0.880139 0.422516
O O5 0.298173 0.978810 0.365312
O O6 0.225651 0.112826 0.409343
O O7 0.556970 0.113940 0.136605
O O8 0.789847 0.210154 0.137590
O O9 0.652389 0.011051 0.091368
O O10 0.649866 0.010773 0.183229
O O11 0.079787 0.539894 0.660131
O O12 0.229663 0.770338 0.668132
O O13 0.055120 0.665037 0.725337
O O14 0.118924 0.559462 0.939981
O O15 0.209037 0.790964 0.936436
O O16 0.055371 0.664865 0.000000
O O17 0.439136 0.878272 0.215686
O O18 0.208090 0.791911 0.210720
#
# Coordination Sequence:
#
# PCOD9585592 Si02
#       6
#     6  12  12  12  12  12
#     4  10  20  34  52  72  94 120 152 194 242 288
#     4  10  20  33  50  71  97 130 165 198 229 268
#     4  10  20  32  46  65  92 126 160 192 226 269
#     4   9  17  30  49  73  99 125 154 192 240 289
#     4   9  17  30  50  75  98 118 144 185 237 285
#     4   9  17  30  50  74  96 119 151 195 245 290
#
# _framework density 15.82235
#
# number of rings (size 3 to 8) (size 9 to 14) (size 15 to 20)
#    0.000    2.545    0.000    2.364    0.000    3.273 
#    0.000    2.727    0.000    6.909    0.000    0.000 
#    0.000    0.000    0.000    0.000    0.000    0.000 
#
# Total GULP energy -368017.352810 kJ/mol
# GULP energy per Si atom -5576.020497 kJ/mol
# Density = 1.578634 g / cm^3
# Si number density = 15.822350 Si / 1000 Ang^3
#
#
#
# Elastic Constant Matrix: (Units=GPa)
#
#
# Indices 1 2 3 4 5 6 
#
# 1 116.5701 77.0667 85.4242 0.0000 -0.0002 0.0000
# 2 77.0667 116.5701 85.4242 0.0000 0.0002 0.0000
# 3 85.4242 85.4242 117.6546 0.0000 0.0000 0.0000
# 4 0.0000 0.0000 0.0000 19.5835 0.0000 0.0002
# 5 -0.0002 0.0002 0.0000 0.0000 19.5835 0.0000
# 6 0.0000 0.0000 0.0000 0.0002 0.0000 19.7517
#
#
#
# Elastic Compliance Matrix: (Units=1/GPa)
#
#
# Indices 1 2 3 4 5 6 
#
# 1 0.019842 -0.005472 -0.010433 0.000000 0.000000 0.000000
# 2 -0.005472 0.019842 -0.010433 0.000000 0.000000 0.000000
# 3 -0.010433 -0.010433 0.023650 0.000000 0.000000 0.000000
# 4 0.000000 0.000000 0.000000 0.051063 0.000000 -0.000001
# 5 0.000000 0.000000 0.000000 0.000000 0.051063 0.000000
# 6 0.000000 0.000000 0.000000 -0.000001 0.000000 0.050629
#
#
# Mechanical properties :
#
#
# Convention : Reuss Voigt Hill
#
# Bulk Modulus (GPa) = 93.84235 94.06942 93.95588
# Shear Modulus (GPa) = 18.36083 18.64239 18.50161
#
# Velocity S-wave (km/s) = 3.41021 3.43626 3.42326
# Velocity P-wave (km/s) = 8.65707 8.67908 8.66808
#
# Compressibility (1/GPa) = 0.01065617
#
# Stress axis : x y z
#
# Youngs Moduli (GPa) = 50.39813 50.39813 42.28369
#
# Poissons Ratio (x) = 0.27579 0.44116
# Poissons Ratio (y) = 0.27579 0.44116
# Poissons Ratio (z) = 0.52582 0.52582
#
# Static dielectric constant tensor:
#      x y z
#    x 1.498060 0.000000 0.000000 
#    y 0.000000 1.498060 0.000000 
#    z 0.000000 0.000000 1.536310 
# 
# From -- ./inp_files/4414.got.cif
#   From: 2010.05.17/outbox.cif.g08.bks.cpg/sg187_3_cif.got.tgz:4414.got - 2010.05.20 12:09:04.
