data_PCOD9585201
_publ_section_title
;
Structure prediction by ZEFSAII (Michael W. Deem and Ramdas Pophale) SiO2 
 PCOD9585201
Probable space group: P 6 C C
;
_chemical_formula_sum "Si O2"
_cell_formula_units_Z 44
_cell_length_a 13.968906
_cell_length_b 13.968906
_cell_length_c 13.803820
_cell_angle_alpha 90.000000
_cell_angle_beta 90.000000
_cell_angle_gamma 120.000000
_cell_volume 2332.677546
_symmetry_space_group_name_H-M "P 6 C C"
_symmetry_group_IT_number 184
_symmetry_cell_setting 'hexagonal'
loop_
_space_group_symop_operation_xyz
x,y,z
x-y,x,z
-y,x-y,z
-x,-y,z
-x+y,-x,z
y,-x+y,z
-x+y,y,1/2+z
x,x-y,1/2+z
-y,-x,1/2+z
y,x,1/2+z
x-y,-y,1/2+z
-x,-x+y,1/2+z
loop_
_atom_site_type_symbol
_atom_site_label
_atom_site_fract_x
_atom_site_fract_y
_atom_site_fract_z
Si Si1 0.178919 0.422555 0.484060
Si Si2 0.666668 0.333334 0.209442
Si Si3 0.597445 0.627249 0.886105
Si Si4 0.333335 0.666668 0.938907
Si Si5 0.623127 0.096128 0.666676
O O1 0.280537 0.404886 0.455365
O O2 0.231982 0.553836 0.473341
O O3 0.121925 0.401526 0.589741
O O4 0.081186 0.368579 0.405896
O O5 0.666668 0.333334 0.324376
O O6 0.589989 0.208309 0.176997
O O7 0.500000 0.500000 0.905788
O O8 0.579945 0.647618 0.774130
O O9 0.500000 0.000000 0.637446
#
# Coordination Sequence:
#
# PCOD9585201 Si02
#       5
#    12   4  12   4  12
#     4  12  23  39  63  90 130 174 218 277 341 411
#     4  12  22  38  61  88 131 178 217 284 331 412
#     4  11  24  40  61  93 129 173 224 281 340 415
#     4  12  19  38  61  85 131 169 214 266 331 394
#     4  11  25  38  60  91 131 179 226 271 344 414
#
# _framework density 18.862442999999999
#
# number of rings (size 3 to 8) (size 9 to 14) (size 15 to 20)
#    0.000    0.545    5.455    4.091    3.818    0.000 
#    0.000    0.000    0.000    0.545    0.000    0.000 
#    0.000    4.364    0.000    0.000    0.000    0.000 
#
# Total GULP energy -245613.761884 kJ/mol
# GULP energy per Si atom -5582.130952 kJ/mol
# Density = 1.881951 g / cm^3
# Si number density = 18.862443 Si / 1000 Ang^3
#
#
#
# Elastic Constant Matrix: (Units=GPa)
#
#
# Indices 1 2 3 4 5 6 
#
# 1 95.1581 38.9400 45.7596 0.0002 0.0001 0.0001
# 2 38.9400 95.1592 45.7578 -0.0003 -0.0001 0.0005
# 3 45.7596 45.7578 131.1896 0.0001 -0.0001 -0.0005
# 4 0.0002 -0.0003 0.0001 27.3046 0.0001 0.0001
# 5 0.0001 -0.0001 -0.0001 0.0001 27.3044 -0.0003
# 6 0.0001 0.0005 -0.0005 0.0001 -0.0003 28.1099
#
#
#
# Elastic Compliance Matrix: (Units=1/GPa)
#
#
# Indices 1 2 3 4 5 6 
#
# 1 0.013788 -0.004000 -0.003414 0.000000 0.000000 0.000000
# 2 -0.004000 0.013787 -0.003413 0.000000 0.000000 0.000000
# 3 -0.003414 -0.003413 0.010004 0.000000 0.000000 0.000000
# 4 0.000000 0.000000 0.000000 0.036624 0.000000 0.000000
# 5 0.000000 0.000000 0.000000 0.000000 0.036624 0.000000
# 6 0.000000 0.000000 0.000000 0.000000 0.000000 0.035575
#
#
# Mechanical properties :
#
#
# Convention : Reuss Voigt Hill
#
# Bulk Modulus (GPa) = 62.80188 64.71350 63.75769
# Shear Modulus (GPa) = 28.84103 29.28043 29.06073
#
# Velocity S-wave (km/s) = 3.91451 3.94422 3.92939
# Velocity P-wave (km/s) = 7.33472 7.42462 7.37981
#
# Compressibility (1/GPa) = 0.01592309
#
# Stress axis : x y z
#
# Youngs Moduli (GPa) = 72.52944 72.53165 99.96094
#
# Poissons Ratio (x) = 0.29016 0.34125
# Poissons Ratio (y) = 0.29015 0.34121
# Poissons Ratio (z) = 0.24760 0.24758
#
# Static dielectric constant tensor:
#      x y z
#    x 1.661750 0.000000 0.000000 
#    y 0.000000 1.661750 0.000000 
#    z 0.000000 0.000000 1.761310 
# 
# From -- ./inp_files/764.got.cif
#   From: 2010.05.17/outbox.cif.g08.bks.cpg/sg184_cif.got.tgz:764.got - 2010.05.20 12:04:40.
