data_PCOD9585149
_publ_section_title
;
Structure prediction by ZEFSAII (Michael W. Deem and Ramdas Pophale) SiO2 
 PCOD9585149
Probable space group: P 6 C C
;
_chemical_formula_sum "Si O2"
_cell_formula_units_Z 66
_cell_length_a 21.192948
_cell_length_b 21.192948
_cell_length_c 8.931357
_cell_angle_alpha 90.000000
_cell_angle_beta 90.000000
_cell_angle_gamma 120.000000
_cell_volume 3474.008093
_symmetry_space_group_name_H-M "P 6 C C"
_symmetry_group_IT_number 184
_symmetry_cell_setting 'hexagonal'
loop_
_space_group_symop_operation_xyz
x,y,z
x-y,x,z
-y,x-y,z
-x,-y,z
-x+y,-x,z
y,-x+y,z
-x+y,y,1/2+z
x,x-y,1/2+z
-y,-x,1/2+z
y,x,1/2+z
x-y,-y,1/2+z
-x,-x+y,1/2+z
loop_
_atom_site_type_symbol
_atom_site_label
_atom_site_fract_x
_atom_site_fract_y
_atom_site_fract_z
Si Si1 0.580838 0.480511 0.421790
Si Si2 0.937501 0.713043 0.468024
Si Si3 0.273253 0.809479 0.792052
Si Si4 0.314207 0.856167 0.451894
Si Si5 0.293181 0.200041 0.818489
Si Si6 0.500000 0.000000 0.671508
O O1 0.656963 0.485406 0.393909
O O2 0.512697 0.398961 0.427287
O O3 0.568486 0.516081 0.568593
O O4 0.567336 0.517673 0.277793
O O5 0.914506 0.628000 0.444484
O O6 0.925912 0.722469 0.643138
O O7 0.879975 0.726242 0.373955
O O8 0.019408 0.765228 0.413884
O O9 0.292700 0.820311 0.617180
O O10 0.205762 0.731400 0.830298
O O11 0.248262 0.867583 0.836882
#
# Coordination Sequence:
#
# PCOD9585149 Si02
#       6
#    12  12  12  12  12   6
#     4  11  22  40  56  88 114 150 196 242 300 354
#     4  10  21  37  58  86 117 151 187 230 281 337
#     4  10  23  39  58  83 114 152 194 242 292 349
#     4  10  23  39  58  83 114 152 194 242 292 349
#     4  10  21  37  58  86 117 151 187 230 281 337
#     4  10  24  34  60  86 116 146 188 246 302 354
#
# _framework density 18.998228999999998
#
# number of rings (size 3 to 8) (size 9 to 14) (size 15 to 20)
#    0.000    1.818    1.818    1.091    7.636    1.455 
#    1.091    0.000    0.000    0.364    0.000    2.545 
#    0.000    0.000    0.000    0.000    0.000    0.000 
#
# Total GULP energy -368627.661915 kJ/mol
# GULP energy per Si atom -5585.267605 kJ/mol
# Density = 1.895499 g / cm^3
# Si number density = 18.998229 Si / 1000 Ang^3
#
#
#
# Elastic Constant Matrix: (Units=GPa)
#
#
# Indices 1 2 3 4 5 6 
#
# 1 79.5671 43.5271 25.8047 0.0000 0.0000 0.0000
# 2 43.5271 79.5671 25.8047 0.0000 0.0000 0.0000
# 3 25.8047 25.8047 73.1191 0.0000 0.0000 0.0000
# 4 0.0000 0.0000 0.0000 24.4503 0.0000 0.0000
# 5 0.0000 0.0000 0.0000 0.0000 24.4503 0.0000
# 6 0.0000 0.0000 0.0000 0.0000 0.0000 18.0200
#
#
#
# Elastic Compliance Matrix: (Units=1/GPa)
#
#
# Indices 1 2 3 4 5 6 
#
# 1 0.018641 -0.009106 -0.003365 0.000000 0.000000 0.000000
# 2 -0.009106 0.018641 -0.003365 0.000000 0.000000 0.000000
# 3 -0.003365 -0.003365 0.016051 0.000000 0.000000 0.000000
# 4 0.000000 0.000000 0.000000 0.040899 0.000000 0.000000
# 5 0.000000 0.000000 0.000000 0.000000 0.040899 0.000000
# 6 0.000000 0.000000 0.000000 0.000000 0.000000 0.055494
#
#
# Mechanical properties :
#
#
# Convention : Reuss Voigt Hill
#
# Bulk Modulus (GPa) = 46.16581 46.94735 46.55658
# Shear Modulus (GPa) = 21.78484 22.52527 22.15505
#
# Velocity S-wave (km/s) = 3.38994 3.44706 3.41862
# Velocity P-wave (km/s) = 6.29881 6.37245 6.33574
#
# Compressibility (1/GPa) = 0.02166105
#
# Stress axis : x y z
#
# Youngs Moduli (GPa) = 53.64579 53.64579 62.30006
#
# Poissons Ratio (x) = 0.48851 0.20963
# Poissons Ratio (y) = 0.48851 0.20963
# Poissons Ratio (z) = 0.18051 0.18051
#
# Static dielectric constant tensor:
#      x y z
#    x 1.654470 0.000000 0.000000 
#    y 0.000000 1.654470 0.000000 
#    z 0.000000 0.000000 1.685970 
# 
# From -- ./inp_files/300.got.cif
#   From: 2010.05.17/outbox.cif.g08.bks.cpg/sg184_cif.got.tgz:300.got - 2010.05.20 12:04:40.
