data_PCOD9585830
_publ_section_title
;
Structure prediction by ZEFSAII (Michael W. Deem and Ramdas Pophale) SiO2 
 PCOD9585830
Probable space group: P -6 M 2
;
_chemical_formula_sum "Si O2"
_cell_formula_units_Z 60
_cell_length_a 12.000000
_cell_length_b 12.000000
_cell_length_c 27.000000
_cell_angle_alpha 90.000000
_cell_angle_beta 90.000000
_cell_angle_gamma 120.000000
_cell_volume 3367.106770
_symmetry_space_group_name_H-M "P -6 M 2"
_symmetry_group_IT_number 187
_symmetry_cell_setting 'hexagonal'
loop_
_space_group_symop_operation_xyz
x,y,z
-x+y,-x,-z
-y,x-y,z
x,y,-z
-x+y,-x,z
-y,x-y,-z
-y,-x,-z
-x+y,y,-z
x,x-y,-z
-x+y,y,z
x,x-y,z
-y,-x,z
loop_
_atom_site_type_symbol
_atom_site_label
_atom_site_fract_x
_atom_site_fract_y
_atom_site_fract_z
Si Si1 0.405461 0.076237 0.000000
Si Si2 0.264129 0.003453 0.695022
Si Si3 0.336930 0.406685 0.597423
Si Si4 0.331647 0.400439 0.902862
Si Si5 0.263413 0.259796 0.500000
Si Si6 0.599221 0.933171 0.794055
O O1 0.329829 0.010454 0.050131
O O2 0.530784 0.061568 0.000000
O O3 0.447037 0.223519 0.000000
O O4 0.130384 0.869617 0.694918
O O5 0.346388 0.999605 0.649111
O O6 0.328763 0.012623 0.747836
O O7 0.237015 0.118508 0.687844
O O8 0.200357 0.400713 0.597536
O O9 0.448374 0.551627 0.593188
O O10 0.338883 0.328457 0.549784
O O11 0.211240 0.422480 0.905912
O O12 0.462240 0.537760 0.904943
O O13 0.329516 0.344029 0.848552
O O14 0.227662 0.113831 0.500000
O O15 0.133994 0.267987 0.500000
O O16 0.460992 0.921983 0.790962
O O17 0.582026 0.791013 0.790718
#
# Coordination Sequence:
#
# PCOD9585830 Si02
#       6
#     6  12  12  12   6  12
#     4  10  20  32  46  64  90 126 164 198 230 272
#     4  10  20  33  50  71  97 130 166 203 239 280
#     4  10  20  34  54  78 102 128 160 203 252 296
#     4   9  17  30  50  75  98 120 150 193 245 292
#     4  10  20  34  54  78 104 134 166 200 236 280
#     4   9  17  30  50  75 100 124 152 192 242 292
#
# _framework density 17.819452999999999
#
# number of rings (size 3 to 8) (size 9 to 14) (size 15 to 20)
#    0.000    2.400    0.000    2.800    0.000    2.400 
#    0.000    6.000    0.000   11.200    0.000    0.000 
#    0.000    0.000    0.000    0.000    0.000    0.000 
#
# Total GULP energy -334149.834673 kJ/mol
# GULP energy per Si atom -5569.163911 kJ/mol
# Density = 1.777889 g / cm^3
# Si number density = 17.819453 Si / 1000 Ang^3
#
#
#
# Elastic Constant Matrix: (Units=GPa)
#
#
# Indices 1 2 3 4 5 6 
#
# 1 29.6518 -18.7939 30.5241 0.0000 -0.0009 0.0000
# 2 -18.7939 29.6518 30.5241 0.0000 0.0009 0.0000
# 3 30.5241 30.5241 141.2473 0.0000 0.0000 0.0000
# 4 0.0000 0.0000 0.0000 -34.1322 0.0000 0.0009
# 5 -0.0009 0.0009 0.0000 0.0000 -34.1322 0.0000
# 6 0.0000 0.0000 0.0000 0.0009 0.0000 24.2228
#
#
#
# Elastic Compliance Matrix: (Units=1/GPa)
#
#
# Indices 1 2 3 4 5 6 
#
# 1 -0.203820 -0.224462 0.092554 0.000000 -0.000001 0.000000
# 2 -0.224462 -0.203820 0.092554 0.000000 0.000001 0.000000
# 3 0.092554 0.092554 -0.032923 0.000000 0.000000 0.000000
# 4 0.000000 0.000000 0.000000 -0.029298 0.000000 0.000001
# 5 -0.000001 0.000001 0.000000 0.000000 -0.029298 0.000000
# 6 0.000000 0.000000 0.000000 0.000001 0.000000 0.041283
#
#
# Mechanical properties :
#
#
# Convention : Reuss Voigt Hill
#
# Bulk Modulus (GPa) = -1.92577 31.67329 14.87376
# Shear Modulus (GPa) = -9.05375 1.74476 -3.65449
#
# Velocity S-wave (km/s) = -2.25651 0.99059 -1.43363
# Velocity P-wave (km/s) = 2.80574 4.37281 2.37163
#
# Compressibility (1/GPa) = -0.51927275
#
# Stress axis : x y z
#
# Youngs Moduli (GPa) = -4.90628 -4.90628 -30.37416
#
# Poissons Ratio (x) = -1.10127 2.81124
# Poissons Ratio (y) = -1.10127 2.81124
# Poissons Ratio (z) = 0.45409 0.45409
#
# Static dielectric constant tensor:
#      x y z
#    x 1.562680 0.000000 0.000000 
#    y 0.000000 1.562680 0.000000 
#    z 0.000000 0.000000 1.688010 
# 
# From -- ./inp_files/4200.got.cif
#   From: 2010.05.17/outbox.ucp.g08.bks.cvg/sg187_3_cif.got.tgz:4200.got - 2010.06.11 15:21:44.
