data_PCOD9585886
_publ_section_title
;
Structure prediction by ZEFSAII (Michael W. Deem and Ramdas Pophale) SiO2 
 PCOD9585886
Probable space group: P -6 C 2
;
_chemical_formula_sum "Si O2"
_cell_formula_units_Z 60
_cell_length_a 20.628531
_cell_length_b 20.628531
_cell_length_c 10.435342
_cell_angle_alpha 90.000000
_cell_angle_beta 90.000000
_cell_angle_gamma 120.000000
_cell_volume 3845.686899
_symmetry_space_group_name_H-M "P -6 C 2"
_symmetry_group_IT_number 188
_symmetry_cell_setting 'hexagonal'
loop_
_space_group_symop_operation_xyz
x,y,z
-x+y,-x,1/2-z
-y,x-y,z
x,y,1/2-z
-x+y,-x,z
-y,x-y,1/2-z
-y,-x,-z
-x+y,y,-z
x,x-y,-z
-x+y,y,1/2+z
x,x-y,1/2+z
-y,-x,1/2+z
loop_
_atom_site_type_symbol
_atom_site_label
_atom_site_fract_x
_atom_site_fract_y
_atom_site_fract_z
Si Si1 0.296254 0.148127 0.250000
Si Si2 0.903206 0.096795 0.000000
Si Si3 0.819666 0.485175 0.500000
Si Si4 0.463418 0.076997 0.250000
Si Si5 0.302035 0.294234 0.750000
Si Si6 0.613579 0.536582 0.750000
Si Si7 0.705765 0.007800 0.250000
Si Si8 0.046039 0.802861 1.000000
O O1 0.244718 0.122360 0.374746
O O2 0.334614 0.236543 0.250000
O O3 0.334614 0.098072 0.250000
O O4 0.848255 0.007411 0.999999
O O5 0.748456 0.496912 0.500000
O O6 0.793788 0.396894 0.500000
O O7 0.871494 0.520446 0.624416
O O8 0.871495 0.520446 0.375584
O O9 0.526357 0.052713 0.250000
O O10 0.379078 0.007236 0.250000
O O11 0.249934 0.275674 0.625141
O O12 0.628158 0.620922 0.750000
O O13 0.724325 0.974259 0.374859
O O14 0.131029 0.868972 0.000000
#
# Coordination Sequence:
#
# PCOD9585886 Si02
#       8
#     6   6  12   6   6   6   6  12
#     4   8  16  26  44  62  88 114 154 192 224 268
#     4   8  16  30  42  66  92 116 148 188 230 276
#     4  10  20  32  46  65  90 123 164 209 250 282
#     4  10  21  34  47  69  96 126 162 199 248 296
#     4  10  19  32  48  70  93 123 157 199 240 276
#     4  10  21  34  47  69  96 126 162 199 248 296
#     4  10  19  32  48  70  93 123 157 199 240 276
#     4  10  19  33  51  71  94 122 157 196 240 285
#
# _framework density 15.601895000000001
#
# number of rings (size 3 to 8) (size 9 to 14) (size 15 to 20)
#    0.000    2.400    0.000    2.600    2.800    0.000 
#    4.200    2.000    0.000    0.000    0.000    0.000 
#    0.000    0.000    0.000   12.000    0.000    0.000 
#
# Total GULP energy -334066.423959 kJ/mol
# GULP energy per Si atom -5567.773733 kJ/mol
# Density = 1.556638 g / cm^3
# Si number density = 15.601895 Si / 1000 Ang^3
#
#
#
# Elastic Constant Matrix: (Units=GPa)
#
#
# Indices 1 2 3 4 5 6 
#
# 1 85.0069 53.6208 37.9236 0.0000 0.0000 0.0000
# 2 53.6208 85.0069 37.9236 0.0000 0.0000 0.0000
# 3 37.9236 37.9236 140.4453 0.0000 0.0000 0.0000
# 4 0.0000 0.0000 0.0000 13.1475 0.0000 0.0000
# 5 0.0000 0.0000 0.0000 0.0000 13.1475 0.0000
# 6 0.0000 0.0000 0.0000 0.0000 0.0000 15.6931
#
#
#
# Elastic Compliance Matrix: (Units=1/GPa)
#
#
# Indices 1 2 3 4 5 6 
#
# 1 0.020163 -0.011699 -0.002285 0.000000 0.000000 0.000000
# 2 -0.011699 0.020163 -0.002285 0.000000 0.000000 0.000000
# 3 -0.002285 -0.002285 0.008354 0.000000 0.000000 0.000000
# 4 0.000000 0.000000 0.000000 0.076060 0.000000 0.000000
# 5 0.000000 0.000000 0.000000 0.000000 0.076060 0.000000
# 6 0.000000 0.000000 0.000000 0.000000 0.000000 0.063722
#
#
# Mechanical properties :
#
#
# Convention : Reuss Voigt Hill
#
# Bulk Modulus (GPa) = 61.95567 63.26613 62.61090
# Shear Modulus (GPa) = 16.53214 20.46370 18.49792
#
# Velocity S-wave (km/s) = 3.25872 3.62555 3.44702
# Velocity P-wave (km/s) = 7.34544 7.62657 7.48732
#
# Compressibility (1/GPa) = 0.01614057
#
# Stress axis : x y z
#
# Youngs Moduli (GPa) = 49.59674 49.59674 119.69620
#
# Poissons Ratio (x) = 0.58021 0.27356
# Poissons Ratio (y) = 0.58021 0.27356
# Poissons Ratio (z) = 0.11335 0.11335
#
# Static dielectric constant tensor:
#      x y z
#    x 1.525260 0.000000 0.000000 
#    y 0.000000 1.525260 0.000000 
#    z 0.000000 0.000000 1.495480 
# 
# From -- ./inp_files/1728.got.cif
#   From: 2010.05.17/outbox.cif.g08.bks.cpg/sg188_1_cif.got.tgz:1728.got - 2010.05.20 12:11:46.
