data_PCOD9585859
_publ_section_title
;
Structure prediction by ZEFSAII (Michael W. Deem and Ramdas Pophale) SiO2 
 PCOD9585859
Probable space group: P -6 C 2
;
_chemical_formula_sum "Si O2"
_cell_formula_units_Z 72
_cell_length_a 23.953395
_cell_length_b 23.953395
_cell_length_c 8.648944
_cell_angle_alpha 90.000000
_cell_angle_beta 90.000000
_cell_angle_gamma 120.000000
_cell_volume 4297.618587
_symmetry_space_group_name_H-M "P -6 C 2"
_symmetry_group_IT_number 188
_symmetry_cell_setting 'hexagonal'
loop_
_space_group_symop_operation_xyz
x,y,z
-x+y,-x,1/2-z
-y,x-y,z
x,y,1/2-z
-x+y,-x,z
-y,x-y,1/2-z
-y,-x,-z
-x+y,y,-z
x,x-y,-z
-x+y,y,1/2+z
x,x-y,1/2+z
-y,-x,1/2+z
loop_
_atom_site_type_symbol
_atom_site_label
_atom_site_fract_x
_atom_site_fract_y
_atom_site_fract_z
Si Si1 0.792024 0.332596 0.564421
Si Si2 0.875817 0.874861 0.064783
Si Si3 0.070177 0.803920 0.935084
Si Si4 0.599341 0.861912 0.065763
Si Si5 0.599893 0.073188 0.564768
Si Si6 0.406533 0.468868 0.435540
O O1 0.791607 0.334215 0.750000
O O2 0.732641 0.267360 0.500000
O O3 0.785672 0.392836 0.500000
O O4 0.860499 0.343080 0.503805
O O5 0.880000 0.880048 0.250000
O O6 0.804384 0.816015 0.024132
O O7 0.933109 0.866218 0.000000
O O8 0.881959 0.940980 0.000000
O O9 0.073989 0.801882 0.750000
O O10 0.132128 0.867873 0.000000
O O11 0.080097 0.748131 0.006051
O O12 0.602679 0.858923 0.250000
O O13 0.545496 0.880615 0.024540
O O14 0.589242 0.794621 0.000000
O O15 0.600923 0.075418 0.750000
O O16 0.536367 0.072734 0.500000
O O17 0.588147 0.004872 0.505005
O O18 0.412763 0.468694 0.250000
O O19 0.463625 0.536376 0.500000
#
# Coordination Sequence:
#
# PCOD9585859 Si02
#       6
#    12  12  12  12  12  12
#     4  11  20  31  45  65  94 128 167 211 258 307
#     4  10  19  29  42  62  89 123 161 204 250 297
#     4   9  17  29  46  67  92 123 160 199 242 286
#     4  10  20  33  53  79 105 130 159 193 233 276
#     4  10  18  30  48  70  95 127 163 203 247 290
#     4  10  20  34  53  79 105 131 160 194 233 278
#
# _framework density 16.753464999999998
#
# number of rings (size 3 to 8) (size 9 to 14) (size 15 to 20)
#    0.000    2.000    0.000    8.333    0.000    4.667 
#    0.000    0.000    0.000    1.333    0.000    2.333 
#    0.000    0.000    0.000    0.000    0.000    0.000 
#
# Total GULP energy -401280.882536 kJ/mol
# GULP energy per Si atom -5573.345591 kJ/mol
# Density = 1.671533 g / cm^3
# Si number density = 16.753465 Si / 1000 Ang^3
#
#
#
# Elastic Constant Matrix: (Units=GPa)
#
#
# Indices 1 2 3 4 5 6 
#
# 1 102.7916 56.7859 44.4752 -0.0001 0.0000 0.0000
# 2 56.7859 102.7916 44.4752 0.0001 0.0000 0.0000
# 3 44.4752 44.4752 108.3701 0.0000 0.0000 0.0000
# 4 -0.0001 0.0001 0.0000 15.9663 0.0000 0.0000
# 5 0.0000 0.0000 0.0000 0.0000 15.9663 -0.0001
# 6 0.0000 0.0000 0.0000 0.0000 -0.0001 23.0028
#
#
#
# Elastic Compliance Matrix: (Units=1/GPa)
#
#
# Indices 1 2 3 4 5 6 
#
# 1 0.014931 -0.006806 -0.003335 0.000000 0.000000 0.000000
# 2 -0.006806 0.014931 -0.003335 0.000000 0.000000 0.000000
# 3 -0.003335 -0.003335 0.011965 0.000000 0.000000 0.000000
# 4 0.000000 0.000000 0.000000 0.062632 0.000000 0.000000
# 5 0.000000 0.000000 0.000000 0.000000 0.062632 0.000000
# 6 0.000000 0.000000 0.000000 0.000000 0.000000 0.043473
#
#
# Mechanical properties :
#
#
# Convention : Reuss Voigt Hill
#
# Bulk Modulus (GPa) = 67.21879 67.26955 67.24417
# Shear Modulus (GPa) = 20.62097 22.20156 21.41127
#
# Velocity S-wave (km/s) = 3.51215 3.64427 3.57882
# Velocity P-wave (km/s) = 7.52704 7.61232 7.56980
#
# Compressibility (1/GPa) = 0.01487679
#
# Stress axis : x y z
#
# Youngs Moduli (GPa) = 66.97529 66.97529 83.57914
#
# Poissons Ratio (x) = 0.45581 0.27871
# Poissons Ratio (y) = 0.45581 0.27871
# Poissons Ratio (z) = 0.22334 0.22334
#
# Static dielectric constant tensor:
#      x y z
#    x 1.591070 0.000000 0.000000 
#    y 0.000000 1.591070 0.000000 
#    z 0.000000 0.000000 1.557700 
# 
# From -- ./inp_files/1008.got.cif
#   From: 2010.05.17/outbox.cif.g08.bks.cpg/sg188_1_cif.got.tgz:1008.got - 2010.05.20 12:11:46.
