data_PCOD9585102
_publ_section_title
;
Structure prediction by ZEFSAII (Michael W. Deem and Ramdas Pophale) SiO2 
 PCOD9585102
Probable space group: P 6 C C
;
_chemical_formula_sum "Si O2"
_cell_formula_units_Z 72
_cell_length_a 23.066042
_cell_length_b 23.066042
_cell_length_c 9.385327
_cell_angle_alpha 90.000000
_cell_angle_beta 90.000000
_cell_angle_gamma 120.000000
_cell_volume 4324.403373
_symmetry_space_group_name_H-M "P 6 C C"
_symmetry_group_IT_number 184
_symmetry_cell_setting 'hexagonal'
loop_
_space_group_symop_operation_xyz
x,y,z
x-y,x,z
-y,x-y,z
-x,-y,z
-x+y,-x,z
y,-x+y,z
-x+y,y,1/2+z
x,x-y,1/2+z
-y,-x,1/2+z
y,x,1/2+z
x-y,-y,1/2+z
-x,-x+y,1/2+z
loop_
_atom_site_type_symbol
_atom_site_label
_atom_site_fract_x
_atom_site_fract_y
_atom_site_fract_z
Si Si1 0.783536 0.710690 0.939270
Si Si2 0.930144 0.405603 0.573054
Si Si3 0.615457 0.743427 0.700644
Si Si4 0.591832 0.074418 0.727279
Si Si5 0.619781 0.741244 0.185403
Si Si6 0.920388 0.717073 0.943472
O O1 0.737968 0.645332 0.842182
O O2 0.862013 0.734758 0.916783
O O3 0.767792 0.770034 0.914407
O O4 0.762035 0.677539 0.094937
O O5 0.898290 0.445032 0.654540
O O6 0.933230 0.415699 0.400644
O O7 0.894682 0.328207 0.617138
O O8 0.003397 0.438098 0.646718
O O9 0.553459 0.669802 0.689917
O O10 0.595315 0.800122 0.681383
O O11 0.649627 0.752798 0.853497
O O12 0.690706 0.776981 0.103164
#
# Coordination Sequence:
#
# PCOD9585102 Si02
#       6
#    12  12  12  12  12  12
#     4  10  20  30  53  72 107 133 179 213 269 311
#     4  11  22  35  52  78 107 137 171 206 257 310
#     4  10  21  34  52  75 103 137 175 215 260 304
#     4  11  22  35  52  78 107 137 171 206 257 310
#     4  10  21  34  52  75 103 137 175 215 260 304
#     4  10  18  34  47  78  99 141 169 221 261 317
#
# _framework density 16.649695999999999
#
# number of rings (size 3 to 8) (size 9 to 14) (size 15 to 20)
#    0.000    1.667    1.667    5.000    4.667    0.000 
#    0.000    0.000    0.000    1.000    0.000    0.000 
#    0.000    8.000    0.000    0.000    0.000    1.333 
#
# Total GULP energy -401005.999025 kJ/mol
# GULP energy per Si atom -5569.527764 kJ/mol
# Density = 1.661180 g / cm^3
# Si number density = 16.649696 Si / 1000 Ang^3
#
#
#
# Elastic Constant Matrix: (Units=GPa)
#
#
# Indices 1 2 3 4 5 6 
#
# 1 111.0888 61.5538 24.2218 0.0000 0.0000 0.0000
# 2 61.5538 111.0888 24.2218 0.0000 0.0000 0.0000
# 3 24.2218 24.2218 72.6425 0.0000 0.0000 0.0000
# 4 0.0000 0.0000 0.0000 17.1742 0.0000 0.0000
# 5 0.0000 0.0000 0.0000 0.0000 17.1742 0.0000
# 6 0.0000 0.0000 0.0000 0.0000 0.0000 24.7675
#
#
#
# Elastic Compliance Matrix: (Units=1/GPa)
#
#
# Indices 1 2 3 4 5 6 
#
# 1 0.013289 -0.006899 -0.002131 0.000000 0.000000 0.000000
# 2 -0.006899 0.013289 -0.002131 0.000000 0.000000 0.000000
# 3 -0.002131 -0.002131 0.015187 0.000000 0.000000 0.000000
# 4 0.000000 0.000000 0.000000 0.058227 0.000000 0.000000
# 5 0.000000 0.000000 0.000000 0.000000 0.058227 0.000000
# 6 0.000000 0.000000 0.000000 0.000000 0.000000 0.040375
#
#
# Mechanical properties :
#
#
# Convention : Reuss Voigt Hill
#
# Bulk Modulus (GPa) = 51.42859 57.20165 54.31512
# Shear Modulus (GPa) = 21.98810 24.14473 23.06641
#
# Velocity S-wave (km/s) = 3.63799 3.81223 3.72613
# Velocity P-wave (km/s) = 6.97153 7.33539 7.15578
#
# Compressibility (1/GPa) = 0.01944444
#
# Stress axis : x y z
#
# Youngs Moduli (GPa) = 75.25044 75.25044 65.84588
#
# Poissons Ratio (x) = 0.51913 0.14030
# Poissons Ratio (y) = 0.51913 0.14030
# Poissons Ratio (z) = 0.16034 0.16034
#
# Static dielectric constant tensor:
#      x y z
#    x 1.569440 0.000000 0.000000 
#    y 0.000000 1.569440 0.000000 
#    z 0.000000 0.000000 1.587380 
# 
# From -- ./inp_files/360.got.cif
#   From: 2010.05.17/outbox.cif.g08.bks.cpg/sg184_cif.got.tgz:360.got - 2010.05.20 12:04:40.
