data_PCOD9585389
_publ_section_title
;
Structure prediction by ZEFSAII (Michael W. Deem and Ramdas Pophale) SiO2 
 PCOD9585389
Probable space group: P 63 M C
;
_chemical_formula_sum "Si O2"
_cell_formula_units_Z 34
_cell_length_a 10.957088
_cell_length_b 10.957088
_cell_length_c 19.015071
_cell_angle_alpha 90.000000
_cell_angle_beta 90.000000
_cell_angle_gamma 120.000000
_cell_volume 1977.055597
_symmetry_space_group_name_H-M "P 63 M C"
_symmetry_group_IT_number 186
_symmetry_cell_setting 'hexagonal'
loop_
_space_group_symop_operation_xyz
x,y,z
x-y,x,1/2+z
-y,x-y,z
-x,-y,1/2+z
-x+y,-x,z
y,-x+y,1/2+z
-x+y,y,z
x,x-y,z
-y,-x,z
y,x,1/2+z
x-y,-y,1/2+z
-x,-x+y,1/2+z
loop_
_atom_site_type_symbol
_atom_site_label
_atom_site_fract_x
_atom_site_fract_y
_atom_site_fract_z
Si Si1 0.507784 0.492217 0.200140
Si Si2 0.710191 0.713706 0.315931
Si Si3 0.983628 0.491814 0.416259
Si Si4 0.666667 0.333334 0.188018
Si Si5 0.575375 0.150749 0.558397
Si Si6 0.333333 0.666668 0.858039
O O1 0.619806 0.617725 0.249934
O O2 0.585651 0.414349 0.167296
O O3 0.452404 0.547597 0.137305
O O4 0.747052 0.873526 0.306356
O O5 0.602747 0.644531 0.381727
O O6 0.851444 0.702888 0.324443
O O7 0.969681 0.484841 0.499809
O O8 0.823256 0.411628 0.387027
O O9 0.666667 0.333334 0.273958
O O10 0.742860 0.257141 0.547347
#
# Coordination Sequence:
#
# PCOD9585389 Si02
#       6
#     6  12   6   2   6   2
#     4  11  20  37  58  81 112 148 190 235 276 343
#     4  11  21  35  57  83 112 144 186 237 289 333
#     4  11  18  37  62  79 108 148 192 228 274 350
#     4  12  18  36  63  81  99 154 197 226 276 342
#     4  10  20  34  58  86 108 146 189 225 281 335
#     4  12  12  36  69  81  87 142 206 226 243 348
#
# _framework density 17.197289999999999
#
# number of rings (size 3 to 8) (size 9 to 14) (size 15 to 20)
#    0.353    0.706    8.824    1.412    0.000    0.000 
#   11.647    0.000    0.000    0.000    0.000    0.000 
#    0.000    0.000    0.000    0.000    0.000    0.000 
#
# Total GULP energy -189547.817844 kJ/mol
# GULP energy per Si atom -5574.935819 kJ/mol
# Density = 1.715815 g / cm^3
# Si number density = 17.197290 Si / 1000 Ang^3
#
#
#
# Elastic Constant Matrix: (Units=GPa)
#
#
# Indices 1 2 3 4 5 6 
#
# 1 79.9448 26.0559 25.3656 0.0000 0.0000 0.0001
# 2 26.0559 79.9450 25.3655 0.0000 0.0000 0.0000
# 3 25.3656 25.3655 86.5759 0.0000 0.0000 0.0000
# 4 0.0000 0.0000 0.0000 22.5274 0.0000 0.0000
# 5 0.0000 0.0000 0.0000 0.0000 22.5275 0.0000
# 6 0.0001 0.0000 0.0000 0.0000 0.0000 26.9445
#
#
#
# Elastic Compliance Matrix: (Units=1/GPa)
#
#
# Indices 1 2 3 4 5 6 
#
# 1 0.014765 -0.003792 -0.003215 0.000000 0.000000 0.000000
# 2 -0.003792 0.014765 -0.003215 0.000000 0.000000 0.000000
# 3 -0.003215 -0.003215 0.013434 0.000000 0.000000 0.000000
# 4 0.000000 0.000000 0.000000 0.044390 0.000000 0.000000
# 5 0.000000 0.000000 0.000000 0.000000 0.044390 0.000000
# 6 0.000000 0.000000 0.000000 0.000000 0.000000 0.037113
#
#
# Mechanical properties :
#
#
# Convention : Reuss Voigt Hill
#
# Bulk Modulus (GPa) = 44.40473 44.44887 44.42680
# Shear Modulus (GPa) = 25.40556 25.71180 25.55868
#
# Velocity S-wave (km/s) = 3.84774 3.87086 3.85931
# Velocity P-wave (km/s) = 6.75403 6.77352 6.76378
#
# Compressibility (1/GPa) = 0.02252012
#
# Stress axis : x y z
#
# Youngs Moduli (GPa) = 67.72963 67.72979 74.43617
#
# Poissons Ratio (x) = 0.25684 0.23930
# Poissons Ratio (y) = 0.25684 0.23930
# Poissons Ratio (z) = 0.21774 0.21774
#
# Static dielectric constant tensor:
#      x y z
#    x 1.583630 0.000000 0.000000 
#    y 0.000000 1.583630 0.000000 
#    z 0.000000 0.000000 1.586780 
# 
# From -- ./inp_files/2763.got.cif
#   From: 2010.05.17/outbox.cif.g08.bks.cpg/sg186_2_cif.got.tgz:2763.got - 2010.05.20 12:07:08.
