data_PCOD9585745
_publ_section_title
;
Structure prediction by ZEFSAII (Michael W. Deem and Ramdas Pophale) SiO2 
 PCOD9585745
Probable space group: P -6 M 2
;
_chemical_formula_sum "Si O2"
_cell_formula_units_Z 69
_cell_length_a 21.232039
_cell_length_b 21.232039
_cell_length_c 9.915486
_cell_angle_alpha 90.000000
_cell_angle_beta 90.000000
_cell_angle_gamma 120.000000
_cell_volume 3871.043431
_symmetry_space_group_name_H-M "P -6 M 2"
_symmetry_group_IT_number 187
_symmetry_cell_setting 'hexagonal'
loop_
_space_group_symop_operation_xyz
x,y,z
-x+y,-x,-z
-y,x-y,z
x,y,-z
-x+y,-x,z
-y,x-y,-z
-y,-x,-z
-x+y,y,-z
x,x-y,-z
-x+y,y,z
x,x-y,z
-y,-x,z
loop_
_atom_site_type_symbol
_atom_site_label
_atom_site_fract_x
_atom_site_fract_y
_atom_site_fract_z
Si Si1 0.663660 0.472962 0.500000
Si Si2 0.787016 0.818061 0.342045
Si Si3 0.552910 0.447091 0.000000
Si Si4 0.814901 0.185099 0.154068
Si Si5 0.051722 0.680868 0.662845
Si Si6 0.901977 0.803953 0.841646
Si Si7 0.333287 0.810648 0.664119
Si Si8 0.901943 0.349713 0.242941
O O1 0.613577 0.386424 0.500000
O O2 0.747651 0.495301 0.500000
O O3 0.643282 0.503869 0.371161
O O4 0.801223 0.807052 0.500000
O O5 0.782874 0.891437 0.336994
O O6 0.707626 0.750418 0.303356
O O7 0.850165 0.825163 0.242807
O O8 0.607881 0.502155 0.117765
O O9 0.858206 0.141795 0.157933
O O10 0.862731 0.263431 0.218822
O O11 0.802399 0.197602 0.000000
O O12 0.047762 0.675346 0.500000
O O13 0.127004 0.685154 0.704852
O O14 0.985535 0.608564 0.724401
O O15 0.913934 0.827867 0.000000
O O16 0.334231 0.810856 0.500000
O O17 0.412054 0.824108 0.708619
O O18 0.268293 0.731708 0.706456
#
# Coordination Sequence:
#
# PCOD9585745 Si02
#       8
#     6  12   3   6  12   6  12  12
#     4  12  25  40  62  86 117 152 202 256 312 368
#     4  10  21  39  63  92 128 163 202 254 311 375
#     4  12  28  40  60  84 128 168 196 248 316 378
#     4  11  22  40  64  88 121 158 205 257 306 369
#     4  10  20  34  58  91 122 155 195 254 311 358
#     4  11  23  39  63  93 121 164 209 256 305 370
#     4   9  17  29  48  78 120 162 195 232 289 359
#     4  12  23  40  62  89 119 158 200 255 310 367
#
# _framework density 17.824650999999999
#
# number of rings (size 3 to 8) (size 9 to 14) (size 15 to 20)
#    0.000    1.391    5.217    1.043    1.217    3.130 
#    2.087    0.000    0.000    0.000    0.000    0.000 
#    0.000    0.000    0.000    0.000    0.000    0.000 
#
# Total GULP energy -384121.228216 kJ/mol
# GULP energy per Si atom -5566.974322 kJ/mol
# Density = 1.778408 g / cm^3
# Si number density = 17.824651 Si / 1000 Ang^3
#
#
#
# Elastic Constant Matrix: (Units=GPa)
#
#
# Indices 1 2 3 4 5 6 
#
# 1 96.8769 40.5496 40.3153 0.0000 0.0009 0.0000
# 2 40.5496 96.8769 40.3153 0.0000 -0.0009 0.0000
# 3 40.3153 40.3153 96.7102 0.0000 0.0000 0.0000
# 4 0.0000 0.0000 0.0000 6.1843 0.0000 -0.0009
# 5 0.0009 -0.0009 0.0000 0.0000 6.1843 0.0000
# 6 0.0000 0.0000 0.0000 -0.0009 0.0000 28.1637
#
#
#
# Elastic Compliance Matrix: (Units=1/GPa)
#
#
# Indices 1 2 3 4 5 6 
#
# 1 0.013693 -0.004060 -0.004016 0.000000 -0.000003 0.000000
# 2 -0.004060 0.013693 -0.004016 0.000000 0.000003 0.000000
# 3 -0.004016 -0.004016 0.013688 0.000000 0.000000 0.000000
# 4 0.000000 0.000000 0.000000 0.161700 0.000000 0.000005
# 5 -0.000003 0.000003 0.000000 0.000000 0.161700 0.000000
# 6 0.000000 0.000000 0.000000 0.000005 0.000000 0.035507
#
#
# Mechanical properties :
#
#
# Convention : Reuss Voigt Hill
#
# Bulk Modulus (GPa) = 59.20249 59.20270 59.20260
# Shear Modulus (GPa) = 11.63347 19.39204 15.51276
#
# Velocity S-wave (km/s) = 2.55750 3.30196 2.95328
# Velocity P-wave (km/s) = 6.48128 6.91544 6.70188
#
# Compressibility (1/GPa) = 0.01689118
#
# Stress axis : x y z
#
# Youngs Moduli (GPa) = 73.03013 73.03013 73.05646
#
# Poissons Ratio (x) = 0.29653 0.29336
# Poissons Ratio (y) = 0.29653 0.29336
# Poissons Ratio (z) = 0.29325 0.29325
#
# Static dielectric constant tensor:
#      x y z
#    x 1.603170 0.000000 0.000000 
#    y 0.000000 1.603170 0.000000 
#    z 0.000000 0.000000 1.597490 
# 
# From -- ./inp_files/820.got.cif
#   From: 2010.05.17/outbox.cif.g08.bks.cpg/sg187_1_cif.got.tgz:820.got - 2010.05.20 12:09:04.
