data_PCOD9585143
_publ_section_title
;
Structure prediction by ZEFSAII (Michael W. Deem and Ramdas Pophale) SiO2 
 PCOD9585143
Probable space group: P 6 C C
;
_chemical_formula_sum "Si O2"
_cell_formula_units_Z 66
_cell_length_a 21.001498
_cell_length_b 21.001498
_cell_length_c 9.257212
_cell_angle_alpha 90.000000
_cell_angle_beta 90.000000
_cell_angle_gamma 120.000000
_cell_volume 3535.992930
_symmetry_space_group_name_H-M "P 6 C C"
_symmetry_group_IT_number 184
_symmetry_cell_setting 'hexagonal'
loop_
_space_group_symop_operation_xyz
x,y,z
x-y,x,z
-y,x-y,z
-x,-y,z
-x+y,-x,z
y,-x+y,z
-x+y,y,1/2+z
x,x-y,1/2+z
-y,-x,1/2+z
y,x,1/2+z
x-y,-y,1/2+z
-x,-x+y,1/2+z
loop_
_atom_site_type_symbol
_atom_site_label
_atom_site_fract_x
_atom_site_fract_y
_atom_site_fract_z
Si Si1 0.839240 0.964521 0.369580
Si Si2 0.500000 0.000000 0.415776
Si Si3 0.102507 0.372644 0.219856
Si Si4 0.005178 0.222777 0.610221
Si Si5 0.764365 0.620581 0.048220
Si Si6 0.958921 0.389918 0.169508
O O1 0.860704 0.904950 0.403765
O O2 0.774368 0.956745 0.470866
O O3 0.821859 0.966434 0.203392
O O4 0.520357 0.952738 0.308008
O O5 0.432073 0.959170 0.524489
O O6 0.048936 0.284352 0.213645
O O7 0.169193 0.390649 0.107146
O O8 0.138549 0.397177 0.379160
O O9 0.040284 0.395869 0.182641
O O10 0.078298 0.295364 0.563881
O O11 0.692065 0.583142 0.150941
#
# Coordination Sequence:
#
# PCOD9585143 Si02
#       6
#    12   6  12  12  12  12
#     4  12  23  37  48  64  85 129 190 248 298 346
#     4  10  20  40  64  82 126 162 200 242 294 362
#     4  11  23  37  58  87 121 150 190 241 294 353
#     4  11  24  37  53  71 103 144 185 232 300 362
#     4  11  23  37  58  87 121 150 190 241 294 353
#     4  10  22  39  60  92 125 162 202 244 298 362
#
# _framework density 18.665194
#
# number of rings (size 3 to 8) (size 9 to 14) (size 15 to 20)
#    0.000    1.091    3.636    3.455    5.091    0.000 
#    0.000    1.818    0.000    0.000    0.000    0.000 
#   36.364    0.000    0.000    0.000    0.000    0.000 
#
# Total GULP energy -367823.066284 kJ/mol
# GULP energy per Si atom -5573.076762 kJ/mol
# Density = 1.862271 g / cm^3
# Si number density = 18.665194 Si / 1000 Ang^3
#
#
#
# Elastic Constant Matrix: (Units=GPa)
#
#
# Indices 1 2 3 4 5 6 
#
# 1 55.8116 28.7433 24.5464 0.0000 0.0000 0.0000
# 2 28.7433 55.8116 24.5464 0.0000 0.0000 0.0000
# 3 24.5464 24.5464 113.0855 0.0000 0.0000 0.0000
# 4 0.0000 0.0000 0.0000 25.8942 0.0000 0.0000
# 5 0.0000 0.0000 0.0000 0.0000 25.8942 0.0000
# 6 0.0000 0.0000 0.0000 0.0000 0.0000 13.5341
#
#
#
# Elastic Compliance Matrix: (Units=1/GPa)
#
#
# Indices 1 2 3 4 5 6 
#
# 1 0.025238 -0.011706 -0.002937 0.000000 0.000000 0.000000
# 2 -0.011706 0.025238 -0.002937 0.000000 0.000000 0.000000
# 3 -0.002937 -0.002937 0.010118 0.000000 0.000000 0.000000
# 4 0.000000 0.000000 0.000000 0.038619 0.000000 0.000000
# 5 0.000000 0.000000 0.000000 0.000000 0.038619 0.000000
# 6 0.000000 0.000000 0.000000 0.000000 0.000000 0.073887
#
#
# Mechanical properties :
#
#
# Convention : Reuss Voigt Hill
#
# Bulk Modulus (GPa) = 39.31907 42.26457 40.79182
# Shear Modulus (GPa) = 19.58045 22.85600 21.21823
#
# Velocity S-wave (km/s) = 3.24240 3.50312 3.37528
# Velocity P-wave (km/s) = 5.92695 6.24941 6.09031
#
# Compressibility (1/GPa) = 0.02543295
#
# Stress axis : x y z
#
# Youngs Moduli (GPa) = 39.62304 39.62304 98.83375
#
# Poissons Ratio (x) = 0.46382 0.29030
# Poissons Ratio (y) = 0.46382 0.29030
# Poissons Ratio (z) = 0.11638 0.11638
#
# Static dielectric constant tensor:
#      x y z
#    x 1.665500 0.000000 0.000000 
#    y 0.000000 1.665500 0.000000 
#    z 0.000000 0.000000 1.698240 
# 
# From -- ./inp_files/302.got.cif
#   From: 2010.05.17/outbox.cif.g08.bks.cpg/sg184_cif.got.tgz:302.got - 2010.05.20 12:04:40.
