data_PCOD9585651
_publ_section_title
;
Structure prediction by ZEFSAII (Michael W. Deem and Ramdas Pophale) SiO2 
 PCOD9585651
Probable space group: P -6 M 2
;
_chemical_formula_sum "Si O2"
_cell_formula_units_Z 66
_cell_length_a 12.638844
_cell_length_b 12.638844
_cell_length_c 29.550071
_cell_angle_alpha 90.000000
_cell_angle_beta 90.000000
_cell_angle_gamma 120.000000
_cell_volume 4087.933923
_symmetry_space_group_name_H-M "P -6 M 2"
_symmetry_group_IT_number 187
_symmetry_cell_setting 'hexagonal'
loop_
_space_group_symop_operation_xyz
x,y,z
-x+y,-x,-z
-y,x-y,z
x,y,-z
-x+y,-x,z
-y,x-y,-z
-y,-x,-z
-x+y,y,-z
x,x-y,-z
-x+y,y,z
x,x-y,z
-y,-x,z
loop_
_atom_site_type_symbol
_atom_site_label
_atom_site_fract_x
_atom_site_fract_y
_atom_site_fract_z
Si Si1 0.332916 0.917845 0.000000
Si Si2 0.333143 0.415097 0.176682
Si Si3 0.251312 0.999676 0.911553
Si Si4 0.666431 0.586414 0.451390
Si Si5 0.666422 0.586680 0.352187
Si Si6 0.748004 0.999462 0.264822
O O1 0.314015 0.979633 0.955522
O O2 0.222756 0.777245 0.000000
O O3 0.462041 0.924082 0.000000
O O4 0.221949 0.443897 0.175899
O O5 0.461684 0.538316 0.174791
O O6 0.312729 0.329810 0.133447
O O7 0.317939 0.339914 0.222399
O O8 0.110915 0.889086 0.911598
O O9 0.256907 0.128454 0.912505
O O10 0.662023 0.643367 0.500000
O O11 0.788991 0.577982 0.452156
O O12 0.549124 0.450877 0.450775
O O13 0.665582 0.640186 0.402153
O O14 0.781793 0.563585 0.351448
O O15 0.540709 0.459292 0.346654
O O16 0.687318 0.677215 0.311185
O O17 0.875705 0.124296 0.259040
O O18 0.769316 0.884658 0.266571
#
# Coordination Sequence:
#
# PCOD9585651 Si02
#       6
#     6  12  12  12  12  12
#     4  10  20  34  54  78 104 134 168 208 250 290
#     4  10  20  34  53  75  98 123 152 191 238 286
#     4  10  20  34  54  78 104 134 167 204 241 279
#     4   8  12  18  31  54  84 115 144 175 215 266
#     4   9  16  26  42  65  92 119 146 180 226 279
#     4  10  20  33  49  67  89 120 157 196 233 271
#
# _framework density 16.145076
#
# number of rings (size 3 to 8) (size 9 to 14) (size 15 to 20)
#    0.000    2.545    0.000    2.909    0.000    2.182 
#    0.000    4.545    0.000   10.727    0.000    0.000 
#    0.000    1.455    0.000    0.000    0.000    0.000 
#
# Total GULP energy -367662.441523 kJ/mol
# GULP energy per Si atom -5570.643053 kJ/mol
# Density = 1.610833 g / cm^3
# Si number density = 16.145076 Si / 1000 Ang^3
#
#
#
# Elastic Constant Matrix: (Units=GPa)
#
#
# Indices 1 2 3 4 5 6 
#
# 1 89.5698 61.1431 73.0313 0.0000 0.0002 0.0000
# 2 61.1431 89.5698 73.0313 0.0000 -0.0002 0.0000
# 3 73.0313 73.0313 186.7954 0.0000 0.0000 0.0000
# 4 0.0000 0.0000 0.0000 20.1112 0.0000 -0.0002
# 5 0.0002 -0.0002 0.0000 0.0000 20.1112 0.0000
# 6 0.0000 0.0000 0.0000 -0.0002 0.0000 14.2133
#
#
#
# Elastic Compliance Matrix: (Units=1/GPa)
#
#
# Indices 1 2 3 4 5 6 
#
# 1 0.022931 -0.012248 -0.004177 0.000000 0.000000 0.000000
# 2 -0.012248 0.022931 -0.004177 0.000000 0.000000 0.000000
# 3 -0.004177 -0.004177 0.008619 0.000000 0.000000 0.000000
# 4 0.000000 0.000000 0.000000 0.049724 0.000000 0.000001
# 5 0.000000 0.000000 0.000000 0.000000 0.049724 0.000000
# 6 0.000000 0.000000 0.000000 0.000001 0.000000 0.070356
#
#
# Mechanical properties :
#
#
# Convention : Reuss Voigt Hill
#
# Bulk Modulus (GPa) = 75.30990 86.70517 81.00754
# Shear Modulus (GPa) = 18.52453 21.46909 19.99681
#
# Velocity S-wave (km/s) = 3.39097 3.65054 3.52315
# Velocity P-wave (km/s) = 7.87900 8.46103 8.17519
#
# Compressibility (1/GPa) = 0.01327847
#
# Stress axis : x y z
#
# Youngs Moduli (GPa) = 43.60986 43.60986 116.01748
#
# Poissons Ratio (x) = 0.53412 0.48457
# Poissons Ratio (y) = 0.53412 0.48457
# Poissons Ratio (z) = 0.18215 0.18215
#
# Static dielectric constant tensor:
#      x y z
#    x 1.504580 0.000000 0.000000 
#    y 0.000000 1.504580 0.000000 
#    z 0.000000 0.000000 1.579960 
# 
# From -- ./inp_files/4401.got.cif
#   From: 2010.05.17/outbox.cif.g08.bks.cpg/sg187_3_cif.got.tgz:4401.got - 2010.05.20 12:09:04.
