data_PCOD9585601
_publ_section_title
;
Structure prediction by ZEFSAII (Michael W. Deem and Ramdas Pophale) SiO2 
 PCOD9585601
Probable space group: P -6 M 2
;
_chemical_formula_sum "Si O2"
_cell_formula_units_Z 66
_cell_length_a 12.969803
_cell_length_b 12.969803
_cell_length_c 28.626067
_cell_angle_alpha 90.000000
_cell_angle_beta 90.000000
_cell_angle_gamma 120.000000
_cell_volume 4170.221032
_symmetry_space_group_name_H-M "P -6 M 2"
_symmetry_group_IT_number 187
_symmetry_cell_setting 'hexagonal'
loop_
_space_group_symop_operation_xyz
x,y,z
-x+y,-x,-z
-y,x-y,z
x,y,-z
-x+y,-x,z
-y,x-y,-z
-y,-x,-z
-x+y,y,-z
x,x-y,-z
-x+y,y,z
x,x-y,z
-y,-x,z
loop_
_atom_site_type_symbol
_atom_site_label
_atom_site_fract_x
_atom_site_fract_y
_atom_site_fract_z
Si Si1 0.666530 0.090274 0.671360
Si Si2 0.422697 0.089617 0.779028
Si Si3 0.333309 0.421238 0.137470
Si Si4 0.578832 0.666785 0.412980
Si Si5 0.245101 0.245849 0.500000
Si Si6 0.244451 0.000085 0.053508
O O1 0.561395 0.122790 0.667701
O O2 0.793309 0.206692 0.661717
O O3 0.666247 0.052794 0.725132
O O4 0.634038 0.985941 0.634504
O O5 0.557957 0.115913 0.783619
O O6 0.417951 0.208976 0.787710
O O7 0.346290 0.989167 0.816590
O O8 0.216572 0.433144 0.140412
O O9 0.450596 0.549405 0.134143
O O10 0.319736 0.342680 0.091937
O O11 0.559275 0.779638 0.409750
O O12 0.453902 0.546099 0.421707
O O13 0.671796 0.693625 0.454813
O O14 0.253812 0.126906 0.500000
O O15 0.107496 0.214991 0.500000
O O16 0.109035 0.890966 0.057653
O O17 0.248434 0.124217 0.061240
O O18 0.282789 0.998220 0.000000
#
# Coordination Sequence:
#
# PCOD9585601 Si02
#       6
#    12  12  12  12   6  12
#     4   9  17  30  49  72  96 122 154 195 242 287
#     4   9  17  30  49  71  93 119 154 197 243 287
#     4  10  20  32  46  66  94 128 162 193 227 271
#     4  10  20  33  50  72  99 131 164 196 230 273
#     4  10  20  34  52  72  94 122 158 200 244 288
#     4   9  17  30  49  71  92 115 147 190 238 283
#
# _framework density 15.826498000000001
#
# number of rings (size 3 to 8) (size 9 to 14) (size 15 to 20)
#    0.000    2.545    0.000    2.364    0.000    3.273 
#    0.000    0.909    0.000    6.909    0.000    0.000 
#    0.000    0.000    0.000    0.000    0.000    0.000 
#
# Total GULP energy -367937.256375 kJ/mol
# GULP energy per Si atom -5574.806915 kJ/mol
# Density = 1.579048 g / cm^3
# Si number density = 15.826498 Si / 1000 Ang^3
#
#
#
# Elastic Constant Matrix: (Units=GPa)
#
#
# Indices 1 2 3 4 5 6 
#
# 1 100.5796 63.2145 80.7177 0.0000 0.0003 0.0000
# 2 63.2145 100.5796 80.7177 0.0000 -0.0003 0.0000
# 3 80.7177 80.7177 126.5968 0.0000 0.0000 0.0000
# 4 0.0000 0.0000 0.0000 25.8111 0.0000 -0.0003
# 5 0.0003 -0.0003 0.0000 0.0000 25.8111 0.0000
# 6 0.0000 0.0000 0.0000 -0.0003 0.0000 18.6826
#
#
#
# Elastic Compliance Matrix: (Units=1/GPa)
#
#
# Indices 1 2 3 4 5 6 
#
# 1 0.021597 -0.005166 -0.010476 0.000000 0.000000 0.000000
# 2 -0.005166 0.021597 -0.010476 0.000000 0.000000 0.000000
# 3 -0.010476 -0.010476 0.021258 0.000000 0.000000 0.000000
# 4 0.000000 0.000000 0.000000 0.038743 0.000000 0.000001
# 5 0.000000 0.000000 0.000000 0.000000 0.038743 0.000000
# 6 0.000000 0.000000 0.000000 0.000001 0.000000 0.053526
#
#
# Mechanical properties :
#
#
# Convention : Reuss Voigt Hill
#
# Bulk Modulus (GPa) = 81.86751 86.33954 84.10353
# Shear Modulus (GPa) = 19.85936 20.93472 20.39704
#
# Velocity S-wave (km/s) = 3.54618 3.64093 3.59387
# Velocity P-wave (km/s) = 8.28297 8.50572 8.39509
#
# Compressibility (1/GPa) = 0.01221486
#
# Stress axis : x y z
#
# Youngs Moduli (GPa) = 46.30366 46.30366 47.04145
#
# Poissons Ratio (x) = 0.23922 0.49280
# Poissons Ratio (y) = 0.23922 0.49280
# Poissons Ratio (z) = 0.48507 0.48507
#
# Static dielectric constant tensor:
#      x y z
#    x 1.498550 0.000000 0.000000 
#    y 0.000000 1.498550 0.000000 
#    z 0.000000 0.000000 1.528940 
# 
# From -- ./inp_files/4447.got.cif
#   From: 2010.05.17/outbox.cif.g08.bks.cpg/sg187_3_cif.got.tgz:4447.got - 2010.05.20 12:09:04.
