data_PCOD9585310
_publ_section_title
;
Structure prediction by ZEFSAII (Michael W. Deem and Ramdas Pophale) SiO2 
 PCOD9585310
Probable space group: P 63 C M
;
_chemical_formula_sum "Si O2"
_cell_formula_units_Z 66
_cell_length_a 20.862775
_cell_length_b 20.862775
_cell_length_c 8.447560
_cell_angle_alpha 90.000000
_cell_angle_beta 90.000000
_cell_angle_gamma 120.000000
_cell_volume 3184.241993
_symmetry_space_group_name_H-M "P 63 C M"
_symmetry_group_IT_number 185
_symmetry_cell_setting 'hexagonal'
loop_
_space_group_symop_operation_xyz
x,y,z
x-y,x,1/2+z
-y,x-y,z
-x,-y,1/2+z
-x+y,-x,z
y,-x+y,1/2+z
-x+y,y,1/2+z
x,x-y,1/2+z
-y,-x,1/2+z
y,x,z
x-y,-y,z
-x,-x+y,z
loop_
_atom_site_type_symbol
_atom_site_label
_atom_site_fract_x
_atom_site_fract_y
_atom_site_fract_z
Si Si1 0.724781 0.724781 0.884960
Si Si2 0.729086 0.000000 0.750061
Si Si3 0.000000 0.641240 0.058732
Si Si4 0.156253 0.836732 0.288214
Si Si5 0.617850 0.090969 0.521081
Si Si6 0.216009 0.787906 0.046917
Si Si7 0.370267 0.505690 0.151617
O O1 0.675504 0.675504 0.734285
O O2 0.800144 0.723957 0.863754
O O3 0.703068 0.703068 0.068676
O O4 0.804717 0.076385 0.772026
O O5 0.681185 0.000000 0.898122
O O6 0.929087 0.560815 0.053809
O O7 0.151035 0.801227 0.116907
O O8 0.205885 0.803772 0.364801
O O9 0.703765 0.139729 0.576096
O O10 0.576707 0.129617 0.605685
O O11 0.624250 0.112117 0.335000
O O12 0.570258 0.000000 0.539948
O O13 0.205479 0.709256 0.101550
#
# Coordination Sequence:
#
# PCOD9585310 Si02
#       7
#     6   6   6  12  12  12  12
#     4  12  24  44  68 110 150 179 232 295 348 425
#     4  12  26  40  72 110 140 193 232 279 370 421
#     4  12  22  46  68 100 148 176 236 284 344 432
#     4  12  24  41  71 103 140 182 230 290 352 424
#     4  12  27  45  71 103 139 183 236 299 367 424
#     4  12  25  44  69  99 138 182 232 296 354 416
#     4  12  26  46  67 100 140 186 232 297 353 434
#
# _framework density 20.727066000000001
#
# number of rings (size 3 to 8) (size 9 to 14) (size 15 to 20)
#    0.000    0.000    9.091    0.000    5.091    0.000 
#    1.091    0.000    0.000    0.364    0.000    0.000 
#    0.000    0.000    0.000    0.000    0.000    0.000 
#
# Total GULP energy -367725.178019 kJ/mol
# GULP energy per Si atom -5571.593606 kJ/mol
# Density = 2.067989 g / cm^3
# Si number density = 20.727066 Si / 1000 Ang^3
#
#
#
# Elastic Constant Matrix: (Units=GPa)
#
#
# Indices 1 2 3 4 5 6 
#
# 1 124.5663 53.3803 30.1556 0.0000 0.0000 0.0000
# 2 53.3803 124.5663 30.1556 0.0000 0.0000 0.0000
# 3 30.1556 30.1556 67.6906 0.0000 0.0000 0.0000
# 4 0.0000 0.0000 0.0000 30.2889 0.0000 0.0000
# 5 0.0000 0.0000 0.0000 0.0000 30.2889 0.0000
# 6 0.0000 0.0000 0.0000 0.0000 0.0000 35.5930
#
#
#
# Elastic Compliance Matrix: (Units=1/GPa)
#
#
# Indices 1 2 3 4 5 6 
#
# 1 0.010333 -0.003714 -0.002949 0.000000 0.000000 0.000000
# 2 -0.003714 0.010333 -0.002949 0.000000 0.000000 0.000000
# 3 -0.002949 -0.002949 0.017400 0.000000 0.000000 0.000000
# 4 0.000000 0.000000 0.000000 0.033015 0.000000 0.000000
# 5 0.000000 0.000000 0.000000 0.000000 0.033015 0.000000
# 6 0.000000 0.000000 0.000000 0.000000 0.000000 0.028095
#
#
# Mechanical properties :
#
#
# Convention : Reuss Voigt Hill
#
# Bulk Modulus (GPa) = 53.06851 60.46735 56.76793
# Shear Modulus (GPa) = 31.70612 32.77626 32.24119
#
# Velocity S-wave (km/s) = 3.91538 3.98090 3.94828
# Velocity P-wave (km/s) = 6.78965 7.09694 6.94499
#
# Compressibility (1/GPa) = 0.01884357
#
# Stress axis : x y z
#
# Youngs Moduli (GPa) = 96.77358 96.77358 57.46997
#
# Poissons Ratio (x) = 0.35945 0.16946
# Poissons Ratio (y) = 0.35945 0.16946
# Poissons Ratio (z) = 0.28536 0.28536
#
# Static dielectric constant tensor:
#      x y z
#    x 1.772710 0.000000 0.000000 
#    y 0.000000 1.772710 0.000000 
#    z 0.000000 0.000000 1.810150 
# 
# From -- ./inp_files/573.got.cif
#   From: 2010.05.17/outbox.cif.g08.bks.cpg/sg185_cif.got.tgz:573.got - 2010.05.20 12:05:34.
