data_PCOD9585081
_publ_section_title
;
Structure prediction by ZEFSAII (Michael W. Deem and Ramdas Pophale) SiO2 
 PCOD9585081
Probable space group: P 6 M M
;
_chemical_formula_sum "Si O2"
_cell_formula_units_Z 60
_cell_length_a 21.894673
_cell_length_b 21.894673
_cell_length_c 7.916960
_cell_angle_alpha 90.000000
_cell_angle_beta 90.000000
_cell_angle_gamma 120.000000
_cell_volume 3286.744986
_symmetry_space_group_name_H-M "P 6 M M"
_symmetry_group_IT_number 183
_symmetry_cell_setting 'hexagonal'
loop_
_space_group_symop_operation_xyz
x,y,z
x-y,x,z
-y,x-y,z
-x,-y,z
-x+y,-x,z
y,-x+y,z
-x+y,y,z
x,x-y,z
-y,-x,z
y,x,z
x-y,-y,z
-x,-x+y,z
loop_
_atom_site_type_symbol
_atom_site_label
_atom_site_fract_x
_atom_site_fract_y
_atom_site_fract_z
Si Si1 0.705685 0.784950 0.950610
Si Si2 0.456769 0.296465 0.947571
Si Si3 0.920735 0.705684 0.537815
Si Si4 0.540314 0.459686 0.444433
Si Si5 0.456770 0.160305 0.540863
Si Si6 0.459686 0.540314 0.044003
O O1 0.727868 0.863934 0.003100
O O2 0.754393 0.754393 0.010444
O O3 0.624377 0.735058 0.002941
O O4 0.705983 0.784154 0.744213
O O5 0.479902 0.239951 0.006405
O O6 0.456280 0.294132 0.744217
O O7 0.502595 0.377547 0.996258
O O8 0.863934 0.727867 0.485325
O O9 0.889319 0.624376 0.485488
O O10 0.000000 0.754391 0.477981
O O11 0.500000 0.500000 0.515831
O O12 0.622453 0.497405 0.492178
O O13 0.537008 0.462993 0.244218
O O14 0.479904 0.239952 0.482029
O O15 0.500000 0.500000 0.972605
#
# Coordination Sequence:
#
# PCOD9585081 Si02
#       6
#    12  12  12   6  12   6
#     4   8  13  22  39  63  88 113 145 187 230 268
#     4   9  18  33  52  72  91 118 162 209 248 285
#     4   8  13  22  39  63  88 113 145 187 230 268
#     4  11  23  35  49  73 103 133 163 195 243 307
#     4   9  18  33  52  72  91 118 162 209 248 285
#     4  11  23  35  49  73 103 133 163 195 243 307
#
# _framework density 18.255143
#
# number of rings (size 3 to 8) (size 9 to 14) (size 15 to 20)
#    0.000    3.000    0.000    4.200    0.000    4.000 
#    1.200    0.000    0.000    0.400    0.000    2.800 
#    0.000    0.000    0.000    0.000    0.000    0.000 
#
# Total GULP energy -334341.436150 kJ/mol
# GULP energy per Si atom -5572.357269 kJ/mol
# Density = 1.821359 g / cm^3
# Si number density = 18.255143 Si / 1000 Ang^3
#
#
#
# Elastic Constant Matrix: (Units=GPa)
#
#
# Indices 1 2 3 4 5 6 
#
# 1 178.5549 133.7649 13.8826 0.0000 0.0000 0.0000
# 2 133.7649 178.5549 13.8826 0.0000 0.0000 0.0000
# 3 13.8826 13.8826 18.7475 0.0000 0.0000 0.0000
# 4 0.0000 0.0000 0.0000 0.3205 0.0000 0.0000
# 5 0.0000 0.0000 0.0000 0.0000 0.3205 0.0000
# 6 0.0000 0.0000 0.0000 0.0000 0.0000 22.3950
#
#
#
# Elastic Compliance Matrix: (Units=1/GPa)
#
#
# Indices 1 2 3 4 5 6 
#
# 1 0.012877 -0.009449 -0.002538 0.000000 0.000000 0.000000
# 2 -0.009449 0.012877 -0.002538 0.000000 0.000000 0.000000
# 3 -0.002538 -0.002538 0.057099 0.000000 0.000000 0.000000
# 4 0.000000 0.000000 0.000000 3.119984 0.000000 0.000000
# 5 0.000000 0.000000 0.000000 0.000000 3.119984 0.000000
# 6 0.000000 0.000000 0.000000 0.000000 0.000000 0.044653
#
#
# Mechanical properties :
#
#
# Convention : Reuss Voigt Hill
#
# Bulk Modulus (GPa) = 18.58668 77.65751 48.12209
# Shear Modulus (GPa) = 0.77949 18.89569 9.83759
#
# Velocity S-wave (km/s) = 0.65416 3.22077 2.32393
# Velocity P-wave (km/s) = 3.28242 7.51422 5.79818
#
# Compressibility (1/GPa) = 0.05380198
#
# Stress axis : x y z
#
# Youngs Moduli (GPa) = 77.65822 77.65822 17.51335
#
# Poissons Ratio (x) = 0.73383 0.04445
# Poissons Ratio (y) = 0.73383 0.04445
# Poissons Ratio (z) = 0.19710 0.19710
#
# Static dielectric constant tensor:
#      x y z
#    x 1.631590 0.000000 0.000000 
#    y 0.000000 1.631590 0.000000 
#    z 0.000000 0.000000 1.653140 
# 
# From -- ./inp_files/960.got.cif
#   From: 2010.05.17/outbox.cif.g08.bks.cpg/sg183_1_cif.got.tgz:960.got - 2010.05.20 12:02:58.
