data_PCOD9585543
_publ_section_title
;
Structure prediction by ZEFSAII (Michael W. Deem and Ramdas Pophale) SiO2 
 PCOD9585543
Probable space group: P -6 M 2
;
_chemical_formula_sum "Si O2"
_cell_formula_units_Z 78
_cell_length_a 23.885381
_cell_length_b 23.885381
_cell_length_c 8.412362
_cell_angle_alpha 90.000000
_cell_angle_beta 90.000000
_cell_angle_gamma 120.000000
_cell_volume 4156.357841
_symmetry_space_group_name_H-M "P -6 M 2"
_symmetry_group_IT_number 187
_symmetry_cell_setting 'hexagonal'
loop_
_space_group_symop_operation_xyz
x,y,z
-x+y,-x,-z
-y,x-y,z
x,y,-z
-x+y,-x,z
-y,x-y,-z
-y,-x,-z
-x+y,y,-z
x,x-y,-z
-x+y,y,z
x,x-y,z
-y,-x,z
loop_
_atom_site_type_symbol
_atom_site_label
_atom_site_fract_x
_atom_site_fract_y
_atom_site_fract_z
Si Si1 0.792699 0.456683 0.500000
Si Si2 0.264213 0.393744 0.683457
Si Si3 0.822887 0.511848 0.827474
Si Si4 0.127921 0.000153 0.691261
Si Si5 0.739721 0.981527 0.814339
Si Si6 0.333852 0.796453 0.694201
Si Si7 0.351995 0.112284 0.682113
O O1 0.739449 0.478898 0.500000
O O2 0.759745 0.379873 0.500000
O O3 0.830234 0.480662 0.666037
O O4 0.279928 0.386740 0.500000
O O5 0.197966 0.395932 0.681372
O O6 0.250308 0.330055 0.777077
O O7 0.317203 0.465294 0.744120
O O8 0.748781 0.497562 0.830642
O O9 0.866701 0.588359 0.799849
O O10 0.835988 0.492495 0.000000
O O11 0.136946 0.002956 0.500000
O O12 0.053885 0.946116 0.724027
O O13 0.174127 0.976129 0.765524
O O14 0.142047 0.071024 0.744141
O O15 0.745752 0.041320 0.714991
O O16 0.744284 0.996555 0.000000
O O17 0.333492 0.797132 0.500000
O O18 0.402269 0.804537 0.745159
O O19 0.273619 0.726382 0.741784
O O20 0.375690 0.119317 0.500000
O O21 0.328064 0.164032 0.702157
#
# Coordination Sequence:
#
# PCOD9585543 Si02
#       7
#     6  12  12  12  12  12  12
#     4  10  19  32  50  76 108 144 181 216 258 314
#     4   9  18  33  51  72 102 141 179 214 258 314
#     4   9  17  31  51  75 104 137 173 216 268 323
#     4  10  21  38  58  78 102 136 177 220 269 328
#     4  12  24  34  49  76 106 137 176 222 269 319
#     4   8  13  23  45  78 110 135 164 208 262 315
#     4  10  19  34  56  79 101 127 165 218 277 332
#
# _framework density 18.76643
#
# number of rings (size 3 to 8) (size 9 to 14) (size 15 to 20)
#    0.000    2.308    0.769    4.077    0.000    7.077 
#    0.000    0.000    0.000    3.231    0.000    0.000 
#    0.000    1.231    0.000    0.000    0.000    0.000 
#
# Total GULP energy -434696.722673 kJ/mol
# GULP energy per Si atom -5573.034906 kJ/mol
# Density = 1.872372 g / cm^3
# Si number density = 18.766430 Si / 1000 Ang^3
#
#
#
# Elastic Constant Matrix: (Units=GPa)
#
#
# Indices 1 2 3 4 5 6 
#
# 1 78.4458 44.6083 18.7170 0.0000 -0.0006 0.0000
# 2 44.6083 78.4458 18.7170 0.0000 0.0006 0.0000
# 3 18.7170 18.7170 80.8318 0.0000 0.0000 0.0000
# 4 0.0000 0.0000 0.0000 -30.0606 0.0000 0.0006
# 5 -0.0006 0.0006 0.0000 0.0000 -30.0606 0.0000
# 6 0.0000 0.0000 0.0000 0.0006 0.0000 16.9187
#
#
#
# Elastic Compliance Matrix: (Units=1/GPa)
#
#
# Indices 1 2 3 4 5 6 
#
# 1 0.019148 -0.010405 -0.002024 0.000000 -0.000001 0.000000
# 2 -0.010405 0.019148 -0.002024 0.000000 0.000001 0.000000
# 3 -0.002024 -0.002024 0.013309 0.000000 0.000000 0.000000
# 4 0.000000 0.000000 0.000000 -0.033266 0.000000 0.000001
# 5 -0.000001 0.000001 0.000000 0.000000 -0.033266 0.000000
# 6 0.000000 0.000000 0.000000 0.000001 0.000000 0.059106
#
#
# Mechanical properties :
#
#
# Convention : Reuss Voigt Hill
#
# Bulk Modulus (GPa) = 44.06027 44.64534 44.35281
# Shear Modulus (GPa) = 61.99502 1.73823 31.86663
#
# Velocity S-wave (km/s) = 5.75385 0.96346 4.12523
# Velocity P-wave (km/s) = 8.22627 5.00793 6.80995
#
# Compressibility (1/GPa) = 0.02269618
#
# Stress axis : x y z
#
# Youngs Moduli (GPa) = 52.22558 52.22558 75.13798
#
# Poissons Ratio (x) = 0.54343 0.15210
# Poissons Ratio (y) = 0.54343 0.15210
# Poissons Ratio (z) = 0.10572 0.10572
#
# Static dielectric constant tensor:
#      x y z
#    x 1.650000 0.000000 0.000000 
#    y 0.000000 1.650000 0.000000 
#    z 0.000000 0.000000 1.678080 
# 
# From -- ./inp_files/1160.got.cif
#   From: 2010.05.17/outbox.cif.g08.bks.cpg/sg187_1_cif.got.tgz:1160.got - 2010.05.20 12:09:04.
