data_PCOD9585720
_publ_section_title
;
Structure prediction by ZEFSAII (Michael W. Deem and Ramdas Pophale) SiO2 
 PCOD9585720
Probable space group: P -6 M 2
;
_chemical_formula_sum "Si O2"
_cell_formula_units_Z 72
_cell_length_a 24.332409
_cell_length_b 24.332409
_cell_length_c 8.740999
_cell_angle_alpha 90.000000
_cell_angle_beta 90.000000
_cell_angle_gamma 120.000000
_cell_volume 4481.897478
_symmetry_space_group_name_H-M "P -6 M 2"
_symmetry_group_IT_number 187
_symmetry_cell_setting 'hexagonal'
loop_
_space_group_symop_operation_xyz
x,y,z
-x+y,-x,-z
-y,x-y,z
x,y,-z
-x+y,-x,z
-y,x-y,-z
-y,-x,-z
-x+y,y,-z
x,x-y,-z
-x+y,y,z
x,x-y,z
-y,-x,z
loop_
_atom_site_type_symbol
_atom_site_label
_atom_site_fract_x
_atom_site_fract_y
_atom_site_fract_z
Si Si1 0.031901 0.190432 0.683374
Si Si2 0.479713 0.520288 0.823890
Si Si3 0.101609 0.330725 0.182014
Si Si4 0.818396 0.636792 0.814037
Si Si5 0.431903 0.328349 0.813466
Si Si6 0.215338 0.107669 0.183984
Si Si7 0.365639 0.403526 0.318125
Si Si8 0.556871 0.443130 0.824218
O O1 0.027343 0.191309 0.500000
O O2 0.086465 0.172930 0.721691
O O3 0.057360 0.260858 0.748583
O O4 0.963779 0.144028 0.754063
O O5 0.414387 0.474096 0.740407
O O6 0.518364 0.481637 0.824395
O O7 0.469455 0.530546 0.000000
O O8 0.173613 0.347226 0.209566
O O9 0.083598 0.378809 0.258448
O O10 0.091074 0.328339 0.000000
O O11 0.854839 0.599623 0.766617
O O12 0.855246 0.710491 0.765651
O O13 0.818585 0.637169 0.000000
O O14 0.390177 0.358055 0.752292
O O15 0.504857 0.374707 0.759265
O O16 0.432296 0.331550 0.000000
O O17 0.214456 0.107228 0.000000
O O18 0.367435 0.400802 0.500000
O O19 0.568166 0.431835 0.000000
#
# Coordination Sequence:
#
# PCOD9585720 Si02
#       8
#    12   6  12   6  12   6  12   6
#     4  10  21  37  54  72  95 125 161 208 265 315
#     4   9  17  31  49  69  96 128 159 190 228 277
#     4  10  20  34  52  72  97 131 168 202 240 295
#     4   9  18  29  45  68  93 123 162 206 245 290
#     4   9  16  29  46  65  91 126 165 201 243 293
#     4  11  21  33  51  73  96 125 163 206 256 314
#     4  11  20  30  47  73 102 129 159 198 245 292
#     4   7  12  23  43  64  83 114 152 190 231 277
#
# _framework density 16.064623999999998
#
# number of rings (size 3 to 8) (size 9 to 14) (size 15 to 20)
#    0.000    2.333    0.000    5.000    0.000    3.333 
#    0.500    1.250    0.000    0.333    0.000    2.333 
#    0.833    0.000    1.500    2.333    1.500    2.833 
#
# Total GULP energy -401484.901125 kJ/mol
# GULP energy per Si atom -5576.179182 kJ/mol
# Density = 1.602806 g / cm^3
# Si number density = 16.064624 Si / 1000 Ang^3
#
#
#
# Elastic Constant Matrix: (Units=GPa)
#
#
# Indices 1 2 3 4 5 6 
#
# 1 119.3230 80.6598 50.1469 0.0000 0.0002 0.0000
# 2 80.6598 119.3230 50.1469 0.0000 -0.0002 0.0000
# 3 50.1469 50.1469 65.1189 0.0000 0.0000 0.0000
# 4 0.0000 0.0000 0.0000 17.8020 0.0000 -0.0002
# 5 0.0002 -0.0002 0.0000 0.0000 17.8020 0.0000
# 6 0.0000 0.0000 0.0000 -0.0002 0.0000 19.3316
#
#
#
# Elastic Compliance Matrix: (Units=1/GPa)
#
#
# Indices 1 2 3 4 5 6 
#
# 1 0.017006 -0.008859 -0.006274 0.000000 0.000000 0.000000
# 2 -0.008859 0.017006 -0.006274 0.000000 0.000000 0.000000
# 3 -0.006274 -0.006274 0.025019 0.000000 0.000000 0.000000
# 4 0.000000 0.000000 0.000000 0.056173 0.000000 0.000001
# 5 0.000000 0.000000 0.000000 0.000000 0.056173 0.000000
# 6 0.000000 0.000000 0.000000 0.000001 0.000000 0.051729
#
#
# Mechanical properties :
#
#
# Convention : Reuss Voigt Hill
#
# Bulk Modulus (GPa) = 61.66051 73.96356 67.81204
# Shear Modulus (GPa) = 18.42815 19.17454 18.80135
#
# Velocity S-wave (km/s) = 3.39060 3.45858 3.42476
# Velocity P-wave (km/s) = 7.33446 7.87974 7.61198
#
# Compressibility (1/GPa) = 0.01621783
#
# Stress axis : x y z
#
# Youngs Moduli (GPa) = 58.80422 58.80422 39.96970
#
# Poissons Ratio (x) = 0.52094 0.25076
# Poissons Ratio (y) = 0.52094 0.25076
# Poissons Ratio (z) = 0.36892 0.36892
#
# Static dielectric constant tensor:
#      x y z
#    x 1.532890 0.000000 0.000000 
#    y 0.000000 1.532890 0.000000 
#    z 0.000000 0.000000 1.537780 
# 
# From -- ./inp_files/1115.got.cif
#   From: 2010.05.17/outbox.cif.g08.bks.cpg/sg187_1_cif.got.tgz:1115.got - 2010.05.20 12:09:04.
