data_PCOD9585296
_publ_section_title
;
Structure prediction by ZEFSAII (Michael W. Deem and Ramdas Pophale) SiO2 
 PCOD9585296
Probable space group: P 63 C M
;
_chemical_formula_sum "Si O2"
_cell_formula_units_Z 54
_cell_length_a 15.823776
_cell_length_b 15.823776
_cell_length_c 12.857145
_cell_angle_alpha 90.000000
_cell_angle_beta 90.000000
_cell_angle_gamma 120.000000
_cell_volume 2788.017057
_symmetry_space_group_name_H-M "P 63 C M"
_symmetry_group_IT_number 185
_symmetry_cell_setting 'hexagonal'
loop_
_space_group_symop_operation_xyz
x,y,z
x-y,x,1/2+z
-y,x-y,z
-x,-y,1/2+z
-x+y,-x,z
y,-x+y,1/2+z
-x+y,y,1/2+z
x,x-y,1/2+z
-y,-x,1/2+z
y,x,z
x-y,-y,z
-x,-x+y,z
loop_
_atom_site_type_symbol
_atom_site_label
_atom_site_fract_x
_atom_site_fract_y
_atom_site_fract_z
Si Si1 0.260603 0.000000 0.925300
Si Si2 0.457160 0.755236 0.206750
Si Si3 0.634870 0.836260 0.828555
Si Si4 0.450545 0.106868 0.521043
Si Si5 0.442236 0.442236 0.497626
Si Si6 0.000000 0.300842 0.156749
O O1 0.280947 0.098075 0.869806
O O2 0.245985 0.000000 0.050241
O O3 0.363384 0.000000 0.921513
O O4 0.362546 0.768752 0.213112
O O5 0.538250 0.801434 0.294629
O O6 0.511301 0.803653 0.099374
O O7 0.667514 0.906764 0.729110
O O8 0.602140 0.879891 0.922593
O O9 0.540352 0.091355 0.487223
O O10 0.377537 0.000000 0.571441
O O11 0.396236 0.396236 0.610182
#
# Coordination Sequence:
#
# PCOD9585296 Si02
#       6
#     6  12  12  12   6   6
#     4  10  26  39  68  94 134 170 223 285 334 395
#     4  10  25  36  56  92 134 172 220 276 308 388
#     4  12  23  42  65  98 123 184 223 276 341 411
#     4  10  22  39  63  85 127 175 223 270 335 386
#     4   8  21  40  59  88 133 176 205 273 317 392
#     4  10  21  45  63  94 139 160 232 284 335 405
#
# _framework density 19.368604000000001
#
# number of rings (size 3 to 8) (size 9 to 14) (size 15 to 20)
#    1.778    0.000    1.111    2.667    7.778    0.000 
#    4.000    0.000    0.000    0.444    0.000    0.000 
#    0.000    0.000    0.000    0.000    0.000    0.000 
#
# Total GULP energy -300685.647928 kJ/mol
# GULP energy per Si atom -5568.252739 kJ/mol
# Density = 1.932452 g / cm^3
# Si number density = 19.368604 Si / 1000 Ang^3
#
#
#
# Elastic Constant Matrix: (Units=GPa)
#
#
# Indices 1 2 3 4 5 6 
#
# 1 63.6966 24.0655 40.2892 0.0000 0.0000 0.0000
# 2 24.0655 63.6966 40.2892 0.0000 0.0000 0.0000
# 3 40.2892 40.2892 63.6422 0.0000 0.0000 0.0000
# 4 0.0000 0.0000 0.0000 34.0588 0.0000 0.0000
# 5 0.0000 0.0000 0.0000 0.0000 34.0588 0.0000
# 6 0.0000 0.0000 0.0000 0.0000 0.0000 19.8156
#
#
#
# Elastic Compliance Matrix: (Units=1/GPa)
#
#
# Indices 1 2 3 4 5 6 
#
# 1 0.026221 0.000989 -0.017225 0.000000 0.000000 0.000000
# 2 0.000989 0.026221 -0.017225 0.000000 0.000000 0.000000
# 3 -0.017225 -0.017225 0.037522 0.000000 0.000000 0.000000
# 4 0.000000 0.000000 0.000000 0.029361 0.000000 0.000000
# 5 0.000000 0.000000 0.000000 0.000000 0.029361 0.000000
# 6 0.000000 0.000000 0.000000 0.000000 0.000000 0.050465
#
#
# Mechanical properties :
#
#
# Convention : Reuss Voigt Hill
#
# Bulk Modulus (GPa) = 43.40224 44.48034 43.94129
# Shear Modulus (GPa) = 18.26438 23.34607 20.80523
#
# Velocity S-wave (km/s) = 3.07414 3.47559 3.28101
# Velocity P-wave (km/s) = 5.92095 6.25471 6.09012
#
# Compressibility (1/GPa) = 0.02304029
#
# Stress axis : x y z
#
# Youngs Moduli (GPa) = 38.13695 38.13695 26.65084
#
# Poissons Ratio (x) = -0.03770 0.45907
# Poissons Ratio (y) = -0.03770 0.45907
# Poissons Ratio (z) = 0.65693 0.65693
#
# Static dielectric constant tensor:
#      x y z
#    x 1.701580 0.000000 0.000000 
#    y 0.000000 1.701580 0.000000 
#    z 0.000000 0.000000 1.663220 
# 
# From -- ./inp_files/924.got.cif
#   From: 2010.05.17/outbox.cif.g08.bks.cpg/sg185_cif.got.tgz:924.got - 2010.05.20 12:05:34.
