data_PCOD9585792
_publ_section_title
;
Structure prediction by ZEFSAII (Michael W. Deem and Ramdas Pophale) SiO2 
 PCOD9585792
Probable space group: P -6 M 2
;
_chemical_formula_sum "Si O2"
_cell_formula_units_Z 66
_cell_length_a 21.468385
_cell_length_b 21.468385
_cell_length_c 7.608215
_cell_angle_alpha 90.000000
_cell_angle_beta 90.000000
_cell_angle_gamma 120.000000
_cell_volume 3036.771805
_symmetry_space_group_name_H-M "P -6 M 2"
_symmetry_group_IT_number 187
_symmetry_cell_setting 'hexagonal'
loop_
_space_group_symop_operation_xyz
x,y,z
-x+y,-x,-z
-y,x-y,z
x,y,-z
-x+y,-x,z
-y,x-y,-z
-y,-x,-z
-x+y,y,-z
x,x-y,-z
-x+y,y,z
x,x-y,z
-y,-x,z
loop_
_atom_site_type_symbol
_atom_site_label
_atom_site_fract_x
_atom_site_fract_y
_atom_site_fract_z
Si Si1 0.712602 0.287399 0.711815
Si Si2 0.183346 0.515565 0.500000
Si Si3 0.703590 0.919911 0.300200
Si Si4 0.390985 0.461344 0.795103
Si Si5 0.135918 0.134934 0.209107
Si Si6 0.407025 0.203513 0.795393
Si Si7 0.680268 0.631557 0.798232
O O1 0.744359 0.372180 0.759782
O O2 0.715914 0.284087 0.500000
O O3 0.752852 0.247149 0.784753
O O4 0.260105 0.520209 0.500000
O O5 0.191849 0.595925 0.500000
O O6 0.135458 0.473042 0.330045
O O7 0.676939 0.910337 0.500000
O O8 0.681177 0.840589 0.225960
O O9 0.789817 0.961968 0.302762
O O10 0.690955 0.979261 0.207156
O O11 0.463986 0.536015 0.792204
O O12 0.408505 0.400519 0.725201
O O13 0.367149 0.446705 0.000000
O O14 0.160683 0.080342 0.270786
O O15 0.050676 0.101351 0.227825
O O16 0.151628 0.148194 0.000000
O O17 0.378244 0.122762 0.719790
O O18 0.383371 0.191686 0.000000
O O19 0.675210 0.607693 0.000000
#
# Coordination Sequence:
#
# PCOD9585792 Si02
#       7
#     6   6  12  12  12   6  12
#     4   8  18  38  60  86 128 166 200 244 296 364
#     4  10  21  38  64  97 134 168 208 256 310 373
#     4  10  22  37  52  74 105 142 186 236 289 350
#     4   9  20  40  63  89 124 165 208 253 306 373
#     4   9  17  30  49  70  93 126 171 222 278 337
#     4  10  22  38  60  92 122 158 208 262 318 374
#     4  10  22  39  59  85 118 154 198 251 308 367
#
# _framework density 21.733604
#
# number of rings (size 3 to 8) (size 9 to 14) (size 15 to 20)
#    0.182    2.364    0.000    0.818    2.545    5.091 
#    0.000    3.636    0.000    2.182    0.000    0.000 
#    0.000    0.000    0.000    0.000    0.000    0.000 
#
# Total GULP energy -367419.172459 kJ/mol
# GULP energy per Si atom -5566.957158 kJ/mol
# Density = 2.168414 g / cm^3
# Si number density = 21.733604 Si / 1000 Ang^3
#
#
#
# Elastic Constant Matrix: (Units=GPa)
#
#
# Indices 1 2 3 4 5 6 
#
# 1 106.8096 45.4876 28.4086 0.0000 -0.0083 0.0000
# 2 45.4876 106.8096 28.4086 0.0000 0.0083 0.0000
# 3 28.4086 28.4086 67.0672 0.0000 0.0000 0.0000
# 4 0.0000 0.0000 0.0000 70.2351 0.0000 0.0083
# 5 -0.0083 0.0083 0.0000 0.0000 70.2351 0.0000
# 6 0.0000 0.0000 0.0000 0.0083 0.0000 30.6610
#
#
#
# Elastic Compliance Matrix: (Units=1/GPa)
#
#
# Indices 1 2 3 4 5 6 
#
# 1 0.012053 -0.004254 -0.003303 0.000000 0.000002 0.000000
# 2 -0.004254 0.012053 -0.003303 0.000000 -0.000002 0.000000
# 3 -0.003303 -0.003303 0.017709 0.000000 0.000000 0.000000
# 4 0.000000 0.000000 0.000000 0.014238 0.000000 -0.000004
# 5 0.000002 -0.000002 0.000000 0.000000 0.014238 0.000000
# 6 0.000000 0.000000 0.000000 -0.000004 0.000000 0.032615
#
#
# Mechanical properties :
#
#
# Convention : Reuss Voigt Hill
#
# Bulk Modulus (GPa) = 49.76963 53.92179 51.84571
# Shear Modulus (GPa) = 38.07351 46.11835 42.09593
#
# Velocity S-wave (km/s) = 4.19002 4.61150 4.40580
# Velocity P-wave (km/s) = 6.80867 7.29512 7.05609
#
# Compressibility (1/GPa) = 0.02009257
#
# Stress axis : x y z
#
# Youngs Moduli (GPa) = 82.96745 82.96745 56.46885
#
# Poissons Ratio (x) = 0.35298 0.18653
# Poissons Ratio (y) = 0.35298 0.18653
# Poissons Ratio (z) = 0.27407 0.27407
#
# Static dielectric constant tensor:
#      x y z
#    x 1.856660 0.000000 0.000000 
#    y 0.000000 1.856660 0.000000 
#    z 0.000000 0.000000 1.867790 
# 
# From -- ./inp_files/797.got.cif
#   From: 2010.05.17/outbox.cif.g08.bks.cpg/sg187_1_cif.got.tgz:797.got - 2010.05.20 12:09:04.
