data_PCOD9585812
_publ_section_title
;
Structure prediction by ZEFSAII (Michael W. Deem and Ramdas Pophale) SiO2 
 PCOD9585812
Probable space group: P -6 M 2
;
_chemical_formula_sum "Si O2"
_cell_formula_units_Z 96
_cell_length_a 22.739036
_cell_length_b 22.739036
_cell_length_c 12.486796
_cell_angle_alpha 90.000000
_cell_angle_beta 90.000000
_cell_angle_gamma 120.000000
_cell_volume 5591.466751
_symmetry_space_group_name_H-M "P -6 M 2"
_symmetry_group_IT_number 187
_symmetry_cell_setting 'hexagonal'
loop_
_space_group_symop_operation_xyz
x,y,z
-x+y,-x,-z
-y,x-y,z
x,y,-z
-x+y,-x,z
-y,x-y,-z
-y,-x,-z
-x+y,y,-z
x,x-y,-z
-x+y,y,z
x,x-y,z
-y,-x,z
loop_
_atom_site_type_symbol
_atom_site_label
_atom_site_fract_x
_atom_site_fract_y
_atom_site_fract_z
Si Si1 0.939621 0.196424 0.372586
Si Si2 0.737519 0.129191 0.768938
Si Si3 0.650731 0.993449 0.120278
Si Si4 0.074385 0.791273 0.247276
Si Si5 0.332312 0.531218 0.122644
Si Si6 0.550779 0.586087 0.681928
Si Si7 0.565465 0.846770 0.327083
Si Si8 0.628129 0.509248 0.619411
O O1 0.948539 0.207780 0.500000
O O2 0.882699 0.117302 0.354742
O O3 0.907465 0.239173 0.320166
O O4 0.011688 0.224558 0.313528
O O5 0.803965 0.196036 0.806322
O O6 0.700239 0.073508 0.860061
O O7 0.685435 0.146214 0.709109
O O8 0.693713 0.956592 0.150452
O O9 0.591894 0.973622 0.207981
O O10 0.625475 0.978405 0.000000
O O11 0.133062 0.866939 0.218340
O O12 0.111631 0.758619 0.315963
O O13 0.279701 0.559402 0.125175
O O14 0.407838 0.592163 0.146952
O O15 0.302724 0.471633 0.210242
O O16 0.330908 0.507780 0.000000
O O17 0.476975 0.523026 0.702019
O O18 0.546263 0.646533 0.623474
O O19 0.593529 0.556777 0.623402
O O20 0.546007 0.773004 0.372568
O O21 0.655398 0.512746 0.500000
O O22 0.566720 0.433281 0.639734
#
# Coordination Sequence:
#
# PCOD9585812 Si02
#       8
#    12  12  12  12  12  12  12  12
#     4   9  17  30  50  74  94 113 143 182 222 268
#     4   9  17  29  46  68  94 123 151 183 227 271
#     4   9  18  30  43  64  93 121 156 199 230 261
#     4   9  18  31  45  64  93 125 151 176 215 268
#     4   9  16  25  37  53  75 107 150 199 244 278
#     4   9  17  29  44  62  86 117 153 195 242 282
#     4   9  17  27  37  53  81 115 148 181 218 265
#     4   9  17  29  46  68  92 118 149 184 223 272
#
# _framework density 17.169018999999999
#
# number of rings (size 3 to 8) (size 9 to 14) (size 15 to 20)
#    0.000    3.000    0.000    1.625    0.000    4.250 
#    0.000    2.500    0.000    1.875    0.000    0.000 
#    0.000    0.000    0.000    0.750    0.000    4.250 
#
# Total GULP energy -534454.229710 kJ/mol
# GULP energy per Si atom -5567.231559 kJ/mol
# Density = 1.712994 g / cm^3
# Si number density = 17.169019 Si / 1000 Ang^3
#
#
#
# Elastic Constant Matrix: (Units=GPa)
#
#
# Indices 1 2 3 4 5 6 
#
# 1 72.0954 22.8750 12.0027 0.0000 0.0000 0.0000
# 2 22.8750 72.0954 12.0027 0.0000 0.0000 0.0000
# 3 12.0027 12.0027 62.2162 0.0000 0.0000 0.0000
# 4 0.0000 0.0000 0.0000 3.1029 0.0000 0.0000
# 5 0.0000 0.0000 0.0000 0.0000 3.1029 0.0000
# 6 0.0000 0.0000 0.0000 0.0000 0.0000 24.6102
#
#
#
# Elastic Compliance Matrix: (Units=1/GPa)
#
#
# Indices 1 2 3 4 5 6 
#
# 1 0.015693 -0.004624 -0.002135 0.000000 0.000000 0.000000
# 2 -0.004624 0.015693 -0.002135 0.000000 0.000000 0.000000
# 3 -0.002135 -0.002135 0.016897 0.000000 0.000000 0.000000
# 4 0.000000 0.000000 0.000000 0.322277 0.000000 0.000000
# 5 0.000000 0.000000 0.000000 0.000000 0.322277 0.000000
# 6 0.000000 0.000000 0.000000 0.000000 0.000000 0.040634
#
#
# Mechanical properties :
#
#
# Convention : Reuss Voigt Hill
#
# Bulk Modulus (GPa) = 32.79364 33.35198 33.07281
# Shear Modulus (GPa) = 6.56664 16.79832 11.68248
#
# Velocity S-wave (km/s) = 1.95781 3.13135 2.61135
# Velocity P-wave (km/s) = 4.92469 5.70453 5.32889
#
# Compressibility (1/GPa) = 0.03049372
#
# Stress axis : x y z
#
# Youngs Moduli (GPa) = 63.72238 63.72238 59.18233
#
# Poissons Ratio (x) = 0.29463 0.12638
# Poissons Ratio (y) = 0.29463 0.12638
# Poissons Ratio (z) = 0.13608 0.13608
#
# Static dielectric constant tensor:
#      x y z
#    x 1.598250 0.000000 0.000000 
#    y 0.000000 1.598250 0.000000 
#    z 0.000000 0.000000 1.575710 
# 
# From -- ./inp_files/2106.got.cif
#   From: 2010.05.17/outbox.cif.g08.bks.cpg/sg187_2_cif.got.tgz:2106.got - 2010.05.20 12:09:04.
