data_PCOD9585259
_publ_section_title
;
Structure prediction by ZEFSAII (Michael W. Deem and Ramdas Pophale) SiO2 
 PCOD9585259
Probable space group: P 63 C M
;
_chemical_formula_sum "Si O2"
_cell_formula_units_Z 84
_cell_length_a 13.836849
_cell_length_b 13.836849
_cell_length_c 27.787634
_cell_angle_alpha 90.000000
_cell_angle_beta 90.000000
_cell_angle_gamma 120.000000
_cell_volume 4607.407287
_symmetry_space_group_name_H-M "P 63 C M"
_symmetry_group_IT_number 185
_symmetry_cell_setting 'hexagonal'
loop_
_space_group_symop_operation_xyz
x,y,z
x-y,x,1/2+z
-y,x-y,z
-x,-y,1/2+z
-x+y,-x,z
y,-x+y,1/2+z
-x+y,y,1/2+z
x,x-y,1/2+z
-y,-x,1/2+z
y,x,z
x-y,-y,z
-x,-x+y,z
loop_
_atom_site_type_symbol
_atom_site_label
_atom_site_fract_x
_atom_site_fract_y
_atom_site_fract_z
Si Si1 0.876047 0.463113 0.134610
Si Si2 0.457130 0.132618 0.298915
Si Si3 0.461328 0.126570 0.844380
Si Si4 0.249134 0.432529 0.689160
Si Si5 0.868913 0.132390 0.112321
Si Si6 0.665142 0.206093 0.449006
Si Si7 0.675882 0.133257 0.555159
O O1 0.884493 0.367013 0.163032
O O2 0.803297 0.495033 0.168274
O O3 0.826481 0.399692 0.084171
O O4 0.000000 0.567709 0.128039
O O5 0.579111 0.154021 0.315474
O O6 0.428456 0.209868 0.331488
O O7 0.447663 0.170225 0.245028
O O8 0.375778 0.000000 0.303458
O O9 0.483581 0.137537 0.901414
O O10 0.371383 0.000000 0.831582
O O11 0.167774 0.310824 0.666847
O O12 0.828230 0.203126 0.078997
O O13 0.000000 0.180726 0.102398
O O14 0.798244 0.000000 0.105301
O O15 0.770425 0.332101 0.447310
O O16 0.675225 0.156823 0.499219
O O17 0.608762 0.000000 0.562528
#
# Coordination Sequence:
#
# PCOD9585259 Si02
#       7
#    12  12  12  12  12  12  12
#     4  10  21  35  51  79 113 149 185 218 274 341
#     4  11  22  38  59  87 119 152 198 250 301 357
#     4  11  22  40  63  85 117 157 197 243 302 365
#     4  11  21  34  54  80 112 148 186 236 283 336
#     4  10  21  38  57  79 111 153 199 241 281 331
#     4  10  20  35  59  85 118 147 188 235 293 353
#     4   9  20  36  55  83 119 150 187 237 286 343
#
# _framework density 18.231511999999999
#
# number of rings (size 3 to 8) (size 9 to 14) (size 15 to 20)
#    0.286    1.429    1.429    4.571    4.000    2.286 
#    0.000    1.429    0.000    0.286    0.000    0.000 
#    0.000    0.000    0.000    0.000    0.000    0.000 
#
# Total GULP energy -468243.399658 kJ/mol
# GULP energy per Si atom -5574.326186 kJ/mol
# Density = 1.819002 g / cm^3
# Si number density = 18.231512 Si / 1000 Ang^3
#
#
#
# Elastic Constant Matrix: (Units=GPa)
#
#
# Indices 1 2 3 4 5 6 
#
# 1 95.0730 53.9117 35.4457 0.0000 0.0000 0.0000
# 2 53.9117 95.0730 35.4457 0.0000 0.0000 0.0000
# 3 35.4457 35.4457 113.2766 0.0000 0.0000 0.0000
# 4 0.0000 0.0000 0.0000 11.1044 0.0000 0.0000
# 5 0.0000 0.0000 0.0000 0.0000 11.1044 0.0000
# 6 0.0000 0.0000 0.0000 0.0000 0.0000 20.5806
#
#
#
# Elastic Compliance Matrix: (Units=1/GPa)
#
#
# Indices 1 2 3 4 5 6 
#
# 1 0.016091 -0.008204 -0.002468 0.000000 0.000000 0.000000
# 2 -0.008204 0.016091 -0.002468 0.000000 0.000000 0.000000
# 3 -0.002468 -0.002468 0.010372 0.000000 0.000000 0.000000
# 4 0.000000 0.000000 0.000000 0.090054 0.000000 0.000000
# 5 0.000000 0.000000 0.000000 0.000000 0.090054 0.000000
# 6 0.000000 0.000000 0.000000 0.000000 0.000000 0.048589
#
#
# Mechanical properties :
#
#
# Convention : Reuss Voigt Hill
#
# Bulk Modulus (GPa) = 61.44757 61.44763 61.44760
# Shear Modulus (GPa) = 16.50408 20.46586 18.48497
#
# Velocity S-wave (km/s) = 3.01200 3.35409 3.18764
# Velocity P-wave (km/s) = 6.77299 6.98406 6.87934
#
# Compressibility (1/GPa) = 0.01627404
#
# Stress axis : x y z
#
# Youngs Moduli (GPa) = 62.14843 62.14843 96.41055
#
# Poissons Ratio (x) = 0.50988 0.23791
# Poissons Ratio (y) = 0.50988 0.23791
# Poissons Ratio (z) = 0.15337 0.15337
#
# Static dielectric constant tensor:
#      x y z
#    x 1.655170 0.000000 0.000000 
#    y 0.000000 1.655170 0.000000 
#    z 0.000000 0.000000 1.664780 
# 
# From -- ./inp_files/2154.got.cif
#   From: 2010.05.17/outbox.cif.g08.bks.cpg/sg185_cif.got.tgz:2154.got - 2010.05.20 12:05:34.
