data_PCOD9585671
_publ_section_title
;
Structure prediction by ZEFSAII (Michael W. Deem and Ramdas Pophale) SiO2 
 PCOD9585671
Probable space group: P -6 M 2
;
_chemical_formula_sum "Si O2"
_cell_formula_units_Z 66
_cell_length_a 12.765172
_cell_length_b 12.765172
_cell_length_c 28.573826
_cell_angle_alpha 90.000000
_cell_angle_beta 90.000000
_cell_angle_gamma 120.000000
_cell_volume 4032.295669
_symmetry_space_group_name_H-M "P -6 M 2"
_symmetry_group_IT_number 187
_symmetry_cell_setting 'hexagonal'
loop_
_space_group_symop_operation_xyz
x,y,z
-x+y,-x,-z
-y,x-y,z
x,y,-z
-x+y,-x,z
-y,x-y,-z
-y,-x,-z
-x+y,y,-z
x,x-y,-z
-x+y,y,z
x,x-y,z
-y,-x,z
loop_
_atom_site_type_symbol
_atom_site_label
_atom_site_fract_x
_atom_site_fract_y
_atom_site_fract_z
Si Si1 0.999984 0.751979 0.446146
Si Si2 0.999252 0.751083 0.000000
Si Si3 0.666365 0.083952 0.089997
Si Si4 0.666460 0.581180 0.639825
Si Si5 0.084483 0.417883 0.180483
Si Si6 0.751378 0.999845 0.729388
O O1 0.997235 0.712992 0.500000
O O2 0.889762 0.779523 0.440897
O O3 0.976178 0.651055 0.408121
O O4 0.126297 0.873704 0.438085
O O5 0.978464 0.669435 0.045736
O O6 0.128804 0.871197 0.000000
O O7 0.891703 0.783406 0.000000
O O8 0.547949 0.095898 0.082021
O O9 0.784569 0.215432 0.096050
O O10 0.642179 0.002494 0.135991
O O11 0.776265 0.552529 0.638805
O O12 0.539749 0.460252 0.644981
O O13 0.693272 0.670992 0.683303
O O14 0.213899 0.427798 0.172452
O O15 0.099282 0.549641 0.187404
O O16 0.026116 0.335320 0.226159
O O17 0.767363 0.883682 0.722890
O O18 0.880368 0.119633 0.737208
#
# Coordination Sequence:
#
# PCOD9585671 Si02
#       6
#    12   6  12  12  12  12
#     4   9  17  30  50  75 100 126 158 199 246 292
#     4  10  20  34  52  74 100 130 164 202 246 296
#     4  10  20  34  53  76 102 132 167 208 252 296
#     4  10  20  33  49  70  97 129 163 198 238 286
#     4  10  20  34  52  74 102 136 171 205 242 289
#     4  10  20  34  53  76 100 126 159 202 251 298
#
# _framework density 16.367849
#
# number of rings (size 3 to 8) (size 9 to 14) (size 15 to 20)
#    0.000    2.182    0.000    3.455    0.000    1.091 
#    0.000    2.727    0.000   19.273    0.000    0.000 
#    0.000    0.000    0.000    0.000    0.000    0.000 
#
# Total GULP energy -368342.423671 kJ/mol
# GULP energy per Si atom -5580.945813 kJ/mol
# Density = 1.633059 g / cm^3
# Si number density = 16.367849 Si / 1000 Ang^3
#
#
#
# Elastic Constant Matrix: (Units=GPa)
#
#
# Indices 1 2 3 4 5 6 
#
# 1 131.6988 93.1549 88.6510 0.0000 0.0001 0.0000
# 2 93.1549 131.6988 88.6510 0.0000 -0.0001 0.0000
# 3 88.6510 88.6510 120.9762 0.0000 0.0000 0.0000
# 4 0.0000 0.0000 0.0000 24.4788 0.0000 -0.0001
# 5 0.0001 -0.0001 0.0000 0.0000 24.4788 0.0000
# 6 0.0000 0.0000 0.0000 -0.0001 0.0000 19.2719
#
#
#
# Elastic Compliance Matrix: (Units=1/GPa)
#
#
# Indices 1 2 3 4 5 6 
#
# 1 0.018239 -0.007705 -0.007720 0.000000 0.000000 0.000000
# 2 -0.007705 0.018239 -0.007720 0.000000 0.000000 0.000000
# 3 -0.007720 -0.007720 0.019580 0.000000 0.000000 0.000000
# 4 0.000000 0.000000 0.000000 0.040852 0.000000 0.000000
# 5 0.000000 0.000000 0.000000 0.000000 0.040852 0.000000
# 6 0.000000 0.000000 0.000000 0.000000 0.000000 0.051889
#
#
# Mechanical properties :
#
#
# Convention : Reuss Voigt Hill
#
# Bulk Modulus (GPa) = 102.35054 102.80973 102.58013
# Shear Modulus (GPa) = 20.90338 21.24039 21.07188
#
# Velocity S-wave (km/s) = 3.57753 3.60625 3.59192
# Velocity P-wave (km/s) = 8.92929 8.96038 8.94485
#
# Compressibility (1/GPa) = 0.00977034
#
# Stress axis : x y z
#
# Youngs Moduli (GPa) = 54.82633 54.82633 51.07311
#
# Poissons Ratio (x) = 0.42244 0.39426
# Poissons Ratio (y) = 0.42244 0.39426
# Poissons Ratio (z) = 0.42323 0.42323
#
# Static dielectric constant tensor:
#      x y z
#    x 1.517690 0.000000 0.000000 
#    y 0.000000 1.517690 0.000000 
#    z 0.000000 0.000000 1.536880 
# 
# From -- ./inp_files/4416.got.cif
#   From: 2010.05.17/outbox.cif.g08.bks.cpg/sg187_3_cif.got.tgz:4416.got - 2010.05.20 12:09:04.
