data_PCOD9585633
_publ_section_title
;
Structure prediction by ZEFSAII (Michael W. Deem and Ramdas Pophale) SiO2 
 PCOD9585633
Probable space group: P -6 M 2
;
_chemical_formula_sum "Si O2"
_cell_formula_units_Z 54
_cell_length_a 12.869759
_cell_length_b 12.869759
_cell_length_c 23.860495
_cell_angle_alpha 90.000000
_cell_angle_beta 90.000000
_cell_angle_gamma 120.000000
_cell_volume 3422.558732
_symmetry_space_group_name_H-M "P -6 M 2"
_symmetry_group_IT_number 187
_symmetry_cell_setting 'hexagonal'
loop_
_space_group_symop_operation_xyz
x,y,z
-x+y,-x,-z
-y,x-y,z
x,y,-z
-x+y,-x,z
-y,x-y,-z
-y,-x,-z
-x+y,y,-z
x,x-y,-z
-x+y,y,z
x,x-y,z
-y,-x,z
loop_
_atom_site_type_symbol
_atom_site_label
_atom_site_fract_x
_atom_site_fract_y
_atom_site_fract_z
Si Si1 0.581950 0.916155 0.376808
Si Si2 0.999967 0.752747 0.727431
Si Si3 0.912193 0.578789 0.064348
Si Si4 0.086627 0.419608 0.833099
Si Si5 0.579255 0.913327 0.500000
O O1 0.456109 0.912218 0.367564
O O2 0.560903 0.780452 0.375975
O O3 0.629088 0.970087 0.439170
O O4 0.675970 0.986819 0.328096
O O5 0.874280 0.748559 0.729878
O O6 0.021319 0.690687 0.781346
O O7 0.110314 0.889686 0.726386
O O8 0.793195 0.586389 0.074708
O O9 0.882182 0.441091 0.068951
O O10 0.013667 0.652297 0.109911
O O11 0.951406 0.616829 0.000000
O O12 0.219853 0.439706 0.836500
O O13 0.090432 0.545216 0.824396
O O14 0.442552 0.885104 0.500000
O O15 0.581380 0.790690 0.500000
#
# Coordination Sequence:
#
# PCOD9585633 Si02
#       5
#    12  12  12  12   6
#     4   9  16  27  46  71  97 122 149 185 229 275
#     4  10  20  33  48  65  88 120 157 194 230 271
#     4   9  17  30  49  72  97 126 160 195 227 260
#     4  10  20  33  50  72  97 123 151 187 233 283
#     4   8  13  22  39  66  96 122 148 180 222 270
#
# _framework density 15.777668999999999
#
# number of rings (size 3 to 8) (size 9 to 14) (size 15 to 20)
#    0.000    2.667    0.000    2.333    0.000    3.111 
#    0.000    2.778    0.000    6.667    0.000    1.556 
#    0.000    0.000    0.000    0.000    0.000    0.000 
#
# Total GULP energy -300785.785900 kJ/mol
# GULP energy per Si atom -5570.107146 kJ/mol
# Density = 1.574176 g / cm^3
# Si number density = 15.777669 Si / 1000 Ang^3
#
#
#
# Elastic Constant Matrix: (Units=GPa)
#
#
# Indices 1 2 3 4 5 6 
#
# 1 84.0610 60.2136 79.2569 0.0000 0.0006 0.0000
# 2 60.2136 84.0610 79.2569 0.0000 -0.0006 0.0000
# 3 79.2569 79.2569 148.6222 0.0000 0.0000 0.0000
# 4 0.0000 0.0000 0.0000 20.3550 0.0000 -0.0006
# 5 0.0006 -0.0006 0.0000 0.0000 20.3550 0.0000
# 6 0.0000 0.0000 0.0000 -0.0006 0.0000 11.9237
#
#
#
# Elastic Compliance Matrix: (Units=1/GPa)
#
#
# Indices 1 2 3 4 5 6 
#
# 1 0.029336 -0.012597 -0.008926 0.000000 -0.000001 0.000000
# 2 -0.012597 0.029336 -0.008926 0.000000 0.000001 0.000000
# 3 -0.008926 -0.008926 0.016249 0.000000 0.000000 0.000000
# 4 0.000000 0.000000 0.000000 0.049128 0.000000 0.000003
# 5 -0.000001 0.000001 0.000000 0.000000 0.049128 0.000000
# 6 0.000000 0.000000 0.000000 0.000003 0.000000 0.083867
#
#
# Mechanical properties :
#
#
# Convention : Reuss Voigt Hill
#
# Bulk Modulus (GPa) = 71.32296 83.79989 77.56143
# Shear Modulus (GPa) = 15.49826 17.06118 16.27972
#
# Velocity S-wave (km/s) = 3.13755 3.29196 3.21568
# Velocity P-wave (km/s) = 7.64387 8.22664 7.94060
#
# Compressibility (1/GPa) = 0.01402073
#
# Stress axis : x y z
#
# Youngs Moduli (GPa) = 34.08788 34.08788 61.54297
#
# Poissons Ratio (x) = 0.42942 0.54935
# Poissons Ratio (y) = 0.42942 0.54935
# Poissons Ratio (z) = 0.30428 0.30428
#
# Static dielectric constant tensor:
#      x y z
#    x 1.494880 0.000000 0.000000 
#    y 0.000000 1.494880 0.000000 
#    z 0.000000 0.000000 1.556540 
# 
# From -- ./inp_files/3865.got.cif
#   From: 2010.05.17/outbox.cif.g08.bks.cpg/sg187_2_cif.got.tgz:3865.got - 2010.05.20 12:09:04.
