data_PCOD9585779
_publ_section_title
;
Structure prediction by ZEFSAII (Michael W. Deem and Ramdas Pophale) SiO2 
 PCOD9585779
Probable space group: P -6 M 2
;
_chemical_formula_sum "Si O2"
_cell_formula_units_Z 44
_cell_length_a 17.609578
_cell_length_b 17.609578
_cell_length_c 7.725943
_cell_angle_alpha 90.000000
_cell_angle_beta 90.000000
_cell_angle_gamma 120.000000
_cell_volume 2074.818103
_symmetry_space_group_name_H-M "P -6 M 2"
_symmetry_group_IT_number 187
_symmetry_cell_setting 'hexagonal'
loop_
_space_group_symop_operation_xyz
x,y,z
-x+y,-x,-z
-y,x-y,z
x,y,-z
-x+y,-x,z
-y,x-y,-z
-y,-x,-z
-x+y,y,-z
x,x-y,-z
-x+y,y,z
x,x-y,z
-y,-x,z
loop_
_atom_site_type_symbol
_atom_site_label
_atom_site_fract_x
_atom_site_fract_y
_atom_site_fract_z
Si Si1 0.332013 0.495481 0.292063
Si Si2 0.799286 0.899643 0.294646
Si Si3 0.000000 0.000000 0.287708
Si Si4 0.774819 0.719274 0.207698
Si Si5 0.962356 0.564260 0.798209
O O1 0.328205 0.481306 0.500000
O O2 0.236317 0.472633 0.231503
O O3 0.402180 0.597821 0.262127
O O4 0.374451 0.442197 0.210942
O O5 0.803428 0.901714 0.500000
O O6 0.756929 0.798637 0.244027
O O7 0.899609 0.949805 0.227071
O O8 0.000000 0.000000 0.500000
O O9 0.870508 0.741016 0.272639
O O10 0.698271 0.626165 0.277337
O O11 0.775008 0.712114 0.000000
O O12 0.940995 0.470498 0.721118
O O13 0.936487 0.548751 0.000000
#
# Coordination Sequence:
#
# PCOD9585779 Si02
#       5
#    12   6   2  12  12
#     4   9  17  29  45  66  93 126 163 201 241 284
#     4  11  21  35  53  77 111 147 183 221 265 314
#     4   9  18  33  49  71 109 147 175 215 259 300
#     4  10  21  36  54  77 104 138 178 218 265 321
#     4   9  19  35  52  70  96 130 167 211 259 305
#
# _framework density 21.206678
#
# number of rings (size 3 to 8) (size 9 to 14) (size 15 to 20)
#    0.000    2.455    1.364    0.682    1.909    2.727 
#    0.000    0.000    0.000    2.182    0.000    3.818 
#    0.000    0.000    0.000    6.273    0.000    7.636 
#
# Total GULP energy -245457.106040 kJ/mol
# GULP energy per Si atom -5578.570592 kJ/mol
# Density = 2.115841 g / cm^3
# Si number density = 21.206678 Si / 1000 Ang^3
#
#
#
# Elastic Constant Matrix: (Units=GPa)
#
#
# Indices 1 2 3 4 5 6 
#
# 1 89.3574 27.3506 4.0170 0.0000 -0.0001 0.0000
# 2 27.3506 89.3574 4.0170 0.0000 0.0001 0.0000
# 3 4.0170 4.0170 35.7337 0.0000 0.0000 0.0000
# 4 0.0000 0.0000 0.0000 -16.9619 0.0000 0.0001
# 5 -0.0001 0.0001 0.0000 0.0000 -16.9619 0.0000
# 6 0.0000 0.0000 0.0000 0.0001 0.0000 31.0034
#
#
#
# Elastic Compliance Matrix: (Units=1/GPa)
#
#
# Indices 1 2 3 4 5 6 
#
# 1 0.012381 -0.003746 -0.000971 0.000000 0.000000 0.000000
# 2 -0.003746 0.012381 -0.000971 0.000000 0.000000 0.000000
# 3 -0.000971 -0.000971 0.028203 0.000000 0.000000 0.000000
# 4 0.000000 0.000000 0.000000 -0.058956 0.000000 0.000000
# 5 0.000000 0.000000 0.000000 0.000000 -0.058956 0.000000
# 6 0.000000 0.000000 0.000000 0.000000 0.000000 0.032255
#
#
# Mechanical properties :
#
#
# Convention : Reuss Voigt Hill
#
# Bulk Modulus (GPa) = 24.04391 31.69086 27.86738
# Shear Modulus (GPa) = -670.88207 11.35352 -329.76427
#
# Velocity S-wave (km/s) = -17.80564 2.31633 -12.48350
# Velocity P-wave (km/s) = 20.28198 4.70426 13.95042
#
# Compressibility (1/GPa) = 0.04159057
#
# Stress axis : x y z
#
# Youngs Moduli (GPa) = 80.76737 80.76737 35.45719
#
# Poissons Ratio (x) = 0.30256 0.03442
# Poissons Ratio (y) = 0.30256 0.03442
# Poissons Ratio (z) = 0.07840 0.07840
#
# Static dielectric constant tensor:
#      x y z
#    x 1.792830 0.000000 0.000000 
#    y 0.000000 1.792830 0.000000 
#    z 0.000000 0.000000 1.774610 
# 
# From -- ./inp_files/366.got.cif
#   From: 2010.05.17/outbox.cif.g08.bks.cpg/sg187_1_cif.got.tgz:366.got - 2010.05.20 12:09:04.
