data_PCOD9585089
_publ_section_title
;
Structure prediction by ZEFSAII (Michael W. Deem and Ramdas Pophale) SiO2 
 PCOD9585089
Probable space group: P 6 M M
;
_chemical_formula_sum "Si O2"
_cell_formula_units_Z 96
_cell_length_a 18.000000
_cell_length_b 18.000000
_cell_length_c 21.000000
_cell_angle_alpha 90.000000
_cell_angle_beta 90.000000
_cell_angle_gamma 120.000000
_cell_volume 5892.436847
_symmetry_space_group_name_H-M "P 6 M M"
_symmetry_group_IT_number 183
_symmetry_cell_setting 'hexagonal'
loop_
_space_group_symop_operation_xyz
x,y,z
x-y,x,z
-y,x-y,z
-x,-y,z
-x+y,-x,z
y,-x+y,z
-x+y,y,z
x,x-y,z
-y,-x,z
y,x,z
x-y,-y,z
-x,-x+y,z
loop_
_atom_site_type_symbol
_atom_site_label
_atom_site_fract_x
_atom_site_fract_y
_atom_site_fract_z
Si Si1 0.097955 0.362844 0.648720
Si Si2 0.467760 0.103614 0.148570
Si Si3 0.366687 0.267504 0.270937
Si Si4 0.098878 0.366461 0.026379
Si Si5 0.363936 0.467043 0.528169
Si Si6 0.837584 0.505919 0.386614
Si Si7 0.666593 0.508480 0.763391
Si Si8 0.841699 0.508417 0.909426
O O1 0.164990 0.329980 0.655328
O O2 0.123689 0.424319 0.586953
O O3 0.107738 0.419835 0.710714
O O4 0.000000 0.290241 0.641426
O O5 0.569097 0.138193 0.148586
O O6 0.433085 0.125275 0.212082
O O7 0.433067 0.125446 0.085147
O O8 0.421166 0.000000 0.148483
O O9 0.333073 0.166537 0.272651
O O10 0.295460 0.295460 0.262913
O O11 0.419704 0.308791 0.335584
O O12 0.166796 0.333591 0.023936
O O13 0.000000 0.294717 0.035237
O O14 0.108819 0.418939 0.961745
O O15 0.433676 0.566325 0.541326
O O16 0.416782 0.416782 0.523008
O O17 0.323712 0.462580 0.459341
O O18 0.737921 0.475842 0.376572
O O19 0.855296 0.427648 0.377831
O O20 0.743018 0.486036 0.758862
O O21 0.575502 0.424499 0.751439
O O22 0.666981 0.536780 0.836429
O O23 0.742323 0.484645 0.913537
O O24 0.850016 0.425008 0.921871
#
# Coordination Sequence:
#
# PCOD9585089 Si02
#       8
#    12  12  12  12  12  12  12  12
#     4  10  20  33  48  66  89 117 151 191 233 274
#     4   9  17  30  49  72  96 121 149 180 216 263
#     4  10  20  33  50  71  94 122 157 197 239 281
#     4  10  20  33  49  69  93 122 157 197 239 280
#     4   9  17  29  46  68  93 121 152 184 219 264
#     4  10  19  30  45  67  96 128 160 192 225 262
#     4   9  17  29  46  69  97 127 155 182 215 260
#     4   9  17  29  46  69  97 127 156 185 219 262
#
# _framework density 16.292071
#
# number of rings (size 3 to 8) (size 9 to 14) (size 15 to 20)
#    0.000    2.500    0.000    2.625    0.000    4.250 
#    0.000    1.250    0.000    7.875    0.000    0.000 
#    0.000    3.000    0.000   10.250    0.000    0.000 
#
# Total GULP energy -535215.944855 kJ/mol
# GULP energy per Si atom -5575.166092 kJ/mol
# Density = 1.625499 g / cm^3
# Si number density = 16.292071 Si / 1000 Ang^3
#
#
#
# Elastic Constant Matrix: (Units=GPa)
#
#
# Indices 1 2 3 4 5 6 
#
# 1 70.7430 52.9788 40.0039 0.0000 0.0000 0.0000
# 2 52.9788 70.7430 40.0039 0.0000 0.0000 0.0000
# 3 40.0039 40.0039 89.3000 0.0000 0.0000 0.0000
# 4 0.0000 0.0000 0.0000 19.8135 0.0000 0.0000
# 5 0.0000 0.0000 0.0000 0.0000 19.8135 0.0000
# 6 0.0000 0.0000 0.0000 0.0000 0.0000 8.8821
#
#
#
# Elastic Compliance Matrix: (Units=1/GPa)
#
#
# Indices 1 2 3 4 5 6 
#
# 1 0.033836 -0.022457 -0.005098 0.000000 0.000000 0.000000
# 2 -0.022457 0.033836 -0.005098 0.000000 0.000000 0.000000
# 3 -0.005098 -0.005098 0.015765 0.000000 0.000000 0.000000
# 4 0.000000 0.000000 0.000000 0.050471 0.000000 0.000000
# 5 0.000000 0.000000 0.000000 0.000000 0.050471 0.000000
# 6 0.000000 0.000000 0.000000 0.000000 0.000000 0.112586
#
#
# Mechanical properties :
#
#
# Convention : Reuss Voigt Hill
#
# Bulk Modulus (GPa) = 55.14679 55.19545 55.17112
# Shear Modulus (GPa) = 13.57542 16.22178 14.89860
#
# Velocity S-wave (km/s) = 2.88974 3.15887 3.02730
# Velocity P-wave (km/s) = 6.71241 6.87437 6.79387
#
# Compressibility (1/GPa) = 0.01813342
#
# Stress axis : x y z
#
# Youngs Moduli (GPa) = 29.55435 29.55435 63.43050
#
# Poissons Ratio (x) = 0.66370 0.32334
# Poissons Ratio (y) = 0.66370 0.32334
# Poissons Ratio (z) = 0.15065 0.15065
#
# Static dielectric constant tensor:
#      x y z
#    x 1.538960 0.000000 0.000000 
#    y 0.000000 1.538960 0.000000 
#    z 0.000000 0.000000 1.553350 
# 
# From -- ./inp_files/3042.got.cif
#   From: 2010.05.17/outbox.ucp.g08.bks.cvg/sg183_2_cif.got.tgz:3042.got - 2010.06.11 15:21:10.
