data_PCOD9585810
_publ_section_title
;
Structure prediction by ZEFSAII (Michael W. Deem and Ramdas Pophale) SiO2 
 PCOD9585810
Probable space group: P -6 M 2
;
_chemical_formula_sum "Si O2"
_cell_formula_units_Z 84
_cell_length_a 24.875089
_cell_length_b 24.875089
_cell_length_c 7.350245
_cell_angle_alpha 90.000000
_cell_angle_beta 90.000000
_cell_angle_gamma 120.000000
_cell_volume 3938.780086
_symmetry_space_group_name_H-M "P -6 M 2"
_symmetry_group_IT_number 187
_symmetry_cell_setting 'hexagonal'
loop_
_space_group_symop_operation_xyz
x,y,z
-x+y,-x,-z
-y,x-y,z
x,y,-z
-x+y,-x,z
-y,x-y,-z
-y,-x,-z
-x+y,y,-z
x,x-y,-z
-x+y,y,z
x,x-y,z
-y,-x,z
loop_
_atom_site_type_symbol
_atom_site_label
_atom_site_fract_x
_atom_site_fract_y
_atom_site_fract_z
Si Si1 0.768507 0.115806 0.780502
Si Si2 0.924889 0.367986 0.221607
Si Si3 0.145505 0.414328 0.209585
Si Si4 0.666635 0.212327 0.778630
Si Si5 0.062952 0.470685 0.222326
Si Si6 0.201044 0.274781 0.287008
Si Si7 0.955734 0.796216 0.292451
O O1 0.811360 0.188641 0.735142
O O2 0.697912 0.082961 0.723297
O O3 0.803556 0.082010 0.704540
O O4 0.768852 0.111442 0.000000
O O5 0.859244 0.360979 0.280085
O O6 0.991601 0.423605 0.280773
O O7 0.925302 0.371444 0.000000
O O8 0.209319 0.418637 0.286294
O O9 0.112614 0.451018 0.287302
O O10 0.091814 0.341772 0.210870
O O11 0.159931 0.433717 0.000000
O O12 0.615969 0.231937 0.731280
O O13 0.735159 0.264842 0.717716
O O14 0.669675 0.210833 0.000000
O O15 0.079726 0.539863 0.272640
O O16 0.062234 0.467213 0.000000
O O17 0.217236 0.276162 0.500000
O O18 0.136119 0.272238 0.273294
O O19 0.191609 0.211093 0.206049
O O20 0.968661 0.820318 0.500000
O O21 0.907767 0.815534 0.211445
#
# Coordination Sequence:
#
# PCOD9585810 Si02
#       7
#    12  12  12  12  12  12  12
#     4   9  16  25  38  57  80 105 134 168 203 238
#     4   9  15  22  33  50  73 100 130 163 198 236
#     4   9  17  29  46  67  88 109 137 175 213 247
#     4   9  15  21  28  39  60  93 131 166 198 232
#     4   9  16  25  38  57  81 108 135 163 199 245
#     4   9  17  29  45  64  85 110 140 173 210 251
#     4   9  17  28  41  58  82 110 136 163 199 244
#
# _framework density 21.3264
#
# number of rings (size 3 to 8) (size 9 to 14) (size 15 to 20)
#    0.000    3.000    0.000    1.857    0.000    5.714 
#    0.000    0.000    0.000    1.000    0.000    4.000 
#    0.000    1.714    0.000    7.429    0.000   11.143 
#
# Total GULP energy -468123.225796 kJ/mol
# GULP energy per Si atom -5572.895545 kJ/mol
# Density = 2.127786 g / cm^3
# Si number density = 21.326400 Si / 1000 Ang^3
#
#
#
# Elastic Constant Matrix: (Units=GPa)
#
#
# Indices 1 2 3 4 5 6 
#
# 1 112.8879 51.7941 13.8571 0.0000 -0.0001 0.0000
# 2 51.7941 112.8879 13.8571 0.0000 0.0001 0.0000
# 3 13.8571 13.8571 72.2238 0.0000 0.0000 0.0000
# 4 0.0000 0.0000 0.0000 3.5505 0.0000 0.0001
# 5 -0.0001 0.0001 0.0000 0.0000 3.5505 0.0000
# 6 0.0000 0.0000 0.0000 0.0001 0.0000 30.5469
#
#
#
# Elastic Compliance Matrix: (Units=1/GPa)
#
#
# Indices 1 2 3 4 5 6 
#
# 1 0.011322 -0.005047 -0.001204 0.000000 0.000001 0.000000
# 2 -0.005047 0.011322 -0.001204 0.000000 -0.000001 0.000000
# 3 -0.001204 -0.001204 0.014308 0.000000 0.000000 0.000000
# 4 0.000000 0.000000 0.000000 0.281654 0.000000 -0.000001
# 5 0.000001 -0.000001 0.000000 0.000000 0.281654 0.000000
# 6 0.000000 0.000000 0.000000 -0.000001 0.000000 0.032737
#
#
# Mechanical properties :
#
#
# Convention : Reuss Voigt Hill
#
# Bulk Modulus (GPa) = 45.36799 50.77956 48.07378
# Shear Modulus (GPa) = 7.63064 22.09563 14.86314
#
# Velocity S-wave (km/s) = 1.89362 3.22230 2.64282
# Velocity P-wave (km/s) = 5.10886 6.14057 5.64832
#
# Compressibility (1/GPa) = 0.02204197
#
# Stress axis : x y z
#
# Youngs Moduli (GPa) = 88.32669 88.32669 69.89177
#
# Poissons Ratio (x) = 0.44576 0.08414
# Poissons Ratio (y) = 0.44576 0.08414
# Poissons Ratio (z) = 0.10634 0.10634
#
# Static dielectric constant tensor:
#      x y z
#    x 1.791570 0.000000 0.000000 
#    y 0.000000 1.791570 0.000000 
#    z 0.000000 0.000000 1.856890 
# 
# From -- ./inp_files/1981.got.cif
#   From: 2010.05.17/outbox.cif.g08.bks.cpg/sg187_1_cif.got.tgz:1981.got - 2010.05.20 12:09:04.
