data_PCOD9585740
_publ_section_title
;
Structure prediction by ZEFSAII (Michael W. Deem and Ramdas Pophale) SiO2 
 PCOD9585740
Probable space group: P -6 M 2
;
_chemical_formula_sum "Si O2"
_cell_formula_units_Z 84
_cell_length_a 18.820664
_cell_length_b 18.820664
_cell_length_c 13.740101
_cell_angle_alpha 90.000000
_cell_angle_beta 90.000000
_cell_angle_gamma 120.000000
_cell_volume 4214.930711
_symmetry_space_group_name_H-M "P -6 M 2"
_symmetry_group_IT_number 187
_symmetry_cell_setting 'hexagonal'
loop_
_space_group_symop_operation_xyz
x,y,z
-x+y,-x,-z
-y,x-y,z
x,y,-z
-x+y,-x,z
-y,x-y,-z
-y,-x,-z
-x+y,y,-z
x,x-y,-z
-x+y,y,z
x,x-y,z
-y,-x,z
loop_
_atom_site_type_symbol
_atom_site_label
_atom_site_fract_x
_atom_site_fract_y
_atom_site_fract_z
Si Si1 0.493553 0.667558 0.819957
Si Si2 0.965720 0.669160 0.686829
Si Si3 0.366727 0.470507 0.390270
Si Si4 0.666975 0.170529 0.615116
Si Si5 0.822001 0.333765 0.883324
Si Si6 0.635365 0.635288 0.887643
Si Si7 0.157660 0.157895 0.383037
O O1 0.513812 0.756906 0.853133
O O2 0.400634 0.599367 0.842205
O O3 0.504887 0.668418 0.702469
O O4 0.553029 0.638208 0.866549
O O5 0.883239 0.582639 0.669763
O O6 0.967903 0.748998 0.645942
O O7 0.033645 0.655273 0.631694
O O8 0.990291 0.686555 0.800570
O O9 0.339662 0.476662 0.500000
O O10 0.464594 0.535407 0.386589
O O11 0.664957 0.151804 0.500000
O O12 0.576011 0.152021 0.641819
O O13 0.733811 0.266189 0.627159
O O14 0.795600 0.397800 0.846794
O O15 0.758294 0.241706 0.848935
O O16 0.918756 0.371265 0.868960
O O17 0.814412 0.331016 0.000000
O O18 0.660528 0.658011 0.000000
O O19 0.155045 0.157771 0.500000
O O20 0.132798 0.066399 0.350967
O O21 0.091294 0.182587 0.347657
#
# Coordination Sequence:
#
# PCOD9585740 Si02
#       7
#    12  12  12  12  12  12  12
#     4  10  21  37  58  83 110 143 186 235 285 338
#     4  11  21  34  57  84 109 144 192 239 276 321
#     4   9  18  33  53  80 115 150 180 217 273 336
#     4  10  20  34  53  80 117 158 195 230 270 320
#     4   9  17  31  53  79 105 135 174 220 269 323
#     4  10  23  41  57  76 109 150 189 234 290 340
#     4  10  21  38  61  90 122 151 178 216 274 341
#
# _framework density 19.929155000000002
#
# number of rings (size 3 to 8) (size 9 to 14) (size 15 to 20)
#    0.000    2.143    0.000    3.143    0.000   10.571 
#    0.000    0.000    0.000    3.429    0.000    0.000 
#    0.000    1.143    0.000    0.000    0.000    0.000 
#
# Total GULP energy -468468.555357 kJ/mol
# GULP energy per Si atom -5577.006611 kJ/mol
# Density = 1.988380 g / cm^3
# Si number density = 19.929155 Si / 1000 Ang^3
#
#
#
# Elastic Constant Matrix: (Units=GPa)
#
#
# Indices 1 2 3 4 5 6 
#
# 1 95.5204 72.2495 16.1471 0.0000 -0.0001 0.0000
# 2 72.2495 95.5204 16.1471 0.0000 0.0001 0.0000
# 3 16.1471 16.1471 102.2966 0.0000 0.0000 0.0000
# 4 0.0000 0.0000 0.0000 10.6413 0.0000 0.0001
# 5 -0.0001 0.0001 0.0000 0.0000 10.6413 0.0000
# 6 0.0000 0.0000 0.0000 0.0001 0.0000 11.6355
#
#
#
# Elastic Compliance Matrix: (Units=1/GPa)
#
#
# Indices 1 2 3 4 5 6 
#
# 1 0.024560 -0.018412 -0.000970 0.000000 0.000000 0.000000
# 2 -0.018412 0.024560 -0.000970 0.000000 0.000000 0.000000
# 3 -0.000970 -0.000970 0.010082 0.000000 0.000000 0.000000
# 4 0.000000 0.000000 0.000000 0.093973 0.000000 -0.000001
# 5 0.000000 0.000000 0.000000 0.000000 0.093973 0.000000
# 6 0.000000 0.000000 0.000000 -0.000001 0.000000 0.085944
#
#
# Mechanical properties :
#
#
# Convention : Reuss Voigt Hill
#
# Bulk Modulus (GPa) = 54.06824 55.82498 54.94661
# Shear Modulus (GPa) = 13.15918 19.16987 16.16453
#
# Velocity S-wave (km/s) = 2.57241 3.10482 2.85107
# Velocity P-wave (km/s) = 6.00102 6.39732 6.20234
#
# Compressibility (1/GPa) = 0.01849515
#
# Stress axis : x y z
#
# Youngs Moduli (GPa) = 40.71716 40.71716 99.18845
#
# Poissons Ratio (x) = 0.74970 0.09625
# Poissons Ratio (y) = 0.74970 0.09625
# Poissons Ratio (z) = 0.03951 0.03951
#
# Static dielectric constant tensor:
#      x y z
#    x 1.690760 0.000000 0.000000 
#    y 0.000000 1.690760 0.000000 
#    z 0.000000 0.000000 1.753190 
# 
# From -- ./inp_files/2634.got.cif
#   From: 2010.05.17/outbox.cif.g08.bks.cpg/sg187_2_cif.got.tgz:2634.got - 2010.05.20 12:09:04.
