data_PCOD9585283
_publ_section_title
;
Structure prediction by ZEFSAII (Michael W. Deem and Ramdas Pophale) SiO2 
 PCOD9585283
Probable space group: P 63 C M
;
_chemical_formula_sum "Si O2"
_cell_formula_units_Z 52
_cell_length_a 13.884145
_cell_length_b 13.884145
_cell_length_c 13.973031
_cell_angle_alpha 90.000000
_cell_angle_beta 90.000000
_cell_angle_gamma 120.000000
_cell_volume 2332.703470
_symmetry_space_group_name_H-M "P 63 C M"
_symmetry_group_IT_number 185
_symmetry_cell_setting 'hexagonal'
loop_
_space_group_symop_operation_xyz
x,y,z
x-y,x,1/2+z
-y,x-y,z
-x,-y,1/2+z
-x+y,-x,z
y,-x+y,1/2+z
-x+y,y,1/2+z
x,x-y,1/2+z
-y,-x,1/2+z
y,x,z
x-y,-y,z
-x,-x+y,z
loop_
_atom_site_type_symbol
_atom_site_label
_atom_site_fract_x
_atom_site_fract_y
_atom_site_fract_z
Si Si1 0.000000 0.000000 0.596977
Si Si2 0.000000 0.000000 0.321819
Si Si3 0.458610 0.790676 0.375046
Si Si4 0.393773 0.200635 0.040246
Si Si5 0.824328 0.000000 0.958467
Si Si6 0.000000 0.445921 0.546597
Si Si7 0.000000 0.355294 0.160594
Si Si8 0.000000 0.499477 0.820689
O O1 0.105680 0.000000 0.550796
O O2 0.000000 0.000000 0.709359
O O3 0.893027 0.893027 0.366944
O O4 0.333049 0.769134 0.361209
O O5 0.516187 0.814809 0.478630
O O6 0.518900 0.894663 0.306314
O O7 0.438862 0.328138 0.069014
O O8 0.353925 0.109965 0.124912
O O9 0.292699 0.179928 0.969476
O O10 0.000000 0.542358 0.606443
O O11 0.000000 0.473438 0.433911
O O12 0.000000 0.398200 0.267024
#
# Coordination Sequence:
#
# PCOD9585283 Si02
#       8
#     2   2  12  12   6   6   6   6
#     4  10  20  43  58  89 136 163 206 280 331 401
#     4  10  20  43  64  92 121 181 212 262 364 389
#     4  10  20  39  68  89 128 176 216 272 339 399
#     4  11  20  43  67  89 133 173 222 283 337 403
#     4   9  22  39  68  97 126 167 230 273 334 416
#     4  11  22  44  64  95 130 182 222 274 346 415
#     4  12  25  40  67  99 135 178 225 284 346 400
#     4  12  23  39  65 100 128 173 233 269 335 419
#
# _framework density 22.291732
#
# number of rings (size 3 to 8) (size 9 to 14) (size 15 to 20)
#    0.462    0.923    4.615    1.385    0.000    1.846 
#    9.692    2.308    0.000    0.000    0.000    0.000 
#    0.000    0.000    0.000    0.000    0.000    0.000 
#
# Total GULP energy -289538.083062 kJ/mol
# GULP energy per Si atom -5568.040059 kJ/mol
# Density = 2.224099 g / cm^3
# Si number density = 22.291732 Si / 1000 Ang^3
#
#
#
# Elastic Constant Matrix: (Units=GPa)
#
#
# Indices 1 2 3 4 5 6 
#
# 1 90.4960 41.1380 12.5560 0.0000 0.0000 0.0000
# 2 41.1380 90.4960 12.5560 0.0000 0.0000 0.0000
# 3 12.5560 12.5560 77.9486 0.0000 0.0000 0.0000
# 4 0.0000 0.0000 0.0000 2.8287 0.0000 0.0000
# 5 0.0000 0.0000 0.0000 0.0000 2.8287 0.0000
# 6 0.0000 0.0000 0.0000 0.0000 0.0000 24.6790
#
#
#
# Elastic Compliance Matrix: (Units=1/GPa)
#
#
# Indices 1 2 3 4 5 6 
#
# 1 0.014049 -0.006211 -0.001262 0.000000 0.000000 0.000000
# 2 -0.006211 0.014049 -0.001262 0.000000 0.000000 0.000000
# 3 -0.001262 -0.001262 0.013236 0.000000 0.000000 0.000000
# 4 0.000000 0.000000 0.000000 0.353517 0.000000 0.000000
# 5 0.000000 0.000000 0.000000 0.000000 0.353517 0.000000
# 6 0.000000 0.000000 0.000000 0.000000 0.000000 0.040520
#
#
# Mechanical properties :
#
#
# Convention : Reuss Voigt Hill
#
# Bulk Modulus (GPa) = 41.90929 43.49339 42.70134
# Shear Modulus (GPa) = 6.14014 18.91334 12.52674
#
# Velocity S-wave (km/s) = 1.66145 2.91597 2.37311
# Velocity P-wave (km/s) = 4.74571 5.55792 5.16780
#
# Compressibility (1/GPa) = 0.02386106
#
# Stress axis : x y z
#
# Youngs Moduli (GPa) = 71.17994 71.17994 75.55331
#
# Poissons Ratio (x) = 0.44212 0.09539
# Poissons Ratio (y) = 0.44212 0.09539
# Poissons Ratio (z) = 0.08986 0.08986
#
# Static dielectric constant tensor:
#      x y z
#    x 1.862160 0.000000 0.000000 
#    y 0.000000 1.862160 0.000000 
#    z 0.000000 0.000000 1.820450 
# 
# From -- ./inp_files/1335.got.cif
#   From: 2010.05.17/outbox.cif.g08.bks.cpg/sg185_cif.got.tgz:1335.got - 2010.05.20 12:05:34.
