data_PCOD9585147
_publ_section_title
;
Structure prediction by ZEFSAII (Michael W. Deem and Ramdas Pophale) SiO2 
 PCOD9585147
Probable space group: P 6 C C
;
_chemical_formula_sum "Si O2"
_cell_formula_units_Z 84
_cell_length_a 17.922728
_cell_length_b 17.922728
_cell_length_c 13.743855
_cell_angle_alpha 90.000000
_cell_angle_beta 90.000000
_cell_angle_gamma 120.000000
_cell_volume 3823.379648
_symmetry_space_group_name_H-M "P 6 C C"
_symmetry_group_IT_number 184
_symmetry_cell_setting 'hexagonal'
loop_
_space_group_symop_operation_xyz
x,y,z
x-y,x,z
-y,x-y,z
-x,-y,z
-x+y,-x,z
y,-x+y,z
-x+y,y,1/2+z
x,x-y,1/2+z
-y,-x,1/2+z
y,x,1/2+z
x-y,-y,1/2+z
-x,-x+y,1/2+z
loop_
_atom_site_type_symbol
_atom_site_label
_atom_site_fract_x
_atom_site_fract_y
_atom_site_fract_z
Si Si1 0.394831 0.280427 0.165730
Si Si2 0.418274 0.008179 0.028733
Si Si3 0.197514 0.136001 0.780202
Si Si4 0.229046 0.826098 0.825896
Si Si5 0.017362 0.421764 0.803094
Si Si6 0.769477 0.138680 0.527077
Si Si7 0.851665 0.814118 0.045034
O O1 0.423073 0.343022 0.073382
O O2 0.439358 0.250508 0.246524
O O3 0.368856 0.337017 0.235047
O O4 0.346354 0.190661 0.106401
O O5 0.421536 0.094527 0.068522
O O6 0.500000 0.000000 0.050504
O O7 0.412418 0.015768 0.913164
O O8 0.129123 0.166107 0.810615
O O9 0.298689 0.189184 0.810248
O O10 0.191552 0.147496 0.662879
O O11 0.330771 0.883497 0.810612
O O12 0.197021 0.786896 0.932909
O O13 0.000000 0.500000 0.774498
O O14 0.779512 0.056229 0.503523
O O15 0.834131 0.888877 0.013954
#
# Coordination Sequence:
#
# PCOD9585147 Si02
#       7
#    12  12  12  12  12  12  12
#     4  12  23  42  69 102 141 182 233 292 358 428
#     4  11  25  46  73 107 142 182 237 304 375 440
#     4  10  21  35  55  85 131 182 230 278 326 384
#     4  12  24  40  67 102 139 184 237 291 353 434
#     4  11  25  46  73 107 142 182 237 304 375 440
#     4  12  24  40  67 102 139 184 237 291 353 434
#     4  10  21  35  55  85 131 182 230 278 326 384
#
# _framework density 21.970089999999999
#
# number of rings (size 3 to 8) (size 9 to 14) (size 15 to 20)
#    0.000    0.857    4.286    3.286    4.000    1.143 
#    0.000    0.000    0.000    6.286    7.429    0.000 
#    0.000    0.000    0.000    0.000    0.000    0.000 
#
# Total GULP energy -468160.383837 kJ/mol
# GULP energy per Si atom -5573.337903 kJ/mol
# Density = 2.192009 g / cm^3
# Si number density = 21.970090 Si / 1000 Ang^3
#
#
#
# Elastic Constant Matrix: (Units=GPa)
#
#
# Indices 1 2 3 4 5 6 
#
# 1 92.7148 68.4610 21.0817 0.0000 0.0000 0.0000
# 2 68.4610 92.7148 21.0817 0.0000 0.0000 0.0000
# 3 21.0817 21.0817 97.4406 0.0000 0.0000 0.0000
# 4 0.0000 0.0000 0.0000 -3.5103 0.0000 0.0000
# 5 0.0000 0.0000 0.0000 0.0000 -3.5103 0.0000
# 6 0.0000 0.0000 0.0000 0.0000 0.0000 12.1269
#
#
#
# Elastic Compliance Matrix: (Units=1/GPa)
#
#
# Indices 1 2 3 4 5 6 
#
# 1 0.023904 -0.017327 -0.001423 0.000000 0.000000 0.000000
# 2 -0.017327 0.023904 -0.001423 0.000000 0.000000 0.000000
# 3 -0.001423 -0.001423 0.010878 0.000000 0.000000 0.000000
# 4 0.000000 0.000000 0.000000 -0.284878 0.000000 0.000000
# 5 0.000000 0.000000 0.000000 0.000000 -0.284878 0.000000
# 6 0.000000 0.000000 0.000000 0.000000 0.000000 0.082461
#
#
# Mechanical properties :
#
#
# Convention : Reuss Voigt Hill
#
# Bulk Modulus (GPa) = 54.52539 56.01324 55.26931
# Shear Modulus (GPa) = -13.08386 12.50432 -0.28977
#
# Velocity S-wave (km/s) = -2.44300 2.38828 -0.36356
# Velocity P-wave (km/s) = 4.11269 5.75810 5.00350
#
# Compressibility (1/GPa) = 0.01834008
#
# Stress axis : x y z
#
# Youngs Moduli (GPa) = 41.83467 41.83467 91.92561
#
# Poissons Ratio (x) = 0.72487 0.13080
# Poissons Ratio (y) = 0.72487 0.13080
# Poissons Ratio (z) = 0.05953 0.05953
#
# Static dielectric constant tensor:
#      x y z
#    x 1.816320 0.000000 0.000000 
#    y 0.000000 1.816320 0.000000 
#    z 0.000000 0.000000 1.919670 
# 
# From -- ./inp_files/926.got.cif
#   From: 2010.05.17/outbox.cif.g08.bks.cpg/sg184_cif.got.tgz:926.got - 2010.05.20 12:04:40.
