data_PCOD9585277
_publ_section_title
;
Structure prediction by ZEFSAII (Michael W. Deem and Ramdas Pophale) SiO2 
 PCOD9585277
Probable space group: P 63 C M
;
_chemical_formula_sum "Si O2"
_cell_formula_units_Z 84
_cell_length_a 17.498387
_cell_length_b 17.498387
_cell_length_c 14.680273
_cell_angle_alpha 90.000000
_cell_angle_beta 90.000000
_cell_angle_gamma 120.000000
_cell_volume 3892.788407
_symmetry_space_group_name_H-M "P 63 C M"
_symmetry_group_IT_number 185
_symmetry_cell_setting 'hexagonal'
loop_
_space_group_symop_operation_xyz
x,y,z
x-y,x,1/2+z
-y,x-y,z
-x,-y,1/2+z
-x+y,-x,z
y,-x+y,1/2+z
-x+y,y,1/2+z
x,x-y,1/2+z
-y,-x,1/2+z
y,x,z
x-y,-y,z
-x,-x+y,z
loop_
_atom_site_type_symbol
_atom_site_label
_atom_site_fract_x
_atom_site_fract_y
_atom_site_fract_z
Si Si1 0.902513 0.804063 0.389580
Si Si2 0.262258 0.892661 0.205611
Si Si3 0.101808 0.201949 0.167956
Si Si4 0.107073 0.569776 0.689172
Si Si5 0.534042 0.636554 0.532034
Si Si6 0.194651 0.801756 0.904585
Si Si7 0.598315 0.102076 0.383329
O O1 0.831063 0.831063 0.417140
O O2 0.903339 0.803114 0.278960
O O3 0.876686 0.707670 0.423011
O O4 0.000000 0.875704 0.419286
O O5 0.172356 0.867874 0.152251
O O6 0.330778 0.866639 0.163141
O O7 0.239315 0.852101 0.307140
O O8 0.313918 0.000000 0.214173
O O9 0.164340 0.164340 0.136067
O O10 0.000000 0.140475 0.138080
O O11 0.139266 0.516490 0.626847
O O12 0.130029 0.563790 0.793188
O O13 0.000000 0.515276 0.681346
O O14 0.608800 0.608800 0.542227
O O15 0.573390 0.728182 0.481570
O O16 0.458399 0.563241 0.466977
O O17 0.298202 0.840938 0.896513
O O18 0.570812 0.000000 0.369950
#
# Coordination Sequence:
#
# PCOD9585277 Si02
#       7
#    12  12  12  12  12  12  12
#     4   9  16  26  45  78 119 159 197 238 288 351
#     4   9  16  30  53  79 108 150 198 238 287 353
#     4   8  13  20  36  68 111 154 191 231 279 341
#     4   9  18  36  61  84 110 154 203 249 302 361
#     4  10  20  38  62  84 111 154 201 248 305 365
#     4  11  19  32  54  86 115 154 198 247 298 362
#     4  10  21  38  58  85 120 155 195 247 306 365
#
# _framework density 21.578361999999998
#
# number of rings (size 3 to 8) (size 9 to 14) (size 15 to 20)
#    0.000    2.571    1.429    2.857    0.000    1.714 
#    3.429    0.000    0.000    0.000    0.000    0.000 
#    0.000    0.000    0.000    6.286    1.143    1.714 
#
# Total GULP energy -469178.665012 kJ/mol
# GULP energy per Si atom -5585.460298 kJ/mol
# Density = 2.152925 g / cm^3
# Si number density = 21.578362 Si / 1000 Ang^3
#
#
#
# Elastic Constant Matrix: (Units=GPa)
#
#
# Indices 1 2 3 4 5 6 
#
# 1 66.5590 26.2771 -11.7240 0.0000 0.0000 0.0000
# 2 26.2771 66.5590 -11.7240 0.0000 0.0000 0.0000
# 3 -11.7240 -11.7240 42.9601 0.0000 0.0000 0.0000
# 4 0.0000 0.0000 0.0000 10.0193 0.0000 0.0000
# 5 0.0000 0.0000 0.0000 0.0000 10.0193 0.0000
# 6 0.0000 0.0000 0.0000 0.0000 0.0000 20.1409
#
#
#
# Elastic Compliance Matrix: (Units=1/GPa)
#
#
# Indices 1 2 3 4 5 6 
#
# 1 0.018197 -0.006628 0.003157 0.000000 0.000000 0.000000
# 2 -0.006628 0.018197 0.003157 0.000000 0.000000 0.000000
# 3 0.003157 0.003157 0.025001 0.000000 0.000000 0.000000
# 4 0.000000 0.000000 0.000000 0.099807 0.000000 0.000000
# 5 0.000000 0.000000 0.000000 0.000000 0.099807 0.000000
# 6 0.000000 0.000000 0.000000 0.000000 0.000000 0.049650
#
#
# Mechanical properties :
#
#
# Convention : Reuss Voigt Hill
#
# Bulk Modulus (GPa) = 16.45601 20.19290 18.32445
# Shear Modulus (GPa) = 15.08104 19.58585 17.33344
#
# Velocity S-wave (km/s) = 2.64653 3.01601 2.83729
# Velocity P-wave (km/s) = 4.12087 4.63753 4.38681
#
# Compressibility (1/GPa) = 0.06076806
#
# Stress axis : x y z
#
# Youngs Moduli (GPa) = 54.95380 54.95380 39.99888
#
# Poissons Ratio (x) = 0.36423 -0.12629
# Poissons Ratio (y) = 0.36423 -0.12629
# Poissons Ratio (z) = -0.17350 -0.17350
#
# Static dielectric constant tensor:
#      x y z
#    x 1.762920 0.000000 0.000000 
#    y 0.000000 1.762920 0.000000 
#    z 0.000000 0.000000 1.811560 
# 
# From -- ./inp_files/1490.got.cif
#   From: 2010.05.17/outbox.cif.g08.bks.cpg/sg185_cif.got.tgz:1490.got - 2010.05.20 12:05:34.
