data_PCOD9585881
_publ_section_title
;
Structure prediction by ZEFSAII (Michael W. Deem and Ramdas Pophale) SiO2 
 PCOD9585881
Probable space group: P -6 C 2
;
_chemical_formula_sum "Si O2"
_cell_formula_units_Z 78
_cell_length_a 23.773907
_cell_length_b 23.773907
_cell_length_c 9.799200
_cell_angle_alpha 90.000000
_cell_angle_beta 90.000000
_cell_angle_gamma 120.000000
_cell_volume 4796.477066
_symmetry_space_group_name_H-M "P -6 C 2"
_symmetry_group_IT_number 188
_symmetry_cell_setting 'hexagonal'
loop_
_space_group_symop_operation_xyz
x,y,z
-x+y,-x,1/2-z
-y,x-y,z
x,y,1/2-z
-x+y,-x,z
-y,x-y,1/2-z
-y,-x,-z
-x+y,y,-z
x,x-y,-z
-x+y,y,1/2+z
x,x-y,1/2+z
-y,-x,1/2+z
loop_
_atom_site_type_symbol
_atom_site_label
_atom_site_fract_x
_atom_site_fract_y
_atom_site_fract_z
Si Si1 0.453943 0.434555 0.593777
Si Si2 0.583862 0.312629 0.750000
Si Si3 0.518627 0.167664 0.032603
Si Si4 0.337469 0.995947 0.588389
Si Si5 0.853677 0.604354 0.098908
Si Si6 0.114233 0.111876 0.415028
Si Si7 0.077800 0.813306 0.090794
O O1 0.449893 0.453442 0.750000
O O2 0.506460 0.493541 0.500000
O O3 0.478815 0.382106 0.601451
O O4 0.386372 0.398780 0.511053
O O5 0.651044 0.383960 0.750000
O O6 0.539816 0.309139 0.875498
O O7 0.586548 0.173095 0.000000
O O8 0.470169 0.162731 0.915011
O O9 0.350109 0.990024 0.750000
O O10 0.261892 0.949479 0.558481
O O11 0.353067 0.069988 0.570263
O O12 0.840541 0.617712 0.250000
O O13 0.807595 0.615190 0.000000
O O14 0.102481 0.096480 0.250000
O O15 0.050670 0.101340 0.500000
O O16 0.165747 0.188630 0.425668
O O17 0.136257 0.068129 0.500000
O O18 0.096202 0.823440 0.250000
O O19 0.138250 0.861751 0.000000
#
# Coordination Sequence:
#
# PCOD9585881 Si02
#       7
#    12   6  12  12  12  12  12
#     4  10  19  33  53  75  96 124 161 201 248 295
#     4  10  24  34  46  60  82 108 154 198 266 320
#     4  10  22  33  49  62  84 115 153 203 260 318
#     4   9  19  37  53  73  99 126 159 199 241 291
#     4  10  23  35  51  67  87 118 154 199 253 302
#     4  10  19  31  47  69  95 128 166 208 254 303
#     4   9  19  35  55  76 103 133 163 197 244 293
#
# _framework density 16.261935000000001
#
# number of rings (size 3 to 8) (size 9 to 14) (size 15 to 20)
#    0.154    2.154    0.769    1.077    4.308    4.308 
#    0.000    0.000    0.000    0.000    0.000    0.000 
#    0.000    0.000    0.000    0.462    0.000    7.385 
#
# Total GULP energy -434592.741779 kJ/mol
# GULP energy per Si atom -5571.701818 kJ/mol
# Density = 1.622492 g / cm^3
# Si number density = 16.261935 Si / 1000 Ang^3
#
#
#
# Elastic Constant Matrix: (Units=GPa)
#
#
# Indices 1 2 3 4 5 6 
#
# 1 72.0809 51.5545 58.2289 0.0000 0.0000 0.0000
# 2 51.5545 72.0809 58.2289 0.0000 0.0000 0.0000
# 3 58.2289 58.2289 118.9929 0.0000 0.0000 0.0000
# 4 0.0000 0.0000 0.0000 22.6704 0.0000 0.0000
# 5 0.0000 0.0000 0.0000 0.0000 22.6704 0.0000
# 6 0.0000 0.0000 0.0000 0.0000 0.0000 10.2632
#
#
#
# Elastic Compliance Matrix: (Units=1/GPa)
#
#
# Indices 1 2 3 4 5 6 
#
# 1 0.031861 -0.016857 -0.007342 0.000000 0.000000 0.000000
# 2 -0.016857 0.031861 -0.007342 0.000000 0.000000 0.000000
# 3 -0.007342 -0.007342 0.015590 0.000000 0.000000 0.000000
# 4 0.000000 0.000000 0.000000 0.044110 0.000000 0.000000
# 5 0.000000 0.000000 0.000000 0.000000 0.044110 0.000000
# 6 0.000000 0.000000 0.000000 0.000000 0.000000 0.097436
#
#
# Mechanical properties :
#
#
# Convention : Reuss Voigt Hill
#
# Bulk Modulus (GPa) = 61.61756 66.57548 64.09652
# Shear Modulus (GPa) = 14.99424 17.46361 16.22892
#
# Velocity S-wave (km/s) = 3.03981 3.28059 3.16249
# Velocity P-wave (km/s) = 7.09179 7.44164 7.26882
#
# Compressibility (1/GPa) = 0.01622914
#
# Stress axis : x y z
#
# Youngs Moduli (GPa) = 31.38618 31.38618 64.14448
#
# Poissons Ratio (x) = 0.52907 0.47097
# Poissons Ratio (y) = 0.52907 0.47097
# Poissons Ratio (z) = 0.23045 0.23045
#
# Static dielectric constant tensor:
#      x y z
#    x 1.541320 0.000000 0.000000 
#    y 0.000000 1.541320 0.000000 
#    z 0.000000 0.000000 1.610840 
# 
# From -- ./inp_files/1178.got.cif
#   From: 2010.05.17/outbox.cif.g08.bks.cpg/sg188_1_cif.got.tgz:1178.got - 2010.05.20 12:11:46.
