data_PCOD9585125
_publ_section_title
;
Structure prediction by ZEFSAII (Michael W. Deem and Ramdas Pophale) SiO2 
 PCOD9585125
Probable space group: P 6 C C
;
_chemical_formula_sum "Si O2"
_cell_formula_units_Z 56
_cell_length_a 13.332679
_cell_length_b 13.332679
_cell_length_c 20.311186
_cell_angle_alpha 90.000000
_cell_angle_beta 90.000000
_cell_angle_gamma 120.000000
_cell_volume 3126.804736
_symmetry_space_group_name_H-M "P 6 C C"
_symmetry_group_IT_number 184
_symmetry_cell_setting 'hexagonal'
loop_
_space_group_symop_operation_xyz
x,y,z
x-y,x,z
-y,x-y,z
-x,-y,z
-x+y,-x,z
y,-x+y,z
-x+y,y,1/2+z
x,x-y,1/2+z
-y,-x,1/2+z
y,x,1/2+z
x-y,-y,1/2+z
-x,-x+y,1/2+z
loop_
_atom_site_type_symbol
_atom_site_label
_atom_site_fract_x
_atom_site_fract_y
_atom_site_fract_z
Si Si1 0.333334 0.666667 0.629774
Si Si2 0.549472 0.912538 0.125472
Si Si3 0.989423 0.756660 0.724954
Si Si4 0.363066 0.912538 0.474264
Si Si5 0.756660 0.989424 0.874782
Si Si6 0.666668 0.333334 0.969961
O O1 0.337367 0.785793 0.649329
O O2 0.333334 0.666667 0.549868
O O3 0.500000 0.000000 0.123947
O O4 0.659732 0.969309 0.172467
O O5 0.579866 0.899430 0.049868
O O6 1.000000 0.721588 0.799868
O O7 0.878722 0.773057 0.716959
O O8 0.309577 0.969310 0.427269
O O9 0.337367 0.785793 0.450407
O O10 0.500000 0.000000 0.475789
O O11 0.773057 0.878722 0.882777
#
# Coordination Sequence:
#
# PCOD9585125 Si02
#       6
#     4  12  12  12  12   4
#     4   9  18  33  54  82 113 145 181 224 277 330
#     4  10  20  35  56  81 110 144 182 224 271 325
#     4  10  21  37  56  78 106 141 179 221 270 325
#     4  10  20  35  56  81 110 144 182 224 271 325
#     4  10  21  37  56  78 106 141 179 221 270 325
#     4   9  18  33  54  82 113 145 181 224 277 330
#
# _framework density 17.909655999999998
#
# number of rings (size 3 to 8) (size 9 to 14) (size 15 to 20)
#    0.000    2.143    0.000    3.000    0.000    7.714 
#    0.000    0.000    0.000    7.714    0.000    0.000 
#    0.000    0.000    0.000    0.000    0.000    0.000 
#
# Total GULP energy -312349.552637 kJ/mol
# GULP energy per Si atom -5577.670583 kJ/mol
# Density = 1.786889 g / cm^3
# Si number density = 17.909656 Si / 1000 Ang^3
#
#
#
# Elastic Constant Matrix: (Units=GPa)
#
#
# Indices 1 2 3 4 5 6 
#
# 1 94.3245 29.5298 71.2761 0.0000 0.0000 0.0000
# 2 29.5298 94.3236 71.2761 0.0000 0.0000 -0.0003
# 3 71.2761 71.2761 108.5952 0.0000 0.0000 0.0000
# 4 0.0000 0.0000 0.0000 27.2449 0.0000 0.0000
# 5 0.0000 0.0000 0.0000 0.0000 27.2449 0.0000
# 6 0.0000 -0.0003 0.0000 0.0000 0.0000 32.3967
#
#
#
# Elastic Compliance Matrix: (Units=1/GPa)
#
#
# Indices 1 2 3 4 5 6 
#
# 1 0.024224 0.008790 -0.021668 0.000000 0.000000 0.000000
# 2 0.008790 0.024224 -0.021669 0.000000 0.000000 0.000000
# 3 -0.021668 -0.021669 0.037653 0.000000 0.000000 0.000000
# 4 0.000000 0.000000 0.000000 0.036704 0.000000 0.000000
# 5 0.000000 0.000000 0.000000 0.000000 0.036704 0.000000
# 6 0.000000 0.000000 0.000000 0.000000 0.000000 0.030867
#
#
# Mechanical properties :
#
#
# Convention : Reuss Voigt Hill
#
# Bulk Modulus (GPa) = 58.80192 71.26749 65.03471
# Shear Modulus (GPa) = 18.85807 25.72137 22.28972
#
# Velocity S-wave (km/s) = 3.24845 3.79380 3.53167
# Velocity P-wave (km/s) = 6.85373 7.68568 7.28160
#
# Compressibility (1/GPa) = 0.01700625
#
# Stress axis : x y z
#
# Youngs Moduli (GPa) = 41.28222 41.28149 26.55849
#
# Poissons Ratio (x) = -0.36287 0.57548
# Poissons Ratio (y) = -0.36288 0.57549
# Poissons Ratio (z) = 0.89452 0.89452
#
# Static dielectric constant tensor:
#      x y z
#    x 1.595320 0.000000 0.000000 
#    y 0.000000 1.595320 0.000000 
#    z 0.000000 0.000000 1.625680 
# 
# From -- ./inp_files/1313.got.cif
#   From: 2010.05.17/outbox.cif.g08.bks.cpg/sg184_cif.got.tgz:1313.got - 2010.05.20 12:04:40.
