data_PCOD9585428
_publ_section_title
;
Structure prediction by ZEFSAII (Michael W. Deem and Ramdas Pophale) SiO2 
 PCOD9585428
Probable space group: P -6 M 2
;
_chemical_formula_sum "Si O2"
_cell_formula_units_Z 84
_cell_length_a 19.076153
_cell_length_b 19.076153
_cell_length_c 15.266978
_cell_angle_alpha 90.000000
_cell_angle_beta 90.000000
_cell_angle_gamma 120.000000
_cell_volume 4811.331774
_symmetry_space_group_name_H-M "P -6 M 2"
_symmetry_group_IT_number 187
_symmetry_cell_setting 'hexagonal'
loop_
_space_group_symop_operation_xyz
x,y,z
-x+y,-x,-z
-y,x-y,z
x,y,-z
-x+y,-x,z
-y,x-y,-z
-y,-x,-z
-x+y,y,-z
x,x-y,-z
-x+y,y,z
x,x-y,z
-y,-x,z
loop_
_atom_site_type_symbol
_atom_site_label
_atom_site_fract_x
_atom_site_fract_y
_atom_site_fract_z
Si Si1 0.953976 0.206615 0.252479
Si Si2 0.690153 0.927933 0.894830
Si Si3 0.666753 0.491403 0.130119
Si Si4 0.015207 0.584247 0.395801
Si Si5 0.856975 0.561700 0.686059
Si Si6 0.237209 0.310818 0.396706
Si Si7 0.570905 0.584572 0.101340
O O1 0.887513 0.112488 0.251988
O O2 0.904014 0.254191 0.266600
O O3 0.006599 0.236443 0.164196
O O4 0.014245 0.236260 0.335387
O O5 0.677978 0.838989 0.880302
O O6 0.614358 0.938452 0.864383
O O7 0.701962 0.944487 0.000000
O O8 0.755730 0.511459 0.101222
O O9 0.597983 0.402018 0.102957
O O10 0.670094 0.497930 0.235448
O O11 0.634644 0.551837 0.102675
O O12 0.024297 0.585550 0.500000
O O13 0.036613 0.518307 0.359396
O O14 0.065061 0.677569 0.367169
O O15 0.922302 0.555781 0.372907
O O16 0.778380 0.556759 0.641197
O O17 0.244386 0.294914 0.500000
O O18 0.163752 0.327504 0.387809
O O19 0.487743 0.512258 0.141768
O O20 0.553519 0.591123 0.000000
#
# Coordination Sequence:
#
# PCOD9585428 Si02
#       7
#    12  12  12  12  12  12  12
#     4  10  19  32  51  76 101 126 163 207 252 306
#     4  10  20  34  53  77 104 134 169 210 254 303
#     4  10  18  28  42  63  92 125 159 194 233 278
#     4   9  17  29  46  69  97 129 165 205 246 291
#     4   9  17  28  43  65  92 124 161 199 239 283
#     4   9  18  33  53  76 103 134 169 212 260 309
#     4   9  18  32  49  69  95 128 166 207 248 290
#
# _framework density 17.458783
#
# number of rings (size 3 to 8) (size 9 to 14) (size 15 to 20)
#    0.000    2.571    1.429    1.000    0.000    1.143 
#    0.000    4.286    0.000    4.000    0.000    4.000 
#    0.000    1.143    0.000    0.000    0.000    0.000 
#
# Total GULP energy -467670.028010 kJ/mol
# GULP energy per Si atom -5567.500333 kJ/mol
# Density = 1.741905 g / cm^3
# Si number density = 17.458783 Si / 1000 Ang^3
#
#
#
# Elastic Constant Matrix: (Units=GPa)
#
#
# Indices 1 2 3 4 5 6 
#
# 1 100.4345 64.0280 30.3540 0.0000 0.0001 0.0000
# 2 64.0280 100.4345 30.3540 0.0000 -0.0001 0.0000
# 3 30.3540 30.3540 47.3389 0.0000 0.0000 0.0000
# 4 0.0000 0.0000 0.0000 12.2751 0.0000 -0.0001
# 5 0.0001 -0.0001 0.0000 0.0000 12.2751 0.0000
# 6 0.0000 0.0000 0.0000 -0.0001 0.0000 18.2032
#
#
#
# Elastic Compliance Matrix: (Units=1/GPa)
#
#
# Indices 1 2 3 4 5 6 
#
# 1 0.017717 -0.009751 -0.005108 0.000000 0.000000 0.000000
# 2 -0.009751 0.017717 -0.005108 0.000000 0.000000 0.000000
# 3 -0.005108 -0.005108 0.027675 0.000000 0.000000 0.000000
# 4 0.000000 0.000000 0.000000 0.081466 0.000000 0.000001
# 5 0.000000 0.000000 0.000000 0.000000 0.081466 0.000000
# 6 0.000000 0.000000 0.000000 0.000001 0.000000 0.054935
#
#
# Mechanical properties :
#
#
# Convention : Reuss Voigt Hill
#
# Bulk Modulus (GPa) = 43.14956 55.29778 49.22367
# Shear Modulus (GPa) = 15.21455 16.78214 15.99834
#
# Velocity S-wave (km/s) = 2.95524 3.10376 3.03041
# Velocity P-wave (km/s) = 6.03435 6.67731 6.36396
#
# Compressibility (1/GPa) = 0.02317521
#
# Stress axis : x y z
#
# Youngs Moduli (GPa) = 56.44380 56.44380 36.13433
#
# Poissons Ratio (x) = 0.55038 0.18456
# Poissons Ratio (y) = 0.55038 0.18456
# Poissons Ratio (z) = 0.28830 0.28830
#
# Static dielectric constant tensor:
#      x y z
#    x 1.607090 0.000000 0.000000 
#    y 0.000000 1.607090 0.000000 
#    z 0.000000 0.000000 1.631210 
# 
# From -- ./inp_files/2616.got.cif
#   From: 2010.05.17/outbox.cif.g08.bks.cpg/sg187_2_cif.got.tgz:2616.got - 2010.05.20 12:09:04.
