data_PCOD9585692
_publ_section_title
;
Structure prediction by ZEFSAII (Michael W. Deem and Ramdas Pophale) SiO2 
 PCOD9585692
Probable space group: P -6 M 2
;
_chemical_formula_sum "Si O2"
_cell_formula_units_Z 60
_cell_length_a 12.848396
_cell_length_b 12.848396
_cell_length_c 26.021395
_cell_angle_alpha 90.000000
_cell_angle_beta 90.000000
_cell_angle_gamma 120.000000
_cell_volume 3720.137859
_symmetry_space_group_name_H-M "P -6 M 2"
_symmetry_group_IT_number 187
_symmetry_cell_setting 'hexagonal'
loop_
_space_group_symop_operation_xyz
x,y,z
-x+y,-x,-z
-y,x-y,z
x,y,-z
-x+y,-x,z
-y,x-y,-z
-y,-x,-z
-x+y,y,-z
x,x-y,-z
-x+y,y,z
x,x-y,z
-y,-x,z
loop_
_atom_site_type_symbol
_atom_site_label
_atom_site_fract_x
_atom_site_fract_y
_atom_site_fract_z
Si Si1 0.579106 0.666359 0.190636
Si Si2 0.086499 0.667179 0.000000
Si Si3 0.578459 0.911651 0.691166
Si Si4 0.000008 0.246875 0.096932
Si Si5 0.913784 0.580539 0.596835
Si Si6 0.752761 0.752455 0.500000
O O1 0.549262 0.774631 0.186279
O O2 0.459997 0.540004 0.179889
O O3 0.616420 0.666483 0.249793
O O4 0.682896 0.695560 0.149847
O O5 0.025327 0.687144 0.050094
O O6 0.225101 0.774900 0.000000
O O7 0.079126 0.539563 0.000000
O O8 0.439626 0.879251 0.687903
O O9 0.588445 0.794223 0.680553
O O10 0.650390 0.014421 0.649623
O O11 0.108880 0.217760 0.095811
O O12 0.873361 0.126640 0.092041
O O13 0.780528 0.561056 0.599561
O O14 0.909601 0.454801 0.587898
O O15 0.980953 0.671764 0.550180
O O16 0.746089 0.873045 0.500000
O O17 0.890706 0.781411 0.500000
#
# Coordination Sequence:
#
# PCOD9585692 Si02
#       6
#    12   6  12  12  12   6
#     4   9  17  30  50  74  98 125 159 202 249 292
#     4  10  20  34  54  78 100 122 152 196 246 290
#     4   9  17  30  49  73  99 127 160 200 247 293
#     4  10  20  33  50  71  97 129 162 196 233 279
#     4  10  20  33  50  71  97 130 165 199 233 276
#     4  10  20  34  52  72  94 120 152 194 242 290
#
# _framework density 16.128435
#
# number of rings (size 3 to 8) (size 9 to 14) (size 15 to 20)
#    0.000    2.400    0.000    2.800    0.000    2.400 
#    0.000    4.000    0.000    8.800    0.000    0.000 
#    0.000    0.000    0.000    0.000    0.000    0.000 
#
# Total GULP energy -334688.568869 kJ/mol
# GULP energy per Si atom -5578.142814 kJ/mol
# Density = 1.609173 g / cm^3
# Si number density = 16.128435 Si / 1000 Ang^3
#
#
#
# Elastic Constant Matrix: (Units=GPa)
#
#
# Indices 1 2 3 4 5 6 
#
# 1 119.3954 83.3587 81.3089 0.0000 -0.0001 0.0000
# 2 83.3587 119.3954 81.3089 0.0000 0.0001 0.0000
# 3 81.3089 81.3089 122.4788 0.0000 0.0000 0.0000
# 4 0.0000 0.0000 0.0000 18.7092 0.0000 0.0001
# 5 -0.0001 0.0001 0.0000 0.0000 18.7092 0.0000
# 6 0.0000 0.0000 0.0000 0.0001 0.0000 18.0184
#
#
#
# Elastic Compliance Matrix: (Units=1/GPa)
#
#
# Indices 1 2 3 4 5 6 
#
# 1 0.019149 -0.008600 -0.007003 0.000000 0.000000 0.000000
# 2 -0.008600 0.019149 -0.007003 0.000000 0.000000 0.000000
# 3 -0.007003 -0.007003 0.017463 0.000000 0.000000 0.000000
# 4 0.000000 0.000000 0.000000 0.053450 0.000000 0.000000
# 5 0.000000 0.000000 0.000000 0.000000 0.053450 0.000000
# 6 0.000000 0.000000 0.000000 0.000000 0.000000 0.055499
#
#
# Mechanical properties :
#
#
# Convention : Reuss Voigt Hill
#
# Bulk Modulus (GPa) = 94.80056 94.80250 94.80153
# Shear Modulus (GPa) = 18.73449 18.77356 18.75402
#
# Velocity S-wave (km/s) = 3.41190 3.41545 3.41367
# Velocity P-wave (km/s) = 8.62714 8.62908 8.62811
#
# Compressibility (1/GPa) = 0.01054846
#
# Stress axis : x y z
#
# Youngs Moduli (GPa) = 52.22184 52.22184 57.26551
#
# Poissons Ratio (x) = 0.44913 0.40102
# Poissons Ratio (y) = 0.44913 0.40102
# Poissons Ratio (z) = 0.36570 0.36570
#
# Static dielectric constant tensor:
#      x y z
#    x 1.508080 0.000000 0.000000 
#    y 0.000000 1.508080 0.000000 
#    z 0.000000 0.000000 1.544390 
# 
# From -- ./inp_files/4155.got.cif
#   From: 2010.05.17/outbox.cif.g08.bks.cpg/sg187_3_cif.got.tgz:4155.got - 2010.05.20 12:09:04.
