data_PCOD9585110
_publ_section_title
;
Structure prediction by ZEFSAII (Michael W. Deem and Ramdas Pophale) SiO2 
 PCOD9585110
Probable space group: P 6 C C
;
_chemical_formula_sum "Si O2"
_cell_formula_units_Z 96
_cell_length_a 21.926292
_cell_length_b 21.926292
_cell_length_c 15.615071
_cell_angle_alpha 90.000000
_cell_angle_beta 90.000000
_cell_angle_gamma 120.000000
_cell_volume 6501.371482
_symmetry_space_group_name_H-M "P 6 C C"
_symmetry_group_IT_number 184
_symmetry_cell_setting 'hexagonal'
loop_
_space_group_symop_operation_xyz
x,y,z
x-y,x,z
-y,x-y,z
-x,-y,z
-x+y,-x,z
y,-x+y,z
-x+y,y,1/2+z
x,x-y,1/2+z
-y,-x,1/2+z
y,x,1/2+z
x-y,-y,1/2+z
-x,-x+y,1/2+z
loop_
_atom_site_type_symbol
_atom_site_label
_atom_site_fract_x
_atom_site_fract_y
_atom_site_fract_z
Si Si1 0.787772 0.540179 0.341280
Si Si2 0.009224 0.430811 0.645900
Si Si3 0.620949 0.430690 0.484378
Si Si4 0.770326 0.491406 0.533168
Si Si5 0.067795 0.433866 0.311565
Si Si6 0.417353 0.609478 0.302064
Si Si7 0.447846 0.031433 0.460328
Si Si8 0.478488 0.313591 0.705300
O O1 0.777184 0.530943 0.443290
O O2 0.772491 0.465735 0.296877
O O3 0.735680 0.556774 0.288203
O O4 0.872084 0.586284 0.329363
O O5 0.954363 0.376415 0.713375
O O6 0.084473 0.449305 0.681602
O O7 0.000000 0.500000 0.647061
O O8 0.997925 0.403700 0.548949
O O9 0.686570 0.441322 0.539596
O O10 0.550320 0.363433 0.518867
O O11 0.627947 0.408776 0.388118
O O12 0.616697 0.501562 0.474293
O O13 0.798004 0.531224 0.621963
O O14 0.888638 0.480008 0.321560
O O15 0.002327 0.401032 0.377042
O O16 0.367974 0.561015 0.227440
O O17 0.500000 0.000000 0.455886
#
# Coordination Sequence:
#
# PCOD9585110 Si02
#       8
#    12  12  12  12  12  12  12  12
#     4   9  21  36  45  62  92 108 135 176 230 273
#     4  11  20  29  50  69  82 104 149 180 219 270
#     4  11  21  35  47  64  88 123 142 182 228 297
#     4  11  23  33  44  63  92 109 147 171 233 283
#     4  10  19  35  49  66  89 108 137 192 219 273
#     4   9  19  35  48  63  84 112 142 174 224 280
#     4  11  19  31  52  66  85 108 150 188 226 263
#     4  12  21  33  49  67  85 113 141 184 225 281
#
# _framework density 14.766114999999999
#
# number of rings (size 3 to 8) (size 9 to 14) (size 15 to 20)
#    0.750    0.750    3.750    3.625    3.500    0.000 
#    0.750    0.000    0.000    0.000    0.000    0.000 
#    0.000    0.000    0.000    0.000    0.000    0.000 
#
# Total GULP energy -534454.598917 kJ/mol
# GULP energy per Si atom -5567.235405 kJ/mol
# Density = 1.473251 g / cm^3
# Si number density = 14.766115 Si / 1000 Ang^3
#
#
#
# Elastic Constant Matrix: (Units=GPa)
#
#
# Indices 1 2 3 4 5 6 
#
# 1 34.7947 10.6679 5.2150 0.0000 0.0000 0.0000
# 2 10.6679 34.7947 5.2150 0.0000 0.0000 0.0000
# 3 5.2150 5.2150 70.2195 0.0000 0.0000 0.0000
# 4 0.0000 0.0000 0.0000 15.1108 0.0000 0.0000
# 5 0.0000 0.0000 0.0000 0.0000 15.1108 0.0000
# 6 0.0000 0.0000 0.0000 0.0000 0.0000 12.0634
#
#
#
# Elastic Compliance Matrix: (Units=1/GPa)
#
#
# Indices 1 2 3 4 5 6 
#
# 1 0.031913 -0.009535 -0.001662 0.000000 0.000000 0.000000
# 2 -0.009535 0.031913 -0.001662 0.000000 0.000000 0.000000
# 3 -0.001662 -0.001662 0.014488 0.000000 0.000000 0.000000
# 4 0.000000 0.000000 0.000000 0.066178 0.000000 0.000000
# 5 0.000000 0.000000 0.000000 0.000000 0.066178 0.000000
# 6 0.000000 0.000000 0.000000 0.000000 0.000000 0.082895
#
#
# Mechanical properties :
#
#
# Convention : Reuss Voigt Hill
#
# Bulk Modulus (GPa) = 19.01318 20.22273 19.61796
# Shear Modulus (GPa) = 14.84500 16.37106 15.60803
#
# Velocity S-wave (km/s) = 3.17415 3.33331 3.25471
# Velocity P-wave (km/s) = 5.13204 5.34226 5.23820
#
# Compressibility (1/GPa) = 0.05259509
#
# Stress axis : x y z
#
# Youngs Moduli (GPa) = 31.33568 31.33568 69.02309
#
# Poissons Ratio (x) = 0.29879 0.11471
# Poissons Ratio (y) = 0.29879 0.11471
# Poissons Ratio (z) = 0.05208 0.05208
#
# Static dielectric constant tensor:
#      x y z
#    x 1.522690 0.000000 0.000000 
#    y 0.000000 1.522690 0.000000 
#    z 0.000000 0.000000 1.552820 
# 
# From -- ./inp_files/1169.got.cif
#   From: 2010.05.17/outbox.cif.g08.bks.cpg/sg184_cif.got.tgz:1169.got - 2010.05.20 12:04:40.
