data_PCOD9585728
_publ_section_title
;
Structure prediction by ZEFSAII (Michael W. Deem and Ramdas Pophale) SiO2 
 PCOD9585728
Probable space group: P -6 M 2
;
_chemical_formula_sum "Si O2"
_cell_formula_units_Z 72
_cell_length_a 12.625961
_cell_length_b 12.625961
_cell_length_c 31.455735
_cell_angle_alpha 90.000000
_cell_angle_beta 90.000000
_cell_angle_gamma 120.000000
_cell_volume 4342.695275
_symmetry_space_group_name_H-M "P -6 M 2"
_symmetry_group_IT_number 187
_symmetry_cell_setting 'hexagonal'
loop_
_space_group_symop_operation_xyz
x,y,z
-x+y,-x,-z
-y,x-y,z
x,y,-z
-x+y,-x,z
-y,x-y,-z
-y,-x,-z
-x+y,y,-z
x,x-y,-z
-x+y,y,z
x,x-y,z
-y,-x,z
loop_
_atom_site_type_symbol
_atom_site_label
_atom_site_fract_x
_atom_site_fract_y
_atom_site_fract_z
Si Si1 0.666297 0.081449 0.833036
Si Si2 0.081165 0.414621 0.916654
Si Si3 0.666637 0.585273 0.333370
Si Si4 0.251744 0.000498 0.416911
Si Si5 0.414538 0.081437 0.500000
Si Si6 0.333743 0.918495 0.750261
Si Si7 0.251108 0.999499 0.000000
O O1 0.555546 0.111092 0.831651
O O2 0.795441 0.204560 0.833217
O O3 0.646182 0.001957 0.875287
O O4 0.649686 0.999785 0.791690
O O5 0.213112 0.426224 0.911079
O O6 0.095313 0.547657 0.922088
O O7 0.019732 0.332553 0.958186
O O8 0.786081 0.572162 0.327588
O O9 0.547103 0.452898 0.339379
O O10 0.689389 0.668915 0.374626
O O11 0.643994 0.645445 0.291894
O O12 0.129212 0.870789 0.417073
O O13 0.220991 0.110496 0.418031
O O14 0.334218 0.018866 0.458193
O O15 0.538414 0.076828 0.500000
O O16 0.443390 0.221695 0.500000
O O17 0.444259 0.888517 0.751709
O O18 0.204443 0.795558 0.749863
O O19 0.259033 0.129517 0.000000
O O20 0.110382 0.889619 0.000000
#
# Coordination Sequence:
#
# PCOD9585728 Si02
#       7
#    12  12  12  12   6  12   6
#     4  10  20  34  53  76 103 135 170 210 254 301
#     4  10  20  34  54  78 104 134 168 209 254 301
#     4  10  20  34  54  78 104 134 168 209 254 301
#     4  10  20  34  53  76 103 135 170 208 250 298
#     4  10  20  34  54  78 104 134 168 210 256 302
#     4  10  20  34  53  76 103 135 170 209 252 300
#     4  10  20  34  52  74 102 136 172 208 248 296
#
# _framework density 16.579566
#
# number of rings (size 3 to 8) (size 9 to 14) (size 15 to 20)
#    0.000    2.000    0.000    4.000    0.000    0.000 
#    0.000    6.667    0.000   16.000    0.000    0.000 
#    0.000    0.000    0.000    0.000    0.000    0.000 
#
# Total GULP energy -402048.010071 kJ/mol
# GULP energy per Si atom -5584.000140 kJ/mol
# Density = 1.654183 g / cm^3
# Si number density = 16.579566 Si / 1000 Ang^3
#
#
#
# Elastic Constant Matrix: (Units=GPa)
#
#
# Indices 1 2 3 4 5 6 
#
# 1 150.3453 112.4798 101.7394 0.0000 -0.0001 0.0000
# 2 112.4798 150.3453 101.7394 0.0000 0.0001 0.0000
# 3 101.7394 101.7394 172.8489 0.0000 0.0000 0.0000
# 4 0.0000 0.0000 0.0000 19.5929 0.0000 0.0001
# 5 -0.0001 0.0001 0.0000 0.0000 19.5929 0.0000
# 6 0.0000 0.0000 0.0000 0.0001 0.0000 18.9328
#
#
#
# Elastic Compliance Matrix: (Units=1/GPa)
#
#
# Indices 1 2 3 4 5 6 
#
# 1 0.016700 -0.009710 -0.004114 0.000000 0.000000 0.000000
# 2 -0.009710 0.016700 -0.004114 0.000000 0.000000 0.000000
# 3 -0.004114 -0.004114 0.010629 0.000000 0.000000 0.000000
# 4 0.000000 0.000000 0.000000 0.051039 0.000000 0.000000
# 5 0.000000 0.000000 0.000000 0.000000 0.051039 0.000000
# 6 0.000000 0.000000 0.000000 0.000000 0.000000 0.052818
#
#
# Mechanical properties :
#
#
# Convention : Reuss Voigt Hill
#
# Bulk Modulus (GPa) = 122.67599 122.82854 122.75227
# Shear Modulus (GPa) = 21.05097 22.12912 21.59004
#
# Velocity S-wave (km/s) = 3.56714 3.65735 3.61253
# Velocity P-wave (km/s) = 9.54562 9.59584 9.57076
#
# Compressibility (1/GPa) = 0.00815155
#
# Stress axis : x y z
#
# Youngs Moduli (GPa) = 59.88118 59.88118 94.08235
#
# Poissons Ratio (x) = 0.58142 0.38710
# Poissons Ratio (y) = 0.58142 0.38710
# Poissons Ratio (z) = 0.24638 0.24638
#
# Static dielectric constant tensor:
#      x y z
#    x 1.523060 0.000000 0.000000 
#    y 0.000000 1.523060 0.000000 
#    z 0.000000 0.000000 1.543880 
# 
# From -- ./inp_files/4527.got.cif
#   From: 2010.05.17/outbox.cif.g08.bks.cpg/sg187_3_cif.got.tgz:4527.got - 2010.05.20 12:09:04.
