data_PCOD9585542
_publ_section_title
;
Structure prediction by ZEFSAII (Michael W. Deem and Ramdas Pophale) SiO2 
 PCOD9585542
Probable space group: P -6 M 2
;
_chemical_formula_sum "Si O2"
_cell_formula_units_Z 78
_cell_length_a 24.047069
_cell_length_b 24.047069
_cell_length_c 8.397537
_cell_angle_alpha 90.000000
_cell_angle_beta 90.000000
_cell_angle_gamma 120.000000
_cell_volume 4205.395608
_symmetry_space_group_name_H-M "P -6 M 2"
_symmetry_group_IT_number 187
_symmetry_cell_setting 'hexagonal'
loop_
_space_group_symop_operation_xyz
x,y,z
-x+y,-x,-z
-y,x-y,z
x,y,-z
-x+y,-x,z
-y,x-y,-z
-y,-x,-z
-x+y,y,-z
x,x-y,-z
-x+y,y,z
x,x-y,z
-y,-x,z
loop_
_atom_site_type_symbol
_atom_site_label
_atom_site_fract_x
_atom_site_fract_y
_atom_site_fract_z
Si Si1 0.178468 0.490356 0.827456
Si Si2 0.872601 0.999915 0.307973
Si Si3 0.399588 0.135363 0.191810
Si Si4 0.666165 0.204202 0.307878
Si Si5 0.645338 0.758376 0.316291
Si Si6 0.758248 0.019047 0.808686
Si Si7 0.454982 0.791018 0.500000
O O1 0.251777 0.503554 0.830643
O O2 0.133877 0.414630 0.799433
O O3 0.171741 0.521718 0.666009
O O4 0.165968 0.510103 0.000000
O O5 0.865626 0.997040 0.500000
O O6 0.858981 0.929491 0.254233
O O7 0.824892 0.022909 0.239676
O O8 0.945481 0.054520 0.270478
O O9 0.398340 0.199170 0.241093
O O10 0.467952 0.147275 0.254504
O O11 0.331152 0.076033 0.242746
O O12 0.401461 0.133412 0.000000
O O13 0.666186 0.205214 0.500000
O O14 0.599082 0.198163 0.253510
O O15 0.727581 0.272420 0.254407
O O16 0.624732 0.739424 0.500000
O O17 0.665204 0.832602 0.302552
O O18 0.703419 0.748731 0.270513
O O19 0.753749 0.015243 0.000000
O O20 0.378628 0.757255 0.500000
O O21 0.478626 0.739313 0.500000
#
# Coordination Sequence:
#
# PCOD9585542 Si02
#       7
#    12  12  12  12  12  12   6
#     4   9  17  31  51  74 102 137 174 214 266 323
#     4  10  21  37  55  75 102 139 181 224 272 328
#     4   9  19  35  51  70 102 142 178 213 257 309
#     4   9  17  30  51  79 108 135 166 207 256 309
#     4  10  19  33  53  77 103 130 167 220 276 327
#     4  11  22  34  51  77 106 136 174 222 272 323
#     4  10  19  32  50  76 108 142 177 214 258 314
#
# _framework density 18.547601
#
# number of rings (size 3 to 8) (size 9 to 14) (size 15 to 20)
#    0.000    2.308    0.769    2.231    0.000    7.077 
#    0.000    1.538    0.000    3.692    0.000    2.154 
#    0.000    0.000    0.000    0.000    0.000    0.000 
#
# Total GULP energy -434607.115127 kJ/mol
# GULP energy per Si atom -5571.886091 kJ/mol
# Density = 1.850539 g / cm^3
# Si number density = 18.547601 Si / 1000 Ang^3
#
#
#
# Elastic Constant Matrix: (Units=GPa)
#
#
# Indices 1 2 3 4 5 6 
#
# 1 75.0335 68.7325 27.6067 0.0000 -0.0038 0.0000
# 2 68.7325 75.0335 27.6067 0.0000 0.0038 0.0000
# 3 27.6067 27.6067 77.7160 0.0000 0.0000 0.0000
# 4 0.0000 0.0000 0.0000 -31.8356 0.0000 0.0038
# 5 -0.0038 0.0038 0.0000 0.0000 -31.8356 0.0000
# 6 0.0000 0.0000 0.0000 0.0038 0.0000 3.1505
#
#
#
# Elastic Compliance Matrix: (Units=1/GPa)
#
#
# Indices 1 2 3 4 5 6 
#
# 1 0.083380 -0.075326 -0.002861 0.000000 -0.000019 0.000000
# 2 -0.075326 0.083380 -0.002861 0.000000 0.000019 0.000000
# 3 -0.002861 -0.002861 0.014900 0.000000 0.000000 0.000000
# 4 0.000000 0.000000 0.000000 -0.031411 0.000000 0.000038
# 5 -0.000019 0.000019 0.000000 0.000000 -0.031411 0.000000
# 6 0.000000 0.000000 0.000000 0.000038 0.000000 0.317412
#
#
# Mechanical properties :
#
#
# Convention : Reuss Voigt Hill
#
# Bulk Modulus (GPa) = 51.11298 52.85275 51.98287
# Shear Modulus (GPa) = 8.26627 -5.18167 1.54230
#
# Velocity S-wave (km/s) = 2.11340 -1.67325 0.91288
# Velocity P-wave (km/s) = 5.79421 4.98242 5.40358
#
# Compressibility (1/GPa) = 0.01956450
#
# Stress axis : x y z
#
# Youngs Moduli (GPa) = 11.99324 11.99324 67.11367
#
# Poissons Ratio (x) = 0.90340 0.19203
# Poissons Ratio (y) = 0.90340 0.19203
# Poissons Ratio (z) = 0.03431 0.03431
#
# Static dielectric constant tensor:
#      x y z
#    x 1.644130 0.000000 0.000000 
#    y 0.000000 1.644130 0.000000 
#    z 0.000000 0.000000 1.670840 
# 
# From -- ./inp_files/1142.got.cif
#   From: 2010.05.17/outbox.cif.g08.bks.cpg/sg187_1_cif.got.tgz:1142.got - 2010.05.20 12:09:04.
