data_PCOD9585321
_publ_section_title
;
Structure prediction by ZEFSAII (Michael W. Deem and Ramdas Pophale) SiO2 
 PCOD9585321
Probable space group: P 63 M C
;
_chemical_formula_sum "Si O2"
_cell_formula_units_Z 72
_cell_length_a 26.264198
_cell_length_b 26.264198
_cell_length_c 8.182767
_cell_angle_alpha 90.000000
_cell_angle_beta 90.000000
_cell_angle_gamma 120.000000
_cell_volume 4888.314105
_symmetry_space_group_name_H-M "P 63 M C"
_symmetry_group_IT_number 186
_symmetry_cell_setting 'hexagonal'
loop_
_space_group_symop_operation_xyz
x,y,z
x-y,x,1/2+z
-y,x-y,z
-x,-y,1/2+z
-x+y,-x,z
y,-x+y,1/2+z
-x+y,y,z
x,x-y,z
-y,-x,z
y,x,1/2+z
x-y,-y,1/2+z
-x,-x+y,1/2+z
loop_
_atom_site_type_symbol
_atom_site_label
_atom_site_fract_x
_atom_site_fract_y
_atom_site_fract_z
Si Si1 0.576597 0.540644 0.983520
Si Si2 0.269911 0.846319 0.988688
Si Si3 0.513455 0.602922 0.120498
Si Si4 0.708912 0.912310 0.108016
Si Si5 0.729293 0.021285 0.910299
Si Si6 0.313466 0.934945 0.699593
O O1 0.524095 0.475906 0.033799
O O2 0.596675 0.534214 0.802481
O O3 0.546840 0.581557 0.995176
O O4 0.629848 0.570226 0.110251
O O5 0.222039 0.777962 0.980650
O O6 0.283494 0.877471 0.811463
O O7 0.331114 0.863226 0.074573
O O8 0.240389 0.878597 0.085986
O O9 0.444627 0.555374 0.110066
O O10 0.728235 0.864118 0.081074
O O11 0.721628 0.940606 0.286428
O O12 0.733561 0.966682 0.983135
O O13 0.666345 0.990317 0.813838
O O14 0.725818 0.060329 0.055396
#
# Coordination Sequence:
#
# PCOD9585321 Si02
#       6
#    12  12  12  12  12  12
#     4  10  18  27  44  69  90 110 134 165 214 269
#     4  10  20  31  43  61  85 114 149 183 211 249
#     4  10  19  30  45  65  89 113 138 174 219 264
#     4   9  17  29  44  62  87 119 150 178 209 248
#     4   9  17  28  43  61  86 120 148 172 207 245
#     4  10  17  27  41  60  88 116 141 172 210 253
#
# _framework density 14.729005000000001
#
# number of rings (size 3 to 8) (size 9 to 14) (size 15 to 20)
#    0.000    2.333    0.000    6.000    0.000    2.667 
#    0.000    3.333    0.000    0.333    0.000    0.000 
#    0.000    1.333    0.000    5.000    0.000    0.000 
#
# Total GULP energy -401324.467894 kJ/mol
# GULP energy per Si atom -5573.950943 kJ/mol
# Density = 1.469548 g / cm^3
# Si number density = 14.729005 Si / 1000 Ang^3
#
#
#
# Elastic Constant Matrix: (Units=GPa)
#
#
# Indices 1 2 3 4 5 6 
#
# 1 84.5563 47.7094 38.7498 0.0000 0.0000 0.0000
# 2 47.7094 84.5563 38.7498 0.0000 0.0000 0.0000
# 3 38.7498 38.7498 79.8939 0.0000 0.0000 0.0000
# 4 0.0000 0.0000 0.0000 12.2347 0.0000 0.0000
# 5 0.0000 0.0000 0.0000 0.0000 12.2347 0.0000
# 6 0.0000 0.0000 0.0000 0.0000 0.0000 18.4234
#
#
#
# Elastic Compliance Matrix: (Units=1/GPa)
#
#
# Indices 1 2 3 4 5 6 
#
# 1 0.018851 -0.008289 -0.005123 0.000000 0.000000 0.000000
# 2 -0.008289 0.018851 -0.005123 0.000000 0.000000 0.000000
# 3 -0.005123 -0.005123 0.017486 0.000000 0.000000 0.000000
# 4 0.000000 0.000000 0.000000 0.081735 0.000000 0.000000
# 5 0.000000 0.000000 0.000000 0.000000 0.081735 0.000000
# 6 0.000000 0.000000 0.000000 0.000000 0.000000 0.054279
#
#
# Mechanical properties :
#
#
# Convention : Reuss Voigt Hill
#
# Bulk Modulus (GPa) = 55.19075 55.49163 55.34119
# Shear Modulus (GPa) = 15.82061 16.83174 16.32618
#
# Velocity S-wave (km/s) = 3.28092 3.38414 3.33293
# Velocity P-wave (km/s) = 7.20449 7.28195 7.24332
#
# Compressibility (1/GPa) = 0.01811898
#
# Stress axis : x y z
#
# Youngs Moduli (GPa) = 53.04824 53.04824 57.18887
#
# Poissons Ratio (x) = 0.43969 0.29297
# Poissons Ratio (y) = 0.43969 0.29297
# Poissons Ratio (z) = 0.27176 0.27176
#
# Static dielectric constant tensor:
#      x y z
#    x 1.482460 0.000000 0.000000 
#    y 0.000000 1.482460 0.000000 
#    z 0.000000 0.000000 1.524060 
# 
# From -- ./inp_files/1216.got.cif
#   From: 2010.05.17/outbox.cif.g08.bks.cpg/sg186_1_cif.got.tgz:1216.got - 2010.05.20 12:07:08.
