data_PCOD9585623
_publ_section_title
;
Structure prediction by ZEFSAII (Michael W. Deem and Ramdas Pophale) SiO2 
 PCOD9585623
Probable space group: P -6 M 2
;
_chemical_formula_sum "Si O2"
_cell_formula_units_Z 96
_cell_length_a 17.535490
_cell_length_b 17.535490
_cell_length_c 22.830173
_cell_angle_alpha 90.000000
_cell_angle_beta 90.000000
_cell_angle_gamma 120.000000
_cell_volume 6079.608957
_symmetry_space_group_name_H-M "P -6 M 2"
_symmetry_group_IT_number 187
_symmetry_cell_setting 'hexagonal'
loop_
_space_group_symop_operation_xyz
x,y,z
-x+y,-x,-z
-y,x-y,z
x,y,-z
-x+y,-x,z
-y,x-y,-z
-y,-x,-z
-x+y,y,-z
x,x-y,-z
-x+y,y,z
x,x-y,z
-y,-x,z
loop_
_atom_site_type_symbol
_atom_site_label
_atom_site_fract_x
_atom_site_fract_y
_atom_site_fract_z
Si Si1 0.001170 0.830382 0.571250
Si Si2 0.425274 0.027564 0.328309
Si Si3 0.243096 0.305781 0.066884
Si Si4 0.000096 0.177285 0.826146
Si Si5 0.152738 0.666381 0.732957
Si Si6 0.035638 0.607096 0.849359
Si Si7 0.902049 0.275421 0.569816
Si Si8 0.728410 0.633218 0.777128
O O1 0.002537 0.831741 0.500000
O O2 0.927726 0.855451 0.589282
O O3 0.963886 0.729390 0.587475
O O4 0.097209 0.902792 0.592380
O O5 0.519896 0.039791 0.312289
O O6 0.425156 0.061712 0.393033
O O7 0.399171 0.083560 0.285717
O O8 0.357037 0.924744 0.314368
O O9 0.162560 0.325120 0.067541
O O10 0.212541 0.222895 0.110390
O O11 0.328163 0.386675 0.096099
O O12 0.257689 0.288710 0.000000
O O13 0.093742 0.187484 0.810470
O O14 0.967645 0.228720 0.783698
O O15 0.923794 0.076207 0.827677
O O16 0.176122 0.588061 0.729091
O O17 0.238611 0.761390 0.726798
O O18 0.105576 0.654681 0.796228
O O19 0.033272 0.516636 0.862358
O O20 0.943468 0.591670 0.823086
O O21 0.908829 0.289618 0.500000
O O22 0.801740 0.198261 0.582119
O O23 0.806711 0.613421 0.788495
#
# Coordination Sequence:
#
# PCOD9585623 Si02
#       8
#    12  12  12  12  12  12  12  12
#     4   8  13  22  38  61  88 117 147 175 202 236
#     4  10  20  32  48  70  91 114 147 184 224 272
#     4   9  17  28  42  63  93 127 160 192 226 266
#     4   9  17  29  46  69  97 128 159 188 218 255
#     4   9  17  29  46  68  92 118 149 187 230 273
#     4   9  17  29  46  67  89 116 154 196 236 279
#     4   9  18  32  49  68  91 120 150 180 219 266
#     4   9  17  30  48  67  89 117 145 180 229 277
#
# _framework density 15.79049
#
# number of rings (size 3 to 8) (size 9 to 14) (size 15 to 20)
#    0.000    3.000    0.000    3.000    0.000    4.750 
#    0.000    0.000    0.000    5.500    0.000    1.750 
#    0.000    1.000    0.000    0.750    0.000    0.000 
#
# Total GULP energy -534484.036352 kJ/mol
# GULP energy per Si atom -5567.542045 kJ/mol
# Density = 1.575455 g / cm^3
# Si number density = 15.790490 Si / 1000 Ang^3
#
#
#
# Elastic Constant Matrix: (Units=GPa)
#
#
# Indices 1 2 3 4 5 6 
#
# 1 61.2313 30.9528 21.9978 0.0000 -0.0002 0.0000
# 2 30.9528 61.2313 21.9978 0.0000 0.0002 0.0000
# 3 21.9978 21.9978 45.7120 0.0000 0.0000 0.0000
# 4 0.0000 0.0000 0.0000 15.3400 0.0000 0.0002
# 5 -0.0002 0.0002 0.0000 0.0000 15.3400 0.0000
# 6 0.0000 0.0000 0.0000 0.0002 0.0000 15.1393
#
#
#
# Elastic Compliance Matrix: (Units=1/GPa)
#
#
# Indices 1 2 3 4 5 6 
#
# 1 0.023554 -0.009472 -0.006777 0.000000 0.000000 0.000000
# 2 -0.009472 0.023554 -0.006777 0.000000 0.000000 0.000000
# 3 -0.006777 -0.006777 0.028398 0.000000 0.000000 0.000000
# 4 0.000000 0.000000 0.000000 0.065189 0.000000 -0.000001
# 5 0.000000 0.000000 0.000000 0.000000 0.065189 0.000000
# 6 0.000000 0.000000 0.000000 -0.000001 0.000000 0.066053
#
#
# Mechanical properties :
#
#
# Convention : Reuss Voigt Hill
#
# Bulk Modulus (GPa) = 33.94912 35.34124 34.64518
# Shear Modulus (GPa) = 15.25282 15.37895 15.31588
#
# Velocity S-wave (km/s) = 3.11134 3.12418 3.11777
# Velocity P-wave (km/s) = 5.86973 5.95348 5.91175
#
# Compressibility (1/GPa) = 0.02945584
#
# Stress axis : x y z
#
# Youngs Moduli (GPa) = 42.45492 42.45492 35.21339
#
# Poissons Ratio (x) = 0.40215 0.23863
# Poissons Ratio (y) = 0.40215 0.23863
# Poissons Ratio (z) = 0.28770 0.28770
#
# Static dielectric constant tensor:
#      x y z
#    x 1.526730 0.000000 0.000000 
#    y 0.000000 1.526730 0.000000 
#    z 0.000000 0.000000 1.543520 
# 
# From -- ./inp_files/3789.got.cif
#   From: 2010.05.17/outbox.cif.g08.bks.cpg/sg187_2_cif.got.tgz:3789.got - 2010.05.20 12:09:04.
