data_PCOD9585996
_publ_section_title
;
Structure prediction by ZEFSAII (Michael W. Deem and Ramdas Pophale) SiO2 
 PCOD9585996
Probable space group: P -6 C 2
;
_chemical_formula_sum "Si O2"
_cell_formula_units_Z 84
_cell_length_a 16.746638
_cell_length_b 16.746638
_cell_length_c 17.270665
_cell_angle_alpha 90.000000
_cell_angle_beta 90.000000
_cell_angle_gamma 120.000000
_cell_volume 4194.642542
_symmetry_space_group_name_H-M "P -6 C 2"
_symmetry_group_IT_number 188
_symmetry_cell_setting 'hexagonal'
loop_
_space_group_symop_operation_xyz
x,y,z
-x+y,-x,1/2-z
-y,x-y,z
x,y,1/2-z
-x+y,-x,z
-y,x-y,1/2-z
-y,-x,-z
-x+y,y,-z
x,x-y,-z
-x+y,y,1/2+z
x,x-y,1/2+z
-y,-x,1/2+z
loop_
_atom_site_type_symbol
_atom_site_label
_atom_site_fract_x
_atom_site_fract_y
_atom_site_fract_z
Si Si1 0.179891 0.177792 0.988072
Si Si2 0.375076 0.273261 0.427944
Si Si3 0.144442 0.586072 0.342404
Si Si4 0.263707 0.292478 0.660348
Si Si5 0.875471 0.318473 0.409228
Si Si6 0.932220 0.494373 0.339597
Si Si7 0.246166 0.461061 0.908741
O O1 0.267803 0.223613 0.047049
O O2 0.102918 0.205836 0.000000
O O3 0.215519 0.208942 0.900734
O O4 0.139449 0.069725 0.000000
O O5 0.414271 0.203343 0.414219
O O6 0.423403 0.336089 0.503329
O O7 0.413588 0.341963 0.357022
O O8 0.159024 0.581086 0.250000
O O9 0.198662 0.546575 0.390877
O O10 0.176489 0.689904 0.366930
O O11 0.036598 0.522445 0.359886
O O12 0.237075 0.271874 0.750000
O O13 0.370829 0.323112 0.649440
O O14 0.245615 0.372764 0.629022
O O15 0.859941 0.401764 0.384705
O O16 0.916402 0.472888 0.250000
O O17 0.224051 0.448102 0.000000
#
# Coordination Sequence:
#
# PCOD9585996 Si02
#       7
#    12  12  12  12  12  12  12
#     4  11  23  45  70  99 132 175 228 283 352 420
#     4  10  22  42  65  99 130 170 219 281 338 413
#     4  11  24  41  59  87 130 173 218 277 335 387
#     4  11  22  40  66  94 128 174 224 276 340 411
#     4  10  20  42  69  89 127 175 223 266 341 405
#     4  11  24  39  64  98 131 171 220 276 336 398
#     4  12  25  39  61  91 126 176 231 275 333 406
#
# _framework density 20.025544
#
# number of rings (size 3 to 8) (size 9 to 14) (size 15 to 20)
#    0.000    1.143    4.286    3.429    6.000    2.286 
#    0.857    0.714    0.000    0.000    0.000    0.000 
#    0.000    0.000    0.000    0.000    0.000    0.000 
#
# Total GULP energy -468611.664035 kJ/mol
# GULP energy per Si atom -5578.710286 kJ/mol
# Density = 1.997997 g / cm^3
# Si number density = 20.025544 Si / 1000 Ang^3
#
#
#
# Elastic Constant Matrix: (Units=GPa)
#
#
# Indices 1 2 3 4 5 6 
#
# 1 72.6548 34.7697 42.2069 -0.0002 0.0000 0.0000
# 2 34.7697 72.6548 42.2069 0.0002 0.0000 0.0000
# 3 42.2069 42.2069 71.7380 0.0000 0.0000 0.0000
# 4 -0.0002 0.0002 0.0000 22.2912 0.0000 0.0000
# 5 0.0000 0.0000 0.0000 0.0000 22.2912 -0.0002
# 6 0.0000 0.0000 0.0000 0.0000 -0.0002 18.9425
#
#
#
# Elastic Compliance Matrix: (Units=1/GPa)
#
#
# Indices 1 2 3 4 5 6 
#
# 1 0.021854 -0.004541 -0.010186 0.000000 0.000000 0.000000
# 2 -0.004541 0.021854 -0.010186 0.000000 0.000000 0.000000
# 3 -0.010186 -0.010186 0.025926 0.000000 0.000000 0.000000
# 4 0.000000 0.000000 0.000000 0.044861 0.000000 0.000000
# 5 0.000000 0.000000 0.000000 0.000000 0.044861 0.000000
# 6 0.000000 0.000000 0.000000 0.000000 0.000000 0.052791
#
#
# Mechanical properties :
#
#
# Convention : Reuss Voigt Hill
#
# Bulk Modulus (GPa) = 50.48651 50.60163 50.54407
# Shear Modulus (GPa) = 18.61665 19.22924 18.92294
#
# Velocity S-wave (km/s) = 3.05232 3.10213 3.07732
# Velocity P-wave (km/s) = 6.13905 6.17692 6.15801
#
# Compressibility (1/GPa) = 0.01980727
#
# Stress axis : x y z
#
# Youngs Moduli (GPa) = 45.75743 45.75743 38.57190
#
# Poissons Ratio (x) = 0.20780 0.39290
# Poissons Ratio (y) = 0.20780 0.39290
# Poissons Ratio (z) = 0.46609 0.46609
#
# Static dielectric constant tensor:
#      x y z
#    x 1.753950 0.000000 0.000000 
#    y 0.000000 1.753950 0.000000 
#    z 0.000000 0.000000 1.703700 
# 
# From -- ./inp_files/2610.got.cif
#   From: 2010.05.17/outbox.cif.g08.bks.cpg/sg188_2_cif.got.tgz:2610.got - 2010.05.20 12:11:46.
