data_PCOD9585700
_publ_section_title
;
Structure prediction by ZEFSAII (Michael W. Deem and Ramdas Pophale) SiO2 
 PCOD9585700
Probable space group: P -6 M 2
;
_chemical_formula_sum "Si O2"
_cell_formula_units_Z 66
_cell_length_a 12.813028
_cell_length_b 12.813028
_cell_length_c 29.069091
_cell_angle_alpha 90.000000
_cell_angle_beta 90.000000
_cell_angle_gamma 120.000000
_cell_volume 4133.002172
_symmetry_space_group_name_H-M "P -6 M 2"
_symmetry_group_IT_number 187
_symmetry_cell_setting 'hexagonal'
loop_
_space_group_symop_operation_xyz
x,y,z
-x+y,-x,-z
-y,x-y,z
x,y,-z
-x+y,-x,z
-y,x-y,-z
-y,-x,-z
-x+y,y,-z
x,x-y,-z
-x+y,y,z
x,x-y,z
-y,-x,z
loop_
_atom_site_type_symbol
_atom_site_label
_atom_site_fract_x
_atom_site_fract_y
_atom_site_fract_z
Si Si1 0.914802 0.580954 0.134245
Si Si2 0.248164 0.248144 0.324078
Si Si3 0.914834 0.581693 0.238668
Si Si4 0.248433 0.999424 0.948809
Si Si5 0.914800 0.332659 0.588203
Si Si6 0.751597 0.000720 0.500000
O O1 0.781926 0.563852 0.129753
O O2 0.907703 0.453852 0.129802
O O3 0.956327 0.625505 0.186407
O O4 0.992896 0.668672 0.093482
O O5 0.126908 0.253815 0.328728
O O6 0.318268 0.306768 0.276724
O O7 0.340430 0.314251 0.365887
O O8 0.219448 0.109724 0.324787
O O9 0.776572 0.553143 0.242298
O O10 0.919384 0.459692 0.246191
O O11 0.231873 0.115936 0.945471
O O12 0.299882 0.003515 0.000000
O O13 0.120280 0.879721 0.945890
O O14 0.922110 0.461055 0.586665
O O15 0.775521 0.224480 0.587471
O O16 0.978713 0.310021 0.544708
O O17 0.744561 0.872281 0.500000
O O18 0.890925 0.109076 0.500000
#
# Coordination Sequence:
#
# PCOD9585700 Si02
#       6
#    12  12  12  12  12   6
#     4   9  17  29  46  69  95 121 149 184 230 281
#     4  10  20  33  50  72  99 129 159 194 236 282
#     4   9  17  30  49  71  94 121 153 191 233 277
#     4   9  17  29  45  65  89 118 152 189 229 273
#     4  10  20  34  54  78 102 128 160 202 247 287
#     4  10  20  34  54  78 104 134 166 200 238 284
#
# _framework density 15.969022000000001
#
# number of rings (size 3 to 8) (size 9 to 14) (size 15 to 20)
#    0.000    2.545    0.000    2.364    0.000    3.273 
#    0.000    4.545    0.000   12.364    0.000    0.000 
#    0.000    0.000    0.000    0.000    0.000    0.000 
#
# Total GULP energy -367893.185563 kJ/mol
# GULP energy per Si atom -5574.139175 kJ/mol
# Density = 1.593268 g / cm^3
# Si number density = 15.969022 Si / 1000 Ang^3
#
#
#
# Elastic Constant Matrix: (Units=GPa)
#
#
# Indices 1 2 3 4 5 6 
#
# 1 93.1957 56.0771 70.6946 0.0000 -0.0001 0.0000
# 2 56.0771 93.1957 70.6946 0.0000 0.0001 0.0000
# 3 70.6946 70.6946 151.2188 0.0000 0.0000 0.0000
# 4 0.0000 0.0000 0.0000 20.2924 0.0000 0.0001
# 5 -0.0001 0.0001 0.0000 0.0000 20.2924 0.0000
# 6 0.0000 0.0000 0.0000 0.0001 0.0000 18.5593
#
#
#
# Elastic Compliance Matrix: (Units=1/GPa)
#
#
# Indices 1 2 3 4 5 6 
#
# 1 0.019482 -0.007459 -0.005621 0.000000 0.000000 0.000000
# 2 -0.007459 0.019482 -0.005621 0.000000 0.000000 0.000000
# 3 -0.005621 -0.005621 0.011868 0.000000 0.000000 0.000000
# 4 0.000000 0.000000 0.000000 0.049280 0.000000 0.000000
# 5 0.000000 0.000000 0.000000 0.000000 0.049280 0.000000
# 6 0.000000 0.000000 0.000000 0.000000 0.000000 0.053881
#
#
# Mechanical properties :
#
#
# Convention : Reuss Voigt Hill
#
# Bulk Modulus (GPa) = 74.45243 81.39364 77.92303
# Shear Modulus (GPa) = 20.39563 21.17172 20.78368
#
# Velocity S-wave (km/s) = 3.57767 3.64510 3.61154
# Velocity P-wave (km/s) = 7.98690 8.29434 8.14207
#
# Compressibility (1/GPa) = 0.01343140
#
# Stress axis : x y z
#
# Youngs Moduli (GPa) = 51.32977 51.32977 84.25777
#
# Poissons Ratio (x) = 0.38286 0.47359
# Poissons Ratio (y) = 0.38286 0.47359
# Poissons Ratio (z) = 0.28851 0.28851
#
# Static dielectric constant tensor:
#      x y z
#    x 1.499350 0.000000 0.000000 
#    y 0.000000 1.499350 0.000000 
#    z 0.000000 0.000000 1.561630 
# 
# From -- ./inp_files/4402.got.cif
#   From: 2010.05.17/outbox.cif.g08.bks.cpg/sg187_3_cif.got.tgz:4402.got - 2010.05.20 12:09:04.
