data_PCOD9585228
_publ_section_title
;
Structure prediction by ZEFSAII (Michael W. Deem and Ramdas Pophale) SiO2 
 PCOD9585228
Probable space group: P 63 C M
;
_chemical_formula_sum "Si O2"
_cell_formula_units_Z 60
_cell_length_a 29.172116
_cell_length_b 29.172116
_cell_length_c 5.007186
_cell_angle_alpha 90.000000
_cell_angle_beta 90.000000
_cell_angle_gamma 120.000000
_cell_volume 3690.287648
_symmetry_space_group_name_H-M "P 63 C M"
_symmetry_group_IT_number 185
_symmetry_cell_setting 'hexagonal'
loop_
_space_group_symop_operation_xyz
x,y,z
x-y,x,1/2+z
-y,x-y,z
-x,-y,1/2+z
-x+y,-x,z
y,-x+y,1/2+z
-x+y,y,1/2+z
x,x-y,1/2+z
-y,-x,1/2+z
y,x,z
x-y,-y,z
-x,-x+y,z
loop_
_atom_site_type_symbol
_atom_site_label
_atom_site_fract_x
_atom_site_fract_y
_atom_site_fract_z
Si Si1 0.722544 0.499645 0.461750
Si Si2 0.842140 0.214729 0.480703
Si Si3 0.563862 0.939473 0.692695
Si Si4 0.392303 0.548773 0.702469
Si Si5 0.311956 0.939096 0.707803
O O1 0.727963 0.485414 0.764123
O O2 0.748683 0.563273 0.468228
O O3 0.665712 0.473431 0.325875
O O4 0.809287 0.166713 0.686407
O O5 0.899923 0.253266 0.600755
O O6 0.501464 0.902551 0.708116
O O7 0.591248 0.919587 0.474400
O O8 0.582926 0.000000 0.618121
O O9 0.589070 0.939471 0.976307
O O10 0.404267 0.569187 0.400511
O O11 0.327218 0.000000 0.751006
#
# Coordination Sequence:
#
# PCOD9585228 Si02
#       5
#    12  12  12  12  12
#     4  10  21  36  55  72  92 112 140 186 236 275
#     4  10  19  30  52  77  95 118 159 199 226 263
#     4  10  21  35  51  71 102 132 154 180 219 279
#     4  12  24  36  55  75  96 118 153 186 222 283
#     4  10  19  33  51  71 103 134 155 185 236 284
#
# _framework density 16.258897000000001
#
# number of rings (size 3 to 8) (size 9 to 14) (size 15 to 20)
#    0.000    1.600    2.000    3.600    5.600    0.800 
#    0.000    0.000    0.000    8.000    0.000    0.000 
#    0.000    0.000    0.000    0.000    0.000    0.000 
#
# Total GULP energy -334766.071201 kJ/mol
# GULP energy per Si atom -5579.434520 kJ/mol
# Density = 1.622189 g / cm^3
# Si number density = 16.258897 Si / 1000 Ang^3
#
#
#
# Elastic Constant Matrix: (Units=GPa)
#
#
# Indices 1 2 3 4 5 6 
#
# 1 47.5763 14.8444 6.2956 0.0000 0.0000 0.0000
# 2 14.8444 47.5763 6.2956 0.0000 0.0000 0.0000
# 3 6.2956 6.2956 64.9636 0.0000 0.0000 0.0000
# 4 0.0000 0.0000 0.0000 17.0647 0.0000 0.0000
# 5 0.0000 0.0000 0.0000 0.0000 17.0647 0.0000
# 6 0.0000 0.0000 0.0000 0.0000 0.0000 16.3660
#
#
#
# Elastic Compliance Matrix: (Units=1/GPa)
#
#
# Indices 1 2 3 4 5 6 
#
# 1 0.023445 -0.007106 -0.001583 0.000000 0.000000 0.000000
# 2 -0.007106 0.023445 -0.001583 0.000000 0.000000 0.000000
# 3 -0.001583 -0.001583 0.015700 0.000000 0.000000 0.000000
# 4 0.000000 0.000000 0.000000 0.058600 0.000000 0.000000
# 5 0.000000 0.000000 0.000000 0.000000 0.058600 0.000000
# 6 0.000000 0.000000 0.000000 0.000000 0.000000 0.061102
#
#
# Mechanical properties :
#
#
# Convention : Reuss Voigt Hill
#
# Bulk Modulus (GPa) = 23.78362 23.88747 23.83555
# Shear Modulus (GPa) = 18.15179 18.94446 18.54813
#
# Velocity S-wave (km/s) = 3.34491 3.41717 3.38124
# Velocity P-wave (km/s) = 5.43854 5.50393 5.47133
#
# Compressibility (1/GPa) = 0.04204574
#
# Stress axis : x y z
#
# Youngs Moduli (GPa) = 42.65215 42.65215 63.69370
#
# Poissons Ratio (x) = 0.30308 0.10086
# Poissons Ratio (y) = 0.30308 0.10086
# Poissons Ratio (z) = 0.06754 0.06754
#
# Static dielectric constant tensor:
#      x y z
#    x 1.559970 0.000000 0.000000 
#    y 0.000000 1.559970 0.000000 
#    z 0.000000 0.000000 1.561720 
# 
# From -- ./inp_files/130.got.cif
#   From: 2010.05.17/outbox.cif.g08.bks.cpg/sg185_cif.got.tgz:130.got - 2010.05.20 12:05:34.
