data_PCOD9585517
_publ_section_title
;
Structure prediction by ZEFSAII (Michael W. Deem and Ramdas Pophale) SiO2 
 PCOD9585517
Probable space group: P -6 M 2
;
_chemical_formula_sum "Si O2"
_cell_formula_units_Z 60
_cell_length_a 22.605594
_cell_length_b 22.605594
_cell_length_c 8.486074
_cell_angle_alpha 90.000000
_cell_angle_beta 90.000000
_cell_angle_gamma 120.000000
_cell_volume 3755.513201
_symmetry_space_group_name_H-M "P -6 M 2"
_symmetry_group_IT_number 187
_symmetry_cell_setting 'hexagonal'
loop_
_space_group_symop_operation_xyz
x,y,z
-x+y,-x,-z
-y,x-y,z
x,y,-z
-x+y,-x,z
-y,x-y,-z
-y,-x,-z
-x+y,y,-z
x,x-y,-z
-x+y,y,z
x,x-y,z
-y,-x,z
loop_
_atom_site_type_symbol
_atom_site_label
_atom_site_fract_x
_atom_site_fract_y
_atom_site_fract_z
Si Si1 0.965214 0.293812 0.311879
Si Si2 0.532678 0.199956 0.687115
Si Si3 0.952686 0.411089 0.813269
Si Si4 0.043863 0.218990 0.811270
Si Si5 0.831571 0.168430 0.316780
Si Si6 0.906221 0.812442 0.812164
O O1 0.961901 0.289028 0.500000
O O2 0.986197 0.369766 0.260779
O O3 0.887391 0.241918 0.249709
O O4 0.013839 0.265407 0.253425
O O5 0.516943 0.187498 0.500000
O O6 0.613346 0.226692 0.704313
O O7 0.515496 0.257748 0.739031
O O8 0.494332 0.127889 0.773402
O O9 0.975042 0.487521 0.754919
O O10 0.962033 0.413956 0.000000
O O11 0.117163 0.234325 0.749923
O O12 0.986619 0.139473 0.781993
O O13 0.048646 0.227749 0.000000
O O14 0.821134 0.178867 0.500000
O O15 0.872558 0.127443 0.295653
O O16 0.896478 0.792956 0.000000
#
# Coordination Sequence:
#
# PCOD9585517 Si02
#       6
#    12  12  12  12   6   6
#     4  10  19  31  48  67  87 114 149 189 230 272
#     4   9  17  29  44  60  79 105 139 179 223 269
#     4  10  21  34  45  61  86 114 146 184 228 277
#     4   9  17  30  47  68  94 122 152 187 228 273
#     4   8  16  28  42  62  84 108 142 184 224 262
#     4   8  14  26  42  62  88 118 150 182 218 262
#
# _framework density 15.976512
#
# number of rings (size 3 to 8) (size 9 to 14) (size 15 to 20)
#    0.000    2.800    0.000    1.400    1.400    3.600 
#    0.600    0.000    0.000    1.200    0.000    0.000 
#    0.000    0.000    0.000    0.600    0.000   11.600 
#
# Total GULP energy -334087.951527 kJ/mol
# GULP energy per Si atom -5568.132525 kJ/mol
# Density = 1.594015 g / cm^3
# Si number density = 15.976512 Si / 1000 Ang^3
#
#
#
# Elastic Constant Matrix: (Units=GPa)
#
#
# Indices 1 2 3 4 5 6 
#
# 1 89.8781 46.6650 18.7829 0.0000 0.0001 0.0000
# 2 46.6650 89.8781 18.7829 0.0000 -0.0001 0.0000
# 3 18.7829 18.7829 15.8115 0.0000 0.0000 0.0000
# 4 0.0000 0.0000 0.0000 13.4451 0.0000 -0.0001
# 5 0.0001 -0.0001 0.0000 0.0000 13.4451 0.0000
# 6 0.0000 0.0000 0.0000 -0.0001 0.0000 21.6066
#
#
#
# Elastic Compliance Matrix: (Units=1/GPa)
#
#
# Indices 1 2 3 4 5 6 
#
# 1 0.017010 -0.006131 -0.012924 0.000000 0.000000 0.000000
# 2 -0.006131 0.017010 -0.012924 0.000000 0.000000 0.000000
# 3 -0.012924 -0.012924 0.093951 0.000000 0.000000 0.000000
# 4 0.000000 0.000000 0.000000 0.074376 0.000000 0.000000
# 5 0.000000 0.000000 0.000000 0.000000 0.074376 0.000000
# 6 0.000000 0.000000 0.000000 0.000000 0.000000 0.046282
#
#
# Mechanical properties :
#
#
# Convention : Reuss Voigt Hill
#
# Bulk Modulus (GPa) = 15.62164 40.44772 28.03468
# Shear Modulus (GPa) = 12.24585 17.12181 14.68383
#
# Velocity S-wave (km/s) = 2.77156 3.27721 3.03494
# Velocity P-wave (km/s) = 4.47674 6.30017 5.46504
#
# Compressibility (1/GPa) = 0.06401377
#
# Stress axis : x y z
#
# Youngs Moduli (GPa) = 58.78817 58.78817 10.64388
#
# Poissons Ratio (x) = 0.36042 0.13756
# Poissons Ratio (y) = 0.36042 0.13756
# Poissons Ratio (z) = 0.75977 0.75977
#
# Static dielectric constant tensor:
#      x y z
#    x 1.558310 0.000000 0.000000 
#    y 0.000000 1.558310 0.000000 
#    z 0.000000 0.000000 1.556490 
# 
# From -- ./inp_files/885.got.cif
#   From: 2010.05.17/outbox.cif.g08.bks.cpg/sg187_1_cif.got.tgz:885.got - 2010.05.20 12:09:04.
