data_PCOD9585835
_publ_section_title
;
Structure prediction by ZEFSAII (Michael W. Deem and Ramdas Pophale) SiO2 
 PCOD9585835
Probable space group: P -6 M 2
;
_chemical_formula_sum "Si O2"
_cell_formula_units_Z 32
_cell_length_a 15.000000
_cell_length_b 15.000000
_cell_length_c 9.000000
_cell_angle_alpha 90.000000
_cell_angle_beta 90.000000
_cell_angle_gamma 120.000000
_cell_volume 1753.701443
_symmetry_space_group_name_H-M "P -6 M 2"
_symmetry_group_IT_number 187
_symmetry_cell_setting 'hexagonal'
loop_
_space_group_symop_operation_xyz
x,y,z
-x+y,-x,-z
-y,x-y,z
x,y,-z
-x+y,-x,z
-y,x-y,-z
-y,-x,-z
-x+y,y,-z
x,x-y,-z
-x+y,y,z
x,x-y,z
-y,-x,z
loop_
_atom_site_type_symbol
_atom_site_label
_atom_site_fract_x
_atom_site_fract_y
_atom_site_fract_z
Si Si1 0.843595 0.156406 0.177400
Si Si2 0.333335 0.666668 0.821903
Si Si3 0.532665 0.266333 0.325646
Si Si4 0.268777 0.324569 0.678977
Si Si5 0.446291 0.892581 0.679390
O O1 0.783334 0.216666 0.224908
O O2 0.958678 0.226594 0.245087
O O3 0.849345 0.150656 0.000000
O O4 0.391003 0.782005 0.758136
O O5 0.333334 0.666667 0.000000
O O6 0.611086 0.222171 0.302883
O O7 0.502274 0.251137 0.500000
O O8 0.268602 0.312723 0.500000
O O9 0.166824 0.333647 0.715927
O O10 0.375115 0.431656 0.716597
O O11 0.439526 0.879052 0.500000
#
# Coordination Sequence:
#
# PCOD9585835 Si02
#       5
#     6   2   6  12   6
#     4  12  26  40  59  90 133 170 201 253 319 385
#     4  12  22  32  55  96 139 170 193 237 313 395
#     4   8  18  37  61  86 116 159 212 257 292 345
#     4  10  22  42  69  95 120 160 216 265 303 362
#     4  10  20  39  67  96 126 161 208 257 304 365
#
# _framework density 18.247119999999999
#
# number of rings (size 3 to 8) (size 9 to 14) (size 15 to 20)
#    0.375    1.500    1.875    2.250    2.625    3.000 
#    1.125    0.000    0.000    0.000    0.000    0.000 
#    0.000    0.000    0.000    0.000    0.000    0.000 
#
# Total GULP energy -178545.898396 kJ/mol
# GULP energy per Si atom -5579.559325 kJ/mol
# Density = 1.820559 g / cm^3
# Si number density = 18.247120 Si / 1000 Ang^3
#
#
#
# Elastic Constant Matrix: (Units=GPa)
#
#
# Indices 1 2 3 4 5 6 
#
# 1 129.8026 58.6695 43.8038 0.0000 -0.0002 -0.0001
# 2 58.6695 129.8026 43.8038 0.0000 0.0002 0.0000
# 3 43.8038 43.8038 56.3438 -0.0003 -0.0002 0.0000
# 4 0.0000 0.0000 -0.0003 19.9438 0.0000 0.0002
# 5 -0.0002 0.0002 -0.0002 0.0000 19.9438 0.0000
# 6 -0.0001 0.0000 0.0000 0.0002 0.0000 35.5666
#
#
#
# Elastic Compliance Matrix: (Units=1/GPa)
#
#
# Indices 1 2 3 4 5 6 
#
# 1 0.011183 -0.002875 -0.006459 0.000000 0.000000 0.000000
# 2 -0.002875 0.011183 -0.006459 0.000000 0.000000 0.000000
# 3 -0.006459 -0.006459 0.027791 0.000000 0.000000 0.000000
# 4 0.000000 0.000000 0.000000 0.050141 0.000000 0.000000
# 5 0.000000 0.000000 0.000000 0.000000 0.050141 0.000000
# 6 0.000000 0.000000 0.000000 0.000000 0.000000 0.028116
#
#
# Mechanical properties :
#
#
# Convention : Reuss Voigt Hill
#
# Bulk Modulus (GPa) = 53.84663 67.61147 60.72905
# Shear Modulus (GPa) = 23.11257 26.40230 24.75743
#
# Velocity S-wave (km/s) = 3.56285 3.80798 3.68745
# Velocity P-wave (km/s) = 6.81901 7.51452 7.17520
#
# Compressibility (1/GPa) = 0.01857126
#
# Stress axis : x y z
#
# Youngs Moduli (GPa) = 89.41989 89.41986 35.98240
#
# Poissons Ratio (x) = 0.25708 0.23242
# Poissons Ratio (y) = 0.25708 0.23242
# Poissons Ratio (z) = 0.57758 0.57758
#
# Static dielectric constant tensor:
#      x y z
#    x 1.640460 0.000000 0.000000 
#    y 0.000000 1.640460 0.000000 
#    z 0.000000 0.000000 1.599120 
# 
# From -- ./inp_files/231.got.cif
#   From: 2010.05.17/outbox.ucp.g08.bks.cvg/sg187_1_cif.got.tgz:231.got - 2010.06.11 15:21:44.
