data_PCOD9585488
_publ_section_title
;
Structure prediction by ZEFSAII (Michael W. Deem and Ramdas Pophale) SiO2 
 PCOD9585488
Probable space group: P -6 M 2
;
_chemical_formula_sum "Si O2"
_cell_formula_units_Z 72
_cell_length_a 17.533173
_cell_length_b 17.533173
_cell_length_c 18.396730
_cell_angle_alpha 90.000000
_cell_angle_beta 90.000000
_cell_angle_gamma 120.000000
_cell_volume 4897.701382
_symmetry_space_group_name_H-M "P -6 M 2"
_symmetry_group_IT_number 187
_symmetry_cell_setting 'hexagonal'
loop_
_space_group_symop_operation_xyz
x,y,z
-x+y,-x,-z
-y,x-y,z
x,y,-z
-x+y,-x,z
-y,x-y,-z
-y,-x,-z
-x+y,y,-z
x,x-y,-z
-x+y,y,z
x,x-y,z
-y,-x,z
loop_
_atom_site_type_symbol
_atom_site_label
_atom_site_fract_x
_atom_site_fract_y
_atom_site_fract_z
Si Si1 0.333098 0.487882 0.083809
Si Si2 0.746903 0.078416 0.696659
Si Si3 0.631824 0.903774 0.779595
Si Si4 0.962444 0.390281 0.419141
Si Si5 0.827453 0.827348 0.416735
Si Si6 0.512968 0.668538 0.362858
O O1 0.256988 0.513976 0.090540
O O2 0.427438 0.572563 0.098625
O O3 0.308391 0.412109 0.142549
O O4 0.331562 0.460344 0.000000
O O5 0.827868 0.172133 0.720325
O O6 0.674537 0.085876 0.647854
O O7 0.701095 0.003688 0.757919
O O8 0.784046 0.036214 0.638370
O O9 0.666248 0.833124 0.777653
O O10 0.555435 0.868920 0.717840
O O11 0.934269 0.351116 0.500000
O O12 0.951759 0.475880 0.414518
O O13 0.067317 0.427298 0.409107
O O14 0.799867 0.799228 0.500000
O O15 0.805747 0.902874 0.397851
O O16 0.932014 0.864027 0.414158
O O17 0.515597 0.757799 0.387232
O O18 0.414004 0.585997 0.362824
#
# Coordination Sequence:
#
# PCOD9585488 Si02
#       6
#    12  12  12  12  12  12
#     4   9  16  26  43  69 100 130 154 171 186 212
#     4  10  19  30  45  62  78 101 137 177 214 256
#     4   9  17  28  41  60  88 117 142 170 207 247
#     4   9  18  31  43  56  77 104 134 173 222 265
#     4   9  16  25  38  58  84 111 137 167 205 248
#     4   9  16  25  38  57  83 117 152 179 200 230
#
# _framework density 14.700773999999999
#
# number of rings (size 3 to 8) (size 9 to 14) (size 15 to 20)
#    0.000    2.833    0.000    2.000    0.000    4.000 
#    0.000    1.667    0.000    2.167    0.000    0.000 
#    0.000    0.000    0.000    0.000    0.000    0.000 
#
# Total GULP energy -401050.215954 kJ/mol
# GULP energy per Si atom -5570.141888 kJ/mol
# Density = 1.466731 g / cm^3
# Si number density = 14.700774 Si / 1000 Ang^3
#
#
#
# Elastic Constant Matrix: (Units=GPa)
#
#
# Indices 1 2 3 4 5 6 
#
# 1 61.5521 25.2032 28.9770 0.0000 -0.0002 0.0000
# 2 25.2032 61.5521 28.9770 0.0000 0.0002 0.0000
# 3 28.9770 28.9770 65.3938 0.0000 0.0000 0.0000
# 4 0.0000 0.0000 0.0000 14.6855 0.0000 0.0002
# 5 -0.0002 0.0002 0.0000 0.0000 14.6855 0.0000
# 6 0.0000 0.0000 0.0000 0.0002 0.0000 18.1744
#
#
#
# Elastic Compliance Matrix: (Units=1/GPa)
#
#
# Indices 1 2 3 4 5 6 
#
# 1 0.021942 -0.005569 -0.007255 0.000000 0.000000 0.000000
# 2 -0.005569 0.021942 -0.007255 0.000000 0.000000 0.000000
# 3 -0.007255 -0.007255 0.021722 0.000000 0.000000 0.000000
# 4 0.000000 0.000000 0.000000 0.068094 0.000000 -0.000001
# 5 0.000000 0.000000 0.000000 0.000000 0.068094 0.000000
# 6 0.000000 0.000000 0.000000 -0.000001 0.000000 0.055022
#
#
# Mechanical properties :
#
#
# Convention : Reuss Voigt Hill
#
# Bulk Modulus (GPa) = 39.29678 39.42358 39.36018
# Shear Modulus (GPa) = 16.36884 16.53182 16.45033
#
# Velocity S-wave (km/s) = 3.34049 3.35708 3.34879
# Velocity P-wave (km/s) = 6.45504 6.47319 6.46412
#
# Compressibility (1/GPa) = 0.02544738
#
# Stress axis : x y z
#
# Youngs Moduli (GPa) = 45.57419 45.57419 46.03667
#
# Poissons Ratio (x) = 0.25380 0.33401
# Poissons Ratio (y) = 0.25380 0.33401
# Poissons Ratio (z) = 0.33065 0.33065
#
# Static dielectric constant tensor:
#      x y z
#    x 1.497850 0.000000 0.000000 
#    y 0.000000 1.497850 0.000000 
#    z 0.000000 0.000000 1.481540 
# 
# From -- ./inp_files/3064.got.cif
#   From: 2010.05.17/outbox.cif.g08.bks.cpg/sg187_2_cif.got.tgz:3064.got - 2010.05.20 12:09:04.
