data_PCOD9585615
_publ_section_title
;
Structure prediction by ZEFSAII (Michael W. Deem and Ramdas Pophale) SiO2 
 PCOD9585615
Probable space group: P -6 M 2
;
_chemical_formula_sum "Si O2"
_cell_formula_units_Z 72
_cell_length_a 12.746700
_cell_length_b 12.746700
_cell_length_c 31.515985
_cell_angle_alpha 90.000000
_cell_angle_beta 90.000000
_cell_angle_gamma 120.000000
_cell_volume 4434.626481
_symmetry_space_group_name_H-M "P -6 M 2"
_symmetry_group_IT_number 187
_symmetry_cell_setting 'hexagonal'
loop_
_space_group_symop_operation_xyz
x,y,z
-x+y,-x,-z
-y,x-y,z
x,y,-z
-x+y,-x,z
-y,x-y,-z
-y,-x,-z
-x+y,y,-z
x,x-y,-z
-x+y,y,z
x,x-y,z
-y,-x,z
loop_
_atom_site_type_symbol
_atom_site_label
_atom_site_fract_x
_atom_site_fract_y
_atom_site_fract_z
Si Si1 0.751434 0.999678 0.324911
Si Si2 0.916447 0.582694 0.836093
Si Si3 0.665994 0.582820 0.000000
Si Si4 0.333708 0.916092 0.754768
Si Si5 0.582897 0.916793 0.917877
Si Si6 0.334713 0.417989 0.500000
Si Si7 0.751019 0.000092 0.578545
O O1 0.872264 0.127736 0.318058
O O2 0.707558 0.996956 0.373156
O O3 0.782307 0.891153 0.322122
O O4 0.652252 0.972331 0.289186
O O5 0.794724 0.589447 0.838273
O O6 0.886527 0.443264 0.837227
O O7 0.991104 0.641074 0.793108
O O8 0.004449 0.648228 0.875849
O O9 0.645756 0.644463 0.041380
O O10 0.557127 0.442874 0.000000
O O11 0.794921 0.589842 0.000000
O O12 0.446927 0.893854 0.753158
O O13 0.209631 0.790370 0.761945
O O14 0.443135 0.886269 0.918034
O O15 0.589400 0.794700 0.918927
O O16 0.454291 0.545710 0.500000
O O17 0.216633 0.433265 0.500000
O O18 0.325754 0.342762 0.457910
O O19 0.875782 0.124219 0.572901
O O20 0.774571 0.887286 0.574376
#
# Coordination Sequence:
#
# PCOD9585615 Si02
#       7
#    12  12   6  12  12   6  12
#     4   9  17  30  49  73  99 125 154 191 238 289
#     4  10  20  34  53  75  99 128 163 205 249 292
#     4  10  20  34  54  78 104 134 168 208 250 292
#     4  10  20  33  50  72  99 131 165 201 239 282
#     4  10  20  34  54  78 104 134 167 205 247 293
#     4  10  20  32  46  66  94 128 162 194 232 280
#     4   9  17  30  50  74  96 119 151 195 243 286
#
# _framework density 16.235866000000001
#
# number of rings (size 3 to 8) (size 9 to 14) (size 15 to 20)
#    0.000    2.333    0.000    3.000    0.000    2.000 
#    0.000    5.000    0.000   12.667    0.000    0.000 
#    0.000    0.000    0.000    0.000    0.000    0.000 
#
# Total GULP energy -401639.828049 kJ/mol
# GULP energy per Si atom -5578.330945 kJ/mol
# Density = 1.619891 g / cm^3
# Si number density = 16.235866 Si / 1000 Ang^3
#
#
#
# Elastic Constant Matrix: (Units=GPa)
#
#
# Indices 1 2 3 4 5 6 
#
# 1 109.3643 69.9774 76.9242 0.0000 -0.0002 0.0000
# 2 69.9774 109.3643 76.9242 0.0000 0.0002 0.0000
# 3 76.9242 76.9242 144.3525 0.0000 0.0000 0.0000
# 4 0.0000 0.0000 0.0000 21.8301 0.0000 0.0002
# 5 -0.0002 0.0002 0.0000 0.0000 21.8301 0.0000
# 6 0.0000 0.0000 0.0000 0.0002 0.0000 19.6934
#
#
#
# Elastic Compliance Matrix: (Units=1/GPa)
#
#
# Indices 1 2 3 4 5 6 
#
# 1 0.017830 -0.007559 -0.005474 0.000000 0.000000 0.000000
# 2 -0.007559 0.017830 -0.005474 0.000000 0.000000 0.000000
# 3 -0.005474 -0.005474 0.012761 0.000000 0.000000 0.000000
# 4 0.000000 0.000000 0.000000 0.045808 0.000000 0.000000
# 5 0.000000 0.000000 0.000000 0.000000 0.045808 0.000000
# 6 0.000000 0.000000 0.000000 0.000000 0.000000 0.050778
#
#
# Mechanical properties :
#
#
# Convention : Reuss Voigt Hill
#
# Bulk Modulus (GPa) = 87.64433 90.08142 88.86288
# Shear Modulus (GPa) = 21.58599 21.95443 21.77021
#
# Velocity S-wave (km/s) = 3.65022 3.68124 3.66576
# Velocity P-wave (km/s) = 8.47730 8.58325 8.53044
#
# Compressibility (1/GPa) = 0.01140975
#
# Stress axis : x y z
#
# Youngs Moduli (GPa) = 56.08428 56.08428 78.36297
#
# Poissons Ratio (x) = 0.42393 0.42893
# Poissons Ratio (y) = 0.42393 0.42893
# Poissons Ratio (z) = 0.30698 0.30698
#
# Static dielectric constant tensor:
#      x y z
#    x 1.510540 0.000000 0.000000 
#    y 0.000000 1.510540 0.000000 
#    z 0.000000 0.000000 1.552030 
# 
# From -- ./inp_files/4583.got.cif
#   From: 2010.05.17/outbox.cif.g08.bks.cpg/sg187_3_cif.got.tgz:4583.got - 2010.05.20 12:09:04.
