data_PCOD9585730
_publ_section_title
;
Structure prediction by ZEFSAII (Michael W. Deem and Ramdas Pophale) SiO2 
 PCOD9585730
Probable space group: P -6 M 2
;
_chemical_formula_sum "Si O2"
_cell_formula_units_Z 60
_cell_length_a 12.627955
_cell_length_b 12.627955
_cell_length_c 26.216011
_cell_angle_alpha 90.000000
_cell_angle_beta 90.000000
_cell_angle_gamma 120.000000
_cell_volume 3620.456164
_symmetry_space_group_name_H-M "P -6 M 2"
_symmetry_group_IT_number 187
_symmetry_cell_setting 'hexagonal'
loop_
_space_group_symop_operation_xyz
x,y,z
-x+y,-x,-z
-y,x-y,z
x,y,-z
-x+y,-x,z
-y,x-y,-z
-y,-x,-z
-x+y,y,-z
x,x-y,-z
-x+y,y,z
x,x-y,z
-y,-x,z
loop_
_atom_site_type_symbol
_atom_site_label
_atom_site_fract_x
_atom_site_fract_y
_atom_site_fract_z
Si Si1 0.918414 0.584607 0.099694
Si Si2 0.748390 0.999507 0.299976
Si Si3 0.081180 0.414600 0.199927
Si Si4 0.666205 0.081682 0.500000
Si Si5 0.333577 0.918749 0.000000
Si Si6 0.585604 0.918943 0.600029
O O1 0.795793 0.591585 0.099403
O O2 0.887847 0.443924 0.098457
O O3 0.997626 0.644213 0.150432
O O4 0.000918 0.648616 0.050161
O O5 0.779131 0.889566 0.300095
O O6 0.667140 0.979887 0.249869
O O7 0.667763 0.980776 0.350200
O O8 0.870539 0.129462 0.299767
O O9 0.213084 0.426167 0.193111
O O10 0.095388 0.547694 0.206316
O O11 0.796023 0.203978 0.500000
O O12 0.556079 0.112158 0.500000
O O13 0.647220 0.000832 0.550174
O O14 0.205072 0.794929 0.000000
O O15 0.444906 0.889812 0.000000
O O16 0.453104 0.906207 0.606205
O O17 0.572748 0.786374 0.593936
#
# Coordination Sequence:
#
# PCOD9585730 Si02
#       6
#    12  12  12   6   6  12
#     4  10  20  34  53  76 103 135 170 209 252 300
#     4  10  20  34  52  74 102 136 172 209 250 299
#     4  10  20  34  54  78 104 134 168 210 256 302
#     4  10  20  34  52  74 102 136 172 210 252 300
#     4  10  20  34  54  78 104 134 168 210 256 302
#     4  10  20  34  54  78 104 134 168 210 256 302
#
# _framework density 16.572498
#
# number of rings (size 3 to 8) (size 9 to 14) (size 15 to 20)
#    0.000    2.000    0.000    4.000    0.000    0.000 
#    0.000    6.000    0.000   15.200    0.000    0.000 
#    0.000    0.000    0.000    0.000    0.000    0.000 
#
# Total GULP energy -335032.711369 kJ/mol
# GULP energy per Si atom -5583.878523 kJ/mol
# Density = 1.653478 g / cm^3
# Si number density = 16.572498 Si / 1000 Ang^3
#
#
#
# Elastic Constant Matrix: (Units=GPa)
#
#
# Indices 1 2 3 4 5 6 
#
# 1 148.1620 110.6522 104.2138 0.0000 0.0000 0.0000
# 2 110.6522 148.1620 104.2138 0.0000 0.0000 0.0000
# 3 104.2138 104.2138 179.6852 0.0000 0.0000 0.0000
# 4 0.0000 0.0000 0.0000 14.9935 0.0000 0.0000
# 5 0.0000 0.0000 0.0000 0.0000 14.9935 0.0000
# 6 0.0000 0.0000 0.0000 0.0000 0.0000 18.7549
#
#
#
# Elastic Compliance Matrix: (Units=1/GPa)
#
#
# Indices 1 2 3 4 5 6 
#
# 1 0.016955 -0.009705 -0.004205 0.000000 0.000000 0.000000
# 2 -0.009705 0.016955 -0.004205 0.000000 0.000000 0.000000
# 3 -0.004205 -0.004205 0.010443 0.000000 0.000000 0.000000
# 4 0.000000 0.000000 0.000000 0.066695 0.000000 0.000000
# 5 0.000000 0.000000 0.000000 0.000000 0.066695 0.000000
# 6 0.000000 0.000000 0.000000 0.000000 0.000000 0.053319
#
#
# Mechanical properties :
#
#
# Convention : Reuss Voigt Hill
#
# Bulk Modulus (GPa) = 123.10201 123.79656 123.44929
# Shear Modulus (GPa) = 18.51855 20.21036 19.36446
#
# Velocity S-wave (km/s) = 3.34642 3.49594 3.42200
# Velocity P-wave (km/s) = 9.45376 9.54765 9.50082
#
# Compressibility (1/GPa) = 0.00812334
#
# Stress axis : x y z
#
# Youngs Moduli (GPa) = 58.98014 58.98014 95.75996
#
# Poissons Ratio (x) = 0.57239 0.40266
# Poissons Ratio (y) = 0.57239 0.40266
# Poissons Ratio (z) = 0.24800 0.24800
#
# Static dielectric constant tensor:
#      x y z
#    x 1.522950 0.000000 0.000000 
#    y 0.000000 1.522950 0.000000 
#    z 0.000000 0.000000 1.542020 
# 
# From -- ./inp_files/4181.got.cif
#   From: 2010.05.17/outbox.cif.g08.bks.cpg/sg187_3_cif.got.tgz:4181.got - 2010.05.20 12:09:04.
