data_PCOD9585040
_publ_section_title
;
Structure prediction by ZEFSAII (Michael W. Deem and Ramdas Pophale) SiO2 
 PCOD9585040
Probable space group: P 6 M M
;
_chemical_formula_sum "Si O2"
_cell_formula_units_Z 72
_cell_length_a 21.325429
_cell_length_b 21.325429
_cell_length_c 11.825403
_cell_angle_alpha 90.000000
_cell_angle_beta 90.000000
_cell_angle_gamma 120.000000
_cell_volume 4657.384944
_symmetry_space_group_name_H-M "P 6 M M"
_symmetry_group_IT_number 183
_symmetry_cell_setting 'hexagonal'
loop_
_space_group_symop_operation_xyz
x,y,z
x-y,x,z
-y,x-y,z
-x,-y,z
-x+y,-x,z
y,-x+y,z
-x+y,y,z
x,x-y,z
-y,-x,z
y,x,z
x-y,-y,z
-x,-x+y,z
loop_
_atom_site_type_symbol
_atom_site_label
_atom_site_fract_x
_atom_site_fract_y
_atom_site_fract_z
Si Si1 0.456358 0.543643 0.830170
Si Si2 0.659484 0.086496 0.676022
Si Si3 0.308808 0.225446 0.097112
Si Si4 0.544115 0.088230 0.091782
Si Si5 0.516591 0.184664 0.469511
Si Si6 0.158222 0.697807 0.214518
Si Si7 0.224452 0.307113 0.836281
O O1 0.500000 0.500000 0.830597
O O2 0.506363 0.616037 0.761660
O O3 0.445771 0.554230 0.959949
O O4 0.673007 0.133014 0.563807
O O5 0.729139 0.097094 0.744207
O O6 0.609943 0.000000 0.652778
O O7 0.280539 0.140270 0.107555
O O8 0.250458 0.250458 0.116257
O O9 0.376201 0.266434 0.181400
O O10 0.335407 0.245788 0.966060
O O11 0.501244 0.123848 0.148510
O O12 0.500000 0.000000 0.103464
O O13 0.590070 0.180140 0.473965
O O14 0.533702 0.266851 0.487197
O O15 0.479827 0.160356 0.346212
O O16 0.240693 0.759308 0.182672
O O17 0.140996 0.281992 0.823238
O O18 0.244649 0.244649 0.823723
#
# Coordination Sequence:
#
# PCOD9585040 Si02
#       7
#     6  12  12   6  12  12  12
#     4   9  18  31  49  73 101 124 153 203 255 299
#     4  10  19  32  50  73  99 125 159 206 254 293
#     4   9  17  31  51  75 103 129 161 201 245 296
#     4  11  20  33  55  77  95 126 169 209 255 309
#     4  11  22  37  52  68  92 133 171 206 246 300
#     4  10  21  35  49  72  97 127 168 209 256 296
#     4   9  17  30  50  75 100 131 162 198 245 293
#
# _framework density 15.45932
#
# number of rings (size 3 to 8) (size 9 to 14) (size 15 to 20)
#    0.000    2.167    1.667    2.167    0.000    4.000 
#    0.500    0.833    0.000    0.333    0.000    2.333 
#    0.000    0.000    0.000    0.000    0.000   21.667 
#
# Total GULP energy -401217.077929 kJ/mol
# GULP energy per Si atom -5572.459416 kJ/mol
# Density = 1.542413 g / cm^3
# Si number density = 15.459320 Si / 1000 Ang^3
#
#
#
# Elastic Constant Matrix: (Units=GPa)
#
#
# Indices 1 2 3 4 5 6 
#
# 1 89.8259 58.9855 45.8082 0.0000 0.0000 0.0000
# 2 58.9855 89.8259 45.8082 0.0000 0.0000 0.0000
# 3 45.8082 45.8082 83.1109 0.0000 0.0000 0.0000
# 4 0.0000 0.0000 0.0000 20.4438 0.0000 0.0000
# 5 0.0000 0.0000 0.0000 0.0000 20.4438 0.0000
# 6 0.0000 0.0000 0.0000 0.0000 0.0000 15.4202
#
#
#
# Elastic Compliance Matrix: (Units=1/GPa)
#
#
# Indices 1 2 3 4 5 6 
#
# 1 0.021298 -0.011127 -0.005606 0.000000 0.000000 0.000000
# 2 -0.011127 0.021298 -0.005606 0.000000 0.000000 0.000000
# 3 -0.005606 -0.005606 0.018212 0.000000 0.000000 0.000000
# 4 0.000000 0.000000 0.000000 0.048915 0.000000 0.000000
# 5 0.000000 0.000000 0.000000 0.000000 0.048915 0.000000
# 6 0.000000 0.000000 0.000000 0.000000 0.000000 0.064850
#
#
# Mechanical properties :
#
#
# Convention : Reuss Voigt Hill
#
# Bulk Modulus (GPa) = 61.99576 62.66294 62.32935
# Shear Modulus (GPa) = 18.27868 18.73893 18.50881
#
# Velocity S-wave (km/s) = 3.44230 3.48536 3.46390
# Velocity P-wave (km/s) = 7.48256 7.53784 7.51026
#
# Compressibility (1/GPa) = 0.01613013
#
# Stress axis : x y z
#
# Youngs Moduli (GPa) = 46.95234 46.95234 54.90891
#
# Poissons Ratio (x) = 0.52243 0.30783
# Poissons Ratio (y) = 0.52243 0.30783
# Poissons Ratio (z) = 0.26322 0.26322
#
# Static dielectric constant tensor:
#      x y z
#    x 1.506750 0.000000 0.000000 
#    y 0.000000 1.506750 0.000000 
#    z 0.000000 0.000000 1.512310 
# 
# From -- ./inp_files/1678.got.cif
#   From: 2010.05.17/outbox.cif.g08.bks.cpg/sg183_1_cif.got.tgz:1678.got - 2010.05.20 12:02:58.
