data_PCOD9585867
_publ_section_title
;
Structure prediction by ZEFSAII (Michael W. Deem and Ramdas Pophale) SiO2 
 PCOD9585867
Probable space group: P -6 C 2
;
_chemical_formula_sum "Si O2"
_cell_formula_units_Z 76
_cell_length_a 17.647870
_cell_length_b 17.647870
_cell_length_c 14.663291
_cell_angle_alpha 90.000000
_cell_angle_beta 90.000000
_cell_angle_gamma 120.000000
_cell_volume 3955.001723
_symmetry_space_group_name_H-M "P -6 C 2"
_symmetry_group_IT_number 188
_symmetry_cell_setting 'hexagonal'
loop_
_space_group_symop_operation_xyz
x,y,z
-x+y,-x,1/2-z
-y,x-y,z
x,y,1/2-z
-x+y,-x,z
-y,x-y,1/2-z
-y,-x,-z
-x+y,y,-z
x,x-y,-z
-x+y,y,1/2+z
x,x-y,1/2+z
-y,-x,1/2+z
loop_
_atom_site_type_symbol
_atom_site_label
_atom_site_fract_x
_atom_site_fract_y
_atom_site_fract_z
Si Si1 0.945667 0.717996 0.638973
Si Si2 0.000000 0.000000 0.390657
Si Si3 0.004878 0.587216 0.141224
Si Si4 0.794575 0.897288 0.354956
Si Si5 0.158430 0.492757 1.000000
Si Si6 0.282005 0.054333 0.638973
Si Si7 0.412783 0.417661 0.641224
O O1 0.946159 0.723888 0.750000
O O2 0.861129 0.722258 0.607528
O O3 0.035796 0.801998 0.606029
O O4 0.945337 0.629158 0.615849
O O5 0.049874 0.099746 0.357750
O O6 0.000000 0.000000 0.500000
O O7 0.019023 0.597530 0.250000
O O8 0.971418 0.485709 0.119107
O O9 0.945337 0.629157 0.115849
O O10 0.095265 0.642170 0.087191
O O11 0.764531 0.882266 0.250000
O O12 0.766201 0.964204 0.393971
O O13 0.095265 0.453094 0.087191
O O14 0.236683 0.473365 0.000000
O O15 0.192453 0.596227 0.000000
O O16 0.276113 0.053841 0.750000
O O17 0.402469 0.421493 0.750000
#
# Coordination Sequence:
#
# PCOD9585867 Si02
#       7
#    12   4  12  12  12  12  12
#     4   9  17  30  52  77  99 133 178 214 252 309
#     4  12  22  32  40  66 112 146 166 216 256 293
#     4   9  19  36  55  76 104 136 173 219 264 308
#     4  10  18  32  50  66  94 140 182 208 244 299
#     4  10  21  36  53  76 102 136 172 214 261 312
#     4   9  17  30  52  77  99 133 178 214 252 309
#     4   9  19  36  55  76 104 136 173 219 264 308
#
# _framework density 19.216173999999999
#
# number of rings (size 3 to 8) (size 9 to 14) (size 15 to 20)
#    0.000    2.526    1.579    0.632    2.211    0.632 
#    2.842    0.789    0.000    2.526    0.000    4.421 
#    0.000    0.000    0.000    0.000    0.000    0.000 
#
# Total GULP energy -423907.788770 kJ/mol
# GULP energy per Si atom -5577.734063 kJ/mol
# Density = 1.917244 g / cm^3
# Si number density = 19.216174 Si / 1000 Ang^3
#
#
#
# Elastic Constant Matrix: (Units=GPa)
#
#
# Indices 1 2 3 4 5 6 
#
# 1 119.0682 75.5477 11.0318 0.0000 0.0000 0.0000
# 2 75.5477 119.0682 11.0318 0.0000 0.0000 0.0000
# 3 11.0318 11.0318 72.3510 0.0000 0.0000 0.0000
# 4 0.0000 0.0000 0.0000 0.7864 0.0000 0.0000
# 5 0.0000 0.0000 0.0000 0.0000 0.7864 0.0000
# 6 0.0000 0.0000 0.0000 0.0000 0.0000 21.7603
#
#
#
# Elastic Compliance Matrix: (Units=1/GPa)
#
#
# Indices 1 2 3 4 5 6 
#
# 1 0.014103 -0.008874 -0.000797 0.000000 0.000000 0.000000
# 2 -0.008874 0.014103 -0.000797 0.000000 0.000000 0.000000
# 3 -0.000797 -0.000797 0.014065 0.000000 0.000000 0.000000
# 4 0.000000 0.000000 0.000000 1.271673 0.000000 0.000000
# 5 0.000000 0.000000 0.000000 0.000000 1.271673 0.000000
# 6 0.000000 0.000000 0.000000 0.000000 0.000000 0.045955
#
#
# Mechanical properties :
#
#
# Convention : Reuss Voigt Hill
#
# Bulk Modulus (GPa) = 46.87566 56.19001 51.53283
# Shear Modulus (GPa) = 1.87997 18.85834 10.36916
#
# Velocity S-wave (km/s) = 0.99018 3.13610 2.32546
# Velocity P-wave (km/s) = 5.07485 6.51291 5.83832
#
# Compressibility (1/GPa) = 0.02133303
#
# Stress axis : x y z
#
# Youngs Moduli (GPa) = 70.90597 70.90597 71.10035
#
# Poissons Ratio (x) = 0.62925 0.05669
# Poissons Ratio (y) = 0.62925 0.05669
# Poissons Ratio (z) = 0.05653 0.05653
#
# Static dielectric constant tensor:
#      x y z
#    x 1.662810 0.000000 0.000000 
#    y 0.000000 1.662810 0.000000 
#    z 0.000000 0.000000 1.708860 
# 
# From -- ./inp_files/2523.got.cif
#   From: 2010.05.17/outbox.cif.g08.bks.cpg/sg188_2_cif.got.tgz:2523.got - 2010.05.20 12:11:46.
