data_PCOD9585191
_publ_section_title
;
Structure prediction by ZEFSAII (Michael W. Deem and Ramdas Pophale) SiO2 
 PCOD9585191
Probable space group: P 6 C C
;
_chemical_formula_sum "Si O2"
_cell_formula_units_Z 48
_cell_length_a 15.392523
_cell_length_b 15.392523
_cell_length_c 8.748156
_cell_angle_alpha 90.000000
_cell_angle_beta 90.000000
_cell_angle_gamma 120.000000
_cell_volume 1795.009589
_symmetry_space_group_name_H-M "P 6 C C"
_symmetry_group_IT_number 184
_symmetry_cell_setting 'hexagonal'
loop_
_space_group_symop_operation_xyz
x,y,z
x-y,x,z
-y,x-y,z
-x,-y,z
-x+y,-x,z
y,-x+y,z
-x+y,y,1/2+z
x,x-y,1/2+z
-y,-x,1/2+z
y,x,1/2+z
x-y,-y,1/2+z
-x,-x+y,1/2+z
loop_
_atom_site_type_symbol
_atom_site_label
_atom_site_fract_x
_atom_site_fract_y
_atom_site_fract_z
Si Si1 0.209018 0.635150 0.592770
Si Si2 0.690930 0.665757 0.022598
Si Si3 0.096093 0.480209 0.796120
Si Si4 0.232839 0.170154 0.246384
O O1 0.258089 0.564167 0.622201
O O2 0.110116 0.576044 0.695927
O O3 0.183624 0.644263 0.419949
O O4 0.686006 0.600886 0.169099
O O5 0.699237 0.764642 0.103412
O O6 0.592581 0.603976 0.918676
O O7 0.781082 0.705547 0.901273
O O8 0.139757 0.191833 0.240933
#
# Coordination Sequence:
#
# PCOD9585191 Si02
#       4
#    12  12  12  12
#     4  10  24  45  76 108 134 186 254 303 370 438
#     4  10  26  41  67 106 148 200 234 300 386 434
#     4  11  24  46  67 100 148 182 238 307 356 444
#     4  11  23  45  71 105 147 190 256 302 362 450
#
# _framework density 26.740807
#
# number of rings (size 3 to 8) (size 9 to 14) (size 15 to 20)
#    0.500    1.000    0.000    3.250    0.000   15.000 
#    0.000    2.500    0.000    0.000    0.000    0.000 
#    0.000    0.000    0.000    0.000    0.000    0.000 
#
# Total GULP energy -267584.617153 kJ/mol
# GULP energy per Si atom -5574.679524 kJ/mol
# Density = 2.667994 g / cm^3
# Si number density = 26.740807 Si / 1000 Ang^3
#
#
#
# Elastic Constant Matrix: (Units=GPa)
#
#
# Indices 1 2 3 4 5 6 
#
# 1 113.4253 63.5748 63.8441 0.0000 0.0000 0.0000
# 2 63.5748 113.4253 63.8441 0.0000 0.0000 0.0000
# 3 63.8441 63.8441 225.8256 0.0000 0.0000 0.0000
# 4 0.0000 0.0000 0.0000 47.8871 0.0000 0.0000
# 5 0.0000 0.0000 0.0000 0.0000 47.8871 0.0000
# 6 0.0000 0.0000 0.0000 0.0000 0.0000 24.9252
#
#
#
# Elastic Compliance Matrix: (Units=1/GPa)
#
#
# Indices 1 2 3 4 5 6 
#
# 1 0.013579 -0.006481 -0.002006 0.000000 0.000000 0.000000
# 2 -0.006481 0.013579 -0.002006 0.000000 0.000000 0.000000
# 3 -0.002006 -0.002006 0.005563 0.000000 0.000000 0.000000
# 4 0.000000 0.000000 0.000000 0.020882 0.000000 0.000000
# 5 0.000000 0.000000 0.000000 0.000000 0.020882 0.000000
# 6 0.000000 0.000000 0.000000 0.000000 0.000000 0.040120
#
#
# Mechanical properties :
#
#
# Convention : Reuss Voigt Hill
#
# Bulk Modulus (GPa) = 85.24282 92.80022 89.02152
# Shear Modulus (GPa) = 35.84130 41.56744 38.70437
#
# Velocity S-wave (km/s) = 3.66501 3.94694 3.80858
# Velocity P-wave (km/s) = 7.06091 7.45319 7.25970
#
# Compressibility (1/GPa) = 0.01173119
#
# Stress axis : x y z
#
# Youngs Moduli (GPa) = 73.64533 73.64533 179.76832
#
# Poissons Ratio (x) = 0.47732 0.36070
# Poissons Ratio (y) = 0.47732 0.36070
# Poissons Ratio (z) = 0.14777 0.14777
#
# Static dielectric constant tensor:
#      x y z
#    x 2.274600 0.000000 0.000000 
#    y 0.000000 2.274600 0.000000 
#    z 0.000000 0.000000 2.055790 
# 
# From -- ./inp_files/212.got.cif
#   From: 2010.05.17/outbox.cif.g08.bks.cpg/sg184_cif.got.tgz:212.got - 2010.05.20 12:04:40.
