data_PCOD9585161
_publ_section_title
;
Structure prediction by ZEFSAII (Michael W. Deem and Ramdas Pophale) SiO2 
 PCOD9585161
Probable space group: P 6 C C
;
_chemical_formula_sum "Si O2"
_cell_formula_units_Z 48
_cell_length_a 15.800257
_cell_length_b 15.800257
_cell_length_c 8.795372
_cell_angle_alpha 90.000000
_cell_angle_beta 90.000000
_cell_angle_gamma 120.000000
_cell_volume 1901.573631
_symmetry_space_group_name_H-M "P 6 C C"
_symmetry_group_IT_number 184
_symmetry_cell_setting 'hexagonal'
loop_
_space_group_symop_operation_xyz
x,y,z
x-y,x,z
-y,x-y,z
-x,-y,z
-x+y,-x,z
y,-x+y,z
-x+y,y,1/2+z
x,x-y,1/2+z
-y,-x,1/2+z
y,x,1/2+z
x-y,-y,1/2+z
-x,-x+y,1/2+z
loop_
_atom_site_type_symbol
_atom_site_label
_atom_site_fract_x
_atom_site_fract_y
_atom_site_fract_z
Si Si1 0.852182 0.475654 0.311590
Si Si2 0.059299 0.834280 0.986436
Si Si3 0.808607 0.513277 0.998055
Si Si4 0.673961 0.711761 0.193978
O O1 0.791997 0.503269 0.429505
O O2 0.852989 0.383064 0.377640
O O3 0.952024 0.576054 0.271244
O O4 0.794029 0.453266 0.153013
O O5 0.265698 0.887549 0.052254
O O6 0.948920 0.816078 0.000344
O O7 0.058029 0.760573 0.117210
O O8 0.792632 0.723514 0.824619
#
# Coordination Sequence:
#
# PCOD9585161 Si02
#       4
#    12  12  12  12
#     4  10  21  40  69 110 157 207 255 290 335 402
#     4  12  25  50  77 110 134 180 238 314 389 468
#     4  10  21  40  69 110 157 207 255 290 335 402
#     4  10  26  42  72 102 151 190 243 296 376 434
#
# _framework density 25.242251
#
# number of rings (size 3 to 8) (size 9 to 14) (size 15 to 20)
#    1.500    0.000    0.000    5.250    0.000    0.000 
#    4.500    6.250    0.000    0.000    0.000    0.000 
#    0.000    0.000    0.000   15.000    0.000    0.000 
#
# Total GULP energy -268069.483958 kJ/mol
# GULP energy per Si atom -5584.780916 kJ/mol
# Density = 2.518480 g / cm^3
# Si number density = 25.242251 Si / 1000 Ang^3
#
#
#
# Elastic Constant Matrix: (Units=GPa)
#
#
# Indices 1 2 3 4 5 6 
#
# 1 118.1866 61.8030 29.8006 0.0000 0.0000 0.0000
# 2 61.8030 118.1866 29.8006 0.0000 0.0000 0.0000
# 3 29.8006 29.8006 124.9085 0.0000 0.0000 0.0000
# 4 0.0000 0.0000 0.0000 44.2285 0.0000 0.0000
# 5 0.0000 0.0000 0.0000 0.0000 44.2285 0.0000
# 6 0.0000 0.0000 0.0000 0.0000 0.0000 28.1918
#
#
#
# Elastic Compliance Matrix: (Units=1/GPa)
#
#
# Indices 1 2 3 4 5 6 
#
# 1 0.011884 -0.005852 -0.001439 0.000000 0.000000 0.000000
# 2 -0.005852 0.011884 -0.001439 0.000000 0.000000 0.000000
# 3 -0.001439 -0.001439 0.008693 0.000000 0.000000 0.000000
# 4 0.000000 0.000000 0.000000 0.022610 0.000000 0.000000
# 5 0.000000 0.000000 0.000000 0.000000 0.022610 0.000000
# 6 0.000000 0.000000 0.000000 0.000000 0.000000 0.035471
#
#
# Mechanical properties :
#
#
# Convention : Reuss Voigt Hill
#
# Bulk Modulus (GPa) = 66.66388 67.12112 66.89250
# Shear Modulus (GPa) = 36.86989 39.32159 38.09574
#
# Velocity S-wave (km/s) = 3.82598 3.95114 3.88906
# Velocity P-wave (km/s) = 6.78119 6.88940 6.83551
#
# Compressibility (1/GPa) = 0.01500063
#
# Stress axis : x y z
#
# Youngs Moduli (GPa) = 84.14637 84.14637 115.04046
#
# Poissons Ratio (x) = 0.49239 0.16557
# Poissons Ratio (y) = 0.49239 0.16557
# Poissons Ratio (z) = 0.12111 0.12111
#
# Static dielectric constant tensor:
#      x y z
#    x 2.006550 0.000000 0.000000 
#    y 0.000000 2.006550 0.000000 
#    z 0.000000 0.000000 2.003160 
# 
# From -- ./inp_files/201.got.cif
#   From: 2010.05.17/outbox.cif.g08.bks.cpg/sg184_cif.got.tgz:201.got - 2010.05.20 12:04:40.
