data_PCOD9586072
_publ_section_title
;
Structure prediction by ZEFSAII (Michael W. Deem and Ramdas Pophale) SiO2 
 PCOD9586072
Probable space group: P -6 C 2
;
_chemical_formula_sum "Si O2"
_cell_formula_units_Z 58
_cell_length_a 14.307990
_cell_length_b 14.307990
_cell_length_c 15.881372
_cell_angle_alpha 90.000000
_cell_angle_beta 90.000000
_cell_angle_gamma 120.000000
_cell_volume 2815.632090
_symmetry_space_group_name_H-M "P -6 C 2"
_symmetry_group_IT_number 188
_symmetry_cell_setting 'hexagonal'
loop_
_space_group_symop_operation_xyz
x,y,z
-x+y,-x,1/2-z
-y,x-y,z
x,y,1/2-z
-x+y,-x,z
-y,x-y,1/2-z
-y,-x,-z
-x+y,y,-z
x,x-y,-z
-x+y,y,1/2+z
x,x-y,1/2+z
-y,-x,1/2+z
loop_
_atom_site_type_symbol
_atom_site_label
_atom_site_fract_x
_atom_site_fract_y
_atom_site_fract_z
Si Si1 0.267278 0.933007 0.848847
Si Si2 0.439205 0.536348 0.901735
Si Si3 0.733441 0.475200 0.750000
Si Si4 0.038842 0.730570 0.849612
Si Si5 0.808162 0.638443 0.592755
Si Si6 0.333334 0.666668 0.648646
O O1 0.255940 0.950718 0.750000
O O2 0.370120 0.916156 0.858159
O O3 0.155194 0.829130 0.877160
O O4 0.298407 0.040975 0.899105
O O5 0.383759 0.416530 0.865999
O O6 0.350619 0.572260 0.886070
O O7 0.462851 0.537149 0.000000
O O8 0.783288 0.395154 0.750000
O O9 0.767741 0.550262 0.667596
O O10 0.030785 0.742239 0.750000
O O11 0.934643 0.721471 0.893297
O O12 0.794446 0.588892 0.500000
O O13 0.333334 0.666668 0.750000
#
# Coordination Sequence:
#
# PCOD9586072 Si02
#       6
#    12  12   6  12  12   4
#     4  11  24  44  70  97 134 182 227 280 343 414
#     4  12  24  37  63 100 136 171 217 269 332 404
#     4  10  26  48  72  98 140 184 230 290 338 418
#     4  11  24  44  70  97 134 182 227 280 343 414
#     4  12  26  46  72 102 138 180 237 290 352 415
#     4  12  22  38  55  90 133 176 208 252 325 398
#
# _framework density 20.599283
#
# number of rings (size 3 to 8) (size 9 to 14) (size 15 to 20)
#    0.207    0.414    4.138    3.724    2.897    3.310 
#    1.241    0.000    0.000    0.000    0.000    0.000 
#    0.000    0.000    0.000    0.000    0.000    0.000 
#
# Total GULP energy -324273.811845 kJ/mol
# GULP energy per Si atom -5590.927790 kJ/mol
# Density = 2.055240 g / cm^3
# Si number density = 20.599283 Si / 1000 Ang^3
#
#
#
# Elastic Constant Matrix: (Units=GPa)
#
#
# Indices 1 2 3 4 5 6 
#
# 1 91.1446 51.1388 23.4029 -0.0052 -0.0036 0.0004
# 2 51.1388 91.1444 23.4027 0.0023 0.0018 -0.0003
# 3 23.4029 23.4027 124.8171 0.0025 0.0006 -0.0003
# 4 -0.0052 0.0023 0.0025 -109.3856 -0.0504 -0.0027
# 5 -0.0036 0.0018 0.0006 -0.0504 -109.2571 0.0020
# 6 0.0004 -0.0003 -0.0003 -0.0027 0.0020 20.0014
#
#
#
# Elastic Compliance Matrix: (Units=1/GPa)
#
#
# Indices 1 2 3 4 5 6 
#
# 1 0.016243 -0.008753 -0.001404 -0.000001 -0.000001 -0.000001
# 2 -0.008753 0.016243 -0.001404 0.000001 0.000001 0.000000
# 3 -0.001404 -0.001404 0.008538 0.000000 0.000000 0.000000
# 4 -0.000001 0.000001 0.000000 -0.009142 0.000004 -0.000001
# 5 -0.000001 0.000001 0.000000 0.000004 -0.009153 0.000001
# 6 -0.000001 0.000000 0.000000 -0.000001 0.000001 0.049996
#
#
# Mechanical properties :
#
#
# Convention : Reuss Voigt Hill
#
# Bulk Modulus (GPa) = 55.86207 55.88832 55.87520
# Shear Modulus (GPa) = 49.10743 -25.78415 11.66164
#
# Velocity S-wave (km/s) = 4.88786 -3.54178 2.38191
# Velocity P-wave (km/s) = 7.68324 3.23489 5.89477
#
# Compressibility (1/GPa) = 0.01790123
#
# Stress axis : x y z
#
# Youngs Moduli (GPa) = 61.56381 61.56368 117.11845
#
# Poissons Ratio (x) = 0.53887 0.16448
# Poissons Ratio (y) = 0.53887 0.16448
# Poissons Ratio (z) = 0.08646 0.08646
#
# Static dielectric constant tensor:
#      x y z
#    x 1.721580 0.000000 0.000000 
#    y 0.000000 1.721570 0.000000 
#    z 0.000000 0.000000 1.731130 
# 
# From -- ./inp_files/2324.got.cif
#   From: 2010.05.17/outbox.cif.g08.bks.cpg/sg188_2_cif.got.tgz:2324.got - 2010.05.20 12:11:46.
