data_PCOD9586689
_publ_section_title
;
Structure prediction by ZEFSAII (Michael W. Deem and Ramdas Pophale) SiO2 
 PCOD9586689
Probable space group: P -6 2 C
;
_chemical_formula_sum "Si O2"
_cell_formula_units_Z 72
_cell_length_a 24.752050
_cell_length_b 24.752050
_cell_length_c 8.929494
_cell_angle_alpha 90.000000
_cell_angle_beta 90.000000
_cell_angle_gamma 120.000000
_cell_volume 4737.833875
_symmetry_space_group_name_H-M "P -6 2 C"
_symmetry_group_IT_number 190
_symmetry_cell_setting 'hexagonal'
loop_
_space_group_symop_operation_xyz
x,y,z
-x+y,-x,1/2-z
-y,x-y,z
x,y,1/2-z
-x+y,-x,z
-y,x-y,1/2-z
x-y,-y,-z
-x,-x+y,-z
y,x,-z
y,x,1/2+z
x-y,-y,1/2+z
-x,-x+y,1/2+z
loop_
_atom_site_type_symbol
_atom_site_label
_atom_site_fract_x
_atom_site_fract_y
_atom_site_fract_z
Si Si1 0.373760 0.512186 0.929326
Si Si2 0.302306 0.933020 0.428020
Si Si3 0.260912 0.745883 0.926480
Si Si4 0.374583 0.307876 0.927546
Si Si5 0.627342 0.484296 0.928874
Si Si6 0.619279 0.810218 0.071939
O O1 0.375127 0.506698 0.750000
O O2 0.325891 0.537801 0.964229
O O3 0.346085 0.444056 0.002405
O O4 0.440668 0.561383 0.993987
O O5 0.308575 0.941047 0.250000
O O6 0.342377 0.899702 0.472441
O O7 0.229788 0.882492 0.460333
O O8 0.328918 0.000000 0.500000
O O9 0.274704 0.750832 0.750000
O O10 0.324294 0.786495 0.017052
O O11 0.220835 0.778803 0.969545
O O12 0.379350 0.319139 0.750000
O O13 0.350518 0.234308 0.951519
O O14 0.331292 0.331292 0.000000
O O15 0.621618 0.480040 0.750000
O O16 0.600731 0.798696 0.250000
#
# Coordination Sequence:
#
# PCOD9586689 Si02
#       6
#    12  12  12  12  12  12
#     4  10  20  33  48  66  88 114 148 194 242 284
#     4   9  18  31  47  68  90 116 149 182 219 266
#     4   9  17  30  47  64  81 106 142 185 231 277
#     4  10  19  32  50  70  93 121 152 186 224 273
#     4  10  20  33  47  63  87 117 150 188 234 287
#     4   8  16  31  48  65  89 118 145 177 217 263
#
# _framework density 15.196818
#
# number of rings (size 3 to 8) (size 9 to 14) (size 15 to 20)
#    0.000    2.667    0.000    3.000    0.000    6.667 
#    1.000    1.667    0.000    0.000    0.000    0.000 
#    0.000    0.000    0.000    0.500    0.000    6.000 
#
# Total GULP energy -400873.532757 kJ/mol
# GULP energy per Si atom -5567.687955 kJ/mol
# Density = 1.516223 g / cm^3
# Si number density = 15.196818 Si / 1000 Ang^3
#
#
#
# Elastic Constant Matrix: (Units=GPa)
#
#
# Indices 1 2 3 4 5 6 
#
# 1 85.8248 59.7854 36.9044 0.0000 0.0000 0.0000
# 2 59.7854 85.8248 36.9044 0.0000 0.0000 0.0000
# 3 36.9044 36.9044 43.9352 0.0000 0.0000 0.0000
# 4 0.0000 0.0000 0.0000 19.2169 0.0000 0.0000
# 5 0.0000 0.0000 0.0000 0.0000 19.2169 0.0000
# 6 0.0000 0.0000 0.0000 0.0000 0.0000 13.0197
#
#
#
# Elastic Compliance Matrix: (Units=1/GPa)
#
#
# Indices 1 2 3 4 5 6 
#
# 1 0.025182 -0.013222 -0.010046 0.000000 0.000000 0.000000
# 2 -0.013222 0.025182 -0.010046 0.000000 0.000000 0.000000
# 3 -0.010046 -0.010046 0.039638 0.000000 0.000000 0.000000
# 4 0.000000 0.000000 0.000000 0.052038 0.000000 0.000000
# 5 0.000000 0.000000 0.000000 0.000000 0.052038 0.000000
# 6 0.000000 0.000000 0.000000 0.000000 0.000000 0.076807
#
#
# Mechanical properties :
#
#
# Convention : Reuss Voigt Hill
#
# Bulk Modulus (GPa) = 42.78376 53.64145 48.21261
# Shear Modulus (GPa) = 14.48011 15.75673 15.11842
#
# Velocity S-wave (km/s) = 3.09016 3.22350 3.15753
# Velocity P-wave (km/s) = 6.39893 7.01634 6.71474
#
# Compressibility (1/GPa) = 0.02337335
#
# Stress axis : x y z
#
# Youngs Moduli (GPa) = 39.71145 39.71145 25.22859
#
# Poissons Ratio (x) = 0.52505 0.25345
# Poissons Ratio (y) = 0.52505 0.25345
# Poissons Ratio (z) = 0.39894 0.39894
#
# Static dielectric constant tensor:
#      x y z
#    x 1.512940 0.000000 0.000000 
#    y 0.000000 1.512940 0.000000 
#    z 0.000000 0.000000 1.506270 
# 
# From -- ./inp_files/1178.got.cif
#   From: 2010.05.17/outbox.cif.g08.bks.cpg/sg190_1_cif.got.tgz:1178.got - 2010.05.20 12:16:56.
