data_PCOD9586569
_publ_section_title
;
Structure prediction by ZEFSAII (Michael W. Deem and Ramdas Pophale) SiO2 
 PCOD9586569
Probable space group: P -6 2 M
;
_chemical_formula_sum "Si O2"
_cell_formula_units_Z 44
_cell_length_a 17.450003
_cell_length_b 17.450003
_cell_length_c 8.999568
_cell_angle_alpha 90.000000
_cell_angle_beta 90.000000
_cell_angle_gamma 120.000000
_cell_volume 2373.248999
_symmetry_space_group_name_H-M "P -6 2 M"
_symmetry_group_IT_number 189
_symmetry_cell_setting 'hexagonal'
loop_
_space_group_symop_operation_xyz
x,y,z
-x+y,-x,-z
-y,x-y,z
x,y,-z
-x+y,-x,z
-y,x-y,-z
x-y,-y,-z
-x,-x+y,-z
y,x,-z
y,x,z
x-y,-y,z
-x,-x+y,z
loop_
_atom_site_type_symbol
_atom_site_label
_atom_site_fract_x
_atom_site_fract_y
_atom_site_fract_z
Si Si1 0.662817 0.106155 0.672110
Si Si2 0.179472 0.000000 0.320831
Si Si3 0.491555 0.106646 0.670834
Si Si4 0.152595 0.357998 0.174964
Si Si5 0.000000 0.000000 0.319802
O O1 0.689670 0.133006 0.500000
O O2 0.592158 0.136728 0.714498
O O3 0.747270 0.140846 0.775006
O O4 0.609438 0.000000 0.675074
O O5 0.182973 0.000000 0.500000
O O6 0.182217 0.914721 0.259333
O O7 0.089681 0.000000 0.274795
O O8 0.491768 0.135395 0.500000
O O9 0.435907 0.134119 0.774553
O O10 0.439433 0.000000 0.669298
O O11 0.139936 0.342719 0.000000
O O12 0.000000 0.000000 0.500000
#
# Coordination Sequence:
#
# PCOD9586569 Si02
#       5
#    12   6  12  12   2
#     4   9  20  39  63  87 112 151 203 250 292 350
#     4  11  23  43  67  90 119 162 217 267 308 365
#     4   9  18  37  63  86 109 148 199 246 287 342
#     4  12  24  37  58  93 127 161 197 243 315 377
#     4   9  24  45  67  92 115 156 217 275 310 339
#
# _framework density 18.539985000000001
#
# number of rings (size 3 to 8) (size 9 to 14) (size 15 to 20)
#    0.000    1.909    1.364    4.500    1.909    1.636 
#    1.636    4.773    0.000    0.000    0.000    0.000 
#    0.000    0.000    0.000    0.000    0.000    0.000 
#
# Total GULP energy -245566.760646 kJ/mol
# GULP energy per Si atom -5581.062742 kJ/mol
# Density = 1.849779 g / cm^3
# Si number density = 18.539985 Si / 1000 Ang^3
#
#
#
# Elastic Constant Matrix: (Units=GPa)
#
#
# Indices 1 2 3 4 5 6 
#
# 1 99.0088 53.0119 52.3128 0.0000 0.0000 0.0000
# 2 53.0119 99.0088 52.3128 0.0000 0.0000 0.0000
# 3 52.3128 52.3128 101.9195 0.0000 0.0000 0.0000
# 4 0.0000 0.0000 0.0000 -86.9576 0.0000 0.0000
# 5 0.0000 0.0000 0.0000 0.0000 -86.9576 0.0000
# 6 0.0000 0.0000 0.0000 0.0000 0.0000 22.9984
#
#
#
# Elastic Compliance Matrix: (Units=1/GPa)
#
#
# Indices 1 2 3 4 5 6 
#
# 1 0.015956 -0.005785 -0.005221 0.000000 0.000000 0.000000
# 2 -0.005785 0.015956 -0.005221 0.000000 0.000000 0.000000
# 3 -0.005221 -0.005221 0.015171 0.000000 0.000000 0.000000
# 4 0.000000 0.000000 0.000000 -0.011500 0.000000 0.000000
# 5 0.000000 0.000000 0.000000 0.000000 -0.011500 0.000000
# 6 0.000000 0.000000 0.000000 0.000000 0.000000 0.043481
#
#
# Mechanical properties :
#
#
# Convention : Reuss Voigt Hill
#
# Bulk Modulus (GPa) = 68.34946 68.35687 68.35317
# Shear Modulus (GPa) = 47.66786 -20.69671 13.48557
#
# Velocity S-wave (km/s) = 5.07609 -3.34477 2.69992
# Velocity P-wave (km/s) = 8.44402 4.69397 6.83136
#
# Compressibility (1/GPa) = 0.01463069
#
# Stress axis : x y z
#
# Youngs Moduli (GPa) = 62.67315 62.67315 65.91611
#
# Poissons Ratio (x) = 0.36255 0.34412
# Poissons Ratio (y) = 0.36255 0.34412
# Poissons Ratio (z) = 0.32719 0.32719
#
# Static dielectric constant tensor:
#      x y z
#    x 1.639830 0.000000 0.000000 
#    y 0.000000 1.639830 0.000000 
#    z 0.000000 0.000000 1.620230 
# 
# From -- ./inp_files/588.got.cif
#   From: 2010.05.17/outbox.cif.g08.bks.cpg/sg189_1_cif.got.tgz:588.got - 2010.05.20 12:14:34.
