data_PCOD9586354
_publ_section_title
;
Structure prediction by ZEFSAII (Michael W. Deem and Ramdas Pophale) SiO2 
 PCOD9586354
Probable space group: P -6 2 M
;
_chemical_formula_sum "Si O2"
_cell_formula_units_Z 72
_cell_length_a 24.417182
_cell_length_b 24.417182
_cell_length_c 7.587952
_cell_angle_alpha 90.000000
_cell_angle_beta 90.000000
_cell_angle_gamma 120.000000
_cell_volume 3917.836314
_symmetry_space_group_name_H-M "P -6 2 M"
_symmetry_group_IT_number 189
_symmetry_cell_setting 'hexagonal'
loop_
_space_group_symop_operation_xyz
x,y,z
-x+y,-x,-z
-y,x-y,z
x,y,-z
-x+y,-x,z
-y,x-y,-z
x-y,-y,-z
-x,-x+y,-z
y,x,-z
y,x,z
x-y,-y,z
-x,-x+y,z
loop_
_atom_site_type_symbol
_atom_site_label
_atom_site_fract_x
_atom_site_fract_y
_atom_site_fract_z
Si Si1 0.192091 0.329131 0.709478
Si Si2 0.410605 0.410605 0.710770
Si Si3 0.732203 0.208062 0.786975
Si Si4 0.716118 0.000000 0.716561
Si Si5 0.070657 0.331665 0.289812
Si Si6 0.855149 0.332900 0.213146
Si Si7 0.592748 0.129572 0.791224
O O1 0.183794 0.318248 0.500000
O O2 0.242813 0.403204 0.736202
O O3 0.223729 0.289217 0.776650
O O4 0.125740 0.319161 0.781991
O O5 0.408822 0.408822 0.500000
O O6 0.347651 0.347651 0.772964
O O7 0.474046 0.411790 0.768675
O O8 0.786158 0.277204 0.727248
O O9 0.661324 0.181832 0.720062
O O10 0.730824 0.209194 0.000000
O O11 0.716207 0.000000 0.500000
O O12 0.068013 0.321480 0.500000
O O13 0.095066 0.405922 0.264055
O O14 0.000000 0.288751 0.218422
O O15 0.869484 0.400969 0.279543
O O16 0.855032 0.333554 0.000000
O O17 0.593867 0.141662 0.000000
#
# Coordination Sequence:
#
# PCOD9586354 Si02
#       7
#    12   6  12   6  12  12  12
#     4   9  16  29  47  65  89 114 141 177 215 260
#     4  11  21  31  47  69  91 117 151 186 225 278
#     4   9  17  31  47  63  84 112 147 183 223 268
#     4   9  16  27  45  69  89 113 143 172 215 264
#     4   9  18  31  47  67  89 115 147 183 220 257
#     4   9  19  33  47  64  86 117 152 185 225 272
#     4  10  20  33  47  66  92 118 148 190 236 275
#
# _framework density 18.377490000000002
#
# number of rings (size 3 to 8) (size 9 to 14) (size 15 to 20)
#    0.000    2.667    1.667    0.250    1.167    1.000 
#    1.000    0.417    0.000    0.000    0.000    0.000 
#    0.833    0.000    2.500    0.000    0.000    0.000 
#
# Total GULP energy -401477.913811 kJ/mol
# GULP energy per Si atom -5576.082136 kJ/mol
# Density = 1.833566 g / cm^3
# Si number density = 18.377490 Si / 1000 Ang^3
#
#
#
# Elastic Constant Matrix: (Units=GPa)
#
#
# Indices 1 2 3 4 5 6 
#
# 1 135.0880 91.4383 3.1151 0.0000 0.0000 0.0000
# 2 91.4383 135.0880 3.1151 0.0000 0.0000 0.0000
# 3 3.1151 3.1151 40.5309 0.0000 0.0000 0.0000
# 4 0.0000 0.0000 0.0000 14.5946 0.0000 0.0000
# 5 0.0000 0.0000 0.0000 0.0000 14.5946 0.0000
# 6 0.0000 0.0000 0.0000 0.0000 0.0000 21.8248
#
#
#
# Elastic Compliance Matrix: (Units=1/GPa)
#
#
# Indices 1 2 3 4 5 6 
#
# 1 0.013667 -0.009243 -0.000340 0.000000 0.000000 0.000000
# 2 -0.009243 0.013667 -0.000340 0.000000 0.000000 0.000000
# 3 -0.000340 -0.000340 0.024725 0.000000 0.000000 0.000000
# 4 0.000000 0.000000 0.000000 0.068518 0.000000 0.000000
# 5 0.000000 0.000000 0.000000 0.000000 0.068518 0.000000
# 6 0.000000 0.000000 0.000000 0.000000 0.000000 0.045819
#
#
# Mechanical properties :
#
#
# Convention : Reuss Voigt Hill
#
# Bulk Modulus (GPa) = 31.04385 56.22708 43.63546
# Shear Modulus (GPa) = 18.83254 24.40537 21.61896
#
# Velocity S-wave (km/s) = 3.20466 3.64813 3.43356
# Velocity P-wave (km/s) = 5.53373 6.95753 6.28607
#
# Compressibility (1/GPa) = 0.03221250
#
# Stress axis : x y z
#
# Youngs Moduli (GPa) = 73.17018 73.17018 40.44522
#
# Poissons Ratio (x) = 0.67631 0.01375
# Poissons Ratio (y) = 0.67631 0.01375
# Poissons Ratio (z) = 0.02488 0.02488
#
# Static dielectric constant tensor:
#      x y z
#    x 1.636250 0.000000 0.000000 
#    y 0.000000 1.636250 0.000000 
#    z 0.000000 0.000000 1.700490 
# 
# From -- ./inp_files/1346.got.cif
#   From: 2010.05.17/outbox.cif.g08.bks.cpg/sg189_1_cif.got.tgz:1346.got - 2010.05.20 12:14:34.
