data_PCOD9586396
_publ_section_title
;
Structure prediction by ZEFSAII (Michael W. Deem and Ramdas Pophale) SiO2 
 PCOD9586396
Probable space group: P -6 2 M
;
_chemical_formula_sum "Si O2"
_cell_formula_units_Z 72
_cell_length_a 24.280402
_cell_length_b 24.280402
_cell_length_c 8.387740
_cell_angle_alpha 90.000000
_cell_angle_beta 90.000000
_cell_angle_gamma 120.000000
_cell_volume 4282.401055
_symmetry_space_group_name_H-M "P -6 2 M"
_symmetry_group_IT_number 189
_symmetry_cell_setting 'hexagonal'
loop_
_space_group_symop_operation_xyz
x,y,z
-x+y,-x,-z
-y,x-y,z
x,y,-z
-x+y,-x,z
-y,x-y,-z
x-y,-y,-z
-x,-x+y,-z
y,x,-z
y,x,z
x-y,-y,z
-x,-x+y,z
loop_
_atom_site_type_symbol
_atom_site_label
_atom_site_fract_x
_atom_site_fract_y
_atom_site_fract_z
Si Si1 0.731045 0.207262 0.690779
Si Si2 0.534078 0.406286 0.190756
Si Si3 0.336353 0.071605 0.807524
Si Si4 0.000000 0.591727 0.194351
Si Si5 0.805540 0.139066 0.192350
Si Si6 0.719706 0.000000 0.194777
Si Si7 0.521524 0.665716 0.690696
O O1 0.730352 0.203439 0.500000
O O2 0.660944 0.185403 0.751636
O O3 0.754902 0.160692 0.759421
O O4 0.785342 0.278075 0.738922
O O5 0.471764 0.408675 0.247173
O O6 0.598037 0.466430 0.251523
O O7 0.534297 0.407189 0.000000
O O8 0.320704 0.125808 0.749773
O O9 0.408935 0.095416 0.758898
O O10 0.289981 0.000000 0.750087
O O11 0.333586 0.071039 0.000000
O O12 0.000000 0.655435 0.243768
O O13 0.000000 0.591965 0.000000
O O14 0.779179 0.066889 0.247841
O O15 0.807719 0.138926 0.000000
O O16 0.720652 0.000000 0.000000
O O17 0.525286 0.665726 0.500000
#
# Coordination Sequence:
#
# PCOD9586396 Si02
#       7
#    12  12  12   6  12   6  12
#     4  10  20  35  51  68  94 124 155 197 248 294
#     4  11  21  35  54  73  96 124 161 203 246 295
#     4   9  18  32  50  72  97 127 163 203 241 281
#     4   9  18  30  48  74  98 120 148 195 244 283
#     4   9  16  29  50  71  95 126 159 194 235 285
#     4   9  14  26  48  74  98 122 154 191 236 283
#     4  10  22  37  51  70  95 126 163 202 247 297
#
# _framework density 16.812999000000001
#
# number of rings (size 3 to 8) (size 9 to 14) (size 15 to 20)
#    0.000    2.333    1.667    1.500    1.167    2.333 
#    1.000    2.500    0.000    0.000    0.000    0.000 
#    0.833    0.000    2.500    0.000    0.000    0.000 
#
# Total GULP energy -401550.425683 kJ/mol
# GULP energy per Si atom -5577.089246 kJ/mol
# Density = 1.677473 g / cm^3
# Si number density = 16.812999 Si / 1000 Ang^3
#
#
#
# Elastic Constant Matrix: (Units=GPa)
#
#
# Indices 1 2 3 4 5 6 
#
# 1 116.0642 75.2981 11.3621 0.0000 0.0000 0.0000
# 2 75.2981 116.0642 11.3621 0.0000 0.0000 0.0000
# 3 11.3621 11.3621 11.2795 0.0000 0.0000 0.0000
# 4 0.0000 0.0000 0.0000 8.0245 0.0000 0.0000
# 5 0.0000 0.0000 0.0000 0.0000 8.0245 0.0000
# 6 0.0000 0.0000 0.0000 0.0000 0.0000 20.3831
#
#
#
# Elastic Compliance Matrix: (Units=1/GPa)
#
#
# Indices 1 2 3 4 5 6 
#
# 1 0.015233 -0.009297 -0.005979 0.000000 0.000000 0.000000
# 2 -0.009297 0.015233 -0.005979 0.000000 0.000000 0.000000
# 3 -0.005979 -0.005979 0.100702 0.000000 0.000000 0.000000
# 4 0.000000 0.000000 0.000000 0.124618 0.000000 0.000000
# 5 0.000000 0.000000 0.000000 0.000000 0.124618 0.000000
# 6 0.000000 0.000000 0.000000 0.000000 0.000000 0.049060
#
#
# Mechanical properties :
#
#
# Convention : Reuss Voigt Hill
#
# Bulk Modulus (GPa) = 11.27942 48.82804 30.05373
# Shear Modulus (GPa) = 9.96953 16.97879 13.47416
#
# Velocity S-wave (km/s) = 2.43773 3.18128 2.83400
# Velocity P-wave (km/s) = 3.82710 6.52679 5.35003
#
# Compressibility (1/GPa) = 0.08865702
#
# Stress axis : x y z
#
# Youngs Moduli (GPa) = 65.64717 65.64717 9.93026
#
# Poissons Ratio (x) = 0.61034 0.05937
# Poissons Ratio (y) = 0.61034 0.05937
# Poissons Ratio (z) = 0.39252 0.39252
#
# Static dielectric constant tensor:
#      x y z
#    x 1.569530 0.000000 0.000000 
#    y 0.000000 1.569530 0.000000 
#    z 0.000000 0.000000 1.572690 
# 
# From -- ./inp_files/1306.got.cif
#   From: 2010.05.17/outbox.cif.g08.bks.cpg/sg189_1_cif.got.tgz:1306.got - 2010.05.20 12:14:34.
