data_PCOD9586148
_publ_section_title
;
Structure prediction by ZEFSAII (Michael W. Deem and Ramdas Pophale) SiO2 
 PCOD9586148
Probable space group: P -6 2 M
;
_chemical_formula_sum "Si O2"
_cell_formula_units_Z 72
_cell_length_a 24.397679
_cell_length_b 24.397679
_cell_length_c 7.683643
_cell_angle_alpha 90.000000
_cell_angle_beta 90.000000
_cell_angle_gamma 120.000000
_cell_volume 3960.908737
_symmetry_space_group_name_H-M "P -6 2 M"
_symmetry_group_IT_number 189
_symmetry_cell_setting 'hexagonal'
loop_
_space_group_symop_operation_xyz
x,y,z
-x+y,-x,-z
-y,x-y,z
x,y,-z
-x+y,-x,z
-y,x-y,-z
x-y,-y,-z
-x,-x+y,-z
y,x,-z
y,x,z
x-y,-y,z
-x,-x+y,z
loop_
_atom_site_type_symbol
_atom_site_label
_atom_site_fract_x
_atom_site_fract_y
_atom_site_fract_z
Si Si1 0.333726 0.477396 0.786209
Si Si2 0.336388 0.138821 0.292996
Si Si3 0.282220 0.000000 0.712457
Si Si4 0.592890 0.464482 0.792746
Si Si5 0.268934 0.786260 0.204703
Si Si6 0.929090 0.667242 0.790377
Si Si7 0.590931 0.590931 0.291913
O O1 0.402637 0.530575 0.725805
O O2 0.280459 0.494053 0.726161
O O3 0.309010 0.405148 0.730991
O O4 0.333436 0.476256 0.000000
O O5 0.342434 0.136561 0.500000
O O6 0.407333 0.165752 0.220713
O O7 0.316190 0.190920 0.254603
O O8 0.290648 0.067130 0.230273
O O9 0.280542 0.000000 0.500000
O O10 0.346032 0.000000 0.767767
O O11 0.660691 0.478702 0.719798
O O12 0.589850 0.527814 0.766719
O O13 0.593864 0.454813 0.000000
O O14 0.273846 0.776377 0.000000
O O15 0.000000 0.714009 0.726158
O O16 0.931351 0.666406 0.000000
O O17 0.592634 0.592634 0.500000
#
# Coordination Sequence:
#
# PCOD9586148 Si02
#       7
#    12  12   6  12  12  12   6
#     4   8  16  30  47  66  90 121 155 195 242 285
#     4  10  18  31  50  70  95 125 157 190 229 280
#     4   9  18  31  47  69  97 129 153 182 237 284
#     4  10  19  31  49  70  91 120 162 203 241 293
#     4   9  17  31  47  66  90 119 156 199 246 290
#     4   9  18  33  51  70  97 130 158 191 236 280
#     4  11  21  33  47  67  97 127 155 194 249 294
#
# _framework density 18.177647
#
# number of rings (size 3 to 8) (size 9 to 14) (size 15 to 20)
#    0.000    2.667    1.667    1.750    1.167    0.333 
#    1.000    5.000    0.000    0.000    0.000    0.000 
#    0.833    0.000    0.500    0.000    0.667    0.000 
#
# Total GULP energy -401383.257780 kJ/mol
# GULP energy per Si atom -5574.767469 kJ/mol
# Density = 1.813627 g / cm^3
# Si number density = 18.177647 Si / 1000 Ang^3
#
#
#
# Elastic Constant Matrix: (Units=GPa)
#
#
# Indices 1 2 3 4 5 6 
#
# 1 122.6009 79.8001 -4.0012 0.0000 0.0000 0.0000
# 2 79.8001 122.6009 -4.0012 0.0000 0.0000 0.0000
# 3 -4.0012 -4.0012 27.9570 0.0000 0.0000 0.0000
# 4 0.0000 0.0000 0.0000 24.1552 0.0000 0.0000
# 5 0.0000 0.0000 0.0000 0.0000 24.1552 0.0000
# 6 0.0000 0.0000 0.0000 0.0000 0.0000 21.4004
#
#
#
# Elastic Compliance Matrix: (Units=1/GPa)
#
#
# Indices 1 2 3 4 5 6 
#
# 1 0.014166 -0.009198 0.000711 0.000000 0.000000 0.000000
# 2 -0.009198 0.014166 0.000711 0.000000 0.000000 0.000000
# 3 0.000711 0.000711 0.035973 0.000000 0.000000 0.000000
# 4 0.000000 0.000000 0.000000 0.041399 0.000000 0.000000
# 5 0.000000 0.000000 0.000000 0.000000 0.041399 0.000000
# 6 0.000000 0.000000 0.000000 0.000000 0.000000 0.046728
#
#
# Mechanical properties :
#
#
# Convention : Reuss Voigt Hill
#
# Bulk Modulus (GPa) = 20.51072 46.30601 33.40837
# Shear Modulus (GPa) = 22.15979 27.36625 24.76302
#
# Velocity S-wave (km/s) = 3.49530 3.88427 3.69491
# Velocity P-wave (km/s) = 5.25333 6.75620 6.05160
#
# Compressibility (1/GPa) = 0.04875499
#
# Stress axis : x y z
#
# Youngs Moduli (GPa) = 70.58947 70.58947 27.79876
#
# Poissons Ratio (x) = 0.64925 -0.01977
# Poissons Ratio (y) = 0.64925 -0.01977
# Poissons Ratio (z) = -0.05020 -0.05020
#
# Static dielectric constant tensor:
#      x y z
#    x 1.626490 0.000000 0.000000 
#    y 0.000000 1.626490 0.000000 
#    z 0.000000 0.000000 1.685570 
# 
# From -- ./inp_files/1322.got.cif
#   From: 2010.05.17/outbox.cif.g08.bks.cpg/sg189_1_cif.got.tgz:1322.got - 2010.05.20 12:14:34.
