data_PCOD9586961
_publ_section_title
;
Structure prediction by ZEFSAII (Michael W. Deem and Ramdas Pophale) SiO2 
 PCOD9586961
Probable space group: P -6 2 C
;
_chemical_formula_sum "Si O2"
_cell_formula_units_Z 30
_cell_length_a 15.920348
_cell_length_b 15.920348
_cell_length_c 7.851713
_cell_angle_alpha 90.000000
_cell_angle_beta 90.000000
_cell_angle_gamma 120.000000
_cell_volume 1723.455847
_symmetry_space_group_name_H-M "P -6 2 C"
_symmetry_group_IT_number 190
_symmetry_cell_setting 'hexagonal'
loop_
_space_group_symop_operation_xyz
x,y,z
-x+y,-x,1/2-z
-y,x-y,z
x,y,1/2-z
-x+y,-x,z
-y,x-y,1/2-z
x-y,-y,-z
-x,-x+y,-z
y,x,-z
y,x,1/2+z
x-y,-y,1/2+z
-x,-x+y,1/2+z
loop_
_atom_site_type_symbol
_atom_site_label
_atom_site_fract_x
_atom_site_fract_y
_atom_site_fract_z
Si Si1 0.679462 0.448773 0.750000
Si Si2 0.887634 0.297895 0.054900
Si Si3 0.110218 0.220998 0.451528
O O1 0.762468 0.418435 0.750000
O O2 0.687015 0.509406 0.582554
O O3 0.874190 0.318589 0.250000
O O4 0.867405 0.187919 0.041099
O O5 0.000000 0.364394 0.000000
O O6 0.113503 0.237726 0.250000
O O7 0.181267 0.181267 0.500000
O O8 0.000000 0.141662 0.500000
#
# Coordination Sequence:
#
# PCOD9586961 Si02
#       3
#     6  12  12
#     4  10  24  44  66  90 128 154 198 262 304 358
#     4  11  20  39  68  92 120 166 205 246 306 369
#     4  11  20  33  53  85 125 166 206 251 301 364
#
# _framework density 17.406887000000001
#
# number of rings (size 3 to 8) (size 9 to 14) (size 15 to 20)
#    0.400    0.800    4.000    6.400    0.000    1.600 
#    0.000    2.000    0.000    0.000    0.000    0.000 
#    0.000    0.000    0.000    0.000    0.000    0.000 
#
# Total GULP energy -167472.463744 kJ/mol
# GULP energy per Si atom -5582.415458 kJ/mol
# Density = 1.736727 g / cm^3
# Si number density = 17.406887 Si / 1000 Ang^3
#
#
#
# Elastic Constant Matrix: (Units=GPa)
#
#
# Indices 1 2 3 4 5 6 
#
# 1 100.5595 61.2822 54.1057 0.0000 0.0000 0.0000
# 2 61.2822 100.5595 54.1057 0.0000 0.0000 0.0000
# 3 54.1057 54.1057 182.5156 0.0000 0.0000 0.0000
# 4 0.0000 0.0000 0.0000 10.2792 0.0000 0.0000
# 5 0.0000 0.0000 0.0000 0.0000 10.2792 0.0000
# 6 0.0000 0.0000 0.0000 0.0000 0.0000 19.6386
#
#
#
# Elastic Compliance Matrix: (Units=1/GPa)
#
#
# Indices 1 2 3 4 5 6 
#
# 1 0.016583 -0.008877 -0.002285 0.000000 0.000000 0.000000
# 2 -0.008877 0.016583 -0.002285 0.000000 0.000000 0.000000
# 3 -0.002285 -0.002285 0.006833 0.000000 0.000000 0.000000
# 4 0.000000 0.000000 0.000000 0.097284 0.000000 0.000000
# 5 0.000000 0.000000 0.000000 0.000000 0.097284 0.000000
# 6 0.000000 0.000000 0.000000 0.000000 0.000000 0.050920
#
#
# Mechanical properties :
#
#
# Convention : Reuss Voigt Hill
#
# Bulk Modulus (GPa) = 76.28854 80.29132 78.28993
# Shear Modulus (GPa) = 15.78541 22.31547 19.05044
#
# Velocity S-wave (km/s) = 3.01466 3.58437 3.31179
# Velocity P-wave (km/s) = 7.48594 7.95969 7.72645
#
# Compressibility (1/GPa) = 0.01310813
#
# Stress axis : x y z
#
# Youngs Moduli (GPa) = 60.30201 60.30201 146.33912
#
# Poissons Ratio (x) = 0.53529 0.33431
# Poissons Ratio (y) = 0.53529 0.33431
# Poissons Ratio (z) = 0.13776 0.13776
#
# Static dielectric constant tensor:
#      x y z
#    x 1.578690 0.000000 0.000000 
#    y 0.000000 1.578690 0.000000 
#    z 0.000000 0.000000 1.595410 
# 
# From -- ./inp_files/340.got.cif
#   From: 2010.05.17/outbox.cif.g08.bks.cpg/sg190_1_cif.got.tgz:340.got - 2010.05.20 12:16:56.
