data_PCOD9586058
_publ_section_title
;
Structure prediction by ZEFSAII (Michael W. Deem and Ramdas Pophale) SiO2 
 PCOD9586058
Probable space group: P -6 C 2
;
_chemical_formula_sum "Si O2"
_cell_formula_units_Z 42
_cell_length_a 13.712508
_cell_length_b 13.712508
_cell_length_c 11.034015
_cell_angle_alpha 90.000000
_cell_angle_beta 90.000000
_cell_angle_gamma 120.000000
_cell_volume 1796.792763
_symmetry_space_group_name_H-M "P -6 C 2"
_symmetry_group_IT_number 188
_symmetry_cell_setting 'hexagonal'
loop_
_space_group_symop_operation_xyz
x,y,z
-x+y,-x,1/2-z
-y,x-y,z
x,y,1/2-z
-x+y,-x,z
-y,x-y,1/2-z
-y,-x,-z
-x+y,y,-z
x,x-y,-z
-x+y,y,1/2+z
x,x-y,1/2+z
-y,-x,1/2+z
loop_
_atom_site_type_symbol
_atom_site_label
_atom_site_fract_x
_atom_site_fract_y
_atom_site_fract_z
Si Si1 0.445884 0.150659 0.387711
Si Si2 0.138658 0.108357 0.250000
Si Si3 0.451860 0.956521 0.623388
Si Si4 0.024089 0.271655 0.536677
O O1 0.451746 0.195433 0.250000
O O2 0.479351 0.239676 0.500000
O O3 0.509698 0.077826 0.382052
O O4 0.320100 0.052403 0.424126
O O5 0.199554 0.166612 0.373277
O O6 0.091597 0.976051 0.250000
O O7 0.455706 0.903437 0.750000
O O8 0.446917 0.893834 0.500000
O O9 0.343009 0.969037 0.614735
O O10 0.145059 0.290117 0.500000
#
# Coordination Sequence:
#
# PCOD9586058 Si02
#       4
#    12   6  12  12
#     4  10  24  40  69 105 147 190 240 295 359 428
#     4  10  26  42  64 100 150 186 240 288 352 432
#     4   9  19  41  66 101 135 182 234 286 350 418
#     4  11  24  39  71 102 144 191 237 291 362 426
#
# _framework density 23.374984000000001
#
# number of rings (size 3 to 8) (size 9 to 14) (size 15 to 20)
#    0.286    1.714    1.429    0.000    8.000    1.143 
#    0.000    0.000    0.000   30.857    0.000    0.000 
#    0.000    0.000    0.000    0.000    0.000    0.000 
#
# Total GULP energy -234202.259928 kJ/mol
# GULP energy per Si atom -5576.244284 kJ/mol
# Density = 2.332178 g / cm^3
# Si number density = 23.374984 Si / 1000 Ang^3
#
#
#
# Elastic Constant Matrix: (Units=GPa)
#
#
# Indices 1 2 3 4 5 6 
#
# 1 80.1591 23.2292 21.5391 0.0002 0.0000 0.0000
# 2 23.2292 80.1591 21.5391 -0.0002 0.0000 0.0000
# 3 21.5391 21.5391 218.7776 0.0000 0.0000 0.0000
# 4 0.0002 -0.0002 0.0000 24.4762 0.0000 0.0000
# 5 0.0000 0.0000 0.0000 0.0000 24.4762 0.0002
# 6 0.0000 0.0000 0.0000 0.0000 0.0002 28.4649
#
#
#
# Elastic Compliance Matrix: (Units=1/GPa)
#
#
# Indices 1 2 3 4 5 6 
#
# 1 0.013826 -0.003740 -0.000993 0.000000 0.000000 0.000000
# 2 -0.003740 0.013826 -0.000993 0.000000 0.000000 0.000000
# 3 -0.000993 -0.000993 0.004766 0.000000 0.000000 0.000000
# 4 0.000000 0.000000 0.000000 0.040856 0.000000 0.000000
# 5 0.000000 0.000000 0.000000 0.000000 0.040856 0.000000
# 6 0.000000 0.000000 0.000000 0.000000 0.000000 0.035131
#
#
# Mechanical properties :
#
#
# Convention : Reuss Voigt Hill
#
# Bulk Modulus (GPa) = 47.69525 56.85675 52.27600
# Shear Modulus (GPa) = 29.81492 36.33599 33.07546
#
# Velocity S-wave (km/s) = 3.57530 3.94697 3.76572
# Velocity P-wave (km/s) = 6.12310 6.71923 6.42808
#
# Compressibility (1/GPa) = 0.02096645
#
# Stress axis : x y z
#
# Youngs Moduli (GPa) = 72.32881 72.32881 209.80297
#
# Poissons Ratio (x) = 0.27049 0.20833
# Poissons Ratio (y) = 0.27049 0.20833
# Poissons Ratio (z) = 0.07182 0.07182
#
# Static dielectric constant tensor:
#      x y z
#    x 1.902310 0.000000 0.000000 
#    y 0.000000 1.902310 0.000000 
#    z 0.000000 0.000000 1.915400 
# 
# From -- ./inp_files/1515.got.cif
#   From: 2010.05.17/outbox.cif.g08.bks.cpg/sg188_1_cif.got.tgz:1515.got - 2010.05.20 12:11:46.
