data_PCOD9586494
_publ_section_title
;
Structure prediction by ZEFSAII (Michael W. Deem and Ramdas Pophale) SiO2 
 PCOD9586494
Probable space group: P -6 2 M
;
_chemical_formula_sum "Si O2"
_cell_formula_units_Z 66
_cell_length_a 21.542467
_cell_length_b 21.542467
_cell_length_c 8.524899
_cell_angle_alpha 90.000000
_cell_angle_beta 90.000000
_cell_angle_gamma 120.000000
_cell_volume 3426.184505
_symmetry_space_group_name_H-M "P -6 2 M"
_symmetry_group_IT_number 189
_symmetry_cell_setting 'hexagonal'
loop_
_space_group_symop_operation_xyz
x,y,z
-x+y,-x,-z
-y,x-y,z
x,y,-z
-x+y,-x,z
-y,x-y,-z
x-y,-y,-z
-x,-x+y,-z
y,x,-z
y,x,z
x-y,-y,z
-x,-x+y,z
loop_
_atom_site_type_symbol
_atom_site_label
_atom_site_fract_x
_atom_site_fract_y
_atom_site_fract_z
Si Si1 0.913672 0.790796 0.328876
Si Si2 0.266377 0.506326 0.810419
Si Si3 0.160418 0.565369 0.810927
Si Si4 0.081559 0.923396 0.000000
Si Si5 0.250027 0.371551 0.677518
Si Si6 0.613477 0.000000 0.174501
Si Si7 0.485074 0.000000 0.679377
O O1 0.888218 0.801679 0.500000
O O2 0.896134 0.709432 0.322635
O O3 0.000000 0.842585 0.329368
O O4 0.885708 0.803841 0.165004
O O5 0.220989 0.544795 0.767843
O O6 0.350746 0.545060 0.762056
O O7 0.228101 0.428621 0.731586
O O8 0.265295 0.501363 0.000000
O O9 0.079539 0.509450 0.751053
O O10 0.155632 0.564536 0.000000
O O11 0.000000 0.859920 0.000000
O O12 0.087012 0.000000 0.000000
O O13 0.279338 0.387757 0.500000
O O14 0.310196 0.378970 0.797459
O O15 0.559261 0.000000 0.299847
O O16 0.586059 0.000000 0.000000
O O17 0.464833 0.000000 0.500000
#
# Coordination Sequence:
#
# PCOD9586494 Si02
#       7
#    12  12  12   6  12   6   6
#     4   9  19  34  54  82 116 149 181 228 288 341
#     4  10  21  36  59  85 114 153 196 243 296 351
#     4  10  21  39  60  86 118 156 201 250 300 363
#     4  10  21  36  58  84 114 148 188 230 276 336
#     4  11  21  34  55  86 119 147 182 235 294 351
#     4  12  22  32  56  88 118 148 186 236 293 358
#     4  12  24  38  58  86 120 160 198 244 303 364
#
# _framework density 19.263411000000001
#
# number of rings (size 3 to 8) (size 9 to 14) (size 15 to 20)
#    0.000    1.636    2.727    2.636    2.545    2.545 
#    0.000    0.000    2.000    3.273    0.000    0.000 
#    0.000    0.000    0.000    0.000    0.000    0.000 
#
# Total GULP energy -367605.419068 kJ/mol
# GULP energy per Si atom -5569.779077 kJ/mol
# Density = 1.921957 g / cm^3
# Si number density = 19.263411 Si / 1000 Ang^3
#
#
#
# Elastic Constant Matrix: (Units=GPa)
#
#
# Indices 1 2 3 4 5 6 
#
# 1 58.4852 13.6256 18.0775 0.0000 0.0000 0.0000
# 2 13.6256 58.4852 18.0775 0.0000 0.0000 0.0000
# 3 18.0775 18.0775 90.8598 0.0000 0.0000 0.0000
# 4 0.0000 0.0000 0.0000 14.2235 0.0000 0.0000
# 5 0.0000 0.0000 0.0000 0.0000 14.2235 0.0000
# 6 0.0000 0.0000 0.0000 0.0000 0.0000 22.4298
#
#
#
# Elastic Compliance Matrix: (Units=1/GPa)
#
#
# Indices 1 2 3 4 5 6 
#
# 1 0.018848 -0.003444 -0.003065 0.000000 0.000000 0.000000
# 2 -0.003444 0.018848 -0.003065 0.000000 0.000000 0.000000
# 3 -0.003065 -0.003065 0.012226 0.000000 0.000000 0.000000
# 4 0.000000 0.000000 0.000000 0.070306 0.000000 0.000000
# 5 0.000000 0.000000 0.000000 0.000000 0.070306 0.000000
# 6 0.000000 0.000000 0.000000 0.000000 0.000000 0.044584
#
#
# Mechanical properties :
#
#
# Convention : Reuss Voigt Hill
#
# Bulk Modulus (GPa) = 32.49430 34.15459 33.32444
# Shear Modulus (GPa) = 18.90197 20.71200 19.80699
#
# Velocity S-wave (km/s) = 3.13587 3.28258 3.21006
# Velocity P-wave (km/s) = 5.47874 5.66885 5.57461
#
# Compressibility (1/GPa) = 0.03077463
#
# Stress axis : x y z
#
# Youngs Moduli (GPa) = 53.05609 53.05609 81.79611
#
# Poissons Ratio (x) = 0.18271 0.25069
# Poissons Ratio (y) = 0.18271 0.25069
# Poissons Ratio (z) = 0.16261 0.16261
#
# Static dielectric constant tensor:
#      x y z
#    x 1.672320 0.000000 0.000000 
#    y 0.000000 1.672320 0.000000 
#    z 0.000000 0.000000 1.718330 
# 
# From -- ./inp_files/1091.got.cif
#   From: 2010.05.17/outbox.cif.g08.bks.cpg/sg189_1_cif.got.tgz:1091.got - 2010.05.20 12:14:34.
