data_PCOD9586992
_publ_section_title
;
Structure prediction by ZEFSAII (Michael W. Deem and Ramdas Pophale) SiO2 
 PCOD9586992
Probable space group: P -6 2 C
;
_chemical_formula_sum "Si O2"
_cell_formula_units_Z 84
_cell_length_a 18.205819
_cell_length_b 18.205819
_cell_length_c 14.688857
_cell_angle_alpha 90.000000
_cell_angle_beta 90.000000
_cell_angle_gamma 120.000000
_cell_volume 4216.373509
_symmetry_space_group_name_H-M "P -6 2 C"
_symmetry_group_IT_number 190
_symmetry_cell_setting 'hexagonal'
loop_
_space_group_symop_operation_xyz
x,y,z
-x+y,-x,1/2-z
-y,x-y,z
x,y,1/2-z
-x+y,-x,z
-y,x-y,1/2-z
x-y,-y,-z
-x,-x+y,-z
y,x,-z
y,x,1/2+z
x-y,-y,1/2+z
-x,-x+y,1/2+z
loop_
_atom_site_type_symbol
_atom_site_label
_atom_site_fract_x
_atom_site_fract_y
_atom_site_fract_z
Si Si1 0.797431 0.676820 0.645219
Si Si2 0.813768 0.318520 0.589752
Si Si3 0.038970 0.612233 0.642628
Si Si4 0.697727 0.768122 0.643351
Si Si5 0.348613 0.507276 0.147505
Si Si6 0.470547 0.076031 0.425780
Si Si7 0.094541 0.777867 0.522205
O O1 0.825691 0.690373 0.750000
O O2 0.712023 0.586774 0.633572
O O3 0.771180 0.746180 0.618278
O O4 0.860198 0.667797 0.576061
O O5 0.826586 0.398565 0.645643
O O6 0.721671 0.236643 0.591101
O O7 0.840395 0.349517 0.487456
O O8 0.048064 0.636262 0.750000
O O9 0.070972 0.544718 0.627594
O O10 0.082008 0.693951 0.576171
O O11 0.937964 0.557831 0.620222
O O12 0.705545 0.788096 0.750000
O O13 0.608006 0.681522 0.626664
O O14 0.701812 0.844427 0.585613
O O15 0.314141 0.483792 0.250000
O O16 0.433803 0.000000 0.500000
O O17 0.000000 0.757872 0.500000
#
# Coordination Sequence:
#
# PCOD9586992 Si02
#       7
#    12  12  12  12  12  12  12
#     4  11  23  42  69  98 129 167 218 277 339 399
#     4  12  23  37  61  92 131 172 217 267 333 384
#     4  11  25  43  64  93 133 185 232 278 334 400
#     4  11  23  43  70  99 129 172 223 279 334 403
#     4  11  23  39  59  92 134 175 218 270 330 391
#     4  12  21  39  65  92 129 173 226 276 324 387
#     4  12  25  42  67  97 135 171 218 276 339 402
#
# _framework density 19.922332000000001
#
# number of rings (size 3 to 8) (size 9 to 14) (size 15 to 20)
#    0.000    0.571    4.286    4.143    2.000    4.571 
#    0.000    0.000    0.000    2.286    0.000    2.000 
#    0.000    0.000    0.000    0.000    0.000    0.000 
#
# Total GULP energy -469190.123729 kJ/mol
# GULP energy per Si atom -5585.596711 kJ/mol
# Density = 1.987699 g / cm^3
# Si number density = 19.922332 Si / 1000 Ang^3
#
#
#
# Elastic Constant Matrix: (Units=GPa)
#
#
# Indices 1 2 3 4 5 6 
#
# 1 123.3600 63.0750 53.9277 0.0000 0.0000 0.0000
# 2 63.0750 123.3600 53.9277 0.0000 0.0000 0.0000
# 3 53.9277 53.9277 117.2133 0.0000 0.0000 0.0000
# 4 0.0000 0.0000 0.0000 24.0199 0.0000 0.0000
# 5 0.0000 0.0000 0.0000 0.0000 24.0199 0.0000
# 6 0.0000 0.0000 0.0000 0.0000 0.0000 30.1425
#
#
#
# Elastic Compliance Matrix: (Units=1/GPa)
#
#
# Indices 1 2 3 4 5 6 
#
# 1 0.011949 -0.004639 -0.003363 0.000000 0.000000 0.000000
# 2 -0.004639 0.011949 -0.003363 0.000000 0.000000 0.000000
# 3 -0.003363 -0.003363 0.011626 0.000000 0.000000 0.000000
# 4 0.000000 0.000000 0.000000 0.041632 0.000000 0.000000
# 5 0.000000 0.000000 0.000000 0.000000 0.041632 0.000000
# 6 0.000000 0.000000 0.000000 0.000000 0.000000 0.033176
#
#
# Mechanical properties :
#
#
# Convention : Reuss Voigt Hill
#
# Bulk Modulus (GPa) = 78.16820 78.42157 78.29489
# Shear Modulus (GPa) = 27.93961 28.50331 28.22146
#
# Velocity S-wave (km/s) = 3.74896 3.78659 3.76782
# Velocity P-wave (km/s) = 7.61979 7.65290 7.63636
#
# Compressibility (1/GPa) = 0.01279293
#
# Stress axis : x y z
#
# Youngs Moduli (GPa) = 83.69201 83.69201 86.01534
#
# Poissons Ratio (x) = 0.38827 0.28926
# Poissons Ratio (y) = 0.38827 0.28926
# Poissons Ratio (z) = 0.28144 0.28144
#
# Static dielectric constant tensor:
#      x y z
#    x 1.726090 0.000000 0.000000 
#    y 0.000000 1.726090 0.000000 
#    z 0.000000 0.000000 1.751370 
# 
# From -- ./inp_files/3180.got.cif
#   From: 2010.05.17/outbox.cif.g08.bks.cpg/sg190_2_cif.got.tgz:3180.got - 2010.05.20 12:16:56.
