data_PCOD9586417
_publ_section_title
;
Structure prediction by ZEFSAII (Michael W. Deem and Ramdas Pophale) SiO2 
 PCOD9586417
Probable space group: P -6 2 M
;
_chemical_formula_sum "Si O2"
_cell_formula_units_Z 52
_cell_length_a 14.828790
_cell_length_b 14.828790
_cell_length_c 14.417966
_cell_angle_alpha 90.000000
_cell_angle_beta 90.000000
_cell_angle_gamma 120.000000
_cell_volume 2745.655586
_symmetry_space_group_name_H-M "P -6 2 M"
_symmetry_group_IT_number 189
_symmetry_cell_setting 'hexagonal'
loop_
_space_group_symop_operation_xyz
x,y,z
-x+y,-x,-z
-y,x-y,z
x,y,-z
-x+y,-x,z
-y,x-y,-z
x-y,-y,-z
-x,-x+y,-z
y,x,-z
y,x,z
x-y,-y,z
-x,-x+y,z
loop_
_atom_site_type_symbol
_atom_site_label
_atom_site_fract_x
_atom_site_fract_y
_atom_site_fract_z
Si Si1 0.881029 0.644574 0.778677
Si Si2 0.433782 0.123381 0.896703
Si Si3 0.877312 0.125538 0.398449
Si Si4 0.436234 0.880475 0.281162
Si Si5 0.666668 0.333334 0.610437
O O1 0.809267 0.622793 0.867161
O O2 0.837471 0.678364 0.690635
O O3 0.881437 0.541513 0.746689
O O4 0.000000 0.731835 0.796088
O O5 0.513282 0.142360 0.813684
O O6 0.353413 0.000000 0.896264
O O7 0.479921 0.151574 0.000000
O O8 0.854418 0.156027 0.500000
O O9 0.000000 0.170029 0.393462
O O10 0.815421 0.000000 0.395858
O O11 0.374180 0.783878 0.350624
O O12 0.472951 0.000000 0.312563
O O13 0.666667 0.333334 0.500000
#
# Coordination Sequence:
#
# PCOD9586417 Si02
#       5
#    12  12  12  12   4
#     4  10  20  35  58  85 114 148 188 239 294 347
#     4  10  21  38  60  84 115 154 193 239 294 349
#     4   9  17  30  51  80 115 155 196 236 280 335
#     4  10  22  42  61  85 120 154 198 245 289 351
#     4  12  24  42  67  92 121 162 201 237 304 362
#
# _framework density 18.939011000000001
#
# number of rings (size 3 to 8) (size 9 to 14) (size 15 to 20)
#    0.000    2.077    2.308    0.923    0.000    3.692 
#    0.000    4.615    0.000    0.462    0.000    0.000 
#    0.000    0.000    0.000    0.000    0.000    0.000 
#
# Total GULP energy -290004.532527 kJ/mol
# GULP energy per Si atom -5577.010241 kJ/mol
# Density = 1.889591 g / cm^3
# Si number density = 18.939011 Si / 1000 Ang^3
#
#
#
# Elastic Constant Matrix: (Units=GPa)
#
#
# Indices 1 2 3 4 5 6 
#
# 1 61.6237 9.0094 51.9741 0.0000 -0.0001 0.0000
# 2 9.0094 61.6231 51.9738 0.0000 0.0000 0.0000
# 3 51.9741 51.9738 127.7026 0.0001 -0.0001 -0.0001
# 4 0.0000 0.0000 0.0001 22.4908 0.0000 0.0000
# 5 -0.0001 0.0000 -0.0001 0.0000 22.4909 0.0000
# 6 0.0000 0.0000 -0.0001 0.0000 0.0000 26.3071
#
#
#
# Elastic Compliance Matrix: (Units=1/GPa)
#
#
# Indices 1 2 3 4 5 6 
#
# 1 0.027154 0.008148 -0.014368 0.000000 0.000000 0.000000
# 2 0.008148 0.027154 -0.014368 0.000000 0.000000 0.000000
# 3 -0.014368 -0.014368 0.019526 0.000000 0.000000 0.000000
# 4 0.000000 0.000000 0.000000 0.044463 0.000000 0.000000
# 5 0.000000 0.000000 0.000000 0.000000 0.044462 0.000000
# 6 0.000000 0.000000 0.000000 0.000000 0.000000 0.038013
#
#
# Mechanical properties :
#
#
# Convention : Reuss Voigt Hill
#
# Bulk Modulus (GPa) = 30.61910 52.98490 41.80200
# Shear Modulus (GPa) = 19.77587 23.45724 21.61655
#
# Velocity S-wave (km/s) = 3.23489 3.52315 3.38209
# Velocity P-wave (km/s) = 5.49136 6.67738 6.11320
#
# Compressibility (1/GPa) = 0.03265935
#
# Stress axis : x y z
#
# Youngs Moduli (GPa) = 36.82674 36.82642 51.21430
#
# Poissons Ratio (x) = -0.30006 0.73583
# Poissons Ratio (y) = -0.30006 0.73583
# Poissons Ratio (z) = 0.52912 0.52911
#
# Static dielectric constant tensor:
#      x y z
#    x 1.650370 0.000000 0.000000 
#    y 0.000000 1.650370 0.000000 
#    z 0.000000 0.000000 1.653380 
# 
# From -- ./inp_files/2453.got.cif
#   From: 2010.05.17/outbox.cif.g08.bks.cpg/sg189_2_cif.got.tgz:2453.got - 2010.05.20 12:14:34.
