data_PCOD9586090
_publ_section_title
;
Structure prediction by ZEFSAII (Michael W. Deem and Ramdas Pophale) SiO2 
 PCOD9586090
Probable space group: P -6 C 2
;
_chemical_formula_sum "Si O2"
_cell_formula_units_Z 54
_cell_length_a 15.726660
_cell_length_b 15.726660
_cell_length_c 13.861125
_cell_angle_alpha 90.000000
_cell_angle_beta 90.000000
_cell_angle_gamma 120.000000
_cell_volume 2968.944691
_symmetry_space_group_name_H-M "P -6 C 2"
_symmetry_group_IT_number 188
_symmetry_cell_setting 'hexagonal'
loop_
_space_group_symop_operation_xyz
x,y,z
-x+y,-x,1/2-z
-y,x-y,z
x,y,1/2-z
-x+y,-x,z
-y,x-y,1/2-z
-y,-x,-z
-x+y,y,-z
x,x-y,-z
-x+y,y,1/2+z
x,x-y,1/2+z
-y,-x,1/2+z
loop_
_atom_site_type_symbol
_atom_site_label
_atom_site_fract_x
_atom_site_fract_y
_atom_site_fract_z
Si Si1 0.703862 0.163823 0.632713
Si Si2 0.323304 0.378426 0.638160
Si Si3 0.219278 0.780723 0.000000
Si Si4 0.396674 0.898535 0.636683
Si Si5 0.630824 0.119936 0.367259
O O1 0.705354 0.167438 0.750000
O O2 0.801811 0.260353 0.600578
O O3 0.601987 0.158567 0.604436
O O4 0.687418 0.057579 0.607258
O O5 0.295251 0.358378 0.750000
O O6 0.239124 0.370764 0.571113
O O7 0.407118 0.494407 0.631802
O O8 0.183683 0.684445 0.067488
O O9 0.366502 0.880520 0.750000
O O10 0.418305 0.006781 0.604437
O O11 0.628650 0.117122 0.250000
#
# Coordination Sequence:
#
# PCOD9586090 Si02
#       5
#    12  12   6  12  12
#     4   8  13  24  46  75 106 135 159 186 227 285
#     4   9  19  34  49  70  99 126 161 209 246 284
#     4  12  20  32  50  62  86 132 170 200 250 292
#     4   9  19  34  49  70  99 126 161 209 246 284
#     4   8  13  24  46  75 106 135 159 186 227 285
#
# _framework density 18.188281
#
# number of rings (size 3 to 8) (size 9 to 14) (size 15 to 20)
#    0.000    3.111    0.000    4.444    0.000    1.778 
#    5.333    1.111    0.000    0.000    0.000    3.111 
#    8.889    0.000    8.000    0.000    0.000    0.889 
#
# Total GULP energy -301283.405328 kJ/mol
# GULP energy per Si atom -5579.322321 kJ/mol
# Density = 1.814688 g / cm^3
# Si number density = 18.188281 Si / 1000 Ang^3
#
#
#
# Elastic Constant Matrix: (Units=GPa)
#
#
# Indices 1 2 3 4 5 6 
#
# 1 88.4468 38.0657 32.1040 -0.0001 0.0000 0.0000
# 2 38.0657 88.4468 32.1040 0.0001 0.0000 0.0000
# 3 32.1040 32.1040 86.1348 0.0000 0.0000 0.0000
# 4 -0.0001 0.0001 0.0000 4.5215 0.0000 0.0000
# 5 0.0000 0.0000 0.0000 0.0000 4.5215 -0.0001
# 6 0.0000 0.0000 0.0000 0.0000 -0.0001 25.1905
#
#
#
# Elastic Compliance Matrix: (Units=1/GPa)
#
#
# Indices 1 2 3 4 5 6 
#
# 1 0.014799 -0.005050 -0.003633 0.000001 0.000000 0.000000
# 2 -0.005050 0.014799 -0.003633 -0.000001 0.000000 0.000000
# 3 -0.003633 -0.003633 0.014318 0.000000 0.000000 0.000000
# 4 0.000001 -0.000001 0.000000 0.221164 0.000000 0.000000
# 5 0.000000 0.000000 0.000000 0.000000 0.221164 0.000001
# 6 0.000000 0.000000 0.000000 0.000000 0.000001 0.039697
#
#
# Mechanical properties :
#
#
# Convention : Reuss Voigt Hill
#
# Bulk Modulus (GPa) = 51.86356 51.95285 51.90820
# Shear Modulus (GPa) = 8.97662 17.56369 13.27016
#
# Velocity S-wave (km/s) = 2.22398 3.11088 2.70404
# Velocity P-wave (km/s) = 5.93056 6.44433 6.19277
#
# Compressibility (1/GPa) = 0.01928136
#
# Stress axis : x y z
#
# Youngs Moduli (GPa) = 67.57411 67.57411 69.84134
#
# Poissons Ratio (x) = 0.34126 0.25376
# Poissons Ratio (y) = 0.34126 0.25376
# Poissons Ratio (z) = 0.24552 0.24552
#
# Static dielectric constant tensor:
#      x y z
#    x 1.618370 0.000000 0.000000 
#    y 0.000000 1.618370 0.000000 
#    z 0.000000 0.000000 1.726850 
# 
# From -- ./inp_files/2196.got.cif
#   From: 2010.05.17/outbox.cif.g08.bks.cpg/sg188_2_cif.got.tgz:2196.got - 2010.05.20 12:11:46.
