data_PCOD9586207
_publ_section_title
;
Structure prediction by ZEFSAII (Michael W. Deem and Ramdas Pophale) SiO2 
 PCOD9586207
Probable space group: P -6 2 M
;
_chemical_formula_sum "Si O2"
_cell_formula_units_Z 66
_cell_length_a 23.685973
_cell_length_b 23.685973
_cell_length_c 7.981178
_cell_angle_alpha 90.000000
_cell_angle_beta 90.000000
_cell_angle_gamma 120.000000
_cell_volume 3877.752515
_symmetry_space_group_name_H-M "P -6 2 M"
_symmetry_group_IT_number 189
_symmetry_cell_setting 'hexagonal'
loop_
_space_group_symop_operation_xyz
x,y,z
-x+y,-x,-z
-y,x-y,z
x,y,-z
-x+y,-x,z
-y,x-y,-z
x-y,-y,-z
-x,-x+y,-z
y,x,-z
y,x,z
x-y,-y,z
-x,-x+y,z
loop_
_atom_site_type_symbol
_atom_site_label
_atom_site_fract_x
_atom_site_fract_y
_atom_site_fract_z
Si Si1 0.838282 0.076591 0.690054
Si Si2 0.234991 0.384654 0.196849
Si Si3 0.478804 0.737283 0.804738
Si Si4 0.810539 0.406932 0.695183
Si Si5 0.922173 0.077537 0.000000
Si Si6 0.383073 0.457259 0.703160
O O1 0.863848 0.083759 0.500000
O O2 0.806291 0.122031 0.713068
O O3 0.890894 0.090756 0.834670
O O4 0.783218 0.000000 0.711213
O O5 0.228410 0.446598 0.256097
O O6 0.311636 0.411008 0.223141
O O7 0.218886 0.373748 0.000000
O O8 0.431717 0.758486 0.714331
O O9 0.448442 0.660647 0.786046
O O10 0.479379 0.754091 0.000000
O O11 0.817243 0.396254 0.500000
O O12 0.877269 0.468779 0.757262
O O13 0.000000 0.119364 0.000000
O O14 0.896551 0.000000 0.000000
O O15 0.376257 0.455428 0.500000
O O16 0.430905 0.430905 0.748593
#
# Coordination Sequence:
#
# PCOD9586207 Si02
#       6
#    12  12  12  12   6  12
#     4  10  20  34  55  83 114 145 176 215 263 312
#     4  10  19  31  49  75 103 134 171 214 262 311
#     4  10  20  32  47  67  96 130 169 215 263 311
#     4  10  19  31  47  67  92 125 165 205 254 309
#     4  10  21  38  60  86 116 146 178 212 252 304
#     4   9  18  31  47  69  97 127 159 201 254 310
#
# _framework density 17.020168999999999
#
# number of rings (size 3 to 8) (size 9 to 14) (size 15 to 20)
#    0.000    2.182    0.909    2.636    0.000    5.818 
#    0.000    0.000    0.000    2.182    0.000    2.545 
#    0.000    0.000    0.000    0.000    0.000    0.000 
#
# Total GULP energy -368133.753098 kJ/mol
# GULP energy per Si atom -5577.784138 kJ/mol
# Density = 1.698143 g / cm^3
# Si number density = 17.020169 Si / 1000 Ang^3
#
#
#
# Elastic Constant Matrix: (Units=GPa)
#
#
# Indices 1 2 3 4 5 6 
#
# 1 98.9717 58.9131 29.6826 0.0000 0.0000 0.0000
# 2 58.9131 98.9717 29.6826 0.0000 0.0000 0.0000
# 3 29.6826 29.6826 66.7512 0.0000 0.0000 0.0000
# 4 0.0000 0.0000 0.0000 15.4538 0.0000 0.0000
# 5 0.0000 0.0000 0.0000 0.0000 15.4538 0.0000
# 6 0.0000 0.0000 0.0000 0.0000 0.0000 20.0293
#
#
#
# Elastic Compliance Matrix: (Units=1/GPa)
#
#
# Indices 1 2 3 4 5 6 
#
# 1 0.016284 -0.008679 -0.003382 0.000000 0.000000 0.000000
# 2 -0.008679 0.016284 -0.003382 0.000000 0.000000 0.000000
# 3 -0.003382 -0.003382 0.017989 0.000000 0.000000 0.000000
# 4 0.000000 0.000000 0.000000 0.064709 0.000000 0.000000
# 5 0.000000 0.000000 0.000000 0.000000 0.064709 0.000000
# 6 0.000000 0.000000 0.000000 0.000000 0.000000 0.049927
#
#
# Mechanical properties :
#
#
# Convention : Reuss Voigt Hill
#
# Bulk Modulus (GPa) = 50.83429 55.69457 53.26443
# Shear Modulus (GPa) = 18.70242 19.94848 19.32545
#
# Velocity S-wave (km/s) = 3.31847 3.42723 3.37329
# Velocity P-wave (km/s) = 6.67944 6.96096 6.82165
#
# Compressibility (1/GPa) = 0.01967176
#
# Stress axis : x y z
#
# Youngs Moduli (GPa) = 61.40851 61.40851 55.59047
#
# Poissons Ratio (x) = 0.53297 0.18800
# Poissons Ratio (y) = 0.53297 0.18800
# Poissons Ratio (z) = 0.20768 0.20768
#
# Static dielectric constant tensor:
#      x y z
#    x 1.560060 0.000000 0.000000 
#    y 0.000000 1.560060 0.000000 
#    z 0.000000 0.000000 1.597400 
# 
# From -- ./inp_files/1037.got.cif
#   From: 2010.05.17/outbox.cif.g08.bks.cpg/sg189_1_cif.got.tgz:1037.got - 2010.05.20 12:14:34.
