data_PCOD9586290
_publ_section_title
;
Structure prediction by ZEFSAII (Michael W. Deem and Ramdas Pophale) SiO2 
 PCOD9586290
Probable space group: P -6 2 M
;
_chemical_formula_sum "Si O2"
_cell_formula_units_Z 76
_cell_length_a 18.973298
_cell_length_b 18.973298
_cell_length_c 13.650031
_cell_angle_alpha 90.000000
_cell_angle_beta 90.000000
_cell_angle_gamma 120.000000
_cell_volume 4255.493439
_symmetry_space_group_name_H-M "P -6 2 M"
_symmetry_group_IT_number 189
_symmetry_cell_setting 'hexagonal'
loop_
_space_group_symop_operation_xyz
x,y,z
-x+y,-x,-z
-y,x-y,z
x,y,-z
-x+y,-x,z
-y,x-y,-z
x-y,-y,-z
-x,-x+y,-z
y,x,-z
y,x,z
x-y,-y,z
-x,-x+y,z
loop_
_atom_site_type_symbol
_atom_site_label
_atom_site_fract_x
_atom_site_fract_y
_atom_site_fract_z
Si Si1 0.333334 0.666668 0.617215
Si Si2 0.903441 0.161430 0.109044
Si Si3 0.906133 0.810135 0.313869
Si Si4 0.750056 0.095637 0.615144
Si Si5 0.723701 0.550453 0.111439
Si Si6 0.539828 0.445841 0.110789
Si Si7 0.690059 0.202129 0.266904
O O1 0.333334 0.666668 0.500000
O O2 0.413994 0.744613 0.660147
O O3 0.889632 0.101518 0.198143
O O4 0.859284 0.213666 0.127380
O O5 0.000000 0.223849 0.107718
O O6 0.880035 0.124207 0.000000
O O7 0.849168 0.849168 0.334619
O O8 0.881410 0.724842 0.366269
O O9 0.000000 0.873151 0.338749
O O10 0.738649 0.103033 0.500000
O O11 0.722417 0.149606 0.675872
O O12 0.696004 0.000000 0.643039
O O13 0.629528 0.524913 0.117705
O O14 0.738983 0.499069 0.191746
O O15 0.737006 0.531329 0.000000
O O16 0.473183 0.473183 0.119400
O O17 0.529230 0.384646 0.196552
O O18 0.533920 0.412175 0.000000
#
# Coordination Sequence:
#
# PCOD9586290 Si02
#       7
#     4  12  12  12  12  12  12
#     4  12  27  42  61  86 115 156 204 252 295 344
#     4   9  17  31  52  77 107 145 185 223 269 331
#     4  10  20  35  56  83 115 150 191 238 292 350
#     4  10  22  40  62  84 108 144 191 243 297 350
#     4  10  19  33  55  83 115 148 186 225 279 346
#     4  10  21  36  57  88 122 153 189 236 287 346
#     4  12  21  40  59  86 113 155 192 238 293 347
#
# _framework density 17.859269999999999
#
# number of rings (size 3 to 8) (size 9 to 14) (size 15 to 20)
#    0.000    1.737    3.158    2.053    0.000    2.526 
#    0.000    0.000    0.000    1.895    0.000    0.000 
#    0.000    0.000    0.000    0.000    0.000    0.000 
#
# Total GULP energy -423908.044962 kJ/mol
# GULP energy per Si atom -5577.737434 kJ/mol
# Density = 1.781862 g / cm^3
# Si number density = 17.859270 Si / 1000 Ang^3
#
#
#
# Elastic Constant Matrix: (Units=GPa)
#
#
# Indices 1 2 3 4 5 6 
#
# 1 88.4223 44.5571 44.4246 0.0001 0.0000 0.0000
# 2 44.5571 88.4228 44.4248 0.0000 0.0000 0.0001
# 3 44.4246 44.4248 93.2250 0.0000 0.0001 0.0000
# 4 0.0001 0.0000 0.0000 23.5694 0.0000 0.0000
# 5 0.0000 0.0000 0.0001 0.0000 23.5693 0.0000
# 6 0.0000 0.0001 0.0000 0.0000 0.0000 21.9328
#
#
#
# Elastic Compliance Matrix: (Units=1/GPa)
#
#
# Indices 1 2 3 4 5 6 
#
# 1 0.016915 -0.005882 -0.005257 0.000000 0.000000 0.000000
# 2 -0.005882 0.016915 -0.005257 0.000000 0.000000 0.000000
# 3 -0.005257 -0.005257 0.015737 0.000000 0.000000 0.000000
# 4 0.000000 0.000000 0.000000 0.042428 0.000000 0.000000
# 5 0.000000 0.000000 0.000000 0.000000 0.042428 0.000000
# 6 0.000000 0.000000 0.000000 0.000000 0.000000 0.045594
#
#
# Mechanical properties :
#
#
# Convention : Reuss Voigt Hill
#
# Bulk Modulus (GPa) = 59.61950 59.65369 59.63660
# Shear Modulus (GPa) = 22.89357 22.92519 22.90938
#
# Velocity S-wave (km/s) = 3.58423 3.58670 3.58547
# Velocity P-wave (km/s) = 7.11227 7.11528 7.11377
#
# Compressibility (1/GPa) = 0.01677304
#
# Stress axis : x y z
#
# Youngs Moduli (GPa) = 59.11959 59.11992 63.54292
#
# Poissons Ratio (x) = 0.34775 0.33407
# Poissons Ratio (y) = 0.34775 0.33407
# Poissons Ratio (z) = 0.31082 0.31082
#
# Static dielectric constant tensor:
#      x y z
#    x 1.595810 0.000000 0.000000 
#    y 0.000000 1.595810 0.000000 
#    z 0.000000 0.000000 1.610810 
# 
# From -- ./inp_files/2715.got.cif
#   From: 2010.05.17/outbox.cif.g08.bks.cpg/sg189_2_cif.got.tgz:2715.got - 2010.05.20 12:14:34.
