data_PCOD9586745
_publ_section_title
;
Structure prediction by ZEFSAII (Michael W. Deem and Ramdas Pophale) SiO2 
 PCOD9586745
Probable space group: P -6 2 C
;
_chemical_formula_sum "Si O2"
_cell_formula_units_Z 52
_cell_length_a 12.541101
_cell_length_b 12.541101
_cell_length_c 19.640113
_cell_angle_alpha 90.000000
_cell_angle_beta 90.000000
_cell_angle_gamma 120.000000
_cell_volume 2675.136487
_symmetry_space_group_name_H-M "P -6 2 C"
_symmetry_group_IT_number 190
_symmetry_cell_setting 'hexagonal'
loop_
_space_group_symop_operation_xyz
x,y,z
-x+y,-x,1/2-z
-y,x-y,z
x,y,1/2-z
-x+y,-x,z
-y,x-y,1/2-z
x-y,-y,-z
-x,-x+y,-z
y,x,-z
y,x,1/2+z
x-y,-y,1/2+z
-x,-x+y,1/2+z
loop_
_atom_site_type_symbol
_atom_site_label
_atom_site_fract_x
_atom_site_fract_y
_atom_site_fract_z
Si Si1 0.516816 0.227078 0.877129
Si Si2 0.129065 0.456222 0.972386
Si Si3 0.000000 0.000000 0.332841
Si Si4 0.089166 0.811559 0.169630
Si Si5 0.925374 0.594506 0.069801
O O1 0.628249 0.204507 0.857256
O O2 0.382700 0.152888 0.846005
O O3 0.320748 0.314938 0.870583
O O4 0.208837 0.509237 0.041592
O O5 0.099632 0.554069 0.935660
O O6 0.208181 0.415176 0.928450
O O7 0.000000 0.347900 0.000000
O O8 0.085978 0.141687 0.354296
O O9 0.000000 0.000000 0.250000
O O10 0.067867 0.794867 0.250000
O O11 0.000000 0.656543 0.000000
#
# Coordination Sequence:
#
# PCOD9586745 Si02
#       5
#    12  12   4  12  12
#     4  10  19  38  64  95 126 157 211 273 330 391
#     4  11  20  34  61  95 123 162 209 270 334 387
#     4   9  24  48  67  86 136 189 226 272 328 408
#     4  11  24  43  64  93 130 178 227 271 334 404
#     4  11  21  38  62  92 127 167 215 273 334 398
#
# _framework density 19.438261000000001
#
# number of rings (size 3 to 8) (size 9 to 14) (size 15 to 20)
#    0.462    0.923    4.615    1.846    3.231    0.923 
#    0.000    1.154    0.000    0.000    0.000    0.000 
#    0.000    0.000    0.000    0.000    0.000    0.000 
#
# Total GULP energy -289757.583878 kJ/mol
# GULP energy per Si atom -5572.261228 kJ/mol
# Density = 1.939402 g / cm^3
# Si number density = 19.438261 Si / 1000 Ang^3
#
#
#
# Elastic Constant Matrix: (Units=GPa)
#
#
# Indices 1 2 3 4 5 6 
#
# 1 106.7426 47.4797 17.0378 0.0000 0.0000 0.0000
# 2 47.4797 106.7426 17.0378 0.0000 0.0000 0.0000
# 3 17.0378 17.0378 51.1006 0.0000 0.0000 0.0000
# 4 0.0000 0.0000 0.0000 15.4724 0.0000 0.0000
# 5 0.0000 0.0000 0.0000 0.0000 15.4724 0.0000
# 6 0.0000 0.0000 0.0000 0.0000 0.0000 29.6315
#
#
#
# Elastic Compliance Matrix: (Units=1/GPa)
#
#
# Indices 1 2 3 4 5 6 
#
# 1 0.011937 -0.004937 -0.002334 0.000000 0.000000 0.000000
# 2 -0.004937 0.011937 -0.002334 0.000000 0.000000 0.000000
# 3 -0.002334 -0.002334 0.021126 0.000000 0.000000 0.000000
# 4 0.000000 0.000000 0.000000 0.064631 0.000000 0.000000
# 5 0.000000 0.000000 0.000000 0.000000 0.064631 0.000000
# 6 0.000000 0.000000 0.000000 0.000000 0.000000 0.033748
#
#
# Mechanical properties :
#
#
# Convention : Reuss Voigt Hill
#
# Bulk Modulus (GPa) = 38.77512 47.52181 43.14847
# Shear Modulus (GPa) = 21.20299 24.31728 22.76014
#
# Velocity S-wave (km/s) = 3.30629 3.54079 3.42554
# Velocity P-wave (km/s) = 5.87933 6.42004 6.15562
#
# Compressibility (1/GPa) = 0.02578973
#
# Stress axis : x y z
#
# Youngs Moduli (GPa) = 83.77392 83.77392 47.33611
#
# Poissons Ratio (x) = 0.41360 0.11048
# Poissons Ratio (y) = 0.41360 0.11048
# Poissons Ratio (z) = 0.19552 0.19552
#
# Static dielectric constant tensor:
#      x y z
#    x 1.747060 0.000000 0.000000 
#    y 0.000000 1.747060 0.000000 
#    z 0.000000 0.000000 1.668300 
# 
# From -- ./inp_files/4187.got.cif
#   From: 2010.05.17/outbox.cif.g08.bks.cpg/sg190_3_cif.got.tgz:4187.got - 2010.05.20 12:16:56.
