data_PCOD9586223
_publ_section_title
;
Structure prediction by ZEFSAII (Michael W. Deem and Ramdas Pophale) SiO2 
 PCOD9586223
Probable space group: P -6 2 M
;
_chemical_formula_sum "Si O2"
_cell_formula_units_Z 84
_cell_length_a 15.439733
_cell_length_b 15.439733
_cell_length_c 23.252760
_cell_angle_alpha 90.000000
_cell_angle_beta 90.000000
_cell_angle_gamma 120.000000
_cell_volume 4800.480528
_symmetry_space_group_name_H-M "P -6 2 M"
_symmetry_group_IT_number 189
_symmetry_cell_setting 'hexagonal'
loop_
_space_group_symop_operation_xyz
x,y,z
-x+y,-x,-z
-y,x-y,z
x,y,-z
-x+y,-x,z
-y,x-y,-z
x-y,-y,-z
-x,-x+y,-z
y,x,-z
y,x,z
x-y,-y,z
-x,-x+y,z
loop_
_atom_site_type_symbol
_atom_site_label
_atom_site_fract_x
_atom_site_fract_y
_atom_site_fract_z
Si Si1 0.881784 0.119683 0.066584
Si Si2 0.525680 0.410232 0.348039
Si Si3 0.225752 0.336541 0.601191
Si Si4 0.644405 0.880519 0.171138
Si Si5 0.764321 0.883130 0.278871
Si Si6 0.120335 0.449885 0.437149
Si Si7 0.555978 0.334945 0.228093
O O1 0.825139 0.151972 0.112027
O O2 0.000000 0.176433 0.078355
O O3 0.835955 0.000000 0.073064
O O4 0.866687 0.137632 0.000000
O O5 0.485647 0.485647 0.329956
O O6 0.440418 0.328333 0.388915
O O7 0.627654 0.472081 0.384264
O O8 0.529526 0.351566 0.292347
O O9 0.258105 0.258105 0.577516
O O10 0.173806 0.293466 0.662962
O O11 0.155482 0.368422 0.568356
O O12 0.688141 0.848964 0.225394
O O13 0.529979 0.845604 0.183998
O O14 0.704171 0.000000 0.171458
O O15 0.816992 0.816992 0.284041
O O16 0.846522 0.000000 0.269169
O O17 0.152304 0.499570 0.500000
O O18 0.000000 0.393327 0.434937
O O19 0.572414 0.240065 0.220686
#
# Coordination Sequence:
#
# PCOD9586223 Si02
#       7
#    12  12  12  12  12  12  12
#     4   9  17  30  52  83 119 155 188 225 271 325
#     4  10  19  35  56  76 103 135 168 216 276 331
#     4  10  20  35  55  76 103 137 172 211 262 321
#     4  10  19  34  53  77 110 147 185 226 272 324
#     4  10  19  31  49  76 109 143 177 215 262 318
#     4  10  22  38  55  78 106 134 171 219 268 325
#     4  10  21  34  53  76 105 137 180 225 275 327
#
# _framework density 17.498249000000001
#
# number of rings (size 3 to 8) (size 9 to 14) (size 15 to 20)
#    0.286    1.857    1.429    2.429    0.000    1.429 
#    0.857    5.000    0.000    1.143    0.000    2.000 
#    0.000    0.000    0.000    0.000    0.000    0.000 
#
# Total GULP energy -467907.507042 kJ/mol
# GULP energy per Si atom -5570.327465 kJ/mol
# Density = 1.745842 g / cm^3
# Si number density = 17.498249 Si / 1000 Ang^3
#
#
#
# Elastic Constant Matrix: (Units=GPa)
#
#
# Indices 1 2 3 4 5 6 
#
# 1 57.5316 18.1238 35.2990 0.0000 0.0000 0.0000
# 2 18.1238 57.5316 35.2990 0.0000 0.0000 0.0000
# 3 35.2990 35.2990 90.0931 0.0000 0.0000 0.0000
# 4 0.0000 0.0000 0.0000 13.9912 0.0000 0.0000
# 5 0.0000 0.0000 0.0000 0.0000 13.9912 0.0000
# 6 0.0000 0.0000 0.0000 0.0000 0.0000 19.7039
#
#
#
# Elastic Compliance Matrix: (Units=1/GPa)
#
#
# Indices 1 2 3 4 5 6 
#
# 1 0.023106 -0.002270 -0.008164 0.000000 0.000000 0.000000
# 2 -0.002270 0.023106 -0.008164 0.000000 0.000000 0.000000
# 3 -0.008164 -0.008164 0.017497 0.000000 0.000000 0.000000
# 4 0.000000 0.000000 0.000000 0.071473 0.000000 0.000000
# 5 0.000000 0.000000 0.000000 0.000000 0.071473 0.000000
# 6 0.000000 0.000000 0.000000 0.000000 0.000000 0.050751
#
#
# Mechanical properties :
#
#
# Convention : Reuss Voigt Hill
#
# Bulk Modulus (GPa) = 37.71616 42.51110 40.11363
# Shear Modulus (GPa) = 16.47781 17.29956 16.88869
#
# Velocity S-wave (km/s) = 3.07202 3.14768 3.11008
# Velocity P-wave (km/s) = 5.84672 6.12844 5.98923
#
# Compressibility (1/GPa) = 0.02651383
#
# Stress axis : x y z
#
# Youngs Moduli (GPa) = 43.27943 43.27943 57.15379
#
# Poissons Ratio (x) = 0.09825 0.46658
# Poissons Ratio (y) = 0.09825 0.46658
# Poissons Ratio (z) = 0.35331 0.35331
#
# Static dielectric constant tensor:
#      x y z
#    x 1.605640 0.000000 0.000000 
#    y 0.000000 1.605640 0.000000 
#    z 0.000000 0.000000 1.603320 
# 
# From -- ./inp_files/3608.got.cif
#   From: 2010.05.17/outbox.cif.g08.bks.cpg/sg189_2_cif.got.tgz:3608.got - 2010.05.20 12:14:34.
