data_PCOD9586195
_publ_section_title
;
Structure prediction by ZEFSAII (Michael W. Deem and Ramdas Pophale) SiO2 
 PCOD9586195
Probable space group: P -6 2 M
;
_chemical_formula_sum "Si O2"
_cell_formula_units_Z 72
_cell_length_a 24.584357
_cell_length_b 24.584357
_cell_length_c 8.618170
_cell_angle_alpha 90.000000
_cell_angle_beta 90.000000
_cell_angle_gamma 120.000000
_cell_volume 4510.902041
_symmetry_space_group_name_H-M "P -6 2 M"
_symmetry_group_IT_number 189
_symmetry_cell_setting 'hexagonal'
loop_
_space_group_symop_operation_xyz
x,y,z
-x+y,-x,-z
-y,x-y,z
x,y,-z
-x+y,-x,z
-y,x-y,-z
x-y,-y,-z
-x,-x+y,-z
y,x,-z
y,x,z
x-y,-y,z
-x,-x+y,z
loop_
_atom_site_type_symbol
_atom_site_label
_atom_site_fract_x
_atom_site_fract_y
_atom_site_fract_z
Si Si1 0.264832 0.193889 0.312345
Si Si2 0.404596 0.264421 0.814216
Si Si3 0.597627 0.072663 0.314458
Si Si4 0.406208 0.926950 0.813002
Si Si5 0.859808 0.263433 0.187453
Si Si6 0.736032 0.806798 0.687474
O O1 0.267550 0.196076 0.500000
O O2 0.217689 0.217689 0.261620
O O3 0.334602 0.240110 0.249755
O O4 0.246978 0.123720 0.263371
O O5 0.450771 0.333526 0.751877
O O6 0.421433 0.210801 0.767022
O O7 0.403211 0.265870 0.000000
O O8 0.600230 0.074021 0.500000
O O9 0.545982 0.090025 0.257821
O O10 0.571143 0.000000 0.263813
O O11 0.334426 0.883439 0.761787
O O12 0.431229 0.000000 0.772371
O O13 0.408538 0.923533 0.000000
O O14 0.905512 0.239563 0.251929
O O15 0.863108 0.263578 0.000000
O O16 0.734586 0.805414 0.500000
O O17 0.782965 0.782965 0.740259
#
# Coordination Sequence:
#
# PCOD9586195 Si02
#       6
#    12  12  12  12  12  12
#     4   9  17  29  44  62  87 119 151 184 224 267
#     4  10  19  30  46  68  92 117 147 183 221 262
#     4  10  20  32  46  66  92 120 149 181 218 260
#     4   9  17  30  48  68  90 116 145 178 217 261
#     4   9  18  31  47  68  92 117 145 179 220 264
#     4   9  17  28  43  64  89 117 149 184 222 265
#
# _framework density 15.961330999999999
#
# number of rings (size 3 to 8) (size 9 to 14) (size 15 to 20)
#    0.000    2.667    0.000    2.000    0.000    5.667 
#    0.000    1.667    0.000    1.000    0.000    4.667 
#    0.000    0.000    0.000    8.333    0.000    8.667 
#
# Total GULP energy -401362.989444 kJ/mol
# GULP energy per Si atom -5574.485965 kJ/mol
# Density = 1.592500 g / cm^3
# Si number density = 15.961331 Si / 1000 Ang^3
#
#
#
# Elastic Constant Matrix: (Units=GPa)
#
#
# Indices 1 2 3 4 5 6 
#
# 1 139.4639 94.2751 25.4153 0.0000 0.0000 0.0000
# 2 94.2751 139.4639 25.4153 0.0000 0.0000 0.0000
# 3 25.4153 25.4153 9.3859 0.0000 0.0000 0.0000
# 4 0.0000 0.0000 0.0000 20.0322 0.0000 0.0000
# 5 0.0000 0.0000 0.0000 0.0000 20.0322 0.0000
# 6 0.0000 0.0000 0.0000 0.0000 0.0000 22.5944
#
#
#
# Elastic Compliance Matrix: (Units=1/GPa)
#
#
# Indices 1 2 3 4 5 6 
#
# 1 0.016268 -0.005862 -0.028177 0.000000 0.000000 0.000000
# 2 -0.005862 0.016268 -0.028177 0.000000 0.000000 0.000000
# 3 -0.028177 -0.028177 0.259141 0.000000 0.000000 0.000000
# 4 0.000000 0.000000 0.000000 0.049920 0.000000 0.000000
# 5 0.000000 0.000000 0.000000 0.000000 0.049920 0.000000
# 6 0.000000 0.000000 0.000000 0.000000 0.000000 0.044259
#
#
# Mechanical properties :
#
#
# Convention : Reuss Voigt Hill
#
# Bulk Modulus (GPa) = 5.97932 64.28059 35.12995
# Shear Modulus (GPa) = 8.11748 22.07895 15.09822
#
# Velocity S-wave (km/s) = 2.25760 3.72328 3.07893
# Velocity P-wave (km/s) = 3.24807 7.67098 5.89041
#
# Compressibility (1/GPa) = 0.16724322
#
# Stress axis : x y z
#
# Youngs Moduli (GPa) = 61.47172 61.47172 3.85891
#
# Poissons Ratio (x) = 0.36033 0.10873
# Poissons Ratio (y) = 0.36033 0.10873
# Poissons Ratio (z) = 1.73211 1.73211
#
# Static dielectric constant tensor:
#      x y z
#    x 1.526170 0.000000 0.000000 
#    y 0.000000 1.526170 0.000000 
#    z 0.000000 0.000000 1.542290 
# 
# From -- ./inp_files/1203.got.cif
#   From: 2010.05.17/outbox.cif.g08.bks.cpg/sg189_1_cif.got.tgz:1203.got - 2010.05.20 12:14:34.
