data_PCOD9586132
_publ_section_title
;
Structure prediction by ZEFSAII (Michael W. Deem and Ramdas Pophale) SiO2 
 PCOD9586132
Probable space group: P -6 2 M
;
_chemical_formula_sum "Si O2"
_cell_formula_units_Z 78
_cell_length_a 18.216449
_cell_length_b 18.216449
_cell_length_c 17.148034
_cell_angle_alpha 90.000000
_cell_angle_beta 90.000000
_cell_angle_gamma 120.000000
_cell_volume 4928.019437
_symmetry_space_group_name_H-M "P -6 2 M"
_symmetry_group_IT_number 189
_symmetry_cell_setting 'hexagonal'
loop_
_space_group_symop_operation_xyz
x,y,z
-x+y,-x,-z
-y,x-y,z
x,y,-z
-x+y,-x,z
-y,x-y,-z
x-y,-y,-z
-x,-x+y,-z
y,x,-z
y,x,z
x-y,-y,z
-x,-x+y,z
loop_
_atom_site_type_symbol
_atom_site_label
_atom_site_fract_x
_atom_site_fract_y
_atom_site_fract_z
Si Si1 0.099842 0.898782 0.000000
Si Si2 0.747306 0.648134 0.249721
Si Si3 0.899527 0.320924 0.414139
Si Si4 0.183020 0.678464 0.092819
Si Si5 0.591336 0.229615 0.644971
Si Si6 0.900809 0.688737 0.143991
Si Si7 0.350859 0.817623 0.821392
O O1 0.114819 0.854509 0.074930
O O2 0.000000 0.869786 0.000000
O O3 0.158057 0.000000 0.000000
O O4 0.716400 0.716400 0.244976
O O5 0.739450 0.617550 0.339237
O O6 0.839324 0.679851 0.214507
O O7 0.682679 0.564846 0.199402
O O8 0.879157 0.280739 0.500000
O O9 0.850093 0.372194 0.401041
O O10 0.000000 0.383410 0.410165
O O11 0.126126 0.720446 0.114658
O O12 0.274880 0.739791 0.131978
O O13 0.149539 0.585756 0.129389
O O14 0.190797 0.676717 0.000000
O O15 0.690177 0.268168 0.627049
O O16 0.577551 0.212165 0.737065
O O17 0.000000 0.739456 0.163261
#
# Coordination Sequence:
#
# PCOD9586132 Si02
#       7
#     6  12  12  12  12  12  12
#     4  10  19  34  54  76 100 128 166 212 259 306
#     4   9  19  35  55  74  97 129 166 205 249 302
#     4   9  18  32  51  76 103 129 163 208 252 300
#     4  11  19  30  47  69  99 136 172 212 252 286
#     4   9  16  29  49  69  96 131 166 206 248 296
#     4  10  21  35  52  73 100 133 168 207 257 305
#     4  10  18  30  47  70  99 131 172 212 240 288
#
# _framework density 15.827861
#
# number of rings (size 3 to 8) (size 9 to 14) (size 15 to 20)
#    0.308    2.000    2.308    1.308    0.000    1.231 
#    0.000    0.000    0.000    0.769    0.000    0.000 
#    0.000    0.000    0.000    0.000    0.000    0.000 
#
# Total GULP energy -434454.560153 kJ/mol
# GULP energy per Si atom -5569.930258 kJ/mol
# Density = 1.579184 g / cm^3
# Si number density = 15.827861 Si / 1000 Ang^3
#
#
#
# Elastic Constant Matrix: (Units=GPa)
#
#
# Indices 1 2 3 4 5 6 
#
# 1 70.3522 36.6209 42.0026 0.0000 0.0000 0.0000
# 2 36.6209 70.3522 42.0026 0.0000 0.0000 0.0000
# 3 42.0026 42.0026 115.8823 0.0000 0.0000 0.0000
# 4 0.0000 0.0000 0.0000 14.4738 0.0000 0.0000
# 5 0.0000 0.0000 0.0000 0.0000 14.4738 0.0000
# 6 0.0000 0.0000 0.0000 0.0000 0.0000 16.8657
#
#
#
# Elastic Compliance Matrix: (Units=1/GPa)
#
#
# Indices 1 2 3 4 5 6 
#
# 1 0.021357 -0.008289 -0.004737 0.000000 0.000000 0.000000
# 2 -0.008289 0.021357 -0.004737 0.000000 0.000000 0.000000
# 3 -0.004737 -0.004737 0.012063 0.000000 0.000000 0.000000
# 4 0.000000 0.000000 0.000000 0.069090 0.000000 0.000000
# 5 0.000000 0.000000 0.000000 0.000000 0.069090 0.000000
# 6 0.000000 0.000000 0.000000 0.000000 0.000000 0.059292
#
#
# Mechanical properties :
#
#
# Convention : Reuss Voigt Hill
#
# Bulk Modulus (GPa) = 51.94163 55.31545 53.62854
# Shear Modulus (GPa) = 16.99573 18.22669 17.61121
#
# Velocity S-wave (km/s) = 3.28042 3.39714 3.33929
# Velocity P-wave (km/s) = 6.87285 7.10010 6.98740
#
# Compressibility (1/GPa) = 0.01925238
#
# Stress axis : x y z
#
# Youngs Moduli (GPa) = 46.82335 46.82335 82.89791
#
# Poissons Ratio (x) = 0.38813 0.39265
# Poissons Ratio (y) = 0.38813 0.39265
# Poissons Ratio (z) = 0.22178 0.22178
#
# Static dielectric constant tensor:
#      x y z
#    x 1.523900 0.000000 0.000000 
#    y 0.000000 1.523900 0.000000 
#    z 0.000000 0.000000 1.535320 
# 
# From -- ./inp_files/3237.got.cif
#   From: 2010.05.17/outbox.cif.g08.bks.cpg/sg189_2_cif.got.tgz:3237.got - 2010.05.20 12:14:34.
