data_PCOD9586372
_publ_section_title
;
Structure prediction by ZEFSAII (Michael W. Deem and Ramdas Pophale) SiO2 
 PCOD9586372
Probable space group: P -6 2 M
;
_chemical_formula_sum "Si O2"
_cell_formula_units_Z 96
_cell_length_a 15.254029
_cell_length_b 15.254029
_cell_length_c 26.612781
_cell_angle_alpha 90.000000
_cell_angle_beta 90.000000
_cell_angle_gamma 120.000000
_cell_volume 5362.780570
_symmetry_space_group_name_H-M "P -6 2 M"
_symmetry_group_IT_number 189
_symmetry_cell_setting 'hexagonal'
loop_
_space_group_symop_operation_xyz
x,y,z
-x+y,-x,-z
-y,x-y,z
x,y,-z
-x+y,-x,z
-y,x-y,-z
x-y,-y,-z
-x,-x+y,-z
y,x,-z
y,x,z
x-y,-y,z
-x,-x+y,z
loop_
_atom_site_type_symbol
_atom_site_label
_atom_site_fract_x
_atom_site_fract_y
_atom_site_fract_z
Si Si1 0.725643 0.605178 0.942450
Si Si2 0.428070 0.544759 0.276129
Si Si3 0.118037 0.750394 0.859666
Si Si4 0.539704 0.117910 0.865057
Si Si5 0.113209 0.225441 0.438905
Si Si6 0.261264 0.783125 0.220772
Si Si7 0.546695 0.765226 0.440295
Si Si8 0.116597 0.568147 0.605213
O O1 0.682185 0.682185 0.941369
O O2 0.821728 0.644015 0.906038
O O3 0.637172 0.501466 0.917442
O O4 0.746451 0.591355 0.000000
O O5 0.466390 0.466390 0.261606
O O6 0.326299 0.523539 0.247146
O O7 0.515450 0.658591 0.261954
O O8 0.409393 0.536586 0.335495
O O9 0.126338 0.648401 0.866164
O O10 0.177495 0.800030 0.807668
O O11 0.000000 0.713938 0.857990
O O12 0.534850 0.195299 0.825567
O O13 0.460470 0.000000 0.850568
O O14 0.115071 0.225056 0.500000
O O15 0.191661 0.191661 0.421042
O O16 0.144021 0.338155 0.424362
O O17 0.000000 0.146185 0.423040
O O18 0.536439 0.746705 0.500000
O O19 0.519865 0.850696 0.425975
O O20 0.473639 0.662828 0.411656
O O21 0.000000 0.486348 0.594903
#
# Coordination Sequence:
#
# PCOD9586372 Si02
#       8
#    12  12  12  12  12  12  12  12
#     4   9  19  34  50  71 106 149 185 223 276 329
#     4  11  23  36  54  80 109 146 186 222 272 339
#     4  10  20  33  54  80 106 138 185 233 275 331
#     4   9  18  32  51  77 108 141 182 226 272 332
#     4   9  17  30  51  78 103 127 161 211 269 320
#     4  11  19  32  54  75 109 140 172 221 280 319
#     4  11  22  37  56  78 105 143 187 225 266 316
#     4  11  24  40  55  77 111 148 188 229 268 318
#
# _framework density 17.901160000000001
#
# number of rings (size 3 to 8) (size 9 to 14) (size 15 to 20)
#    0.000    1.875    1.250    3.250    0.000    3.750 
#    0.750    1.250    0.000    0.250    0.000    0.000 
#    0.000    0.000    0.000    1.000    0.000    0.000 
#
# Total GULP energy -535132.798465 kJ/mol
# GULP energy per Si atom -5574.299984 kJ/mol
# Density = 1.786042 g / cm^3
# Si number density = 17.901160 Si / 1000 Ang^3
#
#
#
# Elastic Constant Matrix: (Units=GPa)
#
#
# Indices 1 2 3 4 5 6 
#
# 1 61.6284 4.9611 12.9461 0.0000 0.0000 0.0000
# 2 4.9611 61.6284 12.9461 0.0000 0.0000 0.0000
# 3 12.9461 12.9461 52.1668 0.0000 0.0000 0.0000
# 4 0.0000 0.0000 0.0000 15.5647 0.0000 0.0000
# 5 0.0000 0.0000 0.0000 0.0000 15.5647 0.0000
# 6 0.0000 0.0000 0.0000 0.0000 0.0000 28.3336
#
#
#
# Elastic Compliance Matrix: (Units=1/GPa)
#
#
# Indices 1 2 3 4 5 6 
#
# 1 0.017134 -0.000513 -0.004125 0.000000 0.000000 0.000000
# 2 -0.000513 0.017134 -0.004125 0.000000 0.000000 0.000000
# 3 -0.004125 -0.004125 0.021217 0.000000 0.000000 0.000000
# 4 0.000000 0.000000 0.000000 0.064248 0.000000 0.000000
# 5 0.000000 0.000000 0.000000 0.000000 0.064248 0.000000
# 6 0.000000 0.000000 0.000000 0.000000 0.000000 0.035294
#
#
# Mechanical properties :
#
#
# Convention : Reuss Voigt Hill
#
# Bulk Modulus (GPa) = 26.34372 26.34779 26.34576
# Shear Modulus (GPa) = 20.04391 21.53063 20.78727
#
# Velocity S-wave (km/s) = 3.34982 3.47183 3.41137
# Velocity P-wave (km/s) = 5.45068 5.55175 5.50145
#
# Compressibility (1/GPa) = 0.03795971
#
# Stress axis : x y z
#
# Youngs Moduli (GPa) = 58.36323 58.36323 47.13294
#
# Poissons Ratio (x) = 0.02993 0.19442
# Poissons Ratio (y) = 0.02993 0.19442
# Poissons Ratio (z) = 0.24074 0.24074
#
# Static dielectric constant tensor:
#      x y z
#    x 1.615600 0.000000 0.000000 
#    y 0.000000 1.615600 0.000000 
#    z 0.000000 0.000000 1.619650 
# 
# From -- ./inp_files/3719.got.cif
#   From: 2010.05.17/outbox.cif.g08.bks.cpg/sg189_2_cif.got.tgz:3719.got - 2010.05.20 12:14:34.
