data_PCOD9586394
_publ_section_title
;
Structure prediction by ZEFSAII (Michael W. Deem and Ramdas Pophale) SiO2 
 PCOD9586394
Probable space group: P -6 2 M
;
_chemical_formula_sum "Si O2"
_cell_formula_units_Z 60
_cell_length_a 19.157785
_cell_length_b 19.157785
_cell_length_c 8.549013
_cell_angle_alpha 90.000000
_cell_angle_beta 90.000000
_cell_angle_gamma 120.000000
_cell_volume 2717.297563
_symmetry_space_group_name_H-M "P -6 2 M"
_symmetry_group_IT_number 189
_symmetry_cell_setting 'hexagonal'
loop_
_space_group_symop_operation_xyz
x,y,z
-x+y,-x,-z
-y,x-y,z
x,y,-z
-x+y,-x,z
-y,x-y,-z
x-y,-y,-z
-x,-x+y,-z
y,x,-z
y,x,z
x-y,-y,z
-x,-x+y,z
loop_
_atom_site_type_symbol
_atom_site_label
_atom_site_fract_x
_atom_site_fract_y
_atom_site_fract_z
Si Si1 0.094275 0.865701 0.667056
Si Si2 0.902551 0.764273 0.000000
Si Si3 0.544015 0.686712 0.323681
Si Si4 0.277824 0.412666 0.326827
Si Si5 0.436634 0.530632 0.823245
Si Si6 0.641105 0.732582 0.000000
O O1 0.133339 0.904167 0.500000
O O2 0.106721 0.788387 0.687820
O O3 0.000000 0.831916 0.651931
O O4 0.114600 0.907428 0.834894
O O5 0.828262 0.671555 0.000000
O O6 0.000000 0.793834 0.000000
O O7 0.575609 0.684522 0.500000
O O8 0.540158 0.768362 0.321392
O O9 0.461402 0.604009 0.295005
O O10 0.595371 0.696504 0.165191
O O11 0.313861 0.421819 0.500000
O O12 0.350534 0.452921 0.208107
O O13 0.502421 0.502421 0.806553
O O14 0.438880 0.558847 0.000000
O O15 0.713700 0.713700 0.000000
#
# Coordination Sequence:
#
# PCOD9586394 Si02
#       6
#    12   6  12  12  12   6
#     4   9  17  30  51  81 113 144 183 235 295 354
#     4  10  20  34  57  85 118 152 184 236 301 354
#     4  11  24  43  63  88 124 164 211 264 314 369
#     4  10  21  37  58  83 113 153 201 254 311 364
#     4  11  24  39  60  91 124 164 212 257 314 382
#     4  12  24  40  63  93 126 162 206 250 304 374
#
# _framework density 22.080762
#
# number of rings (size 3 to 8) (size 9 to 14) (size 15 to 20)
#    0.000    1.600    3.000    1.800    2.800    3.600 
#    1.200    0.000    0.000    0.200    0.000    0.000 
#    0.000    0.000    0.000    4.600    0.000    0.000 
#
# Total GULP energy -334002.803383 kJ/mol
# GULP energy per Si atom -5566.713390 kJ/mol
# Density = 2.203051 g / cm^3
# Si number density = 22.080762 Si / 1000 Ang^3
#
#
#
# Elastic Constant Matrix: (Units=GPa)
#
#
# Indices 1 2 3 4 5 6 
#
# 1 50.6297 23.6191 28.1534 0.0000 0.0000 0.0000
# 2 23.6191 50.6297 28.1534 0.0000 0.0000 0.0000
# 3 28.1534 28.1534 221.5860 0.0000 0.0000 0.0000
# 4 0.0000 0.0000 0.0000 -26.6325 0.0000 0.0000
# 5 0.0000 0.0000 0.0000 0.0000 -26.6325 0.0000
# 6 0.0000 0.0000 0.0000 0.0000 0.0000 13.5053
#
#
#
# Elastic Compliance Matrix: (Units=1/GPa)
#
#
# Indices 1 2 3 4 5 6 
#
# 1 0.025963 -0.011059 -0.001894 0.000000 0.000000 0.000000
# 2 -0.011059 0.025963 -0.001894 0.000000 0.000000 0.000000
# 3 -0.001894 -0.001894 0.004994 0.000000 0.000000 0.000000
# 4 0.000000 0.000000 0.000000 -0.037548 0.000000 0.000000
# 5 0.000000 0.000000 0.000000 0.000000 -0.037548 0.000000
# 6 0.000000 0.000000 0.000000 0.000000 0.000000 0.074045
#
#
# Mechanical properties :
#
#
# Convention : Reuss Voigt Hill
#
# Bulk Modulus (GPa) = 36.72677 53.63302 45.17990
# Shear Modulus (GPa) = 52.83270 8.24271 30.53771
#
# Velocity S-wave (km/s) = 4.89683 1.93419 3.72291
# Velocity P-wave (km/s) = 6.97431 5.41575 6.24385
#
# Compressibility (1/GPa) = 0.02722809
#
# Stress axis : x y z
#
# Youngs Moduli (GPa) = 38.51579 38.51579 200.23582
#
# Poissons Ratio (x) = 0.42595 0.37918
# Poissons Ratio (y) = 0.42595 0.37918
# Poissons Ratio (z) = 0.07294 0.07294
#
# Static dielectric constant tensor:
#      x y z
#    x 1.786570 0.000000 0.000000 
#    y 0.000000 1.786570 0.000000 
#    z 0.000000 0.000000 1.913610 
# 
# From -- ./inp_files/959.got.cif
#   From: 2010.05.17/outbox.cif.g08.bks.cpg/sg189_1_cif.got.tgz:959.got - 2010.05.20 12:14:34.
