data_PCOD9586416
_publ_section_title
;
Structure prediction by ZEFSAII (Michael W. Deem and Ramdas Pophale) SiO2 
 PCOD9586416
Probable space group: P -6 2 M
;
_chemical_formula_sum "Si O2"
_cell_formula_units_Z 72
_cell_length_a 22.642568
_cell_length_b 22.642568
_cell_length_c 8.512351
_cell_angle_alpha 90.000000
_cell_angle_beta 90.000000
_cell_angle_gamma 120.000000
_cell_volume 3779.475341
_symmetry_space_group_name_H-M "P -6 2 M"
_symmetry_group_IT_number 189
_symmetry_cell_setting 'hexagonal'
loop_
_space_group_symop_operation_xyz
x,y,z
-x+y,-x,-z
-y,x-y,z
x,y,-z
-x+y,-x,z
-y,x-y,-z
x-y,-y,-z
-x,-x+y,-z
y,x,-z
y,x,z
x-y,-y,z
-x,-x+y,z
loop_
_atom_site_type_symbol
_atom_site_label
_atom_site_fract_x
_atom_site_fract_y
_atom_site_fract_z
Si Si1 0.350719 0.574930 0.672001
Si Si2 0.377268 0.147959 0.309976
Si Si3 0.349611 0.000000 0.312027
Si Si4 0.463582 0.358874 0.817197
Si Si5 0.311140 0.782092 0.822222
Si Si6 0.074436 0.751305 0.689032
Si Si7 0.517639 0.517639 0.818613
O O1 0.332278 0.587267 0.500000
O O2 0.336035 0.498989 0.688639
O O3 0.299551 0.574642 0.801264
O O4 0.429309 0.624471 0.710499
O O5 0.384049 0.150769 0.500000
O O6 0.452546 0.190854 0.234696
O O7 0.331482 0.183004 0.269113
O O8 0.351629 0.069711 0.259228
O O9 0.346333 0.000000 0.500000
O O10 0.419940 0.000000 0.270768
O O11 0.384592 0.312389 0.779061
O O12 0.501183 0.440178 0.796200
O O13 0.474895 0.346841 0.000000
O O14 0.332340 0.803483 0.000000
O O15 0.076631 0.742954 0.500000
O O16 0.000000 0.743753 0.721385
O O17 0.535800 0.535800 0.000000
#
# Coordination Sequence:
#
# PCOD9586416 Si02
#       7
#    12  12   6  12  12  12   6
#     4  12  24  38  53  73 101 140 186 236 286 341
#     4  10  21  39  59  83 114 150 192 238 293 352
#     4  10  22  38  58  82 112 152 195 238 284 349
#     4  11  21  35  53  77 107 141 182 233 287 337
#     4  12  24  38  55  77 106 145 191 241 296 346
#     4  10  20  35  58  85 113 147 189 238 292 352
#     4  10  22  36  52  78 112 146 185 236 282 333
#
# _framework density 19.050263000000001
#
# number of rings (size 3 to 8) (size 9 to 14) (size 15 to 20)
#    0.000    1.167    2.500    4.833    0.000    4.667 
#    0.000    0.000    0.000    0.000    0.000    0.000 
#    0.833    0.000    2.500    0.000    0.000    0.000 
#
# Total GULP energy -401106.903196 kJ/mol
# GULP energy per Si atom -5570.929211 kJ/mol
# Density = 1.900690 g / cm^3
# Si number density = 19.050263 Si / 1000 Ang^3
#
#
#
# Elastic Constant Matrix: (Units=GPa)
#
#
# Indices 1 2 3 4 5 6 
#
# 1 207.8184 -62.2951 22.6007 0.0000 0.0000 0.0000
# 2 -62.2951 207.8184 22.6007 0.0000 0.0000 0.0000
# 3 22.6007 22.6007 40.8502 0.0000 0.0000 0.0000
# 4 0.0000 0.0000 0.0000 18.6580 0.0000 0.0000
# 5 0.0000 0.0000 0.0000 0.0000 18.6580 0.0000
# 6 0.0000 0.0000 0.0000 0.0000 0.0000 135.0568
#
#
#
# Elastic Compliance Matrix: (Units=1/GPa)
#
#
# Indices 1 2 3 4 5 6 
#
# 1 0.006000 0.002298 -0.004591 0.000000 0.000000 0.000000
# 2 0.002298 0.006000 -0.004591 0.000000 0.000000 0.000000
# 3 -0.004591 -0.004591 0.029559 0.000000 0.000000 0.000000
# 4 0.000000 0.000000 0.000000 0.053596 0.000000 0.000000
# 5 0.000000 0.000000 0.000000 0.000000 0.053596 0.000000
# 6 0.000000 0.000000 0.000000 0.000000 0.000000 0.007404
#
#
# Mechanical properties :
#
#
# Convention : Reuss Voigt Hill
#
# Bulk Modulus (GPa) = 35.98188 46.92218 41.45203
# Shear Modulus (GPa) = 27.90367 66.04660 46.97514
#
# Velocity S-wave (km/s) = 3.83134 5.89448 4.97112
# Velocity P-wave (km/s) = 6.20493 8.42679 7.39973
#
# Compressibility (1/GPa) = 0.02779176
#
# Stress axis : x y z
#
# Youngs Moduli (GPa) = 166.66868 166.66868 33.83012
#
# Poissons Ratio (x) = -0.38297 0.15531
# Poissons Ratio (y) = -0.38297 0.15531
# Poissons Ratio (z) = 0.76514 0.76514
#
# Static dielectric constant tensor:
#      x y z
#    x 1.698670 0.000000 0.000000 
#    y 0.000000 1.698670 0.000000 
#    z 0.000000 0.000000 1.647180 
# 
# From -- ./inp_files/1324.got.cif
#   From: 2010.05.17/outbox.cif.g08.bks.cpg/sg189_1_cif.got.tgz:1324.got - 2010.05.20 12:14:34.
