data_PCOD9586963
_publ_section_title
;
Structure prediction by ZEFSAII (Michael W. Deem and Ramdas Pophale) SiO2 
 PCOD9586963
Probable space group: P -6 2 C
;
_chemical_formula_sum "Si O2"
_cell_formula_units_Z 44
_cell_length_a 11.346736
_cell_length_b 11.346736
_cell_length_c 19.089669
_cell_angle_alpha 90.000000
_cell_angle_beta 90.000000
_cell_angle_gamma 120.000000
_cell_volume 2128.486650
_symmetry_space_group_name_H-M "P -6 2 C"
_symmetry_group_IT_number 190
_symmetry_cell_setting 'hexagonal'
loop_
_space_group_symop_operation_xyz
x,y,z
-x+y,-x,1/2-z
-y,x-y,z
x,y,1/2-z
-x+y,-x,z
-y,x-y,1/2-z
x-y,-y,-z
-x,-x+y,-z
y,x,-z
y,x,1/2+z
x-y,-y,1/2+z
-x,-x+y,1/2+z
loop_
_atom_site_type_symbol
_atom_site_label
_atom_site_fract_x
_atom_site_fract_y
_atom_site_fract_z
Si Si1 0.000000 0.000000 0.165440
Si Si2 0.427776 0.580433 0.750000
Si Si3 0.666667 0.333333 0.667939
Si Si4 0.085226 0.246542 0.567096
Si Si5 0.000000 0.625806 0.000000
Si Si6 0.532305 0.577842 0.379243
O O1 0.921349 0.071587 0.130600
O O2 0.000000 0.000000 0.250000
O O3 0.263945 0.520148 0.750000
O O4 0.483711 0.538663 0.682620
O O5 0.666667 0.333334 0.750000
O O6 0.800190 0.328781 0.645402
O O7 0.235430 0.343449 0.537736
O O8 0.000000 0.158987 0.500000
O O9 0.016608 0.332819 0.591738
O O10 0.055649 0.568940 0.059852
#
# Coordination Sequence:
#
# PCOD9586963 Si02
#       6
#     4   6   4  12   6  12
#     4  12  28  47  79 111 142 197 244 306 379 431
#     4  10  24  48  70 108 150 188 244 304 360 428
#     4  12  27  48  72 102 150 193 242 298 372 444
#     4  12  24  51  74 106 150 186 248 307 363 438
#     4  12  26  46  78 102 142 196 240 306 366 436
#     4  12  26  48  73 109 144 197 243 300 372 443
#
# _framework density 20.671966000000001
#
# number of rings (size 3 to 8) (size 9 to 14) (size 15 to 20)
#    0.273    0.000    5.455    3.273    1.909    0.000 
#    4.091    0.000    0.000    0.000    0.000    0.000 
#    0.000    0.000    0.000    0.000    0.000    0.000 
#
# Total GULP energy -246015.500106 kJ/mol
# GULP energy per Si atom -5591.261366 kJ/mol
# Density = 2.062492 g / cm^3
# Si number density = 20.671966 Si / 1000 Ang^3
#
#
#
# Elastic Constant Matrix: (Units=GPa)
#
#
# Indices 1 2 3 4 5 6 
#
# 1 122.4210 22.2722 50.3424 0.0003 0.0001 0.0024
# 2 22.2722 122.4241 50.3460 -0.0002 0.0001 -0.0031
# 3 50.3424 50.3460 168.4187 0.0001 0.0001 0.0003
# 4 0.0003 -0.0002 0.0001 10.1028 0.0000 0.0000
# 5 0.0001 0.0001 0.0001 0.0000 10.1027 -0.0003
# 6 0.0024 -0.0031 0.0003 0.0000 -0.0003 50.0706
#
#
#
# Elastic Compliance Matrix: (Units=1/GPa)
#
#
# Indices 1 2 3 4 5 6 
#
# 1 0.009356 -0.000629 -0.002608 0.000000 0.000000 0.000000
# 2 -0.000629 0.009356 -0.002609 0.000000 0.000000 0.000001
# 3 -0.002608 -0.002609 0.007497 0.000000 0.000000 0.000000
# 4 0.000000 0.000000 0.000000 0.098983 0.000000 0.000000
# 5 0.000000 0.000000 0.000000 0.000000 0.098984 0.000001
# 6 0.000000 0.000001 0.000000 0.000000 0.000001 0.019972
#
#
# Mechanical properties :
#
#
# Convention : Reuss Voigt Hill
#
# Bulk Modulus (GPa) = 68.89114 73.24278 71.06696
# Shear Modulus (GPa) = 19.18077 33.40876 26.29476
#
# Velocity S-wave (km/s) = 3.04939 4.02448 3.57038
# Velocity P-wave (km/s) = 6.76732 7.55666 7.17286
#
# Compressibility (1/GPa) = 0.01451565
#
# Stress axis : x y z
#
# Youngs Moduli (GPa) = 106.88711 106.88809 133.38583
#
# Poissons Ratio (x) = 0.06727 0.34792
# Poissons Ratio (y) = 0.06727 0.34795
# Poissons Ratio (z) = 0.27880 0.27883
#
# Static dielectric constant tensor:
#      x y z
#    x 1.711730 0.000010 0.000000 
#    y 0.000010 1.711760 0.000000 
#    z 0.000000 0.000000 1.724330 
# 
# From -- ./inp_files/3539.got.cif
#   From: 2010.05.17/outbox.cif.g08.bks.cpg/sg190_2_cif.got.tgz:3539.got - 2010.05.20 12:16:56.
