data_PCOD9586977
_publ_section_title
;
Structure prediction by ZEFSAII (Michael W. Deem and Ramdas Pophale) SiO2 
 PCOD9586977
Probable space group: P -6 2 C
;
_chemical_formula_sum "Si O2"
_cell_formula_units_Z 32
_cell_length_a 10.911105
_cell_length_b 10.911105
_cell_length_c 14.032063
_cell_angle_alpha 90.000000
_cell_angle_beta 90.000000
_cell_angle_gamma 120.000000
_cell_volume 1446.737131
_symmetry_space_group_name_H-M "P -6 2 C"
_symmetry_group_IT_number 190
_symmetry_cell_setting 'hexagonal'
loop_
_space_group_symop_operation_xyz
x,y,z
-x+y,-x,1/2-z
-y,x-y,z
x,y,1/2-z
-x+y,-x,z
-y,x-y,1/2-z
x-y,-y,-z
-x,-x+y,-z
y,x,-z
y,x,1/2+z
x-y,-y,1/2+z
-x,-x+y,1/2+z
loop_
_atom_site_type_symbol
_atom_site_label
_atom_site_fract_x
_atom_site_fract_y
_atom_site_fract_z
Si Si1 0.666668 0.333335 0.864487
Si Si2 0.597947 0.762351 0.026044
Si Si3 0.054196 0.755614 0.856631
Si Si4 0.000000 0.000000 0.114444
O O1 0.666667 0.333334 0.750000
O O2 0.804931 0.343639 0.913414
O O3 0.674758 0.901429 0.092696
O O4 0.688925 0.688925 0.000000
O O5 0.584497 0.827837 0.925528
O O6 0.051530 0.704486 0.750000
O O7 0.076422 0.914243 0.853127
O O8 0.000000 0.000000 0.000000
#
# Coordination Sequence:
#
# PCOD9586977 Si02
#       4
#     4  12  12   4
#     4  12  30  51  70  92 133 195 237 270 340 413
#     4  11  24  43  66 100 135 172 230 287 329 403
#     4  11  20  36  66 101 140 178 219 280 349 399
#     4  12  16  32  55 103 146 172 217 284 340 394
#
# _framework density 22.118736999999999
#
# number of rings (size 3 to 8) (size 9 to 14) (size 15 to 20)
#    0.000    0.750    7.500    2.250    5.250    1.500 
#    0.000    1.875    0.000    0.000    0.000    0.000 
#    0.000    0.000    0.000    0.000    0.000    0.000 
#
# Total GULP energy -178596.793313 kJ/mol
# GULP energy per Si atom -5581.149791 kJ/mol
# Density = 2.206839 g / cm^3
# Si number density = 22.118737 Si / 1000 Ang^3
#
#
#
# Elastic Constant Matrix: (Units=GPa)
#
#
# Indices 1 2 3 4 5 6 
#
# 1 50.4926 16.2389 39.5083 0.0001 0.0001 -0.0002
# 2 16.2389 50.4916 39.5076 0.0001 -0.0001 -0.0002
# 3 39.5083 39.5076 235.6424 0.0001 0.0002 -0.0003
# 4 0.0001 0.0001 0.0001 17.4824 -0.0001 0.0001
# 5 0.0001 -0.0001 0.0002 -0.0001 17.4827 0.0000
# 6 -0.0002 -0.0002 -0.0003 0.0001 0.0000 17.1261
#
#
#
# Elastic Compliance Matrix: (Units=1/GPa)
#
#
# Indices 1 2 3 4 5 6 
#
# 1 0.023946 -0.005248 -0.003135 0.000000 0.000000 0.000000
# 2 -0.005248 0.023946 -0.003135 0.000000 0.000000 0.000000
# 3 -0.003135 -0.003135 0.005295 0.000000 0.000000 0.000000
# 4 0.000000 0.000000 0.000000 0.057201 0.000000 0.000000
# 5 0.000000 0.000000 0.000000 0.000000 0.057199 0.000000
# 6 0.000000 0.000000 0.000000 0.000000 0.000000 0.058390
#
#
# Mechanical properties :
#
#
# Convention : Reuss Voigt Hill
#
# Bulk Modulus (GPa) = 33.16691 58.57068 45.86880
# Shear Modulus (GPa) = 19.30030 26.50970 22.90500
#
# Velocity S-wave (km/s) = 2.95715 3.46572 3.22148
# Velocity P-wave (km/s) = 5.16596 6.52323 5.88386
#
# Compressibility (1/GPa) = 0.03015053
#
# Stress axis : x y z
#
# Youngs Moduli (GPa) = 41.76110 41.76041 188.86125
#
# Poissons Ratio (x) = 0.21918 0.59205
# Poissons Ratio (y) = 0.21918 0.59205
# Poissons Ratio (z) = 0.13091 0.13091
#
# Static dielectric constant tensor:
#      x y z
#    x 1.907130 0.000000 0.000000 
#    y 0.000000 1.907140 0.000000 
#    z 0.000000 0.000000 1.824550 
# 
# From -- ./inp_files/2301.got.cif
#   From: 2010.05.17/outbox.cif.g08.bks.cpg/sg190_2_cif.got.tgz:2301.got - 2010.05.20 12:16:56.
