data_PCOD9586943
_publ_section_title
;
Structure prediction by ZEFSAII (Michael W. Deem and Ramdas Pophale) SiO2 
 PCOD9586943
Probable space group: P -6 2 C
;
_chemical_formula_sum "Si O2"
_cell_formula_units_Z 72
_cell_length_a 15.580835
_cell_length_b 15.580835
_cell_length_c 18.375380
_cell_angle_alpha 90.000000
_cell_angle_beta 90.000000
_cell_angle_gamma 120.000000
_cell_volume 3863.210898
_symmetry_space_group_name_H-M "P -6 2 C"
_symmetry_group_IT_number 190
_symmetry_cell_setting 'hexagonal'
loop_
_space_group_symop_operation_xyz
x,y,z
-x+y,-x,1/2-z
-y,x-y,z
x,y,1/2-z
-x+y,-x,z
-y,x-y,1/2-z
x-y,-y,-z
-x,-x+y,-z
y,x,-z
y,x,1/2+z
x-y,-y,1/2+z
-x,-x+y,1/2+z
loop_
_atom_site_type_symbol
_atom_site_label
_atom_site_fract_x
_atom_site_fract_y
_atom_site_fract_z
Si Si1 0.338335 0.916137 0.663131
Si Si2 0.356847 0.788553 0.953518
Si Si3 0.544169 0.825538 0.337109
Si Si4 0.777123 0.854137 0.661518
Si Si5 0.614616 0.490342 0.606063
Si Si6 0.922532 0.773216 0.661149
O O1 0.343815 0.911089 0.750000
O O2 0.362349 0.840524 0.621957
O O3 0.228959 0.894893 0.642033
O O4 0.416527 0.026172 0.636534
O O5 0.252059 0.685863 0.959916
O O6 0.372260 0.861379 0.019519
O O7 0.542087 0.833152 0.250000
O O8 0.483345 0.873005 0.371357
O O9 0.492320 0.710461 0.359192
O O10 0.659095 0.877972 0.360964
O O11 0.781035 0.856769 0.750000
O O12 0.852521 0.816948 0.637571
O O13 0.809516 0.964656 0.636910
O O14 0.921963 0.773378 0.750000
#
# Coordination Sequence:
#
# PCOD9586943 Si02
#       6
#    12  12  12  12  12  12
#     4  11  23  38  63  93 124 164 208 263 321 381
#     4  10  23  44  63  85 120 167 217 253 315 386
#     4  11  20  32  57  90 125 158 199 260 320 383
#     4   9  17  32  53  84 122 157 198 251 307 364
#     4  12  21  40  60  90 127 159 209 258 329 390
#     4   9  17  30  52  84 121 158 198 246 305 369
#
# _framework density 18.637346000000001
#
# number of rings (size 3 to 8) (size 9 to 14) (size 15 to 20)
#    0.333    1.333    3.333    2.667    0.000    3.333 
#    0.000    1.667    0.000    0.000    0.000    0.000 
#    0.000    0.000    0.000    0.000    0.000    0.000 
#
# Total GULP energy -401764.454628 kJ/mol
# GULP energy per Si atom -5580.061870 kJ/mol
# Density = 1.859493 g / cm^3
# Si number density = 18.637346 Si / 1000 Ang^3
#
#
#
# Elastic Constant Matrix: (Units=GPa)
#
#
# Indices 1 2 3 4 5 6 
#
# 1 72.5778 27.6468 22.2988 0.0000 0.0000 0.0000
# 2 27.6468 72.5778 22.2988 0.0000 0.0000 0.0000
# 3 22.2988 22.2988 67.2609 0.0000 0.0000 0.0000
# 4 0.0000 0.0000 0.0000 18.6391 0.0000 0.0000
# 5 0.0000 0.0000 0.0000 0.0000 18.6391 0.0000
# 6 0.0000 0.0000 0.0000 0.0000 0.0000 22.4655
#
#
#
# Elastic Compliance Matrix: (Units=1/GPa)
#
#
# Indices 1 2 3 4 5 6 
#
# 1 0.016980 -0.005276 -0.003880 0.000000 0.000000 0.000000
# 2 -0.005276 0.016980 -0.003880 0.000000 0.000000 0.000000
# 3 -0.003880 -0.003880 0.017440 0.000000 0.000000 0.000000
# 4 0.000000 0.000000 0.000000 0.053651 0.000000 0.000000
# 5 0.000000 0.000000 0.000000 0.000000 0.053651 0.000000
# 6 0.000000 0.000000 0.000000 0.000000 0.000000 0.044513
#
#
# Mechanical properties :
#
#
# Convention : Reuss Voigt Hill
#
# Bulk Modulus (GPa) = 39.48251 39.65616 39.56934
# Shear Modulus (GPa) = 21.03223 21.29356 21.16289
#
# Velocity S-wave (km/s) = 3.36296 3.38379 3.37339
# Velocity P-wave (km/s) = 6.02577 6.04902 6.03741
#
# Compressibility (1/GPa) = 0.02532767
#
# Stress axis : x y z
#
# Youngs Moduli (GPa) = 58.89182 58.89182 57.33849
#
# Poissons Ratio (x) = 0.31072 0.22249
# Poissons Ratio (y) = 0.31072 0.22249
# Poissons Ratio (z) = 0.22852 0.22852
#
# Static dielectric constant tensor:
#      x y z
#    x 1.635410 0.000000 0.000000 
#    y 0.000000 1.635410 0.000000 
#    z 0.000000 0.000000 1.630710 
# 
# From -- ./inp_files/3757.got.cif
#   From: 2010.05.17/outbox.cif.g08.bks.cpg/sg190_2_cif.got.tgz:3757.got - 2010.05.20 12:16:56.
