data_PCOD9586890
_publ_section_title
;
Structure prediction by ZEFSAII (Michael W. Deem and Ramdas Pophale) SiO2 
 PCOD9586890
Probable space group: P -6 2 C
;
_chemical_formula_sum "Si O2"
_cell_formula_units_Z 60
_cell_length_a 15.156222
_cell_length_b 15.156222
_cell_length_c 14.516531
_cell_angle_alpha 90.000000
_cell_angle_beta 90.000000
_cell_angle_gamma 120.000000
_cell_volume 2887.855067
_symmetry_space_group_name_H-M "P -6 2 C"
_symmetry_group_IT_number 190
_symmetry_cell_setting 'hexagonal'
loop_
_space_group_symop_operation_xyz
x,y,z
-x+y,-x,1/2-z
-y,x-y,z
x,y,1/2-z
-x+y,-x,z
-y,x-y,1/2-z
x-y,-y,-z
-x,-x+y,-z
y,x,-z
y,x,1/2+z
x-y,-y,1/2+z
-x,-x+y,1/2+z
loop_
_atom_site_type_symbol
_atom_site_label
_atom_site_fract_x
_atom_site_fract_y
_atom_site_fract_z
Si Si1 0.222208 0.366162 0.353014
Si Si2 0.190778 0.266200 0.855607
Si Si3 0.474333 0.307406 0.462565
Si Si4 0.481023 0.635671 0.857128
Si Si5 0.724068 0.716537 0.109320
O O1 0.265224 0.396751 0.250000
O O2 0.208291 0.253600 0.372255
O O3 0.106443 0.341210 0.354929
O O4 0.929492 0.154346 0.368290
O O5 0.211765 0.301846 0.750000
O O6 0.246492 0.361563 0.921992
O O7 0.533798 0.418796 0.417704
O O8 0.528698 0.249877 0.415919
O O9 0.451404 0.290125 0.571302
O O10 0.446077 0.623985 0.750000
O O11 0.601282 0.676378 0.855985
O O12 0.714688 0.714688 0.000000
#
# Coordination Sequence:
#
# PCOD9586890 Si02
#       5
#    12  12  12  12  12
#     4  11  23  42  64  93 136 176 212 264 326 396
#     4  10  21  39  64  90 124 168 216 263 319 386
#     4  11  22  40  64  94 126 163 218 272 325 378
#     4  11  22  39  66  96 126 162 215 276 328 379
#     4  11  21  39  66  95 131 169 210 270 328 389
#
# _framework density 20.776665999999999
#
# number of rings (size 3 to 8) (size 9 to 14) (size 15 to 20)
#    0.000    1.200    4.000    5.800    0.000    1.600 
#    1.200    1.000    0.000    0.000    0.000    0.000 
#    0.000    0.000    0.000    0.000    0.000    0.000 
#
# Total GULP energy -334450.844032 kJ/mol
# GULP energy per Si atom -5574.180734 kJ/mol
# Density = 2.072938 g / cm^3
# Si number density = 20.776666 Si / 1000 Ang^3
#
#
#
# Elastic Constant Matrix: (Units=GPa)
#
#
# Indices 1 2 3 4 5 6 
#
# 1 52.0049 16.0037 36.1447 0.0000 0.0000 0.0000
# 2 16.0037 52.0049 36.1447 0.0000 0.0000 0.0000
# 3 36.1447 36.1447 171.1799 0.0000 0.0000 0.0000
# 4 0.0000 0.0000 0.0000 30.7145 0.0000 0.0000
# 5 0.0000 0.0000 0.0000 0.0000 30.7145 0.0000
# 6 0.0000 0.0000 0.0000 0.0000 0.0000 18.0006
#
#
#
# Elastic Compliance Matrix: (Units=1/GPa)
#
#
# Indices 1 2 3 4 5 6 
#
# 1 0.023368 -0.004409 -0.004003 0.000000 0.000000 0.000000
# 2 -0.004409 0.023368 -0.004003 0.000000 0.000000 0.000000
# 3 -0.004003 -0.004003 0.007532 0.000000 0.000000 0.000000
# 4 0.000000 0.000000 0.000000 0.032558 0.000000 0.000000
# 5 0.000000 0.000000 0.000000 0.000000 0.032558 0.000000
# 6 0.000000 0.000000 0.000000 0.000000 0.000000 0.055554
#
#
# Mechanical properties :
#
#
# Convention : Reuss Voigt Hill
#
# Bulk Modulus (GPa) = 33.96983 50.19732 42.08358
# Shear Modulus (GPa) = 23.85711 28.34571 26.10141
#
# Velocity S-wave (km/s) = 3.39228 3.69766 3.54826
# Velocity P-wave (km/s) = 5.63284 6.51484 6.08983
#
# Compressibility (1/GPa) = 0.02943789
#
# Stress axis : x y z
#
# Youngs Moduli (GPa) = 42.79348 42.79348 132.76001
#
# Poissons Ratio (x) = 0.18867 0.53147
# Poissons Ratio (y) = 0.18867 0.53147
# Poissons Ratio (z) = 0.17131 0.17131
#
# Static dielectric constant tensor:
#      x y z
#    x 1.789720 0.000000 0.000000 
#    y 0.000000 1.789720 0.000000 
#    z 0.000000 0.000000 1.764370 
# 
# From -- ./inp_files/2803.got.cif
#   From: 2010.05.17/outbox.cif.g08.bks.cpg/sg190_2_cif.got.tgz:2803.got - 2010.05.20 12:16:56.
