data_PCOD9586775
_publ_section_title
;
Structure prediction by ZEFSAII (Michael W. Deem and Ramdas Pophale) SiO2 
 PCOD9586775
Probable space group: P -6 2 C
;
_chemical_formula_sum "Si O2"
_cell_formula_units_Z 76
_cell_length_a 18.104925
_cell_length_b 18.104925
_cell_length_c 13.388277
_cell_angle_alpha 90.000000
_cell_angle_beta 90.000000
_cell_angle_gamma 120.000000
_cell_volume 3800.570395
_symmetry_space_group_name_H-M "P -6 2 C"
_symmetry_group_IT_number 190
_symmetry_cell_setting 'hexagonal'
loop_
_space_group_symop_operation_xyz
x,y,z
-x+y,-x,1/2-z
-y,x-y,z
x,y,1/2-z
-x+y,-x,z
-y,x-y,1/2-z
x-y,-y,-z
-x,-x+y,-z
y,x,-z
y,x,1/2+z
x-y,-y,1/2+z
-x,-x+y,1/2+z
loop_
_atom_site_type_symbol
_atom_site_label
_atom_site_fract_x
_atom_site_fract_y
_atom_site_fract_z
Si Si1 0.395382 0.295298 0.636286
Si Si2 0.509284 0.337836 0.055783
Si Si3 0.931430 0.235052 0.367536
Si Si4 0.377564 0.115042 0.862891
Si Si5 0.096155 0.469896 0.962682
Si Si6 0.333334 0.666668 0.627536
Si Si7 0.322674 0.239784 0.366051
O O1 0.420046 0.330121 0.750000
O O2 0.472369 0.333967 0.556235
O O3 0.365774 0.195999 0.639740
O O4 0.313101 0.301309 0.603045
O O5 0.566691 0.437493 0.080151
O O6 0.573286 0.303302 0.081251
O O7 0.424346 0.286405 0.119901
O O8 0.935399 0.221332 0.250000
O O9 0.901232 0.304044 0.386762
O O10 0.856180 0.143959 0.409679
O O11 0.031060 0.291070 0.399553
O O12 0.395527 0.097598 0.750000
O O13 0.455794 0.137453 0.937033
O O14 0.000000 0.434714 0.000000
O O15 0.333334 0.666668 0.750000
O O16 0.299029 0.226897 0.250000
#
# Coordination Sequence:
#
# PCOD9586775 Si02
#       7
#    12  12  12  12  12   4  12
#     4  10  21  36  55  80 110 145 184 225 274 333
#     4  12  23  38  55  76 109 144 180 227 282 334
#     4   9  18  33  54  78 104 136 175 219 267 317
#     4   9  18  34  54  75 102 137 177 220 263 314
#     4  10  20  33  52  77 102 133 175 218 262 317
#     4  12  27  42  58  80 106 141 183 231 286 341
#     4  10  20  34  54  80 109 142 181 226 276 332
#
# _framework density 19.996998999999999
#
# number of rings (size 3 to 8) (size 9 to 14) (size 15 to 20)
#    0.000    1.895    0.000    4.737    0.000    3.158 
#    0.000    3.947    0.000    0.632    0.000    4.421 
#    0.000    5.053    0.000    0.632    0.000    0.000 
#
# Total GULP energy -423155.890175 kJ/mol
# GULP energy per Si atom -5567.840660 kJ/mol
# Density = 1.995148 g / cm^3
# Si number density = 19.996999 Si / 1000 Ang^3
#
#
#
# Elastic Constant Matrix: (Units=GPa)
#
#
# Indices 1 2 3 4 5 6 
#
# 1 71.4738 16.0765 -17.7969 -0.0001 0.0001 0.0000
# 2 16.0765 71.4734 -17.7966 0.0000 0.0000 0.0001
# 3 -17.7969 -17.7966 49.5752 0.0001 -0.0001 0.0000
# 4 -0.0001 0.0000 0.0001 27.4100 0.0001 0.0000
# 5 0.0001 0.0000 -0.0001 0.0001 27.4100 0.0000
# 6 0.0000 0.0001 0.0000 0.0000 0.0000 27.6986
#
#
#
# Elastic Compliance Matrix: (Units=1/GPa)
#
#
# Indices 1 2 3 4 5 6 
#
# 1 0.015713 -0.002339 0.004801 0.000000 0.000000 0.000000
# 2 -0.002339 0.015713 0.004801 0.000000 0.000000 0.000000
# 3 0.004801 0.004801 0.023618 0.000000 0.000000 0.000000
# 4 0.000000 0.000000 0.000000 0.036483 0.000000 0.000000
# 5 0.000000 0.000000 0.000000 0.000000 0.036483 0.000000
# 6 0.000000 0.000000 0.000000 0.000000 0.000000 0.036103
#
#
# Mechanical properties :
#
#
# Convention : Reuss Voigt Hill
#
# Bulk Modulus (GPa) = 14.37396 17.05427 15.71411
# Shear Modulus (GPa) = 28.93913 30.63966 29.78939
#
# Velocity S-wave (km/s) = 3.80830 3.91860 3.86384
# Velocity P-wave (km/s) = 5.15182 5.38709 5.27077
#
# Compressibility (1/GPa) = 0.06957024
#
# Stress axis : x y z
#
# Youngs Moduli (GPa) = 63.64291 63.64268 42.33994
#
# Poissons Ratio (x) = 0.14885 -0.20328
# Poissons Ratio (y) = 0.14885 -0.20327
# Poissons Ratio (z) = -0.30555 -0.30555
#
# Static dielectric constant tensor:
#      x y z
#    x 1.743050 0.000000 0.000000 
#    y 0.000000 1.743050 0.000000 
#    z 0.000000 0.000000 1.801810 
# 
# From -- ./inp_files/3056.got.cif
#   From: 2010.05.17/outbox.cif.g08.bks.cpg/sg190_2_cif.got.tgz:3056.got - 2010.05.20 12:16:56.
