data_PCOD9586066
_publ_section_title
;
Structure prediction by ZEFSAII (Michael W. Deem and Ramdas Pophale) SiO2 
 PCOD9586066
Probable space group: P -6 C 2
;
_chemical_formula_sum "Si O2"
_cell_formula_units_Z 58
_cell_length_a 14.389027
_cell_length_b 14.389027
_cell_length_c 14.405727
_cell_angle_alpha 90.000000
_cell_angle_beta 90.000000
_cell_angle_gamma 120.000000
_cell_volume 2583.025342
_symmetry_space_group_name_H-M "P -6 C 2"
_symmetry_group_IT_number 188
_symmetry_cell_setting 'hexagonal'
loop_
_space_group_symop_operation_xyz
x,y,z
-x+y,-x,1/2-z
-y,x-y,z
x,y,1/2-z
-x+y,-x,z
-y,x-y,1/2-z
-y,-x,-z
-x+y,y,-z
x,x-y,-z
-x+y,y,1/2+z
x,x-y,1/2+z
-y,-x,1/2+z
loop_
_atom_site_type_symbol
_atom_site_label
_atom_site_fract_x
_atom_site_fract_y
_atom_site_fract_z
Si Si1 0.109338 0.625377 0.351131
Si Si2 0.615271 0.574194 0.143011
Si Si3 0.706966 0.964642 0.009637
Si Si4 0.333335 0.666667 0.889790
Si Si5 0.132856 0.105604 0.141533
Si Si6 0.806937 0.403469 0.000000
O O1 0.077056 0.646425 0.250000
O O2 0.057546 0.660902 0.430486
O O3 0.236863 0.683870 0.357978
O O4 0.068043 0.499223 0.357475
O O5 0.648211 0.576053 0.250000
O O6 0.697968 0.677137 0.083641
O O7 0.585713 0.463990 0.089120
O O8 0.812000 0.032731 0.072607
O O9 0.696550 0.848275 0.000000
O O10 0.333334 0.666667 0.000000
O O11 0.161130 0.128375 0.250000
O O12 0.087181 0.978627 0.125811
O O13 0.724487 0.448973 0.000000
#
# Coordination Sequence:
#
# PCOD9586066 Si02
#       6
#    12  12  12   4  12   6
#     4  11  22  38  65  96 135 186 241 299 359 436
#     4  11  24  46  71 105 147 185 241 308 373 452
#     4  12  23  38  67  99 143 191 240 299 372 440
#     4  12  22  35  58  93 145 197 242 290 370 451
#     4   8  19  43  68  94 131 181 241 302 363 431
#     4  10  24  50  82 106 138 188 244 312 388 448
#
# _framework density 22.45429
#
# number of rings (size 3 to 8) (size 9 to 14) (size 15 to 20)
#    0.621    0.828    2.069    4.345    0.000    4.966 
#    3.724    0.000    0.000    1.241    0.000    0.000 
#    0.000    0.000    0.000    0.000    0.000    0.000 
#
# Total GULP energy -323946.464531 kJ/mol
# GULP energy per Si atom -5585.283871 kJ/mol
# Density = 2.240318 g / cm^3
# Si number density = 22.454290 Si / 1000 Ang^3
#
#
#
# Elastic Constant Matrix: (Units=GPa)
#
#
# Indices 1 2 3 4 5 6 
#
# 1 85.4543 22.9272 57.2164 -0.0002 0.0000 0.0000
# 2 22.9272 85.4537 57.2163 0.0001 -0.0001 -0.0001
# 3 57.2164 57.2163 195.6664 0.0001 0.0002 0.0000
# 4 -0.0002 0.0001 0.0001 39.0992 -0.0003 0.0001
# 5 0.0000 -0.0001 0.0002 -0.0003 39.1000 -0.0001
# 6 0.0000 -0.0001 0.0000 0.0001 -0.0001 31.2633
#
#
#
# Elastic Compliance Matrix: (Units=1/GPa)
#
#
# Indices 1 2 3 4 5 6 
#
# 1 0.014670 -0.001323 -0.003903 0.000000 0.000000 0.000000
# 2 -0.001323 0.014671 -0.003903 0.000000 0.000000 0.000000
# 3 -0.003903 -0.003903 0.007393 0.000000 0.000000 0.000000
# 4 0.000000 0.000000 0.000000 0.025576 0.000000 0.000000
# 5 0.000000 0.000000 0.000000 0.000000 0.025575 0.000000
# 6 0.000000 0.000000 0.000000 0.000000 0.000000 0.031986
#
#
# Mechanical properties :
#
#
# Convention : Reuss Voigt Hill
#
# Bulk Modulus (GPa) = 54.12299 71.25490 62.68895
# Shear Modulus (GPa) = 34.65271 37.17345 35.91308
#
# Velocity S-wave (km/s) = 3.93269 4.07322 4.00357
# Velocity P-wave (km/s) = 6.69159 7.34327 7.02499
#
# Compressibility (1/GPa) = 0.01847644
#
# Stress axis : x y z
#
# Youngs Moduli (GPa) = 68.16460 68.16399 135.25534
#
# Poissons Ratio (x) = 0.09016 0.52792
# Poissons Ratio (y) = 0.09016 0.52792
# Poissons Ratio (z) = 0.26605 0.26605
#
# Static dielectric constant tensor:
#      x y z
#    x 1.857650 0.000000 0.000000 
#    y 0.000000 1.857650 0.000000 
#    z 0.000000 0.000000 1.846820 
# 
# From -- ./inp_files/2315.got.cif
#   From: 2010.05.17/outbox.cif.g08.bks.cpg/sg188_2_cif.got.tgz:2315.got - 2010.05.20 12:11:46.
