data_PCOD9586813
_publ_section_title
;
Structure prediction by ZEFSAII (Michael W. Deem and Ramdas Pophale) SiO2 
 PCOD9586813
Probable space group: P -6 2 C
;
_chemical_formula_sum "Si O2"
_cell_formula_units_Z 84
_cell_length_a 14.760561
_cell_length_b 14.760561
_cell_length_c 19.608138
_cell_angle_alpha 90.000000
_cell_angle_beta 90.000000
_cell_angle_gamma 120.000000
_cell_volume 3699.752857
_symmetry_space_group_name_H-M "P -6 2 C"
_symmetry_group_IT_number 190
_symmetry_cell_setting 'hexagonal'
loop_
_space_group_symop_operation_xyz
x,y,z
-x+y,-x,1/2-z
-y,x-y,z
x,y,1/2-z
-x+y,-x,z
-y,x-y,1/2-z
x-y,-y,-z
-x,-x+y,-z
y,x,-z
y,x,1/2+z
x-y,-y,1/2+z
-x,-x+y,1/2+z
loop_
_atom_site_type_symbol
_atom_site_label
_atom_site_fract_x
_atom_site_fract_y
_atom_site_fract_z
Si Si1 0.309969 0.463193 0.173152
Si Si2 0.883401 0.184598 0.999355
Si Si3 0.763872 0.905345 0.350198
Si Si4 0.228066 0.093027 0.351200
Si Si5 0.459995 0.184251 0.172536
Si Si6 0.405069 0.488262 0.666806
Si Si7 0.738484 0.464365 0.532550
O O1 0.336829 0.509020 0.250000
O O2 0.202323 0.352941 0.177189
O O3 0.400776 0.436982 0.148037
O O4 0.285320 0.522700 0.113873
O O5 0.865397 0.116540 0.931765
O O6 0.792309 0.213603 0.998545
O O7 0.888480 0.128342 0.067360
O O8 0.000000 0.286664 0.000000
O O9 0.838472 0.860101 0.331206
O O10 0.817229 0.024149 0.326893
O O11 0.336969 0.106130 0.327585
O O12 0.500860 0.211810 0.250000
O O13 0.470038 0.291606 0.144127
O O14 0.516221 0.123536 0.143710
O O15 0.403676 0.483024 0.750000
O O16 0.615671 0.395004 0.513629
#
# Coordination Sequence:
#
# PCOD9586813 Si02
#       7
#    12  12  12  12  12  12  12
#     4  10  20  36  59  84 118 164 203 243 305 372
#     4   9  20  39  60  84 114 155 201 245 304 366
#     4  10  21  37  58  84 124 156 204 255 301 361
#     4  11  21  37  60  89 117 162 205 247 309 369
#     4  10  20  36  58  88 122 156 201 256 305 359
#     4   9  18  34  55  82 119 158 198 245 300 353
#     4   9  21  41  61  86 121 146 191 256 305 355
#
# _framework density 22.704218000000001
#
# number of rings (size 3 to 8) (size 9 to 14) (size 15 to 20)
#    0.286    2.000    1.429    1.000    0.000    5.714 
#    2.571    5.714    0.000    1.714    0.000    0.000 
#    0.000    0.000    0.000    0.000    0.000    0.000 
#
# Total GULP energy -468251.390343 kJ/mol
# GULP energy per Si atom -5574.421314 kJ/mol
# Density = 2.265254 g / cm^3
# Si number density = 22.704218 Si / 1000 Ang^3
#
#
#
# Elastic Constant Matrix: (Units=GPa)
#
#
# Indices 1 2 3 4 5 6 
#
# 1 74.2782 13.9324 13.6855 0.0000 0.0000 0.0000
# 2 13.9324 74.2782 13.6855 0.0000 0.0000 0.0000
# 3 13.6855 13.6855 99.8424 0.0000 0.0000 0.0000
# 4 0.0000 0.0000 0.0000 -2.0497 0.0000 0.0000
# 5 0.0000 0.0000 0.0000 0.0000 -2.0497 0.0000
# 6 0.0000 0.0000 0.0000 0.0000 0.0000 30.1729
#
#
#
# Elastic Compliance Matrix: (Units=1/GPa)
#
#
# Indices 1 2 3 4 5 6 
#
# 1 0.014206 -0.002366 -0.001623 0.000000 0.000000 0.000000
# 2 -0.002366 0.014206 -0.001623 0.000000 0.000000 0.000000
# 3 -0.001623 -0.001623 0.010461 0.000000 0.000000 0.000000
# 4 0.000000 0.000000 0.000000 -0.487884 0.000000 0.000000
# 5 0.000000 0.000000 0.000000 0.000000 -0.487884 0.000000
# 6 0.000000 0.000000 0.000000 0.000000 0.000000 0.033142
#
#
# Mechanical properties :
#
#
# Convention : Reuss Voigt Hill
#
# Bulk Modulus (GPa) = 36.16748 36.77839 36.47293
# Shear Modulus (GPa) = -5.66050 19.02108 6.68029
#
# Velocity S-wave (km/s) = -1.58068 2.89758 1.71718
# Velocity P-wave (km/s) = 3.55430 5.23724 4.47558
#
# Compressibility (1/GPa) = 0.02764915
#
# Stress axis : x y z
#
# Youngs Moduli (GPa) = 70.39465 70.39465 95.59593
#
# Poissons Ratio (x) = 0.16652 0.15515
# Poissons Ratio (y) = 0.16652 0.15515
# Poissons Ratio (z) = 0.11425 0.11425
#
# Static dielectric constant tensor:
#      x y z
#    x 1.811320 0.000000 0.000000 
#    y 0.000000 1.811320 0.000000 
#    z 0.000000 0.000000 1.933880 
# 
# From -- ./inp_files/4710.got.cif
#   From: 2010.05.17/outbox.cif.g08.bks.cpg/sg190_3_cif.got.tgz:4710.got - 2010.05.20 12:16:56.
