data_PCOD9586670
_publ_section_title
;
Structure prediction by ZEFSAII (Michael W. Deem and Ramdas Pophale) SiO2 
 PCOD9586670
Probable space group: P -6 2 C
;
_chemical_formula_sum "Si O2"
_cell_formula_units_Z 72
_cell_length_a 24.475872
_cell_length_b 24.475872
_cell_length_c 8.615914
_cell_angle_alpha 90.000000
_cell_angle_beta 90.000000
_cell_angle_gamma 120.000000
_cell_volume 4470.008343
_symmetry_space_group_name_H-M "P -6 2 C"
_symmetry_group_IT_number 190
_symmetry_cell_setting 'hexagonal'
loop_
_space_group_symop_operation_xyz
x,y,z
-x+y,-x,1/2-z
-y,x-y,z
x,y,1/2-z
-x+y,-x,z
-y,x-y,1/2-z
x-y,-y,-z
-x,-x+y,-z
y,x,-z
y,x,1/2+z
x-y,-y,1/2+z
-x,-x+y,1/2+z
loop_
_atom_site_type_symbol
_atom_site_label
_atom_site_fract_x
_atom_site_fract_y
_atom_site_fract_z
Si Si1 0.593157 0.405346 0.437676
Si Si2 0.262885 0.741032 0.937070
Si Si3 0.930458 0.070686 0.435713
Si Si4 0.930103 0.525731 0.935756
Si Si5 0.145236 0.741638 0.063121
Si Si6 0.811343 0.070311 0.937140
O O1 0.591685 0.407144 0.250000
O O2 0.566871 0.332269 0.483462
O O3 0.665142 0.448789 0.489610
O O4 0.543820 0.424227 0.503893
O O5 0.262690 0.742439 0.750000
O O6 0.213892 0.761284 0.998495
O O7 0.930576 0.069073 0.250000
O O8 0.879645 0.089360 0.495389
O O9 0.000000 0.115957 0.500000
O O10 0.905274 0.000000 0.500000
O O11 0.931618 0.525548 0.750000
O O12 0.901262 0.570151 0.986125
O O13 0.000000 0.553375 0.000000
O O14 0.147994 0.742091 0.250000
O O15 0.116390 0.785203 0.015793
O O16 0.813271 0.067963 0.750000
O O17 0.764575 0.000000 0.000000
#
# Coordination Sequence:
#
# PCOD9586670 Si02
#       6
#    12  12  12  12  12  12
#     4   9  17  30  47  70  96 124 156 193 232 277
#     4   9  17  29  48  70  95 125 158 192 232 278
#     4  11  21  34  51  73  99 127 158 193 232 277
#     4  10  19  31  47  69  95 126 158 193 234 278
#     4   9  19  32  47  69  98 126 156 192 234 279
#     4  10  19  32  49  71  97 126 157 193 233 277
#
# _framework density 16.107351999999999
#
# number of rings (size 3 to 8) (size 9 to 14) (size 15 to 20)
#    0.000    2.333    0.000    4.500    0.000    4.000 
#    0.000    0.000    0.000    3.000    0.000    7.000 
#    0.000    0.000    0.000    0.000    0.000    0.000 
#
# Total GULP energy -401677.648004 kJ/mol
# GULP energy per Si atom -5578.856222 kJ/mol
# Density = 1.607069 g / cm^3
# Si number density = 16.107352 Si / 1000 Ang^3
#
#
#
# Elastic Constant Matrix: (Units=GPa)
#
#
# Indices 1 2 3 4 5 6 
#
# 1 145.1349 96.6664 40.1497 0.0000 0.0000 0.0000
# 2 96.6664 145.1349 40.1497 0.0000 0.0000 0.0000
# 3 40.1497 40.1497 53.8148 0.0000 0.0000 0.0000
# 4 0.0000 0.0000 0.0000 25.5552 0.0000 0.0000
# 5 0.0000 0.0000 0.0000 0.0000 25.5552 0.0000
# 6 0.0000 0.0000 0.0000 0.0000 0.0000 24.2342
#
#
#
# Elastic Compliance Matrix: (Units=1/GPa)
#
#
# Indices 1 2 3 4 5 6 
#
# 1 0.013065 -0.007567 -0.004102 0.000000 0.000000 0.000000
# 2 -0.007567 0.013065 -0.004102 0.000000 0.000000 0.000000
# 3 -0.004102 -0.004102 0.024703 0.000000 0.000000 0.000000
# 4 0.000000 0.000000 0.000000 0.039131 0.000000 0.000000
# 5 0.000000 0.000000 0.000000 0.000000 0.039131 0.000000
# 6 0.000000 0.000000 0.000000 0.000000 0.000000 0.041264
#
#
# Mechanical properties :
#
#
# Convention : Reuss Voigt Hill
#
# Bulk Modulus (GPa) = 51.83704 77.55735 64.69720
# Shear Modulus (GPa) = 24.00041 26.21017 25.10529
#
# Velocity S-wave (km/s) = 3.86428 4.03826 3.95222
# Velocity P-wave (km/s) = 7.22234 8.36649 7.81538
#
# Compressibility (1/GPa) = 0.01929122
#
# Stress axis : x y z
#
# Youngs Moduli (GPa) = 76.54117 76.54117 40.48158
#
# Poissons Ratio (x) = 0.57919 0.16604
# Poissons Ratio (y) = 0.57919 0.16604
# Poissons Ratio (z) = 0.31395 0.31395
#
# Static dielectric constant tensor:
#      x y z
#    x 1.524650 0.000000 0.000000 
#    y 0.000000 1.524650 0.000000 
#    z 0.000000 0.000000 1.545090 
# 
# From -- ./inp_files/1219.got.cif
#   From: 2010.05.17/outbox.cif.g08.bks.cpg/sg190_1_cif.got.tgz:1219.got - 2010.05.20 12:16:56.
