data_PCOD9586473
_publ_section_title
;
Structure prediction by ZEFSAII (Michael W. Deem and Ramdas Pophale) SiO2 
 PCOD9586473
Probable space group: P -6 2 M
;
_chemical_formula_sum "Si O2"
_cell_formula_units_Z 96
_cell_length_a 14.926427
_cell_length_b 14.926427
_cell_length_c 25.252570
_cell_angle_alpha 90.000000
_cell_angle_beta 90.000000
_cell_angle_gamma 120.000000
_cell_volume 4872.456135
_symmetry_space_group_name_H-M "P -6 2 M"
_symmetry_group_IT_number 189
_symmetry_cell_setting 'hexagonal'
loop_
_space_group_symop_operation_xyz
x,y,z
-x+y,-x,-z
-y,x-y,z
x,y,-z
-x+y,-x,z
-y,x-y,-z
x-y,-y,-z
-x,-x+y,-z
y,x,-z
y,x,z
x-y,-y,z
-x,-x+y,z
loop_
_atom_site_type_symbol
_atom_site_label
_atom_site_fract_x
_atom_site_fract_y
_atom_site_fract_z
Si Si1 0.424971 0.874646 0.214132
Si Si2 0.121139 0.586076 0.668867
Si Si3 0.425849 0.173367 0.939418
Si Si4 0.120842 0.238897 0.138824
Si Si5 0.420296 0.187584 0.355994
Si Si6 0.777526 0.652461 0.759434
Si Si7 0.119608 0.239257 0.562361
Si Si8 0.121207 0.597813 0.901149
O O1 0.449193 0.840714 0.269911
O O2 0.306558 0.847661 0.217009
O O3 0.453736 0.840918 0.159956
O O4 0.491462 0.000000 0.213719
O O5 0.185520 0.690317 0.636627
O O6 0.135636 0.491520 0.649901
O O7 0.000000 0.547810 0.667606
O O8 0.328603 0.132286 0.900377
O O9 0.502685 0.132071 0.922971
O O10 0.487956 0.297563 0.932649
O O11 0.393080 0.145311 0.000000
O O12 0.189737 0.189737 0.121694
O O13 0.154919 0.289289 0.197201
O O14 0.000000 0.153207 0.141509
O O15 0.363055 0.170612 0.299206
O O16 0.336245 0.142047 0.401788
O O17 0.716668 0.716668 0.754366
O O18 0.135040 0.266189 0.500000
O O19 0.193556 0.193556 0.577236
O O20 0.000000 0.152129 0.569209
O O21 0.000000 0.563151 0.902609
#
# Coordination Sequence:
#
# PCOD9586473 Si02
#       8
#    12  12  12  12  12  12  12  12
#     4   8  16  33  56  83 111 144 184 229 285 350
#     4  10  21  34  54  87 125 156 196 243 286 353
#     4  12  26  42  62  90 118 151 197 245 304 371
#     4  11  24  42  63  88 119 157 202 251 304 366
#     4  11  21  37  60  89 126 170 207 245 304 363
#     4   9  18  36  59  85 116 151 196 250 302 360
#     4  10  21  39  64  93 124 162 213 271 325 370
#     4  11  23  41  64  86 114 148 187 240 299 356
#
# _framework density 19.702590000000001
#
# number of rings (size 3 to 8) (size 9 to 14) (size 15 to 20)
#    0.000    1.750    1.250    4.125    1.750    4.000 
#    0.000    0.625    0.000    4.500    0.000    0.000 
#    0.000    0.000    0.000    0.000    0.000    0.000 
#
# Total GULP energy -536630.966813 kJ/mol
# GULP energy per Si atom -5589.905904 kJ/mol
# Density = 1.965775 g / cm^3
# Si number density = 19.702590 Si / 1000 Ang^3
#
#
#
# Elastic Constant Matrix: (Units=GPa)
#
#
# Indices 1 2 3 4 5 6 
#
# 1 56.1766 6.1046 15.1630 0.0000 0.0000 0.0000
# 2 6.1046 56.1766 15.1630 0.0000 0.0000 0.0000
# 3 15.1630 15.1630 64.9895 0.0000 0.0000 0.0000
# 4 0.0000 0.0000 0.0000 -47.1508 0.0000 0.0000
# 5 0.0000 0.0000 0.0000 0.0000 -47.1508 0.0000
# 6 0.0000 0.0000 0.0000 0.0000 0.0000 25.0360
#
#
#
# Elastic Compliance Matrix: (Units=1/GPa)
#
#
# Indices 1 2 3 4 5 6 
#
# 1 0.019043 -0.000929 -0.004226 0.000000 0.000000 0.000000
# 2 -0.000929 0.019043 -0.004226 0.000000 0.000000 0.000000
# 3 -0.004226 -0.004226 0.017359 0.000000 0.000000 0.000000
# 4 0.000000 0.000000 0.000000 -0.021209 0.000000 0.000000
# 5 0.000000 0.000000 0.000000 0.000000 -0.021209 0.000000
# 6 0.000000 0.000000 0.000000 0.000000 0.000000 0.039942
#
#
# Mechanical properties :
#
#
# Convention : Reuss Voigt Hill
#
# Bulk Modulus (GPa) = 27.26115 27.80044 27.53079
# Shear Modulus (GPa) = 59.55249 -4.45898 27.54675
#
# Velocity S-wave (km/s) = 5.50376 -1.50601 3.74321
# Velocity P-wave (km/s) = 7.36579 3.33416 5.71714
#
# Compressibility (1/GPa) = 0.03668224
#
# Stress axis : x y z
#
# Youngs Moduli (GPa) = 52.51370 52.51370 57.60636
#
# Poissons Ratio (x) = 0.04876 0.24346
# Poissons Ratio (y) = 0.04876 0.24346
# Poissons Ratio (z) = 0.22194 0.22194
#
# Static dielectric constant tensor:
#      x y z
#    x 1.681750 0.000000 0.000000 
#    y 0.000000 1.681750 0.000000 
#    z 0.000000 0.000000 1.675610 
# 
# From -- ./inp_files/3734.got.cif
#   From: 2010.05.17/outbox.cif.g08.bks.cpg/sg189_2_cif.got.tgz:3734.got - 2010.05.20 12:14:34.
