data_PCOD9586534
_publ_section_title
;
Structure prediction by ZEFSAII (Michael W. Deem and Ramdas Pophale) SiO2 
 PCOD9586534
Probable space group: P -6 2 M
;
_chemical_formula_sum "Si O2"
_cell_formula_units_Z 40
_cell_length_a 17.068623
_cell_length_b 17.068623
_cell_length_c 8.380913
_cell_angle_alpha 90.000000
_cell_angle_beta 90.000000
_cell_angle_gamma 120.000000
_cell_volume 2114.554759
_symmetry_space_group_name_H-M "P -6 2 M"
_symmetry_group_IT_number 189
_symmetry_cell_setting 'hexagonal'
loop_
_space_group_symop_operation_xyz
x,y,z
-x+y,-x,-z
-y,x-y,z
x,y,-z
-x+y,-x,z
-y,x-y,-z
x-y,-y,-z
-x,-x+y,-z
y,x,-z
y,x,z
x-y,-y,z
-x,-x+y,z
loop_
_atom_site_type_symbol
_atom_site_label
_atom_site_fract_x
_atom_site_fract_y
_atom_site_fract_z
Si Si1 0.898811 0.288843 0.307761
Si Si2 0.902740 0.638777 0.810256
Si Si3 0.450400 0.863283 0.690007
Si Si4 0.333334 0.666668 0.192326
O O1 0.895250 0.290077 0.500000
O O2 0.819527 0.190529 0.254803
O O3 0.887390 0.374258 0.253479
O O4 0.000000 0.313624 0.259285
O O5 0.905906 0.548238 0.767411
O O6 0.000000 0.721388 0.752968
O O7 0.899084 0.645024 0.000000
O O8 0.460827 0.878481 0.500000
O O9 0.409850 0.759309 0.735454
O O10 0.333334 0.666668 0.000000
#
# Coordination Sequence:
#
# PCOD9586534 Si02
#       4
#    12  12  12   4
#     4  10  22  39  60  85 112 146 190 237 286 339
#     4  11  24  39  57  84 116 152 192 234 284 339
#     4  11  21  36  58  84 115 156 195 230 276 329
#     4  12  22  32  52  84 121 158 193 231 274 323
#
# _framework density 18.916512999999998
#
# number of rings (size 3 to 8) (size 9 to 14) (size 15 to 20)
#    0.000    1.200    3.000    3.600    0.000    5.400 
#    0.000    0.000    0.000    0.600    0.000    0.000 
#    0.000    0.000    0.000    0.000    0.000    0.000 
#
# Total GULP energy -223123.744897 kJ/mol
# GULP energy per Si atom -5578.093622 kJ/mol
# Density = 1.887346 g / cm^3
# Si number density = 18.916513 Si / 1000 Ang^3
#
#
#
# Elastic Constant Matrix: (Units=GPa)
#
#
# Indices 1 2 3 4 5 6 
#
# 1 100.9912 58.9247 8.9062 -0.0001 -0.0006 0.0006
# 2 58.9247 100.9895 8.9056 0.0000 -0.0005 0.0007
# 3 8.9062 8.9056 17.4168 0.0002 0.0000 0.0000
# 4 -0.0001 0.0000 0.0002 7.1531 0.0001 0.0000
# 5 -0.0006 -0.0005 0.0000 0.0001 7.1530 0.0000
# 6 0.0006 0.0007 0.0000 0.0000 0.0000 21.0326
#
#
#
# Elastic Compliance Matrix: (Units=1/GPa)
#
#
# Indices 1 2 3 4 5 6 
#
# 1 0.015202 -0.008571 -0.003391 0.000000 0.000001 0.000000
# 2 -0.008571 0.015202 -0.003390 0.000000 0.000000 0.000000
# 3 -0.003391 -0.003390 0.060883 -0.000002 0.000000 0.000000
# 4 0.000000 0.000000 -0.000002 0.139800 -0.000001 0.000000
# 5 0.000001 0.000000 0.000000 -0.000001 0.139802 0.000000
# 6 0.000000 0.000000 0.000000 0.000000 0.000000 0.047545
#
#
# Mechanical properties :
#
#
# Convention : Reuss Voigt Hill
#
# Bulk Modulus (GPa) = 16.50641 41.43004 28.96822
# Shear Modulus (GPa) = 10.65343 16.57847 13.61595
#
# Velocity S-wave (km/s) = 2.37572 2.96362 2.68580
# Velocity P-wave (km/s) = 4.03364 5.80171 4.99650
#
# Compressibility (1/GPa) = 0.06058254
#
# Stress axis : x y z
#
# Youngs Moduli (GPa) = 65.78260 65.78184 16.42488
#
# Poissons Ratio (x) = 0.56380 0.05570
# Poissons Ratio (y) = 0.56380 0.05569
# Poissons Ratio (z) = 0.22307 0.22302
#
# Static dielectric constant tensor:
#      x y z
#    x 1.659930 0.000000 0.000000 
#    y 0.000000 1.659940 0.000000 
#    z 0.000000 0.000000 1.643310 
# 
# From -- ./inp_files/483.got.cif
#   From: 2010.05.17/outbox.cif.g08.bks.cpg/sg189_1_cif.got.tgz:483.got - 2010.05.20 12:14:34.
