data_PCOD9586514
_publ_section_title
;
Structure prediction by ZEFSAII (Michael W. Deem and Ramdas Pophale) SiO2 
 PCOD9586514
Probable space group: P -6 2 M
;
_chemical_formula_sum "Si O2"
_cell_formula_units_Z 84
_cell_length_a 14.049061
_cell_length_b 14.049061
_cell_length_c 24.185742
_cell_angle_alpha 90.000000
_cell_angle_beta 90.000000
_cell_angle_gamma 120.000000
_cell_volume 4134.134899
_symmetry_space_group_name_H-M "P -6 2 M"
_symmetry_group_IT_number 189
_symmetry_cell_setting 'hexagonal'
loop_
_space_group_symop_operation_xyz
x,y,z
-x+y,-x,-z
-y,x-y,z
x,y,-z
-x+y,-x,z
-y,x-y,-z
x-y,-y,-z
-x,-x+y,-z
y,x,-z
y,x,z
x-y,-y,z
-x,-x+y,z
loop_
_atom_site_type_symbol
_atom_site_label
_atom_site_fract_x
_atom_site_fract_y
_atom_site_fract_z
Si Si1 0.802167 0.683727 0.814941
Si Si2 0.413055 0.873337 0.175824
Si Si3 0.194174 0.322825 0.060713
Si Si4 0.687607 0.124145 0.740471
Si Si5 0.552456 0.422976 0.058373
Si Si6 0.873567 0.341836 0.565050
Si Si7 0.131673 0.679577 0.615441
O O1 0.784824 0.784824 0.800623
O O2 0.688514 0.571357 0.803658
O O3 0.822773 0.686869 0.880956
O O4 0.880596 0.662930 0.775614
O O5 0.458681 0.821024 0.219083
O O6 0.385241 0.821582 0.115008
O O7 0.512790 0.000000 0.166805
O O8 0.231604 0.231604 0.061621
O O9 0.307011 0.439795 0.061101
O O10 0.140908 0.314422 0.000000
O O11 0.716792 0.168529 0.678914
O O12 0.589787 0.000000 0.730556
O O13 0.516005 0.516005 0.056837
O O14 0.609511 0.431202 0.000000
O O15 0.865141 0.361403 0.500000
O O16 0.783449 0.217278 0.579553
O O17 0.854111 0.429816 0.599047
O O18 0.000000 0.374600 0.575968
O O19 0.000000 0.635650 0.608591
#
# Coordination Sequence:
#
# PCOD9586514 Si02
#       7
#    12  12  12  12  12  12  12
#     4  11  22  33  52  81 109 141 186 242 289 335
#     4   9  18  32  48  70 101 134 175 226 275 330
#     4   9  17  32  54  75  98 135 180 227 290 360
#     4  10  21  39  57  76 110 153 194 227 274 340
#     4   8  13  25  47  67  85 122 171 213 263 332
#     4  10  21  38  63  96 130 162 202 253 301 352
#     4  10  22  38  61  91 127 172 210 248 300 360
#
# _framework density 20.318641
#
# number of rings (size 3 to 8) (size 9 to 14) (size 15 to 20)
#    0.000    2.429    1.429    2.000    2.000    2.286 
#    0.857    1.429    0.000    2.571    0.000    0.000 
#    0.000    0.000    0.000    0.000    0.000    0.000 
#
# Total GULP energy -468132.580840 kJ/mol
# GULP energy per Si atom -5573.006915 kJ/mol
# Density = 2.027240 g / cm^3
# Si number density = 20.318641 Si / 1000 Ang^3
#
#
#
# Elastic Constant Matrix: (Units=GPa)
#
#
# Indices 1 2 3 4 5 6 
#
# 1 70.1950 28.9200 24.3755 0.0000 0.0000 0.0000
# 2 28.9200 70.1950 24.3755 0.0000 0.0000 0.0000
# 3 24.3755 24.3755 103.2261 0.0000 0.0000 0.0000
# 4 0.0000 0.0000 0.0000 1.2752 0.0000 0.0000
# 5 0.0000 0.0000 0.0000 0.0000 1.2752 0.0000
# 6 0.0000 0.0000 0.0000 0.0000 0.0000 20.6375
#
#
#
# Elastic Compliance Matrix: (Units=1/GPa)
#
#
# Indices 1 2 3 4 5 6 
#
# 1 0.017821 -0.006406 -0.002696 0.000000 0.000000 0.000000
# 2 -0.006406 0.017821 -0.002696 0.000000 0.000000 0.000000
# 3 -0.002696 -0.002696 0.010960 0.000000 0.000000 0.000000
# 4 0.000000 0.000000 0.000000 0.784213 0.000000 0.000000
# 5 0.000000 0.000000 0.000000 0.000000 0.784212 0.000000
# 6 0.000000 0.000000 0.000000 0.000000 0.000000 0.048455
#
#
# Mechanical properties :
#
#
# Convention : Reuss Voigt Hill
#
# Bulk Modulus (GPa) = 43.46197 44.32867 43.89532
# Shear Modulus (GPa) = 2.95029 15.70058 9.32544
#
# Velocity S-wave (km/s) = 1.20630 2.78280 2.14466
# Velocity P-wave (km/s) = 4.83496 5.67357 5.27097
#
# Compressibility (1/GPa) = 0.02300862
#
# Stress axis : x y z
#
# Youngs Moduli (GPa) = 56.11223 56.11223 91.23678
#
# Poissons Ratio (x) = 0.35947 0.24593
# Poissons Ratio (y) = 0.35947 0.24593
# Poissons Ratio (z) = 0.15125 0.15125
#
# Static dielectric constant tensor:
#      x y z
#    x 1.744940 0.000000 0.000000 
#    y 0.000000 1.744940 0.000000 
#    z 0.000000 0.000000 1.792490 
# 
# From -- ./inp_files/3604.got.cif
#   From: 2010.05.17/outbox.cif.g08.bks.cpg/sg189_2_cif.got.tgz:3604.got - 2010.05.20 12:14:34.
