data_PCOD9586208
_publ_section_title
;
Structure prediction by ZEFSAII (Michael W. Deem and Ramdas Pophale) SiO2 
 PCOD9586208
Probable space group: P -6 2 M
;
_chemical_formula_sum "Si O2"
_cell_formula_units_Z 60
_cell_length_a 16.558283
_cell_length_b 16.558283
_cell_length_c 14.330215
_cell_angle_alpha 90.000000
_cell_angle_beta 90.000000
_cell_angle_gamma 120.000000
_cell_volume 3402.623834
_symmetry_space_group_name_H-M "P -6 2 M"
_symmetry_group_IT_number 189
_symmetry_cell_setting 'hexagonal'
loop_
_space_group_symop_operation_xyz
x,y,z
-x+y,-x,-z
-y,x-y,z
x,y,-z
-x+y,-x,z
-y,x-y,-z
x-y,-y,-z
-x,-x+y,-z
y,x,-z
y,x,z
x-y,-y,z
-x,-x+y,z
loop_
_atom_site_type_symbol
_atom_site_label
_atom_site_fract_x
_atom_site_fract_y
_atom_site_fract_z
Si Si1 0.889823 0.781483 0.724525
Si Si2 0.514067 0.622302 0.230433
Si Si3 0.629682 0.112686 0.895154
Si Si4 0.113859 0.378198 0.606730
Si Si5 0.148726 0.352413 0.108178
O O1 0.855188 0.855188 0.706025
O O2 0.833778 0.695192 0.653499
O O3 0.853190 0.737323 0.826845
O O4 0.000000 0.828664 0.717070
O O5 0.549481 0.549481 0.250389
O O6 0.413949 0.563261 0.182645
O O7 0.533636 0.681967 0.324468
O O8 0.584451 0.695145 0.153981
O O9 0.739167 0.153310 0.885052
O O10 0.577190 0.000000 0.889654
O O11 0.611803 0.136047 0.000000
O O12 0.144105 0.400268 0.500000
O O13 0.000000 0.323656 0.608523
O O14 0.122728 0.331316 0.000000
#
# Coordination Sequence:
#
# PCOD9586208 Si02
#       5
#    12  12  12  12  12
#     4  10  20  32  47  69  99 136 176 216 255 295
#     4   9  17  30  49  70  92 122 158 198 246 298
#     4   9  17  29  45  66  93 123 153 189 238 295
#     4   8  15  29  49  71  92 117 155 201 244 289
#     4  10  19  31  47  68  95 130 166 205 250 298
#
# _framework density 17.633451000000001
#
# number of rings (size 3 to 8) (size 9 to 14) (size 15 to 20)
#    0.000    2.800    0.000    3.200    0.000    4.000 
#    1.200    0.000    0.000    7.200    0.000    5.600 
#    0.000    0.000    0.000    0.000    0.000    0.000 
#
# Total GULP energy -334299.841656 kJ/mol
# GULP energy per Si atom -5571.664028 kJ/mol
# Density = 1.759332 g / cm^3
# Si number density = 17.633451 Si / 1000 Ang^3
#
#
#
# Elastic Constant Matrix: (Units=GPa)
#
#
# Indices 1 2 3 4 5 6 
#
# 1 45.3040 4.7533 23.7780 0.0000 0.0000 0.0000
# 2 4.7533 45.3040 23.7780 0.0000 0.0000 0.0000
# 3 23.7780 23.7780 125.3077 0.0000 0.0000 0.0000
# 4 0.0000 0.0000 0.0000 14.2058 0.0000 0.0000
# 5 0.0000 0.0000 0.0000 0.0000 14.2058 0.0000
# 6 0.0000 0.0000 0.0000 0.0000 0.0000 20.2753
#
#
#
# Elastic Compliance Matrix: (Units=1/GPa)
#
#
# Indices 1 2 3 4 5 6 
#
# 1 0.024516 -0.000145 -0.004624 0.000000 0.000000 0.000000
# 2 -0.000145 0.024516 -0.004624 0.000000 0.000000 0.000000
# 3 -0.004624 -0.004624 0.009735 0.000000 0.000000 0.000000
# 4 0.000000 0.000000 0.000000 0.070394 0.000000 0.000000
# 5 0.000000 0.000000 0.000000 0.000000 0.070394 0.000000
# 6 0.000000 0.000000 0.000000 0.000000 0.000000 0.049321
#
#
# Mechanical properties :
#
#
# Convention : Reuss Voigt Hill
#
# Bulk Modulus (GPa) = 25.01344 35.61492 30.31418
# Shear Modulus (GPa) = 17.79427 20.64446 19.21937
#
# Velocity S-wave (km/s) = 3.18011 3.42534 3.30500
# Velocity P-wave (km/s) = 5.26309 5.99042 5.63850
#
# Compressibility (1/GPa) = 0.03997850
#
# Stress axis : x y z
#
# Youngs Moduli (GPa) = 40.79051 40.79051 102.71789
#
# Poissons Ratio (x) = 0.00592 0.47502
# Poissons Ratio (y) = 0.00592 0.47502
# Poissons Ratio (z) = 0.18863 0.18863
#
# Static dielectric constant tensor:
#      x y z
#    x 1.601370 0.000000 0.000000 
#    y 0.000000 1.601370 0.000000 
#    z 0.000000 0.000000 1.616340 
# 
# From -- ./inp_files/2519.got.cif
#   From: 2010.05.17/outbox.cif.g08.bks.cpg/sg189_2_cif.got.tgz:2519.got - 2010.05.20 12:14:34.
