data_PCOD9586841
_publ_section_title
;
Structure prediction by ZEFSAII (Michael W. Deem and Ramdas Pophale) SiO2 
 PCOD9586841
Probable space group: P -6 2 C
;
_chemical_formula_sum "Si O2"
_cell_formula_units_Z 42
_cell_length_a 13.439455
_cell_length_b 13.439455
_cell_length_c 12.745925
_cell_angle_alpha 90.000000
_cell_angle_beta 90.000000
_cell_angle_gamma 120.000000
_cell_volume 1993.725232
_symmetry_space_group_name_H-M "P -6 2 C"
_symmetry_group_IT_number 190
_symmetry_cell_setting 'hexagonal'
loop_
_space_group_symop_operation_xyz
x,y,z
-x+y,-x,1/2-z
-y,x-y,z
x,y,1/2-z
-x+y,-x,z
-y,x-y,1/2-z
x-y,-y,-z
-x,-x+y,-z
y,x,-z
y,x,1/2+z
x-y,-y,1/2+z
-x,-x+y,1/2+z
loop_
_atom_site_type_symbol
_atom_site_label
_atom_site_fract_x
_atom_site_fract_y
_atom_site_fract_z
Si Si1 0.912925 0.218414 0.126152
Si Si2 0.137200 0.449211 0.437926
Si Si3 0.890005 0.540111 0.867696
Si Si4 0.229113 0.229113 0.000000
O O1 0.889063 0.200347 0.250000
O O2 0.042435 0.324723 0.109001
O O3 0.878300 0.099354 0.064626
O O4 0.843110 0.265908 0.057762
O O5 0.253868 0.497366 0.374417
O O6 0.094067 0.539346 0.428058
O O7 0.930283 0.544980 0.750000
O O8 0.947666 0.666932 0.916238
#
# Coordination Sequence:
#
# PCOD9586841 Si02
#       4
#    12  12  12   6
#     4  10  20  39  59  85 124 167 210 272 330 379
#     4  10  22  36  60  93 126 163 215 260 322 401
#     4  11  20  35  57  88 122 161 204 258 317 386
#     4  10  22  34  56  86 116 160 220 260 314 392
#
# _framework density 21.066091
#
# number of rings (size 3 to 8) (size 9 to 14) (size 15 to 20)
#    0.000    1.714    0.000    5.714    0.000    0.000 
#    0.000    7.143    0.000   37.714    0.000   52.000 
#    0.000    0.000    0.000    0.000    0.000    0.000 
#
# Total GULP energy -233940.876887 kJ/mol
# GULP energy per Si atom -5570.020878 kJ/mol
# Density = 2.101814 g / cm^3
# Si number density = 21.066091 Si / 1000 Ang^3
#
#
#
# Elastic Constant Matrix: (Units=GPa)
#
#
# Indices 1 2 3 4 5 6 
#
# 1 99.8086 39.9003 35.9274 0.0000 0.0000 0.0000
# 2 39.9003 99.8086 35.9274 0.0000 0.0000 0.0000
# 3 35.9274 35.9274 152.6169 0.0000 0.0000 0.0000
# 4 0.0000 0.0000 0.0000 19.7403 0.0000 0.0000
# 5 0.0000 0.0000 0.0000 0.0000 19.7403 0.0000
# 6 0.0000 0.0000 0.0000 0.0000 0.0000 29.9542
#
#
#
# Elastic Compliance Matrix: (Units=1/GPa)
#
#
# Indices 1 2 3 4 5 6 
#
# 1 0.012418 -0.004274 -0.001917 0.000000 0.000000 0.000000
# 2 -0.004274 0.012418 -0.001917 0.000000 0.000000 0.000000
# 3 -0.001917 -0.001917 0.007455 0.000000 0.000000 0.000000
# 4 0.000000 0.000000 0.000000 0.050658 0.000000 0.000000
# 5 0.000000 0.000000 0.000000 0.000000 0.050658 0.000000
# 6 0.000000 0.000000 0.000000 0.000000 0.000000 0.033384
#
#
# Mechanical properties :
#
#
# Convention : Reuss Voigt Hill
#
# Bulk Modulus (GPa) = 62.21222 63.97159 63.09191
# Shear Modulus (GPa) = 26.51599 29.91890 28.21745
#
# Velocity S-wave (km/s) = 3.55167 3.77270 3.66385
# Velocity P-wave (km/s) = 6.81287 7.02927 6.92192
#
# Compressibility (1/GPa) = 0.01607401
#
# Stress axis : x y z
#
# Youngs Moduli (GPa) = 80.52851 80.52851 134.13876
#
# Poissons Ratio (x) = 0.34420 0.25716
# Poissons Ratio (y) = 0.34420 0.25716
# Poissons Ratio (z) = 0.15438 0.15438
#
# Static dielectric constant tensor:
#      x y z
#    x 1.806980 0.000000 0.000000 
#    y 0.000000 1.806980 0.000000 
#    z 0.000000 0.000000 1.805320 
# 
# From -- ./inp_files/1735.got.cif
#   From: 2010.05.17/outbox.cif.g08.bks.cpg/sg190_1_cif.got.tgz:1735.got - 2010.05.20 12:16:56.
