data_PCOD9586957
_publ_section_title
;
Structure prediction by ZEFSAII (Michael W. Deem and Ramdas Pophale) SiO2 
 PCOD9586957
Probable space group: P -6 2 C
;
_chemical_formula_sum "Si O2"
_cell_formula_units_Z 68
_cell_length_a 11.654339
_cell_length_b 11.654339
_cell_length_c 27.361415
_cell_angle_alpha 90.000000
_cell_angle_beta 90.000000
_cell_angle_gamma 120.000000
_cell_volume 3218.433042
_symmetry_space_group_name_H-M "P -6 2 C"
_symmetry_group_IT_number 190
_symmetry_cell_setting 'hexagonal'
loop_
_space_group_symop_operation_xyz
x,y,z
-x+y,-x,1/2-z
-y,x-y,z
x,y,1/2-z
-x+y,-x,z
-y,x-y,1/2-z
x-y,-y,-z
-x,-x+y,-z
y,x,-z
y,x,1/2+z
x-y,-y,1/2+z
-x,-x+y,1/2+z
loop_
_atom_site_type_symbol
_atom_site_label
_atom_site_fract_x
_atom_site_fract_y
_atom_site_fract_z
Si Si1 0.333334 0.666667 0.648027
Si Si2 0.745740 0.731544 0.152575
Si Si3 0.476080 0.516804 0.807896
Si Si4 0.016599 0.763841 0.308553
Si Si5 0.887132 0.554680 0.531964
Si Si6 0.663556 0.612630 0.944712
Si Si7 0.333334 0.666667 0.533082
O O1 0.183894 0.598021 0.666955
O O2 0.333334 0.666667 0.590114
O O3 0.606308 0.628835 0.177831
O O4 0.867704 0.723175 0.175642
O O5 0.719822 0.685730 0.096067
O O6 0.772075 0.878255 0.162771
O O7 0.463119 0.525689 0.750000
O O8 0.396991 0.361401 0.820005
O O9 0.031099 0.789089 0.250000
O O10 0.940419 0.470685 0.561903
O O11 0.789046 0.589850 0.559825
O O12 0.797681 0.451138 0.490149
O O13 0.000000 0.671892 0.500000
O O14 0.657234 0.657234 0.000000
#
# Coordination Sequence:
#
# PCOD9586957 Si02
#       7
#     4  12  12  12  12  12   4
#     4  12  22  34  72 102 132 156 228 289 352 394
#     4  12  26  44  72  99 137 182 238 272 352 418
#     4  11  24  42  66  98 132 168 222 292 347 400
#     4  11  25  46  71  99 136 183 229 285 348 417
#     4   9  20  39  63  83 138 175 209 272 333 386
#     4  10  24  41  62 100 132 175 231 276 338 412
#     4   9  21  34  55  99 120 171 214 253 333 412
#
# _framework density 21.128295000000001
#
# number of rings (size 3 to 8) (size 9 to 14) (size 15 to 20)
#    0.000    1.412    1.765    2.824    9.882    1.412 
#    1.059    0.000    0.000    0.353    0.000    0.000 
#    0.000    0.000    0.000    0.000    0.000    0.000 
#
# Total GULP energy -380012.503094 kJ/mol
# GULP energy per Si atom -5588.419163 kJ/mol
# Density = 2.108021 g / cm^3
# Si number density = 21.128295 Si / 1000 Ang^3
#
#
#
# Elastic Constant Matrix: (Units=GPa)
#
#
# Indices 1 2 3 4 5 6 
#
# 1 99.7181 -35.6242 2.6514 -0.0018 0.0020 0.0014
# 2 -35.6242 99.7199 2.6495 0.0015 -0.0013 -0.0007
# 3 2.6514 2.6495 86.6239 0.0001 -0.0009 -0.0006
# 4 -0.0018 0.0015 0.0001 4.8526 -0.0030 0.0016
# 5 0.0020 -0.0013 -0.0009 -0.0030 4.8492 0.0017
# 6 0.0014 -0.0007 -0.0006 0.0016 0.0017 67.6727
#
#
#
# Elastic Compliance Matrix: (Units=1/GPa)
#
#
# Indices 1 2 3 4 5 6 
#
# 1 0.011515 0.004126 -0.000479 0.000003 -0.000004 0.000000
# 2 0.004126 0.011515 -0.000478 -0.000002 0.000001 0.000000
# 3 -0.000479 -0.000478 0.011573 0.000000 0.000002 0.000000
# 4 0.000003 -0.000002 0.000000 0.206076 0.000128 -0.000005
# 5 -0.000004 0.000001 0.000002 0.000128 0.206218 -0.000005
# 6 0.000000 0.000000 0.000000 -0.000005 -0.000005 0.014777
#
#
# Mechanical properties :
#
#
# Convention : Reuss Voigt Hill
#
# Bulk Modulus (GPa) = 24.42478 25.04615 24.73546
# Shear Modulus (GPa) = 10.66137 36.56726 23.61431
#
# Velocity S-wave (km/s) = 2.24877 4.16471 3.34677
# Velocity P-wave (km/s) = 4.28111 5.91663 5.16403
#
# Compressibility (1/GPa) = 0.04094203
#
# Stress axis : x y z
#
# Youngs Moduli (GPa) = 86.84211 86.84374 86.40465
#
# Poissons Ratio (x) = -0.35835 0.04136
# Poissons Ratio (y) = -0.35835 0.04134
# Poissons Ratio (z) = 0.04157 0.04155
#
# Static dielectric constant tensor:
#      x y z
#    x 1.747490 0.000000 0.000000 
#    y 0.000000 1.747490 0.000000 
#    z 0.000000 0.000000 1.765070 
# 
# From -- ./inp_files/5156.got.cif
#   From: 2010.05.17/outbox.cif.g08.bks.cpg/sg190_3_cif.got.tgz:5156.got - 2010.05.20 12:16:56.
