data_PCOD9586867
_publ_section_title
;
Structure prediction by ZEFSAII (Michael W. Deem and Ramdas Pophale) SiO2 
 PCOD9586867
Probable space group: P -6 2 C
;
_chemical_formula_sum "Si O2"
_cell_formula_units_Z 52
_cell_length_a 16.182230
_cell_length_b 16.182230
_cell_length_c 14.930913
_cell_angle_alpha 90.000000
_cell_angle_beta 90.000000
_cell_angle_gamma 120.000000
_cell_volume 3386.052876
_symmetry_space_group_name_H-M "P -6 2 C"
_symmetry_group_IT_number 190
_symmetry_cell_setting 'hexagonal'
loop_
_space_group_symop_operation_xyz
x,y,z
-x+y,-x,1/2-z
-y,x-y,z
x,y,1/2-z
-x+y,-x,z
-y,x-y,1/2-z
x-y,-y,-z
-x,-x+y,-z
y,x,-z
y,x,1/2+z
x-y,-y,1/2+z
-x,-x+y,1/2+z
loop_
_atom_site_type_symbol
_atom_site_label
_atom_site_fract_x
_atom_site_fract_y
_atom_site_fract_z
Si Si1 0.804579 0.000000 0.000000
Si Si2 0.357683 0.276382 0.644580
Si Si3 0.443088 0.556912 0.141076
Si Si4 0.666667 0.333333 0.640814
Si Si5 0.195421 0.000000 0.000000
Si Si6 0.276383 0.918700 0.144580
O O1 0.734847 0.978458 0.084424
O O2 0.907086 0.092914 0.014863
O O3 0.339206 0.281427 0.750000
O O4 0.446888 0.377429 0.614806
O O5 0.385449 0.192724 0.636211
O O6 0.442736 0.557264 0.250000
O O7 0.388002 0.611998 0.111621
O O8 0.553112 0.622571 0.114805
O O9 0.666667 0.333334 0.750000
O O10 0.265153 0.021542 0.915576
O O11 0.281427 0.942221 0.250000
#
# Coordination Sequence:
#
# PCOD9586867 Si02
#       6
#     6  12  12   4   6  12
#     4  10  21  35  48  62  84 118 160 203 241 270
#     4   9  17  29  46  69  94 117 144 180 221 270
#     4   9  14  23  43  71  98 121 140 165 214 275
#     4   9  12  18  39  69  99 123 136 158 211 276
#     4  10  21  35  48  62  84 118 160 203 241 270
#     4   9  17  29  46  69  94 117 144 180 221 270
#
# _framework density 15.357113
#
# number of rings (size 3 to 8) (size 9 to 14) (size 15 to 20)
#    0.000    2.769    2.308    0.231    0.000    1.846 
#    0.000    0.000    0.000    2.769    0.000    0.000 
#    2.308    0.000    1.385    0.000    0.000    0.000 
#
# Total GULP energy -289515.713996 kJ/mol
# GULP energy per Si atom -5567.609885 kJ/mol
# Density = 1.532216 g / cm^3
# Si number density = 15.357113 Si / 1000 Ang^3
#
#
#
# Elastic Constant Matrix: (Units=GPa)
#
#
# Indices 1 2 3 4 5 6 
#
# 1 112.0660 71.1929 45.5953 0.0000 0.0000 0.0000
# 2 71.1929 112.0660 45.5953 0.0000 0.0000 0.0000
# 3 45.5953 45.5953 54.2572 0.0000 0.0000 0.0000
# 4 0.0000 0.0000 0.0000 16.4466 0.0000 0.0000
# 5 0.0000 0.0000 0.0000 0.0000 16.4466 0.0000
# 6 0.0000 0.0000 0.0000 0.0000 0.0000 20.4366
#
#
#
# Elastic Compliance Matrix: (Units=1/GPa)
#
#
# Indices 1 2 3 4 5 6 
#
# 1 0.016922 -0.007544 -0.007881 0.000000 0.000000 0.000000
# 2 -0.007544 0.016922 -0.007881 0.000000 0.000000 0.000000
# 3 -0.007881 -0.007881 0.031677 0.000000 0.000000 0.000000
# 4 0.000000 0.000000 0.000000 0.060803 0.000000 0.000000
# 5 0.000000 0.000000 0.000000 0.000000 0.060803 0.000000
# 6 0.000000 0.000000 0.000000 0.000000 0.000000 0.048932
#
#
# Mechanical properties :
#
#
# Convention : Reuss Voigt Hill
#
# Bulk Modulus (GPa) = 52.88549 67.01734 59.95142
# Shear Modulus (GPa) = 17.30255 18.39966 17.85111
#
# Velocity S-wave (km/s) = 3.36025 3.46514 3.41310
# Velocity P-wave (km/s) = 7.04038 7.72940 7.39292
#
# Compressibility (1/GPa) = 0.01890878
#
# Stress axis : x y z
#
# Youngs Moduli (GPa) = 59.09382 59.09382 31.56880
#
# Poissons Ratio (x) = 0.44579 0.24880
# Poissons Ratio (y) = 0.44579 0.24880
# Poissons Ratio (z) = 0.46574 0.46574
#
# Static dielectric constant tensor:
#      x y z
#    x 1.511310 0.000000 0.000000 
#    y 0.000000 1.511310 0.000000 
#    z 0.000000 0.000000 1.493080 
# 
# From -- ./inp_files/2736.got.cif
#   From: 2010.05.17/outbox.cif.g08.bks.cpg/sg190_2_cif.got.tgz:2736.got - 2010.05.20 12:16:56.
