data_PCOD9586150
_publ_section_title
;
Structure prediction by ZEFSAII (Michael W. Deem and Ramdas Pophale) SiO2 
 PCOD9586150
Probable space group: P -6 2 M
;
_chemical_formula_sum "Si O2"
_cell_formula_units_Z 96
_cell_length_a 14.918876
_cell_length_b 14.918876
_cell_length_c 28.598541
_cell_angle_alpha 90.000000
_cell_angle_beta 90.000000
_cell_angle_gamma 120.000000
_cell_volume 5512.476077
_symmetry_space_group_name_H-M "P -6 2 M"
_symmetry_group_IT_number 189
_symmetry_cell_setting 'hexagonal'
loop_
_space_group_symop_operation_xyz
x,y,z
-x+y,-x,-z
-y,x-y,z
x,y,-z
-x+y,-x,z
-y,x-y,-z
x-y,-y,-z
-x,-x+y,-z
y,x,-z
y,x,z
x-y,-y,z
-x,-x+y,z
loop_
_atom_site_type_symbol
_atom_site_label
_atom_site_fract_x
_atom_site_fract_y
_atom_site_fract_z
Si Si1 0.402611 0.522173 0.055141
Si Si2 0.876084 0.431677 0.713887
Si Si3 0.642736 0.875976 0.717026
Si Si4 0.417074 0.125290 0.208138
Si Si5 0.717063 0.592844 0.639796
Si Si6 0.882934 0.765319 0.054312
Si Si7 0.737373 0.553833 0.101384
Si Si8 0.753694 0.287036 0.445798
O O1 0.433671 0.433671 0.060332
O O2 0.495823 0.628339 0.074914
O O3 0.301319 0.496870 0.084086
O O4 0.386826 0.532161 0.000000
O O5 0.852411 0.524224 0.713387
O O6 0.843555 0.362352 0.760430
O O7 0.844009 0.356568 0.669290
O O8 0.000000 0.487989 0.713866
O O9 0.645979 0.815442 0.763178
O O10 0.656253 0.818011 0.672285
O O11 0.717590 0.000000 0.718230
O O12 0.448581 0.171195 0.156714
O O13 0.350011 0.000000 0.205576
O O14 0.656235 0.656235 0.634417
O O15 0.739633 0.556091 0.590922
O O16 0.857719 0.857719 0.056200
O O17 0.801563 0.672002 0.085074
O O18 0.000000 0.805267 0.068614
O O19 0.870618 0.730608 0.000000
O O20 0.776610 0.405399 0.439064
O O21 0.774922 0.276035 0.500000
#
# Coordination Sequence:
#
# PCOD9586150 Si02
#       8
#    12  12  12  12  12  12  12  12
#     4  11  24  41  60  83 111 145 185 224 266 328
#     4   8  17  33  51  74 104 136 176 223 269 325
#     4  10  20  35  56  78 106 144 185 231 280 336
#     4  10  22  39  56  80 112 139 175 221 276 335
#     4  10  18  31  52  79 111 147 190 237 283 333
#     4  10  20  36  59  85 109 135 171 217 270 326
#     4  12  24  39  60  81 112 148 181 225 274 328
#     4   8  16  29  47  75 113 154 193 234 280 336
#
# _framework density 17.415040999999999
#
# number of rings (size 3 to 8) (size 9 to 14) (size 15 to 20)
#    0.250    1.875    0.000    4.875    1.750    3.750 
#    6.000    0.000    0.000    3.125    0.000    0.000 
#    0.000    0.000    0.000    0.000    0.000    0.000 
#
# Total GULP energy -535386.992237 kJ/mol
# GULP energy per Si atom -5576.947836 kJ/mol
# Density = 1.737540 g / cm^3
# Si number density = 17.415041 Si / 1000 Ang^3
#
#
#
# Elastic Constant Matrix: (Units=GPa)
#
#
# Indices 1 2 3 4 5 6 
#
# 1 54.9180 7.7227 31.2365 0.0000 0.0000 0.0000
# 2 7.7227 54.9180 31.2365 0.0000 0.0000 0.0000
# 3 31.2365 31.2365 107.9482 0.0000 0.0000 0.0000
# 4 0.0000 0.0000 0.0000 25.2701 0.0000 0.0000
# 5 0.0000 0.0000 0.0000 0.0000 25.2701 0.0000
# 6 0.0000 0.0000 0.0000 0.0000 0.0000 23.5977
#
#
#
# Elastic Compliance Matrix: (Units=1/GPa)
#
#
# Indices 1 2 3 4 5 6 
#
# 1 0.021814 0.000626 -0.006493 0.000000 0.000000 0.000000
# 2 0.000626 0.021814 -0.006493 0.000000 0.000000 0.000000
# 3 -0.006493 -0.006493 0.013022 0.000000 0.000000 0.000000
# 4 0.000000 0.000000 0.000000 0.039572 0.000000 0.000000
# 5 0.000000 0.000000 0.000000 0.000000 0.039572 0.000000
# 6 0.000000 0.000000 0.000000 0.000000 0.000000 0.042377
#
#
# Mechanical properties :
#
#
# Convention : Reuss Voigt Hill
#
# Bulk Modulus (GPa) = 31.32023 39.79727 35.55875
# Shear Modulus (GPa) = 23.41515 24.66681 24.04098
#
# Velocity S-wave (km/s) = 3.67077 3.76760 3.71950
# Velocity P-wave (km/s) = 5.99914 6.46748 6.23771
#
# Compressibility (1/GPa) = 0.03192825
#
# Stress axis : x y z
#
# Youngs Moduli (GPa) = 45.84147 45.84147 76.79534
#
# Poissons Ratio (x) = -0.02869 0.49866
# Poissons Ratio (y) = -0.02869 0.49866
# Poissons Ratio (z) = 0.29767 0.29767
#
# Static dielectric constant tensor:
#      x y z
#    x 1.602220 0.000000 0.000000 
#    y 0.000000 1.602220 0.000000 
#    z 0.000000 0.000000 1.586780 
# 
# From -- ./inp_files/3729.got.cif
#   From: 2010.05.17/outbox.cif.g08.bks.cpg/sg189_2_cif.got.tgz:3729.got - 2010.05.20 12:14:34.
