data_PCOD9586487
_publ_section_title
;
Structure prediction by ZEFSAII (Michael W. Deem and Ramdas Pophale) SiO2 
 PCOD9586487
Probable space group: P -6 2 M
;
_chemical_formula_sum "Si O2"
_cell_formula_units_Z 84
_cell_length_a 18.717319
_cell_length_b 18.717319
_cell_length_c 13.443160
_cell_angle_alpha 90.000000
_cell_angle_beta 90.000000
_cell_angle_gamma 120.000000
_cell_volume 4078.676715
_symmetry_space_group_name_H-M "P -6 2 M"
_symmetry_group_IT_number 189
_symmetry_cell_setting 'hexagonal'
loop_
_space_group_symop_operation_xyz
x,y,z
-x+y,-x,-z
-y,x-y,z
x,y,-z
-x+y,-x,z
-y,x-y,-z
x-y,-y,-z
-x,-x+y,-z
y,x,-z
y,x,z
x-y,-y,z
-x,-x+y,z
loop_
_atom_site_type_symbol
_atom_site_label
_atom_site_fract_x
_atom_site_fract_y
_atom_site_fract_z
Si Si1 0.631230 0.832686 0.389070
Si Si2 0.905352 0.411507 0.800784
Si Si3 0.436838 0.347354 0.886288
Si Si4 0.502999 0.900650 0.388526
Si Si5 0.182552 0.090884 0.335060
Si Si6 0.226749 0.821107 0.181057
Si Si7 0.906612 0.772298 0.110702
O O1 0.618987 0.798231 0.500000
O O2 0.571883 0.872359 0.378854
O O3 0.729046 0.893573 0.372018
O O4 0.610069 0.770179 0.298403
O O5 0.906613 0.476566 0.878767
O O6 0.873837 0.435190 0.699134
O O7 0.855315 0.320581 0.845148
O O8 0.000000 0.435403 0.782740
O O9 0.372137 0.372137 0.840572
O O10 0.444366 0.276008 0.833403
O O11 0.413043 0.322679 0.000000
O O12 0.466936 0.875369 0.500000
O O13 0.553423 0.000000 0.383917
O O14 0.113893 0.113893 0.364591
O O15 0.185380 0.090599 0.213941
O O16 0.159148 0.000000 0.370279
O O17 0.171812 0.852752 0.124428
O O18 0.000000 0.785574 0.112271
O O19 0.900447 0.802310 0.000000
#
# Coordination Sequence:
#
# PCOD9586487 Si02
#       7
#    12  12  12  12  12  12  12
#     4  10  21  37  59  85 112 149 203 256 297 349
#     4  10  22  39  58  86 121 154 190 235 298 365
#     4  10  21  39  62  86 115 155 201 244 287 345
#     4   9  17  34  62  88 110 145 197 250 294 343
#     4  10  21  36  55  83 121 161 201 251 313 375
#     4  11  21  35  60  90 119 153 192 244 301 355
#     4   9  19  36  59  86 115 154 207 256 295 344
#
# _framework density 20.594916999999999
#
# number of rings (size 3 to 8) (size 9 to 14) (size 15 to 20)
#    0.000    2.143    1.429    1.429    0.000    7.714 
#    0.857    0.000    0.000    1.714    0.000    0.000 
#    0.000    0.000    0.000    0.000    0.000    0.000 
#
# Total GULP energy -467695.625112 kJ/mol
# GULP energy per Si atom -5567.805061 kJ/mol
# Density = 2.054804 g / cm^3
# Si number density = 20.594917 Si / 1000 Ang^3
#
#
#
# Elastic Constant Matrix: (Units=GPa)
#
#
# Indices 1 2 3 4 5 6 
#
# 1 86.1759 38.5259 2.1030 0.0000 0.0000 0.0000
# 2 38.5259 86.1759 2.1030 0.0000 0.0000 0.0000
# 3 2.1030 2.1030 93.0035 0.0000 0.0000 0.0000
# 4 0.0000 0.0000 0.0000 8.1111 0.0000 0.0000
# 5 0.0000 0.0000 0.0000 0.0000 8.1111 0.0000
# 6 0.0000 0.0000 0.0000 0.0000 0.0000 23.8250
#
#
#
# Elastic Compliance Matrix: (Units=1/GPa)
#
#
# Indices 1 2 3 4 5 6 
#
# 1 0.014506 -0.006481 -0.000181 0.000000 0.000000 0.000000
# 2 -0.006481 0.014506 -0.000181 0.000000 0.000000 0.000000
# 3 -0.000181 -0.000181 0.010760 0.000000 0.000000 0.000000
# 4 0.000000 0.000000 0.000000 0.123288 0.000000 0.000000
# 5 0.000000 0.000000 0.000000 0.000000 0.123288 0.000000
# 6 0.000000 0.000000 0.000000 0.000000 0.000000 0.041973
#
#
# Mechanical properties :
#
#
# Convention : Reuss Voigt Hill
#
# Bulk Modulus (GPa) = 38.33601 38.97988 38.65794
# Shear Modulus (GPa) = 14.25708 22.85101 18.55405
#
# Velocity S-wave (km/s) = 2.63394 3.33460 3.00476
# Velocity P-wave (km/s) = 5.28251 5.81327 5.55423
#
# Compressibility (1/GPa) = 0.02608514
#
# Stress axis : x y z
#
# Youngs Moduli (GPa) = 68.93800 68.93800 92.93256
#
# Poissons Ratio (x) = 0.44676 0.01686
# Poissons Ratio (y) = 0.44676 0.01686
# Poissons Ratio (z) = 0.01251 0.01251
#
# Static dielectric constant tensor:
#      x y z
#    x 1.741990 0.000000 0.000000 
#    y 0.000000 1.741990 0.000000 
#    z 0.000000 0.000000 1.788490 
# 
# From -- ./inp_files/2824.got.cif
#   From: 2010.05.17/outbox.cif.g08.bks.cpg/sg189_2_cif.got.tgz:2824.got - 2010.05.20 12:14:34.
