data_PCOD9586877
_publ_section_title
;
Structure prediction by ZEFSAII (Michael W. Deem and Ramdas Pophale) SiO2 
 PCOD9586877
Probable space group: P -6 2 C
;
_chemical_formula_sum "Si O2"
_cell_formula_units_Z 52
_cell_length_a 12.662457
_cell_length_b 12.662457
_cell_length_c 19.201983
_cell_angle_alpha 90.000000
_cell_angle_beta 90.000000
_cell_angle_gamma 120.000000
_cell_volume 2666.322513
_symmetry_space_group_name_H-M "P -6 2 C"
_symmetry_group_IT_number 190
_symmetry_cell_setting 'hexagonal'
loop_
_space_group_symop_operation_xyz
x,y,z
-x+y,-x,1/2-z
-y,x-y,z
x,y,1/2-z
-x+y,-x,z
-y,x-y,1/2-z
x-y,-y,-z
-x,-x+y,-z
y,x,-z
y,x,1/2+z
x-y,-y,1/2+z
-x,-x+y,1/2+z
loop_
_atom_site_type_symbol
_atom_site_label
_atom_site_fract_x
_atom_site_fract_y
_atom_site_fract_z
Si Si1 0.061678 0.618759 0.750000
Si Si2 0.324110 0.191118 0.515864
Si Si3 0.418570 0.492444 0.389226
Si Si4 0.666668 0.333334 0.666734
Si Si5 0.305623 0.964631 0.597003
Si Si6 0.889721 0.284582 0.250000
O O1 0.107737 0.520808 0.750000
O O2 0.173570 0.753578 0.750000
O O3 0.984245 0.591427 0.679052
O O4 0.210186 0.210186 0.500000
O O5 0.422941 0.315689 0.552997
O O6 0.365911 0.156440 0.444163
O O7 0.297564 0.077956 0.565319
O O8 0.411549 0.608941 0.362122
O O9 0.557308 0.546248 0.414127
O O10 0.666667 0.333334 0.750000
O O11 0.282045 0.954050 0.678986
#
# Coordination Sequence:
#
# PCOD9586877 Si02
#       6
#     6  12  12   4  12   6
#     4  10  21  37  67  97 133 176 216 270 344 400
#     4  11  24  41  64  94 132 177 221 275 340 399
#     4  11  22  38  67  99 136 172 221 278 341 406
#     4  12  21  36  63 108 135 172 215 283 342 393
#     4  10  24  44  64  98 132 175 226 279 331 409
#     4  10  21  43  65  95 135 170 220 278 328 402
#
# _framework density 19.502517000000001
#
# number of rings (size 3 to 8) (size 9 to 14) (size 15 to 20)
#    0.000    1.385    3.462    1.615    3.231    0.923 
#    5.538    1.154    5.077    0.000    0.000    0.000 
#    0.000    0.000    0.000    0.000    0.000    0.000 
#
# Total GULP energy -290467.730929 kJ/mol
# GULP energy per Si atom -5585.917902 kJ/mol
# Density = 1.945813 g / cm^3
# Si number density = 19.502517 Si / 1000 Ang^3
#
#
#
# Elastic Constant Matrix: (Units=GPa)
#
#
# Indices 1 2 3 4 5 6 
#
# 1 76.1333 23.2545 53.6998 0.0001 0.0001 0.0001
# 2 23.2545 76.1332 53.6998 -0.0001 0.0000 -0.0002
# 3 53.6998 53.6998 156.0204 0.0000 0.0001 0.0000
# 4 0.0001 -0.0001 0.0000 37.2620 0.0000 0.0000
# 5 0.0001 0.0000 0.0001 0.0000 37.2622 -0.0001
# 6 0.0001 -0.0002 0.0000 0.0000 -0.0001 26.4387
#
#
#
# Elastic Compliance Matrix: (Units=1/GPa)
#
#
# Indices 1 2 3 4 5 6 
#
# 1 0.017466 -0.001446 -0.005514 0.000000 0.000000 0.000000
# 2 -0.001446 0.017466 -0.005514 0.000000 0.000000 0.000000
# 3 -0.005514 -0.005514 0.010205 0.000000 0.000000 0.000000
# 4 0.000000 0.000000 0.000000 0.026837 0.000000 0.000000
# 5 0.000000 0.000000 0.000000 0.000000 0.026837 0.000000
# 6 0.000000 0.000000 0.000000 0.000000 0.000000 0.037823
#
#
# Mechanical properties :
#
#
# Convention : Reuss Voigt Hill
#
# Bulk Modulus (GPa) = 49.53068 63.28835 56.40951
# Shear Modulus (GPa) = 29.70717 32.03476 30.87096
#
# Velocity S-wave (km/s) = 3.90711 4.05729 3.98291
# Velocity P-wave (km/s) = 6.76803 7.38042 7.08085
#
# Compressibility (1/GPa) = 0.02018951
#
# Stress axis : x y z
#
# Youngs Moduli (GPa) = 57.25571 57.25554 97.99172
#
# Poissons Ratio (x) = 0.08277 0.54030
# Poissons Ratio (y) = 0.08277 0.54031
# Poissons Ratio (z) = 0.31570 0.31570
#
# Static dielectric constant tensor:
#      x y z
#    x 1.676490 0.000000 0.000000 
#    y 0.000000 1.676500 0.000000 
#    z 0.000000 0.000000 1.711970 
# 
# From -- ./inp_files/4229.got.cif
#   From: 2010.05.17/outbox.cif.g08.bks.cpg/sg190_3_cif.got.tgz:4229.got - 2010.05.20 12:16:56.
