data_PCOD9586225
_publ_section_title
;
Structure prediction by ZEFSAII (Michael W. Deem and Ramdas Pophale) SiO2 
 PCOD9586225
Probable space group: P -6 2 M
;
_chemical_formula_sum "Si O2"
_cell_formula_units_Z 84
_cell_length_a 15.178177
_cell_length_b 15.178177
_cell_length_c 24.718981
_cell_angle_alpha 90.000000
_cell_angle_beta 90.000000
_cell_angle_gamma 120.000000
_cell_volume 4931.742826
_symmetry_space_group_name_H-M "P -6 2 M"
_symmetry_group_IT_number 189
_symmetry_cell_setting 'hexagonal'
loop_
_space_group_symop_operation_xyz
x,y,z
-x+y,-x,-z
-y,x-y,z
x,y,-z
-x+y,-x,z
-y,x-y,-z
x-y,-y,-z
-x,-x+y,-z
y,x,-z
y,x,z
x-y,-y,z
-x,-x+y,z
loop_
_atom_site_type_symbol
_atom_site_label
_atom_site_fract_x
_atom_site_fract_y
_atom_site_fract_z
Si Si1 0.633249 0.878256 0.648239
Si Si2 0.441819 0.564441 0.059405
Si Si3 0.427529 0.877778 0.648005
Si Si4 0.281423 0.876765 0.266102
Si Si5 0.354062 0.233822 0.938276
Si Si6 0.290478 0.877987 0.857672
Si Si7 0.404412 0.122730 0.437123
O O1 0.514731 0.848953 0.648527
O O2 0.647687 0.823227 0.700391
O O3 0.646712 0.823849 0.595537
O O4 0.703010 0.000000 0.648409
O O5 0.514447 0.514447 0.057481
O O6 0.330101 0.468452 0.066175
O O7 0.483728 0.643248 0.108347
O O8 0.448861 0.611756 0.000000
O O9 0.356339 0.848913 0.700774
O O10 0.355940 0.847483 0.595272
O O11 0.489144 0.000000 0.647545
O O12 0.268435 0.842186 0.204097
O O13 0.334336 0.000000 0.268081
O O14 0.278795 0.278795 0.930561
O O15 0.345854 0.155556 0.893227
O O16 0.340646 0.194417 0.000000
O O17 0.356054 0.000000 0.855216
O O18 0.421167 0.150266 0.500000
O O19 0.334187 0.000000 0.433015
#
# Coordination Sequence:
#
# PCOD9586225 Si02
#       7
#    12  12  12  12  12  12  12
#     4  10  19  32  54  78  98 129 173 210 237 280
#     4   8  15  29  47  66  91 122 155 195 243 293
#     4   8  16  32  50  68  94 128 162 197 239 285
#     4   9  19  35  50  68 100 134 163 203 254 295
#     4   9  18  32  49  71 100 129 157 198 251 298
#     4  10  19  31  51  74  94 126 170 206 239 292
#     4   9  18  34  54  75 105 139 162 193 247 294
#
# _framework density 17.032519000000001
#
# number of rings (size 3 to 8) (size 9 to 14) (size 15 to 20)
#    0.000    3.000    0.000    2.571    0.000    3.429 
#    7.714    4.286    0.000    2.571    0.000    0.000 
#    0.000    0.000    0.000    0.000    0.000    0.000 
#
# Total GULP energy -467734.310151 kJ/mol
# GULP energy per Si atom -5568.265597 kJ/mol
# Density = 1.699375 g / cm^3
# Si number density = 17.032519 Si / 1000 Ang^3
#
#
#
# Elastic Constant Matrix: (Units=GPa)
#
#
# Indices 1 2 3 4 5 6 
#
# 1 42.8973 0.4508 32.6560 0.0000 0.0000 0.0000
# 2 0.4508 42.8973 32.6560 0.0000 0.0000 0.0000
# 3 32.6560 32.6560 157.0876 0.0000 0.0000 0.0000
# 4 0.0000 0.0000 0.0000 14.4529 0.0000 0.0000
# 5 0.0000 0.0000 0.0000 0.0000 14.4529 0.0000
# 6 0.0000 0.0000 0.0000 0.0000 0.0000 21.2233
#
#
#
# Elastic Compliance Matrix: (Units=1/GPa)
#
#
# Indices 1 2 3 4 5 6 
#
# 1 0.028575 0.005015 -0.006983 0.000000 0.000000 0.000000
# 2 0.005015 0.028575 -0.006983 0.000000 0.000000 0.000000
# 3 -0.006983 -0.006983 0.009269 0.000000 0.000000 0.000000
# 4 0.000000 0.000000 0.000000 0.069190 0.000000 0.000000
# 5 0.000000 0.000000 0.000000 0.000000 0.069190 0.000000
# 6 0.000000 0.000000 0.000000 0.000000 0.000000 0.047118
#
#
# Mechanical properties :
#
#
# Convention : Reuss Voigt Hill
#
# Bulk Modulus (GPa) = 20.61099 41.60089 31.10594
# Shear Modulus (GPa) = 17.48313 21.83376 19.65845
#
# Velocity S-wave (km/s) = 3.20731 3.58423 3.40100
# Velocity P-wave (km/s) = 5.08360 6.45030 5.80730
#
# Compressibility (1/GPa) = 0.04851780
#
# Stress axis : x y z
#
# Youngs Moduli (GPa) = 34.99620 34.99620 107.88513
#
# Poissons Ratio (x) = -0.17552 0.75334
# Poissons Ratio (y) = -0.17552 0.75334
# Poissons Ratio (z) = 0.24437 0.24437
#
# Static dielectric constant tensor:
#      x y z
#    x 1.585660 0.000000 0.000000 
#    y 0.000000 1.585660 0.000000 
#    z 0.000000 0.000000 1.581890 
# 
# From -- ./inp_files/3591.got.cif
#   From: 2010.05.17/outbox.cif.g08.bks.cpg/sg189_2_cif.got.tgz:3591.got - 2010.05.20 12:14:34.
