data_PCOD9586220
_publ_section_title
;
Structure prediction by ZEFSAII (Michael W. Deem and Ramdas Pophale) SiO2 
 PCOD9586220
Probable space group: P -6 2 M
;
_chemical_formula_sum "Si O2"
_cell_formula_units_Z 72
_cell_length_a 24.283145
_cell_length_b 24.283145
_cell_length_c 7.625721
_cell_angle_alpha 90.000000
_cell_angle_beta 90.000000
_cell_angle_gamma 120.000000
_cell_volume 3894.228311
_symmetry_space_group_name_H-M "P -6 2 M"
_symmetry_group_IT_number 189
_symmetry_cell_setting 'hexagonal'
loop_
_space_group_symop_operation_xyz
x,y,z
-x+y,-x,-z
-y,x-y,z
x,y,-z
-x+y,-x,z
-y,x-y,-z
x-y,-y,-z
-x,-x+y,-z
y,x,-z
y,x,z
x-y,-y,z
-x,-x+y,z
loop_
_atom_site_type_symbol
_atom_site_label
_atom_site_fract_x
_atom_site_fract_y
_atom_site_fract_z
Si Si1 0.787555 0.270862 0.796124
Si Si2 0.283165 0.000000 0.790989
Si Si3 0.328095 0.257595 0.291895
Si Si4 0.409204 0.000000 0.786006
Si Si5 0.340361 0.140355 0.292879
Si Si6 0.473382 0.331121 0.212845
Si Si7 0.409084 0.873124 0.215119
O O1 0.841624 0.250415 0.787427
O O2 0.724488 0.211030 0.721135
O O3 0.815390 0.341345 0.722826
O O4 0.773617 0.274554 0.000000
O O5 0.346279 0.000000 0.723320
O O6 0.289966 0.066759 0.736112
O O7 0.285105 0.000000 0.000000
O O8 0.316122 0.248716 0.500000
O O9 0.282736 0.282736 0.218536
O O10 0.321753 0.191727 0.223407
O O11 0.401927 0.310773 0.266507
O O12 0.473398 0.062393 0.731019
O O13 0.407585 0.000000 0.000000
O O14 0.351702 0.151218 0.500000
O O15 0.528988 0.399574 0.271249
O O16 0.473389 0.330225 0.000000
O O17 0.408465 0.872002 0.000000
#
# Coordination Sequence:
#
# PCOD9586220 Si02
#       7
#    12   6  12   6  12  12  12
#     4   9  16  30  46  62  87 121 158 197 248 294
#     4  11  19  31  51  73  99 129 151 180 231 286
#     4   9  19  35  51  67  94 129 157 187 234 279
#     4   9  16  25  43  63  87 121 149 178 229 290
#     4  10  19  31  49  72  96 121 154 192 227 273
#     4   9  18  29  46  68  87 115 160 208 242 280
#     4   9  16  27  42  63  90 119 153 194 243 292
#
# _framework density 18.488900999999998
#
# number of rings (size 3 to 8) (size 9 to 14) (size 15 to 20)
#    0.000    2.667    1.667    0.750    1.167    1.000 
#    1.000    0.833    0.000    0.000    0.000    0.000 
#    0.833    0.000    1.500    0.000    0.500    0.000 
#
# Total GULP energy -401485.487701 kJ/mol
# GULP energy per Si atom -5576.187329 kJ/mol
# Density = 1.844682 g / cm^3
# Si number density = 18.488901 Si / 1000 Ang^3
#
#
#
# Elastic Constant Matrix: (Units=GPa)
#
#
# Indices 1 2 3 4 5 6 
#
# 1 104.9890 66.2273 -3.2049 0.0000 0.0000 0.0000
# 2 66.2273 104.9890 -3.2049 0.0000 0.0000 0.0000
# 3 -3.2049 -3.2049 37.9166 0.0000 0.0000 0.0000
# 4 0.0000 0.0000 0.0000 11.4933 0.0000 0.0000
# 5 0.0000 0.0000 0.0000 0.0000 11.4933 0.0000
# 6 0.0000 0.0000 0.0000 0.0000 0.0000 19.3808
#
#
#
# Elastic Compliance Matrix: (Units=1/GPa)
#
#
# Indices 1 2 3 4 5 6 
#
# 1 0.015829 -0.009970 0.000495 0.000000 0.000000 0.000000
# 2 -0.009970 0.015829 0.000495 0.000000 0.000000 0.000000
# 3 0.000495 0.000495 0.026457 0.000000 0.000000 0.000000
# 4 0.000000 0.000000 0.000000 0.087007 0.000000 0.000000
# 5 0.000000 0.000000 0.000000 0.000000 0.087007 0.000000
# 6 0.000000 0.000000 0.000000 0.000000 0.000000 0.051597
#
#
# Mechanical properties :
#
#
# Convention : Reuss Voigt Hill
#
# Bulk Modulus (GPa) = 24.90257 40.83665 32.86961
# Shear Modulus (GPa) = 15.86944 21.01196 18.44070
#
# Velocity S-wave (km/s) = 2.93289 3.37480 3.16158
# Velocity P-wave (km/s) = 4.99673 6.10908 5.58069
#
# Compressibility (1/GPa) = 0.04015650
#
# Stress axis : x y z
#
# Youngs Moduli (GPa) = 63.17564 63.17564 37.79667
#
# Poissons Ratio (x) = 0.62985 -0.01872
# Poissons Ratio (y) = 0.62985 -0.01872
# Poissons Ratio (z) = -0.03129 -0.03129
#
# Static dielectric constant tensor:
#      x y z
#    x 1.642300 0.000000 0.000000 
#    y 0.000000 1.642300 0.000000 
#    z 0.000000 0.000000 1.696200 
# 
# From -- ./inp_files/1312.got.cif
#   From: 2010.05.17/outbox.cif.g08.bks.cpg/sg189_1_cif.got.tgz:1312.got - 2010.05.20 12:14:34.
