data_PCOD9586222
_publ_section_title
;
Structure prediction by ZEFSAII (Michael W. Deem and Ramdas Pophale) SiO2 
 PCOD9586222
Probable space group: P -6 2 M
;
_chemical_formula_sum "Si O2"
_cell_formula_units_Z 54
_cell_length_a 17.854943
_cell_length_b 17.854943
_cell_length_c 11.815247
_cell_angle_alpha 90.000000
_cell_angle_beta 90.000000
_cell_angle_gamma 120.000000
_cell_volume 3262.048193
_symmetry_space_group_name_H-M "P -6 2 M"
_symmetry_group_IT_number 189
_symmetry_cell_setting 'hexagonal'
loop_
_space_group_symop_operation_xyz
x,y,z
-x+y,-x,-z
-y,x-y,z
x,y,-z
-x+y,-x,z
-y,x-y,-z
x-y,-y,-z
-x,-x+y,-z
y,x,-z
y,x,z
x-y,-y,z
-x,-x+y,z
loop_
_atom_site_type_symbol
_atom_site_label
_atom_site_fract_x
_atom_site_fract_y
_atom_site_fract_z
Si Si1 0.395930 0.899842 0.288885
Si Si2 0.421019 0.647248 0.500000
Si Si3 0.639463 0.098531 0.869513
Si Si4 0.806303 0.903834 0.137443
Si Si5 0.612167 0.770109 0.865696
O O1 0.365408 0.832042 0.391052
O O2 0.466487 0.890385 0.214625
O O3 0.315638 0.878822 0.207737
O O4 0.441678 0.000000 0.327331
O O5 0.317225 0.579104 0.500000
O O6 0.738778 0.169587 0.852103
O O7 0.620210 0.000000 0.856779
O O8 0.617149 0.106160 0.000000
O O9 0.876151 0.876151 0.169350
O O10 0.711514 0.829501 0.171312
O O11 0.835279 0.000000 0.177892
O O12 0.804129 0.905812 0.000000
O O13 0.610041 0.749943 0.000000
#
# Coordination Sequence:
#
# PCOD9586222 Si02
#       5
#    12   6  12  12  12
#     4  11  21  35  54  76 101 130 169 215 265 311
#     4  10  23  40  58  72  94 126 167 216 262 316
#     4   9  18  32  50  73 104 141 176 210 250 302
#     4   9  16  26  42  67 101 139 174 205 241 291
#     4  10  19  31  49  75 107 140 171 207 251 304
#
# _framework density 16.554017000000002
#
# number of rings (size 3 to 8) (size 9 to 14) (size 15 to 20)
#    0.222    2.000    0.000    3.889    0.000    5.778 
#    1.333    0.000    0.000    0.000    0.000    0.000 
#    0.000    0.000    0.000    2.222    0.000    1.778 
#
# Total GULP energy -301095.427358 kJ/mol
# GULP energy per Si atom -5575.841247 kJ/mol
# Density = 1.651634 g / cm^3
# Si number density = 16.554017 Si / 1000 Ang^3
#
#
#
# Elastic Constant Matrix: (Units=GPa)
#
#
# Indices 1 2 3 4 5 6 
#
# 1 82.4935 30.5900 36.6725 0.0000 0.0000 0.0000
# 2 30.5900 82.4935 36.6725 0.0000 0.0000 0.0000
# 3 36.6725 36.6725 53.3092 0.0000 0.0000 0.0000
# 4 0.0000 0.0000 0.0000 18.3732 0.0000 0.0000
# 5 0.0000 0.0000 0.0000 0.0000 18.3732 0.0000
# 6 0.0000 0.0000 0.0000 0.0000 0.0000 25.9518
#
#
#
# Elastic Compliance Matrix: (Units=1/GPa)
#
#
# Indices 1 2 3 4 5 6 
#
# 1 0.017617 -0.001650 -0.010984 0.000000 0.000000 0.000000
# 2 -0.001650 0.017617 -0.010984 0.000000 0.000000 0.000000
# 3 -0.010984 -0.010984 0.033871 0.000000 0.000000 0.000000
# 4 0.000000 0.000000 0.000000 0.054427 0.000000 0.000000
# 5 0.000000 0.000000 0.000000 0.000000 0.054427 0.000000
# 6 0.000000 0.000000 0.000000 0.000000 0.000000 0.038533
#
#
# Mechanical properties :
#
#
# Convention : Reuss Voigt Hill
#
# Bulk Modulus (GPa) = 45.72745 47.35182 46.53963
# Shear Modulus (GPa) = 18.44894 20.16369 19.30631
#
# Velocity S-wave (km/s) = 3.34199 3.49385 3.41876
# Velocity P-wave (km/s) = 6.52495 6.70392 6.61504
#
# Compressibility (1/GPa) = 0.02186870
#
# Stress axis : x y z
#
# Youngs Moduli (GPa) = 56.76358 56.76358 29.52366
#
# Poissons Ratio (x) = 0.09364 0.32430
# Poissons Ratio (y) = 0.09364 0.32430
# Poissons Ratio (z) = 0.62351 0.62351
#
# Static dielectric constant tensor:
#      x y z
#    x 1.556390 0.000000 0.000000 
#    y 0.000000 1.556390 0.000000 
#    z 0.000000 0.000000 1.522790 
# 
# From -- ./inp_files/1800.got.cif
#   From: 2010.05.17/outbox.cif.g08.bks.cpg/sg189_1_cif.got.tgz:1800.got - 2010.05.20 12:14:34.
