data_PCOD9586645
_publ_section_title
;
Structure prediction by ZEFSAII (Michael W. Deem and Ramdas Pophale) SiO2 
 PCOD9586645
Probable space group: P -6 2 C
;
_chemical_formula_sum "Si O2"
_cell_formula_units_Z 54
_cell_length_a 13.826845
_cell_length_b 13.826845
_cell_length_c 16.682182
_cell_angle_alpha 90.000000
_cell_angle_beta 90.000000
_cell_angle_gamma 120.000000
_cell_volume 2762.038166
_symmetry_space_group_name_H-M "P -6 2 C"
_symmetry_group_IT_number 190
_symmetry_cell_setting 'hexagonal'
loop_
_space_group_symop_operation_xyz
x,y,z
-x+y,-x,1/2-z
-y,x-y,z
x,y,1/2-z
-x+y,-x,z
-y,x-y,1/2-z
x-y,-y,-z
-x,-x+y,-z
y,x,-z
y,x,1/2+z
x-y,-y,1/2+z
-x,-x+y,1/2+z
loop_
_atom_site_type_symbol
_atom_site_label
_atom_site_fract_x
_atom_site_fract_y
_atom_site_fract_z
Si Si1 0.409138 0.110962 0.157423
Si Si2 0.208038 0.332323 0.971105
Si Si3 0.758585 0.477865 0.750000
Si Si4 0.128432 0.562597 0.519503
Si Si5 0.283855 0.857165 0.391797
O O1 0.431556 0.145025 0.250000
O O2 0.330070 0.150907 0.113543
O O3 0.519187 0.157956 0.100353
O O4 0.351902 0.976340 0.151330
O O5 0.321071 0.453976 0.971994
O O6 0.244009 0.244009 0.000000
O O7 0.131880 0.340617 0.039987
O O8 0.786337 0.378663 0.750000
O O9 0.790928 0.552072 0.671276
O O10 0.182982 0.542158 0.440844
O O11 0.000000 0.473539 0.500000
#
# Coordination Sequence:
#
# PCOD9586645 Si02
#       5
#    12  12   6  12  12
#     4  10  20  36  57  80 111 150 184 230 291 346
#     4  10  20  36  56  81 107 148 193 232 274 338
#     4  10  20  28  50  90 110 138 180 238 270 314
#     4   8  17  32  53  73 103 144 180 219 267 336
#     4  10  18  36  55  78 111 147 184 226 285 340
#
# _framework density 19.550781000000001
#
# number of rings (size 3 to 8) (size 9 to 14) (size 15 to 20)
#    0.222    2.222    1.111    3.333    0.000    0.889 
#   12.667    0.000    0.000    3.556    0.000    0.000 
#    0.000    0.000    0.000    0.000    0.000    0.000 
#
# Total GULP energy -300658.684612 kJ/mol
# GULP energy per Si atom -5567.753419 kJ/mol
# Density = 1.950628 g / cm^3
# Si number density = 19.550781 Si / 1000 Ang^3
#
#
#
# Elastic Constant Matrix: (Units=GPa)
#
#
# Indices 1 2 3 4 5 6 
#
# 1 49.3124 1.9265 13.2010 0.0000 0.0000 0.0000
# 2 1.9265 49.3124 13.2010 0.0000 0.0000 0.0000
# 3 13.2010 13.2010 146.5355 0.0000 0.0000 0.0000
# 4 0.0000 0.0000 0.0000 18.3812 0.0000 0.0000
# 5 0.0000 0.0000 0.0000 0.0000 18.3812 0.0000
# 6 0.0000 0.0000 0.0000 0.0000 0.0000 23.6929
#
#
#
# Elastic Compliance Matrix: (Units=1/GPa)
#
#
# Indices 1 2 3 4 5 6 
#
# 1 0.020785 -0.000318 -0.001844 0.000000 0.000000 0.000000
# 2 -0.000318 0.020785 -0.001844 0.000000 0.000000 0.000000
# 3 -0.001844 -0.001844 0.007156 0.000000 0.000000 0.000000
# 4 0.000000 0.000000 0.000000 0.054404 0.000000 0.000000
# 5 0.000000 0.000000 0.000000 0.000000 0.054404 0.000000
# 6 0.000000 0.000000 0.000000 0.000000 0.000000 0.042207
#
#
# Mechanical properties :
#
#
# Convention : Reuss Voigt Hill
#
# Bulk Modulus (GPa) = 24.56134 33.53523 29.04829
# Shear Modulus (GPa) = 22.59137 26.54650 24.56894
#
# Velocity S-wave (km/s) = 3.40299 3.68886 3.54880
# Velocity P-wave (km/s) = 5.29439 5.94422 5.62869
#
# Compressibility (1/GPa) = 0.04071438
#
# Stress axis : x y z
#
# Youngs Moduli (GPa) = 48.11182 48.11182 139.73336
#
# Poissons Ratio (x) = 0.01532 0.25764
# Poissons Ratio (y) = 0.01532 0.25764
# Poissons Ratio (z) = 0.08871 0.08871
#
# Static dielectric constant tensor:
#      x y z
#    x 1.720070 0.000000 0.000000 
#    y 0.000000 1.720070 0.000000 
#    z 0.000000 0.000000 1.713270 
# 
# From -- ./inp_files/3591.got.cif
#   From: 2010.05.17/outbox.cif.g08.bks.cpg/sg190_2_cif.got.tgz:3591.got - 2010.05.20 12:16:56.
