data_PCOD9586669
_publ_section_title
;
Structure prediction by ZEFSAII (Michael W. Deem and Ramdas Pophale) SiO2 
 PCOD9586669
Probable space group: P -6 2 C
;
_chemical_formula_sum "Si O2"
_cell_formula_units_Z 72
_cell_length_a 24.427979
_cell_length_b 24.427979
_cell_length_c 8.717785
_cell_angle_alpha 90.000000
_cell_angle_beta 90.000000
_cell_angle_gamma 120.000000
_cell_volume 4505.177036
_symmetry_space_group_name_H-M "P -6 2 C"
_symmetry_group_IT_number 190
_symmetry_cell_setting 'hexagonal'
loop_
_space_group_symop_operation_xyz
x,y,z
-x+y,-x,1/2-z
-y,x-y,z
x,y,1/2-z
-x+y,-x,z
-y,x-y,1/2-z
x-y,-y,-z
-x,-x+y,-z
y,x,-z
y,x,1/2+z
x-y,-y,1/2+z
-x,-x+y,1/2+z
loop_
_atom_site_type_symbol
_atom_site_label
_atom_site_fract_x
_atom_site_fract_y
_atom_site_fract_z
Si Si1 0.598095 0.403804 0.434673
Si Si2 0.263931 0.736888 0.433008
Si Si3 0.931730 0.069806 0.434057
Si Si4 0.930972 0.525934 0.066311
Si Si5 0.147875 0.741371 0.935573
Si Si6 0.806183 0.069299 0.065356
O O1 0.601656 0.403358 0.250000
O O2 0.571916 0.332655 0.495429
O O3 0.666202 0.449384 0.504893
O O4 0.544671 0.421642 0.478759
O O5 0.264031 0.732817 0.250000
O O6 0.213636 0.757037 0.488550
O O7 0.934415 0.067888 0.250000
O O8 0.876658 0.085248 0.478373
O O9 0.000000 0.118082 0.500000
O O10 0.908873 0.000000 0.500000
O O11 0.935242 0.527259 0.250000
O O12 0.902568 0.571184 0.022613
O O13 0.000000 0.551107 0.000000
O O14 0.155255 0.743599 0.750000
O O15 0.119724 0.785739 0.982372
O O16 0.802264 0.065343 0.250000
O O17 0.758678 0.000000 0.000000
#
# Coordination Sequence:
#
# PCOD9586669 Si02
#       6
#    12  12  12  12  12  12
#     4  10  20  35  51  69  97 133 161 189 237 293
#     4  11  21  32  49  75  99 123 159 203 238 272
#     4  10  19  31  47  69  95 125 158 197 240 285
#     4   9  18  30  48  71  95 123 154 187 229 277
#     4   9  18  33  49  69  97 129 158 187 233 292
#     4   9  18  31  49  71  96 125 159 195 236 283
#
# _framework density 15.981614
#
# number of rings (size 3 to 8) (size 9 to 14) (size 15 to 20)
#    0.000    2.333    0.000    4.500    0.000    4.667 
#    0.000    0.000    0.000    1.000    0.000    2.333 
#    0.000    0.000    0.000    0.000    0.000    0.000 
#
# Total GULP energy -401669.003734 kJ/mol
# GULP energy per Si atom -5578.736163 kJ/mol
# Density = 1.594524 g / cm^3
# Si number density = 15.981614 Si / 1000 Ang^3
#
#
#
# Elastic Constant Matrix: (Units=GPa)
#
#
# Indices 1 2 3 4 5 6 
#
# 1 125.8023 82.4550 38.2293 0.0000 0.0000 0.0000
# 2 82.4550 125.8023 38.2293 0.0000 0.0000 0.0000
# 3 38.2293 38.2293 47.4141 0.0000 0.0000 0.0000
# 4 0.0000 0.0000 0.0000 21.8803 0.0000 0.0000
# 5 0.0000 0.0000 0.0000 0.0000 21.8803 0.0000
# 6 0.0000 0.0000 0.0000 0.0000 0.0000 21.6736
#
#
#
# Elastic Compliance Matrix: (Units=1/GPa)
#
#
# Indices 1 2 3 4 5 6 
#
# 1 0.014945 -0.008124 -0.005500 0.000000 0.000000 0.000000
# 2 -0.008124 0.014945 -0.005500 0.000000 0.000000 0.000000
# 3 -0.005500 -0.005500 0.029959 0.000000 0.000000 0.000000
# 4 0.000000 0.000000 0.000000 0.045703 0.000000 0.000000
# 5 0.000000 0.000000 0.000000 0.000000 0.045703 0.000000
# 6 0.000000 0.000000 0.000000 0.000000 0.000000 0.046139
#
#
# Mechanical properties :
#
#
# Convention : Reuss Voigt Hill
#
# Bulk Modulus (GPa) = 46.29055 68.53842 57.41448
# Shear Modulus (GPa) = 20.58945 22.42717 21.50831
#
# Velocity S-wave (km/s) = 3.59321 3.75014 3.67252
# Velocity P-wave (km/s) = 6.80020 7.85686 7.34755
#
# Compressibility (1/GPa) = 0.02160268
#
# Stress axis : x y z
#
# Youngs Moduli (GPa) = 66.91130 66.91130 33.37876
#
# Poissons Ratio (x) = 0.54361 0.18357
# Poissons Ratio (y) = 0.54361 0.18357
# Poissons Ratio (z) = 0.36798 0.36798
#
# Static dielectric constant tensor:
#      x y z
#    x 1.523580 0.000000 0.000000 
#    y 0.000000 1.523580 0.000000 
#    z 0.000000 0.000000 1.535320 
# 
# From -- ./inp_files/1196.got.cif
#   From: 2010.05.17/outbox.cif.g08.bks.cpg/sg190_1_cif.got.tgz:1196.got - 2010.05.20 12:16:56.
