data_PCOD9586585
_publ_section_title
;
Structure prediction by ZEFSAII (Michael W. Deem and Ramdas Pophale) SiO2 
 PCOD9586585
Probable space group: P -6 2 M
;
_chemical_formula_sum "Si O2"
_cell_formula_units_Z 60
_cell_length_a 23.469329
_cell_length_b 23.469329
_cell_length_c 7.434035
_cell_angle_alpha 90.000000
_cell_angle_beta 90.000000
_cell_angle_gamma 120.000000
_cell_volume 3546.145732
_symmetry_space_group_name_H-M "P -6 2 M"
_symmetry_group_IT_number 189
_symmetry_cell_setting 'hexagonal'
loop_
_space_group_symop_operation_xyz
x,y,z
-x+y,-x,-z
-y,x-y,z
x,y,-z
-x+y,-x,z
-y,x-y,-z
x-y,-y,-z
-x,-x+y,-z
y,x,-z
y,x,z
x-y,-y,z
-x,-x+y,z
loop_
_atom_site_type_symbol
_atom_site_label
_atom_site_fract_x
_atom_site_fract_y
_atom_site_fract_z
Si Si1 0.604697 0.524810 0.000000
Si Si2 0.303691 0.151845 0.719070
Si Si3 0.076067 0.152135 0.719820
Si Si4 0.303604 0.921560 0.711970
Si Si5 0.382044 0.303604 0.711970
Si Si6 0.920113 0.524810 0.000000
O O1 0.651775 0.553060 0.827289
O O2 0.552219 0.447781 0.000000
O O3 0.561891 0.561891 0.000000
O O4 0.301687 0.150843 0.500000
O O5 0.228002 0.114001 0.778919
O O6 0.343044 0.115022 0.772456
O O7 0.343044 0.228022 0.772455
O O8 0.076199 0.152398 0.500000
O O9 0.114019 0.114019 0.776158
O O10 0.000000 0.114019 0.776158
O O11 0.306039 0.909255 0.500000
O O12 0.334448 0.000000 0.735404
O O13 0.396783 0.306039 0.500000
O O14 0.334448 0.334448 0.735405
O O15 0.446939 0.348225 0.827289
O O16 0.000000 0.561891 0.000000
#
# Coordination Sequence:
#
# PCOD9586585 Si02
#       6
#     6  12  12  12  12   6
#     4   9  18  31  46  66  91 116 143 176 218 276
#     4   9  16  26  41  62  90 126 166 205 247 292
#     4   9  15  22  34  55  87 129 178 228 270 302
#     4   9  17  29  45  66  94 126 157 191 233 279
#     4   9  17  29  45  66  94 126 157 191 233 279
#     4   9  18  31  46  66  91 116 143 176 218 276
#
# _framework density 16.919778000000001
#
# number of rings (size 3 to 8) (size 9 to 14) (size 15 to 20)
#    0.000    3.000    0.000    1.400    0.000    7.200 
#    0.000    4.000    0.000    0.000    0.000    0.000 
#    8.000    0.000    2.400   15.200    0.000   41.400 
#
# Total GULP energy -334616.436409 kJ/mol
# GULP energy per Si atom -5576.940607 kJ/mol
# Density = 1.688127 g / cm^3
# Si number density = 16.919778 Si / 1000 Ang^3
#
#
#
# Elastic Constant Matrix: (Units=GPa)
#
#
# Indices 1 2 3 4 5 6 
#
# 1 132.1141 85.4559 48.1139 0.0000 0.0000 0.0000
# 2 85.4559 132.1141 48.1139 0.0000 0.0000 0.0000
# 3 48.1139 48.1139 72.9894 0.0000 0.0000 0.0000
# 4 0.0000 0.0000 0.0000 -14.2383 0.0000 0.0000
# 5 0.0000 0.0000 0.0000 0.0000 -14.2383 0.0000
# 6 0.0000 0.0000 0.0000 0.0000 0.0000 23.3291
#
#
#
# Elastic Compliance Matrix: (Units=1/GPa)
#
#
# Indices 1 2 3 4 5 6 
#
# 1 0.013960 -0.007472 -0.004277 0.000000 0.000000 0.000000
# 2 -0.007472 0.013960 -0.004277 0.000000 0.000000 0.000000
# 3 -0.004277 -0.004277 0.019339 0.000000 0.000000 0.000000
# 4 0.000000 0.000000 0.000000 -0.070233 0.000000 0.000000
# 5 0.000000 0.000000 0.000000 0.000000 -0.070233 0.000000
# 6 0.000000 0.000000 0.000000 0.000000 0.000000 0.042865
#
#
# Mechanical properties :
#
#
# Convention : Reuss Voigt Hill
#
# Bulk Modulus (GPa) = 65.75603 77.84281 71.79942
# Shear Modulus (GPa) = -378.15341 9.33944 -184.40698
#
# Velocity S-wave (km/s) = -14.96606 2.35198 -10.45111
# Velocity P-wave (km/s) = 16.11509 7.31318 10.15415
#
# Compressibility (1/GPa) = 0.01520773
#
# Stress axis : x y z
#
# Youngs Moduli (GPa) = 71.63279 71.63279 51.70930
#
# Poissons Ratio (x) = 0.53527 0.22114
# Poissons Ratio (y) = 0.53527 0.22114
# Poissons Ratio (z) = 0.30635 0.30635
#
# Static dielectric constant tensor:
#      x y z
#    x 1.542870 0.000000 0.000000 
#    y 0.000000 1.542870 0.000000 
#    z 0.000000 0.000000 1.635830 
# 
# From -- ./inp_files/968.got.cif
#   From: 2010.05.17/outbox.cif.g08.bks.cpg/sg189_1_cif.got.tgz:968.got - 2010.05.20 12:14:34.
