data_PCOD9586311
_publ_section_title
;
Structure prediction by ZEFSAII (Michael W. Deem and Ramdas Pophale) SiO2 
 PCOD9586311
Probable space group: P -6 2 M
;
_chemical_formula_sum "Si O2"
_cell_formula_units_Z 66
_cell_length_a 22.285121
_cell_length_b 22.285121
_cell_length_c 7.556005
_cell_angle_alpha 90.000000
_cell_angle_beta 90.000000
_cell_angle_gamma 120.000000
_cell_volume 3249.771767
_symmetry_space_group_name_H-M "P -6 2 M"
_symmetry_group_IT_number 189
_symmetry_cell_setting 'hexagonal'
loop_
_space_group_symop_operation_xyz
x,y,z
-x+y,-x,-z
-y,x-y,z
x,y,-z
-x+y,-x,z
-y,x-y,-z
x-y,-y,-z
-x,-x+y,-z
y,x,-z
y,x,z
x-y,-y,z
-x,-x+y,z
loop_
_atom_site_type_symbol
_atom_site_label
_atom_site_fract_x
_atom_site_fract_y
_atom_site_fract_z
Si Si1 0.374339 0.295673 0.290352
Si Si2 0.528916 0.196124 0.216849
Si Si3 0.621865 0.700220 0.215716
Si Si4 0.858646 0.721398 0.797701
Si Si5 0.163948 0.082783 0.500000
Si Si6 0.334615 0.529651 0.786905
O O1 0.362232 0.285199 0.500000
O O2 0.346845 0.346845 0.230068
O O3 0.328749 0.220069 0.206227
O O4 0.455357 0.325336 0.258327
O O5 0.455453 0.132539 0.274619
O O6 0.594324 0.189678 0.275941
O O7 0.533962 0.267831 0.274257
O O8 0.529065 0.196256 0.000000
O O9 0.650263 0.650263 0.274425
O O10 0.675261 0.779281 0.266127
O O11 0.620773 0.699763 0.000000
O O12 0.899575 0.785955 0.669660
O O13 0.858330 0.743197 0.000000
O O14 0.109442 0.109442 0.500000
O O15 0.126385 0.000000 0.500000
O O16 0.334871 0.533596 0.000000
#
# Coordination Sequence:
#
# PCOD9586311 Si02
#       6
#    12  12  12  12   6  12
#     4  11  23  39  59  86 121 158 203 264 323 375
#     4   9  17  30  51  82 117 151 194 247 301 363
#     4   9  17  31  54  85 118 151 194 251 305 357
#     4  11  22  41  68  96 126 165 214 261 315 383
#     4  12  27  46  68  98 134 172 212 260 318 384
#     4  10  19  34  57  85 117 157 204 252 309 376
#
# _framework density 20.309118000000002
#
# number of rings (size 3 to 8) (size 9 to 14) (size 15 to 20)
#    0.000    1.818    2.727    2.091    0.000    5.818 
#    0.000    2.727    2.000    1.091    0.000    0.000 
#    0.000    0.000    0.000    0.000    0.000    0.000 
#
# Total GULP energy -368998.459629 kJ/mol
# GULP energy per Si atom -5590.885752 kJ/mol
# Density = 2.026289 g / cm^3
# Si number density = 20.309118 Si / 1000 Ang^3
#
#
#
# Elastic Constant Matrix: (Units=GPa)
#
#
# Indices 1 2 3 4 5 6 
#
# 1 140.6886 67.5623 16.5713 0.0000 0.0000 0.0000
# 2 67.5623 140.6886 16.5713 0.0000 0.0000 0.0000
# 3 16.5713 16.5713 67.2214 0.0000 0.0000 0.0000
# 4 0.0000 0.0000 0.0000 15.4287 0.0000 0.0000
# 5 0.0000 0.0000 0.0000 0.0000 15.4287 0.0000
# 6 0.0000 0.0000 0.0000 0.0000 0.0000 36.5632
#
#
#
# Elastic Compliance Matrix: (Units=1/GPa)
#
#
# Indices 1 2 3 4 5 6 
#
# 1 0.009336 -0.004338 -0.001232 0.000000 0.000000 0.000000
# 2 -0.004338 0.009336 -0.001232 0.000000 0.000000 0.000000
# 3 -0.001232 -0.001232 0.015484 0.000000 0.000000 0.000000
# 4 0.000000 0.000000 0.000000 0.064814 0.000000 0.000000
# 5 0.000000 0.000000 0.000000 0.000000 0.064814 0.000000
# 6 0.000000 0.000000 0.000000 0.000000 0.000000 0.027350
#
#
# Mechanical properties :
#
#
# Convention : Reuss Voigt Hill
#
# Bulk Modulus (GPa) = 48.65879 61.11207 54.88543
# Shear Modulus (GPa) = 23.63047 30.01034 26.82041
#
# Velocity S-wave (km/s) = 3.41477 3.84823 3.63796
# Velocity P-wave (km/s) = 6.28957 7.06409 6.68805
#
# Compressibility (1/GPa) = 0.02055127
#
# Stress axis : x y z
#
# Youngs Moduli (GPa) = 107.10678 107.10679 64.58409
#
# Poissons Ratio (x) = 0.46468 0.07957
# Poissons Ratio (y) = 0.46468 0.07957
# Poissons Ratio (z) = 0.13197 0.13197
#
# Static dielectric constant tensor:
#      x y z
#    x 1.682120 0.000000 0.000000 
#    y 0.000000 1.682120 0.000000 
#    z 0.000000 0.000000 1.756710 
# 
# From -- ./inp_files/1054.got.cif
#   From: 2010.05.17/outbox.cif.g08.bks.cpg/sg189_1_cif.got.tgz:1054.got - 2010.05.20 12:14:34.
