data_PCOD9586081
_publ_section_title
;
Structure prediction by ZEFSAII (Michael W. Deem and Ramdas Pophale) SiO2 
 PCOD9586081
Probable space group: P -6 C 2
;
_chemical_formula_sum "Si O2"
_cell_formula_units_Z 70
_cell_length_a 14.051255
_cell_length_b 14.051255
_cell_length_c 22.095877
_cell_angle_alpha 90.000000
_cell_angle_beta 90.000000
_cell_angle_gamma 120.000000
_cell_volume 3778.088319
_symmetry_space_group_name_H-M "P -6 C 2"
_symmetry_group_IT_number 188
_symmetry_cell_setting 'hexagonal'
loop_
_space_group_symop_operation_xyz
x,y,z
-x+y,-x,1/2-z
-y,x-y,z
x,y,1/2-z
-x+y,-x,z
-y,x-y,1/2-z
-y,-x,-z
-x+y,y,-z
x,x-y,-z
-x+y,y,1/2+z
x,x-y,1/2+z
-y,-x,1/2+z
loop_
_atom_site_type_symbol
_atom_site_label
_atom_site_fract_x
_atom_site_fract_y
_atom_site_fract_z
Si Si1 0.679967 0.217969 0.750000
Si Si2 0.603731 0.583241 0.920971
Si Si3 0.395977 0.190770 0.141187
Si Si4 0.584413 0.800758 0.366569
Si Si5 0.855393 0.757783 0.750000
Si Si6 0.109475 0.846284 0.750000
Si Si7 0.627962 0.633163 0.062803
Si Si8 0.333333 0.666666 0.677226
O O1 0.569589 0.223363 0.750000
O O2 0.698229 0.173292 0.812307
O O3 0.694606 0.556230 0.894219
O O4 0.604710 0.686179 0.888367
O O5 0.482209 0.477469 0.916285
O O6 0.631610 0.618839 0.991002
O O7 0.309684 0.192564 0.188334
O O8 0.352477 0.090020 0.094854
O O9 0.660918 0.817260 0.308910
O O10 0.609451 0.732864 0.416989
O O11 0.457736 0.728200 0.346790
O O12 0.828481 0.854334 0.750000
O O13 0.979295 0.783414 0.750000
O O14 0.333334 0.666668 0.750000
#
# Coordination Sequence:
#
# PCOD9586081 Si02
#       8
#     6  12  12  12   6   6  12   4
#     4   9  20  36  55  86 117 154 194 251 312 364
#     4  11  24  41  63  90 126 172 214 260 313 379
#     4  11  21  39  62  89 122 160 209 261 313 373
#     4  12  23  41  65  91 132 164 211 263 319 383
#     4  11  23  38  64  88 118 160 199 259 324 366
#     4  12  23  42  65  92 123 166 203 262 324 382
#     4  11  24  41  63  90 126 172 214 260 313 379
#     4  12  24  39  61 101 130 165 204 268 323 388
#
# _framework density 18.527889999999999
#
# number of rings (size 3 to 8) (size 9 to 14) (size 15 to 20)
#    0.171    0.686    6.000    2.229    0.000    0.000 
#    1.029    1.714    0.000    0.000    0.000    4.800 
#    0.000    0.000    0.000    0.000    0.000    0.000 
#
# Total GULP energy -390664.552721 kJ/mol
# GULP energy per Si atom -5580.922182 kJ/mol
# Density = 1.848572 g / cm^3
# Si number density = 18.527890 Si / 1000 Ang^3
#
#
#
# Elastic Constant Matrix: (Units=GPa)
#
#
# Indices 1 2 3 4 5 6 
#
# 1 70.1664 2.9870 21.3670 0.0000 0.0000 0.0000
# 2 2.9870 70.1665 21.3670 0.0000 0.0000 0.0000
# 3 21.3670 21.3670 89.6219 0.0000 0.0000 0.0000
# 4 0.0000 0.0000 0.0000 14.7963 0.0000 0.0000
# 5 0.0000 0.0000 0.0000 0.0000 14.7963 0.0000
# 6 0.0000 0.0000 0.0000 0.0000 0.0000 33.5897
#
#
#
# Elastic Compliance Matrix: (Units=1/GPa)
#
#
# Indices 1 2 3 4 5 6 
#
# 1 0.015384 0.000498 -0.003786 0.000000 0.000000 0.000000
# 2 0.000498 0.015384 -0.003786 0.000000 0.000000 0.000000
# 3 -0.003786 -0.003786 0.012963 0.000000 0.000000 0.000000
# 4 0.000000 0.000000 0.000000 0.067584 0.000000 0.000000
# 5 0.000000 0.000000 0.000000 0.000000 0.067584 0.000000
# 6 0.000000 0.000000 0.000000 0.000000 0.000000 0.029771
#
#
# Mechanical properties :
#
#
# Convention : Reuss Voigt Hill
#
# Bulk Modulus (GPa) = 33.80508 35.71077 34.75792
# Shear Modulus (GPa) = 21.48871 24.91872 23.20371
#
# Velocity S-wave (km/s) = 3.40928 3.67131 3.54272
# Velocity P-wave (km/s) = 5.81229 6.10633 5.96112
#
# Compressibility (1/GPa) = 0.02958135
#
# Stress axis : x y z
#
# Youngs Moduli (GPa) = 65.00400 65.00409 77.13996
#
# Poissons Ratio (x) = -0.03238 0.29209
# Poissons Ratio (y) = -0.03238 0.29208
# Poissons Ratio (z) = 0.24613 0.24613
#
# Static dielectric constant tensor:
#      x y z
#    x 1.616110 0.000000 0.000000 
#    y 0.000000 1.616110 0.000000 
#    z 0.000000 0.000000 1.642970 
# 
# From -- ./inp_files/3252.got.cif
#   From: 2010.05.17/outbox.cif.g08.bks.cpg/sg188_2_cif.got.tgz:3252.got - 2010.05.20 12:11:46.
