data_PCOD9586630
_publ_section_title
;
Structure prediction by ZEFSAII (Michael W. Deem and Ramdas Pophale) SiO2 
 PCOD9586630
Probable space group: P -6 2 C
;
_chemical_formula_sum "Si O2"
_cell_formula_units_Z 64
_cell_length_a 14.856745
_cell_length_b 14.856745
_cell_length_c 17.241368
_cell_angle_alpha 90.000000
_cell_angle_beta 90.000000
_cell_angle_gamma 120.000000
_cell_volume 3295.715327
_symmetry_space_group_name_H-M "P -6 2 C"
_symmetry_group_IT_number 190
_symmetry_cell_setting 'hexagonal'
loop_
_space_group_symop_operation_xyz
x,y,z
-x+y,-x,1/2-z
-y,x-y,z
x,y,1/2-z
-x+y,-x,z
-y,x-y,1/2-z
x-y,-y,-z
-x,-x+y,-z
y,x,-z
y,x,1/2+z
x-y,-y,1/2+z
-x,-x+y,1/2+z
loop_
_atom_site_type_symbol
_atom_site_label
_atom_site_fract_x
_atom_site_fract_y
_atom_site_fract_z
Si Si1 0.460429 0.769233 0.922003
Si Si2 0.718842 0.552119 0.660498
Si Si3 0.874800 0.097902 0.657463
Si Si4 0.377329 0.515895 0.091656
Si Si5 0.000000 0.000000 0.091253
Si Si6 0.637529 0.954852 0.657942
O O1 0.353113 0.771882 0.909504
O O2 0.556520 0.838766 0.867264
O O3 0.487766 0.810462 0.010195
O O4 0.688253 0.552512 0.750000
O O5 0.797416 0.670789 0.634454
O O6 0.620095 0.484876 0.606876
O O7 0.787810 0.495851 0.654872
O O8 0.888224 0.103487 0.750000
O O9 0.960036 0.076421 0.620903
O O10 0.759362 0.000755 0.641016
O O11 0.393233 0.418993 0.106701
O O12 0.000000 0.000000 0.000000
O O13 0.629222 0.969628 0.750000
#
# Coordination Sequence:
#
# PCOD9586630 Si02
#       6
#    12  12  12  12   4  12
#     4  10  21  38  56  84 122 163 196 234 303 369
#     4  10  18  31  57  90 122 156 192 242 297 357
#     4   9  21  41  63  84 113 153 201 253 307 352
#     4  11  18  35  56  87 126 153 197 239 300 361
#     4  12  25  44  64  90 115 155 202 261 316 368
#     4  10  22  39  62  89 115 159 208 251 297 352
#
# _framework density 19.419153000000001
#
# number of rings (size 3 to 8) (size 9 to 14) (size 15 to 20)
#    0.375    1.500    1.875    4.312    0.000    3.750 
#    3.375    0.000    0.000    0.000    0.000    0.000 
#    0.000    0.000    0.000    0.000    0.000    0.000 
#
# Total GULP energy -356770.625288 kJ/mol
# GULP energy per Si atom -5574.541020 kJ/mol
# Density = 1.937495 g / cm^3
# Si number density = 19.419153 Si / 1000 Ang^3
#
#
#
# Elastic Constant Matrix: (Units=GPa)
#
#
# Indices 1 2 3 4 5 6 
#
# 1 48.9466 11.1936 10.1378 0.0000 0.0000 0.0000
# 2 11.1936 48.9466 10.1378 0.0000 0.0000 0.0000
# 3 10.1378 10.1378 25.7375 0.0000 0.0000 0.0000
# 4 0.0000 0.0000 0.0000 39.1334 0.0000 0.0000
# 5 0.0000 0.0000 0.0000 0.0000 39.1334 0.0000
# 6 0.0000 0.0000 0.0000 0.0000 0.0000 18.8765
#
#
#
# Elastic Compliance Matrix: (Units=1/GPa)
#
#
# Indices 1 2 3 4 5 6 
#
# 1 0.022831 -0.003657 -0.007552 0.000000 0.000000 0.000000
# 2 -0.003657 0.022831 -0.007552 0.000000 0.000000 0.000000
# 3 -0.007552 -0.007552 0.044804 0.000000 0.000000 0.000000
# 4 0.000000 0.000000 0.000000 0.025554 0.000000 0.000000
# 5 0.000000 0.000000 0.000000 0.000000 0.025554 0.000000
# 6 0.000000 0.000000 0.000000 0.000000 0.000000 0.052976
#
#
# Mechanical properties :
#
#
# Convention : Reuss Voigt Hill
#
# Bulk Modulus (GPa) = 18.88871 20.72988 19.80930
# Shear Modulus (GPa) = 20.02246 25.57277 22.79761
#
# Velocity S-wave (km/s) = 3.21451 3.63283 3.43005
# Velocity P-wave (km/s) = 4.85030 5.31928 5.09019
#
# Compressibility (1/GPa) = 0.05294169
#
# Stress axis : x y z
#
# Youngs Moduli (GPa) = 43.80014 43.80014 22.31968
#
# Poissons Ratio (x) = 0.16018 0.16857
# Poissons Ratio (y) = 0.16018 0.16857
# Poissons Ratio (z) = 0.33080 0.33080
#
# Static dielectric constant tensor:
#      x y z
#    x 1.710590 0.000000 0.000000 
#    y 0.000000 1.710590 0.000000 
#    z 0.000000 0.000000 1.674880 
# 
# From -- ./inp_files/3683.got.cif
#   From: 2010.05.17/outbox.cif.g08.bks.cpg/sg190_2_cif.got.tgz:3683.got - 2010.05.20 12:16:56.
