data_PCOD9586824
_publ_section_title
;
Structure prediction by ZEFSAII (Michael W. Deem and Ramdas Pophale) SiO2 
 PCOD9586824
Probable space group: P -6 2 C
;
_chemical_formula_sum "Si O2"
_cell_formula_units_Z 84
_cell_length_a 18.628967
_cell_length_b 18.628967
_cell_length_c 15.325184
_cell_angle_alpha 90.000000
_cell_angle_beta 90.000000
_cell_angle_gamma 120.000000
_cell_volume 4605.893333
_symmetry_space_group_name_H-M "P -6 2 C"
_symmetry_group_IT_number 190
_symmetry_cell_setting 'hexagonal'
loop_
_space_group_symop_operation_xyz
x,y,z
-x+y,-x,1/2-z
-y,x-y,z
x,y,1/2-z
-x+y,-x,z
-y,x-y,1/2-z
x-y,-y,-z
-x,-x+y,-z
y,x,-z
y,x,1/2+z
x-y,-y,1/2+z
-x,-x+y,1/2+z
loop_
_atom_site_type_symbol
_atom_site_label
_atom_site_fract_x
_atom_site_fract_y
_atom_site_fract_z
Si Si1 0.310053 0.289787 0.647019
Si Si2 0.161249 0.304030 0.852626
Si Si3 0.302651 0.008913 0.395948
Si Si4 0.243286 0.468798 0.973436
Si Si5 0.473269 0.407650 0.433761
Si Si6 0.787558 0.606896 0.650150
Si Si7 0.134630 0.493474 0.847737
O O1 0.323972 0.305544 0.750000
O O2 0.213419 0.258264 0.630141
O O3 0.362200 0.378602 0.600518
O O4 0.339972 0.225178 0.625506
O O5 0.175647 0.329901 0.750000
O O6 0.063901 0.261047 0.869790
O O7 0.200096 0.381655 0.919169
O O8 0.397827 0.063399 0.364042
O O9 0.302239 0.000000 0.500000
O O10 0.255940 0.918111 0.355676
O O11 0.338598 0.491821 0.974556
O O12 0.209249 0.517924 0.916284
O O13 0.210152 0.458877 0.071721
O O14 0.475898 0.475898 0.500000
O O15 0.543176 0.451559 0.361361
O O16 0.780481 0.576519 0.750000
O O17 0.166645 0.501499 0.750000
#
# Coordination Sequence:
#
# PCOD9586824 Si02
#       7
#    12  12  12  12  12  12  12
#     4   9  19  34  54  81 109 143 190 235 283 338
#     4   9  17  31  53  76 104 140 180 229 282 332
#     4  11  19  34  53  80 112 144 186 231 283 339
#     4  10  20  37  56  79 114 146 186 236 288 344
#     4  11  21  36  59  85 115 149 191 242 294 349
#     4  11  20  33  54  81 112 147 190 234 282 339
#     4  11  23  38  59  84 115 154 193 239 296 354
#
# _framework density 18.237504999999999
#
# number of rings (size 3 to 8) (size 9 to 14) (size 15 to 20)
#    0.000    1.714    4.286    3.429    0.000    1.714 
#    0.857    0.000    0.000    1.429    0.000    2.000 
#    0.000    0.000    0.000    0.000    0.000    0.000 
#
# Total GULP energy -467860.238753 kJ/mol
# GULP energy per Si atom -5569.764747 kJ/mol
# Density = 1.819600 g / cm^3
# Si number density = 18.237505 Si / 1000 Ang^3
#
#
#
# Elastic Constant Matrix: (Units=GPa)
#
#
# Indices 1 2 3 4 5 6 
#
# 1 48.8031 17.6957 18.3473 0.0000 0.0000 0.0000
# 2 17.6957 48.8031 18.3473 0.0000 0.0000 0.0000
# 3 18.3473 18.3473 115.2324 0.0000 0.0000 0.0000
# 4 0.0000 0.0000 0.0000 20.7757 0.0000 0.0000
# 5 0.0000 0.0000 0.0000 0.0000 20.7757 0.0000
# 6 0.0000 0.0000 0.0000 0.0000 0.0000 15.5537
#
#
#
# Elastic Compliance Matrix: (Units=1/GPa)
#
#
# Indices 1 2 3 4 5 6 
#
# 1 0.024316 -0.007830 -0.002625 0.000000 0.000000 0.000000
# 2 -0.007830 0.024316 -0.002625 0.000000 0.000000 0.000000
# 3 -0.002625 -0.002625 0.009514 0.000000 0.000000 0.000000
# 4 0.000000 0.000000 0.000000 0.048133 0.000000 0.000000
# 5 0.000000 0.000000 0.000000 0.000000 0.048133 0.000000
# 6 0.000000 0.000000 0.000000 0.000000 0.000000 0.064293
#
#
# Mechanical properties :
#
#
# Convention : Reuss Voigt Hill
#
# Bulk Modulus (GPa) = 31.26284 35.73548 33.49916
# Shear Modulus (GPa) = 19.56726 21.98426 20.77576
#
# Velocity S-wave (km/s) = 3.27909 3.47571 3.37883
# Velocity P-wave (km/s) = 5.61390 5.97867 5.79915
#
# Compressibility (1/GPa) = 0.03198685
#
# Stress axis : x y z
#
# Youngs Moduli (GPa) = 41.12435 41.12435 105.10823
#
# Poissons Ratio (x) = 0.32201 0.27590
# Poissons Ratio (y) = 0.32201 0.27590
# Poissons Ratio (z) = 0.10795 0.10795
#
# Static dielectric constant tensor:
#      x y z
#    x 1.646020 0.000000 0.000000 
#    y 0.000000 1.646020 0.000000 
#    z 0.000000 0.000000 1.664590 
# 
# From -- ./inp_files/3183.got.cif
#   From: 2010.05.17/outbox.cif.g08.bks.cpg/sg190_2_cif.got.tgz:3183.got - 2010.05.20 12:16:56.
