data_PCOD9586103
_publ_section_title
;
Structure prediction by ZEFSAII (Michael W. Deem and Ramdas Pophale) SiO2 
 PCOD9586103
Probable space group: P -6 2 M
;
_chemical_formula_sum "Si O2"
_cell_formula_units_Z 40
_cell_length_a 19.891285
_cell_length_b 19.891285
_cell_length_c 8.117263
_cell_angle_alpha 90.000000
_cell_angle_beta 90.000000
_cell_angle_gamma 120.000000
_cell_volume 2781.415874
_symmetry_space_group_name_H-M "P -6 2 M"
_symmetry_group_IT_number 189
_symmetry_cell_setting 'hexagonal'
loop_
_space_group_symop_operation_xyz
x,y,z
-x+y,-x,-z
-y,x-y,z
x,y,-z
-x+y,-x,z
-y,x-y,-z
x-y,-y,-z
-x,-x+y,-z
y,x,-z
y,x,z
x-y,-y,z
-x,-x+y,z
loop_
_atom_site_type_symbol
_atom_site_label
_atom_site_fract_x
_atom_site_fract_y
_atom_site_fract_z
Si Si1 0.242215 0.754532 0.300999
Si Si2 0.666668 0.333335 0.299112
Si Si3 0.087729 0.617382 0.196481
Si Si4 0.913114 0.377730 0.697610
O O1 0.243213 0.755594 0.500000
O O2 0.285973 0.708357 0.245278
O O3 0.153679 0.702867 0.246647
O O4 0.295834 0.842964 0.241847
O O5 0.666667 0.333334 0.500000
O O6 0.106252 0.552510 0.267654
O O7 0.000000 0.590699 0.251502
O O8 0.087525 0.611231 0.000000
O O9 0.916195 0.372040 0.500000
O O10 0.000000 0.408343 0.763903
#
# Coordination Sequence:
#
# PCOD9586103 Si02
#       4
#    12   4  12  12
#     4  10  17  28  43  57  77 104 135 169 200 235
#     4   9  15  24  37  59  79  96 130 170 196 225
#     4  10  20  30  39  56  81 105 132 167 203 237
#     4   9  17  29  44  60  78 102 132 166 203 240
#
# _framework density 14.381164
#
# number of rings (size 3 to 8) (size 9 to 14) (size 15 to 20)
#    0.000    2.400    3.000    0.900    0.000    3.000 
#    0.000    0.000    0.000    0.000    0.000    0.000 
#    0.000    0.000    0.000    0.900    0.000   13.800 
#
# Total GULP energy -222886.333551 kJ/mol
# GULP energy per Si atom -5572.158339 kJ/mol
# Density = 1.434843 g / cm^3
# Si number density = 14.381164 Si / 1000 Ang^3
#
#
#
# Elastic Constant Matrix: (Units=GPa)
#
#
# Indices 1 2 3 4 5 6 
#
# 1 96.4531 49.2121 5.5014 0.0000 0.0000 0.0000
# 2 49.2121 96.4539 5.5014 -0.0001 0.0000 0.0000
# 3 5.5014 5.5014 4.6308 -0.0001 0.0000 0.0000
# 4 0.0000 -0.0001 -0.0001 7.5320 -0.0001 0.0000
# 5 0.0000 0.0000 0.0000 -0.0001 7.5321 -0.0001
# 6 0.0000 0.0000 0.0000 0.0000 -0.0001 23.6205
#
#
#
# Elastic Compliance Matrix: (Units=1/GPa)
#
#
# Indices 1 2 3 4 5 6 
#
# 1 0.014355 -0.006813 -0.008960 0.000000 0.000000 0.000000
# 2 -0.006813 0.014355 -0.008960 0.000000 0.000000 0.000000
# 3 -0.008960 -0.008960 0.237236 0.000003 0.000001 0.000000
# 4 0.000000 0.000000 0.000003 0.132767 0.000002 0.000000
# 5 0.000000 0.000000 0.000001 0.000002 0.132765 0.000000
# 6 0.000000 0.000000 0.000000 0.000000 0.000000 0.042336
#
#
# Mechanical properties :
#
#
# Convention : Reuss Voigt Hill
#
# Bulk Modulus (GPa) = 4.61935 35.32973 19.97454
# Shear Modulus (GPa) = 7.18970 16.89178 12.04074
#
# Velocity S-wave (km/s) = 2.23836 3.43093 2.89668
# Velocity P-wave (km/s) = 3.14633 6.34941 5.01071
#
# Compressibility (1/GPa) = 0.21648045
#
# Stress axis : x y z
#
# Youngs Moduli (GPa) = 69.66264 69.66313 4.21522
#
# Poissons Ratio (x) = 0.47462 0.03777
# Poissons Ratio (y) = 0.47461 0.03777
# Poissons Ratio (z) = 0.62416 0.62417
#
# Static dielectric constant tensor:
#      x y z
#    x 1.487850 0.000000 0.000000 
#    y 0.000000 1.487850 0.000000 
#    z 0.000000 0.000000 1.509810 
# 
# From -- ./inp_files/455.got.cif
#   From: 2010.05.17/outbox.cif.g08.bks.cpg/sg189_1_cif.got.tgz:455.got - 2010.05.20 12:14:34.
