data_PCOD9586940
_publ_section_title
;
Structure prediction by ZEFSAII (Michael W. Deem and Ramdas Pophale) SiO2 
 PCOD9586940
Probable space group: P -6 2 C
;
_chemical_formula_sum "Si O2"
_cell_formula_units_Z 54
_cell_length_a 11.719723
_cell_length_b 11.719723
_cell_length_c 22.887894
_cell_angle_alpha 90.000000
_cell_angle_beta 90.000000
_cell_angle_gamma 120.000000
_cell_volume 2722.520505
_symmetry_space_group_name_H-M "P -6 2 C"
_symmetry_group_IT_number 190
_symmetry_cell_setting 'hexagonal'
loop_
_space_group_symop_operation_xyz
x,y,z
-x+y,-x,1/2-z
-y,x-y,z
x,y,1/2-z
-x+y,-x,z
-y,x-y,1/2-z
x-y,-y,-z
-x,-x+y,-z
y,x,-z
y,x,1/2+z
x-y,-y,1/2+z
-x,-x+y,1/2+z
loop_
_atom_site_type_symbol
_atom_site_label
_atom_site_fract_x
_atom_site_fract_y
_atom_site_fract_z
Si Si1 0.000000 0.000000 0.572477
Si Si2 0.845451 0.224223 0.985773
Si Si3 0.519968 0.928865 0.816304
Si Si4 0.764725 0.034476 0.409038
Si Si5 0.666668 0.333335 0.512818
Si Si6 0.837243 0.401156 0.750000
Si Si7 0.666666 0.333333 0.126128
O O1 0.851859 0.939196 0.595247
O O2 0.000000 0.000000 0.500000
O O3 0.800370 0.110785 0.937453
O O4 0.771754 0.140447 0.043889
O O5 0.790715 0.319979 0.968457
O O6 0.000000 0.301983 0.000000
O O7 0.523762 0.883617 0.750000
O O8 0.648113 0.956488 0.852401
O O9 0.394868 0.814328 0.849085
O O10 0.517915 0.064140 0.805080
O O11 0.666668 0.333334 0.442826
O O12 0.724263 0.249604 0.750000
#
# Coordination Sequence:
#
# PCOD9586940 Si02
#       7
#     4  12  12  12   4   6   4
#     4  12  18  39  67  95 124 171 234 262 335 400
#     4  11  23  42  64  90 131 172 216 273 328 391
#     4  10  23  42  66  93 132 172 223 264 326 395
#     4  11  20  41  65  92 124 173 223 263 325 395
#     4  12  27  40  61 105 133 166 222 274 329 397
#     4   8  20  48  64  88 126 164 218 266 322 394
#     4  12  22  43  69  96 129 178 220 268 326 388
#
# _framework density 19.83456
#
# number of rings (size 3 to 8) (size 9 to 14) (size 15 to 20)
#    0.889    0.444    6.667    0.667    3.111    0.000 
#   12.000    1.111    0.000    0.000    0.000    0.000 
#    0.000    0.000    0.000    0.000    0.000    0.000 
#
# Total GULP energy -301101.589585 kJ/mol
# GULP energy per Si atom -5575.955363 kJ/mol
# Density = 1.978942 g / cm^3
# Si number density = 19.834560 Si / 1000 Ang^3
#
#
#
# Elastic Constant Matrix: (Units=GPa)
#
#
# Indices 1 2 3 4 5 6 
#
# 1 79.6624 11.3395 -6.7957 -0.0001 0.0001 -0.0002
# 2 11.3395 79.6619 -6.7954 0.0001 -0.0001 -0.0001
# 3 -6.7957 -6.7954 28.2999 -0.0001 0.0001 0.0000
# 4 -0.0001 0.0001 -0.0001 14.4699 -0.0002 0.0001
# 5 0.0001 -0.0001 0.0001 -0.0002 14.4707 0.0001
# 6 -0.0002 -0.0001 0.0000 0.0001 0.0001 34.1612
#
#
#
# Elastic Compliance Matrix: (Units=1/GPa)
#
#
# Indices 1 2 3 4 5 6 
#
# 1 0.013017 -0.001619 0.002737 0.000000 0.000000 0.000000
# 2 -0.001619 0.013017 0.002737 0.000000 0.000000 0.000000
# 3 0.002737 0.002737 0.036650 0.000000 0.000000 0.000000
# 4 0.000000 0.000000 0.000000 0.069109 0.000001 0.000000
# 5 0.000000 0.000000 0.000000 0.000001 0.069105 0.000000
# 6 0.000000 0.000000 0.000000 0.000000 0.000000 0.029273
#
#
# Mechanical properties :
#
#
# Convention : Reuss Voigt Hill
#
# Bulk Modulus (GPa) = 14.20599 20.34676 17.27637
# Shear Modulus (GPa) = 20.33123 25.27875 22.80499
#
# Velocity S-wave (km/s) = 3.20510 3.57386 3.39449
# Velocity P-wave (km/s) = 4.56888 5.22594 4.90842
#
# Compressibility (1/GPa) = 0.07039285
#
# Stress axis : x y z
#
# Youngs Moduli (GPa) = 76.82280 76.82250 27.28494
#
# Poissons Ratio (x) = 0.12441 -0.07468
# Poissons Ratio (y) = 0.12441 -0.07467
# Poissons Ratio (z) = -0.21026 -0.21025
#
# Static dielectric constant tensor:
#      x y z
#    x 1.723090 0.000000 0.000000 
#    y 0.000000 1.723090 0.000000 
#    z 0.000000 0.000000 1.680630 
# 
# From -- ./inp_files/4639.got.cif
#   From: 2010.05.17/outbox.cif.g08.bks.cpg/sg190_3_cif.got.tgz:4639.got - 2010.05.20 12:16:56.
