data_PCOD9586022
_publ_section_title
;
Structure prediction by ZEFSAII (Michael W. Deem and Ramdas Pophale) SiO2 
 PCOD9586022
Probable space group: P -6 C 2
;
_chemical_formula_sum "Si O2"
_cell_formula_units_Z 66
_cell_length_a 20.198352
_cell_length_b 20.198352
_cell_length_c 9.065146
_cell_angle_alpha 90.000000
_cell_angle_beta 90.000000
_cell_angle_gamma 120.000000
_cell_volume 3202.855221
_symmetry_space_group_name_H-M "P -6 C 2"
_symmetry_group_IT_number 188
_symmetry_cell_setting 'hexagonal'
loop_
_space_group_symop_operation_xyz
x,y,z
-x+y,-x,1/2-z
-y,x-y,z
x,y,1/2-z
-x+y,-x,z
-y,x-y,1/2-z
-y,-x,-z
-x+y,y,-z
x,x-y,-z
-x+y,y,1/2+z
x,x-y,1/2+z
-y,-x,1/2+z
loop_
_atom_site_type_symbol
_atom_site_label
_atom_site_fract_x
_atom_site_fract_y
_atom_site_fract_z
Si Si1 0.635092 0.712378 0.921815
Si Si2 0.166465 0.957269 0.418387
Si Si3 0.259327 0.129664 0.500000
Si Si4 0.664204 0.199304 0.922229
Si Si5 0.474817 0.808601 0.571339
Si Si6 0.709605 0.610105 0.908449
O O1 0.626458 0.728923 0.750000
O O2 0.651281 0.641704 0.921763
O O3 0.711727 0.780253 0.994534
O O4 0.560601 0.693080 0.015617
O O5 0.158525 0.931912 0.250000
O O6 0.085441 0.914560 0.500000
O O7 0.206236 0.048854 0.422396
O O8 0.317523 0.112274 0.590358
O O9 0.659355 0.208748 0.750000
O O10 0.720755 0.279246 0.000000
O O11 0.582757 0.165514 0.000000
O O12 0.698570 0.144791 0.959696
O O13 0.470238 0.805293 0.750000
O O14 0.415486 0.830972 0.500000
O O15 0.454822 0.727411 0.500000
O O16 0.697701 0.569527 0.750000
#
# Coordination Sequence:
#
# PCOD9586022 Si02
#       6
#    12  12   6  12  12  12
#     4  10  22  41  65  94 128 165 210 263 316 377
#     4  11  23  40  64  95 129 170 215 265 323 385
#     4  10  22  40  68  94 128 168 220 268 324 392
#     4  12  25  41  62  88 124 165 212 263 321 383
#     4  12  25  43  66  93 127 167 212 260 316 380
#     4  10  21  39  65  95 125 162 212 266 321 381
#
# _framework density 20.606614
#
# number of rings (size 3 to 8) (size 9 to 14) (size 15 to 20)
#    0.000    1.091    0.909    5.818    0.000    6.545 
#    0.545    0.000    0.000    0.000    0.000    0.000 
#    0.000    0.000    0.000    0.000    0.000    0.000 
#
# Total GULP energy -368789.312964 kJ/mol
# GULP energy per Si atom -5587.716863 kJ/mol
# Density = 2.055971 g / cm^3
# Si number density = 20.606614 Si / 1000 Ang^3
#
#
#
# Elastic Constant Matrix: (Units=GPa)
#
#
# Indices 1 2 3 4 5 6 
#
# 1 81.5362 34.2846 40.3876 0.0000 0.0000 0.0000
# 2 34.2846 81.5362 40.3876 0.0000 0.0000 0.0000
# 3 40.3876 40.3876 197.7257 0.0000 0.0000 0.0000
# 4 0.0000 0.0000 0.0000 5.9483 0.0000 0.0000
# 5 0.0000 0.0000 0.0000 0.0000 5.9483 0.0000
# 6 0.0000 0.0000 0.0000 0.0000 0.0000 23.6258
#
#
#
# Elastic Compliance Matrix: (Units=1/GPa)
#
#
# Indices 1 2 3 4 5 6 
#
# 1 0.015616 -0.005548 -0.002057 0.000000 0.000000 0.000000
# 2 -0.005548 0.015616 -0.002057 0.000000 0.000000 0.000000
# 3 -0.002057 -0.002057 0.005898 0.000000 0.000000 0.000000
# 4 0.000000 0.000000 0.000000 0.168114 0.000000 0.000000
# 5 0.000000 0.000000 0.000000 0.000000 0.168114 0.000000
# 6 0.000000 0.000000 0.000000 0.000000 0.000000 0.042327
#
#
# Mechanical properties :
#
#
# Convention : Reuss Voigt Hill
#
# Bulk Modulus (GPa) = 56.15445 65.65754 60.90599
# Shear Modulus (GPa) = 11.33937 23.48704 17.41320
#
# Velocity S-wave (km/s) = 2.34835 3.37973 2.91009
# Velocity P-wave (km/s) = 5.88751 6.86743 6.39627
#
# Compressibility (1/GPa) = 0.01780803
#
# Stress axis : x y z
#
# Youngs Moduli (GPa) = 64.03767 64.03767 169.55868
#
# Poissons Ratio (x) = 0.35525 0.34871
# Poissons Ratio (y) = 0.35525 0.34871
# Poissons Ratio (z) = 0.13170 0.13170
#
# Static dielectric constant tensor:
#      x y z
#    x 1.747400 0.000000 0.000000 
#    y 0.000000 1.747400 0.000000 
#    z 0.000000 0.000000 1.726600 
# 
# From -- ./inp_files/785.got.cif
#   From: 2010.05.17/outbox.cif.g08.bks.cpg/sg188_1_cif.got.tgz:785.got - 2010.05.20 12:11:46.
