data_PCOD9586301
_publ_section_title
;
Structure prediction by ZEFSAII (Michael W. Deem and Ramdas Pophale) SiO2 
 PCOD9586301
Probable space group: P -6 2 M
;
_chemical_formula_sum "Si O2"
_cell_formula_units_Z 72
_cell_length_a 24.182712
_cell_length_b 24.182712
_cell_length_c 8.734785
_cell_angle_alpha 90.000000
_cell_angle_beta 90.000000
_cell_angle_gamma 120.000000
_cell_volume 4423.773257
_symmetry_space_group_name_H-M "P -6 2 M"
_symmetry_group_IT_number 189
_symmetry_cell_setting 'hexagonal'
loop_
_space_group_symop_operation_xyz
x,y,z
-x+y,-x,-z
-y,x-y,z
x,y,-z
-x+y,-x,z
-y,x-y,-z
x-y,-y,-z
-x,-x+y,-z
y,x,-z
y,x,z
x-y,-y,z
-x,-x+y,z
loop_
_atom_site_type_symbol
_atom_site_label
_atom_site_fract_x
_atom_site_fract_y
_atom_site_fract_z
Si Si1 0.927215 0.262139 0.315452
Si Si2 0.482411 0.151679 0.684752
Si Si3 0.480915 0.270724 0.182761
Si Si4 0.719090 0.000000 0.186566
Si Si5 0.469848 0.875347 0.316806
Si Si6 0.190728 0.331261 0.815739
Si Si7 0.000000 0.590393 0.816469
O O1 0.926905 0.259451 0.500000
O O2 0.899407 0.308750 0.272050
O O3 0.876816 0.192371 0.253197
O O4 0.000000 0.291263 0.262380
O O5 0.484091 0.158287 0.500000
O O6 0.498123 0.218314 0.759963
O O7 0.533905 0.131481 0.729220
O O8 0.522462 0.338798 0.261266
O O9 0.405581 0.241000 0.222564
O O10 0.486520 0.277693 0.000000
O O11 0.711754 0.932751 0.236108
O O12 0.654594 0.000000 0.232385
O O13 0.720015 0.000000 0.000000
O O14 0.474330 0.879999 0.500000
O O15 0.528513 0.937762 0.244524
O O16 0.185233 0.327853 0.000000
O O17 0.000000 0.589929 0.000000
#
# Coordination Sequence:
#
# PCOD9586301 Si02
#       7
#    12  12  12   6  12  12   6
#     4   9  18  33  52  72  99 133 165 201 245 288
#     4   9  20  36  53  71  96 131 171 214 258 309
#     4  10  19  34  54  72  96 128 165 212 263 310
#     4   9  16  31  51  73 103 135 159 194 251 296
#     4  11  22  35  53  76 102 133 172 216 265 318
#     4   9  17  31  51  73 100 131 161 195 242 295
#     4  11  21  35  53  75 105 137 169 212 263 310
#
# _framework density 16.275698999999999
#
# number of rings (size 3 to 8) (size 9 to 14) (size 15 to 20)
#    0.000    2.333    1.667    1.250    1.167    2.333 
#    1.000    0.417    0.000    0.000    0.000    0.000 
#    0.833    0.000    0.500    0.000    0.667    0.000 
#
# Total GULP energy -401603.113496 kJ/mol
# GULP energy per Si atom -5577.821021 kJ/mol
# Density = 1.623865 g / cm^3
# Si number density = 16.275699 Si / 1000 Ang^3
#
#
#
# Elastic Constant Matrix: (Units=GPa)
#
#
# Indices 1 2 3 4 5 6 
#
# 1 121.1585 80.9847 27.6077 0.0000 0.0000 0.0000
# 2 80.9847 121.1585 27.6077 0.0000 0.0000 0.0000
# 3 27.6077 27.6077 18.5426 0.0000 0.0000 0.0000
# 4 0.0000 0.0000 0.0000 23.7640 0.0000 0.0000
# 5 0.0000 0.0000 0.0000 0.0000 23.7640 0.0000
# 6 0.0000 0.0000 0.0000 0.0000 0.0000 20.0869
#
#
#
# Elastic Compliance Matrix: (Units=1/GPa)
#
#
# Indices 1 2 3 4 5 6 
#
# 1 0.016615 -0.008277 -0.012414 0.000000 0.000000 0.000000
# 2 -0.008277 0.016615 -0.012414 0.000000 0.000000 0.000000
# 3 -0.012414 -0.012414 0.090896 0.000000 0.000000 0.000000
# 4 0.000000 0.000000 0.000000 0.042081 0.000000 0.000000
# 5 0.000000 0.000000 0.000000 0.000000 0.042081 0.000000
# 6 0.000000 0.000000 0.000000 0.000000 0.000000 0.049784
#
#
# Mechanical properties :
#
#
# Convention : Reuss Voigt Hill
#
# Bulk Modulus (GPa) = 17.26655 59.25109 38.25882
# Shear Modulus (GPa) = 14.55239 21.83361 18.19300
#
# Velocity S-wave (km/s) = 2.99342 3.66660 3.34698
# Velocity P-wave (km/s) = 4.75177 7.37624 6.20436
#
# Compressibility (1/GPa) = 0.05791544
#
# Stress axis : x y z
#
# Youngs Moduli (GPa) = 60.18708 60.18708 11.00156
#
# Poissons Ratio (x) = 0.49817 0.13657
# Poissons Ratio (y) = 0.49817 0.13657
# Poissons Ratio (z) = 0.74717 0.74717
#
# Static dielectric constant tensor:
#      x y z
#    x 1.540710 0.000000 0.000000 
#    y 0.000000 1.540710 0.000000 
#    z 0.000000 0.000000 1.548020 
# 
# From -- ./inp_files/1308.got.cif
#   From: 2010.05.17/outbox.cif.g08.bks.cpg/sg189_1_cif.got.tgz:1308.got - 2010.05.20 12:14:34.
