data_PCOD9586541
_publ_section_title
;
Structure prediction by ZEFSAII (Michael W. Deem and Ramdas Pophale) SiO2 
 PCOD9586541
Probable space group: P -6 2 M
;
_chemical_formula_sum "Si O2"
_cell_formula_units_Z 84
_cell_length_a 14.271555
_cell_length_b 14.271555
_cell_length_c 23.429632
_cell_angle_alpha 90.000000
_cell_angle_beta 90.000000
_cell_angle_gamma 120.000000
_cell_volume 4132.745771
_symmetry_space_group_name_H-M "P -6 2 M"
_symmetry_group_IT_number 189
_symmetry_cell_setting 'hexagonal'
loop_
_space_group_symop_operation_xyz
x,y,z
-x+y,-x,-z
-y,x-y,z
x,y,-z
-x+y,-x,z
-y,x-y,-z
x-y,-y,-z
-x,-x+y,-z
y,x,-z
y,x,z
x-y,-y,z
-x,-x+y,z
loop_
_atom_site_type_symbol
_atom_site_label
_atom_site_fract_x
_atom_site_fract_y
_atom_site_fract_z
Si Si1 0.579212 0.748317 0.768576
Si Si2 0.414506 0.164538 0.436536
Si Si3 0.520892 0.876291 0.066734
Si Si4 0.871958 0.747818 0.667957
Si Si5 0.479929 0.877072 0.729766
Si Si6 0.122996 0.434638 0.103939
Si Si7 0.480425 0.877379 0.599222
O O1 0.675421 0.819612 0.724798
O O2 0.504586 0.803486 0.770547
O O3 0.504873 0.630725 0.742140
O O4 0.605534 0.729472 0.831978
O O5 0.369727 0.126901 0.500000
O O6 0.326225 0.138731 0.387450
O O7 0.495044 0.122257 0.418320
O O8 0.491128 0.293760 0.437475
O O9 0.557229 0.787304 0.075992
O O10 0.415611 0.858872 0.101837
O O11 0.614885 0.000000 0.078901
O O12 0.490459 0.871256 0.000000
O O13 0.842512 0.842512 0.668904
O O14 0.000000 0.795104 0.665836
O O15 0.473060 0.839513 0.664604
O O16 0.575023 0.000000 0.734345
O O17 0.000000 0.358380 0.080194
O O18 0.576846 0.000000 0.595781
#
# Coordination Sequence:
#
# PCOD9586541 Si02
#       7
#    12  12  12  12  12  12  12
#     4  12  23  39  63  93 130 163 199 253 312 378
#     4  12  25  41  64  92 123 156 197 254 321 395
#     4  10  22  41  65  95 134 178 224 273 322 376
#     4  12  26  45  65  86 116 161 217 273 328 383
#     4  11  21  37  61  87 117 156 197 239 300 376
#     4  11  23  39  63  99 138 178 222 271 327 388
#     4  11  22  40  62  87 117 151 191 240 302 377
#
# _framework density 20.325468999999998
#
# number of rings (size 3 to 8) (size 9 to 14) (size 15 to 20)
#    0.000    0.714    2.857    5.286    0.000    6.000 
#    0.000    0.000    0.000    1.143    0.000    0.000 
#    0.000    0.000    0.000    0.000    0.000    0.000 
#
# Total GULP energy -469531.306060 kJ/mol
# GULP energy per Si atom -5589.658405 kJ/mol
# Density = 2.027921 g / cm^3
# Si number density = 20.325469 Si / 1000 Ang^3
#
#
#
# Elastic Constant Matrix: (Units=GPa)
#
#
# Indices 1 2 3 4 5 6 
#
# 1 100.0337 66.3533 25.4111 0.0000 0.0000 0.0000
# 2 66.3533 100.0337 25.4111 0.0000 0.0000 0.0000
# 3 25.4111 25.4111 81.4388 0.0000 0.0000 0.0000
# 4 0.0000 0.0000 0.0000 62.7369 0.0000 0.0000
# 5 0.0000 0.0000 0.0000 0.0000 62.7369 0.0000
# 6 0.0000 0.0000 0.0000 0.0000 0.0000 16.8402
#
#
#
# Elastic Compliance Matrix: (Units=1/GPa)
#
#
# Indices 1 2 3 4 5 6 
#
# 1 0.018167 -0.011524 -0.002073 0.000000 0.000000 0.000000
# 2 -0.011524 0.018167 -0.002073 0.000000 0.000000 0.000000
# 3 -0.002073 -0.002073 0.013573 0.000000 0.000000 0.000000
# 4 0.000000 0.000000 0.000000 0.015940 0.000000 0.000000
# 5 0.000000 0.000000 0.000000 0.000000 0.015940 0.000000
# 6 0.000000 0.000000 0.000000 0.000000 0.000000 0.059382
#
#
# Mechanical properties :
#
#
# Convention : Reuss Voigt Hill
#
# Bulk Modulus (GPa) = 53.85686 57.31747 55.58717
# Shear Modulus (GPa) = 27.98045 39.41816 33.69930
#
# Velocity S-wave (km/s) = 3.71431 4.40858 4.07625
# Velocity P-wave (km/s) = 6.70444 7.36038 7.04005
#
# Compressibility (1/GPa) = 0.01856774
#
# Stress axis : x y z
#
# Youngs Moduli (GPa) = 55.04467 55.04467 73.67711
#
# Poissons Ratio (x) = 0.63433 0.15272
# Poissons Ratio (y) = 0.63433 0.15272
# Poissons Ratio (z) = 0.11410 0.11410
#
# Static dielectric constant tensor:
#      x y z
#    x 1.737130 0.000000 0.000000 
#    y 0.000000 1.737130 0.000000 
#    z 0.000000 0.000000 1.743780 
# 
# From -- ./inp_files/3610.got.cif
#   From: 2010.05.17/outbox.cif.g08.bks.cpg/sg189_2_cif.got.tgz:3610.got - 2010.05.20 12:14:34.
