data_PCOD9586941
_publ_section_title
;
Structure prediction by ZEFSAII (Michael W. Deem and Ramdas Pophale) SiO2 
 PCOD9586941
Probable space group: P -6 2 C
;
_chemical_formula_sum "Si O2"
_cell_formula_units_Z 52
_cell_length_a 13.958305
_cell_length_b 13.958305
_cell_length_c 13.887844
_cell_angle_alpha 90.000000
_cell_angle_beta 90.000000
_cell_angle_gamma 120.000000
_cell_volume 2343.315843
_symmetry_space_group_name_H-M "P -6 2 C"
_symmetry_group_IT_number 190
_symmetry_cell_setting 'hexagonal'
loop_
_space_group_symop_operation_xyz
x,y,z
-x+y,-x,1/2-z
-y,x-y,z
x,y,1/2-z
-x+y,-x,z
-y,x-y,1/2-z
x-y,-y,-z
-x,-x+y,-z
y,x,-z
y,x,1/2+z
x-y,-y,1/2+z
-x,-x+y,1/2+z
loop_
_atom_site_type_symbol
_atom_site_label
_atom_site_fract_x
_atom_site_fract_y
_atom_site_fract_z
Si Si1 0.530251 0.866548 0.056182
Si Si2 0.000000 0.000000 0.387364
Si Si3 0.543616 0.669975 0.134396
Si Si4 0.275930 0.356689 0.865820
Si Si5 0.772512 0.794325 0.639822
O O1 0.498332 0.750204 0.101972
O O2 0.447337 0.908500 0.087663
O O3 0.649054 0.952940 0.103640
O O4 0.541244 0.862972 0.940856
O O5 0.877545 0.904210 0.359115
O O6 0.000000 0.000000 0.500000
O O7 0.538551 0.659605 0.250000
O O8 0.671466 0.726191 0.099969
O O9 0.285430 0.377027 0.750000
O O10 0.147636 0.281037 0.895907
O O11 0.736282 0.772460 0.750000
#
# Coordination Sequence:
#
# PCOD9586941 Si02
#       5
#    12   4  12  12  12
#     4  11  24  41  69  97 130 175 226 284 343 405
#     4  12  25  35  64 105 142 179 220 276 337 413
#     4  11  23  42  69 101 134 174 227 285 340 409
#     4  10  23  43  64  93 131 175 221 277 341 411
#     4  10  23  42  66  96 138 181 223 276 347 418
#
# _framework density 22.190777000000001
#
# number of rings (size 3 to 8) (size 9 to 14) (size 15 to 20)
#    0.000    1.385    0.000    4.615    6.462    7.385 
#    0.000    3.462    0.000    0.923    0.000    3.231 
#    0.000    0.000    0.000    0.000    0.000    0.000 
#
# Total GULP energy -290240.484795 kJ/mol
# GULP energy per Si atom -5581.547785 kJ/mol
# Density = 2.214027 g / cm^3
# Si number density = 22.190777 Si / 1000 Ang^3
#
#
#
# Elastic Constant Matrix: (Units=GPa)
#
#
# Indices 1 2 3 4 5 6 
#
# 1 115.8377 57.5790 23.7697 0.0000 0.0000 0.0000
# 2 57.5790 115.8377 23.7697 0.0000 0.0000 0.0000
# 3 23.7697 23.7697 146.4980 0.0000 0.0000 0.0000
# 4 0.0000 0.0000 0.0000 36.5058 0.0000 0.0000
# 5 0.0000 0.0000 0.0000 0.0000 36.5058 0.0000
# 6 0.0000 0.0000 0.0000 0.0000 0.0000 29.1294
#
#
#
# Elastic Compliance Matrix: (Units=1/GPa)
#
#
# Indices 1 2 3 4 5 6 
#
# 1 0.011600 -0.005565 -0.000979 0.000000 0.000000 0.000000
# 2 -0.005565 0.011600 -0.000979 0.000000 0.000000 0.000000
# 3 -0.000979 -0.000979 0.007144 0.000000 0.000000 0.000000
# 4 0.000000 0.000000 0.000000 0.027393 0.000000 0.000000
# 5 0.000000 0.000000 0.000000 0.000000 0.027393 0.000000
# 6 0.000000 0.000000 0.000000 0.000000 0.000000 0.034330
#
#
# Mechanical properties :
#
#
# Convention : Reuss Voigt Hill
#
# Bulk Modulus (GPa) = 65.37298 65.37891 65.37594
# Shear Modulus (GPa) = 35.81545 38.63185 37.22365
#
# Velocity S-wave (km/s) = 4.02179 4.17693 4.10010
# Velocity P-wave (km/s) = 7.14772 7.26557 7.20689
#
# Compressibility (1/GPa) = 0.01529684
#
# Stress axis : x y z
#
# Youngs Moduli (GPa) = 86.20802 86.20802 139.98190
#
# Poissons Ratio (x) = 0.47974 0.13707
# Poissons Ratio (y) = 0.47974 0.13707
# Poissons Ratio (z) = 0.08441 0.08441
#
# Static dielectric constant tensor:
#      x y z
#    x 1.855880 0.000000 0.000000 
#    y 0.000000 1.855880 0.000000 
#    z 0.000000 0.000000 1.830770 
# 
# From -- ./inp_files/2668.got.cif
#   From: 2010.05.17/outbox.cif.g08.bks.cpg/sg190_2_cif.got.tgz:2668.got - 2010.05.20 12:16:56.
