data_PCOD9586709
_publ_section_title
;
Structure prediction by ZEFSAII (Michael W. Deem and Ramdas Pophale) SiO2 
 PCOD9586709
Probable space group: P -6 2 C
;
_chemical_formula_sum "Si O2"
_cell_formula_units_Z 78
_cell_length_a 24.307690
_cell_length_b 24.307690
_cell_length_c 7.842596
_cell_angle_alpha 90.000000
_cell_angle_beta 90.000000
_cell_angle_gamma 120.000000
_cell_volume 4013.080333
_symmetry_space_group_name_H-M "P -6 2 C"
_symmetry_group_IT_number 190
_symmetry_cell_setting 'hexagonal'
loop_
_space_group_symop_operation_xyz
x,y,z
-x+y,-x,1/2-z
-y,x-y,z
x,y,1/2-z
-x+y,-x,z
-y,x-y,1/2-z
x-y,-y,-z
-x,-x+y,-z
y,x,-z
y,x,1/2+z
x-y,-y,1/2+z
-x,-x+y,1/2+z
loop_
_atom_site_type_symbol
_atom_site_label
_atom_site_fract_x
_atom_site_fract_y
_atom_site_fract_z
Si Si1 0.929076 0.622328 0.544940
Si Si2 0.067687 0.816439 0.449969
Si Si3 0.411450 0.732569 0.250000
Si Si4 0.073466 0.273489 0.547770
Si Si5 0.511557 0.074151 0.455123
Si Si6 0.483135 0.827984 0.950562
Si Si7 0.925293 0.317363 0.455180
O O1 0.922983 0.617505 0.750000
O O2 0.926908 0.684071 0.477042
O O3 0.871155 0.559094 0.468103
O O4 0.000000 0.636101 0.500000
O O5 0.066496 0.808171 0.250000
O O6 0.128373 0.882379 0.493835
O O7 0.000000 0.806991 0.500000
O O8 0.342922 0.730101 0.250000
O O9 0.451322 0.769274 0.418246
O O10 0.076036 0.278390 0.750000
O O11 0.099031 0.345415 0.478775
O O12 0.000000 0.229950 0.500000
O O13 0.511696 0.076057 0.250000
O O14 0.582732 0.122766 0.508571
O O15 0.462273 0.096100 0.520015
O O16 0.483679 0.000000 0.500000
O O17 0.466943 0.810415 0.750000
O O18 0.917714 0.314286 0.250000
O O19 0.000000 0.353454 0.500000
#
# Coordination Sequence:
#
# PCOD9586709 Si02
#       7
#    12  12   6  12  12  12  12
#     4  10  20  36  59  91 130 160 194 246 305 375
#     4  10  21  37  57  84 119 156 193 239 296 352
#     4  10  26  50  66  80 114 154 210 268 312 358
#     4  10  19  33  55  79 111 152 195 237 282 338
#     4   9  18  30  50  84 118 152 187 232 291 355
#     4  11  22  39  65  91 117 154 204 251 314 373
#     4   8  15  29  45  69 108 143 180 226 275 332
#
# _framework density 19.436440000000001
#
# number of rings (size 3 to 8) (size 9 to 14) (size 15 to 20)
#    0.154    2.154    0.769    1.846    1.077    4.308 
#    2.769    0.000    0.000    0.308    0.000    2.154 
#    0.000    0.000    0.000    0.000    0.000    0.000 
#
# Total GULP energy -434747.645227 kJ/mol
# GULP energy per Si atom -5573.687759 kJ/mol
# Density = 1.939220 g / cm^3
# Si number density = 19.436440 Si / 1000 Ang^3
#
#
#
# Elastic Constant Matrix: (Units=GPa)
#
#
# Indices 1 2 3 4 5 6 
#
# 1 -1.6855 72.4775 7.1664 0.0000 0.0000 0.0000
# 2 72.4775 -1.6855 7.1664 0.0000 0.0000 0.0000
# 3 7.1664 7.1664 64.0113 0.0000 0.0000 0.0000
# 4 0.0000 0.0000 0.0000 15.4205 0.0000 0.0000
# 5 0.0000 0.0000 0.0000 0.0000 15.4205 0.0000
# 6 0.0000 0.0000 0.0000 0.0000 0.0000 -37.0815
#
#
#
# Elastic Compliance Matrix: (Units=1/GPa)
#
#
# Indices 1 2 3 4 5 6 
#
# 1 0.000485 0.013969 -0.001618 0.000000 0.000000 0.000000
# 2 0.013969 0.000485 -0.001618 0.000000 0.000000 0.000000
# 3 -0.001618 -0.001618 0.015985 0.000000 0.000000 0.000000
# 4 0.000000 0.000000 0.000000 0.064849 0.000000 0.000000
# 5 0.000000 0.000000 0.000000 0.000000 0.064849 0.000000
# 6 0.000000 0.000000 0.000000 0.000000 0.000000 -0.026968
#
#
# Mechanical properties :
#
#
# Convention : Reuss Voigt Hill
#
# Bulk Modulus (GPa) = 26.02881 26.02901 26.02891
# Shear Modulus (GPa) = 45.03465 -2.99276 21.02094
#
# Velocity S-wave (km/s) = 4.81877 -1.24222 3.29222
# Velocity P-wave (km/s) = 6.66195 3.37097 5.27944
#
# Compressibility (1/GPa) = 0.03841896
#
# Stress axis : x y z
#
# Youngs Moduli (GPa) = 2062.52751 2062.52739 62.56037
#
# Poissons Ratio (x) = -28.81074 0.10123
# Poissons Ratio (y) = -28.81075 0.10123
# Poissons Ratio (z) = 3.33748 3.33748
#
# Static dielectric constant tensor:
#      x y z
#    x 1.691160 0.000000 0.000000 
#    y 0.000000 1.691160 0.000000 
#    z 0.000000 0.000000 1.709960 
# 
# From -- ./inp_files/1344.got.cif
#   From: 2010.05.17/outbox.cif.g08.bks.cpg/sg190_1_cif.got.tgz:1344.got - 2010.05.20 12:16:56.
