data_PCOD9586777
_publ_section_title
;
Structure prediction by ZEFSAII (Michael W. Deem and Ramdas Pophale) SiO2 
 PCOD9586777
Probable space group: P -6 2 C
;
_chemical_formula_sum "Si O2"
_cell_formula_units_Z 52
_cell_length_a 11.013089
_cell_length_b 11.013089
_cell_length_c 25.852953
_cell_angle_alpha 90.000000
_cell_angle_beta 90.000000
_cell_angle_gamma 120.000000
_cell_volume 2715.558019
_symmetry_space_group_name_H-M "P -6 2 C"
_symmetry_group_IT_number 190
_symmetry_cell_setting 'hexagonal'
loop_
_space_group_symop_operation_xyz
x,y,z
-x+y,-x,1/2-z
-y,x-y,z
x,y,1/2-z
-x+y,-x,z
-y,x-y,1/2-z
x-y,-y,-z
-x,-x+y,-z
y,x,-z
y,x,1/2+z
x-y,-y,1/2+z
-x,-x+y,1/2+z
loop_
_atom_site_type_symbol
_atom_site_label
_atom_site_fract_x
_atom_site_fract_y
_atom_site_fract_z
Si Si1 0.908644 0.595490 0.308362
Si Si2 0.444497 0.088190 0.357072
Si Si3 0.325977 0.142614 0.811710
Si Si4 0.403545 0.848324 0.527387
Si Si5 0.000000 0.000000 0.811920
O O1 0.887848 0.631429 0.250000
O O2 0.873523 0.437493 0.314381
O O3 0.807626 0.617346 0.346467
O O4 0.072899 0.694629 0.320202
O O5 0.520113 0.117967 0.411950
O O6 0.321713 0.931162 0.345966
O O7 0.338791 0.120538 0.750000
O O8 0.161649 0.069094 0.826394
O O9 0.241026 0.724164 0.516489
O O10 0.471495 0.000000 0.500000
O O11 0.000000 0.000000 0.750000
#
# Coordination Sequence:
#
# PCOD9586777 Si02
#       5
#    12  12  12  12   4
#     4  11  21  34  57  89 127 169 209 258 319 390
#     4  12  21  39  61  89 124 162 218 268 325 393
#     4  10  20  33  54  85 124 166 204 247 312 394
#     4  10  23  46  71  96 127 170 227 298 355 425
#     4   9  15  30  51  75 109 155 202 234 279 363
#
# _framework density 19.148917999999998
#
# number of rings (size 3 to 8) (size 9 to 14) (size 15 to 20)
#    0.462    0.923    4.615    2.538    0.000    1.846 
#    1.385    0.000    0.000    0.462    0.000    0.000 
#    0.000    0.000    0.000    0.000    0.000    0.000 
#
# Total GULP energy -289583.460856 kJ/mol
# GULP energy per Si atom -5568.912709 kJ/mol
# Density = 1.910533 g / cm^3
# Si number density = 19.148918 Si / 1000 Ang^3
#
#
#
# Elastic Constant Matrix: (Units=GPa)
#
#
# Indices 1 2 3 4 5 6 
#
# 1 91.6198 29.6981 30.8772 0.0000 0.0000 0.0000
# 2 29.6981 91.6198 30.8772 0.0000 0.0000 0.0000
# 3 30.8772 30.8772 59.8134 0.0000 0.0000 0.0000
# 4 0.0000 0.0000 0.0000 21.6739 0.0000 0.0000
# 5 0.0000 0.0000 0.0000 0.0000 21.6739 0.0000
# 6 0.0000 0.0000 0.0000 0.0000 0.0000 30.9608
#
#
#
# Elastic Compliance Matrix: (Units=1/GPa)
#
#
# Indices 1 2 3 4 5 6 
#
# 1 0.013665 -0.002484 -0.005772 0.000000 0.000000 0.000000
# 2 -0.002484 0.013665 -0.005772 0.000000 0.000000 0.000000
# 3 -0.005772 -0.005772 0.022678 0.000000 0.000000 0.000000
# 4 0.000000 0.000000 0.000000 0.046139 0.000000 0.000000
# 5 0.000000 0.000000 0.000000 0.000000 0.046139 0.000000
# 6 0.000000 0.000000 0.000000 0.000000 0.000000 0.032299
#
#
# Mechanical properties :
#
#
# Convention : Reuss Voigt Hill
#
# Bulk Modulus (GPa) = 45.55362 47.32865 46.44113
# Shear Modulus (GPa) = 23.81437 24.96841 24.39139
#
# Velocity S-wave (km/s) = 3.53035 3.61488 3.57287
# Velocity P-wave (km/s) = 6.36071 6.49561 6.42851
#
# Compressibility (1/GPa) = 0.02195215
#
# Stress axis : x y z
#
# Youngs Moduli (GPa) = 73.17892 73.17892 44.09598
#
# Poissons Ratio (x) = 0.18180 0.25451
# Poissons Ratio (y) = 0.18180 0.25451
# Poissons Ratio (z) = 0.42238 0.42238
#
# Static dielectric constant tensor:
#      x y z
#    x 1.707360 0.000000 0.000000 
#    y 0.000000 1.707360 0.000000 
#    z 0.000000 0.000000 1.636360 
# 
# From -- ./inp_files/4209.got.cif
#   From: 2010.05.17/outbox.cif.g08.bks.cpg/sg190_3_cif.got.tgz:4209.got - 2010.05.20 12:16:56.
