data_PCOD9586465
_publ_section_title
;
Structure prediction by ZEFSAII (Michael W. Deem and Ramdas Pophale) SiO2 
 PCOD9586465
Probable space group: P -6 2 M
;
_chemical_formula_sum "Si O2"
_cell_formula_units_Z 33
_cell_length_a 15.971947
_cell_length_b 15.971947
_cell_length_c 7.286059
_cell_angle_alpha 90.000000
_cell_angle_beta 90.000000
_cell_angle_gamma 120.000000
_cell_volume 1609.678103
_symmetry_space_group_name_H-M "P -6 2 M"
_symmetry_group_IT_number 189
_symmetry_cell_setting 'hexagonal'
loop_
_space_group_symop_operation_xyz
x,y,z
-x+y,-x,-z
-y,x-y,z
x,y,-z
-x+y,-x,z
-y,x-y,-z
x-y,-y,-z
-x,-x+y,-z
y,x,-z
y,x,z
x-y,-y,z
-x,-x+y,z
loop_
_atom_site_type_symbol
_atom_site_label
_atom_site_fract_x
_atom_site_fract_y
_atom_site_fract_z
Si Si1 0.397902 0.887770 0.223917
Si Si2 0.000000 0.892157 0.500000
Si Si3 0.544561 0.815478 0.777133
Si Si4 0.000000 0.747308 0.780087
O O1 0.462984 0.841012 0.280786
O O2 0.287903 0.816350 0.283025
O O3 0.447016 0.000000 0.281635
O O4 0.398350 0.889266 0.000000
O O5 0.000000 0.834546 0.677270
O O6 0.909177 0.909177 0.500000
O O7 0.648024 0.904767 0.726085
O O8 0.541233 0.812684 0.000000
O O9 0.000000 0.756462 0.000000
#
# Coordination Sequence:
#
# PCOD9586465 Si02
#       4
#    12   3  12   6
#     4   9  15  24  40  71 113 148 186 236 288 346
#     4  10  26  46  62  84 114 148 192 252 310 362
#     4   9  16  27  48  80 117 156 195 241 294 350
#     4  10  20  38  64  87 115 157 201 246 298 356
#
# _framework density 20.500995
#
# number of rings (size 3 to 8) (size 9 to 14) (size 15 to 20)
#    0.182    2.545    1.818    0.727    0.000    5.091 
#    0.000    3.636    0.000    2.182    0.000    0.000 
#    0.000    0.000    0.000    0.000    0.000    0.000 
#
# Total GULP energy -184297.324668 kJ/mol
# GULP energy per Si atom -5584.767414 kJ/mol
# Density = 2.045433 g / cm^3
# Si number density = 20.500995 Si / 1000 Ang^3
#
#
#
# Elastic Constant Matrix: (Units=GPa)
#
#
# Indices 1 2 3 4 5 6 
#
# 1 220.8634 130.2831 25.2897 0.0000 0.0000 0.0000
# 2 130.2831 220.8634 25.2897 0.0000 0.0000 0.0000
# 3 25.2897 25.2897 86.6023 0.0000 0.0000 0.0000
# 4 0.0000 0.0000 0.0000 17.2969 0.0000 0.0000
# 5 0.0000 0.0000 0.0000 0.0000 17.2969 0.0000
# 6 0.0000 0.0000 0.0000 0.0000 0.0000 45.2902
#
#
#
# Elastic Compliance Matrix: (Units=1/GPa)
#
#
# Indices 1 2 3 4 5 6 
#
# 1 0.007006 -0.004034 -0.000868 0.000000 0.000000 0.000000
# 2 -0.004034 0.007006 -0.000868 0.000000 0.000000 0.000000
# 3 -0.000868 -0.000868 0.012054 0.000000 0.000000 0.000000
# 4 0.000000 0.000000 0.000000 0.057814 0.000000 0.000000
# 5 0.000000 0.000000 0.000000 0.000000 0.057814 0.000000
# 6 0.000000 0.000000 0.000000 0.000000 0.000000 0.022080
#
#
# Mechanical properties :
#
#
# Convention : Reuss Voigt Hill
#
# Bulk Modulus (GPa) = 68.83621 98.89492 83.86557
# Shear Modulus (GPa) = 27.75370 39.14124 33.44747
#
# Velocity S-wave (km/s) = 3.68336 4.37422 4.04357
# Velocity P-wave (km/s) = 7.19301 8.59393 7.92449
#
# Compressibility (1/GPa) = 0.01452724
#
# Stress axis : x y z
#
# Youngs Moduli (GPa) = 142.72678 142.72678 82.95951
#
# Poissons Ratio (x) = 0.57569 0.07202
# Poissons Ratio (y) = 0.57569 0.07202
# Poissons Ratio (z) = 0.12391 0.12391
#
# Static dielectric constant tensor:
#      x y z
#    x 1.687470 0.000000 0.000000 
#    y 0.000000 1.687470 0.000000 
#    z 0.000000 0.000000 1.767180 
# 
# From -- ./inp_files/372.got.cif
#   From: 2010.05.17/outbox.cif.g08.bks.cpg/sg189_1_cif.got.tgz:372.got - 2010.05.20 12:14:34.
