data_PCOD9586713
_publ_section_title
;
Structure prediction by ZEFSAII (Michael W. Deem and Ramdas Pophale) SiO2 
 PCOD9586713
Probable space group: P -6 2 C
;
_chemical_formula_sum "Si O2"
_cell_formula_units_Z 48
_cell_length_a 18.731870
_cell_length_b 18.731870
_cell_length_c 8.026706
_cell_angle_alpha 90.000000
_cell_angle_beta 90.000000
_cell_angle_gamma 120.000000
_cell_volume 2439.103660
_symmetry_space_group_name_H-M "P -6 2 C"
_symmetry_group_IT_number 190
_symmetry_cell_setting 'hexagonal'
loop_
_space_group_symop_operation_xyz
x,y,z
-x+y,-x,1/2-z
-y,x-y,z
x,y,1/2-z
-x+y,-x,z
-y,x-y,1/2-z
x-y,-y,-z
-x,-x+y,-z
y,x,-z
y,x,1/2+z
x-y,-y,1/2+z
-x,-x+y,1/2+z
loop_
_atom_site_type_symbol
_atom_site_label
_atom_site_fract_x
_atom_site_fract_y
_atom_site_fract_z
Si Si1 0.706726 0.179326 0.750000
Si Si2 0.153046 0.526647 0.250000
Si Si3 0.419767 0.083931 0.062897
Si Si4 0.907096 0.090870 0.947531
Si Si5 0.365242 0.220938 0.435028
O O1 0.775407 0.277144 0.750000
O O2 0.621166 0.178463 0.750000
O O3 0.719624 0.135863 0.587207
O O4 0.103765 0.486674 0.420266
O O5 0.443594 0.074359 0.250000
O O6 0.398359 0.156199 0.067629
O O7 0.341273 0.000000 0.000000
O O8 0.900271 0.095537 0.750000
O O9 0.836136 0.104407 0.028676
O O10 0.000000 0.156678 0.000000
O O11 0.887276 0.000000 0.000000
O O12 0.377978 0.258767 0.250000
#
# Coordination Sequence:
#
# PCOD9586713 Si02
#       5
#     6   6  12  12  12
#     4  10  21  40  60  88 118 158 196 238 300 360
#     4  10  21  36  60  84 118 150 188 240 286 354
#     4  10  19  33  58  87 116 143 188 239 292 342
#     4  12  24  40  61  88 122 160 209 254 303 348
#     4  10  21  38  61  88 118 157 197 247 295 356
#
# _framework density 19.679359000000002
#
# number of rings (size 3 to 8) (size 9 to 14) (size 15 to 20)
#    0.000    1.500    2.500    3.500    0.000    3.000 
#    0.000    1.250    0.000    3.000    0.000    0.000 
#    0.000    0.000    0.000    0.000    0.000    0.000 
#
# Total GULP energy -267839.575337 kJ/mol
# GULP energy per Si atom -5579.991153 kJ/mol
# Density = 1.963457 g / cm^3
# Si number density = 19.679359 Si / 1000 Ang^3
#
#
#
# Elastic Constant Matrix: (Units=GPa)
#
#
# Indices 1 2 3 4 5 6 
#
# 1 51.6039 4.7835 30.1173 0.0000 0.0000 0.0000
# 2 4.7835 51.6039 30.1173 0.0000 0.0000 0.0000
# 3 30.1173 30.1173 188.7562 0.0000 0.0000 0.0000
# 4 0.0000 0.0000 0.0000 0.0858 0.0000 0.0000
# 5 0.0000 0.0000 0.0000 0.0000 0.0858 0.0000
# 6 0.0000 0.0000 0.0000 0.0000 0.0000 23.4102
#
#
#
# Elastic Compliance Matrix: (Units=1/GPa)
#
#
# Indices 1 2 3 4 5 6 
#
# 1 0.021368 0.000010 -0.003411 0.000000 0.000000 0.000000
# 2 0.000010 0.021368 -0.003411 0.000000 0.000000 0.000000
# 3 -0.003411 -0.003411 0.006386 0.000000 0.000000 0.000000
# 4 0.000000 0.000000 0.000000 11.656262 0.000001 0.000000
# 5 0.000000 0.000000 0.000000 0.000001 11.656262 0.000000
# 6 0.000000 0.000000 0.000000 0.000000 0.000000 0.042716
#
#
# Mechanical properties :
#
#
# Convention : Reuss Voigt Hill
#
# Bulk Modulus (GPa) = 28.17005 46.88889 37.52947
# Shear Modulus (GPa) = 0.21340 19.84608 10.02974
#
# Velocity S-wave (km/s) = 0.32966 3.17909 2.26001
# Velocity P-wave (km/s) = 3.80664 6.11176 5.09137
#
# Compressibility (1/GPa) = 0.03549869
#
# Stress axis : x y z
#
# Youngs Moduli (GPa) = 46.79844 46.79844 156.58406
#
# Poissons Ratio (x) = -0.00047 0.53411
# Poissons Ratio (y) = -0.00047 0.53411
# Poissons Ratio (z) = 0.15963 0.15963
#
# Static dielectric constant tensor:
#      x y z
#    x 1.677420 0.000000 0.000000 
#    y 0.000000 1.677420 0.000000 
#    z 0.000000 0.000000 1.719160 
# 
# From -- ./inp_files/631.got.cif
#   From: 2010.05.17/outbox.cif.g08.bks.cpg/sg190_1_cif.got.tgz:631.got - 2010.05.20 12:16:56.
