data_PCOD9586411
_publ_section_title
;
Structure prediction by ZEFSAII (Michael W. Deem and Ramdas Pophale) SiO2 
 PCOD9586411
Probable space group: P -6 2 M
;
_chemical_formula_sum "Si O2"
_cell_formula_units_Z 16
_cell_length_a 10.010571
_cell_length_b 10.010571
_cell_length_c 7.382746
_cell_angle_alpha 90.000000
_cell_angle_beta 90.000000
_cell_angle_gamma 120.000000
_cell_volume 640.717018
_symmetry_space_group_name_H-M "P -6 2 M"
_symmetry_group_IT_number 189
_symmetry_cell_setting 'hexagonal'
loop_
_space_group_symop_operation_xyz
x,y,z
-x+y,-x,-z
-y,x-y,z
x,y,-z
-x+y,-x,z
-y,x-y,-z
x-y,-y,-z
-x,-x+y,-z
y,x,-z
y,x,z
x-y,-y,z
-x,-x+y,z
loop_
_atom_site_type_symbol
_atom_site_label
_atom_site_fract_x
_atom_site_fract_y
_atom_site_fract_z
Si Si1 0.480133 0.480133 0.207020
Si Si2 0.666667 0.333334 0.224106
Si Si3 0.000000 0.830462 0.282412
O O1 0.606246 0.445559 0.287812
O O2 0.317636 0.317636 0.206594
O O3 0.526227 0.526227 0.000000
O O4 0.666667 0.333334 0.000000
O O5 0.000000 0.818306 0.500000
O O6 0.855720 0.855720 0.232131
#
# Coordination Sequence:
#
# PCOD9586411 Si02
#       3
#     6   4   6
#     4  10  20  35  56  82 112 148 186 226 277 329
#     4   9  21  36  55  83 118 144 178 236 280 321
#     4   8  18  35  54  78 112 146 180 228 275 321
#
# _framework density 24.972023
#
# number of rings (size 3 to 8) (size 9 to 14) (size 15 to 20)
#    0.750    2.250    0.000    0.000    5.250    1.500 
#    0.000    3.750    0.000    0.000    0.000    0.000 
#    0.000    0.000    0.000    0.000    0.000    0.000 
#
# Total GULP energy -89346.179530 kJ/mol
# GULP energy per Si atom -5584.136221 kJ/mol
# Density = 2.491519 g / cm^3
# Si number density = 24.972023 Si / 1000 Ang^3
#
#
#
# Elastic Constant Matrix: (Units=GPa)
#
#
# Indices 1 2 3 4 5 6 
#
# 1 90.1393 15.3109 -1.5051 -0.0003 0.0011 -0.0008
# 2 15.3109 90.1366 -1.5052 -0.0002 0.0004 -0.0004
# 3 -1.5051 -1.5052 100.8783 0.0000 0.0000 0.0000
# 4 -0.0003 -0.0002 0.0000 -46.9349 -0.0001 0.0003
# 5 0.0011 0.0004 0.0000 -0.0001 -46.9315 0.0001
# 6 -0.0008 -0.0004 0.0000 0.0003 0.0001 37.4140
#
#
#
# Elastic Compliance Matrix: (Units=1/GPa)
#
#
# Indices 1 2 3 4 5 6 
#
# 1 0.011426 -0.001938 0.000142 0.000000 0.000000 0.000000
# 2 -0.001938 0.011426 0.000142 0.000000 0.000000 0.000000
# 3 0.000142 0.000142 0.009917 0.000000 0.000000 0.000000
# 4 0.000000 0.000000 0.000000 -0.021306 0.000000 0.000000
# 5 0.000000 0.000000 0.000000 0.000000 -0.021308 0.000000
# 6 0.000000 0.000000 0.000000 0.000000 0.000000 0.026728
#
#
# Mechanical properties :
#
#
# Convention : Reuss Voigt Hill
#
# Bulk Modulus (GPa) = 33.94660 33.97279 33.95970
# Shear Modulus (GPa) = 166.59588 6.63311 86.61449
#
# Velocity S-wave (km/s) = 8.17666 1.63156 5.89575
# Velocity P-wave (km/s) = 10.13741 4.14526 7.74436
#
# Compressibility (1/GPa) = 0.02945803
#
# Stress axis : x y z
#
# Youngs Moduli (GPa) = 87.52301 87.52040 100.83530
#
# Poissons Ratio (x) = 0.16965 -0.01427
# Poissons Ratio (y) = 0.16966 -0.01427
# Poissons Ratio (z) = -0.01239 -0.01239
#
# Static dielectric constant tensor:
#      x y z
#    x 1.974230 0.000000 0.000000 
#    y 0.000000 1.974230 0.000000 
#    z 0.000000 0.000000 1.893260 
# 
# From -- ./inp_files/153.got.cif
#   From: 2010.05.17/outbox.cif.g08.bks.cpg/sg189_1_cif.got.tgz:153.got - 2010.05.20 12:14:34.
