data_PCOD9586739
_publ_section_title
;
Structure prediction by ZEFSAII (Michael W. Deem and Ramdas Pophale) SiO2 
 PCOD9586739
Probable space group: P -6 2 C
;
_chemical_formula_sum "Si O2"
_cell_formula_units_Z 60
_cell_length_a 11.906997
_cell_length_b 11.906997
_cell_length_c 24.293045
_cell_angle_alpha 90.000000
_cell_angle_beta 90.000000
_cell_angle_gamma 120.000000
_cell_volume 2982.751514
_symmetry_space_group_name_H-M "P -6 2 C"
_symmetry_group_IT_number 190
_symmetry_cell_setting 'hexagonal'
loop_
_space_group_symop_operation_xyz
x,y,z
-x+y,-x,1/2-z
-y,x-y,z
x,y,1/2-z
-x+y,-x,z
-y,x-y,1/2-z
x-y,-y,-z
-x,-x+y,-z
y,x,-z
y,x,1/2+z
x-y,-y,1/2+z
-x,-x+y,1/2+z
loop_
_atom_site_type_symbol
_atom_site_label
_atom_site_fract_x
_atom_site_fract_y
_atom_site_fract_z
Si Si1 0.907709 0.165238 0.135282
Si Si2 0.837253 0.628126 0.250000
Si Si3 0.468522 0.981811 0.750000
Si Si4 0.592861 0.525795 0.869455
Si Si5 0.669677 0.070014 0.440496
Si Si6 0.333333 0.666667 0.408590
Si Si7 0.333334 0.666668 0.539015
Si Si8 0.000000 0.000000 0.181996
O O1 0.827957 0.124612 0.192695
O O2 0.801906 0.091233 0.087666
O O3 0.977634 0.319126 0.123351
O O4 0.016209 0.129258 0.152955
O O5 0.683035 0.560378 0.250000
O O6 0.896353 0.536134 0.250000
O O7 0.500959 0.063947 0.805083
O O8 0.459052 0.448712 0.903449
O O9 0.682569 0.468455 0.888266
O O10 0.684497 0.213177 0.443154
O O11 0.641886 0.000000 0.500000
O O12 0.333334 0.666667 0.473593
O O13 0.000000 0.000000 0.250000
#
# Coordination Sequence:
#
# PCOD9586739 Si02
#       8
#    12   6   6  12  12   4   4   4
#     4  11  25  44  69 104 136 180 234 284 340 420
#     4  10  19  36  64  98 135 174 220 278 348 408
#     4  10  21  36  62 100 135 170 216 288 344 408
#     4  11  25  42  68 100 136 175 228 284 351 412
#     4  12  24  43  71 105 139 184 239 293 344 404
#     4  12  27  46  67  99 139 187 225 277 350 430
#     4  12  24  42  70 101 142 189 237 286 344 406
#     4  12  27  48  73 101 145 192 225 277 362 442
#
# _framework density 20.115655
#
# number of rings (size 3 to 8) (size 9 to 14) (size 15 to 20)
#    0.000    0.800    7.000    0.200    2.800    0.800 
#    0.000    3.000    0.000    0.000    0.000    0.000 
#    0.000    0.000    0.000    0.000    0.000    0.000 
#
# Total GULP energy -334779.617445 kJ/mol
# GULP energy per Si atom -5579.660291 kJ/mol
# Density = 2.006987 g / cm^3
# Si number density = 20.115655 Si / 1000 Ang^3
#
#
#
# Elastic Constant Matrix: (Units=GPa)
#
#
# Indices 1 2 3 4 5 6 
#
# 1 73.3080 20.6311 16.5863 0.0006 0.0000 0.0001
# 2 20.6311 73.3081 16.5864 -0.0009 -0.0004 -0.0001
# 3 16.5863 16.5864 187.3013 0.0004 -0.0002 0.0001
# 4 0.0006 -0.0009 0.0004 66.5944 -0.0004 0.0002
# 5 0.0000 -0.0004 -0.0002 -0.0004 66.5946 -0.0008
# 6 0.0001 -0.0001 0.0001 0.0002 -0.0008 26.3380
#
#
#
# Elastic Compliance Matrix: (Units=1/GPa)
#
#
# Indices 1 2 3 4 5 6 
#
# 1 0.014986 -0.003997 -0.000973 0.000000 0.000000 0.000000
# 2 -0.003997 0.014986 -0.000973 0.000000 0.000000 0.000000
# 3 -0.000973 -0.000973 0.005511 0.000000 0.000000 0.000000
# 4 0.000000 0.000000 0.000000 0.015016 0.000000 0.000000
# 5 0.000000 0.000000 0.000000 0.000000 0.015016 0.000000
# 6 0.000000 0.000000 0.000000 0.000000 0.000000 0.037968
#
#
# Mechanical properties :
#
#
# Convention : Reuss Voigt Hill
#
# Bulk Modulus (GPa) = 42.37906 49.05832 45.71869
# Shear Modulus (GPa) = 40.57224 50.57964 45.57594
#
# Velocity S-wave (km/s) = 4.49592 5.01986 4.76510
# Velocity P-wave (km/s) = 6.93285 7.61838 7.28369
#
# Compressibility (1/GPa) = 0.02359656
#
# Stress axis : x y z
#
# Youngs Moduli (GPa) = 66.72790 66.72799 181.44416
#
# Poissons Ratio (x) = 0.26674 0.17656
# Poissons Ratio (y) = 0.26674 0.17657
# Poissons Ratio (z) = 0.06493 0.06493
#
# Static dielectric constant tensor:
#      x y z
#    x 1.725440 0.000000 0.000000 
#    y 0.000000 1.725440 0.000000 
#    z 0.000000 0.000000 1.485220 
# 
# From -- ./inp_files/4925.got.cif
#   From: 2010.05.17/outbox.cif.g08.bks.cpg/sg190_3_cif.got.tgz:4925.got - 2010.05.20 12:16:56.
