data_PCOD9586237
_publ_section_title
;
Structure prediction by ZEFSAII (Michael W. Deem and Ramdas Pophale) SiO2 
 PCOD9586237
Probable space group: P -6 2 M
;
_chemical_formula_sum "Si O2"
_cell_formula_units_Z 64
_cell_length_a 14.875169
_cell_length_b 14.875169
_cell_length_c 14.392989
_cell_angle_alpha 90.000000
_cell_angle_beta 90.000000
_cell_angle_gamma 120.000000
_cell_volume 2758.071002
_symmetry_space_group_name_H-M "P -6 2 M"
_symmetry_group_IT_number 189
_symmetry_cell_setting 'hexagonal'
loop_
_space_group_symop_operation_xyz
x,y,z
-x+y,-x,-z
-y,x-y,z
x,y,-z
-x+y,-x,z
-y,x-y,-z
x-y,-y,-z
-x,-x+y,-z
y,x,-z
y,x,z
x-y,-y,z
-x,-x+y,z
loop_
_atom_site_type_symbol
_atom_site_label
_atom_site_fract_x
_atom_site_fract_y
_atom_site_fract_z
Si Si1 0.238583 0.119636 0.638916
Si Si2 0.772551 0.886451 0.861821
Si Si3 0.237544 0.457386 0.106614
Si Si4 0.668859 0.121537 0.390004
Si Si5 0.666668 0.333335 0.614305
Si Si6 0.108546 0.545394 0.113907
O O1 0.163017 0.163017 0.605920
O O2 0.229263 0.114475 0.750559
O O3 0.356538 0.211462 0.619814
O O4 0.196668 0.000000 0.608061
O O5 0.855863 0.855863 0.893038
O O6 0.658369 0.803753 0.892224
O O7 0.802290 0.000000 0.894422
O O8 0.201377 0.531572 0.149860
O O9 0.343467 0.470434 0.143923
O O10 0.262008 0.491074 0.000000
O O11 0.647629 0.115449 0.500000
O O12 0.659958 0.222480 0.357342
O O13 0.593918 0.000000 0.354754
O O14 0.666667 0.333334 0.500000
O O15 0.000000 0.455802 0.149125
O O16 0.104265 0.536502 0.000000
#
# Coordination Sequence:
#
# PCOD9586237 Si02
#       6
#    12  12  12  12   4  12
#     4   9  18  33  52  74 101 134 172 214 260 307
#     4  10  20  34  51  71  98 132 166 201 247 302
#     4  10  19  32  50  70  92 120 157 201 246 295
#     4   9  18  33  53  78 107 139 177 215 249 297
#     4   9  18  33  54  81 114 147 172 203 256 309
#     4   9  17  29  45  65  88 114 146 187 236 284
#
# _framework density 23.204623999999999
#
# number of rings (size 3 to 8) (size 9 to 14) (size 15 to 20)
#    0.000    2.625    0.000    1.875    0.000    6.375 
#    0.000    3.750    0.000    6.750    0.000    0.000 
#    0.000    0.000    0.000    0.000    0.000    0.000 
#
# Total GULP energy -356454.145838 kJ/mol
# GULP energy per Si atom -5569.596029 kJ/mol
# Density = 2.315181 g / cm^3
# Si number density = 23.204624 Si / 1000 Ang^3
#
#
#
# Elastic Constant Matrix: (Units=GPa)
#
#
# Indices 1 2 3 4 5 6 
#
# 1 141.9877 77.3921 4.3317 0.0000 -0.0001 0.0001
# 2 77.3921 141.9878 4.3317 0.0000 -0.0001 0.0002
# 3 4.3317 4.3317 62.0285 0.0000 0.0000 0.0000
# 4 0.0000 0.0000 0.0000 1.8068 0.0000 0.0000
# 5 -0.0001 -0.0001 0.0000 0.0000 1.8068 0.0000
# 6 0.0001 0.0002 0.0000 0.0000 0.0000 32.2979
#
#
#
# Elastic Compliance Matrix: (Units=1/GPa)
#
#
# Indices 1 2 3 4 5 6 
#
# 1 0.010026 -0.005455 -0.000319 0.000000 0.000000 0.000000
# 2 -0.005455 0.010026 -0.000319 0.000000 0.000000 0.000000
# 3 -0.000319 -0.000319 0.016166 0.000000 0.000000 0.000000
# 4 0.000000 0.000000 0.000000 0.553454 -0.000007 0.000000
# 5 0.000000 0.000000 0.000000 -0.000007 0.553466 0.000000
# 6 0.000000 0.000000 0.000000 0.000000 0.000000 0.030962
#
#
# Mechanical properties :
#
#
# Convention : Reuss Voigt Hill
#
# Bulk Modulus (GPa) = 41.61258 57.56834 49.59046
# Shear Modulus (GPa) = 4.18656 24.51221 14.34939
#
# Velocity S-wave (km/s) = 1.34466 3.25368 2.48943
# Velocity P-wave (km/s) = 4.51471 6.24324 5.44797
#
# Compressibility (1/GPa) = 0.02403119
#
# Stress axis : x y z
#
# Youngs Moduli (GPa) = 99.74156 99.74162 61.85749
#
# Poissons Ratio (x) = 0.54409 0.01975
# Poissons Ratio (y) = 0.54409 0.01975
# Poissons Ratio (z) = 0.03184 0.03184
#
# Static dielectric constant tensor:
#      x y z
#    x 1.839320 0.000000 0.000000 
#    y 0.000000 1.839310 0.000000 
#    z 0.000000 0.000000 1.918550 
# 
# From -- ./inp_files/3052.got.cif
#   From: 2010.05.17/outbox.cif.g08.bks.cpg/sg189_2_cif.got.tgz:3052.got - 2010.05.20 12:14:34.
