data_PCOD9586277
_publ_section_title
;
Structure prediction by ZEFSAII (Michael W. Deem and Ramdas Pophale) SiO2 
 PCOD9586277
Probable space group: P -6 2 M
;
_chemical_formula_sum "Si O2"
_cell_formula_units_Z 78
_cell_length_a 24.717031
_cell_length_b 24.717031
_cell_length_c 7.376078
_cell_angle_alpha 90.000000
_cell_angle_beta 90.000000
_cell_angle_gamma 120.000000
_cell_volume 3902.552344
_symmetry_space_group_name_H-M "P -6 2 M"
_symmetry_group_IT_number 189
_symmetry_cell_setting 'hexagonal'
loop_
_space_group_symop_operation_xyz
x,y,z
-x+y,-x,-z
-y,x-y,z
x,y,-z
-x+y,-x,z
-y,x-y,-z
x-y,-y,-z
-x,-x+y,-z
y,x,-z
y,x,z
x-y,-y,z
-x,-x+y,z
loop_
_atom_site_type_symbol
_atom_site_label
_atom_site_fract_x
_atom_site_fract_y
_atom_site_fract_z
Si Si1 0.517979 0.267642 0.277973
Si Si2 0.926372 0.757098 0.283432
Si Si3 0.930411 0.285755 0.210681
Si Si4 0.590109 0.195179 0.720813
Si Si5 0.150187 0.075109 0.000000
Si Si6 0.825019 0.623868 0.704347
Si Si7 0.518544 0.586771 0.719087
O O1 0.515478 0.264669 0.500000
O O2 0.562607 0.338937 0.221285
O O3 0.552860 0.230171 0.221483
O O4 0.446138 0.237739 0.215075
O O5 0.915677 0.758897 0.500000
O O6 0.884397 0.685519 0.218190
O O7 0.000000 0.783376 0.255669
O O8 0.911066 0.803960 0.172355
O O9 0.871383 0.228951 0.301286
O O10 0.922140 0.346375 0.223257
O O11 0.000000 0.308325 0.282344
O O12 0.928993 0.269432 0.000000
O O13 0.591899 0.197902 0.500000
O O14 0.547134 0.123999 0.778732
O O15 0.101020 0.101020 0.000000
O O16 0.114630 0.000000 0.000000
O O17 0.843376 0.617286 0.500000
O O18 0.519255 0.588135 0.500000
O O19 0.535297 0.535297 0.780487
#
# Coordination Sequence:
#
# PCOD9586277 Si02
#       7
#    12  12  12  12   6  12  12
#     4   9  16  26  44  72 100 129 165 212 264 316
#     4   9  20  38  57  79 111 150 188 230 277 321
#     4  10  20  31  46  71 100 130 163 200 248 308
#     4   9  15  25  42  67  96 123 158 203 251 301
#     4  10  21  38  62  90 120 152 186 224 268 322
#     4  10  19  33  52  75 102 134 175 217 265 321
#     4   9  16  28  46  67  94 126 157 193 243 300
#
# _framework density 19.986920000000001
#
# number of rings (size 3 to 8) (size 9 to 14) (size 15 to 20)
#    0.000    2.615    1.538    0.846    1.077    3.077 
#    0.000    2.308    0.000    6.462    0.000    0.000 
#    0.000    0.000    0.000    0.000    0.000    0.000 
#
# Total GULP energy -435036.733114 kJ/mol
# GULP energy per Si atom -5577.394014 kJ/mol
# Density = 1.994143 g / cm^3
# Si number density = 19.986920 Si / 1000 Ang^3
#
#
#
# Elastic Constant Matrix: (Units=GPa)
#
#
# Indices 1 2 3 4 5 6 
#
# 1 138.6916 93.5952 19.2631 0.0000 0.0000 0.0000
# 2 93.5952 138.6916 19.2631 0.0000 0.0000 0.0000
# 3 19.2631 19.2631 80.3161 0.0000 0.0000 0.0000
# 4 0.0000 0.0000 0.0000 3.8062 0.0000 0.0000
# 5 0.0000 0.0000 0.0000 0.0000 3.8062 0.0000
# 6 0.0000 0.0000 0.0000 0.0000 0.0000 22.5482
#
#
#
# Elastic Compliance Matrix: (Units=1/GPa)
#
#
# Indices 1 2 3 4 5 6 
#
# 1 0.013329 -0.008846 -0.001075 0.000000 0.000000 0.000000
# 2 -0.008846 0.013329 -0.001075 0.000000 0.000000 0.000000
# 3 -0.001075 -0.001075 0.012967 0.000000 0.000000 0.000000
# 4 0.000000 0.000000 0.000000 0.262731 0.000000 0.000000
# 5 0.000000 0.000000 0.000000 0.000000 0.262731 0.000000
# 6 0.000000 0.000000 0.000000 0.000000 0.000000 0.044349
#
#
# Mechanical properties :
#
#
# Convention : Reuss Voigt Hill
#
# Bulk Modulus (GPa) = 56.71456 69.10468 62.90962
# Shear Modulus (GPa) = 7.84551 21.07062 14.45807
#
# Velocity S-wave (km/s) = 1.98339 3.25040 2.69248
# Velocity P-wave (km/s) = 5.80367 6.98117 6.41948
#
# Compressibility (1/GPa) = 0.01763216
#
# Stress axis : x y z
#
# Youngs Moduli (GPa) = 75.02409 75.02409 77.12114
#
# Poissons Ratio (x) = 0.66364 0.08293
# Poissons Ratio (y) = 0.66364 0.08293
# Poissons Ratio (z) = 0.08067 0.08067
#
# Static dielectric constant tensor:
#      x y z
#    x 1.687390 0.000000 0.000000 
#    y 0.000000 1.687390 0.000000 
#    z 0.000000 0.000000 1.764640 
# 
# From -- ./inp_files/1410.got.cif
#   From: 2010.05.17/outbox.cif.g08.bks.cpg/sg189_1_cif.got.tgz:1410.got - 2010.05.20 12:14:34.
