data_PCOD9586232
_publ_section_title
;
Structure prediction by ZEFSAII (Michael W. Deem and Ramdas Pophale) SiO2 
 PCOD9586232
Probable space group: P -6 2 M
;
_chemical_formula_sum "Si O2"
_cell_formula_units_Z 84
_cell_length_a 14.394892
_cell_length_b 14.394892
_cell_length_c 24.489147
_cell_angle_alpha 90.000000
_cell_angle_beta 90.000000
_cell_angle_gamma 120.000000
_cell_volume 4394.617811
_symmetry_space_group_name_H-M "P -6 2 M"
_symmetry_group_IT_number 189
_symmetry_cell_setting 'hexagonal'
loop_
_space_group_symop_operation_xyz
x,y,z
-x+y,-x,-z
-y,x-y,z
x,y,-z
-x+y,-x,z
-y,x-y,-z
x-y,-y,-z
-x,-x+y,-z
y,x,-z
y,x,z
x-y,-y,z
-x,-x+y,z
loop_
_atom_site_type_symbol
_atom_site_label
_atom_site_fract_x
_atom_site_fract_y
_atom_site_fract_z
Si Si1 0.124804 0.778922 0.500000
Si Si2 0.124912 0.660673 0.236891
Si Si3 0.705166 0.576857 0.590268
Si Si4 0.120036 0.239121 0.936174
Si Si5 0.122158 0.507752 0.937684
Si Si6 0.127342 0.559994 0.500000
Si Si7 0.675516 0.546101 0.283258
Si Si8 0.456944 0.284677 0.886841
O O1 0.187499 0.838355 0.444747
O O2 0.135320 0.672886 0.500000
O O3 0.000000 0.742799 0.500000
O O4 0.144334 0.569246 0.264819
O O5 0.216284 0.781432 0.253258
O O6 0.138165 0.660102 0.171667
O O7 0.000000 0.623974 0.249247
O O8 0.639478 0.639478 0.590672
O O9 0.639727 0.469767 0.553747
O O10 0.706721 0.548814 0.653028
O O11 0.139493 0.139493 0.932719
O O12 0.206517 0.332957 0.899288
O O13 0.000000 0.203700 0.920363
O O14 0.135654 0.272655 0.000000
O O15 0.207626 0.506502 0.896601
O O16 0.130488 0.621801 0.931122
O O17 0.000000 0.418092 0.926027
O O18 0.147827 0.494137 0.000000
O O19 0.000000 0.476948 0.500000
O O20 0.630951 0.630951 0.274924
#
# Coordination Sequence:
#
# PCOD9586232 Si02
#       8
#     6  12  12  12  12   6  12  12
#     4  10  19  31  57  91 121 155 193 230 278 346
#     4  11  24  41  62  89 117 155 209 259 308 365
#     4   9  19  37  55  78 119 157 187 232 289 341
#     4  10  20  35  56  82 111 143 180 227 290 365
#     4  11  23  38  59  86 114 148 187 228 285 363
#     4   8  16  31  50  79 116 149 180 220 273 334
#     4  10  23  42  63  86 120 163 207 262 315 358
#     4  12  23  38  57  80 114 149 185 239 295 347
#
# _framework density 19.114291000000001
#
# number of rings (size 3 to 8) (size 9 to 14) (size 15 to 20)
#    0.000    1.714    0.000    5.214    2.000    5.714 
#    3.429    0.000    0.000    1.429    0.000    0.000 
#    0.000    0.000    0.000    0.000    0.000    0.000 
#
# Total GULP energy -468427.839235 kJ/mol
# GULP energy per Si atom -5576.521896 kJ/mol
# Density = 1.907079 g / cm^3
# Si number density = 19.114291 Si / 1000 Ang^3
#
#
#
# Elastic Constant Matrix: (Units=GPa)
#
#
# Indices 1 2 3 4 5 6 
#
# 1 82.3880 26.0077 29.1219 0.0000 0.0000 0.0000
# 2 26.0077 82.3880 29.1219 0.0000 0.0000 0.0000
# 3 29.1219 29.1219 73.8809 0.0000 0.0000 0.0000
# 4 0.0000 0.0000 0.0000 13.4967 0.0000 0.0000
# 5 0.0000 0.0000 0.0000 0.0000 13.4967 0.0000
# 6 0.0000 0.0000 0.0000 0.0000 0.0000 28.1902
#
#
#
# Elastic Compliance Matrix: (Units=1/GPa)
#
#
# Indices 1 2 3 4 5 6 
#
# 1 0.014721 -0.003016 -0.004614 0.000000 0.000000 0.000000
# 2 -0.003016 0.014721 -0.004614 0.000000 0.000000 0.000000
# 3 -0.004614 -0.004614 0.017172 0.000000 0.000000 0.000000
# 4 0.000000 0.000000 0.000000 0.074092 0.000000 0.000000
# 5 0.000000 0.000000 0.000000 0.000000 0.074092 0.000000
# 6 0.000000 0.000000 0.000000 0.000000 0.000000 0.035473
#
#
# Mechanical properties :
#
#
# Convention : Reuss Voigt Hill
#
# Bulk Modulus (GPa) = 45.19374 45.24001 45.21688
# Shear Modulus (GPa) = 19.07428 21.33043 20.20235
#
# Velocity S-wave (km/s) = 3.16239 3.34419 3.25456
# Velocity P-wave (km/s) = 6.08519 6.21539 6.15064
#
# Compressibility (1/GPa) = 0.02212696
#
# Stress axis : x y z
#
# Youngs Moduli (GPa) = 67.93216 67.93216 58.23297
#
# Poissons Ratio (x) = 0.20489 0.26866
# Poissons Ratio (y) = 0.20489 0.26866
# Poissons Ratio (z) = 0.31341 0.31341
#
# Static dielectric constant tensor:
#      x y z
#    x 1.691360 0.000000 0.000000 
#    y 0.000000 1.691360 0.000000 
#    z 0.000000 0.000000 1.690690 
# 
# From -- ./inp_files/3643.got.cif
#   From: 2010.05.17/outbox.cif.g08.bks.cpg/sg189_2_cif.got.tgz:3643.got - 2010.05.20 12:14:34.
