data_PCOD9586830
_publ_section_title
;
Structure prediction by ZEFSAII (Michael W. Deem and Ramdas Pophale) SiO2 
 PCOD9586830
Probable space group: P -6 2 C
;
_chemical_formula_sum "Si O2"
_cell_formula_units_Z 66
_cell_length_a 20.450180
_cell_length_b 20.450180
_cell_length_c 9.674005
_cell_angle_alpha 90.000000
_cell_angle_beta 90.000000
_cell_angle_gamma 120.000000
_cell_volume 3503.734658
_symmetry_space_group_name_H-M "P -6 2 C"
_symmetry_group_IT_number 190
_symmetry_cell_setting 'hexagonal'
loop_
_space_group_symop_operation_xyz
x,y,z
-x+y,-x,1/2-z
-y,x-y,z
x,y,1/2-z
-x+y,-x,z
-y,x-y,1/2-z
x-y,-y,-z
-x,-x+y,-z
y,x,-z
y,x,1/2+z
x-y,-y,1/2+z
-x,-x+y,1/2+z
loop_
_atom_site_type_symbol
_atom_site_label
_atom_site_fract_x
_atom_site_fract_y
_atom_site_fract_z
Si Si1 0.221870 0.922286 0.085758
Si Si2 0.799953 0.076583 0.082326
Si Si3 0.143379 0.690920 0.913349
Si Si4 0.068734 0.519676 0.904700
Si Si5 0.346001 0.757451 0.250000
Si Si6 0.174282 0.473738 0.484776
O O1 0.210135 0.931670 0.250000
O O2 0.269545 0.878824 0.077092
O O3 0.145046 0.869691 0.999017
O O4 0.265286 0.000000 0.000000
O O5 0.812353 0.074971 0.250000
O O6 0.730370 0.092911 0.065687
O O7 0.777784 0.000000 0.000000
O O8 0.153668 0.687443 0.750000
O O9 0.104959 0.604988 0.962660
O O10 0.225517 0.748764 0.971921
O O11 0.041295 0.519671 0.750000
O O12 0.128322 0.490447 0.901262
O O13 0.000000 0.464628 0.000000
O O14 0.408088 0.731915 0.250000
O O15 0.345051 0.803829 0.120918
#
# Coordination Sequence:
#
# PCOD9586830 Si02
#       6
#    12  12  12  12   6  12
#     4  11  23  39  61  90 125 162 210 259 317 379
#     4  10  20  37  63  91 123 159 203 252 308 372
#     4   9  20  38  57  83 114 153 203 256 311 370
#     4  11  24  39  59  84 117 157 200 255 317 380
#     4  10  22  36  56  84 120 156 210 268 328 374
#     4  11  21  38  59  83 117 160 208 258 317 382
#
# _framework density 18.837043000000001
#
# number of rings (size 3 to 8) (size 9 to 14) (size 15 to 20)
#    0.182    1.455    0.909    3.818    1.273    3.636 
#    2.727    0.000    0.000    0.364    0.000    2.545 
#    0.000    0.000    0.000    0.000    0.000    0.000 
#
# Total GULP energy -367957.963688 kJ/mol
# GULP energy per Si atom -5575.120662 kJ/mol
# Density = 1.879417 g / cm^3
# Si number density = 18.837043 Si / 1000 Ang^3
#
#
#
# Elastic Constant Matrix: (Units=GPa)
#
#
# Indices 1 2 3 4 5 6 
#
# 1 66.8018 23.4729 41.5743 0.0000 0.0000 0.0000
# 2 23.4729 66.8018 41.5743 0.0000 0.0000 0.0000
# 3 41.5743 41.5743 120.7164 0.0000 0.0000 0.0000
# 4 0.0000 0.0000 0.0000 23.9705 0.0000 0.0000
# 5 0.0000 0.0000 0.0000 0.0000 23.9705 0.0000
# 6 0.0000 0.0000 0.0000 0.0000 0.0000 21.6645
#
#
#
# Elastic Compliance Matrix: (Units=1/GPa)
#
#
# Indices 1 2 3 4 5 6 
#
# 1 0.019651 -0.003428 -0.005587 0.000000 0.000000 0.000000
# 2 -0.003428 0.019651 -0.005587 0.000000 0.000000 0.000000
# 3 -0.005587 -0.005587 0.012132 0.000000 0.000000 0.000000
# 4 0.000000 0.000000 0.000000 0.041718 0.000000 0.000000
# 5 0.000000 0.000000 0.000000 0.000000 0.041718 0.000000
# 6 0.000000 0.000000 0.000000 0.000000 0.000000 0.046158
#
#
# Mechanical properties :
#
#
# Convention : Reuss Voigt Hill
#
# Bulk Modulus (GPa) = 44.98385 51.95144 48.46765
# Shear Modulus (GPa) = 22.97322 23.76767 23.37044
#
# Velocity S-wave (km/s) = 3.49603 3.55597 3.52613
# Velocity P-wave (km/s) = 6.34261 6.67077 6.50876
#
# Compressibility (1/GPa) = 0.02223020
#
# Stress axis : x y z
#
# Youngs Moduli (GPa) = 50.88692 50.88692 82.42390
#
# Poissons Ratio (x) = 0.17443 0.46053
# Poissons Ratio (y) = 0.17443 0.46053
# Poissons Ratio (z) = 0.28432 0.28432
#
# Static dielectric constant tensor:
#      x y z
#    x 1.650570 0.000000 0.000000 
#    y 0.000000 1.650570 0.000000 
#    z 0.000000 0.000000 1.660780 
# 
# From -- ./inp_files/1069.got.cif
#   From: 2010.05.17/outbox.cif.g08.bks.cpg/sg190_1_cif.got.tgz:1069.got - 2010.05.20 12:16:56.
