data_PCOD9586548
_publ_section_title
;
Structure prediction by ZEFSAII (Michael W. Deem and Ramdas Pophale) SiO2 
 PCOD9586548
Probable space group: P -6 2 M
;
_chemical_formula_sum "Si O2"
_cell_formula_units_Z 33
_cell_length_a 15.419431
_cell_length_b 15.419431
_cell_length_c 8.288442
_cell_angle_alpha 90.000000
_cell_angle_beta 90.000000
_cell_angle_gamma 120.000000
_cell_volume 1706.633358
_symmetry_space_group_name_H-M "P -6 2 M"
_symmetry_group_IT_number 189
_symmetry_cell_setting 'hexagonal'
loop_
_space_group_symop_operation_xyz
x,y,z
-x+y,-x,-z
-y,x-y,z
x,y,-z
-x+y,-x,z
-y,x-y,-z
x-y,-y,-z
-x,-x+y,-z
y,x,-z
y,x,z
x-y,-y,z
-x,-x+y,z
loop_
_atom_site_type_symbol
_atom_site_label
_atom_site_fract_x
_atom_site_fract_y
_atom_site_fract_z
Si Si1 0.802062 0.254166 0.813925
Si Si2 0.113051 0.000000 0.500000
Si Si3 0.115013 0.588420 0.688710
Si Si4 0.762720 0.762720 0.809658
O O1 0.707187 0.176394 0.712003
O O2 0.830044 0.367476 0.778354
O O3 0.901469 0.247098 0.786827
O O4 0.772942 0.230274 0.000000
O O5 0.094294 0.094294 0.500000
O O6 0.167385 0.000000 0.665763
O O7 0.113840 0.565064 0.500000
O O8 0.000000 0.539171 0.744516
O O9 0.792788 0.792788 0.000000
#
# Coordination Sequence:
#
# PCOD9586548 Si02
#       4
#    12   3  12   6
#     4  11  23  41  65  94 133 176 217 271 329 396
#     4  10  26  46  70 100 126 174 216 282 342 410
#     4  11  24  40  63  96 130 172 218 270 325 395
#     4  10  24  44  72  99 133 178 223 277 338 396
#
# _framework density 19.336314999999999
#
# number of rings (size 3 to 8) (size 9 to 14) (size 15 to 20)
#    0.182    1.091    1.818    2.909    5.091    4.364 
#    0.000    3.636    0.000    0.000    0.000    0.000 
#    0.000    0.000    0.000    0.000    0.000    0.000 
#
# Total GULP energy -184337.479176 kJ/mol
# GULP energy per Si atom -5585.984217 kJ/mol
# Density = 1.929230 g / cm^3
# Si number density = 19.336315 Si / 1000 Ang^3
#
#
#
# Elastic Constant Matrix: (Units=GPa)
#
#
# Indices 1 2 3 4 5 6 
#
# 1 80.8014 13.4967 13.1923 0.0000 0.0000 0.0000
# 2 13.4967 80.8014 13.1923 0.0000 0.0000 0.0000
# 3 13.1923 13.1923 57.3806 0.0000 0.0000 0.0000
# 4 0.0000 0.0000 0.0000 42.6284 0.0000 0.0000
# 5 0.0000 0.0000 0.0000 0.0000 42.6284 0.0000
# 6 0.0000 0.0000 0.0000 0.0000 0.0000 33.6523
#
#
#
# Elastic Compliance Matrix: (Units=1/GPa)
#
#
# Indices 1 2 3 4 5 6 
#
# 1 0.013096 -0.001762 -0.002606 0.000000 0.000000 0.000000
# 2 -0.001762 0.013096 -0.002606 0.000000 0.000000 0.000000
# 3 -0.002606 -0.002606 0.018626 0.000000 0.000000 0.000000
# 4 0.000000 0.000000 0.000000 0.023459 0.000000 0.000000
# 5 0.000000 0.000000 0.000000 0.000000 0.023459 0.000000
# 6 0.000000 0.000000 0.000000 0.000000 0.000000 0.029716
#
#
# Mechanical properties :
#
#
# Convention : Reuss Voigt Hill
#
# Bulk Modulus (GPa) = 32.39366 33.19400 32.79383
# Shear Modulus (GPa) = 34.32017 35.72197 35.02107
#
# Velocity S-wave (km/s) = 4.21754 4.30281 4.26038
# Velocity P-wave (km/s) = 6.36443 6.47221 6.41854
#
# Compressibility (1/GPa) = 0.03087024
#
# Stress axis : x y z
#
# Youngs Moduli (GPa) = 76.36047 76.36047 53.68941
#
# Poissons Ratio (x) = 0.13455 0.13990
# Poissons Ratio (y) = 0.13455 0.13990
# Poissons Ratio (z) = 0.19897 0.19897
#
# Static dielectric constant tensor:
#      x y z
#    x 1.654580 0.000000 0.000000 
#    y 0.000000 1.654580 0.000000 
#    z 0.000000 0.000000 1.658950 
# 
# From -- ./inp_files/381.got.cif
#   From: 2010.05.17/outbox.cif.g08.bks.cpg/sg189_1_cif.got.tgz:381.got - 2010.05.20 12:14:34.
