data_PCOD9586443
_publ_section_title
;
Structure prediction by ZEFSAII (Michael W. Deem and Ramdas Pophale) SiO2 
 PCOD9586443
Probable space group: P -6 2 M
;
_chemical_formula_sum "Si O2"
_cell_formula_units_Z 72
_cell_length_a 14.605270
_cell_length_b 14.605270
_cell_length_c 18.917325
_cell_angle_alpha 90.000000
_cell_angle_beta 90.000000
_cell_angle_gamma 120.000000
_cell_volume 3494.697077
_symmetry_space_group_name_H-M "P -6 2 M"
_symmetry_group_IT_number 189
_symmetry_cell_setting 'hexagonal'
loop_
_space_group_symop_operation_xyz
x,y,z
-x+y,-x,-z
-y,x-y,z
x,y,-z
-x+y,-x,z
-y,x-y,-z
x-y,-y,-z
-x,-x+y,-z
y,x,-z
y,x,z
x-y,-y,z
-x,-x+y,z
loop_
_atom_site_type_symbol
_atom_site_label
_atom_site_fract_x
_atom_site_fract_y
_atom_site_fract_z
Si Si1 0.324989 0.115901 0.623532
Si Si2 0.758691 0.878921 0.222138
Si Si3 0.874014 0.531909 0.575990
Si Si4 0.476850 0.879900 0.917615
Si Si5 0.530235 0.723042 0.837347
Si Si6 0.122026 0.524340 0.303325
O O1 0.270792 0.127072 0.694764
O O2 0.371032 0.223191 0.580342
O O3 0.430154 0.114406 0.648335
O O4 0.246966 0.000000 0.591692
O O5 0.848282 0.848282 0.208071
O O6 0.652882 0.796560 0.181564
O O7 0.798652 0.000000 0.205373
O O8 0.833230 0.476426 0.500000
O O9 0.834214 0.460821 0.646564
O O10 0.000000 0.578801 0.577133
O O11 0.490287 0.798266 0.868852
O O12 0.366654 0.870639 0.895103
O O13 0.568644 0.000000 0.906045
O O14 0.475318 0.853444 0.000000
O O15 0.473755 0.660046 0.765479
O O16 0.000000 0.485705 0.280541
#
# Coordination Sequence:
#
# PCOD9586443 Si02
#       6
#    12  12  12  12  12  12
#     4   9  19  36  57  83 117 156 203 257 313 377
#     4  10  20  36  60  92 127 164 209 263 319 371
#     4  10  21  37  57  83 120 163 207 260 319 380
#     4  11  24  41  63  93 128 168 209 252 315 389
#     4  11  22  39  62  90 126 165 209 264 314 373
#     4   9  20  37  58  84 116 157 206 255 310 371
#
# _framework density 20.602643
#
# number of rings (size 3 to 8) (size 9 to 14) (size 15 to 20)
#    0.000    2.000    0.000    4.500    4.667    1.000 
#    1.000    1.667    0.000    0.333    0.000    0.000 
#    0.000    8.000    0.000    0.000    0.000    0.000 
#
# Total GULP energy -401962.250876 kJ/mol
# GULP energy per Si atom -5582.809040 kJ/mol
# Density = 2.055575 g / cm^3
# Si number density = 20.602643 Si / 1000 Ang^3
#
#
#
# Elastic Constant Matrix: (Units=GPa)
#
#
# Indices 1 2 3 4 5 6 
#
# 1 81.1071 28.3923 49.6461 0.0000 0.0000 0.0000
# 2 28.3923 81.1071 49.6461 0.0000 0.0000 0.0000
# 3 49.6461 49.6461 105.7854 0.0000 0.0000 0.0000
# 4 0.0000 0.0000 0.0000 11.7305 0.0000 0.0000
# 5 0.0000 0.0000 0.0000 0.0000 11.7305 0.0000
# 6 0.0000 0.0000 0.0000 0.0000 0.0000 26.3574
#
#
#
# Elastic Compliance Matrix: (Units=1/GPa)
#
#
# Indices 1 2 3 4 5 6 
#
# 1 0.017434 -0.001536 -0.007461 0.000000 0.000000 0.000000
# 2 -0.001536 0.017434 -0.007461 0.000000 0.000000 0.000000
# 3 -0.007461 -0.007461 0.016456 0.000000 0.000000 0.000000
# 4 0.000000 0.000000 0.000000 0.085248 0.000000 0.000000
# 5 0.000000 0.000000 0.000000 0.000000 0.085248 0.000000
# 6 0.000000 0.000000 0.000000 0.000000 0.000000 0.037940
#
#
# Mechanical properties :
#
#
# Convention : Reuss Voigt Hill
#
# Bulk Modulus (GPa) = 54.32441 58.15207 56.23824
# Shear Modulus (GPa) = 16.73291 19.31803 18.02547
#
# Velocity S-wave (km/s) = 2.85296 3.06543 2.96110
# Velocity P-wave (km/s) = 6.10552 6.38873 6.24873
#
# Compressibility (1/GPa) = 0.01840793
#
# Stress axis : x y z
#
# Youngs Moduli (GPa) = 57.35905 57.35905 60.76716
#
# Poissons Ratio (x) = 0.08810 0.45339
# Poissons Ratio (y) = 0.08810 0.45339
# Poissons Ratio (z) = 0.42796 0.42796
#
# Static dielectric constant tensor:
#      x y z
#    x 1.745570 0.000000 0.000000 
#    y 0.000000 1.745570 0.000000 
#    z 0.000000 0.000000 1.756770 
# 
# From -- ./inp_files/3093.got.cif
#   From: 2010.05.17/outbox.cif.g08.bks.cpg/sg189_2_cif.got.tgz:3093.got - 2010.05.20 12:14:34.
