data_PCOD9586495
_publ_section_title
;
Structure prediction by ZEFSAII (Michael W. Deem and Ramdas Pophale) SiO2 
 PCOD9586495
Probable space group: P -6 2 M
;
_chemical_formula_sum "Si O2"
_cell_formula_units_Z 63
_cell_length_a 14.255691
_cell_length_b 14.255691
_cell_length_c 17.927056
_cell_angle_alpha 90.000000
_cell_angle_beta 90.000000
_cell_angle_gamma 120.000000
_cell_volume 3155.121974
_symmetry_space_group_name_H-M "P -6 2 M"
_symmetry_group_IT_number 189
_symmetry_cell_setting 'hexagonal'
loop_
_space_group_symop_operation_xyz
x,y,z
-x+y,-x,-z
-y,x-y,z
x,y,-z
-x+y,-x,z
-y,x-y,-z
x-y,-y,-z
-x,-x+y,-z
y,x,-z
y,x,z
x-y,-y,z
-x,-x+y,z
loop_
_atom_site_type_symbol
_atom_site_label
_atom_site_fract_x
_atom_site_fract_y
_atom_site_fract_z
Si Si1 0.875339 0.747894 0.915681
Si Si2 0.128174 0.578755 0.579186
Si Si3 0.446592 0.571307 0.260612
Si Si4 0.799112 0.126701 0.613930
Si Si5 0.200208 0.791305 0.779684
Si Si6 0.000000 0.256582 0.500000
O O1 0.798444 0.798444 0.903703
O O2 0.855251 0.663219 0.851122
O O3 0.000000 0.841712 0.912117
O O4 0.856543 0.702072 0.000000
O O5 0.175826 0.571792 0.500000
O O6 0.171305 0.558170 0.655973
O O7 0.134783 0.694482 0.587636
O O8 0.000000 0.489272 0.575901
O O9 0.479386 0.479386 0.270153
O O10 0.539007 0.671153 0.217103
O O11 0.329173 0.511778 0.225143
O O12 0.812381 0.155686 0.702019
O O13 0.903731 0.203754 0.565297
O O14 0.763508 0.000000 0.604022
#
# Coordination Sequence:
#
# PCOD9586495 Si02
#       6
#    12  12  12  12  12   3
#     4  10  21  39  66  97 129 165 206 251 300 365
#     4   8  14  31  52  70  98 141 191 238 285 339
#     4  10  21  36  58  85 111 152 196 247 304 360
#     4  10  21  37  55  78 117 163 200 249 309 369
#     4  11  22  41  63  88 123 159 207 260 316 374
#     4  12  22  32  56  84 114 160 214 252 314 380
#
# _framework density 19.967531000000001
#
# number of rings (size 3 to 8) (size 9 to 14) (size 15 to 20)
#    0.000    2.095    0.952    4.286    2.667    0.762 
#    4.000    0.952    0.000    3.429    0.000    0.000 
#    0.000    0.000    0.000    0.000    0.000    0.000 
#
# Total GULP energy -351138.893915 kJ/mol
# GULP energy per Si atom -5573.633237 kJ/mol
# Density = 1.992208 g / cm^3
# Si number density = 19.967531 Si / 1000 Ang^3
#
#
#
# Elastic Constant Matrix: (Units=GPa)
#
#
# Indices 1 2 3 4 5 6 
#
# 1 55.3879 2.1908 19.8603 0.0000 0.0000 0.0000
# 2 2.1908 55.3879 19.8603 0.0000 0.0000 0.0000
# 3 19.8603 19.8603 111.9360 0.0000 0.0000 0.0000
# 4 0.0000 0.0000 0.0000 9.4509 0.0000 0.0000
# 5 0.0000 0.0000 0.0000 0.0000 9.4509 0.0000
# 6 0.0000 0.0000 0.0000 0.0000 0.0000 26.5986
#
#
#
# Elastic Compliance Matrix: (Units=1/GPa)
#
#
# Indices 1 2 3 4 5 6 
#
# 1 0.019294 0.000496 -0.003511 0.000000 0.000000 0.000000
# 2 0.000496 0.019294 -0.003511 0.000000 0.000000 0.000000
# 3 -0.003511 -0.003511 0.010180 0.000000 0.000000 0.000000
# 4 0.000000 0.000000 0.000000 0.105810 0.000000 0.000000
# 5 0.000000 0.000000 0.000000 0.000000 0.105810 0.000000
# 6 0.000000 0.000000 0.000000 0.000000 0.000000 0.037596
#
#
# Mechanical properties :
#
#
# Convention : Reuss Voigt Hill
#
# Bulk Modulus (GPa) = 28.00001 34.05942 31.02972
# Shear Modulus (GPa) = 15.48267 21.15342 18.31804
#
# Velocity S-wave (km/s) = 2.78761 3.25836 3.03213
# Velocity P-wave (km/s) = 4.94107 5.59020 5.27563
#
# Compressibility (1/GPa) = 0.03571427
#
# Stress axis : x y z
#
# Youngs Moduli (GPa) = 51.82991 51.82991 98.23540
#
# Poissons Ratio (x) = -0.02570 0.34492
# Poissons Ratio (y) = -0.02570 0.34492
# Poissons Ratio (z) = 0.18199 0.18199
#
# Static dielectric constant tensor:
#      x y z
#    x 1.698610 0.000000 0.000000 
#    y 0.000000 1.698610 0.000000 
#    z 0.000000 0.000000 1.709300 
# 
# From -- ./inp_files/3025.got.cif
#   From: 2010.05.17/outbox.cif.g08.bks.cpg/sg189_2_cif.got.tgz:3025.got - 2010.05.20 12:14:34.
