data_PCOD9586210
_publ_section_title
;
Structure prediction by ZEFSAII (Michael W. Deem and Ramdas Pophale) SiO2 
 PCOD9586210
Probable space group: P -6 2 M
;
_chemical_formula_sum "Si O2"
_cell_formula_units_Z 72
_cell_length_a 24.427321
_cell_length_b 24.427321
_cell_length_c 8.857957
_cell_angle_alpha 90.000000
_cell_angle_beta 90.000000
_cell_angle_gamma 120.000000
_cell_volume 4577.368519
_symmetry_space_group_name_H-M "P -6 2 M"
_symmetry_group_IT_number 189
_symmetry_cell_setting 'hexagonal'
loop_
_space_group_symop_operation_xyz
x,y,z
-x+y,-x,-z
-y,x-y,z
x,y,-z
-x+y,-x,z
-y,x-y,-z
x-y,-y,-z
-x,-x+y,-z
y,x,-z
y,x,z
x-y,-y,z
-x,-x+y,z
loop_
_atom_site_type_symbol
_atom_site_label
_atom_site_fract_x
_atom_site_fract_y
_atom_site_fract_z
Si Si1 0.853513 0.927288 0.818358
Si Si2 0.741268 0.480210 0.682235
Si Si3 0.927825 0.404652 0.181775
Si Si4 0.855195 0.257126 0.819220
Si Si5 0.926116 0.190118 0.319417
Si Si6 0.406036 0.593898 0.318365
O O1 0.901996 0.901996 0.782670
O O2 0.787497 0.878557 0.742011
O O3 0.883169 0.000000 0.772063
O O4 0.845559 0.923752 0.000000
O O5 0.744653 0.486618 0.500000
O O6 0.760659 0.547304 0.755711
O O7 0.783202 0.449492 0.730140
O O8 0.667580 0.432887 0.721787
O O9 0.900793 0.331102 0.223118
O O10 0.879671 0.424556 0.249549
O O11 0.000000 0.447084 0.232318
O O12 0.926169 0.407355 0.000000
O O13 0.883273 0.215938 0.750916
O O14 0.853352 0.252601 0.000000
O O15 0.921531 0.188815 0.500000
O O16 0.000000 0.236584 0.277371
O O17 0.407771 0.590923 0.500000
#
# Coordination Sequence:
#
# PCOD9586210 Si02
#       6
#    12  12  12  12  12  12
#     4   9  17  30  49  72  97 125 156 189 226 271
#     4   9  17  30  47  69  96 123 152 187 228 274
#     4   9  18  31  46  66  93 122 151 187 230 272
#     4  10  19  31  48  69  93 123 157 192 232 276
#     4  10  20  32  47  69  96 125 156 191 232 276
#     4   9  17  29  47  69  93 122 152 183 222 270
#
# _framework density 15.729562
#
# number of rings (size 3 to 8) (size 9 to 14) (size 15 to 20)
#    0.000    2.667    0.000    2.000    0.000    5.667 
#    0.000    0.000    0.000    4.000    0.000    4.667 
#    0.000    0.000    0.000    0.000    0.000    0.000 
#
# Total GULP energy -401477.401717 kJ/mol
# GULP energy per Si atom -5576.075024 kJ/mol
# Density = 1.569376 g / cm^3
# Si number density = 15.729562 Si / 1000 Ang^3
#
#
#
# Elastic Constant Matrix: (Units=GPa)
#
#
# Indices 1 2 3 4 5 6 
#
# 1 144.1398 92.7771 41.8071 0.0000 0.0000 0.0000
# 2 92.7771 144.1398 41.8071 0.0000 0.0000 0.0000
# 3 41.8071 41.8071 24.5155 0.0000 0.0000 0.0000
# 4 0.0000 0.0000 0.0000 25.0410 0.0000 0.0000
# 5 0.0000 0.0000 0.0000 0.0000 25.0410 0.0000
# 6 0.0000 0.0000 0.0000 0.0000 0.0000 25.6813
#
#
#
# Elastic Compliance Matrix: (Units=1/GPa)
#
#
# Indices 1 2 3 4 5 6 
#
# 1 0.015035 -0.004434 -0.018079 0.000000 0.000000 0.000000
# 2 -0.004434 0.015035 -0.018079 0.000000 0.000000 0.000000
# 3 -0.018079 -0.018079 0.102452 0.000000 0.000000 0.000000
# 4 0.000000 0.000000 0.000000 0.039934 0.000000 0.000000
# 5 0.000000 0.000000 0.000000 0.000000 0.039934 0.000000
# 6 0.000000 0.000000 0.000000 0.000000 0.000000 0.038939
#
#
# Mechanical properties :
#
#
# Convention : Reuss Voigt Hill
#
# Bulk Modulus (GPa) = 19.47841 73.95307 46.71574
# Shear Modulus (GPa) = 14.30093 24.24627 19.27360
#
# Velocity S-wave (km/s) = 3.01852 3.93038 3.50424
# Velocity P-wave (km/s) = 4.95569 8.22889 6.79240
#
# Compressibility (1/GPa) = 0.05133890
#
# Stress axis : x y z
#
# Youngs Moduli (GPa) = 66.50961 66.50961 9.76066
#
# Poissons Ratio (x) = 0.29490 0.17646
# Poissons Ratio (y) = 0.29490 0.17646
# Poissons Ratio (z) = 1.20243 1.20243
#
# Static dielectric constant tensor:
#      x y z
#    x 1.506740 0.000000 0.000000 
#    y 0.000000 1.506740 0.000000 
#    z 0.000000 0.000000 1.527490 
# 
# From -- ./inp_files/1241.got.cif
#   From: 2010.05.17/outbox.cif.g08.bks.cpg/sg189_1_cif.got.tgz:1241.got - 2010.05.20 12:14:34.
