data_PCOD9586492
_publ_section_title
;
Structure prediction by ZEFSAII (Michael W. Deem and Ramdas Pophale) SiO2 
 PCOD9586492
Probable space group: P -6 2 M
;
_chemical_formula_sum "Si O2"
_cell_formula_units_Z 72
_cell_length_a 14.911146
_cell_length_b 14.911146
_cell_length_c 17.765566
_cell_angle_alpha 90.000000
_cell_angle_beta 90.000000
_cell_angle_gamma 120.000000
_cell_volume 3420.831835
_symmetry_space_group_name_H-M "P -6 2 M"
_symmetry_group_IT_number 189
_symmetry_cell_setting 'hexagonal'
loop_
_space_group_symop_operation_xyz
x,y,z
-x+y,-x,-z
-y,x-y,z
x,y,-z
-x+y,-x,z
-y,x-y,-z
x-y,-y,-z
-x,-x+y,-z
y,x,-z
y,x,z
x-y,-y,z
-x,-x+y,z
loop_
_atom_site_type_symbol
_atom_site_label
_atom_site_fract_x
_atom_site_fract_y
_atom_site_fract_z
Si Si1 0.876160 0.298486 0.199315
Si Si2 0.621717 0.500282 0.362169
Si Si3 0.438926 0.876036 0.919606
Si Si4 0.121887 0.775726 0.085762
Si Si5 0.115268 0.886426 0.408727
Si Si6 0.284622 0.454598 0.414358
O O1 0.850815 0.314768 0.283971
O O2 0.834449 0.358879 0.147491
O O3 0.840732 0.190957 0.156214
O O4 0.000000 0.359554 0.198334
O O5 0.578019 0.578019 0.380235
O O6 0.523461 0.384899 0.364038
O O7 0.706863 0.500809 0.417027
O O8 0.540382 0.866907 0.912375
O O9 0.484351 0.000000 0.921544
O O10 0.387610 0.831643 0.000000
O O11 0.000000 0.736047 0.094169
O O12 0.153228 0.820611 0.000000
O O13 0.123822 0.888854 0.500000
O O14 0.127265 0.789540 0.385520
O O15 0.000000 0.861115 0.390136
O O16 0.199755 0.000000 0.380344
O O17 0.319574 0.451510 0.500000
#
# Coordination Sequence:
#
# PCOD9586492 Si02
#       6
#    12  12  12  12  12  12
#     4  10  21  36  57  85 119 159 201 247 306 364
#     4  11  25  42  61  89 121 156 206 264 321 387
#     4   8  15  30  52  79 113 151 190 232 281 342
#     4   9  18  34  58  88 123 164 207 249 296 353
#     4   9  17  31  55  87 117 144 181 236 305 378
#     4  11  23  40  62  84 113 160 208 257 324 393
#
# _framework density 21.047512000000001
#
# number of rings (size 3 to 8) (size 9 to 14) (size 15 to 20)
#    0.000    2.333    0.000    3.500    2.333    4.333 
#    1.000    0.833    0.000    0.333    0.000    0.000 
#    0.000    0.000    0.000    0.000    0.000    0.000 
#
# Total GULP energy -401389.774388 kJ/mol
# GULP energy per Si atom -5574.857978 kJ/mol
# Density = 2.099961 g / cm^3
# Si number density = 21.047512 Si / 1000 Ang^3
#
#
#
# Elastic Constant Matrix: (Units=GPa)
#
#
# Indices 1 2 3 4 5 6 
#
# 1 76.0612 18.7815 31.2099 0.0000 0.0000 0.0000
# 2 18.7815 76.0612 31.2099 0.0000 0.0000 0.0000
# 3 31.2099 31.2099 104.2197 0.0000 0.0000 0.0000
# 4 0.0000 0.0000 0.0000 -6.8006 0.0000 0.0000
# 5 0.0000 0.0000 0.0000 0.0000 -6.8006 0.0000
# 6 0.0000 0.0000 0.0000 0.0000 0.0000 28.6398
#
#
#
# Elastic Compliance Matrix: (Units=1/GPa)
#
#
# Indices 1 2 3 4 5 6 
#
# 1 0.015295 -0.002163 -0.003933 0.000000 0.000000 0.000000
# 2 -0.002163 0.015295 -0.003933 0.000000 0.000000 0.000000
# 3 -0.003933 -0.003933 0.011950 0.000000 0.000000 0.000000
# 4 0.000000 0.000000 0.000000 -0.147046 0.000000 0.000000
# 5 0.000000 0.000000 0.000000 0.000000 -0.147046 0.000000
# 6 0.000000 0.000000 0.000000 0.000000 0.000000 0.034916
#
#
# Mechanical properties :
#
#
# Convention : Reuss Voigt Hill
#
# Bulk Modulus (GPa) = 44.47571 46.52716 45.50143
# Shear Modulus (GPa) = -26.44328 14.68378 -5.87975
#
# Velocity S-wave (km/s) = -3.54836 2.64417 -1.67321
# Velocity P-wave (km/s) = 2.09502 5.61034 4.23468
#
# Compressibility (1/GPa) = 0.02248418
#
# Stress axis : x y z
#
# Youngs Moduli (GPa) = 65.38056 65.38056 83.67917
#
# Poissons Ratio (x) = 0.14143 0.32907
# Poissons Ratio (y) = 0.14143 0.32907
# Poissons Ratio (z) = 0.25711 0.25711
#
# Static dielectric constant tensor:
#      x y z
#    x 1.769220 0.000000 0.000000 
#    y 0.000000 1.769220 0.000000 
#    z 0.000000 0.000000 1.842460 
# 
# From -- ./inp_files/3111.got.cif
#   From: 2010.05.17/outbox.cif.g08.bks.cpg/sg189_2_cif.got.tgz:3111.got - 2010.05.20 12:14:34.
