data_PCOD9586705
_publ_section_title
;
Structure prediction by ZEFSAII (Michael W. Deem and Ramdas Pophale) SiO2 
 PCOD9586705
Probable space group: P -6 2 C
;
_chemical_formula_sum "Si O2"
_cell_formula_units_Z 78
_cell_length_a 24.328214
_cell_length_b 24.328214
_cell_length_c 7.880828
_cell_angle_alpha 90.000000
_cell_angle_beta 90.000000
_cell_angle_gamma 120.000000
_cell_volume 4039.456499
_symmetry_space_group_name_H-M "P -6 2 C"
_symmetry_group_IT_number 190
_symmetry_cell_setting 'hexagonal'
loop_
_space_group_symop_operation_xyz
x,y,z
-x+y,-x,1/2-z
-y,x-y,z
x,y,1/2-z
-x+y,-x,z
-y,x-y,1/2-z
x-y,-y,-z
-x,-x+y,-z
y,x,-z
y,x,1/2+z
x-y,-y,1/2+z
-x,-x+y,1/2+z
loop_
_atom_site_type_symbol
_atom_site_label
_atom_site_fract_x
_atom_site_fract_y
_atom_site_fract_z
Si Si1 0.929382 0.619552 0.546406
Si Si2 0.068871 0.816073 0.454306
Si Si3 0.410743 0.733413 0.250000
Si Si4 0.073351 0.270221 0.448750
Si Si5 0.508894 0.073937 0.454010
Si Si6 0.481013 0.828362 0.949584
Si Si7 0.925608 0.314811 0.452244
O O1 0.923230 0.614159 0.750000
O O2 0.927345 0.681883 0.487268
O O3 0.871793 0.556841 0.467287
O O4 0.000000 0.633103 0.500000
O O5 0.072482 0.815881 0.250000
O O6 0.128226 0.879666 0.524606
O O7 0.000000 0.804110 0.500000
O O8 0.387924 0.658318 0.250000
O O9 0.449965 0.770222 0.418040
O O10 0.072787 0.261701 0.250000
O O11 0.100803 0.345079 0.481200
O O12 0.000000 0.230770 0.500000
O O13 0.508349 0.075334 0.250000
O O14 0.580050 0.122674 0.506332
O O15 0.459531 0.095944 0.516558
O O16 0.481230 0.000000 0.500000
O O17 0.464785 0.810566 0.750000
O O18 0.919573 0.310463 0.250000
O O19 0.000000 0.350887 0.500000
#
# Coordination Sequence:
#
# PCOD9586705 Si02
#       7
#    12  12   6  12  12  12  12
#     4  10  19  35  58  90 127 157 189 238 298 369
#     4   9  20  36  55  81 116 150 186 232 287 343
#     4  10  26  50  66  82 110 156 208 260 314 352
#     4  10  19  33  51  77 106 146 187 227 274 327
#     4   9  19  31  50  83 118 150 184 229 286 345
#     4  11  22  40  64  91 117 151 202 249 306 369
#     4   9  16  29  45  69 106 142 178 222 270 326
#
# _framework density 19.309529000000001
#
# number of rings (size 3 to 8) (size 9 to 14) (size 15 to 20)
#    0.154    2.154    0.769    2.769    1.077    4.308 
#    2.769    0.000    0.000    0.308    0.000    0.000 
#    0.000    0.000    0.000    0.000    0.000    0.000 
#
# Total GULP energy -434774.039504 kJ/mol
# GULP energy per Si atom -5574.026147 kJ/mol
# Density = 1.926558 g / cm^3
# Si number density = 19.309529 Si / 1000 Ang^3
#
#
#
# Elastic Constant Matrix: (Units=GPa)
#
#
# Indices 1 2 3 4 5 6 
#
# 1 57.6754 20.1328 13.7705 0.0000 0.0000 0.0000
# 2 20.1328 57.6754 13.7705 0.0000 0.0000 0.0000
# 3 13.7705 13.7705 60.1706 0.0000 0.0000 0.0000
# 4 0.0000 0.0000 0.0000 18.9222 0.0000 0.0000
# 5 0.0000 0.0000 0.0000 0.0000 18.9222 0.0000
# 6 0.0000 0.0000 0.0000 0.0000 0.0000 18.7713
#
#
#
# Elastic Compliance Matrix: (Units=1/GPa)
#
#
# Indices 1 2 3 4 5 6 
#
# 1 0.020311 -0.006326 -0.003201 0.000000 0.000000 0.000000
# 2 -0.006326 0.020311 -0.003201 0.000000 0.000000 0.000000
# 3 -0.003201 -0.003201 0.018084 0.000000 0.000000 0.000000
# 4 0.000000 0.000000 0.000000 0.052848 0.000000 0.000000
# 5 0.000000 0.000000 0.000000 0.000000 0.052848 0.000000
# 6 0.000000 0.000000 0.000000 0.000000 0.000000 0.053273
#
#
# Mechanical properties :
#
#
# Convention : Reuss Voigt Hill
#
# Bulk Modulus (GPa) = 30.07330 30.09653 30.08491
# Shear Modulus (GPa) = 19.66862 19.84633 19.75748
#
# Velocity S-wave (km/s) = 3.19501 3.20941 3.20222
# Velocity P-wave (km/s) = 5.40545 5.41793 5.41169
#
# Compressibility (1/GPa) = 0.03325209
#
# Stress axis : x y z
#
# Youngs Moduli (GPa) = 49.23512 49.23512 55.29644
#
# Poissons Ratio (x) = 0.31145 0.17698
# Poissons Ratio (y) = 0.31145 0.17698
# Poissons Ratio (z) = 0.15758 0.15758
#
# Static dielectric constant tensor:
#      x y z
#    x 1.709250 0.000000 0.000000 
#    y 0.000000 1.709250 0.000000 
#    z 0.000000 0.000000 1.684530 
# 
# From -- ./inp_files/1343.got.cif
#   From: 2010.05.17/outbox.cif.g08.bks.cpg/sg190_1_cif.got.tgz:1343.got - 2010.05.20 12:16:56.
