data_PCOD9586020
_publ_section_title
;
Structure prediction by ZEFSAII (Michael W. Deem and Ramdas Pophale) SiO2 
 PCOD9586020
Probable space group: P -6 C 2
;
_chemical_formula_sum "Si O2"
_cell_formula_units_Z 60
_cell_length_a 15.499314
_cell_length_b 15.499314
_cell_length_c 15.912768
_cell_angle_alpha 90.000000
_cell_angle_beta 90.000000
_cell_angle_gamma 120.000000
_cell_volume 3310.558878
_symmetry_space_group_name_H-M "P -6 C 2"
_symmetry_group_IT_number 188
_symmetry_cell_setting 'hexagonal'
loop_
_space_group_symop_operation_xyz
x,y,z
-x+y,-x,1/2-z
-y,x-y,z
x,y,1/2-z
-x+y,-x,z
-y,x-y,1/2-z
-y,-x,-z
-x+y,y,-z
x,x-y,-z
-x+y,y,1/2+z
x,x-y,1/2+z
-y,-x,1/2+z
loop_
_atom_site_type_symbol
_atom_site_label
_atom_site_fract_x
_atom_site_fract_y
_atom_site_fract_z
Si Si1 0.072454 0.723903 0.344818
Si Si2 0.603086 0.206171 0.649039
Si Si3 0.489760 0.979520 0.098003
Si Si4 0.651449 0.723903 0.344818
Si Si5 0.795042 0.794451 0.000000
O O1 0.039195 0.728842 0.250000
O O2 0.061756 0.617102 0.359543
O O3 0.185988 0.814012 0.353569
O O4 0.010864 0.741333 0.417203
O O5 0.720515 0.279485 0.628451
O O6 0.595907 0.191814 0.750000
O O7 0.549854 0.099709 0.606928
O O8 0.382898 0.938244 0.140457
O O9 0.476423 0.952845 0.000000
O O10 0.689647 0.728842 0.250000
O O11 0.730468 0.741332 0.417203
O O12 0.897351 0.794701 0.000000
O O13 0.813148 0.906574 0.000000
#
# Coordination Sequence:
#
# PCOD9586020 Si02
#       5
#    12  12  12  12  12
#     4  10  22  41  62  86 121 158 200 251 297 357
#     4   8  18  36  54  78 116 157 199 246 287 344
#     4  12  22  36  62  87 121 162 199 249 310 356
#     4  10  22  41  62  86 121 158 200 251 297 357
#     4  10  21  39  62  90 122 154 198 245 301 354
#
# _framework density 18.123828
#
# number of rings (size 3 to 8) (size 9 to 14) (size 15 to 20)
#    0.400    1.600    2.000    2.000    0.000    3.200 
#    1.200    0.000    0.000    2.400    0.000    0.000 
#    0.000    0.000    0.000    0.000    0.000    0.000 
#
# Total GULP energy -334722.228657 kJ/mol
# GULP energy per Si atom -5578.703811 kJ/mol
# Density = 1.808258 g / cm^3
# Si number density = 18.123828 Si / 1000 Ang^3
#
#
#
# Elastic Constant Matrix: (Units=GPa)
#
#
# Indices 1 2 3 4 5 6 
#
# 1 70.4224 63.1912 54.8533 0.0000 0.0000 0.0000
# 2 63.1912 70.4224 54.8533 0.0000 0.0000 0.0000
# 3 54.8533 54.8533 144.8690 0.0000 0.0000 0.0000
# 4 0.0000 0.0000 0.0000 29.7512 0.0000 0.0000
# 5 0.0000 0.0000 0.0000 0.0000 29.7512 0.0000
# 6 0.0000 0.0000 0.0000 0.0000 0.0000 3.6156
#
#
#
# Elastic Compliance Matrix: (Units=1/GPa)
#
#
# Indices 1 2 3 4 5 6 
#
# 1 0.074575 -0.063715 -0.004112 0.000000 0.000000 0.000000
# 2 -0.063715 0.074575 -0.004112 0.000000 0.000000 0.000000
# 3 -0.004112 -0.004112 0.010017 0.000000 0.000000 0.000000
# 4 0.000000 0.000000 0.000000 0.033612 0.000000 0.000000
# 5 0.000000 0.000000 0.000000 0.000000 0.033612 0.000000
# 6 0.000000 0.000000 0.000000 0.000000 0.000000 0.276580
#
#
# Mechanical properties :
#
#
# Convention : Reuss Voigt Hill
#
# Bulk Modulus (GPa) = 65.40554 70.16773 67.78663
# Shear Modulus (GPa) = 7.66934 20.14467 13.90701
#
# Velocity S-wave (km/s) = 2.05933 3.33754 2.77308
# Velocity P-wave (km/s) = 6.46691 7.32475 6.90916
#
# Compressibility (1/GPa) = 0.01528922
#
# Stress axis : x y z
#
# Youngs Moduli (GPa) = 13.40926 13.40926 99.83033
#
# Poissons Ratio (x) = 0.85436 0.41054
# Poissons Ratio (y) = 0.85436 0.41054
# Poissons Ratio (z) = 0.05514 0.05514
#
# Static dielectric constant tensor:
#      x y z
#    x 1.596540 0.000000 0.000000 
#    y 0.000000 1.596540 0.000000 
#    z 0.000000 0.000000 1.641700 
# 
# From -- ./inp_files/2270.got.cif
#   From: 2010.05.17/outbox.cif.g08.bks.cpg/sg188_2_cif.got.tgz:2270.got - 2010.05.20 12:11:46.
