data_PCOD9586288
_publ_section_title
;
Structure prediction by ZEFSAII (Michael W. Deem and Ramdas Pophale) SiO2 
 PCOD9586288
Probable space group: P -6 2 M
;
_chemical_formula_sum "Si O2"
_cell_formula_units_Z 60
_cell_length_a 21.326924
_cell_length_b 21.326924
_cell_length_c 8.467786
_cell_angle_alpha 90.000000
_cell_angle_beta 90.000000
_cell_angle_gamma 120.000000
_cell_volume 3335.469304
_symmetry_space_group_name_H-M "P -6 2 M"
_symmetry_group_IT_number 189
_symmetry_cell_setting 'hexagonal'
loop_
_space_group_symop_operation_xyz
x,y,z
-x+y,-x,-z
-y,x-y,z
x,y,-z
-x+y,-x,z
-y,x-y,-z
x-y,-y,-z
-x,-x+y,-z
y,x,-z
y,x,z
x-y,-y,z
-x,-x+y,z
loop_
_atom_site_type_symbol
_atom_site_label
_atom_site_fract_x
_atom_site_fract_y
_atom_site_fract_z
Si Si1 0.082049 0.702250 0.692241
Si Si2 0.817455 0.456139 0.688282
Si Si3 0.854948 0.213753 0.689808
Si Si4 0.000000 0.221386 0.810110
Si Si5 0.693228 0.482577 0.186667
Si Si6 0.921231 0.921231 0.808640
O O1 0.080708 0.702010 0.500000
O O2 0.119015 0.654844 0.738659
O O3 0.137684 0.784724 0.740414
O O4 0.000000 0.668358 0.748872
O O5 0.821465 0.450048 0.500000
O O6 0.819123 0.389725 0.769100
O O7 0.742989 0.454694 0.730441
O O8 0.855537 0.216587 0.500000
O O9 0.840631 0.276298 0.754441
O O10 0.928442 0.220500 0.751028
O O11 0.000000 0.149227 0.750000
O O12 0.000000 0.220748 0.000000
O O13 0.703414 0.482389 0.000000
O O14 0.932031 0.000000 0.763150
O O15 0.918142 0.918142 0.000000
#
# Coordination Sequence:
#
# PCOD9586288 Si02
#       6
#    12  12  12   6  12   6
#     4   8  16  33  56  81 106 136 177 224 271 324
#     4  10  19  33  55  80 110 144 183 226 279 338
#     4  10  21  37  56  78 109 147 185 224 277 342
#     4  11  21  35  57  83 111 144 185 230 275 327
#     4  11  21  35  54  79 111 145 188 235 280 323
#     4   7  14  31  53  79 111 144 177 218 271 335
#
# _framework density 17.988472999999999
#
# number of rings (size 3 to 8) (size 9 to 14) (size 15 to 20)
#    0.200    2.200    0.000    4.900    0.000    0.800 
#    1.800    0.000    0.000   22.200    0.000    0.000 
#    0.000    0.000    0.000    0.000    0.000    0.000 
#
# Total GULP energy -334648.513038 kJ/mol
# GULP energy per Si atom -5577.475217 kJ/mol
# Density = 1.794753 g / cm^3
# Si number density = 17.988473 Si / 1000 Ang^3
#
#
#
# Elastic Constant Matrix: (Units=GPa)
#
#
# Indices 1 2 3 4 5 6 
#
# 1 120.2685 86.0695 -2.3465 0.0000 0.0000 0.0000
# 2 86.0695 120.2685 -2.3465 0.0000 0.0000 0.0000
# 3 -2.3465 -2.3465 19.6876 0.0000 0.0000 0.0000
# 4 0.0000 0.0000 0.0000 12.1238 0.0000 0.0000
# 5 0.0000 0.0000 0.0000 0.0000 12.1238 0.0000
# 6 0.0000 0.0000 0.0000 0.0000 0.0000 17.0995
#
#
#
# Elastic Compliance Matrix: (Units=1/GPa)
#
#
# Indices 1 2 3 4 5 6 
#
# 1 0.017050 -0.012191 0.000579 0.000000 0.000000 0.000000
# 2 -0.012191 0.017050 0.000579 0.000000 0.000000 0.000000
# 3 0.000579 0.000579 0.050931 0.000000 0.000000 0.000000
# 4 0.000000 0.000000 0.000000 0.082483 0.000000 0.000000
# 5 0.000000 0.000000 0.000000 0.000000 0.082483 0.000000
# 6 0.000000 0.000000 0.000000 0.000000 0.000000 0.058481
#
#
# Mechanical properties :
#
#
# Convention : Reuss Voigt Hill
#
# Bulk Modulus (GPa) = 15.88122 46.99749 31.43935
# Shear Modulus (GPa) = 14.22348 20.19261 17.20805
#
# Velocity S-wave (km/s) = 2.81499 3.35405 3.09627
# Velocity P-wave (km/s) = 4.40605 6.41738 5.50436
#
# Compressibility (1/GPa) = 0.06296747
#
# Stress axis : x y z
#
# Youngs Moduli (GPa) = 58.65066 58.65066 19.63422
#
# Poissons Ratio (x) = 0.71498 -0.01137
# Poissons Ratio (y) = 0.71498 -0.01137
# Poissons Ratio (z) = -0.03397 -0.03397
#
# Static dielectric constant tensor:
#      x y z
#    x 1.604680 0.000000 0.000000 
#    y 0.000000 1.604680 0.000000 
#    z 0.000000 0.000000 1.603750 
# 
# From -- ./inp_files/971.got.cif
#   From: 2010.05.17/outbox.cif.g08.bks.cpg/sg189_1_cif.got.tgz:971.got - 2010.05.20 12:14:34.
