data_PCOD9586641
_publ_section_title
;
Structure prediction by ZEFSAII (Michael W. Deem and Ramdas Pophale) SiO2 
 PCOD9586641
Probable space group: P -6 2 C
;
_chemical_formula_sum "Si O2"
_cell_formula_units_Z 84
_cell_length_a 25.145660
_cell_length_b 25.145660
_cell_length_c 8.852202
_cell_angle_alpha 90.000000
_cell_angle_beta 90.000000
_cell_angle_gamma 120.000000
_cell_volume 4847.390702
_symmetry_space_group_name_H-M "P -6 2 C"
_symmetry_group_IT_number 190
_symmetry_cell_setting 'hexagonal'
loop_
_space_group_symop_operation_xyz
x,y,z
-x+y,-x,1/2-z
-y,x-y,z
x,y,1/2-z
-x+y,-x,z
-y,x-y,1/2-z
x-y,-y,-z
-x,-x+y,-z
y,x,-z
y,x,1/2+z
x-y,-y,1/2+z
-x,-x+y,1/2+z
loop_
_atom_site_type_symbol
_atom_site_label
_atom_site_fract_x
_atom_site_fract_y
_atom_site_fract_z
Si Si1 0.434821 0.803991 0.934409
Si Si2 0.063362 0.605697 0.570298
Si Si3 0.266431 0.067483 0.567061
Si Si4 0.094287 0.731938 0.072081
Si Si5 0.062620 0.836046 0.068502
Si Si6 0.833535 0.235838 0.572010
Si Si7 0.469123 0.701812 0.931958
O O1 0.435804 0.804014 0.750000
O O2 0.482938 0.873433 0.982949
O O3 0.454998 0.755067 0.984187
O O4 0.365481 0.782161 0.982212
O O5 0.059985 0.599487 0.750000
O O6 0.000000 0.553285 0.500000
O O7 0.070376 0.670941 0.523690
O O8 0.265750 0.065483 0.750000
O O9 0.232320 0.105293 0.521322
O O10 0.338015 0.108427 0.520698
O O11 0.233892 0.000000 0.500000
O O12 0.080770 0.716349 0.250000
O O13 0.068309 0.776439 0.026682
O O14 0.167679 0.774573 0.055352
O O15 0.059806 0.836900 0.250000
O O16 0.000000 0.826910 0.000000
O O17 0.841009 0.250314 0.750000
O O18 0.818249 0.282077 0.486541
O O19 0.468444 0.702283 0.750000
#
# Coordination Sequence:
#
# PCOD9586641 Si02
#       7
#    12  12  12  12  12  12  12
#     4   9  19  33  53  78 102 128 171 220 261 304
#     4  11  21  33  48  73 103 136 171 204 248 309
#     4   9  19  35  53  75 105 138 175 218 263 308
#     4   9  17  31  50  73 103 136 162 198 249 301
#     4   9  18  31  48  74 105 134 166 206 254 304
#     4   9  18  33  52  76 106 134 164 211 267 309
#     4  10  18  34  56  77 100 133 174 219 263 309
#
# _framework density 17.32891
#
# number of rings (size 3 to 8) (size 9 to 14) (size 15 to 20)
#    0.000    2.571    1.429    2.857    0.000    4.000 
#    0.000    5.714    0.000    3.714    0.000    0.000 
#    0.000    0.000    0.000    0.000    0.000    0.000 
#
# Total GULP energy -468331.421547 kJ/mol
# GULP energy per Si atom -5575.374066 kJ/mol
# Density = 1.728947 g / cm^3
# Si number density = 17.328910 Si / 1000 Ang^3
#
#
#
# Elastic Constant Matrix: (Units=GPa)
#
#
# Indices 1 2 3 4 5 6 
#
# 1 120.2634 85.2572 26.9305 0.0000 0.0000 0.0000
# 2 85.2572 120.2634 26.9305 0.0000 0.0000 0.0000
# 3 26.9305 26.9305 11.8889 0.0000 0.0000 0.0000
# 4 0.0000 0.0000 0.0000 24.2833 0.0000 0.0000
# 5 0.0000 0.0000 0.0000 0.0000 24.2833 0.0000
# 6 0.0000 0.0000 0.0000 0.0000 0.0000 17.5031
#
#
#
# Elastic Compliance Matrix: (Units=1/GPa)
#
#
# Indices 1 2 3 4 5 6 
#
# 1 0.020270 -0.008296 -0.027123 0.000000 0.000000 0.000000
# 2 -0.008296 0.020270 -0.027123 0.000000 0.000000 0.000000
# 3 -0.027123 -0.027123 0.206988 0.000000 0.000000 0.000000
# 4 0.000000 0.000000 0.000000 0.041181 0.000000 0.000000
# 5 0.000000 0.000000 0.000000 0.000000 0.041181 0.000000
# 6 0.000000 0.000000 0.000000 0.000000 0.000000 0.057133
#
#
# Mechanical properties :
#
#
# Convention : Reuss Voigt Hill
#
# Bulk Modulus (GPa) = 8.16696 58.96133 33.56414
# Shear Modulus (GPa) = 9.04288 20.76708 14.90498
#
# Velocity S-wave (km/s) = 2.28686 3.46556 2.93597
# Velocity P-wave (km/s) = 3.41995 7.07899 5.55915
#
# Compressibility (1/GPa) = 0.12244465
#
# Stress axis : x y z
#
# Youngs Moduli (GPa) = 49.33378 49.33378 4.83119
#
# Poissons Ratio (x) = 0.40929 0.13104
# Poissons Ratio (y) = 0.40929 0.13104
# Poissons Ratio (z) = 1.33807 1.33807
#
# Static dielectric constant tensor:
#      x y z
#    x 1.589910 0.000000 0.000000 
#    y 0.000000 1.589910 0.000000 
#    z 0.000000 0.000000 1.586070 
# 
# From -- ./inp_files/2103.got.cif
#   From: 2010.05.17/outbox.cif.g08.bks.cpg/sg190_2_cif.got.tgz:2103.got - 2010.05.20 12:16:56.
