data_PCOD9586244
_publ_section_title
;
Structure prediction by ZEFSAII (Michael W. Deem and Ramdas Pophale) SiO2 
 PCOD9586244
Probable space group: P -6 2 M
;
_chemical_formula_sum "Si O2"
_cell_formula_units_Z 72
_cell_length_a 24.368448
_cell_length_b 24.368448
_cell_length_c 8.217772
_cell_angle_alpha 90.000000
_cell_angle_beta 90.000000
_cell_angle_gamma 120.000000
_cell_volume 4226.106721
_symmetry_space_group_name_H-M "P -6 2 M"
_symmetry_group_IT_number 189
_symmetry_cell_setting 'hexagonal'
loop_
_space_group_symop_operation_xyz
x,y,z
-x+y,-x,-z
-y,x-y,z
x,y,-z
-x+y,-x,z
-y,x-y,-z
x-y,-y,-z
-x,-x+y,-z
y,x,-z
y,x,z
x-y,-y,z
-x,-x+y,z
loop_
_atom_site_type_symbol
_atom_site_label
_atom_site_fract_x
_atom_site_fract_y
_atom_site_fract_z
Si Si1 0.928091 0.263395 0.303541
Si Si2 0.479992 0.145247 0.693163
Si Si3 0.478743 0.266238 0.196648
Si Si4 0.719627 0.000000 0.198875
Si Si5 0.467386 0.873456 0.195890
Si Si6 0.192174 0.331633 0.803847
Si Si7 0.000000 0.591969 0.198928
O O1 0.929094 0.265709 0.500000
O O2 0.900067 0.308071 0.244175
O O3 0.877292 0.191907 0.253970
O O4 0.000000 0.290707 0.246181
O O5 0.477558 0.138756 0.500000
O O6 0.497528 0.216280 0.738582
O O7 0.532657 0.130159 0.756447
O O8 0.522593 0.338359 0.252020
O O9 0.405162 0.239546 0.244928
O O10 0.479921 0.264841 0.000000
O O11 0.711597 0.932985 0.252803
O O12 0.655510 0.000000 0.247167
O O13 0.720974 0.000000 0.000000
O O14 0.528698 0.937711 0.253549
O O15 0.470001 0.873665 0.000000
O O16 0.191575 0.330669 0.000000
O O17 0.000000 0.592218 0.000000
#
# Coordination Sequence:
#
# PCOD9586244 Si02
#       7
#    12  12  12   6  12  12   6
#     4   9  19  35  50  65  94 134 165 192 232 276
#     4  10  21  34  49  67  91 124 161 202 246 289
#     4   9  17  32  51  68  89 119 156 197 239 286
#     4   9  14  26  49  77 105 127 145 178 235 288
#     4  10  19  32  51  73  95 121 157 199 242 290
#     4   9  16  28  50  76  99 122 152 188 228 278
#     4   9  16  28  49  75  99 123 151 188 237 292
#
# _framework density 17.036957000000001
#
# number of rings (size 3 to 8) (size 9 to 14) (size 15 to 20)
#    0.000    2.667    1.667    0.500    1.167    1.667 
#    1.000    0.417    0.000    1.000    0.000    0.000 
#    0.833    0.000    0.500    0.000    0.667    0.000 
#
# Total GULP energy -401332.511333 kJ/mol
# GULP energy per Si atom -5574.062657 kJ/mol
# Density = 1.699818 g / cm^3
# Si number density = 17.036957 Si / 1000 Ang^3
#
#
#
# Elastic Constant Matrix: (Units=GPa)
#
#
# Indices 1 2 3 4 5 6 
#
# 1 126.0049 84.7530 10.6440 0.0000 0.0000 0.0000
# 2 84.7530 126.0049 10.6440 0.0000 0.0000 0.0000
# 3 10.6440 10.6440 4.5381 0.0000 0.0000 0.0000
# 4 0.0000 0.0000 0.0000 10.5561 0.0000 0.0000
# 5 0.0000 0.0000 0.0000 0.0000 10.5561 0.0000
# 6 0.0000 0.0000 0.0000 0.0000 0.0000 20.6260
#
#
#
# Elastic Compliance Matrix: (Units=1/GPa)
#
#
# Indices 1 2 3 4 5 6 
#
# 1 0.015230 -0.009012 -0.014584 0.000000 0.000000 0.000000
# 2 -0.009012 0.015230 -0.014584 0.000000 0.000000 0.000000
# 3 -0.014584 -0.014584 0.288765 0.000000 0.000000 0.000000
# 4 0.000000 0.000000 0.000000 0.094732 0.000000 0.000000
# 5 0.000000 0.000000 0.000000 0.000000 0.094732 0.000000
# 6 0.000000 0.000000 0.000000 0.000000 0.000000 0.048483
#
#
# Mechanical properties :
#
#
# Convention : Reuss Voigt Hill
#
# Bulk Modulus (GPa) = 4.11750 52.06999 28.09374
# Shear Modulus (GPa) = 6.99806 18.38143 12.68975
#
# Velocity S-wave (km/s) = 2.02891 3.28825 2.73213
# Velocity P-wave (km/s) = 2.81260 6.71164 5.14572
#
# Compressibility (1/GPa) = 0.24286595
#
# Stress axis : x y z
#
# Youngs Moduli (GPa) = 65.66180 65.66180 3.46303
#
# Poissons Ratio (x) = 0.59173 0.05050
# Poissons Ratio (y) = 0.59173 0.05050
# Poissons Ratio (z) = 0.95759 0.95759
#
# Static dielectric constant tensor:
#      x y z
#    x 1.573180 0.000000 0.000000 
#    y 0.000000 1.573180 0.000000 
#    z 0.000000 0.000000 1.602290 
# 
# From -- ./inp_files/1317.got.cif
#   From: 2010.05.17/outbox.cif.g08.bks.cpg/sg189_1_cif.got.tgz:1317.got - 2010.05.20 12:14:34.
