data_PCOD9586531
_publ_section_title
;
Structure prediction by ZEFSAII (Michael W. Deem and Ramdas Pophale) SiO2 
 PCOD9586531
Probable space group: P -6 2 M
;
_chemical_formula_sum "Si O2"
_cell_formula_units_Z 96
_cell_length_a 14.929594
_cell_length_b 14.929594
_cell_length_c 26.436545
_cell_angle_alpha 90.000000
_cell_angle_beta 90.000000
_cell_angle_gamma 120.000000
_cell_volume 5103.067621
_symmetry_space_group_name_H-M "P -6 2 M"
_symmetry_group_IT_number 189
_symmetry_cell_setting 'hexagonal'
loop_
_space_group_symop_operation_xyz
x,y,z
-x+y,-x,-z
-y,x-y,z
x,y,-z
-x+y,-x,z
-y,x-y,-z
x-y,-y,-z
-x,-x+y,-z
y,x,-z
y,x,z
x-y,-y,z
-x,-x+y,z
loop_
_atom_site_type_symbol
_atom_site_label
_atom_site_fract_x
_atom_site_fract_y
_atom_site_fract_z
Si Si1 0.181923 0.747737 0.660184
Si Si2 0.242488 0.120194 0.733157
Si Si3 0.343374 0.218356 0.164894
Si Si4 0.125180 0.579862 0.188971
Si Si5 0.467338 0.756974 0.441735
Si Si6 0.527222 0.120113 0.702470
Si Si7 0.819425 0.582065 0.054816
Si Si8 0.530811 0.119882 0.078801
O O1 0.138671 0.811054 0.690834
O O2 0.182254 0.738027 0.599374
O O3 0.128434 0.631919 0.681678
O O4 0.303327 0.806412 0.673358
O O5 0.161913 0.161913 0.736140
O O6 0.294254 0.137461 0.789235
O O7 0.186891 0.000000 0.720143
O O8 0.279229 0.279229 0.163710
O O9 0.458866 0.301250 0.182858
O O10 0.350961 0.191840 0.106207
O O11 0.159935 0.551757 0.240006
O O12 0.151844 0.543775 0.137609
O O13 0.000000 0.519174 0.191587
O O14 0.368920 0.775558 0.434947
O O15 0.501033 0.779386 0.500000
O O16 0.437986 0.000000 0.701028
O O17 0.868820 0.508323 0.062275
O O18 0.696696 0.505628 0.052700
O O19 0.853745 0.636086 0.000000
O O20 0.445690 0.000000 0.073170
#
# Coordination Sequence:
#
# PCOD9586531 Si02
#       8
#    12  12  12  12  12  12  12  12
#     4  12  20  34  57  90 121 160 197 231 283 348
#     4  11  24  42  63  85 112 149 198 254 308 358
#     4   9  19  37  56  77 103 137 181 234 295 353
#     4   8  16  32  50  73 106 143 175 215 272 334
#     4   8  15  31  54  83 125 171 203 229 266 324
#     4  11  21  32  51  83 121 150 183 230 281 338
#     4  11  22  35  54  79 107 146 192 231 279 343
#     4  10  22  37  54  75 108 148 187 229 271 327
#
# _framework density 18.812213
#
# number of rings (size 3 to 8) (size 9 to 14) (size 15 to 20)
#    0.250    1.750    2.500    2.875    1.750    2.250 
#    0.000    0.000    0.000    3.750    0.000    0.000 
#    0.000    2.000    0.000    0.000    0.000    0.000 
#
# Total GULP energy -535339.292750 kJ/mol
# GULP energy per Si atom -5576.450966 kJ/mol
# Density = 1.876940 g / cm^3
# Si number density = 18.812213 Si / 1000 Ang^3
#
#
#
# Elastic Constant Matrix: (Units=GPa)
#
#
# Indices 1 2 3 4 5 6 
#
# 1 46.7083 10.1169 15.0134 0.0000 0.0000 0.0000
# 2 10.1169 46.7083 15.0134 0.0000 0.0000 0.0000
# 3 15.0134 15.0134 144.7764 0.0000 0.0000 0.0000
# 4 0.0000 0.0000 0.0000 0.7588 0.0000 0.0000
# 5 0.0000 0.0000 0.0000 0.0000 0.7588 0.0000
# 6 0.0000 0.0000 0.0000 0.0000 0.0000 18.2957
#
#
#
# Elastic Compliance Matrix: (Units=1/GPa)
#
#
# Indices 1 2 3 4 5 6 
#
# 1 0.022973 -0.004355 -0.001931 0.000000 0.000000 0.000000
# 2 -0.004355 0.022973 -0.001931 0.000000 0.000000 0.000000
# 3 -0.001931 -0.001931 0.007308 0.000000 0.000000 0.000000
# 4 0.000000 0.000000 0.000000 1.317811 0.000000 0.000000
# 5 0.000000 0.000000 0.000000 0.000000 1.317810 0.000000
# 6 0.000000 0.000000 0.000000 0.000000 0.000000 0.054658
#
#
# Mechanical properties :
#
#
# Convention : Reuss Voigt Hill
#
# Bulk Modulus (GPa) = 27.15849 35.38669 31.27259
# Shear Modulus (GPa) = 1.80360 17.16597 9.48478
#
# Velocity S-wave (km/s) = 0.98021 3.02402 2.24784
# Velocity P-wave (km/s) = 3.96851 5.57174 4.83701
#
# Compressibility (1/GPa) = 0.03682090
#
# Stress axis : x y z
#
# Youngs Moduli (GPa) = 43.52859 43.52859 136.84321
#
# Poissons Ratio (x) = 0.18958 0.26420
# Poissons Ratio (y) = 0.18958 0.26420
# Poissons Ratio (z) = 0.08404 0.08404
#
# Static dielectric constant tensor:
#      x y z
#    x 1.638770 0.000000 0.000000 
#    y 0.000000 1.638770 0.000000 
#    z 0.000000 0.000000 1.720210 
# 
# From -- ./inp_files/3707.got.cif
#   From: 2010.05.17/outbox.cif.g08.bks.cpg/sg189_2_cif.got.tgz:3707.got - 2010.05.20 12:14:34.
