data_PCOD9586878
_publ_section_title
;
Structure prediction by ZEFSAII (Michael W. Deem and Ramdas Pophale) SiO2 
 PCOD9586878
Probable space group: P -6 2 C
;
_chemical_formula_sum "Si O2"
_cell_formula_units_Z 70
_cell_length_a 15.170083
_cell_length_b 15.170083
_cell_length_c 17.654682
_cell_angle_alpha 90.000000
_cell_angle_beta 90.000000
_cell_angle_gamma 120.000000
_cell_volume 3518.572021
_symmetry_space_group_name_H-M "P -6 2 C"
_symmetry_group_IT_number 190
_symmetry_cell_setting 'hexagonal'
loop_
_space_group_symop_operation_xyz
x,y,z
-x+y,-x,1/2-z
-y,x-y,z
x,y,1/2-z
-x+y,-x,z
-y,x-y,1/2-z
x-y,-y,-z
-x,-x+y,-z
y,x,-z
y,x,1/2+z
x-y,-y,1/2+z
-x,-x+y,1/2+z
loop_
_atom_site_type_symbol
_atom_site_label
_atom_site_fract_x
_atom_site_fract_y
_atom_site_fract_z
Si Si1 0.328964 0.384761 0.836868
Si Si2 0.212985 0.433880 0.550572
Si Si3 0.049192 0.315250 0.162297
Si Si4 0.504393 0.125729 0.165287
Si Si5 0.333335 0.666668 0.338001
Si Si6 0.000000 0.264947 0.000000
Si Si7 0.175292 0.720206 0.112403
O O1 0.294401 0.364292 0.750000
O O2 0.238841 0.366869 0.892979
O O3 0.414197 0.503638 0.844370
O O4 0.383803 0.322410 0.859429
O O5 0.207416 0.516638 0.602861
O O6 0.284026 0.462464 0.478508
O O7 0.101953 0.369895 0.513907
O O8 0.042902 0.277598 0.250000
O O9 0.165332 0.403978 0.146680
O O10 0.970122 0.358442 0.159713
O O11 0.020972 0.240201 0.087471
O O12 0.515085 0.168329 0.250000
O O13 0.333334 0.666668 0.250000
O O14 0.428718 0.772332 0.362860
#
# Coordination Sequence:
#
# PCOD9586878 Si02
#       7
#    12  12  12  12   4   6  12
#     4  11  22  37  58  83 119 156 195 252 306 351
#     4  10  21  38  57  81 113 152 197 251 296 352
#     4   9  16  32  55  77 111 152 197 245 287 342
#     4   9  19  36  58  81 111 158 206 245 294 356
#     4  12  24  36  51  75 115 164 205 231 279 354
#     4   8  18  34  54  82 106 140 196 242 290 364
#     4  11  23  36  54  85 120 160 202 248 292 348
#
# _framework density 19.894435000000001
#
# number of rings (size 3 to 8) (size 9 to 14) (size 15 to 20)
#    0.000    2.057    0.000    3.600    2.400    2.057 
#   10.286    0.000    0.000    0.000    0.000    0.000 
#  138.857    0.000   40.114    0.000    0.000    0.000 
#
# Total GULP energy -389702.762412 kJ/mol
# GULP energy per Si atom -5567.182320 kJ/mol
# Density = 1.984915 g / cm^3
# Si number density = 19.894435 Si / 1000 Ang^3
#
#
#
# Elastic Constant Matrix: (Units=GPa)
#
#
# Indices 1 2 3 4 5 6 
#
# 1 30.3167 12.0913 24.2497 0.0000 0.0000 0.0000
# 2 12.0913 30.3173 24.2496 0.0000 0.0000 0.0001
# 3 24.2497 24.2496 182.8160 0.0001 -0.0001 -0.0001
# 4 0.0000 0.0000 0.0001 21.6658 0.0000 0.0000
# 5 0.0000 0.0000 -0.0001 0.0000 21.6656 0.0000
# 6 0.0000 0.0001 -0.0001 0.0000 0.0000 9.1130
#
#
#
# Elastic Compliance Matrix: (Units=1/GPa)
#
#
# Indices 1 2 3 4 5 6 
#
# 1 0.041333 -0.013535 -0.003687 0.000000 0.000000 0.000000
# 2 -0.013535 0.041332 -0.003687 0.000000 0.000000 0.000000
# 3 -0.003687 -0.003687 0.006448 0.000000 0.000000 0.000000
# 4 0.000000 0.000000 0.000000 0.046156 0.000000 0.000000
# 5 0.000000 0.000000 0.000000 0.000000 0.046156 0.000000
# 6 0.000000 0.000000 0.000000 0.000000 0.000000 0.109733
#
#
# Mechanical properties :
#
#
# Convention : Reuss Voigt Hill
#
# Bulk Modulus (GPa) = 21.14451 40.51458 30.82955
# Shear Modulus (GPa) = 14.33726 22.67950 18.50838
#
# Velocity S-wave (km/s) = 2.68744 3.38004 3.05344
# Velocity P-wave (km/s) = 4.50346 5.97008 5.28787
#
# Compressibility (1/GPa) = 0.04729361
#
# Stress axis : x y z
#
# Youngs Moduli (GPa) = 24.19386 24.19446 155.08332
#
# Poissons Ratio (x) = 0.32748 0.57183
# Poissons Ratio (y) = 0.32747 0.57180
# Poissons Ratio (z) = 0.08921 0.08921
#
# Static dielectric constant tensor:
#      x y z
#    x 1.696170 0.000000 0.000000 
#    y 0.000000 1.696170 0.000000 
#    z 0.000000 0.000000 1.796650 
# 
# From -- ./inp_files/3793.got.cif
#   From: 2010.05.17/outbox.cif.g08.bks.cpg/sg190_2_cif.got.tgz:3793.got - 2010.05.20 12:16:56.
