data_PCOD9586409
_publ_section_title
;
Structure prediction by ZEFSAII (Michael W. Deem and Ramdas Pophale) SiO2 
 PCOD9586409
Probable space group: P -6 2 M
;
_chemical_formula_sum "Si O2"
_cell_formula_units_Z 84
_cell_length_a 18.736057
_cell_length_b 18.736057
_cell_length_c 14.254615
_cell_angle_alpha 90.000000
_cell_angle_beta 90.000000
_cell_angle_gamma 120.000000
_cell_volume 4333.537127
_symmetry_space_group_name_H-M "P -6 2 M"
_symmetry_group_IT_number 189
_symmetry_cell_setting 'hexagonal'
loop_
_space_group_symop_operation_xyz
x,y,z
-x+y,-x,-z
-y,x-y,z
x,y,-z
-x+y,-x,z
-y,x-y,-z
x-y,-y,-z
-x,-x+y,-z
y,x,-z
y,x,z
x-y,-y,z
-x,-x+y,z
loop_
_atom_site_type_symbol
_atom_site_label
_atom_site_fract_x
_atom_site_fract_y
_atom_site_fract_z
Si Si1 0.532485 0.446734 0.894413
Si Si2 0.725099 0.901660 0.108134
Si Si3 0.091775 0.289133 0.713360
Si Si4 0.475820 0.900601 0.388075
Si Si5 0.665306 0.527168 0.251338
Si Si6 0.265889 0.361747 0.612874
Si Si7 0.471206 0.261371 0.107770
O O1 0.447123 0.447123 0.884409
O O2 0.596191 0.510714 0.823704
O O3 0.521416 0.358415 0.879024
O O4 0.561249 0.472057 0.000000
O O5 0.742479 0.851187 0.187566
O O6 0.625680 0.858823 0.113663
O O7 0.771834 0.000000 0.126420
O O8 0.744307 0.890331 0.000000
O O9 0.096526 0.377268 0.723601
O O10 0.173805 0.315971 0.652259
O O11 0.000000 0.224111 0.678176
O O12 0.465281 0.888405 0.500000
O O13 0.387957 0.855891 0.336379
O O14 0.543893 0.875403 0.356679
O O15 0.519519 0.000000 0.371551
O O16 0.725597 0.507139 0.190697
O O17 0.263038 0.364199 0.500000
O O18 0.309006 0.309006 0.639594
O O19 0.485111 0.242011 0.000000
#
# Coordination Sequence:
#
# PCOD9586409 Si02
#       7
#    12  12  12  12  12  12  12
#     4  10  20  35  56  80 108 151 204 247 284 336
#     4   9  18  34  57  83 113 155 205 250 289 335
#     4  11  23  36  55  91 127 156 190 236 303 365
#     4   9  19  37  61  85 110 146 194 243 285 333
#     4  11  22  35  55  83 117 156 193 234 292 354
#     4   9  20  41  68  92 112 144 193 245 294 347
#     4   9  19  35  53  81 117 150 191 248 301 343
#
# _framework density 19.383703000000001
#
# number of rings (size 3 to 8) (size 9 to 14) (size 15 to 20)
#    0.000    2.286    0.000    3.429    4.000    3.429 
#    0.857    0.000    0.000    2.286    0.000    0.000 
#    0.000    0.000    0.000    0.000    0.000    0.000 
#
# Total GULP energy -468156.603619 kJ/mol
# GULP energy per Si atom -5573.292900 kJ/mol
# Density = 1.933958 g / cm^3
# Si number density = 19.383703 Si / 1000 Ang^3
#
#
#
# Elastic Constant Matrix: (Units=GPa)
#
#
# Indices 1 2 3 4 5 6 
#
# 1 86.7330 48.7719 47.3268 0.0000 0.0000 0.0000
# 2 48.7719 86.7330 47.3268 0.0000 0.0000 0.0000
# 3 47.3268 47.3268 78.4705 0.0000 0.0000 0.0000
# 4 0.0000 0.0000 0.0000 41.1603 0.0000 0.0000
# 5 0.0000 0.0000 0.0000 0.0000 41.1603 0.0000
# 6 0.0000 0.0000 0.0000 0.0000 0.0000 18.9805
#
#
#
# Elastic Compliance Matrix: (Units=1/GPa)
#
#
# Indices 1 2 3 4 5 6 
#
# 1 0.019547 -0.006795 -0.007691 0.000000 0.000000 0.000000
# 2 -0.006795 0.019547 -0.007691 0.000000 0.000000 0.000000
# 3 -0.007691 -0.007691 0.022021 0.000000 0.000000 0.000000
# 4 0.000000 0.000000 0.000000 0.024295 0.000000 0.000000
# 5 0.000000 0.000000 0.000000 0.000000 0.024295 0.000000
# 6 0.000000 0.000000 0.000000 0.000000 0.000000 0.052686
#
#
# Mechanical properties :
#
#
# Convention : Reuss Voigt Hill
#
# Bulk Modulus (GPa) = 59.66222 59.86526 59.76374
# Shear Modulus (GPa) = 23.54784 27.49430 25.52107
#
# Velocity S-wave (km/s) = 3.48922 3.77028 3.63247
# Velocity P-wave (km/s) = 6.86143 7.06433 6.96362
#
# Compressibility (1/GPa) = 0.01676102
#
# Stress axis : x y z
#
# Youngs Moduli (GPa) = 51.15746 51.15746 45.41155
#
# Poissons Ratio (x) = 0.34763 0.34926
# Poissons Ratio (y) = 0.34763 0.34926
# Poissons Ratio (z) = 0.39345 0.39345
#
# Static dielectric constant tensor:
#      x y z
#    x 1.697550 0.000000 0.000000 
#    y 0.000000 1.697550 0.000000 
#    z 0.000000 0.000000 1.743860 
# 
# From -- ./inp_files/2788.got.cif
#   From: 2010.05.17/outbox.cif.g08.bks.cpg/sg189_2_cif.got.tgz:2788.got - 2010.05.20 12:14:34.
