data_PCOD9586429
_publ_section_title
;
Structure prediction by ZEFSAII (Michael W. Deem and Ramdas Pophale) SiO2 
 PCOD9586429
Probable space group: P -6 2 M
;
_chemical_formula_sum "Si O2"
_cell_formula_units_Z 72
_cell_length_a 23.939389
_cell_length_b 23.939389
_cell_length_c 8.856739
_cell_angle_alpha 90.000000
_cell_angle_beta 90.000000
_cell_angle_gamma 120.000000
_cell_volume 4395.725882
_symmetry_space_group_name_H-M "P -6 2 M"
_symmetry_group_IT_number 189
_symmetry_cell_setting 'hexagonal'
loop_
_space_group_symop_operation_xyz
x,y,z
-x+y,-x,-z
-y,x-y,z
x,y,-z
-x+y,-x,z
-y,x-y,-z
x-y,-y,-z
-x,-x+y,-z
y,x,-z
y,x,z
x-y,-y,z
-x,-x+y,z
loop_
_atom_site_type_symbol
_atom_site_label
_atom_site_fract_x
_atom_site_fract_y
_atom_site_fract_z
Si Si1 0.478258 0.328981 0.180358
Si Si2 0.000000 0.283967 0.820833
Si Si3 0.482301 0.210545 0.319936
Si Si4 0.407792 0.000000 0.320031
Si Si5 0.803247 0.670271 0.319854
Si Si6 0.470870 0.594602 0.180134
Si Si7 0.661170 0.926042 0.318143
O O1 0.495498 0.278898 0.258341
O O2 0.532545 0.401964 0.214129
O O3 0.407876 0.310493 0.241884
O O4 0.475078 0.319880 0.000000
O O5 0.000000 0.345969 0.749490
O O6 0.934264 0.222496 0.763940
O O7 0.000000 0.288189 0.000000
O O8 0.491151 0.212614 0.500000
O O9 0.406063 0.161074 0.289120
O O10 0.524173 0.184692 0.237730
O O11 0.403057 0.000000 0.500000
O O12 0.472081 0.062470 0.263130
O O13 0.802038 0.679408 0.500000
O O14 0.873989 0.682754 0.276557
O O15 0.481105 0.597663 0.000000
O O16 0.651713 0.920983 0.500000
O O17 0.711052 0.000000 0.280364
#
# Coordination Sequence:
#
# PCOD9586429 Si02
#       7
#    12   6  12   6  12  12  12
#     4  10  22  37  54  76 104 138 175 220 271 323
#     4  12  22  32  52  80 110 142 174 211 258 317
#     4  10  20  36  57  76  98 132 175 221 269 322
#     4  12  24  36  54  78 106 140 176 221 272 325
#     4   9  18  33  53  77 107 137 170 210 256 309
#     4  11  23  38  55  77 106 138 176 224 275 328
#     4   9  19  36  57  80 106 140 178 216 258 307
#
# _framework density 16.379549000000001
#
# number of rings (size 3 to 8) (size 9 to 14) (size 15 to 20)
#    0.000    1.833    1.667    4.000    1.167    5.667 
#    1.000    0.000    0.000    0.000    0.000    0.000 
#    0.833    0.000    1.500    0.000    0.500    0.000 
#
# Total GULP energy -402034.680614 kJ/mol
# GULP energy per Si atom -5583.815009 kJ/mol
# Density = 1.634227 g / cm^3
# Si number density = 16.379549 Si / 1000 Ang^3
#
#
#
# Elastic Constant Matrix: (Units=GPa)
#
#
# Indices 1 2 3 4 5 6 
#
# 1 103.1798 68.4040 50.4334 0.0000 0.0000 0.0000
# 2 68.4040 103.1798 50.4334 0.0000 0.0000 0.0000
# 3 50.4334 50.4334 62.7305 0.0000 0.0000 0.0000
# 4 0.0000 0.0000 0.0000 21.9761 0.0000 0.0000
# 5 0.0000 0.0000 0.0000 0.0000 21.9761 0.0000
# 6 0.0000 0.0000 0.0000 0.0000 0.0000 17.3879
#
#
#
# Elastic Compliance Matrix: (Units=1/GPa)
#
#
# Indices 1 2 3 4 5 6 
#
# 1 0.019903 -0.008852 -0.008885 0.000000 0.000000 0.000000
# 2 -0.008852 0.019903 -0.008885 0.000000 0.000000 0.000000
# 3 -0.008885 -0.008885 0.030227 0.000000 0.000000 0.000000
# 4 0.000000 0.000000 0.000000 0.045504 0.000000 0.000000
# 5 0.000000 0.000000 0.000000 0.000000 0.045504 0.000000
# 6 0.000000 0.000000 0.000000 0.000000 0.000000 0.057511
#
#
# Mechanical properties :
#
#
# Convention : Reuss Voigt Hill
#
# Bulk Modulus (GPa) = 59.55735 67.51463 63.53599
# Shear Modulus (GPa) = 18.02498 18.92266 18.47382
#
# Velocity S-wave (km/s) = 3.32091 3.40260 3.36200
# Velocity P-wave (km/s) = 7.15153 7.53295 7.34471
#
# Compressibility (1/GPa) = 0.01679054
#
# Stress axis : x y z
#
# Youngs Moduli (GPa) = 50.24294 50.24294 33.08287
#
# Poissons Ratio (x) = 0.44477 0.29393
# Poissons Ratio (y) = 0.44477 0.29393
# Poissons Ratio (z) = 0.44639 0.44639
#
# Static dielectric constant tensor:
#      x y z
#    x 1.544280 0.000000 0.000000 
#    y 0.000000 1.544280 0.000000 
#    z 0.000000 0.000000 1.542740 
# 
# From -- ./inp_files/1366.got.cif
#   From: 2010.05.17/outbox.cif.g08.bks.cpg/sg189_1_cif.got.tgz:1366.got - 2010.05.20 12:14:34.
