data_PCOD9586001
_publ_section_title
;
Structure prediction by ZEFSAII (Michael W. Deem and Ramdas Pophale) SiO2 
 PCOD9586001
Probable space group: P -6 C 2
;
_chemical_formula_sum "Si O2"
_cell_formula_units_Z 76
_cell_length_a 17.812217
_cell_length_b 17.812217
_cell_length_c 13.619588
_cell_angle_alpha 90.000000
_cell_angle_beta 90.000000
_cell_angle_gamma 120.000000
_cell_volume 3742.230694
_symmetry_space_group_name_H-M "P -6 C 2"
_symmetry_group_IT_number 188
_symmetry_cell_setting 'hexagonal'
loop_
_space_group_symop_operation_xyz
x,y,z
-x+y,-x,1/2-z
-y,x-y,z
x,y,1/2-z
-x+y,-x,z
-y,x-y,1/2-z
-y,-x,-z
-x+y,y,-z
x,x-y,-z
-x+y,y,1/2+z
x,x-y,1/2+z
-y,-x,1/2+z
loop_
_atom_site_type_symbol
_atom_site_label
_atom_site_fract_x
_atom_site_fract_y
_atom_site_fract_z
Si Si1 0.530221 0.816738 0.635304
Si Si2 0.353785 0.255275 0.367233
Si Si3 0.879888 0.578827 0.867810
Si Si4 0.666668 0.333335 0.632190
Si Si5 0.139017 0.621443 0.135226
Si Si6 0.847881 0.391553 0.631404
Si Si7 0.643919 0.958044 0.998311
O O1 0.554900 0.834902 0.750000
O O2 0.485716 0.713327 0.622971
O O3 0.458499 0.845460 0.615300
O O4 0.612311 0.870229 0.564921
O O5 0.337815 0.251101 0.250000
O O6 0.378246 0.180375 0.391434
O O7 0.443838 0.342649 0.393875
O O8 0.286514 0.273131 0.429094
O O9 0.876137 0.573074 0.750000
O O10 0.862991 0.484028 0.902669
O O11 0.974182 0.639355 0.910807
O O12 0.666667 0.333334 0.750000
O O13 0.748528 0.326335 0.603390
O O14 0.112119 0.614275 0.250000
O O15 0.071606 0.630295 0.066080
O O16 0.853412 0.397130 0.750000
#
# Coordination Sequence:
#
# PCOD9586001 Si02
#       7
#    12  12  12   4  12  12  12
#     4  10  22  40  60  81 107 141 181 228 286 352
#     4  10  21  35  50  70 102 144 186 231 280 323
#     4  10  21  35  50  70 102 144 186 231 280 323
#     4   9  12  24  45  61  77 118 181 233 268 301
#     4  10  22  40  60  81 107 141 181 228 286 352
#     4   9  16  27  45  63  84 125 179 226 267 305
#     4  12  23  34  51  79 104 134 175 232 279 326
#
# _framework density 20.308741999999999
#
# number of rings (size 3 to 8) (size 9 to 14) (size 15 to 20)
#    0.000    1.895    1.579    2.684    4.421    1.263 
#    0.000    1.579    0.000    0.000    0.000    0.000 
#    0.000    0.000    0.000   30.316    0.000  227.368 
#
# Total GULP energy -423309.366986 kJ/mol
# GULP energy per Si atom -5569.860092 kJ/mol
# Density = 2.026252 g / cm^3
# Si number density = 20.308742 Si / 1000 Ang^3
#
#
#
# Elastic Constant Matrix: (Units=GPa)
#
#
# Indices 1 2 3 4 5 6 
#
# 1 54.6101 29.9275 25.7921 0.0000 0.0000 0.0000
# 2 29.9275 54.6098 25.7923 0.0000 0.0000 -0.0002
# 3 25.7921 25.7923 69.8352 0.0000 0.0001 -0.0001
# 4 0.0000 0.0000 0.0000 31.8990 -0.0001 0.0000
# 5 0.0000 0.0000 0.0001 -0.0001 31.8990 0.0000
# 6 0.0000 -0.0002 -0.0001 0.0000 0.0000 12.3411
#
#
#
# Elastic Compliance Matrix: (Units=1/GPa)
#
#
# Indices 1 2 3 4 5 6 
#
# 1 0.027892 -0.012622 -0.005640 0.000000 0.000000 0.000000
# 2 -0.012622 0.027893 -0.005640 0.000000 0.000000 0.000000
# 3 -0.005640 -0.005640 0.018485 0.000000 0.000000 0.000000
# 4 0.000000 0.000000 0.000000 0.031349 0.000000 0.000000
# 5 0.000000 0.000000 0.000000 0.000000 0.031349 0.000000
# 6 0.000000 0.000000 0.000000 0.000000 0.000000 0.081030
#
#
# Mechanical properties :
#
#
# Convention : Reuss Voigt Hill
#
# Bulk Modulus (GPa) = 37.78295 38.00876 37.89585
# Shear Modulus (GPa) = 18.20669 21.73069 19.96869
#
# Velocity S-wave (km/s) = 2.99740 3.27466 3.13909
# Velocity P-wave (km/s) = 5.53389 5.74926 5.64260
#
# Compressibility (1/GPa) = 0.02646696
#
# Stress axis : x y z
#
# Youngs Moduli (GPa) = 35.85205 35.85167 54.09693
#
# Poissons Ratio (x) = 0.45252 0.30509
# Poissons Ratio (y) = 0.45253 0.30510
# Poissons Ratio (z) = 0.20220 0.20220
#
# Static dielectric constant tensor:
#      x y z
#    x 1.739940 0.000000 0.000000 
#    y 0.000000 1.739940 0.000000 
#    z 0.000000 0.000000 1.829690 
# 
# From -- ./inp_files/2517.got.cif
#   From: 2010.05.17/outbox.cif.g08.bks.cpg/sg188_2_cif.got.tgz:2517.got - 2010.05.20 12:11:46.
