data_PCOD9586876
_publ_section_title
;
Structure prediction by ZEFSAII (Michael W. Deem and Ramdas Pophale) SiO2 
 PCOD9586876
Probable space group: P -6 2 C
;
_chemical_formula_sum "Si O2"
_cell_formula_units_Z 84
_cell_length_a 16.548704
_cell_length_b 16.548704
_cell_length_c 14.861014
_cell_angle_alpha 90.000000
_cell_angle_beta 90.000000
_cell_angle_gamma 120.000000
_cell_volume 3524.577390
_symmetry_space_group_name_H-M "P -6 2 C"
_symmetry_group_IT_number 190
_symmetry_cell_setting 'hexagonal'
loop_
_space_group_symop_operation_xyz
x,y,z
-x+y,-x,1/2-z
-y,x-y,z
x,y,1/2-z
-x+y,-x,z
-y,x-y,1/2-z
x-y,-y,-z
-x,-x+y,-z
y,x,-z
y,x,1/2+z
x-y,-y,1/2+z
-x,-x+y,1/2+z
loop_
_atom_site_type_symbol
_atom_site_label
_atom_site_fract_x
_atom_site_fract_y
_atom_site_fract_z
Si Si1 0.167615 0.304792 0.150010
Si Si2 0.391908 0.027089 0.105200
Si Si3 0.239754 0.762732 0.646581
Si Si4 0.284393 0.229232 0.091957
Si Si5 0.587810 0.442257 0.850822
Si Si6 0.222113 0.731947 0.048820
Si Si7 0.172940 0.968871 0.646359
O O1 0.155955 0.337847 0.250000
O O2 0.248867 0.280674 0.157198
O O3 0.190976 0.381801 0.072046
O O4 0.075943 0.205632 0.128070
O O5 0.463773 0.134125 0.130239
O O6 0.411788 0.950967 0.148832
O O7 0.296394 0.021512 0.136062
O O8 0.381826 0.000000 0.000000
O O9 0.241574 0.733468 0.750000
O O10 0.142668 0.763460 0.629625
O O11 0.237882 0.712258 0.553604
O O12 0.216565 0.117088 0.087996
O O13 0.277860 0.277860 0.000000
O O14 0.580631 0.408208 0.750000
O O15 0.505157 0.362801 0.908413
O O16 0.681827 0.456650 0.896956
O O17 0.142263 0.946392 0.750000
#
# Coordination Sequence:
#
# PCOD9586876 Si02
#       7
#    12  12  12  12  12  12  12
#     4  11  21  40  65  94 138 186 238 293 364 437
#     4  11  20  39  70 102 137 185 243 294 348 436
#     4  11  23  45  71  98 142 197 243 294 361 437
#     4  11  22  38  62  97 135 179 237 296 351 420
#     4  12  24  43  71 108 147 183 237 308 385 448
#     4  12  25  45  70 107 143 188 239 305 381 455
#     4  10  21  37  63  95 134 184 236 286 351 431
#
# _framework density 23.832646
#
# number of rings (size 3 to 8) (size 9 to 14) (size 15 to 20)
#    0.000    0.857    4.286    5.000    2.000    0.000 
#    3.429    0.714    0.000    0.000    0.000    0.000 
#    0.000    0.000    0.000    0.000    0.000    0.000 
#
# Total GULP energy -468697.629656 kJ/mol
# GULP energy per Si atom -5579.733686 kJ/mol
# Density = 2.377840 g / cm^3
# Si number density = 23.832646 Si / 1000 Ang^3
#
#
#
# Elastic Constant Matrix: (Units=GPa)
#
#
# Indices 1 2 3 4 5 6 
#
# 1 54.1990 8.3233 8.9874 0.0000 0.0000 0.0000
# 2 8.3233 54.1990 8.9874 0.0000 0.0000 0.0000
# 3 8.9874 8.9874 189.6938 0.0000 0.0000 0.0000
# 4 0.0000 0.0000 0.0000 34.1723 0.0000 0.0000
# 5 0.0000 0.0000 0.0000 0.0000 34.1723 0.0000
# 6 0.0000 0.0000 0.0000 0.0000 0.0000 22.9378
#
#
#
# Elastic Compliance Matrix: (Units=1/GPa)
#
#
# Indices 1 2 3 4 5 6 
#
# 1 0.019007 -0.002791 -0.000768 0.000000 0.000000 0.000000
# 2 -0.002791 0.019007 -0.000768 0.000000 0.000000 0.000000
# 3 -0.000768 -0.000768 0.005344 0.000000 0.000000 0.000000
# 4 0.000000 0.000000 0.000000 0.029263 0.000000 0.000000
# 5 0.000000 0.000000 0.000000 0.000000 0.029263 0.000000
# 6 0.000000 0.000000 0.000000 0.000000 0.000000 0.043596
#
#
# Mechanical properties :
#
#
# Convention : Reuss Voigt Hill
#
# Bulk Modulus (GPa) = 28.81699 38.96534 33.89116
# Shear Modulus (GPa) = 30.17431 36.37605 33.27518
#
# Velocity S-wave (km/s) = 3.56208 3.91104 3.74063
# Velocity P-wave (km/s) = 5.38846 6.06466 5.73653
#
# Compressibility (1/GPa) = 0.03470176
#
# Stress axis : x y z
#
# Youngs Moduli (GPa) = 52.61329 52.61329 187.10998
#
# Poissons Ratio (x) = 0.14687 0.14375
# Poissons Ratio (y) = 0.14687 0.14375
# Poissons Ratio (z) = 0.04042 0.04042
#
# Static dielectric constant tensor:
#      x y z
#    x 1.995200 0.000000 0.000000 
#    y 0.000000 1.995200 0.000000 
#    z 0.000000 0.000000 1.965220 
# 
# From -- ./inp_files/3186.got.cif
#   From: 2010.05.17/outbox.cif.g08.bks.cpg/sg190_2_cif.got.tgz:3186.got - 2010.05.20 12:16:56.
