data_PCOD9586926
_publ_section_title
;
Structure prediction by ZEFSAII (Michael W. Deem and Ramdas Pophale) SiO2 
 PCOD9586926
Probable space group: P -6 2 C
;
_chemical_formula_sum "Si O2"
_cell_formula_units_Z 84
_cell_length_a 18.037167
_cell_length_b 18.037167
_cell_length_c 15.105638
_cell_angle_alpha 90.000000
_cell_angle_beta 90.000000
_cell_angle_gamma 120.000000
_cell_volume 4256.046430
_symmetry_space_group_name_H-M "P -6 2 C"
_symmetry_group_IT_number 190
_symmetry_cell_setting 'hexagonal'
loop_
_space_group_symop_operation_xyz
x,y,z
-x+y,-x,1/2-z
-y,x-y,z
x,y,1/2-z
-x+y,-x,z
-y,x-y,1/2-z
x-y,-y,-z
-x,-x+y,-z
y,x,-z
y,x,1/2+z
x-y,-y,1/2+z
-x,-x+y,1/2+z
loop_
_atom_site_type_symbol
_atom_site_label
_atom_site_fract_x
_atom_site_fract_y
_atom_site_fract_z
Si Si1 0.182419 0.182419 0.500000
Si Si2 0.766560 0.857553 0.857731
Si Si3 0.375449 0.901910 0.024047
Si Si4 0.297089 0.556635 0.750000
Si Si5 0.570311 0.786964 0.909136
Si Si6 0.681351 0.920534 0.344236
Si Si7 0.456940 0.363095 0.544497
Si Si8 0.933421 0.257981 0.653587
O O1 0.107832 0.177825 0.566661
O O2 0.216214 0.257067 0.427386
O O3 0.788602 0.875745 0.750000
O O4 0.667582 0.832509 0.873245
O O5 0.765880 0.769273 0.881179
O O6 0.441480 0.869900 0.048626
O O7 0.319719 0.911295 0.100246
O O8 0.307237 0.848649 0.947751
O O9 0.436824 0.000000 0.000000
O O10 0.242605 0.606316 0.750000
O O11 0.273090 0.496263 0.665893
O O12 0.562626 0.843608 0.986102
O O13 0.717871 0.965616 0.250000
O O14 0.591965 0.915802 0.363941
O O15 0.671649 0.827958 0.338736
O O16 0.409685 0.409685 0.500000
O O17 0.967692 0.296648 0.750000
#
# Coordination Sequence:
#
# PCOD9586926 Si02
#       8
#     6  12  12   6  12  12  12  12
#     4  12  22  38  62  94 132 160 208 254 328 398
#     4  11  22  38  67  98 130 170 217 271 331 395
#     4  11  22  37  62  90 125 167 218 267 330 386
#     4  10  24  40  56  86 122 166 218 272 340 400
#     4  12  20  39  61  86 126 170 215 271 331 400
#     4  11  22  40  64  90 127 168 216 270 325 393
#     4  11  23  39  58  92 125 164 212 266 326 389
#     4  10  22  41  65  95 123 165 219 268 320 388
#
# _framework density 19.736626999999999
#
# number of rings (size 3 to 8) (size 9 to 14) (size 15 to 20)
#    0.143    0.857    5.714    1.286    0.000    0.571 
#    2.143    0.000    0.000    2.286    0.000    4.000 
#    0.000    0.000    0.000    0.000    0.000    0.000 
#
# Total GULP energy -467959.345829 kJ/mol
# GULP energy per Si atom -5570.944593 kJ/mol
# Density = 1.969171 g / cm^3
# Si number density = 19.736627 Si / 1000 Ang^3
#
#
#
# Elastic Constant Matrix: (Units=GPa)
#
#
# Indices 1 2 3 4 5 6 
#
# 1 60.3597 12.9455 17.7983 0.0000 0.0000 0.0000
# 2 12.9455 60.3597 17.7983 0.0000 0.0000 0.0000
# 3 17.7983 17.7983 107.8297 0.0000 0.0000 0.0000
# 4 0.0000 0.0000 0.0000 6.4006 0.0000 0.0000
# 5 0.0000 0.0000 0.0000 0.0000 6.4006 0.0000
# 6 0.0000 0.0000 0.0000 0.0000 0.0000 23.7071
#
#
#
# Elastic Compliance Matrix: (Units=1/GPa)
#
#
# Indices 1 2 3 4 5 6 
#
# 1 0.017960 -0.003130 -0.002448 0.000000 0.000000 0.000000
# 2 -0.003130 0.017960 -0.002448 0.000000 0.000000 0.000000
# 3 -0.002448 -0.002448 0.010082 0.000000 0.000000 0.000000
# 4 0.000000 0.000000 0.000000 0.156237 0.000000 0.000000
# 5 0.000000 0.000000 0.000000 0.000000 0.156237 0.000000
# 6 0.000000 0.000000 0.000000 0.000000 0.000000 0.042181
#
#
# Mechanical properties :
#
#
# Convention : Reuss Voigt Hill
#
# Bulk Modulus (GPa) = 33.38786 36.18149 34.78467
# Shear Modulus (GPa) = 11.71802 19.30211 15.51007
#
# Velocity S-wave (km/s) = 2.43928 3.13067 2.80635
# Velocity P-wave (km/s) = 4.98867 5.60714 5.30693
#
# Compressibility (1/GPa) = 0.02995101
#
# Stress axis : x y z
#
# Youngs Moduli (GPa) = 55.67776 55.67776 99.18687
#
# Poissons Ratio (x) = 0.17428 0.24280
# Poissons Ratio (y) = 0.17428 0.24280
# Poissons Ratio (z) = 0.13629 0.13629
#
# Static dielectric constant tensor:
#      x y z
#    x 1.728880 0.000000 0.000000 
#    y 0.000000 1.728880 0.000000 
#    z 0.000000 0.000000 1.492350 
# 
# From -- ./inp_files/3217.got.cif
#   From: 2010.05.17/outbox.cif.g08.bks.cpg/sg190_2_cif.got.tgz:3217.got - 2010.05.20 12:16:56.
