data_PCOD9586952
_publ_section_title
;
Structure prediction by ZEFSAII (Michael W. Deem and Ramdas Pophale) SiO2 
 PCOD9586952
Probable space group: P -6 2 C
;
_chemical_formula_sum "Si O2"
_cell_formula_units_Z 36
_cell_length_a 7.547687
_cell_length_b 7.547687
_cell_length_c 32.850436
_cell_angle_alpha 90.000000
_cell_angle_beta 90.000000
_cell_angle_gamma 120.000000
_cell_volume 1620.688436
_symmetry_space_group_name_H-M "P -6 2 C"
_symmetry_group_IT_number 190
_symmetry_cell_setting 'hexagonal'
loop_
_space_group_symop_operation_xyz
x,y,z
-x+y,-x,1/2-z
-y,x-y,z
x,y,1/2-z
-x+y,-x,z
-y,x-y,1/2-z
x-y,-y,-z
-x,-x+y,-z
y,x,-z
y,x,1/2+z
x-y,-y,1/2+z
-x,-x+y,1/2+z
loop_
_atom_site_type_symbol
_atom_site_label
_atom_site_fract_x
_atom_site_fract_y
_atom_site_fract_z
Si Si1 0.308668 0.424715 0.040036
Si Si2 0.461451 0.383411 0.205795
Si Si3 0.241615 0.217948 0.872181
O O1 0.514088 0.646807 0.038882
O O2 0.300744 0.326988 0.083343
O O3 0.302563 0.302563 0.000000
O O4 0.460853 0.166209 0.205182
O O5 0.379463 0.400939 0.250000
O O6 0.344616 0.382141 0.165470
O O7 0.019035 0.199770 0.869523
#
# Coordination Sequence:
#
# PCOD9586952 Si02
#       3
#    12  12  12
#     4  10  26  40  62  82 115 154 199 246 298 360
#     4   8  18  36  61  83 112 154 194 227 274 342
#     4  10  24  35  59  90 120 151 188 246 293 349
#
# _framework density 22.212783999999999
#
# number of rings (size 3 to 8) (size 9 to 14) (size 15 to 20)
#    2.000    0.667    0.000    0.000    9.333    1.333 
#    0.000    0.000    0.000    0.000    0.000    0.000 
#    0.000    0.000    0.000    0.000    0.000    0.000 
#
# Total GULP energy -200411.239977 kJ/mol
# GULP energy per Si atom -5566.978888 kJ/mol
# Density = 2.216223 g / cm^3
# Si number density = 22.212784 Si / 1000 Ang^3
#
#
#
# Elastic Constant Matrix: (Units=GPa)
#
#
# Indices 1 2 3 4 5 6 
#
# 1 27.4689 10.0984 35.9042 0.0000 0.0000 0.0000
# 2 10.0984 27.4689 35.9042 0.0000 0.0000 0.0000
# 3 35.9042 35.9042 236.9158 0.0000 0.0000 0.0000
# 4 0.0000 0.0000 0.0000 34.5339 0.0000 0.0000
# 5 0.0000 0.0000 0.0000 0.0000 34.5339 0.0000
# 6 0.0000 0.0000 0.0000 0.0000 0.0000 8.6853
#
#
#
# Elastic Compliance Matrix: (Units=1/GPa)
#
#
# Indices 1 2 3 4 5 6 
#
# 1 0.047522 -0.010047 -0.005679 0.000000 0.000000 0.000000
# 2 -0.010047 0.047522 -0.005679 0.000000 0.000000 0.000000
# 3 -0.005679 -0.005679 0.005942 0.000000 0.000000 0.000000
# 4 0.000000 0.000000 0.000000 0.028957 0.000000 0.000000
# 5 0.000000 0.000000 0.000000 0.000000 0.028957 0.000000
# 6 0.000000 0.000000 0.000000 0.000000 0.000000 0.115137
#
#
# Mechanical properties :
#
#
# Convention : Reuss Voigt Hill
#
# Bulk Modulus (GPa) = 17.18971 50.62969 33.90970
# Shear Modulus (GPa) = 14.87035 29.54707 22.20871
#
# Velocity S-wave (km/s) = 2.59018 3.65112 3.16542
# Velocity P-wave (km/s) = 4.08667 6.37313 5.35339
#
# Compressibility (1/GPa) = 0.05817434
#
# Stress axis : x y z
#
# Youngs Moduli (GPa) = 21.04307 21.04307 168.28633
#
# Poissons Ratio (x) = 0.21142 0.95573
# Poissons Ratio (y) = 0.21142 0.95573
# Poissons Ratio (z) = 0.11951 0.11951
#
# Static dielectric constant tensor:
#      x y z
#    x 1.868160 0.000000 0.000000 
#    y 0.000000 1.868160 0.000000 
#    z 0.000000 0.000000 1.779620 
# 
# From -- ./inp_files/4803.got.cif
#   From: 2010.05.17/outbox.cif.g08.bks.cpg/sg190_3_cif.got.tgz:4803.got - 2010.05.20 12:16:56.
