data_PCOD9586182
_publ_section_title
;
Structure prediction by ZEFSAII (Michael W. Deem and Ramdas Pophale) SiO2 
 PCOD9586182
Probable space group: P -6 2 M
;
_chemical_formula_sum "Si O2"
_cell_formula_units_Z 60
_cell_length_a 18.218856
_cell_length_b 18.218856
_cell_length_c 14.415583
_cell_angle_alpha 90.000000
_cell_angle_beta 90.000000
_cell_angle_gamma 120.000000
_cell_volume 4143.859759
_symmetry_space_group_name_H-M "P -6 2 M"
_symmetry_group_IT_number 189
_symmetry_cell_setting 'hexagonal'
loop_
_space_group_symop_operation_xyz
x,y,z
-x+y,-x,-z
-y,x-y,z
x,y,-z
-x+y,-x,z
-y,x-y,-z
x-y,-y,-z
-x,-x+y,-z
y,x,-z
y,x,z
x-y,-y,z
-x,-x+y,z
loop_
_atom_site_type_symbol
_atom_site_label
_atom_site_fract_x
_atom_site_fract_y
_atom_site_fract_z
Si Si1 0.349069 0.769286 0.608328
Si Si2 0.629773 0.097851 0.891629
Si Si3 0.388667 0.171226 0.110879
Si Si4 0.485841 0.099668 0.231417
Si Si5 0.806435 0.903634 0.112759
O O1 0.261596 0.679801 0.623657
O O2 0.352629 0.791806 0.500000
O O3 0.361914 0.841856 0.677899
O O4 0.727856 0.162924 0.873161
O O5 0.566766 0.112069 0.827346
O O6 0.606083 0.000000 0.879592
O O7 0.613088 0.107024 0.000000
O O8 0.433109 0.129313 0.167839
O O9 0.290566 0.131411 0.138764
O O10 0.391765 0.157395 0.000000
O O11 0.429447 0.000000 0.253031
O O12 0.865485 0.865485 0.142090
O O13 0.843975 0.000000 0.144932
O O14 0.807623 0.905822 0.000000
#
# Coordination Sequence:
#
# PCOD9586182 Si02
#       5
#    12  12  12  12  12
#     4   8  17  34  53  67  83 110 144 182 223 269
#     4   9  18  31  44  60  86 122 161 195 224 258
#     4  10  19  30  43  61  89 126 158 187 223 265
#     4  11  20  29  45  68  93 117 145 186 230 273
#     4   9  16  26  41  60  83 114 153 192 226 262
#
# _framework density 14.479253999999999
#
# number of rings (size 3 to 8) (size 9 to 14) (size 15 to 20)
#    0.400    2.200    0.000    3.200    0.000    5.600 
#    1.200    0.000    0.000    0.000    0.000    0.000 
#    0.000    0.000    0.000    0.400    0.000    4.200 
#
# Total GULP energy -334200.607861 kJ/mol
# GULP energy per Si atom -5570.010131 kJ/mol
# Density = 1.444630 g / cm^3
# Si number density = 14.479254 Si / 1000 Ang^3
#
#
#
# Elastic Constant Matrix: (Units=GPa)
#
#
# Indices 1 2 3 4 5 6 
#
# 1 95.2490 57.4564 54.4961 0.0000 0.0000 0.0000
# 2 57.4564 95.2490 54.4961 0.0000 0.0000 0.0000
# 3 54.4961 54.4961 62.9852 0.0000 0.0000 0.0000
# 4 0.0000 0.0000 0.0000 17.1500 0.0000 0.0000
# 5 0.0000 0.0000 0.0000 0.0000 17.1500 0.0000
# 6 0.0000 0.0000 0.0000 0.0000 0.0000 18.8963
#
#
#
# Elastic Compliance Matrix: (Units=1/GPa)
#
#
# Indices 1 2 3 4 5 6 
#
# 1 0.021791 -0.004669 -0.014815 0.000000 0.000000 0.000000
# 2 -0.004669 0.021791 -0.014815 0.000000 0.000000 0.000000
# 3 -0.014815 -0.014815 0.041513 0.000000 0.000000 0.000000
# 4 0.000000 0.000000 0.000000 0.058309 0.000000 0.000000
# 5 0.000000 0.000000 0.000000 0.000000 0.058309 0.000000
# 6 0.000000 0.000000 0.000000 0.000000 0.000000 0.052920
#
#
# Mechanical properties :
#
#
# Convention : Reuss Voigt Hill
#
# Bulk Modulus (GPa) = 60.61041 65.15338 62.88190
# Shear Modulus (GPa) = 15.21008 16.44158 15.82583
#
# Velocity S-wave (km/s) = 3.24462 3.37341 3.30964
# Velocity P-wave (km/s) = 7.48250 7.76329 7.62419
#
# Compressibility (1/GPa) = 0.01649882
#
# Stress axis : x y z
#
# Youngs Moduli (GPa) = 45.88987 45.88987 24.08908
#
# Poissons Ratio (x) = 0.21426 0.35687
# Poissons Ratio (y) = 0.21426 0.35687
# Poissons Ratio (z) = 0.67984 0.67984
#
# Static dielectric constant tensor:
#      x y z
#    x 1.476030 0.000000 0.000000 
#    y 0.000000 1.476030 0.000000 
#    z 0.000000 0.000000 1.445850 
# 
# From -- ./inp_files/1887.got.cif
#   From: 2010.05.17/outbox.cif.g08.bks.cpg/sg189_1_cif.got.tgz:1887.got - 2010.05.20 12:14:34.
