data_PCOD9586406
_publ_section_title
;
Structure prediction by ZEFSAII (Michael W. Deem and Ramdas Pophale) SiO2 
 PCOD9586406
Probable space group: P -6 2 M
;
_chemical_formula_sum "Si O2"
_cell_formula_units_Z 72
_cell_length_a 20.042409
_cell_length_b 20.042409
_cell_length_c 11.833944
_cell_angle_alpha 90.000000
_cell_angle_beta 90.000000
_cell_angle_gamma 120.000000
_cell_volume 4116.802023
_symmetry_space_group_name_H-M "P -6 2 M"
_symmetry_group_IT_number 189
_symmetry_cell_setting 'hexagonal'
loop_
_space_group_symop_operation_xyz
x,y,z
-x+y,-x,-z
-y,x-y,z
x,y,-z
-x+y,-x,z
-y,x-y,-z
x-y,-y,-z
-x,-x+y,-z
y,x,-z
y,x,z
x-y,-y,z
-x,-x+y,z
loop_
_atom_site_type_symbol
_atom_site_label
_atom_site_fract_x
_atom_site_fract_y
_atom_site_fract_z
Si Si1 0.908106 0.206530 0.500000
Si Si2 0.167991 0.837086 0.731439
Si Si3 0.091097 0.416829 0.869226
Si Si4 0.453120 0.620413 0.704451
Si Si5 0.087001 0.445874 0.500000
Si Si6 0.911008 0.821512 0.864091
Si Si7 0.286789 0.492735 0.636544
O O1 0.875262 0.162127 0.384606
O O2 0.875139 0.266862 0.500000
O O3 0.000000 0.247913 0.500000
O O4 0.252580 0.885540 0.788674
O O5 0.112205 0.849645 0.814905
O O6 0.165091 0.757424 0.694438
O O7 0.138149 0.503831 0.823298
O O8 0.000000 0.382868 0.859404
O O9 0.108862 0.410686 0.000000
O O10 0.504259 0.609076 0.610749
O O11 0.368728 0.548716 0.693624
O O12 0.464021 0.702245 0.662823
O O13 0.000000 0.383734 0.500000
O O14 0.854006 0.854006 0.827557
O O15 0.000000 0.881768 0.835151
O O16 0.905371 0.815581 0.000000
O O17 0.295833 0.489565 0.500000
#
# Coordination Sequence:
#
# PCOD9586406 Si02
#       7
#     6  12  12  12   6  12  12
#     4  11  18  29  52  84 114 140 172 220 278 334
#     4  11  20  34  56  85 116 145 181 224 280 337
#     4  10  20  35  55  80 108 138 177 227 278 324
#     4  11  20  33  52  77 107 141 187 228 274 319
#     4  11  18  29  51  78 106 134 176 232 278 320
#     4  10  21  39  63  88 112 143 187 237 285 337
#     4  11  19  34  52  80 109 147 187 233 277 324
#
# _framework density 17.489303
#
# number of rings (size 3 to 8) (size 9 to 14) (size 15 to 20)
#    0.000    1.333    5.833    3.000    0.000    2.000 
#    0.000    6.250    0.000    2.000    0.000    1.167 
#    0.000    0.000    0.000    0.000    0.000    0.000 
#
# Total GULP energy -401035.669941 kJ/mol
# GULP energy per Si atom -5569.939860 kJ/mol
# Density = 1.744950 g / cm^3
# Si number density = 17.489303 Si / 1000 Ang^3
#
#
#
# Elastic Constant Matrix: (Units=GPa)
#
#
# Indices 1 2 3 4 5 6 
#
# 1 53.6068 10.4375 12.0903 0.0000 0.0000 0.0000
# 2 10.4375 53.6068 12.0903 0.0000 0.0000 0.0000
# 3 12.0903 12.0903 71.4449 0.0000 0.0000 0.0000
# 4 0.0000 0.0000 0.0000 26.9284 0.0000 0.0000
# 5 0.0000 0.0000 0.0000 0.0000 26.9284 0.0000
# 6 0.0000 0.0000 0.0000 0.0000 0.0000 21.5847
#
#
#
# Elastic Compliance Matrix: (Units=1/GPa)
#
#
# Indices 1 2 3 4 5 6 
#
# 1 0.019922 -0.003242 -0.002823 0.000000 0.000000 0.000000
# 2 -0.003242 0.019922 -0.002823 0.000000 0.000000 0.000000
# 3 -0.002823 -0.002823 0.014952 0.000000 0.000000 0.000000
# 4 0.000000 0.000000 0.000000 0.037135 0.000000 0.000000
# 5 0.000000 0.000000 0.000000 0.000000 0.037135 0.000000
# 6 0.000000 0.000000 0.000000 0.000000 0.000000 0.046329
#
#
# Mechanical properties :
#
#
# Convention : Reuss Voigt Hill
#
# Bulk Modulus (GPa) = 27.01148 27.54386 27.27767
# Shear Modulus (GPa) = 24.32942 24.69100 24.51021
#
# Velocity S-wave (km/s) = 3.73380 3.76144 3.74764
# Velocity P-wave (km/s) = 5.83664 5.88623 5.86149
#
# Compressibility (1/GPa) = 0.03702130
#
# Stress axis : x y z
#
# Youngs Moduli (GPa) = 50.19513 50.19513 66.88007
#
# Poissons Ratio (x) = 0.16275 0.18878
# Poissons Ratio (y) = 0.16275 0.18878
# Poissons Ratio (z) = 0.14168 0.14168
#
# Static dielectric constant tensor:
#      x y z
#    x 1.625960 0.000000 0.000000 
#    y 0.000000 1.625960 0.000000 
#    z 0.000000 0.000000 1.629910 
# 
# From -- ./inp_files/2103.got.cif
#   From: 2010.05.17/outbox.cif.g08.bks.cpg/sg189_2_cif.got.tgz:2103.got - 2010.05.20 12:14:34.
