data_PCOD9586203
_publ_section_title
;
Structure prediction by ZEFSAII (Michael W. Deem and Ramdas Pophale) SiO2 
 PCOD9586203
Probable space group: P -6 2 M
;
_chemical_formula_sum "Si O2"
_cell_formula_units_Z 72
_cell_length_a 24.015934
_cell_length_b 24.015934
_cell_length_c 8.769453
_cell_angle_alpha 90.000000
_cell_angle_beta 90.000000
_cell_angle_gamma 120.000000
_cell_volume 4380.282285
_symmetry_space_group_name_H-M "P -6 2 M"
_symmetry_group_IT_number 189
_symmetry_cell_setting 'hexagonal'
loop_
_space_group_symop_operation_xyz
x,y,z
-x+y,-x,-z
-y,x-y,z
x,y,-z
-x+y,-x,z
-y,x-y,-z
x-y,-y,-z
-x,-x+y,-z
y,x,-z
y,x,z
x-y,-y,z
-x,-x+y,z
loop_
_atom_site_type_symbol
_atom_site_label
_atom_site_fract_x
_atom_site_fract_y
_atom_site_fract_z
Si Si1 0.208944 0.544234 0.684327
Si Si2 0.728050 0.928067 0.815873
Si Si3 0.667028 0.209918 0.182051
Si Si4 0.730377 0.597653 0.674277
Si Si5 0.591942 0.862613 0.674934
Si Si6 0.803035 0.731996 0.182983
O O1 0.213791 0.545946 0.500000
O O2 0.274586 0.551509 0.752908
O O3 0.199793 0.601413 0.746140
O O4 0.150665 0.473288 0.727832
O O5 0.659065 0.912535 0.751344
O O6 0.741234 0.871313 0.762506
O O7 0.781461 0.000000 0.772081
O O8 0.723865 0.924787 0.000000
O O9 0.682032 0.154329 0.234056
O O10 0.665864 0.213508 0.000000
O O11 0.716618 0.607330 0.500000
O O12 0.795705 0.593390 0.673690
O O13 0.747953 0.660320 0.771082
O O14 0.588025 0.879556 0.500000
O O15 0.782842 0.782842 0.239972
O O16 0.806425 0.735858 0.000000
#
# Coordination Sequence:
#
# PCOD9586203 Si02
#       6
#    12  12  12  12  12  12
#     4  10  19  31  44  61  89 123 158 199 246 290
#     4   9  17  30  49  72  97 124 154 189 226 266
#     4  11  20  29  43  65  91 121 159 200 243 291
#     4   8  16  29  45  64  86 116 153 191 230 271
#     4   9  17  30  46  65  90 120 154 193 237 282
#     4   9  17  29  47  71  97 123 150 182 222 267
#
# _framework density 16.437297000000001
#
# number of rings (size 3 to 8) (size 9 to 14) (size 15 to 20)
#    0.000    2.667    0.000    3.833    0.000    5.333 
#    0.000    0.000    0.000    1.333    0.000    7.000 
#    0.000    0.000    0.000    8.333    0.000    8.667 
#
# Total GULP energy -401052.753986 kJ/mol
# GULP energy per Si atom -5570.177139 kJ/mol
# Density = 1.639988 g / cm^3
# Si number density = 16.437297 Si / 1000 Ang^3
#
#
#
# Elastic Constant Matrix: (Units=GPa)
#
#
# Indices 1 2 3 4 5 6 
#
# 1 96.9161 57.6999 28.7149 0.0000 0.0000 0.0000
# 2 57.6999 96.9161 28.7149 0.0000 0.0000 0.0000
# 3 28.7149 28.7149 52.3906 0.0000 0.0000 0.0000
# 4 0.0000 0.0000 0.0000 15.4394 0.0000 0.0000
# 5 0.0000 0.0000 0.0000 0.0000 15.4394 0.0000
# 6 0.0000 0.0000 0.0000 0.0000 0.0000 19.6081
#
#
#
# Elastic Compliance Matrix: (Units=1/GPa)
#
#
# Indices 1 2 3 4 5 6 
#
# 1 0.016810 -0.008689 -0.004451 0.000000 0.000000 0.000000
# 2 -0.008689 0.016810 -0.004451 0.000000 0.000000 0.000000
# 3 -0.004451 -0.004451 0.023967 0.000000 0.000000 0.000000
# 4 0.000000 0.000000 0.000000 0.064769 0.000000 0.000000
# 5 0.000000 0.000000 0.000000 0.000000 0.064769 0.000000
# 6 0.000000 0.000000 0.000000 0.000000 0.000000 0.050999
#
#
# Mechanical properties :
#
#
# Convention : Reuss Voigt Hill
#
# Bulk Modulus (GPa) = 44.63429 52.94248 48.78839
# Shear Modulus (GPa) = 17.80777 18.83689 18.32233
#
# Velocity S-wave (km/s) = 3.29504 3.38891 3.34230
# Velocity P-wave (km/s) = 6.45675 6.89867 6.68136
#
# Compressibility (1/GPa) = 0.02240430
#
# Stress axis : x y z
#
# Youngs Moduli (GPa) = 59.48730 59.48730 41.72482
#
# Poissons Ratio (x) = 0.51691 0.18572
# Poissons Ratio (y) = 0.51691 0.18572
# Poissons Ratio (z) = 0.26478 0.26478
#
# Static dielectric constant tensor:
#      x y z
#    x 1.557510 0.000000 0.000000 
#    y 0.000000 1.557510 0.000000 
#    z 0.000000 0.000000 1.557390 
# 
# From -- ./inp_files/1291.got.cif
#   From: 2010.05.17/outbox.cif.g08.bks.cpg/sg189_1_cif.got.tgz:1291.got - 2010.05.20 12:14:34.
