data_PCOD9586141
_publ_section_title
;
Structure prediction by ZEFSAII (Michael W. Deem and Ramdas Pophale) SiO2 
 PCOD9586141
Probable space group: P -6 2 M
;
_chemical_formula_sum "Si O2"
_cell_formula_units_Z 72
_cell_length_a 19.386543
_cell_length_b 19.386543
_cell_length_c 12.712424
_cell_angle_alpha 90.000000
_cell_angle_beta 90.000000
_cell_angle_gamma 120.000000
_cell_volume 4137.707121
_symmetry_space_group_name_H-M "P -6 2 M"
_symmetry_group_IT_number 189
_symmetry_cell_setting 'hexagonal'
loop_
_space_group_symop_operation_xyz
x,y,z
-x+y,-x,-z
-y,x-y,z
x,y,-z
-x+y,-x,z
-y,x-y,-z
x-y,-y,-z
-x,-x+y,-z
y,x,-z
y,x,z
x-y,-y,z
-x,-x+y,z
loop_
_atom_site_type_symbol
_atom_site_label
_atom_site_fract_x
_atom_site_fract_y
_atom_site_fract_z
Si Si1 0.096364 0.417268 0.500000
Si Si2 0.095013 0.348013 0.279755
Si Si3 0.179705 0.497204 0.877126
Si Si4 0.091693 0.825474 0.377485
Si Si5 0.521552 0.347623 0.121755
Si Si6 0.477461 0.901854 0.500000
Si Si7 0.091433 0.666886 0.315562
O O1 0.120385 0.392280 0.392882
O O2 0.123019 0.509315 0.500000
O O3 0.000000 0.368731 0.500000
O O4 0.138982 0.417267 0.192984
O O5 0.117992 0.278873 0.296065
O O6 0.000000 0.307385 0.266221
O O7 0.158673 0.565329 0.846885
O O8 0.275771 0.540398 0.871970
O O9 0.157708 0.476213 0.000000
O O10 0.108257 0.852919 0.500000
O O11 0.093449 0.743253 0.366332
O O12 0.000000 0.801024 0.354011
O O13 0.449557 0.319243 0.202394
O O14 0.501426 0.352279 0.000000
O O15 0.503368 0.872817 0.602492
O O16 0.529294 0.000000 0.500000
O O17 0.000000 0.601722 0.300914
#
# Coordination Sequence:
#
# PCOD9586141 Si02
#       7
#     6  12  12  12  12   6  12
#     4   9  18  29  45  75 109 136 167 215 277 331
#     4  11  21  35  56  81 110 143 181 230 283 337
#     4  10  21  36  53  75 105 149 194 230 273 321
#     4  10  19  34  56  81 108 140 177 219 274 342
#     4  10  20  34  51  70 100 140 183 224 261 308
#     4   9  16  27  44  71 102 130 162 203 254 311
#     4  10  18  30  50  73  96 127 169 213 262 314
#
# _framework density 17.400941
#
# number of rings (size 3 to 8) (size 9 to 14) (size 15 to 20)
#    0.000    2.000    3.333    1.333    0.000    4.000 
#    0.000    1.667    0.000    0.833    0.000    0.000 
#    0.000    0.000    0.000    0.000    0.000    0.000 
#
# Total GULP energy -400952.256147 kJ/mol
# GULP energy per Si atom -5568.781335 kJ/mol
# Density = 1.736134 g / cm^3
# Si number density = 17.400941 Si / 1000 Ang^3
#
#
#
# Elastic Constant Matrix: (Units=GPa)
#
#
# Indices 1 2 3 4 5 6 
#
# 1 54.9721 13.2336 21.4712 0.0000 0.0000 0.0000
# 2 13.2336 54.9721 21.4712 0.0000 0.0000 0.0000
# 3 21.4712 21.4712 67.3426 0.0000 0.0000 0.0000
# 4 0.0000 0.0000 0.0000 21.1400 0.0000 0.0000
# 5 0.0000 0.0000 0.0000 0.0000 21.1400 0.0000
# 6 0.0000 0.0000 0.0000 0.0000 0.0000 20.8692
#
#
#
# Elastic Compliance Matrix: (Units=1/GPa)
#
#
# Indices 1 2 3 4 5 6 
#
# 1 0.021151 -0.002807 -0.005849 0.000000 0.000000 0.000000
# 2 -0.002807 0.021151 -0.005849 0.000000 0.000000 0.000000
# 3 -0.005849 -0.005849 0.018579 0.000000 0.000000 0.000000
# 4 0.000000 0.000000 0.000000 0.047304 0.000000 0.000000
# 5 0.000000 0.000000 0.000000 0.000000 0.047304 0.000000
# 6 0.000000 0.000000 0.000000 0.000000 0.000000 0.047917
#
#
# Mechanical properties :
#
#
# Convention : Reuss Voigt Hill
#
# Bulk Modulus (GPa) = 31.37549 32.18208 31.77879
# Shear Modulus (GPa) = 20.57274 20.70389 20.63832
#
# Velocity S-wave (km/s) = 3.44216 3.45311 3.44764
# Velocity P-wave (km/s) = 5.81962 5.86798 5.84385
#
# Compressibility (1/GPa) = 0.03187201
#
# Stress axis : x y z
#
# Youngs Moduli (GPa) = 47.27845 47.27845 53.82429
#
# Poissons Ratio (x) = 0.13273 0.31480
# Poissons Ratio (y) = 0.13273 0.31480
# Poissons Ratio (z) = 0.27652 0.27652
#
# Static dielectric constant tensor:
#      x y z
#    x 1.609680 0.000000 0.000000 
#    y 0.000000 1.609680 0.000000 
#    z 0.000000 0.000000 1.590520 
# 
# From -- ./inp_files/2098.got.cif
#   From: 2010.05.17/outbox.cif.g08.bks.cpg/sg189_2_cif.got.tgz:2098.got - 2010.05.20 12:14:34.
