data_PCOD9586620
_publ_section_title
;
Structure prediction by ZEFSAII (Michael W. Deem and Ramdas Pophale) SiO2 
 PCOD9586620
Probable space group: P -6 2 C
;
_chemical_formula_sum "Si O2"
_cell_formula_units_Z 48
_cell_length_a 21.901705
_cell_length_b 21.901705
_cell_length_c 5.622211
_cell_angle_alpha 90.000000
_cell_angle_beta 90.000000
_cell_angle_gamma 120.000000
_cell_volume 2335.573948
_symmetry_space_group_name_H-M "P -6 2 C"
_symmetry_group_IT_number 190
_symmetry_cell_setting 'hexagonal'
loop_
_space_group_symop_operation_xyz
x,y,z
-x+y,-x,1/2-z
-y,x-y,z
x,y,1/2-z
-x+y,-x,z
-y,x-y,1/2-z
x-y,-y,-z
-x,-x+y,-z
y,x,-z
y,x,1/2+z
x-y,-y,1/2+z
-x,-x+y,1/2+z
loop_
_atom_site_type_symbol
_atom_site_label
_atom_site_fract_x
_atom_site_fract_y
_atom_site_fract_z
Si Si1 0.820788 0.348366 0.250000
Si Si2 0.137226 0.715775 0.250000
Si Si3 0.730373 0.641786 0.250000
Si Si4 0.358546 0.078103 0.750000
Si Si5 0.752812 0.019921 0.750000
Si Si6 0.928099 0.582449 0.250000
Si Si7 0.504336 0.029058 0.250000
Si Si8 0.694945 0.491607 0.750000
O O1 0.857538 0.299323 0.250000
O O2 0.886990 0.426187 0.250000
O O3 0.782563 0.333036 0.503728
O O4 0.097982 0.762171 0.250000
O O5 0.114843 0.674794 0.502732
O O6 0.221076 0.757305 0.250000
O O7 0.764322 0.666697 0.507578
O O8 0.670763 0.665036 0.250000
O O9 0.444099 0.121092 0.750000
O O10 0.774388 0.000000 0.500000
O O11 0.667092 0.970576 0.750000
O O12 0.982234 0.553533 0.250000
O O13 0.465032 0.000000 0.500000
#
# Coordination Sequence:
#
# PCOD9586620 Si02
#       8
#     6   6   6   6   6   6   6   6
#     4  10  21  30  43  64  97 116 146 170 209 262
#     4  10  18  30  50  61  88 115 139 169 224 251
#     4   8  14  23  36  49  73 112 129 151 189 226
#     4   8  14  22  36  49  74 100 139 156 177 223
#     4   8  14  25  42  60  81 105 129 164 199 260
#     4  10  19  33  47  69  91 111 142 179 223 293
#     4  12  23  32  50  72  99 127 146 176 235 291
#     4  10  19  31  42  64  87 116 144 175 198 256
#
# _framework density 20.551693
#
# number of rings (size 3 to 8) (size 9 to 14) (size 15 to 20)
#    0.000    2.500    0.000    4.500    7.000    0.000 
#    0.000    0.000    0.000    0.000    0.000    0.000 
#   25.000    0.000    0.000    0.000    0.000    0.000 
#
# Total GULP energy -267326.909809 kJ/mol
# GULP energy per Si atom -5569.310621 kJ/mol
# Density = 2.050492 g / cm^3
# Si number density = 20.551693 Si / 1000 Ang^3
#
#
#
# Elastic Constant Matrix: (Units=GPa)
#
#
# Indices 1 2 3 4 5 6 
#
# 1 22.7479 -2.4017 17.5167 0.0000 0.0000 0.0000
# 2 -2.4017 22.7479 17.5167 0.0000 0.0000 0.0000
# 3 17.5167 17.5167 267.5259 0.0000 0.0000 0.0000
# 4 0.0000 0.0000 0.0000 16.4129 0.0000 0.0000
# 5 0.0000 0.0000 0.0000 0.0000 16.4129 0.0000
# 6 0.0000 0.0000 0.0000 0.0000 0.0000 12.5748
#
#
#
# Elastic Compliance Matrix: (Units=1/GPa)
#
#
# Indices 1 2 3 4 5 6 
#
# 1 0.047578 0.007816 -0.003627 0.000000 0.000000 0.000000
# 2 0.007816 0.047578 -0.003627 0.000000 0.000000 0.000000
# 3 -0.003627 -0.003627 0.004213 0.000000 0.000000 0.000000
# 4 0.000000 0.000000 0.000000 0.060928 0.000000 0.000000
# 5 0.000000 0.000000 0.000000 0.000000 0.060928 0.000000
# 6 0.000000 0.000000 0.000000 0.000000 0.000000 0.079524
#
#
# Mechanical properties :
#
#
# Convention : Reuss Voigt Hill
#
# Bulk Modulus (GPa) = 9.95090 42.03167 25.99129
# Shear Modulus (GPa) = 15.00949 27.77279 21.39114
#
# Velocity S-wave (km/s) = 2.70539 3.68008 3.22971
# Velocity P-wave (km/s) = 3.82247 6.20914 5.15580
#
# Compressibility (1/GPa) = 0.10049344
#
# Stress axis : x y z
#
# Youngs Moduli (GPa) = 21.01804 21.01804 237.36473
#
# Poissons Ratio (x) = -0.16428 0.86093
# Poissons Ratio (y) = -0.16428 0.86093
# Poissons Ratio (z) = 0.07623 0.07623
#
# Static dielectric constant tensor:
#      x y z
#    x 1.746250 0.000000 0.000000 
#    y 0.000000 1.746250 0.000000 
#    z 0.000000 0.000000 1.890650 
# 
# From -- ./inp_files/149.got.cif
#   From: 2010.05.17/outbox.cif.g08.bks.cpg/sg190_1_cif.got.tgz:149.got - 2010.05.20 12:16:56.
