data_PCOD9586697
_publ_section_title
;
Structure prediction by ZEFSAII (Michael W. Deem and Ramdas Pophale) SiO2 
 PCOD9586697
Probable space group: P -6 2 C
;
_chemical_formula_sum "Si O2"
_cell_formula_units_Z 66
_cell_length_a 13.460961
_cell_length_b 13.460961
_cell_length_c 23.009844
_cell_angle_alpha 90.000000
_cell_angle_beta 90.000000
_cell_angle_gamma 120.000000
_cell_volume 3610.741836
_symmetry_space_group_name_H-M "P -6 2 C"
_symmetry_group_IT_number 190
_symmetry_cell_setting 'hexagonal'
loop_
_space_group_symop_operation_xyz
x,y,z
-x+y,-x,1/2-z
-y,x-y,z
x,y,1/2-z
-x+y,-x,z
-y,x-y,1/2-z
x-y,-y,-z
-x,-x+y,-z
y,x,-z
y,x,1/2+z
x-y,-y,1/2+z
-x,-x+y,1/2+z
loop_
_atom_site_type_symbol
_atom_site_label
_atom_site_fract_x
_atom_site_fract_y
_atom_site_fract_z
Si Si1 0.452382 0.142121 0.538585
Si Si2 0.233973 0.233973 0.000000
Si Si3 0.761945 0.597900 0.183543
Si Si4 0.306671 0.087766 0.063730
Si Si5 0.939021 0.508690 0.183453
Si Si6 0.648030 0.104853 0.579848
O O1 0.427139 0.164021 0.472180
O O2 0.546105 0.103427 0.542623
O O3 0.488138 0.250986 0.579563
O O4 0.327853 0.039225 0.558479
O O5 0.223866 0.121711 0.029636
O O6 0.287864 0.332868 0.049165
O O7 0.778318 0.642071 0.250000
O O8 0.805366 0.686997 0.130899
O O9 0.831979 0.530417 0.178329
O O10 0.625970 0.516980 0.173521
O O11 0.980656 0.535171 0.250000
O O12 0.038025 0.588678 0.138635
#
# Coordination Sequence:
#
# PCOD9586697 Si02
#       6
#    12   6  12  12  12  12
#     4  10  22  33  55  81 122 149 195 238 287 350
#     4  10  20  32  60  78 108 152 190 244 304 340
#     4  10  19  32  53  81 115 147 189 243 293 345
#     4  10  19  36  53  85 110 148 193 243 294 348
#     4  10  20  34  55  84 116 150 193 243 290 343
#     4  11  20  36  53  81 114 159 192 236 286 354
#
# _framework density 18.278794000000001
#
# number of rings (size 3 to 8) (size 9 to 14) (size 15 to 20)
#    0.000    1.818    3.636    1.818    0.000    1.455 
#    0.000    1.818    0.000   23.273    0.000    0.000 
#    0.000    0.000    0.000    0.000    0.000    0.000 
#
# Total GULP energy -367583.520892 kJ/mol
# GULP energy per Si atom -5569.447286 kJ/mol
# Density = 1.823719 g / cm^3
# Si number density = 18.278794 Si / 1000 Ang^3
#
#
#
# Elastic Constant Matrix: (Units=GPa)
#
#
# Indices 1 2 3 4 5 6 
#
# 1 76.3711 35.7794 34.6782 0.0000 0.0000 0.0000
# 2 35.7794 76.3711 34.6782 0.0000 0.0000 0.0000
# 3 34.6782 34.6782 109.5763 0.0000 0.0000 0.0000
# 4 0.0000 0.0000 0.0000 24.2348 0.0000 0.0000
# 5 0.0000 0.0000 0.0000 0.0000 24.2348 0.0000
# 6 0.0000 0.0000 0.0000 0.0000 0.0000 20.2959
#
#
#
# Elastic Compliance Matrix: (Units=1/GPa)
#
#
# Indices 1 2 3 4 5 6 
#
# 1 0.017861 -0.006775 -0.003509 0.000000 0.000000 0.000000
# 2 -0.006775 0.017861 -0.003509 0.000000 0.000000 0.000000
# 3 -0.003509 -0.003509 0.011347 0.000000 0.000000 0.000000
# 4 0.000000 0.000000 0.000000 0.041263 0.000000 0.000000
# 5 0.000000 0.000000 0.000000 0.000000 0.041263 0.000000
# 6 0.000000 0.000000 0.000000 0.000000 0.000000 0.049271
#
#
# Mechanical properties :
#
#
# Convention : Reuss Voigt Hill
#
# Bulk Modulus (GPa) = 51.32078 52.51003 51.91540
# Shear Modulus (GPa) = 23.48032 24.23195 23.85614
#
# Velocity S-wave (km/s) = 3.58797 3.64495 3.61657
# Velocity P-wave (km/s) = 6.73070 6.81937 6.77518
#
# Compressibility (1/GPa) = 0.01948528
#
# Stress axis : x y z
#
# Youngs Moduli (GPa) = 55.98804 55.98804 88.13051
#
# Poissons Ratio (x) = 0.37930 0.30921
# Poissons Ratio (y) = 0.37930 0.30921
# Poissons Ratio (z) = 0.19644 0.19644
#
# Static dielectric constant tensor:
#      x y z
#    x 1.647230 0.000000 0.000000 
#    y 0.000000 1.647230 0.000000 
#    z 0.000000 0.000000 1.661960 
# 
# From -- ./inp_files/4340.got.cif
#   From: 2010.05.17/outbox.cif.g08.bks.cpg/sg190_3_cif.got.tgz:4340.got - 2010.05.20 12:16:56.
