data_PCOD9586722
_publ_section_title
;
Structure prediction by ZEFSAII (Michael W. Deem and Ramdas Pophale) SiO2 
 PCOD9586722
Probable space group: P -6 2 C
;
_chemical_formula_sum "Si O2"
_cell_formula_units_Z 66
_cell_length_a 16.984429
_cell_length_b 16.984429
_cell_length_c 13.985544
_cell_angle_alpha 90.000000
_cell_angle_beta 90.000000
_cell_angle_gamma 120.000000
_cell_volume 3493.911477
_symmetry_space_group_name_H-M "P -6 2 C"
_symmetry_group_IT_number 190
_symmetry_cell_setting 'hexagonal'
loop_
_space_group_symop_operation_xyz
x,y,z
-x+y,-x,1/2-z
-y,x-y,z
x,y,1/2-z
-x+y,-x,z
-y,x-y,1/2-z
x-y,-y,-z
-x,-x+y,-z
y,x,-z
y,x,1/2+z
x-y,-y,1/2+z
-x,-x+y,1/2+z
loop_
_atom_site_type_symbol
_atom_site_label
_atom_site_fract_x
_atom_site_fract_y
_atom_site_fract_z
Si Si1 0.498731 0.434170 0.357229
Si Si2 0.611266 0.132846 0.932196
Si Si3 0.080382 0.963421 0.250000
Si Si4 0.581657 0.706369 0.852043
Si Si5 0.967240 0.220934 0.606514
Si Si6 0.457185 0.186679 0.934802
O O1 0.487625 0.394787 0.250000
O O2 0.504583 0.384501 0.452671
O O3 0.421210 0.458861 0.379876
O O4 0.596592 0.526969 0.357473
O O5 0.531989 0.157014 0.914909
O O6 0.710875 0.207815 0.900522
O O7 0.130814 0.948058 0.338626
O O8 0.970673 0.904497 0.250000
O O9 0.556041 0.731132 0.750000
O O10 0.688092 0.740599 0.851990
O O11 0.556441 0.737308 0.949638
O O12 0.882864 0.239875 0.605662
O O13 0.000000 0.219134 0.500000
#
# Coordination Sequence:
#
# PCOD9586722 Si02
#       6
#    12  12   6  12  12  12
#     4   9  18  34  55  76 107 156 193 229 285 332
#     4  10  19  35  53  82 121 149 190 241 287 335
#     4  10  24  42  62  90 114 144 182 256 330 360
#     4   9  16  32  60  85 106 150 210 247 271 344
#     4  10  19  37  64  88 110 155 206 239 293 376
#     4  10  20  33  57  89 120 160 198 242 292 350
#
# _framework density 18.890004000000001
#
# number of rings (size 3 to 8) (size 9 to 14) (size 15 to 20)
#    0.182    2.182    2.727    0.364    0.000    1.455 
#    1.636    7.273    0.000    2.182    0.000    0.000 
#    0.000    0.000    0.000    0.000    0.000    0.000 
#
# Total GULP energy -367578.246371 kJ/mol
# GULP energy per Si atom -5569.367369 kJ/mol
# Density = 1.884701 g / cm^3
# Si number density = 18.890004 Si / 1000 Ang^3
#
#
#
# Elastic Constant Matrix: (Units=GPa)
#
#
# Indices 1 2 3 4 5 6 
#
# 1 86.6186 50.2939 11.5414 0.0000 0.0000 0.0000
# 2 50.2939 86.6186 11.5414 0.0000 0.0000 0.0000
# 3 11.5414 11.5414 53.1734 0.0000 0.0000 0.0000
# 4 0.0000 0.0000 0.0000 -5.3463 0.0000 0.0000
# 5 0.0000 0.0000 0.0000 0.0000 -5.3463 0.0000
# 6 0.0000 0.0000 0.0000 0.0000 0.0000 18.1623
#
#
#
# Elastic Compliance Matrix: (Units=1/GPa)
#
#
# Indices 1 2 3 4 5 6 
#
# 1 0.017555 -0.009974 -0.001646 0.000000 0.000000 0.000000
# 2 -0.009974 0.017555 -0.001646 0.000000 0.000000 0.000000
# 3 -0.001646 -0.001646 0.019521 0.000000 0.000000 0.000000
# 4 0.000000 0.000000 0.000000 -0.187045 0.000000 0.000000
# 5 0.000000 0.000000 0.000000 0.000000 -0.187045 0.000000
# 6 0.000000 0.000000 0.000000 0.000000 0.000000 0.055059
#
#
# Mechanical properties :
#
#
# Convention : Reuss Voigt Hill
#
# Bulk Modulus (GPa) = 35.58557 41.46266 38.52411
# Shear Modulus (GPa) = -21.88162 11.69621 -5.09271
#
# Velocity S-wave (km/s) = -3.40718 2.49102 -1.64372
# Velocity P-wave (km/s) = 1.84411 5.50189 4.10314
#
# Compressibility (1/GPa) = 0.02810128
#
# Stress axis : x y z
#
# Youngs Moduli (GPa) = 56.96246 56.96246 51.22757
#
# Poissons Ratio (x) = 0.56815 0.08430
# Poissons Ratio (y) = 0.56815 0.08430
# Poissons Ratio (z) = 0.09373 0.09373
#
# Static dielectric constant tensor:
#      x y z
#    x 1.633520 0.000000 0.000000 
#    y 0.000000 1.633520 0.000000 
#    z 0.000000 0.000000 1.774310 
# 
# From -- ./inp_files/3001.got.cif
#   From: 2010.05.17/outbox.cif.g08.bks.cpg/sg190_2_cif.got.tgz:3001.got - 2010.05.20 12:16:56.
