data_PCOD9586884
_publ_section_title
;
Structure prediction by ZEFSAII (Michael W. Deem and Ramdas Pophale) SiO2 
 PCOD9586884
Probable space group: P -6 2 C
;
_chemical_formula_sum "Si O2"
_cell_formula_units_Z 84
_cell_length_a 17.352426
_cell_length_b 17.352426
_cell_length_c 14.109778
_cell_angle_alpha 90.000000
_cell_angle_beta 90.000000
_cell_angle_gamma 120.000000
_cell_volume 3679.350950
_symmetry_space_group_name_H-M "P -6 2 C"
_symmetry_group_IT_number 190
_symmetry_cell_setting 'hexagonal'
loop_
_space_group_symop_operation_xyz
x,y,z
-x+y,-x,1/2-z
-y,x-y,z
x,y,1/2-z
-x+y,-x,z
-y,x-y,1/2-z
x-y,-y,-z
-x,-x+y,-z
y,x,-z
y,x,1/2+z
x-y,-y,1/2+z
-x,-x+y,1/2+z
loop_
_atom_site_type_symbol
_atom_site_label
_atom_site_fract_x
_atom_site_fract_y
_atom_site_fract_z
Si Si1 0.351817 0.018970 0.638668
Si Si2 0.536224 0.728210 0.861256
Si Si3 0.482692 0.291990 0.638753
Si Si4 0.209306 0.059108 0.853744
Si Si5 0.877644 0.041682 0.091213
Si Si6 0.840907 0.372115 0.550231
Si Si7 0.100392 0.741530 0.981602
O O1 0.381557 0.043161 0.750000
O O2 0.286075 0.050916 0.593084
O O3 0.441728 0.068662 0.577592
O O4 0.296807 0.911604 0.637619
O O5 0.508375 0.722180 0.750000
O O6 0.572145 0.827140 0.906054
O O7 0.469928 0.659429 0.941503
O O8 0.475855 0.303036 0.750000
O O9 0.537334 0.383806 0.581772
O O10 0.529077 0.233970 0.616753
O O11 0.389021 0.242600 0.584073
O O12 0.241527 0.057598 0.750000
O O13 0.187027 0.137878 0.855806
O O14 0.115621 0.968171 0.865168
O O15 0.820692 0.085265 0.055252
O O16 0.897499 0.000000 0.000000
O O17 0.000000 0.659580 0.000000
#
# Coordination Sequence:
#
# PCOD9586884 Si02
#       7
#    12  12  12  12  12  12  12
#     4  10  21  38  66 100 129 172 229 287 341 405
#     4  10  22  42  69  98 136 183 230 279 340 407
#     4  11  24  45  71 101 133 170 218 286 362 433
#     4  11  23  38  62  90 127 182 242 293 339 399
#     4  11  23  38  58  87 134 183 232 290 350 404
#     4  11  24  43  71 103 133 168 224 288 355 423
#     4  10  24  42  64  97 140 186 229 279 349 419
#
# _framework density 22.830113999999998
#
# number of rings (size 3 to 8) (size 9 to 14) (size 15 to 20)
#    0.000    1.429    1.429    3.143    8.000    3.429 
#    0.000    5.000    0.000    0.000    0.000    0.000 
#    0.000    0.000    0.000    0.000    0.000    0.000 
#
# Total GULP energy -468276.747057 kJ/mol
# GULP energy per Si atom -5574.723179 kJ/mol
# Density = 2.277815 g / cm^3
# Si number density = 22.830114 Si / 1000 Ang^3
#
#
#
# Elastic Constant Matrix: (Units=GPa)
#
#
# Indices 1 2 3 4 5 6 
#
# 1 380.7852 -278.3323 26.3438 0.0000 0.0000 0.0000
# 2 -278.3323 380.7852 26.3438 0.0000 0.0000 0.0000
# 3 26.3438 26.3438 180.1950 0.0000 0.0000 0.0000
# 4 0.0000 0.0000 0.0000 13.4788 0.0000 0.0000
# 5 0.0000 0.0000 0.0000 0.0000 13.4788 0.0000
# 6 0.0000 0.0000 0.0000 0.0000 0.0000 329.5588
#
#
#
# Elastic Compliance Matrix: (Units=1/GPa)
#
#
# Indices 1 2 3 4 5 6 
#
# 1 0.006036 0.004518 -0.001543 0.000000 0.000000 0.000000
# 2 0.004518 0.006036 -0.001543 0.000000 0.000000 0.000000
# 3 -0.001543 -0.001543 0.006001 0.000000 0.000000 0.000000
# 4 0.000000 0.000000 0.000000 0.074191 0.000000 0.000000
# 5 0.000000 0.000000 0.000000 0.000000 0.074191 0.000000
# 6 0.000000 0.000000 0.000000 0.000000 0.000000 0.003034
#
#
# Mechanical properties :
#
#
# Convention : Reuss Voigt Hill
#
# Bulk Modulus (GPa) = 47.76239 54.49735 51.12987
# Shear Modulus (GPa) = 28.80163 149.13062 88.96612
#
# Velocity S-wave (km/s) = 3.55570 8.09096 6.24927
# Velocity P-wave (km/s) = 6.15009 10.54550 8.63224
#
# Compressibility (1/GPa) = 0.02093698
#
# Stress axis : x y z
#
# Youngs Moduli (GPa) = 165.68291 165.68290 166.64739
#
# Poissons Ratio (x) = -0.74863 0.25713
# Poissons Ratio (y) = -0.74863 0.25713
# Poissons Ratio (z) = 0.25564 0.25564
#
# Static dielectric constant tensor:
#      x y z
#    x 1.905010 0.000000 0.000000 
#    y 0.000000 1.905010 0.000000 
#    z 0.000000 0.000000 1.955380 
# 
# From -- ./inp_files/3160.got.cif
#   From: 2010.05.17/outbox.cif.g08.bks.cpg/sg190_2_cif.got.tgz:3160.got - 2010.05.20 12:16:56.
