data_PCOD9586140
_publ_section_title
;
Structure prediction by ZEFSAII (Michael W. Deem and Ramdas Pophale) SiO2 
 PCOD9586140
Probable space group: P -6 2 M
;
_chemical_formula_sum "Si O2"
_cell_formula_units_Z 72
_cell_length_a 24.176686
_cell_length_b 24.176686
_cell_length_c 8.100694
_cell_angle_alpha 90.000000
_cell_angle_beta 90.000000
_cell_angle_gamma 120.000000
_cell_volume 4100.590479
_symmetry_space_group_name_H-M "P -6 2 M"
_symmetry_group_IT_number 189
_symmetry_cell_setting 'hexagonal'
loop_
_space_group_symop_operation_xyz
x,y,z
-x+y,-x,-z
-y,x-y,z
x,y,-z
-x+y,-x,z
-y,x-y,-z
x-y,-y,-z
-x,-x+y,-z
y,x,-z
y,x,z
x-y,-y,z
-x,-x+y,z
loop_
_atom_site_type_symbol
_atom_site_label
_atom_site_fract_x
_atom_site_fract_y
_atom_site_fract_z
Si Si1 0.790154 0.272987 0.305775
Si Si2 0.275976 0.000000 0.191717
Si Si3 0.337264 0.265085 0.201339
Si Si4 0.397378 0.000000 0.312998
Si Si5 0.335589 0.139935 0.200665
Si Si6 0.484259 0.334587 0.800172
Si Si7 0.408405 0.881494 0.193297
O O1 0.795347 0.284668 0.500000
O O2 0.833988 0.242341 0.256408
O O3 0.718514 0.219532 0.259810
O O4 0.817726 0.340313 0.215259
O O5 0.342818 0.000000 0.201003
O O6 0.290822 0.067977 0.262883
O O7 0.259068 0.000000 0.000000
O O8 0.292857 0.292857 0.259470
O O9 0.317925 0.193390 0.252581
O O10 0.411257 0.310415 0.251188
O O11 0.336419 0.265343 0.000000
O O12 0.376719 0.000000 0.500000
O O13 0.465629 0.061982 0.281631
O O14 0.336142 0.138765 0.000000
O O15 0.534503 0.405698 0.744286
O O16 0.485160 0.334026 0.000000
O O17 0.419654 0.898311 0.000000
#
# Coordination Sequence:
#
# PCOD9586140 Si02
#       7
#    12   6  12   6  12  12  12
#     4  11  21  34  52  72  99 128 159 208 266 311
#     4  10  18  30  50  72 100 136 170 207 244 297
#     4   8  14  27  49  74  97 120 157 207 249 286
#     4  12  24  34  50  78 108 136 166 209 268 317
#     4   9  17  30  49  72  98 130 168 203 244 298
#     4   9  20  36  55  73  92 127 172 211 251 308
#     4  11  22  37  56  75  99 133 175 216 255 310
#
# _framework density 17.558446
#
# number of rings (size 3 to 8) (size 9 to 14) (size 15 to 20)
#    0.000    2.167    1.667    3.750    1.167    1.333 
#    1.000    0.000    0.000    4.500    0.000    0.000 
#    0.833    0.000    2.500    0.000    0.000    0.000 
#
# Total GULP energy -401709.934508 kJ/mol
# GULP energy per Si atom -5579.304646 kJ/mol
# Density = 1.751848 g / cm^3
# Si number density = 17.558446 Si / 1000 Ang^3
#
#
#
# Elastic Constant Matrix: (Units=GPa)
#
#
# Indices 1 2 3 4 5 6 
#
# 1 100.4145 62.0623 -5.2762 0.0000 0.0000 0.0000
# 2 62.0623 100.4145 -5.2762 0.0000 0.0000 0.0000
# 3 -5.2762 -5.2762 21.8947 0.0000 0.0000 0.0000
# 4 0.0000 0.0000 0.0000 -1.6767 0.0000 0.0000
# 5 0.0000 0.0000 0.0000 0.0000 -1.6767 0.0000
# 6 0.0000 0.0000 0.0000 0.0000 0.0000 19.1761
#
#
#
# Elastic Compliance Matrix: (Units=1/GPa)
#
#
# Indices 1 2 3 4 5 6 
#
# 1 0.016163 -0.009911 0.001507 0.000000 0.000000 0.000000
# 2 -0.009911 0.016163 0.001507 0.000000 0.000000 0.000000
# 3 0.001507 0.001507 0.046399 0.000000 0.000000 0.000000
# 4 0.000000 0.000000 0.000000 -0.596392 0.000000 0.000000
# 5 0.000000 0.000000 0.000000 0.000000 -0.596392 0.000000
# 6 0.000000 0.000000 0.000000 0.000000 0.000000 0.052148
#
#
# Mechanical properties :
#
#
# Convention : Reuss Voigt Hill
#
# Bulk Modulus (GPa) = 15.40081 36.19371 25.79726
# Shear Modulus (GPa) = -4.87105 14.57878 4.85386
#
# Velocity S-wave (km/s) = -1.66740 2.88462 1.66445
# Velocity P-wave (km/s) = 2.25461 5.63496 4.29162
#
# Compressibility (1/GPa) = 0.06493165
#
# Stress axis : x y z
#
# Youngs Moduli (GPa) = 61.86837 61.86837 21.55198
#
# Poissons Ratio (x) = 0.61316 -0.03247
# Poissons Ratio (y) = 0.61316 -0.03247
# Poissons Ratio (z) = -0.09322 -0.09322
#
# Static dielectric constant tensor:
#      x y z
#    x 1.597390 0.000000 0.000000 
#    y 0.000000 1.597390 0.000000 
#    z 0.000000 0.000000 1.603620 
# 
# From -- ./inp_files/1315.got.cif
#   From: 2010.05.17/outbox.cif.g08.bks.cpg/sg189_1_cif.got.tgz:1315.got - 2010.05.20 12:14:34.
