data_PCOD9586226
_publ_section_title
;
Structure prediction by ZEFSAII (Michael W. Deem and Ramdas Pophale) SiO2 
 PCOD9586226
Probable space group: P -6 2 M
;
_chemical_formula_sum "Si O2"
_cell_formula_units_Z 84
_cell_length_a 15.731872
_cell_length_b 15.731872
_cell_length_c 24.364822
_cell_angle_alpha 90.000000
_cell_angle_beta 90.000000
_cell_angle_gamma 120.000000
_cell_volume 5222.214220
_symmetry_space_group_name_H-M "P -6 2 M"
_symmetry_group_IT_number 189
_symmetry_cell_setting 'hexagonal'
loop_
_space_group_symop_operation_xyz
x,y,z
-x+y,-x,-z
-y,x-y,z
x,y,-z
-x+y,-x,z
-y,x-y,-z
x-y,-y,-z
-x,-x+y,-z
y,x,-z
y,x,z
x-y,-y,z
-x,-x+y,z
loop_
_atom_site_type_symbol
_atom_site_label
_atom_site_fract_x
_atom_site_fract_y
_atom_site_fract_z
Si Si1 0.451167 0.769204 0.359310
Si Si2 0.116272 0.232274 0.656524
Si Si3 0.369690 0.252692 0.436238
Si Si4 0.568688 0.118893 0.938863
Si Si5 0.116725 0.369329 0.063479
Si Si6 0.275322 0.392351 0.267500
Si Si7 0.601304 0.882082 0.140030
O O1 0.346378 0.764241 0.360525
O O2 0.522683 0.824734 0.409810
O O3 0.512536 0.822157 0.305100
O O4 0.152729 0.152729 0.655764
O O5 0.160113 0.298125 0.601648
O O6 0.174032 0.306833 0.706383
O O7 0.000000 0.180695 0.660269
O O8 0.368352 0.228184 0.500000
O O9 0.326910 0.326910 0.431067
O O10 0.482226 0.142853 0.929200
O O11 0.648648 0.149118 0.891658
O O12 0.512572 0.000000 0.940812
O O13 0.611557 0.154766 0.000000
O O14 0.180340 0.348502 0.106110
O O15 0.000000 0.302258 0.071632
O O16 0.138166 0.357662 0.000000
O O17 0.351535 0.351535 0.272665
O O18 0.266421 0.411512 0.203902
O O19 0.666720 0.000000 0.137124
#
# Coordination Sequence:
#
# PCOD9586226 Si02
#       7
#    12  12  12  12  12  12  12
#     4   9  19  33  52  72  95 130 167 202 240 278
#     4   9  17  31  51  73  99 132 167 203 243 290
#     4   9  18  34  54  76 106 138 161 194 248 293
#     4   8  15  29  46  65  92 122 154 197 245 292
#     4   9  18  32  48  69 100 130 155 195 251 300
#     4   9  19  35  50  69 101 133 163 204 254 294
#     4  10  19  31  51  74  95 128 169 204 240 294
#
# _framework density 16.085129999999999
#
# number of rings (size 3 to 8) (size 9 to 14) (size 15 to 20)
#    0.286    2.714    0.000    2.714    0.000    3.429 
#    0.857    5.714    0.000    1.143    0.000    0.000 
#    0.000    0.000    0.000    0.000    0.000    0.000 
#
# Total GULP energy -467715.764147 kJ/mol
# GULP energy per Si atom -5568.044811 kJ/mol
# Density = 1.604852 g / cm^3
# Si number density = 16.085130 Si / 1000 Ang^3
#
#
#
# Elastic Constant Matrix: (Units=GPa)
#
#
# Indices 1 2 3 4 5 6 
#
# 1 56.6773 17.1410 43.3602 0.0000 0.0000 0.0000
# 2 17.1410 56.6773 43.3602 0.0000 0.0000 0.0000
# 3 43.3602 43.3602 137.9357 0.0000 0.0000 0.0000
# 4 0.0000 0.0000 0.0000 14.1960 0.0000 0.0000
# 5 0.0000 0.0000 0.0000 0.0000 14.1960 0.0000
# 6 0.0000 0.0000 0.0000 0.0000 0.0000 19.7682
#
#
#
# Elastic Compliance Matrix: (Units=1/GPa)
#
#
# Indices 1 2 3 4 5 6 
#
# 1 0.023386 -0.001907 -0.006752 0.000000 0.000000 0.000000
# 2 -0.001907 0.023386 -0.006752 0.000000 0.000000 0.000000
# 3 -0.006752 -0.006752 0.011495 0.000000 0.000000 0.000000
# 4 0.000000 0.000000 0.000000 0.070443 0.000000 0.000000
# 5 0.000000 0.000000 0.000000 0.000000 0.070443 0.000000
# 6 0.000000 0.000000 0.000000 0.000000 0.000000 0.050586
#
#
# Mechanical properties :
#
#
# Convention : Reuss Voigt Hill
#
# Bulk Modulus (GPa) = 36.43693 51.00147 43.71920
# Shear Modulus (GPa) = 17.25874 19.46061 18.35968
#
# Velocity S-wave (km/s) = 3.27916 3.48206 3.38214
# Velocity P-wave (km/s) = 6.08596 6.92405 6.51849
#
# Compressibility (1/GPa) = 0.02744468
#
# Stress axis : x y z
#
# Youngs Moduli (GPa) = 42.76069 42.76069 86.99690
#
# Poissons Ratio (x) = 0.08155 0.58739
# Poissons Ratio (y) = 0.08155 0.58739
# Poissons Ratio (z) = 0.28871 0.28871
#
# Static dielectric constant tensor:
#      x y z
#    x 1.533540 0.000000 0.000000 
#    y 0.000000 1.533540 0.000000 
#    z 0.000000 0.000000 1.534310 
# 
# From -- ./inp_files/3592.got.cif
#   From: 2010.05.17/outbox.cif.g08.bks.cpg/sg189_2_cif.got.tgz:3592.got - 2010.05.20 12:14:34.
