data_PCOD9586322
_publ_section_title
;
Structure prediction by ZEFSAII (Michael W. Deem and Ramdas Pophale) SiO2 
 PCOD9586322
Probable space group: P -6 2 M
;
_chemical_formula_sum "Si O2"
_cell_formula_units_Z 60
_cell_length_a 17.665428
_cell_length_b 17.665428
_cell_length_c 11.778831
_cell_angle_alpha 90.000000
_cell_angle_beta 90.000000
_cell_angle_gamma 120.000000
_cell_volume 3183.326250
_symmetry_space_group_name_H-M "P -6 2 M"
_symmetry_group_IT_number 189
_symmetry_cell_setting 'hexagonal'
loop_
_space_group_symop_operation_xyz
x,y,z
-x+y,-x,-z
-y,x-y,z
x,y,-z
-x+y,-x,z
-y,x-y,-z
x-y,-y,-z
-x,-x+y,-z
y,x,-z
y,x,z
x-y,-y,z
-x,-x+y,z
loop_
_atom_site_type_symbol
_atom_site_label
_atom_site_fract_x
_atom_site_fract_y
_atom_site_fract_z
Si Si1 0.506223 0.611450 0.715790
Si Si2 0.204674 0.000000 0.861340
Si Si3 0.607843 0.712506 0.500000
Si Si4 0.000000 0.099605 0.367597
Si Si5 0.769732 0.602779 0.867964
Si Si6 0.899778 0.563833 0.271243
Si Si7 0.662687 0.905204 0.500000
O O1 0.558094 0.558094 0.713996
O O2 0.544619 0.676625 0.608842
O O3 0.534866 0.673517 0.823736
O O4 0.405089 0.538534 0.713321
O O5 0.299470 0.086214 0.846537
O O6 0.149499 0.000000 0.748947
O O7 0.179444 0.000000 0.000000
O O8 0.668128 0.668128 0.500000
O O9 0.666632 0.816823 0.500000
O O10 0.000000 0.129674 0.500000
O O11 0.082036 0.082036 0.360123
O O12 0.839310 0.584615 0.806680
O O13 0.776125 0.593505 0.000000
O O14 0.901947 0.606899 0.391475
O O15 0.000000 0.610762 0.228177
O O16 0.749850 0.000000 0.500000
#
# Coordination Sequence:
#
# PCOD9586322 Si02
#       7
#    12   6   6   6  12  12   6
#     4  10  20  39  64  88 118 157 202 253 308 372
#     4  10  22  40  64  94 131 174 222 267 310 385
#     4  10  19  35  67  98 121 158 210 255 305 378
#     4   8  18  40  66  92 133 172 214 273 332 377
#     4  11  23  40  61  90 123 163 215 258 302 372
#     4  10  22  40  63  89 122 159 198 253 319 374
#     4  10  19  37  63  94 129 159 197 250 310 377
#
# _framework density 18.848208
#
# number of rings (size 3 to 8) (size 9 to 14) (size 15 to 20)
#    0.200    1.800    3.000    0.600    0.000    4.800 
#    4.800    4.000    0.000    0.200    0.000    0.000 
#    0.000    0.000    0.000    0.000    0.000    0.000 
#
# Total GULP energy -334459.306457 kJ/mol
# GULP energy per Si atom -5574.321774 kJ/mol
# Density = 1.880531 g / cm^3
# Si number density = 18.848208 Si / 1000 Ang^3
#
#
#
# Elastic Constant Matrix: (Units=GPa)
#
#
# Indices 1 2 3 4 5 6 
#
# 1 91.2457 56.2143 56.5857 0.0000 0.0000 0.0000
# 2 56.2143 91.2457 56.5857 0.0000 0.0000 0.0000
# 3 56.5857 56.5857 111.2306 0.0000 0.0000 0.0000
# 4 0.0000 0.0000 0.0000 -33.9783 0.0000 0.0000
# 5 0.0000 0.0000 0.0000 0.0000 -33.9783 0.0000
# 6 0.0000 0.0000 0.0000 0.0000 0.0000 17.5157
#
#
#
# Elastic Compliance Matrix: (Units=1/GPa)
#
#
# Indices 1 2 3 4 5 6 
#
# 1 0.019835 -0.008710 -0.005660 0.000000 0.000000 0.000000
# 2 -0.008710 0.019835 -0.005660 0.000000 0.000000 0.000000
# 3 -0.005660 -0.005660 0.014749 0.000000 0.000000 0.000000
# 4 0.000000 0.000000 0.000000 -0.029431 0.000000 0.000000
# 5 0.000000 0.000000 0.000000 0.000000 -0.029431 0.000000
# 6 0.000000 0.000000 0.000000 0.000000 0.000000 0.057092
#
#
# Mechanical properties :
#
#
# Convention : Reuss Voigt Hill
#
# Bulk Modulus (GPa) = 69.63568 70.27703 69.95635
# Shear Modulus (GPa) = 51.28415 -1.79908 24.74253
#
# Velocity S-wave (km/s) = 5.22189 -0.97805 3.62709
# Velocity P-wave (km/s) = 8.56640 6.00760 7.39846
#
# Compressibility (1/GPa) = 0.01436046
#
# Stress axis : x y z
#
# Youngs Moduli (GPa) = 50.41480 50.41480 67.80265
#
# Poissons Ratio (x) = 0.43913 0.38374
# Poissons Ratio (y) = 0.43913 0.38374
# Poissons Ratio (z) = 0.28533 0.28533
#
# Static dielectric constant tensor:
#      x y z
#    x 1.653960 0.000000 0.000000 
#    y 0.000000 1.653960 0.000000 
#    z 0.000000 0.000000 1.676310 
# 
# From -- ./inp_files/2008.got.cif
#   From: 2010.05.17/outbox.cif.g08.bks.cpg/sg189_2_cif.got.tgz:2008.got - 2010.05.20 12:14:34.
