data_PCOD9586788
_publ_section_title
;
Structure prediction by ZEFSAII (Michael W. Deem and Ramdas Pophale) SiO2 
 PCOD9586788
Probable space group: P -6 2 C
;
_chemical_formula_sum "Si O2"
_cell_formula_units_Z 72
_cell_length_a 23.536609
_cell_length_b 23.536609
_cell_length_c 8.620667
_cell_angle_alpha 90.000000
_cell_angle_beta 90.000000
_cell_angle_gamma 120.000000
_cell_volume 4135.797693
_symmetry_space_group_name_H-M "P -6 2 C"
_symmetry_group_IT_number 190
_symmetry_cell_setting 'hexagonal'
loop_
_space_group_symop_operation_xyz
x,y,z
-x+y,-x,1/2-z
-y,x-y,z
x,y,1/2-z
-x+y,-x,z
-y,x-y,1/2-z
x-y,-y,-z
-x,-x+y,-z
y,x,-z
y,x,1/2+z
x-y,-y,1/2+z
-x,-x+y,1/2+z
loop_
_atom_site_type_symbol
_atom_site_label
_atom_site_fract_x
_atom_site_fract_y
_atom_site_fract_z
Si Si1 0.136492 0.067684 0.434664
Si Si2 0.524668 0.290298 0.063248
Si Si3 0.805316 0.068764 0.563513
Si Si4 0.562927 0.182489 0.437335
Si Si5 0.576562 0.650996 0.436513
Si Si6 0.387502 0.182896 0.936650
O O1 0.136137 0.068324 0.250000
O O2 0.078963 0.078963 0.500000
O O3 0.202075 0.128448 0.500174
O O4 0.126107 0.000000 0.500000
O O5 0.520846 0.290871 0.250000
O O6 0.562208 0.365696 0.011094
O O7 0.560451 0.248595 0.024734
O O8 0.453103 0.246122 0.993818
O O9 0.804461 0.065620 0.750000
O O10 0.808822 0.135687 0.512066
O O11 0.746457 0.000000 0.500000
O O12 0.558360 0.175111 0.250000
O O13 0.499149 0.119733 0.508286
O O14 0.577742 0.649133 0.250000
O O15 0.613115 0.613115 0.500000
O O16 0.610579 0.728040 0.487552
O O17 0.386956 0.181257 0.750000
#
# Coordination Sequence:
#
# PCOD9586788 Si02
#       6
#    12  12  12  12  12  12
#     4  11  21  34  51  73  99 127 159 198 244 296
#     4   9  17  30  52  78 105 134 168 205 248 299
#     4  10  20  36  54  74  99 129 165 208 252 298
#     4   9  17  31  51  78 107 136 168 208 253 303
#     4  10  20  35  53  75 103 138 174 214 260 308
#     4   9  20  36  53  74 103 134 170 213 257 302
#
# _framework density 17.408977
#
# number of rings (size 3 to 8) (size 9 to 14) (size 15 to 20)
#    0.000    2.333    0.000    4.000    0.000    4.667 
#    0.000    2.500    0.000    4.000    0.000    0.000 
#    0.000    0.000    0.000    0.000    0.000    0.000 
#
# Total GULP energy -401366.905636 kJ/mol
# GULP energy per Si atom -5574.540356 kJ/mol
# Density = 1.736935 g / cm^3
# Si number density = 17.408977 Si / 1000 Ang^3
#
#
#
# Elastic Constant Matrix: (Units=GPa)
#
#
# Indices 1 2 3 4 5 6 
#
# 1 154.5121 72.7493 30.2425 0.0000 0.0000 0.0000
# 2 72.7493 154.5121 30.2425 0.0000 0.0000 0.0000
# 3 30.2425 30.2425 38.7023 0.0000 0.0000 0.0000
# 4 0.0000 0.0000 0.0000 27.6640 0.0000 0.0000
# 5 0.0000 0.0000 0.0000 0.0000 27.6640 0.0000
# 6 0.0000 0.0000 0.0000 0.0000 0.0000 40.8814
#
#
#
# Elastic Compliance Matrix: (Units=1/GPa)
#
#
# Indices 1 2 3 4 5 6 
#
# 1 0.008893 -0.003337 -0.004341 0.000000 0.000000 0.000000
# 2 -0.003337 0.008893 -0.004341 0.000000 0.000000 0.000000
# 3 -0.004341 -0.004341 0.032623 0.000000 0.000000 0.000000
# 4 0.000000 0.000000 0.000000 0.036148 0.000000 0.000000
# 5 0.000000 0.000000 0.000000 0.000000 0.036148 0.000000
# 6 0.000000 0.000000 0.000000 0.000000 0.000000 0.024461
#
#
# Mechanical properties :
#
#
# Convention : Reuss Voigt Hill
#
# Bulk Modulus (GPa) = 37.92312 68.24390 53.08351
# Shear Modulus (GPa) = 27.77846 33.54136 30.65991
#
# Velocity S-wave (km/s) = 3.99888 4.39415 4.20116
# Velocity P-wave (km/s) = 6.56904 8.06413 7.35468
#
# Compressibility (1/GPa) = 0.02636914
#
# Stress axis : x y z
#
# Youngs Moduli (GPa) = 112.44722 112.44721 30.65341
#
# Poissons Ratio (x) = 0.37529 0.13307
# Poissons Ratio (y) = 0.37529 0.13307
# Poissons Ratio (z) = 0.48816 0.48816
#
# Static dielectric constant tensor:
#      x y z
#    x 0.889740 0.000000 0.000000 
#    y 0.000000 0.889740 0.000000 
#    z 0.000000 0.000000 1.589190 
# 
# From -- ./inp_files/1204.got.cif
#   From: 2010.05.17/outbox.cif.g08.bks.cpg/sg190_1_cif.got.tgz:1204.got - 2010.05.20 12:16:56.
