data_PCOD9586493
_publ_section_title
;
Structure prediction by ZEFSAII (Michael W. Deem and Ramdas Pophale) SiO2 
 PCOD9586493
Probable space group: P -6 2 M
;
_chemical_formula_sum "Si O2"
_cell_formula_units_Z 36
_cell_length_a 15.414932
_cell_length_b 15.414932
_cell_length_c 10.500201
_cell_angle_alpha 90.000000
_cell_angle_beta 90.000000
_cell_angle_gamma 120.000000
_cell_volume 2160.784575
_symmetry_space_group_name_H-M "P -6 2 M"
_symmetry_group_IT_number 189
_symmetry_cell_setting 'hexagonal'
loop_
_space_group_symop_operation_xyz
x,y,z
-x+y,-x,-z
-y,x-y,z
x,y,-z
-x+y,-x,z
-y,x-y,-z
x-y,-y,-z
-x,-x+y,-z
y,x,-z
y,x,z
x-y,-y,z
-x,-x+y,z
loop_
_atom_site_type_symbol
_atom_site_label
_atom_site_fract_x
_atom_site_fract_y
_atom_site_fract_z
Si Si1 0.574832 0.694463 0.248047
Si Si2 0.453373 0.680701 0.500000
Si Si3 0.216863 0.555870 0.000000
Si Si4 0.766926 0.884368 0.152280
O O1 0.625192 0.625192 0.257836
O O2 0.514359 0.687570 0.374360
O O3 0.502610 0.662005 0.125613
O O4 0.665508 0.806960 0.222774
O O5 0.344867 0.579339 0.500000
O O6 0.329078 0.570871 0.000000
O O7 0.846494 0.846494 0.173919
O O8 0.814267 0.000000 0.188431
O O9 0.746638 0.875139 0.000000
#
# Coordination Sequence:
#
# PCOD9586493 Si02
#       4
#    12   6   6  12
#     4  11  20  37  60  87 113 146 190 236 280 332
#     4  10  23  42  62  74 109 156 186 232 282 336
#     4  10  21  36  58  78 115 154 182 228 288 324
#     4   9  17  31  54  84 120 153 184 226 280 340
#
# _framework density 16.660616000000001
#
# number of rings (size 3 to 8) (size 9 to 14) (size 15 to 20)
#    0.667    1.333    1.667    3.333    0.000    1.333 
#    0.000   10.833    0.000    0.000    0.000    2.333 
#    0.000    0.000    0.000    0.000    0.000    0.000 
#
# Total GULP energy -200723.699987 kJ/mol
# GULP energy per Si atom -5575.658333 kJ/mol
# Density = 1.662270 g / cm^3
# Si number density = 16.660616 Si / 1000 Ang^3
#
#
#
# Elastic Constant Matrix: (Units=GPa)
#
#
# Indices 1 2 3 4 5 6 
#
# 1 120.6839 66.4557 76.5560 0.0000 0.0000 0.0000
# 2 66.4557 120.6839 76.5560 0.0000 0.0000 0.0000
# 3 76.5560 76.5560 150.3120 0.0000 0.0000 0.0000
# 4 0.0000 0.0000 0.0000 0.9956 0.0000 0.0000
# 5 0.0000 0.0000 0.0000 0.0000 0.9956 0.0000
# 6 0.0000 0.0000 0.0000 0.0000 0.0000 27.1141
#
#
#
# Elastic Compliance Matrix: (Units=1/GPa)
#
#
# Indices 1 2 3 4 5 6 
#
# 1 0.013801 -0.004640 -0.004666 0.000000 0.000000 0.000000
# 2 -0.004640 0.013801 -0.004666 0.000000 0.000000 0.000000
# 3 -0.004666 -0.004666 0.011406 0.000000 0.000000 0.000000
# 4 0.000000 0.000000 0.000000 1.004398 0.000002 0.000000
# 5 0.000000 0.000000 0.000000 0.000002 1.004396 0.000000
# 6 0.000000 0.000000 0.000000 0.000000 0.000000 0.036881
#
#
# Mechanical properties :
#
#
# Convention : Reuss Voigt Hill
#
# Bulk Modulus (GPa) = 90.38075 92.31279 91.34677
# Shear Modulus (GPa) = 2.36260 17.29522 9.82891
#
# Velocity S-wave (km/s) = 1.19212 3.22544 2.43152
# Velocity P-wave (km/s) = 7.50072 8.33063 7.92654
#
# Compressibility (1/GPa) = 0.01106430
#
# Stress axis : x y z
#
# Youngs Moduli (GPa) = 72.45947 72.45947 87.67623
#
# Poissons Ratio (x) = 0.33619 0.40908
# Poissons Ratio (y) = 0.33619 0.40908
# Poissons Ratio (z) = 0.33809 0.33809
#
# Static dielectric constant tensor:
#      x y z
#    x 1.553360 0.000000 0.000000 
#    y 0.000000 1.553360 0.000000 
#    z 0.000000 0.000000 1.525750 
# 
# From -- ./inp_files/440.got.cif
#   From: 2010.05.17/outbox.cif.g08.bks.cpg/sg189_1_cif.got.tgz:440.got - 2010.05.20 12:14:34.
