data_PCOD9586561
_publ_section_title
;
Structure prediction by ZEFSAII (Michael W. Deem and Ramdas Pophale) SiO2 
 PCOD9586561
Probable space group: P -6 2 M
;
_chemical_formula_sum "Si O2"
_cell_formula_units_Z 75
_cell_length_a 14.974246
_cell_length_b 14.974246
_cell_length_c 17.316063
_cell_angle_alpha 90.000000
_cell_angle_beta 90.000000
_cell_angle_gamma 120.000000
_cell_volume 3362.557472
_symmetry_space_group_name_H-M "P -6 2 M"
_symmetry_group_IT_number 189
_symmetry_cell_setting 'hexagonal'
loop_
_space_group_symop_operation_xyz
x,y,z
-x+y,-x,-z
-y,x-y,z
x,y,-z
-x+y,-x,z
-y,x-y,-z
x-y,-y,-z
-x,-x+y,-z
y,x,-z
y,x,z
x-y,-y,z
-x,-x+y,z
loop_
_atom_site_type_symbol
_atom_site_label
_atom_site_fract_x
_atom_site_fract_y
_atom_site_fract_z
Si Si1 0.575567 0.122789 0.915215
Si Si2 0.801305 0.114970 0.395785
Si Si3 0.472342 0.876825 0.416446
Si Si4 0.474021 0.592534 0.253567
Si Si5 0.749617 0.749617 0.500000
Si Si6 0.789447 0.121715 0.082914
Si Si7 0.112509 0.312746 0.756191
O O1 0.566518 0.165622 0.831772
O O2 0.686907 0.131093 0.914215
O O3 0.490876 0.000000 0.915251
O O4 0.565077 0.163907 0.000000
O O5 0.706410 0.131152 0.417114
O O6 0.809060 0.119212 0.303442
O O7 0.907690 0.199934 0.433483
O O8 0.771713 0.000000 0.419510
O O9 0.417496 0.836875 0.500000
O O10 0.419088 0.833545 0.333677
O O11 0.510587 0.000000 0.415548
O O12 0.496234 0.496234 0.249968
O O13 0.582843 0.694981 0.262361
O O14 0.858549 0.176000 0.155416
O O15 0.748320 0.000000 0.086690
O O16 0.840662 0.162414 0.000000
O O17 0.000000 0.217135 0.742832
#
# Coordination Sequence:
#
# PCOD9586561 Si02
#       7
#    12  12  12  12   3  12  12
#     4   8  14  28  52  79 101 127 172 230 286 347
#     4  11  22  40  61  85 121 164 209 259 315 379
#     4   9  17  33  57  80 102 140 192 237 289 363
#     4   9  18  31  49  78 108 136 179 234 293 359
#     4  12  22  40  60  92 118 148 210 276 318 356
#     4   9  18  34  58  83 109 152 209 255 295 361
#     4  11  22  35  50  82 121 155 199 255 318 372
#
# _framework density 22.304452999999999
#
# number of rings (size 3 to 8) (size 9 to 14) (size 15 to 20)
#    0.000    2.400    1.600    2.640    0.000    3.520 
#    3.360    1.600    0.000    5.440    0.000    0.000 
#    0.000    0.000    0.000    0.000    0.000    0.000 
#
# Total GULP energy -417637.467365 kJ/mol
# GULP energy per Si atom -5568.499565 kJ/mol
# Density = 2.225369 g / cm^3
# Si number density = 22.304453 Si / 1000 Ang^3
#
#
#
# Elastic Constant Matrix: (Units=GPa)
#
#
# Indices 1 2 3 4 5 6 
#
# 1 21.7379 3.3756 29.8849 0.0000 0.0000 0.0000
# 2 3.3756 21.7379 29.8849 0.0000 0.0000 0.0000
# 3 29.8849 29.8849 237.3718 0.0000 0.0000 0.0000
# 4 0.0000 0.0000 0.0000 -40.7946 0.0000 0.0000
# 5 0.0000 0.0000 0.0000 0.0000 -40.7946 0.0000
# 6 0.0000 0.0000 0.0000 0.0000 0.0000 9.1811
#
#
#
# Elastic Compliance Matrix: (Units=1/GPa)
#
#
# Indices 1 2 3 4 5 6 
#
# 1 0.055657 0.001198 -0.007158 0.000000 0.000000 0.000000
# 2 0.001198 0.055657 -0.007158 0.000000 0.000000 0.000000
# 3 -0.007158 -0.007158 0.006015 0.000000 0.000000 0.000000
# 4 0.000000 0.000000 0.000000 -0.024513 0.000000 0.000000
# 5 0.000000 0.000000 0.000000 0.000000 -0.024513 0.000000
# 6 0.000000 0.000000 0.000000 0.000000 0.000000 0.108919
#
#
# Mechanical properties :
#
#
# Convention : Reuss Voigt Hill
#
# Bulk Modulus (GPa) = 10.97777 45.23763 28.10770
# Shear Modulus (GPa) = 21.38367 0.03186 10.70777
#
# Velocity S-wave (km/s) = 3.09968 0.11965 2.19343
# Velocity P-wave (km/s) = 4.21226 4.51054 4.36395
#
# Compressibility (1/GPa) = 0.09109319
#
# Stress axis : x y z
#
# Youngs Moduli (GPa) = 17.96712 17.96712 166.24616
#
# Poissons Ratio (x) = -0.02152 1.18999
# Poissons Ratio (y) = -0.02152 1.18999
# Poissons Ratio (z) = 0.12861 0.12861
#
# Static dielectric constant tensor:
#      x y z
#    x 1.808570 0.000000 0.000000 
#    y 0.000000 1.808570 0.000000 
#    z 0.000000 0.000000 1.915800 
# 
# From -- ./inp_files/2758.got.cif
#   From: 2010.05.17/outbox.cif.g08.bks.cpg/sg189_2_cif.got.tgz:2758.got - 2010.05.20 12:14:34.
