data_PCOD9586909
_publ_section_title
;
Structure prediction by ZEFSAII (Michael W. Deem and Ramdas Pophale) SiO2 
 PCOD9586909
Probable space group: P -6 2 C
;
_chemical_formula_sum "Si O2"
_cell_formula_units_Z 36
_cell_length_a 7.180009
_cell_length_b 7.180009
_cell_length_c 32.991309
_cell_angle_alpha 90.000000
_cell_angle_beta 90.000000
_cell_angle_gamma 120.000000
_cell_volume 1472.923382
_symmetry_space_group_name_H-M "P -6 2 C"
_symmetry_group_IT_number 190
_symmetry_cell_setting 'hexagonal'
loop_
_space_group_symop_operation_xyz
x,y,z
-x+y,-x,1/2-z
-y,x-y,z
x,y,1/2-z
-x+y,-x,z
-y,x-y,1/2-z
x-y,-y,-z
-x,-x+y,-z
y,x,-z
y,x,1/2+z
x-y,-y,1/2+z
-x,-x+y,1/2+z
loop_
_atom_site_type_symbol
_atom_site_label
_atom_site_fract_x
_atom_site_fract_y
_atom_site_fract_z
Si Si1 0.913388 0.575411 0.122729
Si Si2 0.876674 0.599779 0.960549
Si Si3 0.780186 0.044887 0.706381
O O1 0.670291 0.534171 0.121778
O O2 0.040278 0.673404 0.164224
O O3 0.026754 0.715284 0.083237
O O4 0.623136 0.508705 0.962074
O O5 0.000000 0.733536 0.000000
O O6 0.688773 0.060892 0.750000
O O7 0.784637 0.819582 0.706272
#
# Coordination Sequence:
#
# PCOD9586909 Si02
#       3
#    12  12  12
#     4  10  22  34  59  89 120 154 196 239 296 351
#     4  10  22  38  62  81 120 151 194 240 296 346
#     4   8  18  36  59  82 116 156 197 240 286 341
#
# _framework density 24.441186999999999
#
# number of rings (size 3 to 8) (size 9 to 14) (size 15 to 20)
#    2.000    0.667    0.000    2.000    4.667    1.333 
#    0.000    0.000    0.000    2.667    0.000    0.000 
#    0.000    0.000    0.000    0.000    0.000    0.000 
#
# Total GULP energy -200566.775294 kJ/mol
# GULP energy per Si atom -5571.299314 kJ/mol
# Density = 2.438556 g / cm^3
# Si number density = 24.441187 Si / 1000 Ang^3
#
#
#
# Elastic Constant Matrix: (Units=GPa)
#
#
# Indices 1 2 3 4 5 6 
#
# 1 49.8988 2.4080 33.6036 0.0000 0.0000 0.0000
# 2 2.4080 49.8988 33.6036 0.0000 0.0000 0.0000
# 3 33.6036 33.6036 246.4763 0.0000 0.0000 0.0000
# 4 0.0000 0.0000 0.0000 33.1652 0.0000 0.0000
# 5 0.0000 0.0000 0.0000 0.0000 33.1652 0.0000
# 6 0.0000 0.0000 0.0000 0.0000 0.0000 23.7454
#
#
#
# Elastic Compliance Matrix: (Units=1/GPa)
#
#
# Indices 1 2 3 4 5 6 
#
# 1 0.022117 0.001061 -0.003160 0.000000 0.000000 0.000000
# 2 0.001061 0.022117 -0.003160 0.000000 0.000000 0.000000
# 3 -0.003160 -0.003160 0.004919 0.000000 0.000000 0.000000
# 4 0.000000 0.000000 0.000000 0.030152 0.000000 0.000000
# 5 0.000000 0.000000 0.000000 0.000000 0.030152 0.000000
# 6 0.000000 0.000000 0.000000 0.000000 0.000000 0.042113
#
#
# Mechanical properties :
#
#
# Convention : Reuss Voigt Hill
#
# Bulk Modulus (GPa) = 25.88318 53.94493 39.91406
# Shear Modulus (GPa) = 28.57661 36.45907 32.51784
#
# Velocity S-wave (km/s) = 3.42306 3.86645 3.65149
# Velocity P-wave (km/s) = 5.12212 6.48474 5.84329
#
# Compressibility (1/GPa) = 0.03863513
#
# Stress axis : x y z
#
# Youngs Moduli (GPa) = 45.21317 45.21317 203.30005
#
# Poissons Ratio (x) = -0.04796 0.64243
# Poissons Ratio (y) = -0.04796 0.64243
# Poissons Ratio (z) = 0.14287 0.14287
#
# Static dielectric constant tensor:
#      x y z
#    x 1.986080 0.000000 0.000000 
#    y 0.000000 1.986080 0.000000 
#    z 0.000000 0.000000 1.909400 
# 
# From -- ./inp_files/5014.got.cif
#   From: 2010.05.17/outbox.cif.g08.bks.cpg/sg190_3_cif.got.tgz:5014.got - 2010.05.20 12:16:56.
