data_PCOD9586704
_publ_section_title
;
Structure prediction by ZEFSAII (Michael W. Deem and Ramdas Pophale) SiO2 
 PCOD9586704
Probable space group: P -6 2 C
;
_chemical_formula_sum "Si O2"
_cell_formula_units_Z 52
_cell_length_a 12.508543
_cell_length_b 12.508543
_cell_length_c 22.229676
_cell_angle_alpha 90.000000
_cell_angle_beta 90.000000
_cell_angle_gamma 120.000000
_cell_volume 3012.154307
_symmetry_space_group_name_H-M "P -6 2 C"
_symmetry_group_IT_number 190
_symmetry_cell_setting 'hexagonal'
loop_
_space_group_symop_operation_xyz
x,y,z
-x+y,-x,1/2-z
-y,x-y,z
x,y,1/2-z
-x+y,-x,z
-y,x-y,1/2-z
x-y,-y,-z
-x,-x+y,-z
y,x,-z
y,x,1/2+z
x-y,-y,1/2+z
-x,-x+y,1/2+z
loop_
_atom_site_type_symbol
_atom_site_label
_atom_site_fract_x
_atom_site_fract_y
_atom_site_fract_z
Si Si1 0.740039 0.735781 0.684975
Si Si2 0.409434 0.077473 0.939193
Si Si3 0.000000 0.000000 0.069897
Si Si4 0.413739 0.335517 0.940200
Si Si5 0.211744 0.205561 0.147595
O O1 0.686205 0.675904 0.750000
O O2 0.679252 0.662752 0.623172
O O3 0.744590 0.866731 0.681738
O O4 0.881412 0.763300 0.682516
O O5 0.419783 0.210440 0.943851
O O6 0.544287 0.091994 0.935498
O O7 0.345126 0.000000 0.000000
O O8 0.990761 0.875762 0.094800
O O9 0.000000 0.000000 0.000000
O O10 0.328027 0.318725 0.882869
O O11 0.351538 0.351538 0.000000
#
# Coordination Sequence:
#
# PCOD9586704 Si02
#       5
#    12  12   4  12  12
#     4  10  19  33  51  76 104 130 161 204 252 304
#     4  10  21  35  53  76 102 134 173 213 254 301
#     4   9  15  24  43  77 109 126 151 200 250 297
#     4  10  19  33  52  75 102 134 171 212 256 303
#     4   9  18  29  49  74 100 132 163 197 250 305
#
# _framework density 17.263392
#
# number of rings (size 3 to 8) (size 9 to 14) (size 15 to 20)
#    0.000    2.308    0.000    3.692    0.000    6.462 
#    0.000    5.769    0.000    1.385    0.000    0.000 
#    0.000    0.000    0.000    0.000    0.000    0.000 
#
# Total GULP energy -289905.013812 kJ/mol
# GULP energy per Si atom -5575.096419 kJ/mol
# Density = 1.722410 g / cm^3
# Si number density = 17.263392 Si / 1000 Ang^3
#
#
#
# Elastic Constant Matrix: (Units=GPa)
#
#
# Indices 1 2 3 4 5 6 
#
# 1 72.2230 30.9842 43.8510 0.0000 0.0000 0.0000
# 2 30.9842 72.2230 43.8510 0.0000 0.0000 0.0000
# 3 43.8510 43.8510 151.5359 0.0000 0.0000 0.0000
# 4 0.0000 0.0000 0.0000 -6.4174 0.0000 0.0000
# 5 0.0000 0.0000 0.0000 0.0000 -6.4174 0.0000
# 6 0.0000 0.0000 0.0000 0.0000 0.0000 20.6194
#
#
#
# Elastic Compliance Matrix: (Units=1/GPa)
#
#
# Indices 1 2 3 4 5 6 
#
# 1 0.018549 -0.005700 -0.003718 0.000000 0.000000 0.000000
# 2 -0.005700 0.018549 -0.003718 0.000000 0.000000 0.000000
# 3 -0.003718 -0.003718 0.008751 0.000000 0.000000 0.000000
# 4 0.000000 0.000000 0.000000 -0.155826 0.000000 0.000000
# 5 0.000000 0.000000 0.000000 0.000000 -0.155826 0.000000
# 6 0.000000 0.000000 0.000000 0.000000 0.000000 0.048498
#
#
# Mechanical properties :
#
#
# Convention : Reuss Voigt Hill
#
# Bulk Modulus (GPa) = 51.08293 59.26158 55.17226
# Shear Modulus (GPa) = -27.09919 13.37663 -6.86128
#
# Velocity S-wave (km/s) = -3.96630 2.78664 -1.99577
# Velocity P-wave (km/s) = 2.94604 6.69001 5.16892
#
# Compressibility (1/GPa) = 0.01957601
#
# Stress axis : x y z
#
# Youngs Moduli (GPa) = 53.91153 53.91153 114.27273
#
# Poissons Ratio (x) = 0.30730 0.42488
# Poissons Ratio (y) = 0.30730 0.42488
# Poissons Ratio (z) = 0.20045 0.20045
#
# Static dielectric constant tensor:
#      x y z
#    x 1.579820 0.000000 0.000000 
#    y 0.000000 1.579820 0.000000 
#    z 0.000000 0.000000 1.612720 
# 
# From -- ./inp_files/4188.got.cif
#   From: 2010.05.17/outbox.cif.g08.bks.cpg/sg190_3_cif.got.tgz:4188.got - 2010.05.20 12:16:56.
