data_PCOD9586734
_publ_section_title
;
Structure prediction by ZEFSAII (Michael W. Deem and Ramdas Pophale) SiO2 
 PCOD9586734
Probable space group: P -6 2 C
;
_chemical_formula_sum "Si O2"
_cell_formula_units_Z 72
_cell_length_a 14.601791
_cell_length_b 14.601791
_cell_length_c 17.119903
_cell_angle_alpha 90.000000
_cell_angle_beta 90.000000
_cell_angle_gamma 120.000000
_cell_volume 3161.143327
_symmetry_space_group_name_H-M "P -6 2 C"
_symmetry_group_IT_number 190
_symmetry_cell_setting 'hexagonal'
loop_
_space_group_symop_operation_xyz
x,y,z
-x+y,-x,1/2-z
-y,x-y,z
x,y,1/2-z
-x+y,-x,z
-y,x-y,1/2-z
x-y,-y,-z
-x,-x+y,-z
y,x,-z
y,x,1/2+z
x-y,-y,1/2+z
-x,-x+y,1/2+z
loop_
_atom_site_type_symbol
_atom_site_label
_atom_site_fract_x
_atom_site_fract_y
_atom_site_fract_z
Si Si1 0.024471 0.756392 0.841311
Si Si2 0.487255 0.910346 0.664761
Si Si3 0.329644 0.116168 0.661709
Si Si4 0.609886 0.482332 0.006958
Si Si5 0.705295 0.786169 0.559313
Si Si6 0.449269 0.602364 0.336524
O O1 0.033930 0.790355 0.750000
O O2 0.058099 0.667194 0.842656
O O3 0.106057 0.844249 0.898766
O O4 0.904372 0.712254 0.869049
O O5 0.445776 0.860093 0.750000
O O6 0.421714 0.844674 0.589809
O O7 0.497798 0.025953 0.666430
O O8 0.290945 0.091619 0.750000
O O9 0.455945 0.179091 0.663136
O O10 0.292368 0.004383 0.621779
O O11 0.725142 0.589027 0.018889
O O12 0.530809 0.530809 0.000000
O O13 0.592085 0.414072 0.928015
O O14 0.792898 0.792898 0.500000
O O15 0.395239 0.583676 0.250000
#
# Coordination Sequence:
#
# PCOD9586734 Si02
#       6
#    12  12  12  12  12  12
#     4  10  23  38  57  91 125 161 221 276 323 387
#     4   9  17  33  57  86 115 147 194 257 317 375
#     4  10  19  36  59  81 114 165 214 260 317 386
#     4   9  16  32  54  85 110 143 203 241 305 389
#     4  11  20  37  56  85 121 163 213 260 319 395
#     4   9  16  32  57  79 108 149 196 246 306 380
#
# _framework density 22.77657
#
# number of rings (size 3 to 8) (size 9 to 14) (size 15 to 20)
#    0.000    2.333    5.000    0.500    0.000    1.333 
#   10.000    0.000    0.000    1.333    0.000    4.667 
#    0.000    0.000    0.000    0.000    0.000    0.000 
#
# Total GULP energy -400999.610679 kJ/mol
# GULP energy per Si atom -5569.439037 kJ/mol
# Density = 2.272473 g / cm^3
# Si number density = 22.776570 Si / 1000 Ang^3
#
#
#
# Elastic Constant Matrix: (Units=GPa)
#
#
# Indices 1 2 3 4 5 6 
#
# 1 53.2700 16.6501 40.1934 0.0000 0.0000 0.0000
# 2 16.6501 53.2700 40.1934 0.0000 0.0000 0.0000
# 3 40.1934 40.1934 181.1218 0.0000 0.0000 0.0000
# 4 0.0000 0.0000 0.0000 19.6886 0.0000 0.0000
# 5 0.0000 0.0000 0.0000 0.0000 19.6886 0.0000
# 6 0.0000 0.0000 0.0000 0.0000 0.0000 18.3100
#
#
#
# Elastic Compliance Matrix: (Units=1/GPa)
#
#
# Indices 1 2 3 4 5 6 
#
# 1 0.023254 -0.004053 -0.004261 0.000000 0.000000 0.000000
# 2 -0.004053 0.023254 -0.004261 0.000000 0.000000 0.000000
# 3 -0.004261 -0.004261 0.007412 0.000000 0.000000 0.000000
# 4 0.000000 0.000000 0.000000 0.050791 0.000000 0.000000
# 5 0.000000 0.000000 0.000000 0.000000 0.050791 0.000000
# 6 0.000000 0.000000 0.000000 0.000000 0.000000 0.054615
#
#
# Mechanical properties :
#
#
# Convention : Reuss Voigt Hill
#
# Bulk Modulus (GPa) = 34.75821 53.52619 44.14220
# Shear Modulus (GPa) = 20.42003 24.24577 22.33290
#
# Velocity S-wave (km/s) = 2.99747 3.26621 3.13472
# Velocity P-wave (km/s) = 5.22240 6.14620 5.70303
#
# Compressibility (1/GPa) = 0.02877018
#
# Stress axis : x y z
#
# Youngs Moduli (GPa) = 43.00307 43.00307 134.91160
#
# Poissons Ratio (x) = 0.17431 0.57485
# Poissons Ratio (y) = 0.17431 0.57485
# Poissons Ratio (z) = 0.18323 0.18323
#
# Static dielectric constant tensor:
#      x y z
#    x 1.854110 0.000000 0.000000 
#    y 0.000000 1.854110 0.000000 
#    z 0.000000 0.000000 2.015560 
# 
# From -- ./inp_files/3766.got.cif
#   From: 2010.05.17/outbox.cif.g08.bks.cpg/sg190_2_cif.got.tgz:3766.got - 2010.05.20 12:16:56.
