data_PCOD9586919
_publ_section_title
;
Structure prediction by ZEFSAII (Michael W. Deem and Ramdas Pophale) SiO2 
 PCOD9586919
Probable space group: P -6 2 C
;
_chemical_formula_sum "Si O2"
_cell_formula_units_Z 64
_cell_length_a 14.214923
_cell_length_b 14.214923
_cell_length_c 19.453401
_cell_angle_alpha 90.000000
_cell_angle_beta 90.000000
_cell_angle_gamma 120.000000
_cell_volume 3404.200992
_symmetry_space_group_name_H-M "P -6 2 C"
_symmetry_group_IT_number 190
_symmetry_cell_setting 'hexagonal'
loop_
_space_group_symop_operation_xyz
x,y,z
-x+y,-x,1/2-z
-y,x-y,z
x,y,1/2-z
-x+y,-x,z
-y,x-y,1/2-z
x-y,-y,-z
-x,-x+y,-z
y,x,-z
y,x,1/2+z
x-y,-y,1/2+z
-x,-x+y,1/2+z
loop_
_atom_site_type_symbol
_atom_site_label
_atom_site_fract_x
_atom_site_fract_y
_atom_site_fract_z
Si Si1 0.123837 0.876163 0.832973
Si Si2 0.451304 0.333891 0.970360
Si Si3 0.000000 0.000000 0.165503
Si Si4 0.451304 0.117412 0.970360
Si Si5 0.065928 0.715444 0.171426
Si Si6 0.934073 0.284556 0.671426
O O1 0.120535 0.879465 0.750000
O O2 0.061990 0.938010 0.858542
O O3 0.050986 0.749806 0.849676
O O4 0.250194 0.949014 0.849676
O O5 0.432117 0.216059 0.990237
O O6 0.570191 0.429809 0.991349
O O7 0.439692 0.334118 0.887520
O O8 0.365050 0.365050 0.000000
O O9 0.000000 0.000000 0.250000
O O10 0.439692 0.105574 0.887520
O O11 0.365049 0.000000 0.000000
O O12 0.062112 0.677747 0.250000
O O13 0.155171 0.844829 0.171828
O O14 0.937889 0.322253 0.750000
#
# Coordination Sequence:
#
# PCOD9586919 Si02
#       6
#    12  12   4  12  12  12
#     4   9  14  22  40  69 105 141 170 201 247 310
#     4  10  22  39  58  79 106 143 185 228 274 326
#     4   9  12  18  36  63 103 149 175 189 229 308
#     4  10  22  39  58  79 106 143 185 228 274 326
#     4   9  17  29  48  76 106 137 176 219 266 320
#     4   9  17  29  48  76 106 137 176 219 266 320
#
# _framework density 18.8003
#
# number of rings (size 3 to 8) (size 9 to 14) (size 15 to 20)
#    0.000    2.625    1.875    0.375    2.625    0.750 
#    0.000    0.000    0.000    2.625    0.000    0.000 
#    0.000    0.000    0.000    0.000    0.000    0.000 
#
# Total GULP energy -356360.990978 kJ/mol
# GULP energy per Si atom -5568.140484 kJ/mol
# Density = 1.875751 g / cm^3
# Si number density = 18.800300 Si / 1000 Ang^3
#
#
#
# Elastic Constant Matrix: (Units=GPa)
#
#
# Indices 1 2 3 4 5 6 
#
# 1 77.2005 52.7010 17.7246 0.0000 0.0000 0.0000
# 2 52.7010 77.2005 17.7246 0.0000 0.0000 0.0000
# 3 17.7246 17.7246 57.0046 0.0000 0.0000 0.0000
# 4 0.0000 0.0000 0.0000 18.3347 0.0000 0.0000
# 5 0.0000 0.0000 0.0000 0.0000 18.3347 0.0000
# 6 0.0000 0.0000 0.0000 0.0000 0.0000 12.2497
#
#
#
# Elastic Compliance Matrix: (Units=1/GPa)
#
#
# Indices 1 2 3 4 5 6 
#
# 1 0.024615 -0.016203 -0.002616 0.000000 0.000000 0.000000
# 2 -0.016203 0.024615 -0.002616 0.000000 0.000000 0.000000
# 3 -0.002616 -0.002616 0.019169 0.000000 0.000000 0.000000
# 4 0.000000 0.000000 0.000000 0.054541 0.000000 0.000000
# 5 0.000000 0.000000 0.000000 0.000000 0.054541 0.000000
# 6 0.000000 0.000000 0.000000 0.000000 0.000000 0.081634
#
#
# Mechanical properties :
#
#
# Convention : Reuss Voigt Hill
#
# Bulk Modulus (GPa) = 39.16865 43.07844 41.12354
# Shear Modulus (GPa) = 16.10343 18.00085 17.05214
#
# Velocity S-wave (km/s) = 2.92987 3.09767 3.01494
# Velocity P-wave (km/s) = 5.68549 5.97976 5.83448
#
# Compressibility (1/GPa) = 0.02553062
#
# Stress axis : x y z
#
# Youngs Moduli (GPa) = 40.62640 40.62640 52.16770
#
# Poissons Ratio (x) = 0.65825 0.13645
# Poissons Ratio (y) = 0.65825 0.13645
# Poissons Ratio (z) = 0.10626 0.10626
#
# Static dielectric constant tensor:
#      x y z
#    x 1.660170 0.000000 0.000000 
#    y 0.000000 1.660170 0.000000 
#    z 0.000000 0.000000 1.659620 
# 
# From -- ./inp_files/3679.got.cif
#   From: 2010.05.17/outbox.cif.g08.bks.cpg/sg190_2_cif.got.tgz:3679.got - 2010.05.20 12:16:56.
