data_PCOD9586889
_publ_section_title
;
Structure prediction by ZEFSAII (Michael W. Deem and Ramdas Pophale) SiO2 
 PCOD9586889
Probable space group: P -6 2 C
;
_chemical_formula_sum "Si O2"
_cell_formula_units_Z 28
_cell_length_a 10.510598
_cell_length_b 10.510598
_cell_length_c 13.222370
_cell_angle_alpha 90.000000
_cell_angle_beta 90.000000
_cell_angle_gamma 120.000000
_cell_volume 1265.012419
_symmetry_space_group_name_H-M "P -6 2 C"
_symmetry_group_IT_number 190
_symmetry_cell_setting 'hexagonal'
loop_
_space_group_symop_operation_xyz
x,y,z
-x+y,-x,1/2-z
-y,x-y,z
x,y,1/2-z
-x+y,-x,z
-y,x-y,1/2-z
x-y,-y,-z
-x,-x+y,-z
y,x,-z
y,x,1/2+z
x-y,-y,1/2+z
-x,-x+y,1/2+z
loop_
_atom_site_type_symbol
_atom_site_label
_atom_site_fract_x
_atom_site_fract_y
_atom_site_fract_z
Si Si1 0.225134 0.319453 0.364703
Si Si2 0.000000 0.000000 0.370910
Si Si3 0.710785 0.198070 0.068790
O O1 0.210662 0.360220 0.250000
O O2 0.351551 0.274239 0.369084
O O3 0.270011 0.440946 0.451012
O O4 0.079400 0.170806 0.398584
O O5 0.000000 0.000000 0.250000
O O6 0.818992 0.369998 0.089538
#
# Coordination Sequence:
#
# PCOD9586889 Si02
#       3
#    12   4  12
#     4  10  21  39  63  86 117 157 195 246 300 347
#     4   9  21  37  56  91 115 146 208 244 287 352
#     4   9  22  39  54  88 122 146 196 241 290 355
#
# _framework density 22.134167999999999
#
# number of rings (size 3 to 8) (size 9 to 14) (size 15 to 20)
#    0.857    1.714    0.000    0.000    0.000   17.143 
#    0.000    4.286    0.000    0.000    0.000    0.000 
#    0.000    0.000    0.000    0.000    0.000    0.000 
#
# Total GULP energy -156100.438902 kJ/mol
# GULP energy per Si atom -5575.015675 kJ/mol
# Density = 2.208379 g / cm^3
# Si number density = 22.134168 Si / 1000 Ang^3
#
#
#
# Elastic Constant Matrix: (Units=GPa)
#
#
# Indices 1 2 3 4 5 6 
#
# 1 51.2932 -4.0138 -18.0663 0.0000 0.0000 0.0000
# 2 -4.0138 51.2932 -18.0663 0.0000 0.0000 0.0000
# 3 -18.0663 -18.0663 87.2169 0.0000 0.0000 0.0000
# 4 0.0000 0.0000 0.0000 11.5601 0.0000 0.0000
# 5 0.0000 0.0000 0.0000 0.0000 11.5601 0.0000
# 6 0.0000 0.0000 0.0000 0.0000 0.0000 27.6535
#
#
#
# Elastic Compliance Matrix: (Units=1/GPa)
#
#
# Indices 1 2 3 4 5 6 
#
# 1 0.021605 0.003524 0.005205 0.000000 0.000000 0.000000
# 2 0.003524 0.021605 0.005205 0.000000 0.000000 0.000000
# 3 0.005205 0.005205 0.013622 0.000000 0.000000 0.000000
# 4 0.000000 0.000000 0.000000 0.086505 0.000000 0.000000
# 5 0.000000 0.000000 0.000000 0.000000 0.086505 0.000000
# 6 0.000000 0.000000 0.000000 0.000000 0.000000 0.036162
#
#
# Mechanical properties :
#
#
# Convention : Reuss Voigt Hill
#
# Bulk Modulus (GPa) = 11.80625 12.16784 11.98704
# Shear Modulus (GPa) = 18.77106 25.48471 22.12788
#
# Velocity S-wave (km/s) = 2.91530 3.39687 3.16526
# Velocity P-wave (km/s) = 4.08381 4.57102 4.33427
#
# Compressibility (1/GPa) = 0.08470092
#
# Stress axis : x y z
#
# Youngs Moduli (GPa) = 46.28580 46.28580 73.40997
#
# Poissons Ratio (x) = -0.16311 -0.38212
# Poissons Ratio (y) = -0.16311 -0.38212
# Poissons Ratio (z) = -0.24093 -0.24093
#
# Static dielectric constant tensor:
#      x y z
#    x 1.817320 0.000000 0.000000 
#    y 0.000000 1.817320 0.000000 
#    z 0.000000 0.000000 1.789440 
# 
# From -- ./inp_files/2197.got.cif
#   From: 2010.05.17/outbox.cif.g08.bks.cpg/sg190_2_cif.got.tgz:2197.got - 2010.05.20 12:16:56.
