data_PCOD9586665
_publ_section_title
;
Structure prediction by ZEFSAII (Michael W. Deem and Ramdas Pophale) SiO2 
 PCOD9586665
Probable space group: P -6 2 C
;
_chemical_formula_sum "Si O2"
_cell_formula_units_Z 72
_cell_length_a 24.430041
_cell_length_b 24.430041
_cell_length_c 8.575878
_cell_angle_alpha 90.000000
_cell_angle_beta 90.000000
_cell_angle_gamma 120.000000
_cell_volume 4432.590563
_symmetry_space_group_name_H-M "P -6 2 C"
_symmetry_group_IT_number 190
_symmetry_cell_setting 'hexagonal'
loop_
_space_group_symop_operation_xyz
x,y,z
-x+y,-x,1/2-z
-y,x-y,z
x,y,1/2-z
-x+y,-x,z
-y,x-y,1/2-z
x-y,-y,-z
-x,-x+y,-z
y,x,-z
y,x,1/2+z
x-y,-y,1/2+z
-x,-x+y,1/2+z
loop_
_atom_site_type_symbol
_atom_site_label
_atom_site_fract_x
_atom_site_fract_y
_atom_site_fract_z
Si Si1 0.854704 0.709868 0.938174
Si Si2 0.928218 0.406023 0.062074
Si Si3 0.638240 0.928635 0.436836
Si Si4 0.072173 0.596352 0.937285
Si Si5 0.928463 0.071527 0.937824
Si Si6 0.713314 0.641763 0.437217
O O1 0.853493 0.709784 0.750000
O O2 0.890764 0.672913 0.988663
O O3 0.891853 0.783298 0.987835
O O4 0.783602 0.673189 0.999151
O O5 0.930182 0.407354 0.250000
O O6 0.899686 0.450763 0.015210
O O7 0.901693 0.333423 0.014511
O O8 0.000000 0.441877 0.000000
O O9 0.638023 0.930856 0.250000
O O10 0.566391 0.899937 0.496163
O O11 0.678003 0.000000 0.500000
O O12 0.071099 0.599283 0.750000
O O13 0.000000 0.559516 0.000000
O O14 0.929604 0.070314 0.750000
O O15 0.000000 0.108279 0.000000
O O16 0.892261 0.000000 0.000000
O O17 0.714816 0.644801 0.250000
O O18 0.681285 0.681285 0.500000
#
# Coordination Sequence:
#
# PCOD9586665 Si02
#       6
#    12  12  12  12  12  12
#     4  10  22  36  49  68  95 125 157 196 241 293
#     4   8  15  26  41  64  91 118 146 176 209 252
#     4  10  19  31  46  66  93 122 155 192 231 278
#     4   9  15  25  42  64  91 119 147 176 211 255
#     4  11  23  39  56  72  90 116 155 204 258 309
#     4  10  19  31  48  68  93 124 156 190 231 279
#
# _framework density 16.243323
#
# number of rings (size 3 to 8) (size 9 to 14) (size 15 to 20)
#    0.000    2.333    0.000    4.167    0.000    5.333 
#    0.000    0.000    0.000    0.000    0.000    0.000 
#    1.667    0.000    1.000    0.000    1.333    0.000 
#
# Total GULP energy -401103.017609 kJ/mol
# GULP energy per Si atom -5570.875245 kJ/mol
# Density = 1.620635 g / cm^3
# Si number density = 16.243323 Si / 1000 Ang^3
#
#
#
# Elastic Constant Matrix: (Units=GPa)
#
#
# Indices 1 2 3 4 5 6 
#
# 1 132.8142 84.7817 27.1939 0.0000 0.0000 0.0000
# 2 84.7817 132.8142 27.1939 0.0000 0.0000 0.0000
# 3 27.1939 27.1939 28.2349 0.0000 0.0000 0.0000
# 4 0.0000 0.0000 0.0000 21.7080 0.0000 0.0000
# 5 0.0000 0.0000 0.0000 0.0000 21.7080 0.0000
# 6 0.0000 0.0000 0.0000 0.0000 0.0000 24.0163
#
#
#
# Elastic Compliance Matrix: (Units=1/GPa)
#
#
# Indices 1 2 3 4 5 6 
#
# 1 0.013436 -0.007383 -0.005830 0.000000 0.000000 0.000000
# 2 -0.007383 0.013436 -0.005830 0.000000 0.000000 0.000000
# 3 -0.005830 -0.005830 0.046647 0.000000 0.000000 0.000000
# 4 0.000000 0.000000 0.000000 0.046066 0.000000 0.000000
# 5 0.000000 0.000000 0.000000 0.000000 0.046066 0.000000
# 6 0.000000 0.000000 0.000000 0.000000 0.000000 0.041638
#
#
# Mechanical properties :
#
#
# Convention : Reuss Voigt Hill
#
# Bulk Modulus (GPa) = 28.22181 63.57805 45.89993
# Shear Modulus (GPa) = 19.44126 23.79937 21.62032
#
# Velocity S-wave (km/s) = 3.46334 3.83192 3.65228
# Velocity P-wave (km/s) = 5.77972 7.66839 6.79004
#
# Compressibility (1/GPa) = 0.03543359
#
# Stress axis : x y z
#
# Youngs Moduli (GPa) = 74.42686 74.42686 21.43783
#
# Poissons Ratio (x) = 0.54951 0.12497
# Poissons Ratio (y) = 0.54951 0.12497
# Poissons Ratio (z) = 0.43388 0.43388
#
# Static dielectric constant tensor:
#      x y z
#    x 1.556880 0.000000 0.000000 
#    y 0.000000 1.556880 0.000000 
#    z 0.000000 0.000000 1.554060 
# 
# From -- ./inp_files/1209.got.cif
#   From: 2010.05.17/outbox.cif.g08.bks.cpg/sg190_1_cif.got.tgz:1209.got - 2010.05.20 12:16:56.
