data_PCOD9586837
_publ_section_title
;
Structure prediction by ZEFSAII (Michael W. Deem and Ramdas Pophale) SiO2 
 PCOD9586837
Probable space group: P -6 2 C
;
_chemical_formula_sum "Si O2"
_cell_formula_units_Z 76
_cell_length_a 16.902875
_cell_length_b 16.902875
_cell_length_c 14.133858
_cell_angle_alpha 90.000000
_cell_angle_beta 90.000000
_cell_angle_gamma 120.000000
_cell_volume 3497.135944
_symmetry_space_group_name_H-M "P -6 2 C"
_symmetry_group_IT_number 190
_symmetry_cell_setting 'hexagonal'
loop_
_space_group_symop_operation_xyz
x,y,z
-x+y,-x,1/2-z
-y,x-y,z
x,y,1/2-z
-x+y,-x,z
-y,x-y,1/2-z
x-y,-y,-z
-x,-x+y,-z
y,x,-z
y,x,1/2+z
x-y,-y,1/2+z
-x,-x+y,1/2+z
loop_
_atom_site_type_symbol
_atom_site_label
_atom_site_fract_x
_atom_site_fract_y
_atom_site_fract_z
Si Si1 0.504297 0.048993 0.645124
Si Si2 0.346887 0.354255 0.394179
Si Si3 0.803377 0.197158 0.144961
Si Si4 0.666667 0.333334 0.134770
Si Si5 0.050452 0.186974 0.861226
Si Si6 0.477898 0.625802 0.548713
Si Si7 0.852265 0.060055 0.635049
O O1 0.477228 0.065301 0.750000
O O2 0.518840 0.119248 0.560622
O O3 0.600057 0.050452 0.655486
O O4 0.431400 0.946208 0.608739
O O5 0.380399 0.380399 0.500000
O O6 0.376021 0.281514 0.360367
O O7 0.237345 0.299454 0.396456
O O8 0.801353 0.233630 0.250000
O O9 0.893484 0.188748 0.135871
O O10 0.812143 0.267012 0.066008
O O11 0.666667 0.333334 0.250000
O O12 0.613363 0.383816 0.092994
O O13 0.037241 0.160139 0.750000
O O14 0.119505 0.154192 0.896533
O O15 0.948641 0.140805 0.900271
O O16 0.846235 0.058191 0.750000
#
# Coordination Sequence:
#
# PCOD9586837 Si02
#       7
#    12  12  12   4  12  12  12
#     4  11  23  45  68  92 131 173 212 271 342 408
#     4  11  21  38  61  92 125 170 219 270 319 392
#     4  10  20  38  64  93 129 169 217 276 327 377
#     4  12  24  42  73 104 130 165 219 282 328 386
#     4   8  15  28  51  84 122 165 212 259 308 364
#     4  11  24  42  68 102 128 164 219 274 336 401
#     4   9  16  30  53  83 119 167 218 260 310 372
#
# _framework density 21.732068000000002
#
# number of rings (size 3 to 8) (size 9 to 14) (size 15 to 20)
#    0.000    1.895    1.579    5.053    0.000    1.263 
#    5.684    3.158    0.000    0.000    0.000    0.000 
#    0.000    0.000    0.000    0.000    0.000    0.000 
#
# Total GULP energy -424332.815217 kJ/mol
# GULP energy per Si atom -5583.326516 kJ/mol
# Density = 2.168261 g / cm^3
# Si number density = 21.732068 Si / 1000 Ang^3
#
#
#
# Elastic Constant Matrix: (Units=GPa)
#
#
# Indices 1 2 3 4 5 6 
#
# 1 57.8775 20.8359 30.3934 0.0000 0.0000 0.0000
# 2 20.8359 57.8775 30.3934 -0.0001 0.0000 -0.0001
# 3 30.3934 30.3934 162.5137 0.0000 0.0000 0.0000
# 4 0.0000 -0.0001 0.0000 25.6394 0.0000 0.0000
# 5 0.0000 0.0000 0.0000 0.0000 25.6395 0.0000
# 6 0.0000 -0.0001 0.0000 0.0000 0.0000 18.5208
#
#
#
# Elastic Compliance Matrix: (Units=1/GPa)
#
#
# Indices 1 2 3 4 5 6 
#
# 1 0.020923 -0.006074 -0.002777 0.000000 0.000000 0.000000
# 2 -0.006074 0.020923 -0.002777 0.000000 0.000000 0.000000
# 3 -0.002777 -0.002777 0.007192 0.000000 0.000000 0.000000
# 4 0.000000 0.000000 0.000000 0.039003 0.000000 0.000000
# 5 0.000000 0.000000 0.000000 0.000000 0.039002 0.000000
# 6 0.000000 0.000000 0.000000 0.000000 0.000000 0.053993
#
#
# Mechanical properties :
#
#
# Convention : Reuss Voigt Hill
#
# Bulk Modulus (GPa) = 38.78722 49.05712 43.92217
# Shear Modulus (GPa) = 23.48677 27.06966 25.27821
#
# Velocity S-wave (km/s) = 3.29103 3.53315 3.41424
# Velocity P-wave (km/s) = 5.68576 6.26632 5.98309
#
# Compressibility (1/GPa) = 0.02578169
#
# Stress axis : x y z
#
# Youngs Moduli (GPa) = 47.79478 47.79479 139.04222
#
# Poissons Ratio (x) = 0.29030 0.38613
# Poissons Ratio (y) = 0.29030 0.38613
# Poissons Ratio (z) = 0.13273 0.13273
#
# Static dielectric constant tensor:
#      x y z
#    x 1.809450 0.000000 0.000000 
#    y 0.000000 1.809450 0.000000 
#    z 0.000000 0.000000 1.830500 
# 
# From -- ./inp_files/3059.got.cif
#   From: 2010.05.17/outbox.cif.g08.bks.cpg/sg190_2_cif.got.tgz:3059.got - 2010.05.20 12:16:56.
