data_PCOD9586292
_publ_section_title
;
Structure prediction by ZEFSAII (Michael W. Deem and Ramdas Pophale) SiO2 
 PCOD9586292
Probable space group: P -6 2 M
;
_chemical_formula_sum "Si O2"
_cell_formula_units_Z 75
_cell_length_a 17.629206
_cell_length_b 17.629206
_cell_length_c 13.589440
_cell_angle_alpha 90.000000
_cell_angle_beta 90.000000
_cell_angle_gamma 120.000000
_cell_volume 3657.612537
_symmetry_space_group_name_H-M "P -6 2 M"
_symmetry_group_IT_number 189
_symmetry_cell_setting 'hexagonal'
loop_
_space_group_symop_operation_xyz
x,y,z
-x+y,-x,-z
-y,x-y,z
x,y,-z
-x+y,-x,z
-y,x-y,-z
x-y,-y,-z
-x,-x+y,-z
y,x,-z
y,x,z
x-y,-y,z
-x,-x+y,z
loop_
_atom_site_type_symbol
_atom_site_label
_atom_site_fract_x
_atom_site_fract_y
_atom_site_fract_z
Si Si1 0.135667 0.621046 0.325320
Si Si2 0.291210 0.798722 0.383868
Si Si3 0.790431 0.896227 0.888960
Si Si4 0.689006 0.526154 0.893758
Si Si5 0.900442 0.232836 0.736014
Si Si6 0.501235 0.356813 0.890797
Si Si7 0.588605 0.000000 0.500000
O O1 0.234210 0.702935 0.337333
O O2 0.146797 0.536281 0.341416
O O3 0.101554 0.628565 0.217241
O O4 0.076090 0.622079 0.413080
O O5 0.298624 0.792001 0.500000
O O6 0.235513 0.845707 0.355786
O O7 0.848653 0.848653 0.885057
O O8 0.719877 0.854234 0.801929
O O9 0.850765 0.000000 0.877225
O O10 0.751412 0.880237 0.000000
O O11 0.699572 0.594388 0.811499
O O12 0.603102 0.431706 0.888321
O O13 0.772501 0.512772 0.888522
O O14 0.687567 0.564106 0.000000
O O15 0.000000 0.266657 0.707870
O O16 0.468148 0.365703 0.000000
#
# Coordination Sequence:
#
# PCOD9586292 Si02
#       7
#    12  12  12  12  12  12   3
#     4  12  23  43  64  93 120 159 213 266 312 364
#     4  12  24  42  65  90 117 162 212 265 317 364
#     4   9  18  36  62  92 122 157 203 253 308 372
#     4  10  19  33  55  86 119 158 201 245 293 355
#     4  11  23  36  57  88 124 161 196 250 312 376
#     4  10  19  34  58  86 118 155 201 245 299 367
#     4  12  28  40  66  88 122 158 208 280 312 356
#
# _framework density 20.505179999999999
#
# number of rings (size 3 to 8) (size 9 to 14) (size 15 to 20)
#    0.000    1.280    4.800    1.280    1.120    3.200 
#    1.440    0.400    0.000    0.000    0.000    0.000 
#    0.000    1.280    0.000    0.000    0.000    0.000 
#
# Total GULP energy -417533.749030 kJ/mol
# GULP energy per Si atom -5567.116654 kJ/mol
# Density = 2.045851 g / cm^3
# Si number density = 20.505180 Si / 1000 Ang^3
#
#
#
# Elastic Constant Matrix: (Units=GPa)
#
#
# Indices 1 2 3 4 5 6 
#
# 1 31.9613 0.6368 3.0138 0.0000 0.0000 0.0000
# 2 0.6368 31.9613 3.0138 0.0000 0.0000 0.0000
# 3 3.0138 3.0138 158.9897 0.0000 0.0000 0.0000
# 4 0.0000 0.0000 0.0000 18.1949 0.0000 0.0000
# 5 0.0000 0.0000 0.0000 0.0000 18.1949 0.0000
# 6 0.0000 0.0000 0.0000 0.0000 0.0000 15.6623
#
#
#
# Elastic Compliance Matrix: (Units=1/GPa)
#
#
# Indices 1 2 3 4 5 6 
#
# 1 0.031354 -0.000570 -0.000584 0.000000 0.000000 0.000000
# 2 -0.000570 0.031354 -0.000584 0.000000 0.000000 0.000000
# 3 -0.000584 -0.000584 0.006312 0.000000 0.000000 0.000000
# 4 0.000000 0.000000 0.000000 0.054960 0.000000 0.000000
# 5 0.000000 0.000000 0.000000 0.000000 0.054960 0.000000
# 6 0.000000 0.000000 0.000000 0.000000 0.000000 0.063848
#
#
# Mechanical properties :
#
#
# Convention : Reuss Voigt Hill
#
# Bulk Modulus (GPa) = 15.25630 26.24899 20.75264
# Shear Modulus (GPa) = 18.64900 24.82697 21.73798
#
# Velocity S-wave (km/s) = 3.01903 3.48338 3.25948
# Velocity P-wave (km/s) = 4.42821 5.38586 4.93034
#
# Compressibility (1/GPa) = 0.06554671
#
# Stress axis : x y z
#
# Youngs Moduli (GPa) = 31.89367 31.89367 158.43242
#
# Poissons Ratio (x) = 0.01817 0.09245
# Poissons Ratio (y) = 0.01817 0.09245
# Poissons Ratio (z) = 0.01861 0.01861
#
# Static dielectric constant tensor:
#      x y z
#    x 1.730510 0.000000 0.000000 
#    y 0.000000 1.730510 0.000000 
#    z 0.000000 0.000000 1.781390 
# 
# From -- ./inp_files/2749.got.cif
#   From: 2010.05.17/outbox.cif.g08.bks.cpg/sg189_2_cif.got.tgz:2749.got - 2010.05.20 12:14:34.
