data_PCOD9586859
_publ_section_title
;
Structure prediction by ZEFSAII (Michael W. Deem and Ramdas Pophale) SiO2 
 PCOD9586859
Probable space group: P -6 2 C
;
_chemical_formula_sum "Si O2"
_cell_formula_units_Z 60
_cell_length_a 13.717758
_cell_length_b 13.717758
_cell_length_c 16.967240
_cell_angle_alpha 90.000000
_cell_angle_beta 90.000000
_cell_angle_gamma 120.000000
_cell_volume 2765.082596
_symmetry_space_group_name_H-M "P -6 2 C"
_symmetry_group_IT_number 190
_symmetry_cell_setting 'hexagonal'
loop_
_space_group_symop_operation_xyz
x,y,z
-x+y,-x,1/2-z
-y,x-y,z
x,y,1/2-z
-x+y,-x,z
-y,x-y,1/2-z
x-y,-y,-z
-x,-x+y,-z
y,x,-z
y,x,1/2+z
x-y,-y,1/2+z
-x,-x+y,1/2+z
loop_
_atom_site_type_symbol
_atom_site_label
_atom_site_fract_x
_atom_site_fract_y
_atom_site_fract_z
Si Si1 0.202633 0.064747 0.078486
Si Si2 0.772514 0.540612 0.422886
Si Si3 0.899354 0.552417 0.938148
Si Si4 0.076307 0.543982 0.842603
Si Si5 0.156288 0.248166 0.341949
O O1 0.331667 0.143365 0.055336
O O2 0.163738 0.145192 0.118231
O O3 0.189394 0.969919 0.139712
O O4 0.137407 0.000000 0.000000
O O5 0.793338 0.489256 0.503273
O O6 0.650445 0.491008 0.384752
O O7 0.857146 0.536237 0.358278
O O8 0.883326 0.635860 0.881262
O O9 0.956024 0.494161 0.887178
O O10 0.000000 0.626779 0.000000
O O11 0.064124 0.519391 0.750000
O O12 0.177621 0.250482 0.250000
#
# Coordination Sequence:
#
# PCOD9586859 Si02
#       5
#    12  12  12  12  12
#     4  12  23  41  65  93 138 181 225 268 334 426
#     4  11  24  43  68  99 136 180 237 292 358 421
#     4  10  20  42  63  94 134 181 217 275 356 427
#     4  11  23  41  72 104 137 177 238 305 362 410
#     4  12  23  38  61  97 138 179 220 272 339 408
#
# _framework density 21.699169000000001
#
# number of rings (size 3 to 8) (size 9 to 14) (size 15 to 20)
#    0.000    0.800    6.000    3.200    0.000    4.800 
#    0.000    0.000    0.000    0.000    0.000    0.000 
#    0.000    0.000    0.000    0.000    0.000    0.000 
#
# Total GULP energy -335110.445399 kJ/mol
# GULP energy per Si atom -5585.174090 kJ/mol
# Density = 2.164978 g / cm^3
# Si number density = 21.699169 Si / 1000 Ang^3
#
#
#
# Elastic Constant Matrix: (Units=GPa)
#
#
# Indices 1 2 3 4 5 6 
#
# 1 44.6430 23.1831 41.9567 0.0000 0.0000 0.0000
# 2 23.1831 44.6430 41.9567 0.0000 0.0000 0.0000
# 3 41.9567 41.9567 190.6075 0.0000 0.0000 0.0000
# 4 0.0000 0.0000 0.0000 28.9050 0.0000 0.0000
# 5 0.0000 0.0000 0.0000 0.0000 28.9050 0.0000
# 6 0.0000 0.0000 0.0000 0.0000 0.0000 10.7300
#
#
#
# Elastic Compliance Matrix: (Units=1/GPa)
#
#
# Indices 1 2 3 4 5 6 
#
# 1 0.033430 -0.013169 -0.004460 0.000000 0.000000 0.000000
# 2 -0.013169 0.033430 -0.004460 0.000000 0.000000 0.000000
# 3 -0.004460 -0.004460 0.007210 0.000000 0.000000 0.000000
# 4 0.000000 0.000000 0.000000 0.034596 0.000000 0.000000
# 5 0.000000 0.000000 0.000000 0.000000 0.034596 0.000000
# 6 0.000000 0.000000 0.000000 0.000000 0.000000 0.093197
#
#
# Mechanical properties :
#
#
# Convention : Reuss Voigt Hill
#
# Bulk Modulus (GPa) = 33.45288 54.89848 44.17568
# Shear Modulus (GPa) = 17.20577 25.22778 21.21678
#
# Velocity S-wave (km/s) = 2.81894 3.41341 3.13032
# Velocity P-wave (km/s) = 5.10347 6.39452 5.78512
#
# Compressibility (1/GPa) = 0.02989279
#
# Stress axis : x y z
#
# Youngs Moduli (GPa) = 29.91331 29.91331 138.69941
#
# Poissons Ratio (x) = 0.39392 0.61859
# Poissons Ratio (y) = 0.39392 0.61859
# Poissons Ratio (z) = 0.13341 0.13341
#
# Static dielectric constant tensor:
#      x y z
#    x 1.856080 0.000000 0.000000 
#    y 0.000000 1.856080 0.000000 
#    z 0.000000 0.000000 1.788400 
# 
# From -- ./inp_files/2815.got.cif
#   From: 2010.05.17/outbox.cif.g08.bks.cpg/sg190_2_cif.got.tgz:2815.got - 2010.05.20 12:16:56.
