data_PCOD9586752
_publ_section_title
;
Structure prediction by ZEFSAII (Michael W. Deem and Ramdas Pophale) SiO2 
 PCOD9586752
Probable space group: P -6 2 C
;
_chemical_formula_sum "Si O2"
_cell_formula_units_Z 52
_cell_length_a 11.448658
_cell_length_b 11.448658
_cell_length_c 22.608598
_cell_angle_alpha 90.000000
_cell_angle_beta 90.000000
_cell_angle_gamma 120.000000
_cell_volume 2566.335477
_symmetry_space_group_name_H-M "P -6 2 C"
_symmetry_group_IT_number 190
_symmetry_cell_setting 'hexagonal'
loop_
_space_group_symop_operation_xyz
x,y,z
-x+y,-x,1/2-z
-y,x-y,z
x,y,1/2-z
-x+y,-x,z
-y,x-y,1/2-z
x-y,-y,-z
-x,-x+y,-z
y,x,-z
y,x,1/2+z
x-y,-y,1/2+z
-x,-x+y,1/2+z
loop_
_atom_site_type_symbol
_atom_site_label
_atom_site_fract_x
_atom_site_fract_y
_atom_site_fract_z
Si Si1 0.183964 0.364342 0.861428
Si Si2 0.666668 0.333335 0.179789
Si Si3 0.706972 0.108849 0.617443
Si Si4 0.794193 0.504142 0.750000
Si Si5 0.421889 0.048605 0.933255
Si Si6 0.064072 0.175017 0.750000
O O1 0.290148 0.516592 0.841510
O O2 0.266101 0.299345 0.890002
O O3 0.103815 0.270175 0.806269
O O4 0.076997 0.374230 0.902170
O O5 0.666667 0.333334 0.250000
O O6 0.725466 0.147609 0.687604
O O7 0.563215 0.087287 0.597236
O O8 0.822806 0.226055 0.578292
O O9 0.807606 0.368556 0.750000
O O10 0.417752 0.000000 0.000000
O O11 0.142879 0.089942 0.750000
#
# Coordination Sequence:
#
# PCOD9586752 Si02
#       6
#    12   4  12   6  12   6
#     4  12  25  45  71 107 149 189 243 304 379 447
#     4  12  24  42  69 114 150 189 222 304 389 457
#     4  12  25  48  76 110 146 194 244 315 368 449
#     4  10  19  41  72 112 145 182 248 304 370 438
#     4  12  29  47  76 105 143 199 253 301 369 448
#     4  10  23  43  70 106 143 190 240 304 384 456
#
# _framework density 20.262356
#
# number of rings (size 3 to 8) (size 9 to 14) (size 15 to 20)
#    0.462    0.000    5.769    2.538    3.231    1.846 
#    1.385    0.000    0.000    0.000    0.000    0.000 
#    0.000    0.000    0.000    0.000    0.000    0.000 
#
# Total GULP energy -290783.038843 kJ/mol
# GULP energy per Si atom -5591.981516 kJ/mol
# Density = 2.021624 g / cm^3
# Si number density = 20.262356 Si / 1000 Ang^3
#
#
#
# Elastic Constant Matrix: (Units=GPa)
#
#
# Indices 1 2 3 4 5 6 
#
# 1 79.1750 -5.5922 28.8902 0.0001 0.0000 0.0009
# 2 -5.5922 79.1762 28.8905 -0.0002 0.0000 -0.0007
# 3 28.8902 28.8905 81.8284 -0.0001 0.0000 0.0001
# 4 0.0001 -0.0002 -0.0001 14.9048 0.0000 0.0000
# 5 0.0000 0.0000 0.0000 0.0000 14.9048 -0.0001
# 6 0.0009 -0.0007 0.0001 0.0000 -0.0001 42.3806
#
#
#
# Elastic Compliance Matrix: (Units=1/GPa)
#
#
# Indices 1 2 3 4 5 6 
#
# 1 0.015300 0.003503 -0.006639 0.000000 0.000000 0.000000
# 2 0.003503 0.015300 -0.006639 0.000000 0.000000 0.000000
# 3 -0.006639 -0.006639 0.016908 0.000000 0.000000 0.000000
# 4 0.000000 0.000000 0.000000 0.067092 0.000000 0.000000
# 5 0.000000 0.000000 0.000000 0.000000 0.067092 0.000000
# 6 0.000000 0.000000 0.000000 0.000000 0.000000 0.023596
#
#
# Mechanical properties :
#
#
# Convention : Reuss Voigt Hill
#
# Bulk Modulus (GPa) = 35.76552 38.28404 37.02478
# Shear Modulus (GPa) = 21.35322 26.97079 24.16201
#
# Velocity S-wave (km/s) = 3.24981 3.65235 3.45694
# Velocity P-wave (km/s) = 5.63659 6.05982 5.85204
#
# Compressibility (1/GPa) = 0.02795989
#
# Stress axis : x y z
#
# Youngs Moduli (GPa) = 65.35947 65.36034 59.14256
#
# Poissons Ratio (x) = -0.22896 0.39262
# Poissons Ratio (y) = -0.22895 0.39262
# Poissons Ratio (z) = 0.43389 0.43390
#
# Static dielectric constant tensor:
#      x y z
#    x 1.737100 0.000000 0.000000 
#    y 0.000000 1.737100 0.000000 
#    z 0.000000 0.000000 1.691250 
# 
# From -- ./inp_files/4239.got.cif
#   From: 2010.05.17/outbox.cif.g08.bks.cpg/sg190_3_cif.got.tgz:4239.got - 2010.05.20 12:16:56.
