data_PCOD9586627
_publ_section_title
;
Structure prediction by ZEFSAII (Michael W. Deem and Ramdas Pophale) SiO2 
 PCOD9586627
Probable space group: P -6 2 C
;
_chemical_formula_sum "Si O2"
_cell_formula_units_Z 52
_cell_length_a 14.835583
_cell_length_b 14.835583
_cell_length_c 13.141440
_cell_angle_alpha 90.000000
_cell_angle_beta 90.000000
_cell_angle_gamma 120.000000
_cell_volume 2504.856343
_symmetry_space_group_name_H-M "P -6 2 C"
_symmetry_group_IT_number 190
_symmetry_cell_setting 'hexagonal'
loop_
_space_group_symop_operation_xyz
x,y,z
-x+y,-x,1/2-z
-y,x-y,z
x,y,1/2-z
-x+y,-x,z
-y,x-y,1/2-z
x-y,-y,-z
-x,-x+y,-z
y,x,-z
y,x,1/2+z
x-y,-y,1/2+z
-x,-x+y,1/2+z
loop_
_atom_site_type_symbol
_atom_site_label
_atom_site_fract_x
_atom_site_fract_y
_atom_site_fract_z
Si Si1 0.173161 0.444359 0.633211
Si Si2 0.000000 0.000000 0.872622
Si Si3 0.232318 0.165090 0.372789
Si Si4 0.924707 0.600675 0.867302
Si Si5 0.865348 0.477722 0.064060
O O1 0.136079 0.433676 0.750000
O O2 0.155900 0.332722 0.595873
O O3 0.297242 0.522587 0.629212
O O4 0.128590 0.502297 0.565270
O O5 0.070912 0.120575 0.902643
O O6 0.000000 0.000000 0.750000
O O7 0.238421 0.165908 0.250000
O O8 0.244095 0.278190 0.395488
O O9 0.889426 0.581295 0.750000
O O10 0.030638 0.596840 0.882014
O O11 0.854304 0.518564 0.952794
#
# Coordination Sequence:
#
# PCOD9586627 Si02
#       5
#    12   4  12  12  12
#     4  10  18  31  52  83 110 137 184 243 290 336
#     4   9  15  30  57  88 116 157 199 230 274 334
#     4   8  16  30  53  81 113 147 190 236 278 331
#     4   9  18  35  54  77 109 149 186 228 282 346
#     4  10  19  32  56  79 105 142 185 232 291 347
#
# _framework density 20.759675000000001
#
# number of rings (size 3 to 8) (size 9 to 14) (size 15 to 20)
#    0.000    2.769    0.000    3.923    0.000    0.000 
#    0.000    5.769    0.000   23.538    0.000    0.000 
#    0.000    0.000    0.000    4.154    0.000    0.462 
#
# Total GULP energy -289626.928280 kJ/mol
# GULP energy per Si atom -5569.748621 kJ/mol
# Density = 2.071242 g / cm^3
# Si number density = 20.759675 Si / 1000 Ang^3
#
#
#
# Elastic Constant Matrix: (Units=GPa)
#
#
# Indices 1 2 3 4 5 6 
#
# 1 98.4155 54.4212 19.6066 0.0000 0.0000 0.0000
# 2 54.4212 98.4155 19.6066 0.0000 0.0000 0.0000
# 3 19.6066 19.6066 117.5099 0.0000 0.0000 0.0000
# 4 0.0000 0.0000 0.0000 19.4600 0.0000 0.0000
# 5 0.0000 0.0000 0.0000 0.0000 19.4600 0.0000
# 6 0.0000 0.0000 0.0000 0.0000 0.0000 21.9971
#
#
#
# Elastic Compliance Matrix: (Units=1/GPa)
#
#
# Indices 1 2 3 4 5 6 
#
# 1 0.014783 -0.007947 -0.001141 0.000000 0.000000 0.000000
# 2 -0.007947 0.014783 -0.001141 0.000000 0.000000 0.000000
# 3 -0.001141 -0.001141 0.008891 0.000000 0.000000 0.000000
# 4 0.000000 0.000000 0.000000 0.051387 0.000000 0.000000
# 5 0.000000 0.000000 0.000000 0.000000 0.051387 0.000000
# 6 0.000000 0.000000 0.000000 0.000000 0.000000 0.045460
#
#
# Mechanical properties :
#
#
# Convention : Reuss Voigt Hill
#
# Bulk Modulus (GPa) = 55.55692 55.73440 55.64566
# Shear Modulus (GPa) = 23.45785 26.89719 25.17752
#
# Velocity S-wave (km/s) = 3.36515 3.60341 3.48632
# Velocity P-wave (km/s) = 6.47449 6.64970 6.56268
#
# Compressibility (1/GPa) = 0.01799956
#
# Stress axis : x y z
#
# Youngs Moduli (GPa) = 67.64578 67.64578 112.47943
#
# Poissons Ratio (x) = 0.53760 0.12828
# Poissons Ratio (y) = 0.53760 0.12828
# Poissons Ratio (z) = 0.07715 0.07715
#
# Static dielectric constant tensor:
#      x y z
#    x 1.802170 0.000000 0.000000 
#    y 0.000000 1.802170 0.000000 
#    z 0.000000 0.000000 1.841870 
# 
# From -- ./inp_files/2675.got.cif
#   From: 2010.05.17/outbox.cif.g08.bks.cpg/sg190_2_cif.got.tgz:2675.got - 2010.05.20 12:16:56.
