data_PCOD9586679
_publ_section_title
;
Structure prediction by ZEFSAII (Michael W. Deem and Ramdas Pophale) SiO2 
 PCOD9586679
Probable space group: P -6 2 C
;
_chemical_formula_sum "Si O2"
_cell_formula_units_Z 24
_cell_length_a 11.408198
_cell_length_b 11.408198
_cell_length_c 9.596713
_cell_angle_alpha 90.000000
_cell_angle_beta 90.000000
_cell_angle_gamma 120.000000
_cell_volume 1081.651206
_symmetry_space_group_name_H-M "P -6 2 C"
_symmetry_group_IT_number 190
_symmetry_cell_setting 'hexagonal'
loop_
_space_group_symop_operation_xyz
x,y,z
-x+y,-x,1/2-z
-y,x-y,z
x,y,1/2-z
-x+y,-x,z
-y,x-y,1/2-z
x-y,-y,-z
-x,-x+y,-z
y,x,-z
y,x,1/2+z
x-y,-y,1/2+z
-x,-x+y,1/2+z
loop_
_atom_site_type_symbol
_atom_site_label
_atom_site_fract_x
_atom_site_fract_y
_atom_site_fract_z
Si Si1 0.258854 0.124465 0.915492
Si Si2 0.158043 0.570774 0.750000
Si Si3 0.419863 0.419863 0.500000
O O1 0.232755 0.097479 0.750000
O O2 0.150601 0.150601 0.000000
O O3 0.388882 0.274671 0.935879
O O4 0.252165 0.000000 0.000000
O O5 0.254654 0.735204 0.750000
O O6 0.066500 0.535448 0.616825
#
# Coordination Sequence:
#
# PCOD9586679 Si02
#       3
#    12   6   6
#     4  10  19  31  56  89 138 179 217 277 349 413
#     4  10  24  48  74  98 136 188 242 292 346 440
#     4  10  20  46  64  98 142 176 230 308 336 416
#
# _framework density 22.188299000000001
#
# number of rings (size 3 to 8) (size 9 to 14) (size 15 to 20)
#    2.000    0.000    2.500    2.000    3.500    0.000 
#    4.500    2.500    0.000    0.000    0.000    0.000 
#    0.000    0.000    0.000    0.000    0.000    0.000 
#
# Total GULP energy -133705.645937 kJ/mol
# GULP energy per Si atom -5571.068581 kJ/mol
# Density = 2.213780 g / cm^3
# Si number density = 22.188299 Si / 1000 Ang^3
#
#
#
# Elastic Constant Matrix: (Units=GPa)
#
#
# Indices 1 2 3 4 5 6 
#
# 1 73.1176 21.2373 54.8670 0.0000 0.0000 0.0000
# 2 21.2373 73.1176 54.8670 0.0000 0.0000 0.0000
# 3 54.8670 54.8670 247.6662 0.0000 0.0000 0.0000
# 4 0.0000 0.0000 0.0000 -6.5725 0.0000 0.0000
# 5 0.0000 0.0000 0.0000 0.0000 -6.5725 0.0000
# 6 0.0000 0.0000 0.0000 0.0000 0.0000 25.9401
#
#
#
# Elastic Compliance Matrix: (Units=1/GPa)
#
#
# Indices 1 2 3 4 5 6 
#
# 1 0.016776 -0.002499 -0.003163 0.000000 0.000000 0.000000
# 2 -0.002499 0.016776 -0.003163 0.000000 0.000000 0.000000
# 3 -0.003163 -0.003163 0.005439 0.000000 0.000000 0.000000
# 4 0.000000 0.000000 0.000000 -0.152149 0.000000 0.000000
# 5 0.000000 0.000000 0.000000 0.000000 -0.152149 0.000000
# 6 0.000000 0.000000 0.000000 0.000000 0.000000 0.038550
#
#
# Mechanical properties :
#
#
# Convention : Reuss Voigt Hill
#
# Bulk Modulus (GPa) = 46.85803 72.87155 59.86479
# Shear Modulus (GPa) = -24.75326 20.08769 -2.33279
#
# Velocity S-wave (km/s) = -3.34368 3.01213 -1.02647
# Velocity P-wave (km/s) = 2.50145 6.70901 5.06301
#
# Compressibility (1/GPa) = 0.02134106
#
# Stress axis : x y z
#
# Youngs Moduli (GPa) = 59.60945 59.60945 183.85631
#
# Poissons Ratio (x) = 0.14898 0.58150
# Poissons Ratio (y) = 0.14898 0.58150
# Poissons Ratio (z) = 0.18853 0.18853
#
# Static dielectric constant tensor:
#      x y z
#    x 1.845220 0.000000 0.000000 
#    y 0.000000 1.845220 0.000000 
#    z 0.000000 0.000000 1.742450 
# 
# From -- ./inp_files/302.got.cif
#   From: 2010.05.17/outbox.cif.g08.bks.cpg/sg190_1_cif.got.tgz:302.got - 2010.05.20 12:16:56.
