data_PCOD9586589
_publ_section_title
;
Structure prediction by ZEFSAII (Michael W. Deem and Ramdas Pophale) SiO2 
 PCOD9586589
Probable space group: P -6 2 M
;
_chemical_formula_sum "Si O2"
_cell_formula_units_Z 72
_cell_length_a 24.000000
_cell_length_b 24.000000
_cell_length_c 9.000000
_cell_angle_alpha 90.000000
_cell_angle_beta 90.000000
_cell_angle_gamma 120.000000
_cell_volume 4489.475693
_symmetry_space_group_name_H-M "P -6 2 M"
_symmetry_group_IT_number 189
_symmetry_cell_setting 'hexagonal'
loop_
_space_group_symop_operation_xyz
x,y,z
-x+y,-x,-z
-y,x-y,z
x,y,-z
-x+y,-x,z
-y,x-y,-z
x-y,-y,-z
-x,-x+y,-z
y,x,-z
y,x,z
x-y,-y,z
-x,-x+y,z
loop_
_atom_site_type_symbol
_atom_site_label
_atom_site_fract_x
_atom_site_fract_y
_atom_site_fract_z
Si Si1 0.485389 0.335915 0.322635
Si Si2 0.000000 0.287689 0.819853
Si Si3 0.482068 0.217656 0.175574
Si Si4 0.410250 0.000000 0.321943
Si Si5 0.810925 0.669501 0.176622
Si Si6 0.468085 0.589563 0.177530
Si Si7 0.664891 0.926282 0.321225
O O1 0.491818 0.345299 0.500000
O O2 0.499977 0.280091 0.272059
O O3 0.532912 0.401222 0.238959
O O4 0.410332 0.308547 0.281810
O O5 0.933344 0.223939 0.779130
O O6 0.000000 0.348128 0.744628
O O7 0.000000 0.295201 0.000000
O O8 0.406433 0.167028 0.204228
O O9 0.523303 0.183244 0.205501
O O10 0.487666 0.234210 0.000000
O O11 0.408797 0.000000 0.500000
O O12 0.411498 0.937992 0.260148
O O13 0.876666 0.685047 0.256190
O O14 0.822281 0.676802 0.000000
O O15 0.473443 0.583711 0.000000
O O16 0.667741 0.924906 0.500000
O O17 0.708133 0.000000 0.271319
#
# Coordination Sequence:
#
# PCOD9586589 Si02
#       7
#    12   6  12   6  12  12  12
#     4  10  21  35  53  76 101 130 171 220 268 314
#     4  10  18  34  54  78 110 140 166 205 258 309
#     4   9  18  35  55  71  94 131 170 211 260 313
#     4  12  24  34  52  80 108 136 170 215 268 319
#     4   9  17  31  53  77 103 132 167 204 246 300
#     4  11  22  38  56  75 102 136 176 218 265 321
#     4   9  19  35  52  72 105 141 169 206 255 299
#
# _framework density 16.037507000000002
#
# number of rings (size 3 to 8) (size 9 to 14) (size 15 to 20)
#    0.000    2.167    1.667    1.750    1.167    3.000 
#    1.000    0.000    0.000    0.000    0.000    0.000 
#    0.833    0.000    0.500    0.000    0.667    0.000 
#
# Total GULP energy -401713.860681 kJ/mol
# GULP energy per Si atom -5579.359176 kJ/mol
# Density = 1.600101 g / cm^3
# Si number density = 16.037507 Si / 1000 Ang^3
#
#
#
# Elastic Constant Matrix: (Units=GPa)
#
#
# Indices 1 2 3 4 5 6 
#
# 1 111.2036 74.0474 45.9549 0.0000 0.0000 0.0000
# 2 74.0474 111.2036 45.9549 0.0000 0.0000 0.0000
# 3 45.9549 45.9549 48.6610 0.0000 0.0000 0.0000
# 4 0.0000 0.0000 0.0000 22.3294 0.0000 0.0000
# 5 0.0000 0.0000 0.0000 0.0000 22.3294 0.0000
# 6 0.0000 0.0000 0.0000 0.0000 0.0000 18.5781
#
#
#
# Elastic Compliance Matrix: (Units=1/GPa)
#
#
# Indices 1 2 3 4 5 6 
#
# 1 0.018535 -0.008378 -0.009592 0.000000 0.000000 0.000000
# 2 -0.008378 0.018535 -0.009592 0.000000 0.000000 0.000000
# 3 -0.009592 -0.009592 0.038668 0.000000 0.000000 0.000000
# 4 0.000000 0.000000 0.000000 0.044784 0.000000 0.000000
# 5 0.000000 0.000000 0.000000 0.000000 0.044784 0.000000
# 6 0.000000 0.000000 0.000000 0.000000 0.000000 0.053827
#
#
# Mechanical properties :
#
#
# Convention : Reuss Voigt Hill
#
# Bulk Modulus (GPa) = 48.51269 66.99806 57.75537
# Shear Modulus (GPa) = 17.78536 19.65479 18.72008
#
# Velocity S-wave (km/s) = 3.33376 3.50459 3.42024
# Velocity P-wave (km/s) = 6.71817 7.63169 7.18945
#
# Compressibility (1/GPa) = 0.02061316
#
# Stress axis : x y z
#
# Youngs Moduli (GPa) = 53.95111 53.95111 25.86108
#
# Poissons Ratio (x) = 0.45201 0.24807
# Poissons Ratio (y) = 0.45201 0.24807
# Poissons Ratio (z) = 0.51752 0.51752
#
# Static dielectric constant tensor:
#      x y z
#    x 1.525610 0.000000 0.000000 
#    y 0.000000 1.525610 0.000000 
#    z 0.000000 0.000000 1.535120 
# 
# From -- ./inp_files/1363.got.cif
#   From: 2010.05.17/outbox.ucp.g08.bks.cvg/sg189_1_cif.got.tgz:1363.got - 2010.06.11 15:22:13.
