data_PCOD9586802
_publ_section_title
;
Structure prediction by ZEFSAII (Michael W. Deem and Ramdas Pophale) SiO2 
 PCOD9586802
Probable space group: P -6 2 C
;
_chemical_formula_sum "Si O2"
_cell_formula_units_Z 84
_cell_length_a 18.056077
_cell_length_b 18.056077
_cell_length_c 14.709998
_cell_angle_alpha 90.000000
_cell_angle_beta 90.000000
_cell_angle_gamma 120.000000
_cell_volume 4153.268819
_symmetry_space_group_name_H-M "P -6 2 C"
_symmetry_group_IT_number 190
_symmetry_cell_setting 'hexagonal'
loop_
_space_group_symop_operation_xyz
x,y,z
-x+y,-x,1/2-z
-y,x-y,z
x,y,1/2-z
-x+y,-x,z
-y,x-y,1/2-z
x-y,-y,-z
-x,-x+y,-z
y,x,-z
y,x,1/2+z
x-y,-y,1/2+z
-x,-x+y,1/2+z
loop_
_atom_site_type_symbol
_atom_site_label
_atom_site_fract_x
_atom_site_fract_y
_atom_site_fract_z
Si Si1 0.072146 0.439348 0.062795
Si Si2 0.767659 0.924975 0.646487
Si Si3 0.758194 0.192575 0.975620
Si Si4 0.251894 0.979684 0.646475
Si Si5 0.261755 0.157632 0.642479
Si Si6 0.495019 0.395525 0.854401
Si Si7 0.081040 0.670965 0.853277
O O1 0.159075 0.446885 0.021687
O O2 0.015604 0.344006 0.102701
O O3 0.098824 0.516074 0.132524
O O4 0.000000 0.441077 0.000000
O O5 0.793724 0.917230 0.750000
O O6 0.735446 0.832923 0.601843
O O7 0.687220 0.939597 0.651250
O O8 0.837342 0.016552 0.610289
O O9 0.791611 0.133835 0.924847
O O10 0.679729 0.175790 0.910666
O O11 0.710419 0.155759 0.071701
O O12 0.258071 0.954181 0.750000
O O13 0.238440 0.060270 0.644881
O O14 0.282079 0.185988 0.750000
O O15 0.479978 0.369944 0.750000
O O16 0.415102 0.409542 0.880982
O O17 0.104974 0.658997 0.750000
#
# Coordination Sequence:
#
# PCOD9586802 Si02
#       7
#    12  12  12  12  12  12  12
#     4  11  23  39  59  88 125 162 205 253 315 384
#     4   9  16  29  49  76 111 152 200 244 290 350
#     4  11  21  37  63  88 121 162 201 257 312 374
#     4   9  18  32  50  76 116 159 196 244 303 359
#     4   9  17  30  50  80 115 155 199 245 297 356
#     4  11  23  40  64  94 125 162 208 259 316 380
#     4  10  20  35  59  89 116 149 206 260 297 355
#
# _framework density 20.225031999999999
#
# number of rings (size 3 to 8) (size 9 to 14) (size 15 to 20)
#    0.000    2.000    1.429    3.000    0.000    1.714 
#    1.714    0.714    0.000    0.857    0.000    0.000 
#    0.000    0.000    0.000    0.000    0.000    0.000 
#
# Total GULP energy -467840.301684 kJ/mol
# GULP energy per Si atom -5569.527401 kJ/mol
# Density = 2.017900 g / cm^3
# Si number density = 20.225032 Si / 1000 Ang^3
#
#
#
# Elastic Constant Matrix: (Units=GPa)
#
#
# Indices 1 2 3 4 5 6 
#
# 1 73.7038 22.4194 18.2049 0.0000 0.0000 0.0000
# 2 22.4194 73.7038 18.2049 0.0000 0.0000 0.0000
# 3 18.2049 18.2049 83.4837 0.0000 0.0000 0.0000
# 4 0.0000 0.0000 0.0000 21.7903 0.0000 0.0000
# 5 0.0000 0.0000 0.0000 0.0000 21.7903 0.0000
# 6 0.0000 0.0000 0.0000 0.0000 0.0000 25.6422
#
#
#
# Elastic Compliance Matrix: (Units=1/GPa)
#
#
# Indices 1 2 3 4 5 6 
#
# 1 0.015420 -0.004080 -0.002473 0.000000 0.000000 0.000000
# 2 -0.004080 0.015420 -0.002473 0.000000 0.000000 0.000000
# 3 -0.002473 -0.002473 0.013057 0.000000 0.000000 0.000000
# 4 0.000000 0.000000 0.000000 0.045892 0.000000 0.000000
# 5 0.000000 0.000000 0.000000 0.000000 0.045892 0.000000
# 6 0.000000 0.000000 0.000000 0.000000 0.000000 0.038998
#
#
# Mechanical properties :
#
#
# Convention : Reuss Voigt Hill
#
# Bulk Modulus (GPa) = 38.69156 38.72773 38.70964
# Shear Modulus (GPa) = 24.83313 25.31536 25.07425
#
# Velocity S-wave (km/s) = 3.50786 3.54175 3.52485
# Velocity P-wave (km/s) = 5.96480 5.99294 5.97889
#
# Compressibility (1/GPa) = 0.02584543
#
# Stress axis : x y z
#
# Youngs Moduli (GPa) = 64.85277 64.85277 76.58798
#
# Poissons Ratio (x) = 0.26457 0.18939
# Poissons Ratio (y) = 0.26457 0.18939
# Poissons Ratio (z) = 0.16037 0.16037
#
# Static dielectric constant tensor:
#      x y z
#    x 1.744910 0.000000 0.000000 
#    y 0.000000 1.744910 0.000000 
#    z 0.000000 0.000000 1.835310 
# 
# From -- ./inp_files/3184.got.cif
#   From: 2010.05.17/outbox.cif.g08.bks.cpg/sg190_2_cif.got.tgz:3184.got - 2010.05.20 12:16:56.
