data_PCOD9586774
_publ_section_title
;
Structure prediction by ZEFSAII (Michael W. Deem and Ramdas Pophale) SiO2 
 PCOD9586774
Probable space group: P -6 2 C
;
_chemical_formula_sum "Si O2"
_cell_formula_units_Z 96
_cell_length_a 16.995873
_cell_length_b 16.995873
_cell_length_c 24.404067
_cell_angle_alpha 90.000000
_cell_angle_beta 90.000000
_cell_angle_gamma 120.000000
_cell_volume 6104.917435
_symmetry_space_group_name_H-M "P -6 2 C"
_symmetry_group_IT_number 190
_symmetry_cell_setting 'hexagonal'
loop_
_space_group_symop_operation_xyz
x,y,z
-x+y,-x,1/2-z
-y,x-y,z
x,y,1/2-z
-x+y,-x,z
-y,x-y,1/2-z
x-y,-y,-z
-x,-x+y,-z
y,x,-z
y,x,1/2+z
x-y,-y,1/2+z
-x,-x+y,1/2+z
loop_
_atom_site_type_symbol
_atom_site_label
_atom_site_fract_x
_atom_site_fract_y
_atom_site_fract_z
Si Si1 0.610869 0.473816 0.996556
Si Si2 0.120591 0.537749 0.683881
Si Si3 0.546719 0.818368 0.995584
Si Si4 0.876658 0.690586 0.103083
Si Si5 0.229854 0.987316 0.064912
Si Si6 0.586880 0.588190 0.091528
Si Si7 0.208272 0.746832 0.815157
Si Si8 0.268890 0.207223 0.554500
O O1 0.527826 0.375996 0.011410
O O2 0.711742 0.490382 0.991568
O O3 0.587328 0.503048 0.938827
O O4 0.618028 0.540180 0.045870
O O5 0.104990 0.528115 0.750000
O O6 0.035506 0.467329 0.647490
O O7 0.155237 0.641591 0.667317
O O8 0.201503 0.516525 0.670846
O O9 0.623949 0.877903 0.040599
O O10 0.609316 0.837040 0.941993
O O11 0.839803 0.758279 0.087159
O O12 0.835809 0.637690 0.158899
O O13 0.985151 0.741468 0.099960
O O14 0.307873 0.975651 0.094821
O O15 0.131933 0.897339 0.068122
O O16 0.252861 0.000000 0.000000
O O17 0.202896 0.746535 0.750000
O O18 0.221041 0.221041 0.500000
#
# Coordination Sequence:
#
# PCOD9586774 Si02
#       8
#    12  12  12  12  12  12  12  12
#     4  11  21  30  48  72 103 136 169 202 251 309
#     4  10  20  33  51  78 106 139 176 209 250 307
#     4  11  20  32  45  73 104 137 165 203 246 309
#     4  11  21  34  53  75 102 136 173 213 263 314
#     4  12  17  37  53  71 105 137 169 214 264 308
#     4  11  19  32  50  72  98 142 169 204 254 307
#     4  10  20  34  53  77 108 139 171 213 255 301
#     4  10  21  32  49  74 102 132 168 210 258 311
#
# _framework density 15.725028999999999
#
# number of rings (size 3 to 8) (size 9 to 14) (size 15 to 20)
#    0.000    1.250    7.500    1.250    7.000    1.000 
#    0.750    3.125    0.000    1.500    0.000    0.875 
#    0.000    0.000    0.000    0.000    0.000    0.000 
#
# Total GULP energy -535186.342093 kJ/mol
# GULP energy per Si atom -5574.857730 kJ/mol
# Density = 1.568924 g / cm^3
# Si number density = 15.725029 Si / 1000 Ang^3
#
#
#
# Elastic Constant Matrix: (Units=GPa)
#
#
# Indices 1 2 3 4 5 6 
#
# 1 76.3983 45.7616 10.4585 0.0000 0.0000 0.0000
# 2 45.7616 76.3983 10.4585 0.0000 0.0000 0.0000
# 3 10.4585 10.4585 25.5629 0.0000 0.0000 0.0000
# 4 0.0000 0.0000 0.0000 17.0936 0.0000 0.0000
# 5 0.0000 0.0000 0.0000 0.0000 17.0936 0.0000
# 6 0.0000 0.0000 0.0000 0.0000 0.0000 15.3183
#
#
#
# Elastic Compliance Matrix: (Units=1/GPa)
#
#
# Indices 1 2 3 4 5 6 
#
# 1 0.020722 -0.011919 -0.003601 0.000000 0.000000 0.000000
# 2 -0.011919 0.020722 -0.003601 0.000000 0.000000 0.000000
# 3 -0.003601 -0.003601 0.042066 0.000000 0.000000 0.000000
# 4 0.000000 0.000000 0.000000 0.058501 0.000000 0.000000
# 5 0.000000 0.000000 0.000000 0.000000 0.058501 0.000000
# 6 0.000000 0.000000 0.000000 0.000000 0.000000 0.065281
#
#
# Mechanical properties :
#
#
# Convention : Reuss Voigt Hill
#
# Bulk Modulus (GPa) = 22.09176 34.63518 28.36347
# Shear Modulus (GPa) = 15.66783 17.34652 16.50718
#
# Velocity S-wave (km/s) = 3.15995 3.32492 3.24348
# Velocity P-wave (km/s) = 5.23383 6.06741 5.66597
#
# Compressibility (1/GPa) = 0.04526574
#
# Stress axis : x y z
#
# Youngs Moduli (GPa) = 48.25875 48.25875 23.77215
#
# Poissons Ratio (x) = 0.57520 0.08561
# Poissons Ratio (y) = 0.57520 0.08561
# Poissons Ratio (z) = 0.17380 0.17380
#
# Static dielectric constant tensor:
#      x y z
#    x 1.543990 0.000000 0.000000 
#    y 0.000000 1.543990 0.000000 
#    z 0.000000 0.000000 1.531920 
# 
# From -- ./inp_files/4996.got.cif
#   From: 2010.05.17/outbox.cif.g08.bks.cpg/sg190_3_cif.got.tgz:4996.got - 2010.05.20 12:16:56.
