data_PCOD9586170
_publ_section_title
;
Structure prediction by ZEFSAII (Michael W. Deem and Ramdas Pophale) SiO2 
 PCOD9586170
Probable space group: P -6 2 M
;
_chemical_formula_sum "Si O2"
_cell_formula_units_Z 96
_cell_length_a 17.996830
_cell_length_b 17.996830
_cell_length_c 20.346727
_cell_angle_alpha 90.000000
_cell_angle_beta 90.000000
_cell_angle_gamma 120.000000
_cell_volume 5707.122812
_symmetry_space_group_name_H-M "P -6 2 M"
_symmetry_group_IT_number 189
_symmetry_cell_setting 'hexagonal'
loop_
_space_group_symop_operation_xyz
x,y,z
-x+y,-x,-z
-y,x-y,z
x,y,-z
-x+y,-x,z
-y,x-y,-z
x-y,-y,-z
-x,-x+y,-z
y,x,-z
y,x,z
x-y,-y,z
-x,-x+y,z
loop_
_atom_site_type_symbol
_atom_site_label
_atom_site_fract_x
_atom_site_fract_y
_atom_site_fract_z
Si Si1 0.896304 0.285262 0.425471
Si Si2 0.898870 0.097243 0.788759
Si Si3 0.563526 0.104122 0.572105
Si Si4 0.839538 0.735495 0.927632
Si Si5 0.103745 0.489685 0.212795
Si Si6 0.438168 0.104295 0.072493
Si Si7 0.792583 0.627476 0.712676
Si Si8 0.103606 0.635518 0.707073
O O1 0.873548 0.250359 0.500000
O O2 0.873649 0.361492 0.419048
O O3 0.854533 0.221503 0.364996
O O4 0.000000 0.332093 0.419484
O O5 0.870470 0.102767 0.863372
O O6 0.883845 0.163321 0.745985
O O7 0.000000 0.129800 0.789673
O O8 0.844572 0.000000 0.764571
O O9 0.603386 0.134374 0.500000
O O10 0.625921 0.131961 0.633622
O O11 0.513581 0.000000 0.571711
O O12 0.788775 0.788775 0.928140
O O13 0.765072 0.636599 0.920293
O O14 0.880070 0.747193 0.000000
O O15 0.132786 0.495707 0.137280
O O16 0.135255 0.434912 0.254562
O O17 0.128677 0.579804 0.245735
O O18 0.000000 0.434653 0.214195
O O19 0.388071 0.000000 0.072234
O O20 0.478243 0.132738 0.000000
O O21 0.852724 0.586896 0.725106
O O22 0.000000 0.590260 0.708282
#
# Coordination Sequence:
#
# PCOD9586170 Si02
#       8
#    12  12  12  12  12  12  12  12
#     4   9  17  31  54  81 104 129 170 219 263 316
#     4  11  22  35  52  75 107 146 188 232 278 328
#     4   8  14  28  50  72  96 128 160 191 239 305
#     4   8  14  26  46  74 104 131 165 213 268 327
#     4  10  18  33  55  76  99 134 174 212 259 316
#     4   8  13  24  48  79 101 121 164 219 261 304
#     4  12  21  33  53  79 106 140 178 223 268 320
#     4  10  21  34  48  72 106 138 170 211 259 310
#
# _framework density 16.821086000000001
#
# number of rings (size 3 to 8) (size 9 to 14) (size 15 to 20)
#    0.000    2.500    2.500    3.125    0.000    0.750 
#    0.750    0.000    0.000    3.375    0.000    1.750 
#    0.000    1.000    0.000    0.000    0.000    0.000 
#
# Total GULP energy -534835.602965 kJ/mol
# GULP energy per Si atom -5571.204198 kJ/mol
# Density = 1.678280 g / cm^3
# Si number density = 16.821086 Si / 1000 Ang^3
#
#
#
# Elastic Constant Matrix: (Units=GPa)
#
#
# Indices 1 2 3 4 5 6 
#
# 1 39.2402 8.9035 18.9291 0.0000 0.0000 0.0000
# 2 8.9035 39.2402 18.9291 0.0000 0.0000 0.0000
# 3 18.9291 18.9291 95.2271 0.0000 0.0000 0.0000
# 4 0.0000 0.0000 0.0000 12.4305 0.0000 0.0000
# 5 0.0000 0.0000 0.0000 0.0000 12.4305 0.0000
# 6 0.0000 0.0000 0.0000 0.0000 0.0000 15.1684
#
#
#
# Elastic Compliance Matrix: (Units=1/GPa)
#
#
# Indices 1 2 3 4 5 6 
#
# 1 0.028791 -0.004172 -0.004894 0.000000 0.000000 0.000000
# 2 -0.004172 0.028791 -0.004894 0.000000 0.000000 0.000000
# 3 -0.004894 -0.004894 0.012447 0.000000 0.000000 0.000000
# 4 0.000000 0.000000 0.000000 0.080447 0.000000 0.000000
# 5 0.000000 0.000000 0.000000 0.000000 0.080447 0.000000
# 6 0.000000 0.000000 0.000000 0.000000 0.000000 0.065927
#
#
# Mechanical properties :
#
#
# Convention : Reuss Voigt Hill
#
# Bulk Modulus (GPa) = 23.74710 29.69232 26.71971
# Shear Modulus (GPa) = 14.75768 16.46894 15.61331
#
# Velocity S-wave (km/s) = 2.96519 3.13240 3.04994
# Velocity P-wave (km/s) = 5.08638 5.54731 5.32184
#
# Compressibility (1/GPa) = 0.04211041
#
# Stress axis : x y z
#
# Youngs Moduli (GPa) = 34.73261 34.73261 80.34203
#
# Poissons Ratio (x) = 0.14490 0.39318
# Poissons Ratio (y) = 0.14490 0.39318
# Poissons Ratio (z) = 0.16998 0.16998
#
# Static dielectric constant tensor:
#      x y z
#    x 1.550200 0.000000 0.000000 
#    y 0.000000 1.550200 0.000000 
#    z 0.000000 0.000000 1.608390 
# 
# From -- ./inp_files/3504.got.cif
#   From: 2010.05.17/outbox.cif.g08.bks.cpg/sg189_2_cif.got.tgz:3504.got - 2010.05.20 12:14:34.
