data_PCOD9586166
_publ_section_title
;
Structure prediction by ZEFSAII (Michael W. Deem and Ramdas Pophale) SiO2 
 PCOD9586166
Probable space group: P -6 2 M
;
_chemical_formula_sum "Si O2"
_cell_formula_units_Z 72
_cell_length_a 23.924206
_cell_length_b 23.924206
_cell_length_c 8.997870
_cell_angle_alpha 90.000000
_cell_angle_beta 90.000000
_cell_angle_gamma 120.000000
_cell_volume 4460.108383
_symmetry_space_group_name_H-M "P -6 2 M"
_symmetry_group_IT_number 189
_symmetry_cell_setting 'hexagonal'
loop_
_space_group_symop_operation_xyz
x,y,z
-x+y,-x,-z
-y,x-y,z
x,y,-z
-x+y,-x,z
-y,x-y,-z
x-y,-y,-z
-x,-x+y,-z
y,x,-z
y,x,z
x-y,-y,z
-x,-x+y,z
loop_
_atom_site_type_symbol
_atom_site_label
_atom_site_fract_x
_atom_site_fract_y
_atom_site_fract_z
Si Si1 0.726537 0.207945 0.675836
Si Si2 0.536107 0.406870 0.177110
Si Si3 0.339553 0.074824 0.822242
Si Si4 0.000000 0.596791 0.822184
Si Si5 0.811638 0.142011 0.321496
Si Si6 0.718762 0.000000 0.320855
Si Si7 0.520759 0.662984 0.677007
O O1 0.711371 0.200609 0.500000
O O2 0.662134 0.186129 0.767437
O O3 0.758175 0.163301 0.711852
O O4 0.783906 0.280490 0.703582
O O5 0.470503 0.407190 0.215743
O O6 0.596622 0.465754 0.255784
O O7 0.544706 0.412939 0.000000
O O8 0.317045 0.123153 0.757776
O O9 0.409739 0.097663 0.751841
O O10 0.291523 0.000000 0.786240
O O11 0.345958 0.081678 0.000000
O O12 0.000000 0.656111 0.741897
O O13 0.000000 0.606176 0.000000
O O14 0.821440 0.148211 0.500000
O O15 0.781256 0.067446 0.276955
O O16 0.715347 0.000000 0.500000
O O17 0.526544 0.658181 0.500000
#
# Coordination Sequence:
#
# PCOD9586166 Si02
#       7
#    12  12  12   6  12   6  12
#     4   9  18  35  54  71  94 127 167 211 260 309
#     4  11  22  35  52  75 104 133 169 215 262 313
#     4  10  21  36  54  76 105 139 172 210 254 299
#     4  10  22  34  48  76 108 136 166 207 258 311
#     4   9  18  32  53  79 106 135 168 205 246 296
#     4  10  18  32  54  80 108 138 170 203 244 299
#     4  10  22  38  55  74  97 131 174 217 262 312
#
# _framework density 16.143104999999998
#
# number of rings (size 3 to 8) (size 9 to 14) (size 15 to 20)
#    0.000    2.167    1.667    2.500    1.167    6.000 
#    1.000    0.000    0.000    0.000    0.000    0.000 
#    0.833    0.000    0.500    0.000    0.667    0.000 
#
# Total GULP energy -401772.005713 kJ/mol
# GULP energy per Si atom -5580.166746 kJ/mol
# Density = 1.610636 g / cm^3
# Si number density = 16.143105 Si / 1000 Ang^3
#
#
#
# Elastic Constant Matrix: (Units=GPa)
#
#
# Indices 1 2 3 4 5 6 
#
# 1 111.7322 76.4698 54.3793 0.0000 0.0000 0.0000
# 2 76.4698 111.7322 54.3793 0.0000 0.0000 0.0000
# 3 54.3793 54.3793 47.3701 0.0000 0.0000 0.0000
# 4 0.0000 0.0000 0.0000 25.4123 0.0000 0.0000
# 5 0.0000 0.0000 0.0000 0.0000 25.4123 0.0000
# 6 0.0000 0.0000 0.0000 0.0000 0.0000 17.6312
#
#
#
# Elastic Compliance Matrix: (Units=1/GPa)
#
#
# Indices 1 2 3 4 5 6 
#
# 1 0.022072 -0.006287 -0.018121 0.000000 0.000000 0.000000
# 2 -0.006287 0.022072 -0.018121 0.000000 0.000000 0.000000
# 3 -0.018121 -0.018121 0.062714 0.000000 0.000000 0.000000
# 4 0.000000 0.000000 0.000000 0.039351 0.000000 0.000000
# 5 0.000000 0.000000 0.000000 0.000000 0.039351 0.000000
# 6 0.000000 0.000000 0.000000 0.000000 0.000000 0.056718
#
#
# Mechanical properties :
#
#
# Convention : Reuss Voigt Hill
#
# Bulk Modulus (GPa) = 45.86826 71.25458 58.56142
# Shear Modulus (GPa) = 14.94312 19.39824 17.17068
#
# Velocity S-wave (km/s) = 3.04578 3.47023 3.26491
# Velocity P-wave (km/s) = 6.39095 7.76478 7.11112
#
# Compressibility (1/GPa) = 0.02180157
#
# Stress axis : x y z
#
# Youngs Moduli (GPa) = 45.30631 45.30631 15.94528
#
# Poissons Ratio (x) = 0.28483 0.28894
# Poissons Ratio (y) = 0.28483 0.28894
# Poissons Ratio (z) = 0.82099 0.82099
#
# Static dielectric constant tensor:
#      x y z
#    x 1.530350 0.000000 0.000000 
#    y 0.000000 1.530350 0.000000 
#    z 0.000000 0.000000 1.536900 
# 
# From -- ./inp_files/1310.got.cif
#   From: 2010.05.17/outbox.cif.g08.bks.cpg/sg189_1_cif.got.tgz:1310.got - 2010.05.20 12:14:34.
