data_PCOD9586936
_publ_section_title
;
Structure prediction by ZEFSAII (Michael W. Deem and Ramdas Pophale) SiO2 
 PCOD9586936
Probable space group: P -6 2 C
;
_chemical_formula_sum "Si O2"
_cell_formula_units_Z 58
_cell_length_a 14.476107
_cell_length_b 14.476107
_cell_length_c 16.542032
_cell_angle_alpha 90.000000
_cell_angle_beta 90.000000
_cell_angle_gamma 120.000000
_cell_volume 3002.085503
_symmetry_space_group_name_H-M "P -6 2 C"
_symmetry_group_IT_number 190
_symmetry_cell_setting 'hexagonal'
loop_
_space_group_symop_operation_xyz
x,y,z
-x+y,-x,1/2-z
-y,x-y,z
x,y,1/2-z
-x+y,-x,z
-y,x-y,1/2-z
x-y,-y,-z
-x,-x+y,-z
y,x,-z
y,x,1/2+z
x-y,-y,1/2+z
-x,-x+y,1/2+z
loop_
_atom_site_type_symbol
_atom_site_label
_atom_site_fract_x
_atom_site_fract_y
_atom_site_fract_z
Si Si1 0.857512 0.759237 0.156307
Si Si2 0.692693 0.228251 0.750000
Si Si3 0.666668 0.333335 0.155233
Si Si4 0.685593 0.102042 0.592560
Si Si5 0.115231 0.185236 0.079802
Si Si6 0.550537 0.856864 0.912831
O O1 0.822522 0.739944 0.250000
O O2 0.811568 0.821356 0.103802
O O3 0.840342 0.650409 0.113945
O O4 0.983900 0.846062 0.151849
O O5 0.578942 0.224314 0.750000
O O6 0.702640 0.173207 0.669919
O O7 0.666667 0.333334 0.250000
O O8 0.675439 0.231918 0.127342
O O9 0.789952 0.094690 0.571983
O O10 0.671652 0.147515 0.508248
O O11 0.592880 0.980687 0.609482
O O12 0.122396 0.122396 0.000000
#
# Coordination Sequence:
#
# PCOD9586936 Si02
#       6
#    12   6   4  12  12  12
#     4  11  22  37  60  96 136 181 234 280 349 407
#     4  10  26  44  72 106 130 168 228 296 344 428
#     4  12  27  45  72 103 134 178 234 291 342 414
#     4  10  22  46  69  95 128 180 221 281 361 399
#     4  11  21  38  61  93 136 181 227 283 338 420
#     4  10  24  45  69  93 135 184 226 289 348 419
#
# _framework density 19.319903
#
# number of rings (size 3 to 8) (size 9 to 14) (size 15 to 20)
#    0.207    1.241    4.138    2.276   11.586    0.000 
#    3.724    0.000    0.000    0.000    0.000    0.000 
#    0.000    0.000    0.000    0.000    0.000    0.000 
#
# Total GULP energy -323203.628687 kJ/mol
# GULP energy per Si atom -5572.476357 kJ/mol
# Density = 1.927593 g / cm^3
# Si number density = 19.319903 Si / 1000 Ang^3
#
#
#
# Elastic Constant Matrix: (Units=GPa)
#
#
# Indices 1 2 3 4 5 6 
#
# 1 83.8114 51.1588 62.4174 -0.0003 0.0006 -0.0002
# 2 51.1588 83.8076 62.4180 -0.0002 -0.0008 -0.0001
# 3 62.4174 62.4180 148.2617 0.0000 -0.0005 -0.0001
# 4 -0.0003 -0.0002 0.0000 5.1111 0.0004 0.0007
# 5 0.0006 -0.0008 -0.0005 0.0004 5.1125 0.0001
# 6 -0.0002 -0.0001 -0.0001 0.0007 0.0001 16.3245
#
#
#
# Elastic Compliance Matrix: (Units=1/GPa)
#
#
# Indices 1 2 3 4 5 6 
#
# 1 0.021380 -0.009247 -0.005108 0.000001 -0.000004 0.000000
# 2 -0.009247 0.021381 -0.005109 0.000000 0.000004 0.000000
# 3 -0.005108 -0.005109 0.011046 0.000000 0.000001 0.000000
# 4 0.000001 0.000000 0.000000 0.195654 -0.000016 -0.000008
# 5 -0.000004 0.000004 0.000001 -0.000016 0.195599 -0.000001
# 6 0.000000 0.000000 0.000000 -0.000008 -0.000001 0.061258
#
#
# Mechanical properties :
#
#
# Convention : Reuss Voigt Hill
#
# Bulk Modulus (GPa) = 67.20180 74.20768 70.70474
# Shear Modulus (GPa) = 9.08753 14.63538 11.86146
#
# Velocity S-wave (km/s) = 2.17116 2.75531 2.48049
# Velocity P-wave (km/s) = 6.41440 6.97249 6.69926
#
# Compressibility (1/GPa) = 0.01488055
#
# Stress axis : x y z
#
# Youngs Moduli (GPa) = 46.77312 46.76964 90.53012
#
# Poissons Ratio (x) = 0.43246 0.46243
# Poissons Ratio (y) = 0.43249 0.46250
# Poissons Ratio (z) = 0.23892 0.23894
#
# Static dielectric constant tensor:
#      x y z
#    x 1.710860 0.000000 0.000000 
#    y 0.000000 1.710860 0.000000 
#    z 0.000000 0.000000 1.700660 
# 
# From -- ./inp_files/2865.got.cif
#   From: 2010.05.17/outbox.cif.g08.bks.cpg/sg190_2_cif.got.tgz:2865.got - 2010.05.20 12:16:56.
