data_PCOD9586969
_publ_section_title
;
Structure prediction by ZEFSAII (Michael W. Deem and Ramdas Pophale) SiO2 
 PCOD9586969
Probable space group: P -6 2 C
;
_chemical_formula_sum "Si O2"
_cell_formula_units_Z 34
_cell_length_a 11.382923
_cell_length_b 11.382923
_cell_length_c 15.121144
_cell_angle_alpha 90.000000
_cell_angle_beta 90.000000
_cell_angle_gamma 120.000000
_cell_volume 1696.769610
_symmetry_space_group_name_H-M "P -6 2 C"
_symmetry_group_IT_number 190
_symmetry_cell_setting 'hexagonal'
loop_
_space_group_symop_operation_xyz
x,y,z
-x+y,-x,1/2-z
-y,x-y,z
x,y,1/2-z
-x+y,-x,z
-y,x-y,1/2-z
x-y,-y,-z
-x,-x+y,-z
y,x,-z
y,x,1/2+z
x-y,-y,1/2+z
-x,-x+y,1/2+z
loop_
_atom_site_type_symbol
_atom_site_label
_atom_site_fract_x
_atom_site_fract_y
_atom_site_fract_z
Si Si1 0.568015 0.602536 0.896651
Si Si2 0.155578 0.580257 0.250000
Si Si3 0.995755 0.145308 0.392834
Si Si4 0.666668 0.333335 0.144793
O O1 0.536276 0.474112 0.836271
O O2 0.712224 0.727125 0.863221
O O3 0.453441 0.642742 0.886422
O O4 0.578446 0.578446 0.000000
O O5 0.261298 0.740533 0.250000
O O6 0.000000 0.152710 0.500000
O O7 0.125183 0.129023 0.367006
O O8 0.666667 0.333334 0.250000
#
# Coordination Sequence:
#
# PCOD9586969 Si02
#       4
#    12   6  12   4
#     4  11  24  44  71  99 137 183 237 290 346 425
#     4  10  26  46  66  98 140 178 232 280 358 420
#     4   7  14  34  61  97 125 163 220 275 336 390
#     4  12  27  48  66 103 143 187 234 294 366 409
#
# _framework density 20.038077999999999
#
# number of rings (size 3 to 8) (size 9 to 14) (size 15 to 20)
#    1.059    1.412    1.765    0.000    4.941    2.824 
#    6.353    1.765    0.000    0.000    0.000    0.000 
#    0.000    0.000    0.000    0.000    0.000    0.000 
#
# Total GULP energy -189434.765717 kJ/mol
# GULP energy per Si atom -5571.610756 kJ/mol
# Density = 1.999247 g / cm^3
# Si number density = 20.038078 Si / 1000 Ang^3
#
#
#
# Elastic Constant Matrix: (Units=GPa)
#
#
# Indices 1 2 3 4 5 6 
#
# 1 97.1397 28.8164 33.5539 -0.0003 0.0000 -0.0001
# 2 28.8164 97.1394 33.5542 -0.0002 0.0004 -0.0003
# 3 33.5539 33.5542 104.5699 -0.0005 0.0002 -0.0001
# 4 -0.0003 -0.0002 -0.0005 49.7572 0.0002 -0.0002
# 5 0.0000 0.0004 0.0002 0.0002 49.7571 0.0000
# 6 -0.0001 -0.0003 -0.0001 -0.0002 0.0000 34.1614
#
#
#
# Elastic Compliance Matrix: (Units=1/GPa)
#
#
# Indices 1 2 3 4 5 6 
#
# 1 0.012106 -0.002530 -0.003073 0.000000 0.000000 0.000000
# 2 -0.002530 0.012106 -0.003073 0.000000 0.000000 0.000000
# 3 -0.003073 -0.003073 0.011535 0.000000 0.000000 0.000000
# 4 0.000000 0.000000 0.000000 0.020098 0.000000 0.000000
# 5 0.000000 0.000000 0.000000 0.000000 0.020098 0.000000
# 6 0.000000 0.000000 0.000000 0.000000 0.000000 0.029273
#
#
# Mechanical properties :
#
#
# Convention : Reuss Voigt Hill
#
# Bulk Modulus (GPa) = 54.35821 54.52200 54.44010
# Shear Modulus (GPa) = 38.85024 40.26344 39.55684
#
# Velocity S-wave (km/s) = 4.40798 4.48744 4.44789
# Velocity P-wave (km/s) = 7.28652 7.35647 7.32158
#
# Compressibility (1/GPa) = 0.01839649
#
# Stress axis : x y z
#
# Youngs Moduli (GPa) = 82.60111 82.60071 86.69268
#
# Poissons Ratio (x) = 0.20897 0.26639
# Poissons Ratio (y) = 0.20898 0.26640
# Poissons Ratio (z) = 0.25382 0.25382
#
# Static dielectric constant tensor:
#      x y z
#    x 1.701550 0.000000 0.000000 
#    y 0.000000 1.701550 0.000000 
#    z 0.000000 0.000000 1.685140 
# 
# From -- ./inp_files/2395.got.cif
#   From: 2010.05.17/outbox.cif.g08.bks.cpg/sg190_2_cif.got.tgz:2395.got - 2010.05.20 12:16:56.
