data_PCOD9586085
_publ_section_title
;
Structure prediction by ZEFSAII (Michael W. Deem and Ramdas Pophale) SiO2 
 PCOD9586085
Probable space group: P -6 C 2
;
_chemical_formula_sum "Si O2"
_cell_formula_units_Z 58
_cell_length_a 14.440551
_cell_length_b 14.440551
_cell_length_c 14.473924
_cell_angle_alpha 90.000000
_cell_angle_beta 90.000000
_cell_angle_gamma 120.000000
_cell_volume 2613.872797
_symmetry_space_group_name_H-M "P -6 C 2"
_symmetry_group_IT_number 188
_symmetry_cell_setting 'hexagonal'
loop_
_space_group_symop_operation_xyz
x,y,z
-x+y,-x,1/2-z
-y,x-y,z
x,y,1/2-z
-x+y,-x,z
-y,x-y,1/2-z
-y,-x,-z
-x+y,y,-z
x,x-y,-z
-x+y,y,1/2+z
x,x-y,1/2+z
-y,-x,1/2+z
loop_
_atom_site_type_symbol
_atom_site_label
_atom_site_fract_x
_atom_site_fract_y
_atom_site_fract_z
Si Si1 0.234041 0.430118 0.890953
Si Si2 0.644735 0.090066 0.250000
Si Si3 0.333334 0.666668 0.612033
Si Si4 0.528008 0.529969 0.104488
Si Si5 0.916517 0.148414 0.250000
Si Si6 0.764877 0.590993 0.105834
Si Si7 0.749082 0.843159 0.750000
O O1 0.251614 0.545312 0.860905
O O2 0.349780 0.442210 0.871202
O O3 0.144918 0.328766 0.836730
O O4 0.208737 0.417474 0.000000
O O5 0.562704 0.008785 0.170152
O O6 0.721403 0.175200 0.331232
O O7 0.333334 0.666667 0.500000
O O8 0.637043 0.524218 0.111164
O O9 0.488186 0.511815 0.000000
O O10 0.905965 0.203747 0.342461
O O11 0.032229 0.160423 0.250000
O O12 0.808685 0.033263 0.250000
O O13 0.801974 0.603948 0.000000
#
# Coordination Sequence:
#
# PCOD9586085 Si02
#       7
#    12   6   4  12   6  12   6
#     4  11  25  45  73 108 152 195 245 315 380 468
#     4  11  24  42  69  99 140 197 242 308 371 447
#     4   9  21  43  65 106 148 182 241 295 362 460
#     4  12  23  44  72 104 149 200 251 316 392 456
#     4  11  26  45  70  98 146 183 249 318 376 456
#     4  11  24  45  67 103 142 189 252 308 374 448
#     4  12  26  45  73 105 138 194 245 308 389 441
#
# _framework density 22.189298000000001
#
# number of rings (size 3 to 8) (size 9 to 14) (size 15 to 20)
#    0.000    0.828    4.138    3.931    2.897    4.138 
#    4.966    1.034    0.000    2.483    0.000    0.000 
#    0.000    0.000    0.000    0.000    0.000    0.000 
#
# Total GULP energy -323006.618251 kJ/mol
# GULP energy per Si atom -5569.079625 kJ/mol
# Density = 2.213879 g / cm^3
# Si number density = 22.189298 Si / 1000 Ang^3
#
#
#
# Elastic Constant Matrix: (Units=GPa)
#
#
# Indices 1 2 3 4 5 6 
#
# 1 88.0911 10.0429 14.7033 0.0001 0.0000 -0.0002
# 2 10.0429 88.0903 14.7032 0.0005 0.0000 -0.0002
# 3 14.7033 14.7032 157.2343 0.0001 0.0000 -0.0001
# 4 0.0001 0.0005 0.0001 23.4893 0.0004 0.0000
# 5 0.0000 0.0000 0.0000 0.0004 23.4868 -0.0001
# 6 -0.0002 -0.0002 -0.0001 0.0000 -0.0001 39.0241
#
#
#
# Elastic Compliance Matrix: (Units=1/GPa)
#
#
# Indices 1 2 3 4 5 6 
#
# 1 0.011648 -0.001164 -0.000980 0.000000 0.000000 0.000000
# 2 -0.001164 0.011648 -0.000980 0.000000 0.000000 0.000000
# 3 -0.000980 -0.000980 0.006543 0.000000 0.000000 0.000000
# 4 0.000000 0.000000 0.000000 0.042573 -0.000001 0.000000
# 5 0.000000 0.000000 0.000000 -0.000001 0.042577 0.000000
# 6 0.000000 0.000000 0.000000 0.000000 0.000000 0.025625
#
#
# Mechanical properties :
#
#
# Convention : Reuss Voigt Hill
#
# Bulk Modulus (GPa) = 42.39136 45.81275 44.10206
# Shear Modulus (GPa) = 32.31470 36.79777 34.55623
#
# Velocity S-wave (km/s) = 3.82031 4.07671 3.95059
# Velocity P-wave (km/s) = 6.21334 6.54604 6.38186
#
# Compressibility (1/GPa) = 0.02358971
#
# Stress axis : x y z
#
# Youngs Moduli (GPa) = 85.84974 85.84890 152.82835
#
# Poissons Ratio (x) = 0.09996 0.14983
# Poissons Ratio (y) = 0.09996 0.14983
# Poissons Ratio (z) = 0.08416 0.08416
#
# Static dielectric constant tensor:
#      x y z
#    x 1.856380 0.000000 0.000000 
#    y 0.000000 1.856390 0.000000 
#    z 0.000000 0.000000 1.773630 
# 
# From -- ./inp_files/2352.got.cif
#   From: 2010.05.17/outbox.cif.g08.bks.cpg/sg188_2_cif.got.tgz:2352.got - 2010.05.20 12:11:46.
