data_PCOD9586305
_publ_section_title
;
Structure prediction by ZEFSAII (Michael W. Deem and Ramdas Pophale) SiO2 
 PCOD9586305
Probable space group: P -6 2 M
;
_chemical_formula_sum "Si O2"
_cell_formula_units_Z 96
_cell_length_a 14.202868
_cell_length_b 14.202868
_cell_length_c 27.549871
_cell_angle_alpha 90.000000
_cell_angle_beta 90.000000
_cell_angle_gamma 120.000000
_cell_volume 4812.849739
_symmetry_space_group_name_H-M "P -6 2 M"
_symmetry_group_IT_number 189
_symmetry_cell_setting 'hexagonal'
loop_
_space_group_symop_operation_xyz
x,y,z
-x+y,-x,-z
-y,x-y,z
x,y,-z
-x+y,-x,z
-y,x-y,-z
x-y,-y,-z
-x,-x+y,-z
y,x,-z
y,x,z
x-y,-y,z
-x,-x+y,z
loop_
_atom_site_type_symbol
_atom_site_label
_atom_site_fract_x
_atom_site_fract_y
_atom_site_fract_z
Si Si1 0.876490 0.464737 0.706328
Si Si2 0.783024 0.125559 0.553167
Si Si3 0.877449 0.670773 0.250563
Si Si4 0.442377 0.317167 0.942184
Si Si5 0.130159 0.478208 0.900162
Si Si6 0.343612 0.553084 0.400932
Si Si7 0.119925 0.246315 0.648983
Si Si8 0.663368 0.534936 0.208000
O O1 0.885381 0.564749 0.736861
O O2 0.817115 0.459698 0.656144
O O3 0.825690 0.363506 0.743380
O O4 0.000000 0.497180 0.692214
O O5 0.823758 0.174199 0.500000
O O6 0.673558 0.126929 0.567225
O O7 0.858100 0.174431 0.600534
O O8 0.752168 0.000000 0.550696
O O9 0.831468 0.696144 0.299555
O O10 0.786279 0.634173 0.210132
O O11 0.000000 0.766709 0.239872
O O12 0.357509 0.357509 0.925604
O O13 0.435213 0.209555 0.918784
O O14 0.562129 0.419063 0.930393
O O15 0.430470 0.301690 0.000000
O O16 0.162859 0.518426 0.844453
O O17 0.000000 0.388662 0.900883
O O18 0.438529 0.674276 0.411967
O O19 0.210206 0.210206 0.650560
O O20 0.000000 0.145252 0.646193
O O21 0.581413 0.581413 0.211366
#
# Coordination Sequence:
#
# PCOD9586305 Si02
#       8
#    12  12  12  12  12  12  12  12
#     4  10  19  34  54  77 109 144 183 222 266 327
#     4  10  21  39  59  77 102 136 172 216 276 336
#     4  10  20  35  56  79 110 153 188 221 269 327
#     4  10  21  38  62  91 122 163 211 255 308 368
#     4  10  22  39  59  89 126 163 205 256 310 364
#     4  10  21  34  53  78 104 136 177 218 262 316
#     4  10  20  36  58  83 108 137 176 222 273 329
#     4  10  22  36  53  83 119 150 188 233 280 331
#
# _framework density 19.946601999999999
#
# number of rings (size 3 to 8) (size 9 to 14) (size 15 to 20)
#    0.250    1.750    1.250    2.250    1.750    2.000 
#    0.750    0.625    0.000    1.250    0.000    0.000 
#    0.000    0.000    0.000    0.000    0.000    0.000 
#
# Total GULP energy -534602.345843 kJ/mol
# GULP energy per Si atom -5568.774436 kJ/mol
# Density = 1.990120 g / cm^3
# Si number density = 19.946602 Si / 1000 Ang^3
#
#
#
# Elastic Constant Matrix: (Units=GPa)
#
#
# Indices 1 2 3 4 5 6 
#
# 1 53.6666 1.8022 2.2955 0.0000 0.0000 0.0000
# 2 1.8022 53.6666 2.2955 0.0000 0.0000 0.0000
# 3 2.2955 2.2955 37.5106 0.0000 0.0000 0.0000
# 4 0.0000 0.0000 0.0000 -20.0323 0.0000 0.0000
# 5 0.0000 0.0000 0.0000 0.0000 -20.0323 0.0000
# 6 0.0000 0.0000 0.0000 0.0000 0.0000 25.9322
#
#
#
# Elastic Compliance Matrix: (Units=1/GPa)
#
#
# Indices 1 2 3 4 5 6 
#
# 1 0.018700 -0.000581 -0.001109 0.000000 0.000000 0.000000
# 2 -0.000581 0.018700 -0.001109 0.000000 0.000000 0.000000
# 3 -0.001109 -0.001109 0.026795 0.000000 0.000000 0.000000
# 4 0.000000 0.000000 0.000000 -0.049919 0.000000 0.000000
# 5 0.000000 0.000000 0.000000 0.000000 -0.049919 0.000000
# 6 0.000000 0.000000 0.000000 0.000000 0.000000 0.038562
#
#
# Mechanical properties :
#
#
# Convention : Reuss Voigt Hill
#
# Bulk Modulus (GPa) = 17.06505 17.51445 17.28975
# Shear Modulus (GPa) = 178.26159 6.40358 92.33258
#
# Velocity S-wave (km/s) = 9.46379 1.79369 6.81105
# Velocity P-wave (km/s) = 11.31335 3.61794 8.39885
#
# Compressibility (1/GPa) = 0.05859929
#
# Stress axis : x y z
#
# Youngs Moduli (GPa) = 53.47455 53.47455 37.32060
#
# Poissons Ratio (x) = 0.03104 0.04138
# Poissons Ratio (y) = 0.03104 0.04138
# Poissons Ratio (z) = 0.05930 0.05930
#
# Static dielectric constant tensor:
#      x y z
#    x 1.755360 0.000000 0.000000 
#    y 0.000000 1.755360 0.000000 
#    z 0.000000 0.000000 1.729110 
# 
# From -- ./inp_files/3727.got.cif
#   From: 2010.05.17/outbox.cif.g08.bks.cpg/sg189_2_cif.got.tgz:3727.got - 2010.05.20 12:14:34.
