data_PCOD9586467
_publ_section_title
;
Structure prediction by ZEFSAII (Michael W. Deem and Ramdas Pophale) SiO2 
 PCOD9586467
Probable space group: P -6 2 M
;
_chemical_formula_sum "Si O2"
_cell_formula_units_Z 84
_cell_length_a 18.928100
_cell_length_b 18.928100
_cell_length_c 14.005482
_cell_angle_alpha 90.000000
_cell_angle_beta 90.000000
_cell_angle_gamma 120.000000
_cell_volume 4345.529824
_symmetry_space_group_name_H-M "P -6 2 M"
_symmetry_group_IT_number 189
_symmetry_cell_setting 'hexagonal'
loop_
_space_group_symop_operation_xyz
x,y,z
-x+y,-x,-z
-y,x-y,z
x,y,-z
-x+y,-x,z
-y,x-y,-z
x-y,-y,-z
-x,-x+y,-z
y,x,-z
y,x,z
x-y,-y,z
-x,-x+y,z
loop_
_atom_site_type_symbol
_atom_site_label
_atom_site_fract_x
_atom_site_fract_y
_atom_site_fract_z
Si Si1 0.000000 0.186189 0.889354
Si Si2 0.337769 0.841041 0.779711
Si Si3 0.474567 0.377920 0.255127
Si Si4 0.350382 0.000000 0.881568
Si Si5 0.226990 0.441283 0.609110
Si Si6 0.749368 0.845842 0.604553
Si Si7 0.818455 0.572978 0.112721
Si Si8 0.837630 0.088686 0.197108
O O1 0.918025 0.107424 0.859033
O O2 0.000000 0.267520 0.852858
O O3 0.000000 0.194742 0.000000
O O4 0.428405 0.859716 0.758790
O O5 0.347309 0.922049 0.831339
O O6 0.292392 0.811656 0.677922
O O7 0.270162 0.772548 0.850673
O O8 0.432353 0.432353 0.275055
O O9 0.449893 0.306640 0.335238
O O10 0.444866 0.331461 0.154092
O O11 0.356906 0.000000 0.000000
O O12 0.247657 0.472590 0.500000
O O13 0.153663 0.348096 0.602226
O O14 0.780457 0.883529 0.500000
O O15 0.782917 0.782917 0.620845
O O16 0.769606 0.904553 0.693732
O O17 0.842735 0.658584 0.165061
O O18 0.819237 0.583081 0.000000
O O19 0.762795 0.000000 0.176848
#
# Coordination Sequence:
#
# PCOD9586467 Si02
#       8
#     6  12  12   6  12  12  12  12
#     4  11  22  38  61  89 123 166 214 265 317 380
#     4  11  22  41  66  93 127 164 219 276 322 379
#     4  11  24  42  65  97 134 169 212 272 335 398
#     4  11  20  36  67  99 127 166 216 275 333 386
#     4  10  23  42  66  96 130 169 210 263 334 396
#     4  10  20  38  67  96 120 156 211 264 312 373
#     4  11  24  42  63  90 127 172 217 263 321 391
#     4  12  23  38  62  91 125 167 211 260 320 387
#
# _framework density 19.330209
#
# number of rings (size 3 to 8) (size 9 to 14) (size 15 to 20)
#    0.000    1.143    5.714    1.286    1.000    4.286 
#    7.286    1.429    0.000    0.000    0.000    0.000 
#    0.000    0.000    0.000    0.000    0.000    0.000 
#
# Total GULP energy -467807.166647 kJ/mol
# GULP energy per Si atom -5569.132936 kJ/mol
# Density = 1.928621 g / cm^3
# Si number density = 19.330209 Si / 1000 Ang^3
#
#
#
# Elastic Constant Matrix: (Units=GPa)
#
#
# Indices 1 2 3 4 5 6 
#
# 1 86.6323 39.8834 34.1931 0.0000 0.0000 0.0000
# 2 39.8834 86.6323 34.1931 0.0000 0.0000 0.0000
# 3 34.1931 34.1931 135.4767 0.0000 0.0000 0.0000
# 4 0.0000 0.0000 0.0000 163.7877 0.0000 0.0000
# 5 0.0000 0.0000 0.0000 0.0000 163.7877 0.0000
# 6 0.0000 0.0000 0.0000 0.0000 0.0000 23.3745
#
#
#
# Elastic Compliance Matrix: (Units=1/GPa)
#
#
# Indices 1 2 3 4 5 6 
#
# 1 0.015272 -0.006119 -0.002310 0.000000 0.000000 0.000000
# 2 -0.006119 0.015272 -0.002310 0.000000 0.000000 0.000000
# 3 -0.002310 -0.002310 0.008547 0.000000 0.000000 0.000000
# 4 0.000000 0.000000 0.000000 0.006105 0.000000 0.000000
# 5 0.000000 0.000000 0.000000 0.000000 0.006105 0.000000
# 6 0.000000 0.000000 0.000000 0.000000 0.000000 0.042782
#
#
# Mechanical properties :
#
#
# Convention : Reuss Voigt Hill
#
# Bulk Modulus (GPa) = 56.77707 58.36450 57.57078
# Shear Modulus (GPa) = 41.17492 83.55475 62.36484
#
# Velocity S-wave (km/s) = 4.62029 6.58170 5.68621
# Velocity P-wave (km/s) = 7.60912 9.38176 8.54155
#
# Compressibility (1/GPa) = 0.01761274
#
# Stress axis : x y z
#
# Youngs Moduli (GPa) = 65.47993 65.47993 116.99421
#
# Poissons Ratio (x) = 0.40067 0.27027
# Poissons Ratio (y) = 0.40067 0.27027
# Poissons Ratio (z) = 0.15126 0.15126
#
# Static dielectric constant tensor:
#      x y z
#    x 1.692600 0.000000 0.000000 
#    y 0.000000 1.692600 0.000000 
#    z 0.000000 0.000000 1.704250 
# 
# From -- ./inp_files/2837.got.cif
#   From: 2010.05.17/outbox.cif.g08.bks.cpg/sg189_2_cif.got.tgz:2837.got - 2010.05.20 12:14:34.
