data_PCOD9586656
_publ_section_title
;
Structure prediction by ZEFSAII (Michael W. Deem and Ramdas Pophale) SiO2 
 PCOD9586656
Probable space group: P -6 2 C
;
_chemical_formula_sum "Si O2"
_cell_formula_units_Z 78
_cell_length_a 24.720517
_cell_length_b 24.720517
_cell_length_c 8.342400
_cell_angle_alpha 90.000000
_cell_angle_beta 90.000000
_cell_angle_gamma 120.000000
_cell_volume 4415.061319
_symmetry_space_group_name_H-M "P -6 2 C"
_symmetry_group_IT_number 190
_symmetry_cell_setting 'hexagonal'
loop_
_space_group_symop_operation_xyz
x,y,z
-x+y,-x,1/2-z
-y,x-y,z
x,y,1/2-z
-x+y,-x,z
-y,x-y,1/2-z
x-y,-y,-z
-x,-x+y,-z
y,x,-z
y,x,1/2+z
x-y,-y,1/2+z
-x,-x+y,1/2+z
loop_
_atom_site_type_symbol
_atom_site_label
_atom_site_fract_x
_atom_site_fract_y
_atom_site_fract_z
Si Si1 0.739527 0.473996 0.568865
Si Si2 0.647498 0.932116 0.942180
Si Si3 0.612688 0.799444 0.558201
Si Si4 0.068443 0.592505 0.940056
Si Si5 0.386178 0.070701 0.942974
Si Si6 0.409043 0.730559 0.750000
Si Si7 0.388287 0.858693 0.063775
O O1 0.752329 0.459783 0.750000
O O2 0.773973 0.547989 0.538398
O O3 0.755780 0.445482 0.415838
O O4 0.665867 0.452408 0.558596
O O5 0.646235 0.934365 0.750000
O O6 0.653638 0.872313 0.984403
O O7 0.579950 0.920847 0.002600
O O8 0.699227 0.000000 0.000000
O O9 0.599425 0.794240 0.750000
O O10 0.638247 0.753604 0.512047
O O11 0.066422 0.594933 0.750000
O O12 0.119615 0.574000 0.985024
O O13 0.000000 0.540529 0.000000
O O14 0.386909 0.074040 0.750000
O O15 0.458437 0.101309 0.000412
O O16 0.346785 0.000000 0.000000
O O17 0.385696 0.656102 0.750000
O O18 0.402216 0.875157 0.250000
#
# Coordination Sequence:
#
# PCOD9586656 Si02
#       7
#    12  12  12  12  12   6  12
#     4  10  21  38  56  76  99 129 175 214 265 331
#     4   9  20  35  51  75 102 132 172 215 260 316
#     4  10  19  35  57  78 105 139 175 218 263 318
#     4  10  19  30  45  67  95 125 159 204 256 308
#     4  10  20  33  50  76 106 137 176 215 262 318
#     4  10  24  40  54  72  96 130 166 226 268 320
#     4   9  19  32  48  72  98 127 165 207 256 316
#
# _framework density 17.666796999999999
#
# number of rings (size 3 to 8) (size 9 to 14) (size 15 to 20)
#    0.154    2.154    0.769    2.769    1.077    6.154 
#    0.000    1.538    0.000    0.000    0.000    0.000 
#    0.000    0.000    0.000    0.462    0.000    7.385 
#
# Total GULP energy -435339.267778 kJ/mol
# GULP energy per Si atom -5581.272664 kJ/mol
# Density = 1.762659 g / cm^3
# Si number density = 17.666797 Si / 1000 Ang^3
#
#
#
# Elastic Constant Matrix: (Units=GPa)
#
#
# Indices 1 2 3 4 5 6 
#
# 1 68.6569 33.2636 26.6340 0.0000 0.0000 0.0000
# 2 33.2636 68.6569 26.6340 0.0000 0.0000 0.0000
# 3 26.6340 26.6340 79.2650 0.0000 0.0000 0.0000
# 4 0.0000 0.0000 0.0000 15.3881 0.0000 0.0000
# 5 0.0000 0.0000 0.0000 0.0000 15.3881 0.0000
# 6 0.0000 0.0000 0.0000 0.0000 0.0000 17.6967
#
#
#
# Elastic Compliance Matrix: (Units=1/GPa)
#
#
# Indices 1 2 3 4 5 6 
#
# 1 0.020078 -0.008176 -0.003999 0.000000 0.000000 0.000000
# 2 -0.008176 0.020078 -0.003999 0.000000 0.000000 0.000000
# 3 -0.003999 -0.003999 0.015303 0.000000 0.000000 0.000000
# 4 0.000000 0.000000 0.000000 0.064985 0.000000 0.000000
# 5 0.000000 0.000000 0.000000 0.000000 0.064985 0.000000
# 6 0.000000 0.000000 0.000000 0.000000 0.000000 0.056508
#
#
# Mechanical properties :
#
#
# Convention : Reuss Voigt Hill
#
# Bulk Modulus (GPa) = 43.27069 43.29354 43.28211
# Shear Modulus (GPa) = 17.73113 18.36437 18.04775
#
# Velocity S-wave (km/s) = 3.17147 3.22760 3.19966
# Velocity P-wave (km/s) = 6.16091 6.20070 6.18084
#
# Compressibility (1/GPa) = 0.02311033
#
# Stress axis : x y z
#
# Youngs Moduli (GPa) = 49.80625 49.80625 65.34494
#
# Poissons Ratio (x) = 0.40722 0.26132
# Poissons Ratio (y) = 0.40722 0.26132
# Poissons Ratio (z) = 0.19918 0.19918
#
# Static dielectric constant tensor:
#      x y z
#    x 1.615630 0.000000 0.000000 
#    y 0.000000 1.615630 0.000000 
#    z 0.000000 0.000000 1.627000 
# 
# From -- ./inp_files/1383.got.cif
#   From: 2010.05.17/outbox.cif.g08.bks.cpg/sg190_1_cif.got.tgz:1383.got - 2010.05.20 12:16:56.
