data_PCOD9586016
_publ_section_title
;
Structure prediction by ZEFSAII (Michael W. Deem and Ramdas Pophale) SiO2 
 PCOD9586016
Probable space group: P -6 C 2
;
_chemical_formula_sum "Si O2"
_cell_formula_units_Z 58
_cell_length_a 14.384600
_cell_length_b 14.384600
_cell_length_c 14.142854
_cell_angle_alpha 90.000000
_cell_angle_beta 90.000000
_cell_angle_gamma 120.000000
_cell_volume 2534.330611
_symmetry_space_group_name_H-M "P -6 C 2"
_symmetry_group_IT_number 188
_symmetry_cell_setting 'hexagonal'
loop_
_space_group_symop_operation_xyz
x,y,z
-x+y,-x,1/2-z
-y,x-y,z
x,y,1/2-z
-x+y,-x,z
-y,x-y,1/2-z
-y,-x,-z
-x+y,y,-z
x,x-y,-z
-x+y,y,1/2+z
x,x-y,1/2+z
-y,-x,1/2+z
loop_
_atom_site_type_symbol
_atom_site_label
_atom_site_fract_x
_atom_site_fract_y
_atom_site_fract_z
Si Si1 0.676681 0.538370 0.864774
Si Si2 0.305308 0.082869 0.362889
Si Si3 0.298912 0.864138 0.134724
Si Si4 0.666667 0.333335 0.135209
Si Si5 0.104789 0.633628 0.365397
Si Si6 0.931274 0.862547 0.500000
O O1 0.671545 0.540525 0.750000
O O2 0.802251 0.594592 0.889021
O O3 0.627842 0.415619 0.893650
O O4 0.613096 0.597177 0.898239
O O5 0.298114 0.077842 0.250000
O O6 0.208485 0.091942 0.408270
O O7 0.303404 0.974663 0.394967
O O8 0.297420 0.864624 0.250000
O O9 0.408674 0.866529 0.107366
O O10 0.194125 0.753253 0.104879
O O11 0.666667 0.333334 0.250000
O O12 0.104199 0.634734 0.250000
O O13 0.883427 0.941714 0.500000
#
# Coordination Sequence:
#
# PCOD9586016 Si02
#       6
#    12  12  12   4  12   6
#     4   9  17  28  50  80 112 153 197 242 298 354
#     4  10  21  38  61  88 120 158 202 250 303 362
#     4   9  17  29  50  82 122 159 198 250 301 363
#     4   9  15  27  48  82 122 151 193 248 289 352
#     4   9  16  26  45  78 116 156 199 243 300 361
#     4  10  26  42  58  86 116 158 202 248 306 360
#
# _framework density 22.885728
#
# number of rings (size 3 to 8) (size 9 to 14) (size 15 to 20)
#    0.207    2.483    0.000    1.655    2.897    7.448 
#    0.000    0.000    0.000    4.966    0.000    0.000 
#    0.000    0.000    0.000    0.000    0.000    0.000 
#
# Total GULP energy -323939.526625 kJ/mol
# GULP energy per Si atom -5585.164252 kJ/mol
# Density = 2.283364 g / cm^3
# Si number density = 22.885728 Si / 1000 Ang^3
#
#
#
# Elastic Constant Matrix: (Units=GPa)
#
#
# Indices 1 2 3 4 5 6 
#
# 1 178.2640 127.5569 22.6036 -0.0011 -0.0001 -0.0002
# 2 127.5569 178.2620 22.6036 0.0012 -0.0001 -0.0001
# 3 22.6036 22.6036 78.2667 0.0001 0.0001 0.0000
# 4 -0.0011 0.0012 0.0001 -5.4083 -0.0001 0.0000
# 5 -0.0001 -0.0001 0.0001 -0.0001 -5.4087 -0.0013
# 6 -0.0002 -0.0001 0.0000 0.0000 -0.0013 25.3526
#
#
#
# Elastic Compliance Matrix: (Units=1/GPa)
#
#
# Indices 1 2 3 4 5 6 
#
# 1 0.011569 -0.008153 -0.000986 -0.000004 0.000000 0.000000
# 2 -0.008153 0.011569 -0.000986 0.000004 0.000000 0.000000
# 3 -0.000986 -0.000986 0.013347 0.000000 0.000000 0.000000
# 4 -0.000004 0.000004 0.000000 -0.184900 0.000003 0.000000
# 5 0.000000 0.000000 0.000000 0.000003 -0.184888 -0.000010
# 6 0.000000 0.000000 0.000000 0.000000 -0.000010 0.039444
#
#
# Mechanical properties :
#
#
# Convention : Reuss Voigt Hill
#
# Bulk Modulus (GPa) = 61.60599 86.70234 74.15417
# Shear Modulus (GPa) = -18.64300 20.37568 0.86634
#
# Velocity S-wave (km/s) = -2.85724 2.98706 0.61593
# Velocity P-wave (km/s) = 4.01152 7.06144 5.74266
#
# Compressibility (1/GPa) = 0.01623219
#
# Stress axis : x y z
#
# Youngs Moduli (GPa) = 86.44130 86.44033 74.92533
#
# Poissons Ratio (x) = 0.70474 0.07391
# Poissons Ratio (y) = 0.70475 0.07391
# Poissons Ratio (z) = 0.08527 0.08527
#
# Static dielectric constant tensor:
#      x y z
#    x 1.884080 0.000000 0.000000 
#    y 0.000000 1.884090 0.000000 
#    z 0.000000 0.000000 1.876570 
# 
# From -- ./inp_files/2328.got.cif
#   From: 2010.05.17/outbox.cif.g08.bks.cpg/sg188_2_cif.got.tgz:2328.got - 2010.05.20 12:11:46.
