data_PCOD9586076
_publ_section_title
;
Structure prediction by ZEFSAII (Michael W. Deem and Ramdas Pophale) SiO2 
 PCOD9586076
Probable space group: P -6 C 2
;
_chemical_formula_sum "Si O2"
_cell_formula_units_Z 64
_cell_length_a 16.782983
_cell_length_b 16.782983
_cell_length_c 15.450545
_cell_angle_alpha 90.000000
_cell_angle_beta 90.000000
_cell_angle_gamma 120.000000
_cell_volume 3768.883770
_symmetry_space_group_name_H-M "P -6 C 2"
_symmetry_group_IT_number 188
_symmetry_cell_setting 'hexagonal'
loop_
_space_group_symop_operation_xyz
x,y,z
-x+y,-x,1/2-z
-y,x-y,z
x,y,1/2-z
-x+y,-x,z
-y,x-y,1/2-z
-y,-x,-z
-x+y,y,-z
x,x-y,-z
-x+y,y,1/2+z
x,x-y,1/2+z
-y,-x,1/2+z
loop_
_atom_site_type_symbol
_atom_site_label
_atom_site_fract_x
_atom_site_fract_y
_atom_site_fract_z
Si Si1 0.312769 0.838424 0.144429
Si Si2 0.506314 0.857909 0.144936
Si Si3 0.666667 0.333333 0.396192
Si Si4 0.395085 0.040714 0.151340
Si Si5 0.574802 0.055997 0.409967
Si Si6 0.776517 0.539850 0.351940
O O1 0.311143 0.841135 0.250000
O O2 0.400843 0.827819 0.122576
O O3 0.218897 0.749750 0.116745
O O4 0.334367 0.938820 0.112289
O O5 0.514596 0.866535 0.250000
O O6 0.566637 0.957571 0.102931
O O7 0.666668 0.333334 0.500000
O O8 0.696897 0.434115 0.362772
O O9 0.363927 0.036071 0.250000
O O10 0.498777 0.056462 0.153963
O O11 0.401077 0.132496 0.112653
O O12 0.532470 0.064940 0.500000
O O13 0.678480 0.136298 0.396370
O O14 0.796972 0.559368 0.250000
#
# Coordination Sequence:
#
# PCOD9586076 Si02
#       6
#    12  12   4  12  12  12
#     4   8  14  26  45  67  84 110 149 192 233 275
#     4   9  16  29  48  66  89 117 155 196 236 288
#     4  12  22  29  43  69  91 125 157 192 232 281
#     4   9  18  30  44  61  85 115 153 196 233 278
#     4  11  21  30  42  65  93 123 156 195 240 287
#     4  11  20  31  46  62  89 126 163 195 232 281
#
# _framework density 16.981155999999999
#
# number of rings (size 3 to 8) (size 9 to 14) (size 15 to 20)
#    0.000    2.250    1.875    4.312    0.000    1.500 
#    0.000    3.750    0.000    0.000    0.000    0.000 
#    1.875    0.000    3.375    0.000    5.250    0.000 
#
# Total GULP energy -356736.760414 kJ/mol
# GULP energy per Si atom -5574.011881 kJ/mol
# Density = 1.694251 g / cm^3
# Si number density = 16.981156 Si / 1000 Ang^3
#
#
#
# Elastic Constant Matrix: (Units=GPa)
#
#
# Indices 1 2 3 4 5 6 
#
# 1 124.7012 70.3328 17.7035 -0.0004 0.0000 0.0000
# 2 70.3328 124.7015 17.7036 0.0003 -0.0001 0.0000
# 3 17.7035 17.7036 52.6360 -0.0001 -0.0001 0.0000
# 4 -0.0004 0.0003 -0.0001 -2.7880 0.0000 0.0000
# 5 0.0000 -0.0001 -0.0001 0.0000 -2.7882 -0.0002
# 6 0.0000 0.0000 0.0000 0.0000 -0.0002 27.1844
#
#
#
# Elastic Compliance Matrix: (Units=1/GPa)
#
#
# Indices 1 2 3 4 5 6 
#
# 1 0.011927 -0.006466 -0.001837 -0.000002 0.000000 0.000000
# 2 -0.006466 0.011927 -0.001837 0.000002 0.000000 0.000000
# 3 -0.001837 -0.001837 0.020234 0.000000 0.000000 0.000000
# 4 -0.000002 0.000002 0.000000 -0.358685 0.000004 0.000001
# 5 0.000000 0.000000 0.000000 0.000004 -0.358649 -0.000003
# 6 0.000000 0.000000 0.000000 0.000001 -0.000003 0.036786
#
#
# Mechanical properties :
#
#
# Convention : Reuss Voigt Hill
#
# Bulk Modulus (GPa) = 42.00140 57.05760 49.52950
# Shear Modulus (GPa) = -8.22036 17.40822 4.59393
#
# Velocity S-wave (km/s) = -2.20258 3.20527 1.64657
# Velocity P-wave (km/s) = 4.28011 6.88272 5.73111
#
# Compressibility (1/GPa) = 0.02380873
#
# Stress axis : x y z
#
# Youngs Moduli (GPa) = 83.84425 83.84438 49.42204
#
# Poissons Ratio (x) = 0.54215 0.09077
# Poissons Ratio (y) = 0.54215 0.09077
# Poissons Ratio (z) = 0.15399 0.15399
#
# Static dielectric constant tensor:
#      x y z
#    x 1.587510 0.000000 0.000000 
#    y 0.000000 1.587510 0.000000 
#    z 0.000000 0.000000 1.675190 
# 
# From -- ./inp_files/3095.got.cif
#   From: 2010.05.17/outbox.cif.g08.bks.cpg/sg188_2_cif.got.tgz:3095.got - 2010.05.20 12:11:46.
