data_PCOD9586529
_publ_section_title
;
Structure prediction by ZEFSAII (Michael W. Deem and Ramdas Pophale) SiO2 
 PCOD9586529
Probable space group: P -6 2 M
;
_chemical_formula_sum "Si O2"
_cell_formula_units_Z 48
_cell_length_a 18.592486
_cell_length_b 18.592486
_cell_length_c 9.318142
_cell_angle_alpha 90.000000
_cell_angle_beta 90.000000
_cell_angle_gamma 120.000000
_cell_volume 2789.554703
_symmetry_space_group_name_H-M "P -6 2 M"
_symmetry_group_IT_number 189
_symmetry_cell_setting 'hexagonal'
loop_
_space_group_symop_operation_xyz
x,y,z
-x+y,-x,-z
-y,x-y,z
x,y,-z
-x+y,-x,z
-y,x-y,-z
x-y,-y,-z
-x,-x+y,-z
y,x,-z
y,x,z
x-y,-y,z
-x,-x+y,z
loop_
_atom_site_type_symbol
_atom_site_label
_atom_site_fract_x
_atom_site_fract_y
_atom_site_fract_z
Si Si1 0.323823 0.903354 0.670895
Si Si2 0.589165 0.832117 0.828024
Si Si3 0.506522 0.409271 0.329872
Si Si4 0.000000 0.907925 0.330077
Si Si5 0.241781 0.241781 0.828581
O O1 0.305732 0.893382 0.500000
O O2 0.245552 0.837254 0.759862
O O3 0.401863 0.888996 0.695074
O O4 0.356654 0.000000 0.707088
O O5 0.516237 0.844366 0.760988
O O6 0.673737 0.916818 0.789030
O O7 0.582326 0.825224 0.000000
O O8 0.498501 0.390152 0.500000
O O9 0.443710 0.443710 0.295140
O O10 0.000000 0.893478 0.500000
O O11 0.922190 0.922190 0.299255
O O12 0.000000 0.835782 0.243213
O O13 0.233995 0.233995 0.000000
#
# Coordination Sequence:
#
# PCOD9586529 Si02
#       5
#    12  12  12   6   6
#     4   9  20  39  60  83 111 144 187 234 279 329
#     4  11  22  36  55  84 118 149 185 228 276 335
#     4   9  18  36  61  83 106 142 186 230 276 325
#     4   8  18  36  54  76 105 140 187 238 281 318
#     4  10  22  36  52  80 115 150 187 224 269 332
#
# _framework density 17.207046999999999
#
# number of rings (size 3 to 8) (size 9 to 14) (size 15 to 20)
#    0.250    2.250    1.250    2.250    0.000    5.000 
#    1.500    7.500    0.000    0.000    0.000    0.000 
#    0.000    0.000    0.000    0.000    0.000    0.000 
#
# Total GULP energy -267640.050586 kJ/mol
# GULP energy per Si atom -5575.834387 kJ/mol
# Density = 1.716788 g / cm^3
# Si number density = 17.207047 Si / 1000 Ang^3
#
#
#
# Elastic Constant Matrix: (Units=GPa)
#
#
# Indices 1 2 3 4 5 6 
#
# 1 111.9600 68.2638 62.5952 0.0000 0.0000 0.0000
# 2 68.2638 111.9600 62.5952 0.0000 0.0000 0.0000
# 3 62.5952 62.5952 46.7556 0.0000 0.0000 0.0000
# 4 0.0000 0.0000 0.0000 29.2288 0.0000 0.0000
# 5 0.0000 0.0000 0.0000 0.0000 29.2288 0.0000
# 6 0.0000 0.0000 0.0000 0.0000 0.0000 21.8481
#
#
#
# Elastic Compliance Matrix: (Units=1/GPa)
#
#
# Indices 1 2 3 4 5 6 
#
# 1 0.051056 0.028170 -0.106066 0.000000 0.000000 0.000000
# 2 0.028170 0.051056 -0.106066 0.000000 0.000000 0.000000
# 3 -0.106066 -0.106066 0.305384 0.000000 0.000000 0.000000
# 4 0.000000 0.000000 0.000000 0.034213 0.000000 0.000000
# 5 0.000000 0.000000 0.000000 0.000000 0.034213 0.000000
# 6 0.000000 0.000000 0.000000 0.000000 0.000000 0.045771
#
#
# Mechanical properties :
#
#
# Convention : Reuss Voigt Hill
#
# Bulk Modulus (GPa) = 25.26973 73.06489 49.16731
# Shear Modulus (GPa) = 5.53829 21.20925 13.37377
#
# Velocity S-wave (km/s) = 1.79600 3.51464 2.79090
# Velocity P-wave (km/s) = 4.36101 7.68275 6.24672
#
# Compressibility (1/GPa) = 0.03957304
#
# Stress axis : x y z
#
# Youngs Moduli (GPa) = 19.58645 19.58645 3.27456
#
# Poissons Ratio (x) = -0.55176 0.34732
# Poissons Ratio (y) = -0.55176 0.34732
# Poissons Ratio (z) = 2.07745 2.07745
#
# Static dielectric constant tensor:
#      x y z
#    x 1.575730 0.000000 0.000000 
#    y 0.000000 1.575730 0.000000 
#    z 0.000000 0.000000 1.564600 
# 
# From -- ./inp_files/644.got.cif
#   From: 2010.05.17/outbox.cif.g08.bks.cpg/sg189_1_cif.got.tgz:644.got - 2010.05.20 12:14:34.
