data_PCOD9586323
_publ_section_title
;
Structure prediction by ZEFSAII (Michael W. Deem and Ramdas Pophale) SiO2 
 PCOD9586323
Probable space group: P -6 2 M
;
_chemical_formula_sum "Si O2"
_cell_formula_units_Z 75
_cell_length_a 17.121011
_cell_length_b 17.121011
_cell_length_c 13.159006
_cell_angle_alpha 90.000000
_cell_angle_beta 90.000000
_cell_angle_gamma 120.000000
_cell_volume 3340.508101
_symmetry_space_group_name_H-M "P -6 2 M"
_symmetry_group_IT_number 189
_symmetry_cell_setting 'hexagonal'
loop_
_space_group_symop_operation_xyz
x,y,z
-x+y,-x,-z
-y,x-y,z
x,y,-z
-x+y,-x,z
-y,x-y,-z
x-y,-y,-z
-x,-x+y,-z
y,x,-z
y,x,z
x-y,-y,z
-x,-x+y,z
loop_
_atom_site_type_symbol
_atom_site_label
_atom_site_fract_x
_atom_site_fract_y
_atom_site_fract_z
Si Si1 0.895815 0.794366 0.388033
Si Si2 0.180618 0.518140 0.318379
Si Si3 0.572031 0.171090 0.893588
Si Si4 0.573822 0.573822 0.000000
Si Si5 0.901331 0.235233 0.215142
Si Si6 0.604530 0.896566 0.169493
Si Si7 0.479031 0.330369 0.611505
O O1 0.865297 0.750515 0.500000
O O2 0.878892 0.878892 0.388425
O O3 0.837741 0.733288 0.296370
O O4 0.000000 0.827559 0.375590
O O5 0.216864 0.566569 0.208835
O O6 0.111627 0.416493 0.285325
O O7 0.137716 0.571484 0.371568
O O8 0.260219 0.516271 0.379316
O O9 0.642888 0.135879 0.879396
O O10 0.588372 0.221086 0.000000
O O11 0.476226 0.080117 0.913310
O O12 0.811798 0.177410 0.147508
O O13 0.000000 0.282096 0.164536
O O14 0.585847 0.892598 0.291476
O O15 0.673691 0.000000 0.140441
O O16 0.439526 0.323335 0.500000
#
# Coordination Sequence:
#
# PCOD9586323 Si02
#       7
#    12  12  12   3  12  12  12
#     4   9  17  31  50  74 105 146 194 239 279 323
#     4  10  21  36  57  78 112 149 183 230 282 339
#     4   9  18  35  64  92 115 147 186 226 281 336
#     4   8  16  32  64  96 116 148 182 226 280 336
#     4  10  22  34  50  77 110 143 177 222 286 343
#     4  10  19  36  57  81 111 148 193 239 281 330
#     4  10  21  35  54  81 110 150 197 233 277 329
#
# _framework density 22.451675000000002
#
# number of rings (size 3 to 8) (size 9 to 14) (size 15 to 20)
#    0.480    1.920    0.800    1.440    1.120    4.800 
#    0.000    7.200    0.000    1.760    0.000    0.000 
#    0.000    0.000    0.000    0.000    0.000    2.160 
#
# Total GULP energy -417919.739497 kJ/mol
# GULP energy per Si atom -5572.263193 kJ/mol
# Density = 2.240057 g / cm^3
# Si number density = 22.451675 Si / 1000 Ang^3
#
#
#
# Elastic Constant Matrix: (Units=GPa)
#
#
# Indices 1 2 3 4 5 6 
#
# 1 78.4504 19.0297 -11.4491 0.0000 0.0000 0.0000
# 2 19.0297 78.4504 -11.4491 0.0000 0.0000 0.0000
# 3 -11.4491 -11.4491 88.2600 0.0000 0.0000 0.0000
# 4 0.0000 0.0000 0.0000 -18.0320 0.0000 0.0000
# 5 0.0000 0.0000 0.0000 0.0000 -18.0320 0.0000
# 6 0.0000 0.0000 0.0000 0.0000 0.0000 29.7104
#
#
#
# Elastic Compliance Matrix: (Units=1/GPa)
#
#
# Indices 1 2 3 4 5 6 
#
# 1 0.013705 -0.003124 0.001373 0.000000 0.000000 0.000000
# 2 -0.003124 0.013705 0.001373 0.000000 0.000000 0.000000
# 3 0.001373 0.001373 0.011686 0.000000 0.000000 0.000000
# 4 0.000000 0.000000 0.000000 -0.055457 0.000000 0.000000
# 5 0.000000 0.000000 0.000000 0.000000 -0.055457 0.000000
# 6 0.000000 0.000000 0.000000 0.000000 0.000000 0.033658
#
#
# Mechanical properties :
#
#
# Convention : Reuss Voigt Hill
#
# Bulk Modulus (GPa) = 26.08357 26.38043 26.23200
# Shear Modulus (GPa) = -203.06958 15.33125 -93.86917
#
# Velocity S-wave (km/s) = -9.52070 2.61599 -6.47304
# Velocity P-wave (km/s) = 10.45062 4.57164 6.64513
#
# Compressibility (1/GPa) = 0.03833831
#
# Stress axis : x y z
#
# Youngs Moduli (GPa) = 72.96594 72.96594 85.57061
#
# Poissons Ratio (x) = 0.22795 -0.11745
# Poissons Ratio (y) = 0.22795 -0.11745
# Poissons Ratio (z) = -0.10015 -0.10015
#
# Static dielectric constant tensor:
#      x y z
#    x 1.850610 0.000000 0.000000 
#    y 0.000000 1.850610 0.000000 
#    z 0.000000 0.000000 1.873920 
# 
# From -- ./inp_files/2724.got.cif
#   From: 2010.05.17/outbox.cif.g08.bks.cpg/sg189_2_cif.got.tgz:2724.got - 2010.05.20 12:14:34.
