data_PCOD9586441
_publ_section_title
;
Structure prediction by ZEFSAII (Michael W. Deem and Ramdas Pophale) SiO2 
 PCOD9586441
Probable space group: P -6 2 M
;
_chemical_formula_sum "Si O2"
_cell_formula_units_Z 60
_cell_length_a 14.749425
_cell_length_b 14.749425
_cell_length_c 14.640322
_cell_angle_alpha 90.000000
_cell_angle_beta 90.000000
_cell_angle_gamma 120.000000
_cell_volume 2758.236112
_symmetry_space_group_name_H-M "P -6 2 M"
_symmetry_group_IT_number 189
_symmetry_cell_setting 'hexagonal'
loop_
_space_group_symop_operation_xyz
x,y,z
-x+y,-x,-z
-y,x-y,z
x,y,-z
-x+y,-x,z
-y,x-y,-z
x-y,-y,-z
-x,-x+y,-z
y,x,-z
y,x,z
x-y,-y,z
-x,-x+y,z
loop_
_atom_site_type_symbol
_atom_site_label
_atom_site_fract_x
_atom_site_fract_y
_atom_site_fract_z
Si Si1 0.676825 0.127275 0.099156
Si Si2 0.769130 0.884830 0.639348
Si Si3 0.241444 0.120347 0.859895
Si Si4 0.478018 0.878010 0.293628
Si Si5 0.726131 0.536730 0.602596
O O1 0.797674 0.156621 0.109344
O O2 0.636933 0.157664 0.189602
O O3 0.612119 0.000000 0.098820
O O4 0.660727 0.163247 0.000000
O O5 0.861268 0.861268 0.617200
O O6 0.757576 0.880472 0.749470
O O7 0.661429 0.793611 0.601726
O O8 0.798367 0.000000 0.609208
O O9 0.166629 0.166629 0.889100
O O10 0.193479 0.000000 0.888402
O O11 0.369153 0.865086 0.326994
O O12 0.499849 0.804723 0.359751
O O13 0.566607 0.000000 0.301176
O O14 0.688714 0.497884 0.500000
#
# Coordination Sequence:
#
# PCOD9586441 Si02
#       5
#    12  12  12  12  12
#     4   9  18  36  63  91 123 168 217 262 315 380
#     4  10  20  36  59  91 132 175 216 260 316 386
#     4   9  16  29  53  89 133 179 221 262 312 377
#     4  11  24  45  68  93 130 170 209 269 340 390
#     4  12  25  41  65  96 125 163 221 275 327 396
#
# _framework density 21.753032999999999
#
# number of rings (size 3 to 8) (size 9 to 14) (size 15 to 20)
#    0.000    1.800    2.000    2.600    0.000    6.000 
#    0.000    1.000    0.000    2.400    0.000    0.000 
#    0.000    0.000    0.000    0.000    0.000    0.000 
#
# Total GULP energy -335331.791520 kJ/mol
# GULP energy per Si atom -5588.863192 kJ/mol
# Density = 2.170352 g / cm^3
# Si number density = 21.753033 Si / 1000 Ang^3
#
#
#
# Elastic Constant Matrix: (Units=GPa)
#
#
# Indices 1 2 3 4 5 6 
#
# 1 72.8935 13.5209 44.4255 0.0000 0.0000 0.0000
# 2 13.5209 72.8935 44.4255 0.0000 0.0000 0.0000
# 3 44.4255 44.4255 158.7917 0.0000 0.0000 0.0000
# 4 0.0000 0.0000 0.0000 -16.7971 0.0000 0.0000
# 5 0.0000 0.0000 0.0000 0.0000 -16.7971 0.0000
# 6 0.0000 0.0000 0.0000 0.0000 0.0000 29.6863
#
#
#
# Elastic Compliance Matrix: (Units=1/GPa)
#
#
# Indices 1 2 3 4 5 6 
#
# 1 0.016544 -0.000299 -0.004545 0.000000 0.000000 0.000000
# 2 -0.000299 0.016544 -0.004545 0.000000 0.000000 0.000000
# 3 -0.004545 -0.004545 0.008841 0.000000 0.000000 0.000000
# 4 0.000000 0.000000 0.000000 -0.059534 0.000000 0.000000
# 5 0.000000 0.000000 0.000000 0.000000 -0.059534 0.000000
# 6 0.000000 0.000000 0.000000 0.000000 0.000000 0.033686
#
#
# Mechanical properties :
#
#
# Convention : Reuss Voigt Hill
#
# Bulk Modulus (GPa) = 43.19410 56.59138 49.89274
# Shear Modulus (GPa) = -294.82023 12.69888 -141.06067
#
# Velocity S-wave (km/s) = -11.65439 2.41877 -8.06146
# Velocity P-wave (km/s) = 12.69646 5.82000 7.97896
#
# Compressibility (1/GPa) = 0.02315131
#
# Stress axis : x y z
#
# Youngs Moduli (GPa) = 60.44479 60.44479 113.11359
#
# Poissons Ratio (x) = 0.01806 0.51410
# Poissons Ratio (y) = 0.01806 0.51410
# Poissons Ratio (z) = 0.27472 0.27472
#
# Static dielectric constant tensor:
#      x y z
#    x 1.785590 0.000000 0.000000 
#    y 0.000000 1.785590 0.000000 
#    z 0.000000 0.000000 1.825710 
# 
# From -- ./inp_files/2527.got.cif
#   From: 2010.05.17/outbox.cif.g08.bks.cpg/sg189_2_cif.got.tgz:2527.got - 2010.05.20 12:14:34.
