data_PCOD9586708
_publ_section_title
;
Structure prediction by ZEFSAII (Michael W. Deem and Ramdas Pophale) SiO2 
 PCOD9586708
Probable space group: P -6 2 C
;
_chemical_formula_sum "Si O2"
_cell_formula_units_Z 90
_cell_length_a 17.974991
_cell_length_b 17.974991
_cell_length_c 18.062163
_cell_angle_alpha 90.000000
_cell_angle_beta 90.000000
_cell_angle_gamma 120.000000
_cell_volume 5054.029262
_symmetry_space_group_name_H-M "P -6 2 C"
_symmetry_group_IT_number 190
_symmetry_cell_setting 'hexagonal'
loop_
_space_group_symop_operation_xyz
x,y,z
-x+y,-x,1/2-z
-y,x-y,z
x,y,1/2-z
-x+y,-x,z
-y,x-y,1/2-z
x-y,-y,-z
-x,-x+y,-z
y,x,-z
y,x,1/2+z
x-y,-y,1/2+z
-x,-x+y,1/2+z
loop_
_atom_site_type_symbol
_atom_site_label
_atom_site_fract_x
_atom_site_fract_y
_atom_site_fract_z
Si Si1 0.550779 0.778294 0.896635
Si Si2 0.356516 0.318183 0.337682
Si Si3 0.742211 0.297759 0.250000
Si Si4 0.907130 0.141834 0.665498
Si Si5 0.555246 0.283285 0.546766
Si Si6 0.418961 0.265889 0.663974
Si Si7 0.054908 0.267740 0.926476
Si Si8 0.803989 0.980522 0.919037
O O1 0.575988 0.876818 0.880008
O O2 0.501675 0.724752 0.823574
O O3 0.637782 0.774780 0.913696
O O4 0.490647 0.747550 0.967943
O O5 0.371760 0.321751 0.250000
O O6 0.339688 0.395786 0.357834
O O7 0.266757 0.233071 0.357900
O O8 0.637154 0.242593 0.250000
O O9 0.914842 0.120310 0.750000
O O10 0.823265 0.152229 0.658872
O O11 0.889087 0.063390 0.610742
O O12 0.988365 0.230631 0.640839
O O13 0.615448 0.240747 0.552936
O O14 0.486432 0.261499 0.610500
O O15 0.445748 0.278875 0.750000
O O16 0.092050 0.202280 0.930392
O O17 0.000000 0.258318 0.000000
O O18 0.779299 0.000000 0.000000
#
# Coordination Sequence:
#
# PCOD9586708 Si02
#       8
#    12  12   6  12  12  12  12  12
#     4  11  21  37  64  87 123 158 208 250 304 367
#     4   9  19  33  58  92 112 141 195 247 291 350
#     4  10  22  40  68  88 118 162 204 250 318 386
#     4  10  21  37  57  84 123 161 203 255 307 355
#     4  10  23  39  61  85 114 151 199 243 295 378
#     4   9  19  38  64  87 119 155 197 248 303 359
#     4  11  22  35  59  87 121 165 215 255 306 364
#     4  10  19  33  54  80 114 157 202 244 290 352
#
# _framework density 17.807573999999999
#
# number of rings (size 3 to 8) (size 9 to 14) (size 15 to 20)
#    0.400    1.600    2.000    2.800    6.533    1.600 
#    0.800    0.667   14.667    0.000    0.000    0.000 
#    0.000    0.000    0.000    0.000    0.000    0.000 
#
# Total GULP energy -501155.687258 kJ/mol
# GULP energy per Si atom -5568.396525 kJ/mol
# Density = 1.776704 g / cm^3
# Si number density = 17.807574 Si / 1000 Ang^3
#
#
#
# Elastic Constant Matrix: (Units=GPa)
#
#
# Indices 1 2 3 4 5 6 
#
# 1 68.8607 19.6237 43.5980 0.0000 0.0000 0.0000
# 2 19.6237 68.8607 43.5980 0.0000 0.0000 0.0000
# 3 43.5980 43.5980 104.2779 0.0000 0.0000 0.0000
# 4 0.0000 0.0000 0.0000 -5.7606 0.0000 0.0000
# 5 0.0000 0.0000 0.0000 0.0000 -5.7606 0.0000
# 6 0.0000 0.0000 0.0000 0.0000 0.0000 24.6185
#
#
#
# Elastic Compliance Matrix: (Units=1/GPa)
#
#
# Indices 1 2 3 4 5 6 
#
# 1 0.019765 -0.000545 -0.008036 0.000000 0.000000 0.000000
# 2 -0.000545 0.019765 -0.008036 0.000000 0.000000 0.000000
# 3 -0.008036 -0.008036 0.016309 0.000000 0.000000 0.000000
# 4 0.000000 0.000000 0.000000 -0.173592 0.000000 0.000000
# 5 0.000000 0.000000 0.000000 0.000000 -0.173592 0.000000
# 6 0.000000 0.000000 0.000000 0.000000 0.000000 0.040620
#
#
# Mechanical properties :
#
#
# Convention : Reuss Voigt Hill
#
# Bulk Modulus (GPa) = 44.23541 50.62653 47.43097
# Shear Modulus (GPa) = -23.81465 11.63140 -6.09163
#
# Velocity S-wave (km/s) = -3.66092 2.55849 -1.85155
# Velocity P-wave (km/s) = 2.65045 6.10077 4.70342
#
# Compressibility (1/GPa) = 0.02260632
#
# Stress axis : x y z
#
# Youngs Moduli (GPa) = 50.59407 50.59407 61.31461
#
# Poissons Ratio (x) = 0.02756 0.49272
# Poissons Ratio (y) = 0.02756 0.49272
# Poissons Ratio (z) = 0.40657 0.40657
#
# Static dielectric constant tensor:
#      x y z
#    x 1.630700 0.000000 0.000000 
#    y 0.000000 1.630700 0.000000 
#    z 0.000000 0.000000 1.606820 
# 
# From -- ./inp_files/3959.got.cif
#   From: 2010.05.17/outbox.cif.g08.bks.cpg/sg190_2_cif.got.tgz:3959.got - 2010.05.20 12:16:56.
