data_PCOD9586122
_publ_section_title
;
Structure prediction by ZEFSAII (Michael W. Deem and Ramdas Pophale) SiO2 
 PCOD9586122
Probable space group: P -6 2 M
;
_chemical_formula_sum "Si O2"
_cell_formula_units_Z 84
_cell_length_a 13.856258
_cell_length_b 13.856258
_cell_length_c 24.704354
_cell_angle_alpha 90.000000
_cell_angle_beta 90.000000
_cell_angle_gamma 120.000000
_cell_volume 4107.674822
_symmetry_space_group_name_H-M "P -6 2 M"
_symmetry_group_IT_number 189
_symmetry_cell_setting 'hexagonal'
loop_
_space_group_symop_operation_xyz
x,y,z
-x+y,-x,-z
-y,x-y,z
x,y,-z
-x+y,-x,z
-y,x-y,-z
x-y,-y,-z
-x,-x+y,-z
y,x,-z
y,x,z
x-y,-y,z
-x,-x+y,z
loop_
_atom_site_type_symbol
_atom_site_label
_atom_site_fract_x
_atom_site_fract_y
_atom_site_fract_z
Si Si1 0.803743 0.673998 0.264111
Si Si2 0.869866 0.133159 0.564679
Si Si3 0.330085 0.127105 0.857011
Si Si4 0.309961 0.440737 0.939639
Si Si5 0.427488 0.868063 0.273483
Si Si6 0.567639 0.437305 0.843873
Si Si7 0.293131 0.417463 0.644029
O O1 0.766228 0.766228 0.271577
O O2 0.848266 0.685579 0.202905
O O3 0.689691 0.554671 0.272529
O O4 0.880932 0.666038 0.308763
O O5 0.865030 0.143576 0.500000
O O6 0.794817 0.175843 0.595190
O O7 0.000000 0.201086 0.581165
O O8 0.815070 0.000000 0.576390
O O9 0.345504 0.204395 0.907454
O O10 0.447377 0.128659 0.851308
O O11 0.236096 0.000000 0.865693
O O12 0.398181 0.398181 0.945487
O O13 0.362082 0.541441 0.896630
O O14 0.284026 0.464218 0.000000
O O15 0.435702 0.820972 0.214794
O O16 0.463374 0.823397 0.325370
O O17 0.517946 0.000000 0.273219
O O18 0.472513 0.472513 0.841330
O O19 0.383642 0.383642 0.625690
#
# Coordination Sequence:
#
# PCOD9586122 Si02
#       7
#    12  12  12  12  12  12  12
#     4   9  17  30  47  69  97 123 150 191 243 294
#     4   9  17  29  46  70 102 138 172 204 238 278
#     4   9  18  32  50  69  90 121 156 188 230 288
#     4  10  20  32  47  68  93 121 154 194 238 280
#     4   8  15  28  45  65  90 118 149 189 236 284
#     4   8  15  30  48  64  86 116 148 185 233 286
#     4  10  18  28  47  73  97 126 164 202 238 278
#
# _framework density 20.449525000000001
#
# number of rings (size 3 to 8) (size 9 to 14) (size 15 to 20)
#    0.000    3.000    0.000    3.143    0.000    3.143 
#    1.714    1.429    0.000    1.429    0.000    4.000 
#    0.000    0.000    0.000    0.000    0.000    0.000 
#
# Total GULP energy -467647.847978 kJ/mol
# GULP energy per Si atom -5567.236285 kJ/mol
# Density = 2.040298 g / cm^3
# Si number density = 20.449525 Si / 1000 Ang^3
#
#
#
# Elastic Constant Matrix: (Units=GPa)
#
#
# Indices 1 2 3 4 5 6 
#
# 1 40.3990 4.4981 18.9918 0.0000 0.0000 0.0000
# 2 4.4981 40.3990 18.9918 0.0000 0.0000 0.0000
# 3 18.9918 18.9918 95.3767 0.0000 0.0000 0.0000
# 4 0.0000 0.0000 0.0000 19.1087 0.0000 0.0000
# 5 0.0000 0.0000 0.0000 0.0000 19.1087 0.0000
# 6 0.0000 0.0000 0.0000 0.0000 0.0000 17.9504
#
#
#
# Elastic Compliance Matrix: (Units=1/GPa)
#
#
# Indices 1 2 3 4 5 6 
#
# 1 0.027320 -0.000534 -0.005334 0.000000 0.000000 0.000000
# 2 -0.000534 0.027320 -0.005334 0.000000 0.000000 0.000000
# 3 -0.005334 -0.005334 0.012609 0.000000 0.000000 0.000000
# 4 0.000000 0.000000 0.000000 0.052332 0.000000 0.000000
# 5 0.000000 0.000000 0.000000 0.000000 0.052332 0.000000
# 6 0.000000 0.000000 0.000000 0.000000 0.000000 0.055709
#
#
# Mechanical properties :
#
#
# Convention : Reuss Voigt Hill
#
# Bulk Modulus (GPa) = 22.29888 29.01533 25.65711
# Shear Modulus (GPa) = 18.86976 20.14642 19.50809
#
# Velocity S-wave (km/s) = 3.04097 3.14216 3.09198
# Velocity P-wave (km/s) = 4.82266 5.23295 5.03199
#
# Compressibility (1/GPa) = 0.04484529
#
# Stress axis : x y z
#
# Youngs Moduli (GPa) = 36.60327 36.60327 79.30945
#
# Poissons Ratio (x) = 0.01956 0.42301
# Poissons Ratio (y) = 0.01956 0.42301
# Poissons Ratio (z) = 0.19523 0.19523
#
# Static dielectric constant tensor:
#      x y z
#    x 1.780220 0.000000 0.000000 
#    y 0.000000 1.780220 0.000000 
#    z 0.000000 0.000000 1.767180 
# 
# From -- ./inp_files/3613.got.cif
#   From: 2010.05.17/outbox.cif.g08.bks.cpg/sg189_2_cif.got.tgz:3613.got - 2010.05.20 12:14:34.
