data_PCOD9586498
_publ_section_title
;
Structure prediction by ZEFSAII (Michael W. Deem and Ramdas Pophale) SiO2 
 PCOD9586498
Probable space group: P -6 2 M
;
_chemical_formula_sum "Si O2"
_cell_formula_units_Z 72
_cell_length_a 23.504242
_cell_length_b 23.504242
_cell_length_c 8.624878
_cell_angle_alpha 90.000000
_cell_angle_beta 90.000000
_cell_angle_gamma 120.000000
_cell_volume 4126.445298
_symmetry_space_group_name_H-M "P -6 2 M"
_symmetry_group_IT_number 189
_symmetry_cell_setting 'hexagonal'
loop_
_space_group_symop_operation_xyz
x,y,z
-x+y,-x,-z
-y,x-y,z
x,y,-z
-x+y,-x,z
-y,x-y,-z
x-y,-y,-z
-x,-x+y,-z
y,x,-z
y,x,z
x-y,-y,z
-x,-x+y,z
loop_
_atom_site_type_symbol
_atom_site_label
_atom_site_fract_x
_atom_site_fract_y
_atom_site_fract_z
Si Si1 0.073839 0.803227 0.682111
Si Si2 0.148836 0.074376 0.181082
Si Si3 0.475848 0.766922 0.687453
Si Si4 0.657528 0.581110 0.312393
Si Si5 0.387219 0.182279 0.182809
Si Si6 0.621056 0.436054 0.688012
O O1 0.079619 0.793462 0.500000
O O2 0.078808 0.873021 0.712289
O O3 0.134407 0.806807 0.771729
O O4 0.000000 0.749122 0.733863
O O5 0.088933 0.088933 0.190890
O O6 0.125072 0.000000 0.221489
O O7 0.170619 0.085864 0.000000
O O8 0.480348 0.771180 0.500000
O O9 0.547509 0.793350 0.755788
O O10 0.438486 0.689369 0.726998
O O11 0.438316 0.804684 0.741814
O O12 0.657207 0.580984 0.500000
O O13 0.618064 0.618064 0.261202
O O14 0.733345 0.615469 0.258466
O O15 0.625726 0.504413 0.260668
O O16 0.390657 0.176169 0.000000
O O17 0.617618 0.436134 0.500000
#
# Coordination Sequence:
#
# PCOD9586498 Si02
#       6
#    12  12  12  12  12  12
#     4  10  21  37  55  73  94 124 165 212 257 297
#     4   9  17  30  49  73 100 128 156 189 235 293
#     4   9  16  30  52  78 107 135 167 206 247 294
#     4   9  18  34  55  78 105 137 174 216 258 301
#     4  11  22  35  52  74 102 136 172 209 253 306
#     4   8  14  26  49  77 102 132 168 207 250 294
#
# _framework density 17.448430999999999
#
# number of rings (size 3 to 8) (size 9 to 14) (size 15 to 20)
#    0.000    2.667    0.000    3.500    0.000    4.333 
#    0.000    4.167    0.000    4.000    0.000    0.000 
#    0.000    0.000    0.000    0.000    0.000    0.000 
#
# Total GULP energy -401140.705270 kJ/mol
# GULP energy per Si atom -5571.398684 kJ/mol
# Density = 1.740872 g / cm^3
# Si number density = 17.448431 Si / 1000 Ang^3
#
#
#
# Elastic Constant Matrix: (Units=GPa)
#
#
# Indices 1 2 3 4 5 6 
#
# 1 105.1621 71.1282 20.9156 0.0000 0.0000 0.0000
# 2 71.1282 105.1621 20.9156 0.0000 0.0000 0.0000
# 3 20.9156 20.9156 20.3453 0.0000 0.0000 0.0000
# 4 0.0000 0.0000 0.0000 2.1965 0.0000 0.0000
# 5 0.0000 0.0000 0.0000 0.0000 2.1965 0.0000
# 6 0.0000 0.0000 0.0000 0.0000 0.0000 17.0170
#
#
#
# Elastic Compliance Matrix: (Units=1/GPa)
#
#
# Indices 1 2 3 4 5 6 
#
# 1 0.018443 -0.010940 -0.007713 0.000000 0.000000 0.000000
# 2 -0.010940 0.018443 -0.007713 0.000000 0.000000 0.000000
# 3 -0.007713 -0.007713 0.065010 0.000000 0.000000 0.000000
# 4 0.000000 0.000000 0.000000 0.455262 0.000000 0.000000
# 5 0.000000 0.000000 0.000000 0.000000 0.455262 0.000000
# 6 0.000000 0.000000 0.000000 0.000000 0.000000 0.058765
#
#
# Mechanical properties :
#
#
# Convention : Reuss Voigt Hill
#
# Bulk Modulus (GPa) = 20.34038 50.73205 35.53621
# Shear Modulus (GPa) = 4.38480 12.12935 8.25707
#
# Velocity S-wave (km/s) = 1.58697 2.63944 2.17774
# Velocity P-wave (km/s) = 3.87823 6.19898 5.17050
#
# Compressibility (1/GPa) = 0.04916329
#
# Stress axis : x y z
#
# Youngs Moduli (GPa) = 54.22247 54.22247 15.38227
#
# Poissons Ratio (x) = 0.59319 0.11864
# Poissons Ratio (y) = 0.59319 0.11864
# Poissons Ratio (z) = 0.41822 0.41822
#
# Static dielectric constant tensor:
#      x y z
#    x 1.597710 0.000000 0.000000 
#    y 0.000000 1.597710 0.000000 
#    z 0.000000 0.000000 1.594150 
# 
# From -- ./inp_files/1242.got.cif
#   From: 2010.05.17/outbox.cif.g08.bks.cpg/sg189_1_cif.got.tgz:1242.got - 2010.05.20 12:14:34.
