data_PCOD9586264
_publ_section_title
;
Structure prediction by ZEFSAII (Michael W. Deem and Ramdas Pophale) SiO2 
 PCOD9586264
Probable space group: P -6 2 M
;
_chemical_formula_sum "Si O2"
_cell_formula_units_Z 54
_cell_length_a 15.435293
_cell_length_b 15.435293
_cell_length_c 16.334036
_cell_angle_alpha 90.000000
_cell_angle_beta 90.000000
_cell_angle_gamma 120.000000
_cell_volume 3370.186200
_symmetry_space_group_name_H-M "P -6 2 M"
_symmetry_group_IT_number 189
_symmetry_cell_setting 'hexagonal'
loop_
_space_group_symop_operation_xyz
x,y,z
-x+y,-x,-z
-y,x-y,z
x,y,-z
-x+y,-x,z
-y,x-y,-z
x-y,-y,-z
-x,-x+y,-z
y,x,-z
y,x,z
x-y,-y,z
-x,-x+y,z
loop_
_atom_site_type_symbol
_atom_site_label
_atom_site_fract_x
_atom_site_fract_y
_atom_site_fract_z
Si Si1 0.881067 0.660033 0.666016
Si Si2 0.232984 0.116134 0.168389
Si Si3 0.455727 0.765820 0.248163
Si Si4 0.117782 0.701079 0.906495
Si Si5 0.120378 0.880416 0.500000
O O1 0.861567 0.715440 0.741938
O O2 0.824372 0.542807 0.686335
O O3 0.854633 0.692578 0.581084
O O4 0.000000 0.702647 0.666225
O O5 0.148633 0.148633 0.167178
O O6 0.319601 0.189622 0.106540
O O7 0.186025 0.000000 0.151594
O O8 0.352907 0.768403 0.255685
O O9 0.503446 0.812030 0.160251
O O10 0.000000 0.623821 0.888746
O O11 0.138846 0.687307 0.000000
O O12 0.000000 0.835274 0.500000
O O13 0.177509 0.000000 0.500000
#
# Coordination Sequence:
#
# PCOD9586264 Si02
#       5
#    12  12  12  12   6
#     4   9  18  34  52  73 105 137 163 201 257 305
#     4   9  16  27  45  68  97 133 168 201 239 295
#     4   9  19  34  55  74  92 129 171 215 251 292
#     4   9  18  33  50  70 100 132 161 203 262 313
#     4  10  19  32  54  82 112 142 171 204 244 300
#
# _framework density 16.022853999999999
#
# number of rings (size 3 to 8) (size 9 to 14) (size 15 to 20)
#    0.444    2.444    0.000    3.000    0.000    1.333 
#    0.000   14.444    0.000    2.667    0.000    0.000 
#    0.000    0.000    0.000    0.000    0.000    0.000 
#
# Total GULP energy -300619.685866 kJ/mol
# GULP energy per Si atom -5567.031220 kJ/mol
# Density = 1.598639 g / cm^3
# Si number density = 16.022854 Si / 1000 Ang^3
#
#
#
# Elastic Constant Matrix: (Units=GPa)
#
#
# Indices 1 2 3 4 5 6 
#
# 1 77.5572 32.7133 31.0802 0.0000 0.0000 0.0000
# 2 32.7133 77.5572 31.0802 0.0000 0.0000 0.0000
# 3 31.0802 31.0802 87.1290 0.0000 0.0000 0.0000
# 4 0.0000 0.0000 0.0000 13.6251 0.0000 0.0000
# 5 0.0000 0.0000 0.0000 0.0000 13.6251 0.0000
# 6 0.0000 0.0000 0.0000 0.0000 0.0000 22.4219
#
#
#
# Elastic Compliance Matrix: (Units=1/GPa)
#
#
# Indices 1 2 3 4 5 6 
#
# 1 0.016825 -0.005474 -0.004049 0.000000 0.000000 0.000000
# 2 -0.005474 0.016825 -0.004049 0.000000 0.000000 0.000000
# 3 -0.004049 -0.004049 0.014366 0.000000 0.000000 0.000000
# 4 0.000000 0.000000 0.000000 0.073394 0.000000 0.000000
# 5 0.000000 0.000000 0.000000 0.000000 0.073394 0.000000
# 6 0.000000 0.000000 0.000000 0.000000 0.000000 0.044599
#
#
# Mechanical properties :
#
#
# Convention : Reuss Voigt Hill
#
# Bulk Modulus (GPa) = 47.91156 47.99898 47.95527
# Shear Modulus (GPa) = 18.28117 19.75910 19.02013
#
# Velocity S-wave (km/s) = 3.38145 3.51548 3.44912
# Velocity P-wave (km/s) = 6.72403 6.81907 6.77172
#
# Compressibility (1/GPa) = 0.02087179
#
# Stress axis : x y z
#
# Youngs Moduli (GPa) = 59.43413 59.43413 69.60883
#
# Poissons Ratio (x) = 0.32536 0.28185
# Poissons Ratio (y) = 0.32536 0.28185
# Poissons Ratio (z) = 0.24066 0.24066
#
# Static dielectric constant tensor:
#      x y z
#    x 1.525000 0.000000 0.000000 
#    y 0.000000 1.525000 0.000000 
#    z 0.000000 0.000000 1.539630 
# 
# From -- ./inp_files/2992.got.cif
#   From: 2010.05.17/outbox.cif.g08.bks.cpg/sg189_2_cif.got.tgz:2992.got - 2010.05.20 12:14:34.
