data_PCOD9586317
_publ_section_title
;
Structure prediction by ZEFSAII (Michael W. Deem and Ramdas Pophale) SiO2 
 PCOD9586317
Probable space group: P -6 2 M
;
_chemical_formula_sum "Si O2"
_cell_formula_units_Z 48
_cell_length_a 18.454470
_cell_length_b 18.454470
_cell_length_c 8.071908
_cell_angle_alpha 90.000000
_cell_angle_beta 90.000000
_cell_angle_gamma 120.000000
_cell_volume 2380.729148
_symmetry_space_group_name_H-M "P -6 2 M"
_symmetry_group_IT_number 189
_symmetry_cell_setting 'hexagonal'
loop_
_space_group_symop_operation_xyz
x,y,z
-x+y,-x,-z
-y,x-y,z
x,y,-z
-x+y,-x,z
-y,x-y,-z
x-y,-y,-z
-x,-x+y,-z
y,x,-z
y,x,z
x-y,-y,z
-x,-x+y,z
loop_
_atom_site_type_symbol
_atom_site_label
_atom_site_fract_x
_atom_site_fract_y
_atom_site_fract_z
Si Si1 0.000000 0.789243 0.801848
Si Si2 0.800615 0.276739 0.200097
Si Si3 0.159687 0.613683 0.202227
Si Si4 0.624022 0.000000 0.797609
Si Si5 0.186683 0.904814 0.697389
O O1 0.000000 0.706172 0.738754
O O2 0.089532 0.865731 0.748170
O O3 0.000000 0.788515 0.000000
O O4 0.703569 0.236342 0.251687
O O5 0.842946 0.372443 0.258852
O O6 0.845572 0.224570 0.250913
O O7 0.801365 0.275767 0.000000
O O8 0.080094 0.619611 0.255647
O O9 0.160427 0.611335 0.000000
O O10 0.626716 0.000000 0.000000
O O11 0.189663 0.908200 0.500000
O O12 0.243199 0.000000 0.762563
#
# Coordination Sequence:
#
# PCOD9586317 Si02
#       5
#     6  12  12   6  12
#     4  11  21  41  71  93 112 145 202 259 305 366
#     4  10  19  34  59  87 119 161 207 252 296 346
#     4   9  17  29  50  84 118 148 191 248 298 333
#     4   9  16  29  51  85 116 139 180 245 299 336
#     4  11  25  43  61  86 124 162 195 242 309 376
#
# _framework density 20.161891000000001
#
# number of rings (size 3 to 8) (size 9 to 14) (size 15 to 20)
#    0.000    2.000    2.500    1.625    1.750    4.000 
#    0.750    1.250    0.000    0.000    0.000    0.000 
#    0.000    0.000    0.000    0.000    0.000    0.000 
#
# Total GULP energy -267692.585933 kJ/mol
# GULP energy per Si atom -5576.928874 kJ/mol
# Density = 2.011600 g / cm^3
# Si number density = 20.161891 Si / 1000 Ang^3
#
#
#
# Elastic Constant Matrix: (Units=GPa)
#
#
# Indices 1 2 3 4 5 6 
#
# 1 86.3894 54.3753 11.1916 0.0000 0.0000 0.0000
# 2 54.3753 86.3894 11.1916 0.0000 0.0000 0.0000
# 3 11.1916 11.1916 24.6327 0.0000 0.0000 0.0000
# 4 0.0000 0.0000 0.0000 -41.7495 0.0000 0.0000
# 5 0.0000 0.0000 0.0000 0.0000 -41.7495 0.0000
# 6 0.0000 0.0000 0.0000 0.0000 0.0000 16.0071
#
#
#
# Elastic Compliance Matrix: (Units=1/GPa)
#
#
# Indices 1 2 3 4 5 6 
#
# 1 0.019447 -0.011789 -0.003479 0.000000 0.000000 0.000000
# 2 -0.011789 0.019447 -0.003479 0.000000 0.000000 0.000000
# 3 -0.003479 -0.003479 0.043758 0.000000 0.000000 0.000000
# 4 0.000000 0.000000 0.000000 -0.023952 0.000000 0.000000
# 5 0.000000 0.000000 0.000000 0.000000 -0.023952 0.000000
# 6 0.000000 0.000000 0.000000 0.000000 0.000000 0.062472
#
#
# Mechanical properties :
#
#
# Convention : Reuss Voigt Hill
#
# Bulk Modulus (GPa) = 22.14528 38.99205 30.56866
# Shear Modulus (GPa) = 33.38539 -5.45487 13.96526
#
# Velocity S-wave (km/s) = 4.07365 -1.64664 2.63469
# Velocity P-wave (km/s) = 5.75619 3.97067 4.94469
#
# Compressibility (1/GPa) = 0.04515634
#
# Stress axis : x y z
#
# Youngs Moduli (GPa) = 51.42249 51.42249 22.85306
#
# Poissons Ratio (x) = 0.60624 0.07951
# Poissons Ratio (y) = 0.60624 0.07951
# Poissons Ratio (z) = 0.17890 0.17890
#
# Static dielectric constant tensor:
#      x y z
#    x 1.805660 0.000000 0.000000 
#    y 0.000000 1.805660 0.000000 
#    z 0.000000 0.000000 1.725010 
# 
# From -- ./inp_files/650.got.cif
#   From: 2010.05.17/outbox.cif.g08.bks.cpg/sg189_1_cif.got.tgz:650.got - 2010.05.20 12:14:34.
