data_PCOD9586161
_publ_section_title
;
Structure prediction by ZEFSAII (Michael W. Deem and Ramdas Pophale) SiO2 
 PCOD9586161
Probable space group: P -6 2 M
;
_chemical_formula_sum "Si O2"
_cell_formula_units_Z 48
_cell_length_a 18.460223
_cell_length_b 18.460223
_cell_length_c 7.509858
_cell_angle_alpha 90.000000
_cell_angle_beta 90.000000
_cell_angle_gamma 120.000000
_cell_volume 2216.339277
_symmetry_space_group_name_H-M "P -6 2 M"
_symmetry_group_IT_number 189
_symmetry_cell_setting 'hexagonal'
loop_
_space_group_symop_operation_xyz
x,y,z
-x+y,-x,-z
-y,x-y,z
x,y,-z
-x+y,-x,z
-y,x-y,-z
x-y,-y,-z
-x,-x+y,-z
y,x,-z
y,x,z
x-y,-y,z
-x,-x+y,z
loop_
_atom_site_type_symbol
_atom_site_label
_atom_site_fract_x
_atom_site_fract_y
_atom_site_fract_z
Si Si1 0.202517 0.000000 0.203829
Si Si2 0.520164 0.801726 0.714169
Si Si3 0.630966 0.630966 0.284022
Si Si4 0.841059 0.382847 0.282810
Si Si5 0.718333 0.904893 0.213260
O O1 0.228348 0.090967 0.283509
O O2 0.289639 0.000000 0.204428
O O3 0.175223 0.000000 0.000000
O O4 0.517281 0.800301 0.500000
O O5 0.468090 0.705241 0.774037
O O6 0.467173 0.844124 0.778566
O O7 0.618641 0.848143 0.756240
O O8 0.639277 0.639277 0.500000
O O9 0.624759 0.544974 0.230524
O O10 0.839979 0.384545 0.500000
O O11 0.755617 0.000000 0.278739
O O12 0.727815 0.908271 0.000000
#
# Coordination Sequence:
#
# PCOD9586161 Si02
#       5
#     6  12   6  12  12
#     4  10  20  38  60  78 101 138 180 222 275 334
#     4  10  19  34  56  80 109 146 183 218 259 310
#     4  10  18  32  52  80 107 134 176 222 261 310
#     4   9  18  30  50  79 108 137 175 218 255 300
#     4  10  22  39  56  79 109 138 175 227 280 327
#
# _framework density 21.657333999999999
#
# number of rings (size 3 to 8) (size 9 to 14) (size 15 to 20)
#    0.000    2.250    2.500    0.500    1.750    2.500 
#    0.750    2.500    0.000    0.000    0.000    0.000 
#    0.000    0.000    0.000    0.000    0.000    0.000 
#
# Total GULP energy -267824.717777 kJ/mol
# GULP energy per Si atom -5579.681620 kJ/mol
# Density = 2.160804 g / cm^3
# Si number density = 21.657334 Si / 1000 Ang^3
#
#
#
# Elastic Constant Matrix: (Units=GPa)
#
#
# Indices 1 2 3 4 5 6 
#
# 1 92.2919 64.3853 -0.2856 0.0000 0.0000 0.0000
# 2 64.3853 92.2919 -0.2856 0.0000 0.0000 0.0000
# 3 -0.2856 -0.2856 57.5231 0.0000 0.0000 0.0000
# 4 0.0000 0.0000 0.0000 28.2087 0.0000 0.0000
# 5 0.0000 0.0000 0.0000 0.0000 28.2087 0.0000
# 6 0.0000 0.0000 0.0000 0.0000 0.0000 13.9533
#
#
#
# Elastic Compliance Matrix: (Units=1/GPa)
#
#
# Indices 1 2 3 4 5 6 
#
# 1 0.021108 -0.014726 0.000032 0.000000 0.000000 0.000000
# 2 -0.014726 0.021108 0.000032 0.000000 0.000000 0.000000
# 3 0.000032 0.000032 0.017385 0.000000 0.000000 0.000000
# 4 0.000000 0.000000 0.000000 0.035450 0.000000 0.000000
# 5 0.000000 0.000000 0.000000 0.000000 0.035450 0.000000
# 6 0.000000 0.000000 0.000000 0.000000 0.000000 0.071668
#
#
# Mechanical properties :
#
#
# Convention : Reuss Voigt Hill
#
# Bulk Modulus (GPa) = 33.02868 41.08169 37.05519
# Shear Modulus (GPa) = 20.69660 25.96032 23.32846
#
# Velocity S-wave (km/s) = 3.09470 3.46596 3.28558
# Velocity P-wave (km/s) = 5.29653 5.91839 5.61607
#
# Compressibility (1/GPa) = 0.03027672
#
# Stress axis : x y z
#
# Youngs Moduli (GPa) = 47.37485 47.37485 57.52208
#
# Poissons Ratio (x) = 0.69762 -0.00182
# Poissons Ratio (y) = 0.69762 -0.00182
# Poissons Ratio (z) = -0.00150 -0.00150
#
# Static dielectric constant tensor:
#      x y z
#    x 1.829710 0.000000 0.000000 
#    y 0.000000 1.829710 0.000000 
#    z 0.000000 0.000000 1.846260 
# 
# From -- ./inp_files/627.got.cif
#   From: 2010.05.17/outbox.cif.g08.bks.cpg/sg189_1_cif.got.tgz:627.got - 2010.05.20 12:14:34.
