data_PCOD9586134
_publ_section_title
;
Structure prediction by ZEFSAII (Michael W. Deem and Ramdas Pophale) SiO2 
 PCOD9586134
Probable space group: P -6 2 M
;
_chemical_formula_sum "Si O2"
_cell_formula_units_Z 72
_cell_length_a 23.794753
_cell_length_b 23.794753
_cell_length_c 7.556468
_cell_angle_alpha 90.000000
_cell_angle_beta 90.000000
_cell_angle_gamma 120.000000
_cell_volume 3705.201927
_symmetry_space_group_name_H-M "P -6 2 M"
_symmetry_group_IT_number 189
_symmetry_cell_setting 'hexagonal'
loop_
_space_group_symop_operation_xyz
x,y,z
-x+y,-x,-z
-y,x-y,z
x,y,-z
-x+y,-x,z
-y,x-y,-z
x-y,-y,-z
-x,-x+y,-z
y,x,-z
y,x,z
x-y,-y,z
-x,-x+y,z
loop_
_atom_site_type_symbol
_atom_site_label
_atom_site_fract_x
_atom_site_fract_y
_atom_site_fract_z
Si Si1 0.441438 0.367388 0.712719
Si Si2 0.714781 0.714781 0.214333
Si Si3 0.155802 0.000000 0.297321
Si Si4 0.418380 0.127084 0.213381
Si Si5 0.780260 0.924653 0.283352
Si Si6 0.146795 0.778607 0.291485
Si Si7 0.074619 0.508272 0.788272
O O1 0.436463 0.364435 0.500000
O O2 0.402665 0.402665 0.779189
O O3 0.407005 0.294252 0.781698
O O4 0.516716 0.416466 0.752673
O O5 0.776438 0.776438 0.294462
O O6 0.711627 0.648393 0.266883
O O7 0.720211 0.720211 0.000000
O O8 0.135007 0.000000 0.500000
O O9 0.174954 0.070205 0.219493
O O10 0.411128 0.187281 0.271840
O O11 0.477259 0.117250 0.276888
O O12 0.420043 0.128753 0.000000
O O13 0.779818 0.920950 0.500000
O O14 0.705376 0.881884 0.221434
O O15 0.810699 0.000000 0.235931
O O16 0.131769 0.772750 0.500000
O O17 0.000000 0.467157 0.720134
O O18 0.070409 0.500098 0.000000
#
# Coordination Sequence:
#
# PCOD9586134 Si02
#       7
#    12   6   6  12  12  12  12
#     4   9  18  32  49  71  98 129 161 195 237 284
#     4  10  18  30  48  70 100 128 151 192 246 295
#     4  10  18  30  48  70  94 126 169 208 248 297
#     4  10  19  31  49  73 100 128 157 192 241 293
#     4   9  17  29  45  67  95 127 163 206 251 291
#     4  10  19  31  49  71  98 129 162 201 243 287
#     4   9  17  31  50  71  96 125 153 187 233 283
#
# _framework density 19.432138999999999
#
# number of rings (size 3 to 8) (size 9 to 14) (size 15 to 20)
#    0.000    2.500    2.500    0.500    0.000    3.333 
#    0.500    0.000    0.000    3.667    0.000    0.000 
#    0.000    0.000    0.000    0.000    0.000    0.000 
#
# Total GULP energy -401563.835160 kJ/mol
# GULP energy per Si atom -5577.275488 kJ/mol
# Density = 1.938791 g / cm^3
# Si number density = 19.432139 Si / 1000 Ang^3
#
#
#
# Elastic Constant Matrix: (Units=GPa)
#
#
# Indices 1 2 3 4 5 6 
#
# 1 126.0913 68.0515 -1.4187 0.0000 0.0000 0.0000
# 2 68.0515 126.0913 -1.4187 0.0000 0.0000 0.0000
# 3 -1.4187 -1.4187 43.2160 0.0000 0.0000 0.0000
# 4 0.0000 0.0000 0.0000 23.6153 0.0000 0.0000
# 5 0.0000 0.0000 0.0000 0.0000 23.6153 0.0000
# 6 0.0000 0.0000 0.0000 0.0000 0.0000 29.0199
#
#
#
# Elastic Compliance Matrix: (Units=1/GPa)
#
#
# Indices 1 2 3 4 5 6 
#
# 1 0.011191 -0.006038 0.000169 0.000000 0.000000 0.000000
# 2 -0.006038 0.011191 0.000169 0.000000 0.000000 0.000000
# 3 0.000169 0.000169 0.023151 0.000000 0.000000 0.000000
# 4 0.000000 0.000000 0.000000 0.042346 0.000000 0.000000
# 5 0.000000 0.000000 0.000000 0.000000 0.042346 0.000000
# 6 0.000000 0.000000 0.000000 0.000000 0.000000 0.034459
#
#
# Mechanical properties :
#
#
# Convention : Reuss Voigt Hill
#
# Bulk Modulus (GPa) = 29.29626 47.31407 38.30517
# Shear Modulus (GPa) = 26.67218 30.59572 28.63395
#
# Velocity S-wave (km/s) = 3.70886 3.97229 3.84283
# Velocity P-wave (km/s) = 5.78357 6.74092 6.28051
#
# Compressibility (1/GPa) = 0.03413405
#
# Stress axis : x y z
#
# Youngs Moduli (GPa) = 89.35407 89.35407 43.19523
#
# Poissons Ratio (x) = 0.53953 -0.00731
# Poissons Ratio (y) = 0.53953 -0.00731
# Poissons Ratio (z) = -0.01512 -0.01512
#
# Static dielectric constant tensor:
#      x y z
#    x 1.674830 0.000000 0.000000 
#    y 0.000000 1.674830 0.000000 
#    z 0.000000 0.000000 1.756800 
# 
# From -- ./inp_files/1372.got.cif
#   From: 2010.05.17/outbox.cif.g08.bks.cpg/sg189_1_cif.got.tgz:1372.got - 2010.05.20 12:14:34.
