data_PCOD9586380
_publ_section_title
;
Structure prediction by ZEFSAII (Michael W. Deem and Ramdas Pophale) SiO2 
 PCOD9586380
Probable space group: P -6 2 M
;
_chemical_formula_sum "Si O2"
_cell_formula_units_Z 84
_cell_length_a 19.021061
_cell_length_b 19.021061
_cell_length_c 14.222248
_cell_angle_alpha 90.000000
_cell_angle_beta 90.000000
_cell_angle_gamma 120.000000
_cell_volume 4456.237775
_symmetry_space_group_name_H-M "P -6 2 M"
_symmetry_group_IT_number 189
_symmetry_cell_setting 'hexagonal'
loop_
_space_group_symop_operation_xyz
x,y,z
-x+y,-x,-z
-y,x-y,z
x,y,-z
-x+y,-x,z
-y,x-y,-z
x-y,-y,-z
-x,-x+y,-z
y,x,-z
y,x,z
x-y,-y,z
-x,-x+y,z
loop_
_atom_site_type_symbol
_atom_site_label
_atom_site_fract_x
_atom_site_fract_y
_atom_site_fract_z
Si Si1 0.175161 0.657728 0.784620
Si Si2 0.555403 0.910865 0.607611
Si Si3 0.902936 0.275198 0.611982
Si Si4 0.089601 0.814412 0.609986
Si Si5 0.908213 0.650607 0.887662
Si Si6 0.675252 0.507072 0.215097
Si Si7 0.672517 0.762053 0.887128
O O1 0.158560 0.652188 0.673750
O O2 0.115149 0.682739 0.834841
O O3 0.157652 0.568978 0.808882
O O4 0.262352 0.736196 0.801418
O O5 0.530042 0.900425 0.500000
O O6 0.640298 0.911521 0.613341
O O7 0.574669 0.000000 0.639450
O O8 0.881960 0.272862 0.500000
O O9 0.876862 0.182172 0.641769
O O10 0.858107 0.308439 0.681161
O O11 0.000000 0.332174 0.620992
O O12 0.088265 0.834944 0.500000
O O13 0.000000 0.792348 0.649311
O O14 0.847816 0.682363 0.857211
O O15 0.000000 0.715582 0.867108
O O16 0.899021 0.635499 0.000000
O O17 0.697617 0.582786 0.147292
O O18 0.736327 0.736327 0.851782
O O19 0.675588 0.763011 0.000000
#
# Coordination Sequence:
#
# PCOD9586380 Si02
#       7
#    12  12  12  12  12  12  12
#     4  11  22  36  53  73 101 139 177 224 269 312
#     4   9  17  30  50  73  95 125 169 216 259 307
#     4  10  20  34  52  76 108 143 175 213 264 316
#     4   8  14  28  50  72  95 128 171 213 250 298
#     4   9  19  36  58  84 110 136 172 216 257 302
#     4  11  23  37  53  74 103 137 182 221 265 316
#     4   9  19  37  59  81 108 142 173 206 257 316
#
# _framework density 18.849981
#
# number of rings (size 3 to 8) (size 9 to 14) (size 15 to 20)
#    0.000    2.429    1.429    2.000    0.000    3.429 
#    0.000    2.857    0.000    4.000    0.000    4.000 
#    0.000    1.143    0.000    0.000    0.000    0.000 
#
# Total GULP energy -467878.170241 kJ/mol
# GULP energy per Si atom -5569.978217 kJ/mol
# Density = 1.880708 g / cm^3
# Si number density = 18.849981 Si / 1000 Ang^3
#
#
#
# Elastic Constant Matrix: (Units=GPa)
#
#
# Indices 1 2 3 4 5 6 
#
# 1 51.3495 98.0757 16.6810 0.0000 0.0000 0.0000
# 2 98.0757 51.3495 16.6810 0.0000 0.0000 0.0000
# 3 16.6810 16.6810 37.1394 0.0000 0.0000 0.0000
# 4 0.0000 0.0000 0.0000 15.9231 0.0000 0.0000
# 5 0.0000 0.0000 0.0000 0.0000 15.9231 0.0000
# 6 0.0000 0.0000 0.0000 0.0000 0.0000 -23.3631
#
#
#
# Elastic Compliance Matrix: (Units=1/GPa)
#
#
# Indices 1 2 3 4 5 6 
#
# 1 -0.006982 0.014420 -0.003341 0.000000 0.000000 0.000000
# 2 0.014420 -0.006982 -0.003341 0.000000 0.000000 0.000000
# 3 -0.003341 -0.003341 0.029927 0.000000 0.000000 0.000000
# 4 0.000000 0.000000 0.000000 0.062802 0.000000 0.000000
# 5 0.000000 0.000000 0.000000 0.000000 0.062802 0.000000
# 6 0.000000 0.000000 0.000000 0.000000 0.000000 -0.042802
#
#
# Mechanical properties :
#
#
# Convention : Reuss Voigt Hill
#
# Bulk Modulus (GPa) = 31.80691 44.74598 38.27645
# Shear Modulus (GPa) = 53.32269 2.25665 27.78967
#
# Velocity S-wave (km/s) = 5.32441 1.09534 3.84377
# Velocity P-wave (km/s) = 7.39658 5.03877 6.32845
#
# Compressibility (1/GPa) = 0.03143971
#
# Stress axis : x y z
#
# Youngs Moduli (GPa) = -143.23548 -143.23548 33.41502
#
# Poissons Ratio (x) = 2.06542 0.11163
# Poissons Ratio (y) = 2.06542 0.11163
# Poissons Ratio (z) = -0.47853 -0.47853
#
# Static dielectric constant tensor:
#      x y z
#    x 1.668660 0.000000 0.000000 
#    y 0.000000 1.668660 0.000000 
#    z 0.000000 0.000000 1.711540 
# 
# From -- ./inp_files/2787.got.cif
#   From: 2010.05.17/outbox.cif.g08.bks.cpg/sg189_2_cif.got.tgz:2787.got - 2010.05.20 12:14:34.
