data_PCOD9586686
_publ_section_title
;
Structure prediction by ZEFSAII (Michael W. Deem and Ramdas Pophale) SiO2 
 PCOD9586686
Probable space group: P -6 2 C
;
_chemical_formula_sum "Si O2"
_cell_formula_units_Z 72
_cell_length_a 24.442078
_cell_length_b 24.442078
_cell_length_c 8.728055
_cell_angle_alpha 90.000000
_cell_angle_beta 90.000000
_cell_angle_gamma 120.000000
_cell_volume 4515.692467
_symmetry_space_group_name_H-M "P -6 2 C"
_symmetry_group_IT_number 190
_symmetry_cell_setting 'hexagonal'
loop_
_space_group_symop_operation_xyz
x,y,z
-x+y,-x,1/2-z
-y,x-y,z
x,y,1/2-z
-x+y,-x,z
-y,x-y,1/2-z
x-y,-y,-z
-x,-x+y,-z
y,x,-z
y,x,1/2+z
x-y,-y,1/2+z
-x,-x+y,1/2+z
loop_
_atom_site_type_symbol
_atom_site_label
_atom_site_fract_x
_atom_site_fract_y
_atom_site_fract_z
Si Si1 0.260661 0.856577 0.434415
Si Si2 0.404311 0.930723 0.434237
Si Si3 0.264069 0.068953 0.065593
Si Si4 0.407142 0.263617 0.434034
Si Si5 0.192071 0.260827 0.933673
Si Si6 0.528893 0.930101 0.434073
O O1 0.256547 0.855283 0.250000
O O2 0.332967 0.881722 0.480743
O O3 0.239011 0.904646 0.499036
O O4 0.211220 0.788251 0.500796
O O5 0.405284 0.935043 0.250000
O O6 0.458129 0.913880 0.478477
O O7 0.426622 0.000000 0.500000
O O8 0.266810 0.067057 0.250000
O O9 0.245155 0.121672 0.022364
O O10 0.218009 0.000000 0.000000
O O11 0.409720 0.263761 0.250000
O O12 0.333957 0.238568 0.479834
O O13 0.450898 0.333030 0.499382
O O14 0.193898 0.258550 0.750000
O O15 0.215835 0.215835 0.000000
O O16 0.533515 0.931840 0.250000
O O17 0.575166 0.000000 0.500000
#
# Coordination Sequence:
#
# PCOD9586686 Si02
#       6
#    12  12  12  12  12  12
#     4  10  19  32  50  72  97 128 161 197 241 288
#     4   9  19  32  48  71  98 126 159 195 236 284
#     4  10  20  33  48  71  99 127 159 197 238 285
#     4  10  20  33  48  71  99 127 160 199 239 286
#     4   9  19  32  47  68  95 122 153 191 232 277
#     4  10  19  32  49  71  98 128 160 197 239 286
#
# _framework density 15.944398
#
# number of rings (size 3 to 8) (size 9 to 14) (size 15 to 20)
#    0.000    2.333    0.000    4.000    0.000    8.667 
#    0.000    0.000    0.000    1.000    0.000    2.333 
#    0.000    0.000    0.000    0.000    0.000    0.000 
#
# Total GULP energy -401655.220488 kJ/mol
# GULP energy per Si atom -5578.544729 kJ/mol
# Density = 1.590811 g / cm^3
# Si number density = 15.944398 Si / 1000 Ang^3
#
#
#
# Elastic Constant Matrix: (Units=GPa)
#
#
# Indices 1 2 3 4 5 6 
#
# 1 135.6685 92.8363 42.1643 0.0000 0.0000 0.0000
# 2 92.8363 135.6685 42.1643 0.0000 0.0000 0.0000
# 3 42.1643 42.1643 47.7218 0.0000 0.0000 0.0000
# 4 0.0000 0.0000 0.0000 26.3910 0.0000 0.0000
# 5 0.0000 0.0000 0.0000 0.0000 26.3910 0.0000
# 6 0.0000 0.0000 0.0000 0.0000 0.0000 21.4161
#
#
#
# Elastic Compliance Matrix: (Units=1/GPa)
#
#
# Indices 1 2 3 4 5 6 
#
# 1 0.014920 -0.008427 -0.005737 0.000000 0.000000 0.000000
# 2 -0.008427 0.014920 -0.005737 0.000000 0.000000 0.000000
# 3 -0.005737 -0.005737 0.031093 0.000000 0.000000 0.000000
# 4 0.000000 0.000000 0.000000 0.037892 0.000000 0.000000
# 5 0.000000 0.000000 0.000000 0.000000 0.037892 0.000000
# 6 0.000000 0.000000 0.000000 0.000000 0.000000 0.046694
#
#
# Mechanical properties :
#
#
# Convention : Reuss Voigt Hill
#
# Bulk Modulus (GPa) = 47.32405 74.82097 61.07251
# Shear Modulus (GPa) = 21.71480 24.29922 23.00701
#
# Velocity S-wave (km/s) = 3.69441 3.90808 3.80274
# Velocity P-wave (km/s) = 6.92411 8.20927 7.59393
#
# Compressibility (1/GPa) = 0.02113091
#
# Stress axis : x y z
#
# Youngs Moduli (GPa) = 67.02283 67.02283 32.16126
#
# Poissons Ratio (x) = 0.56478 0.18452
# Poissons Ratio (y) = 0.56478 0.18452
# Poissons Ratio (z) = 0.38454 0.38454
#
# Static dielectric constant tensor:
#      x y z
#    x 1.521590 0.000000 0.000000 
#    y 0.000000 1.521590 0.000000 
#    z 0.000000 0.000000 1.535710 
# 
# From -- ./inp_files/1215.got.cif
#   From: 2010.05.17/outbox.cif.g08.bks.cpg/sg190_1_cif.got.tgz:1215.got - 2010.05.20 12:16:56.
