data_PCOD9586853
_publ_section_title
;
Structure prediction by ZEFSAII (Michael W. Deem and Ramdas Pophale) SiO2 
 PCOD9586853
Probable space group: P -6 2 C
;
_chemical_formula_sum "Si O2"
_cell_formula_units_Z 40
_cell_length_a 11.666638
_cell_length_b 11.666638
_cell_length_c 15.764400
_cell_angle_alpha 90.000000
_cell_angle_beta 90.000000
_cell_angle_gamma 120.000000
_cell_volume 1858.230237
_symmetry_space_group_name_H-M "P -6 2 C"
_symmetry_group_IT_number 190
_symmetry_cell_setting 'hexagonal'
loop_
_space_group_symop_operation_xyz
x,y,z
-x+y,-x,1/2-z
-y,x-y,z
x,y,1/2-z
-x+y,-x,z
-y,x-y,1/2-z
x-y,-y,-z
-x,-x+y,-z
y,x,-z
y,x,1/2+z
x-y,-y,1/2+z
-x,-x+y,1/2+z
loop_
_atom_site_type_symbol
_atom_site_label
_atom_site_fract_x
_atom_site_fract_y
_atom_site_fract_z
Si Si1 0.000000 0.000000 0.853403
Si Si2 0.949616 0.385318 0.907514
Si Si3 0.888968 0.602912 0.650163
Si Si4 0.846846 0.708774 0.148728
O O1 0.032135 0.143588 0.881466
O O2 0.000000 0.000000 0.750000
O O3 0.826358 0.234795 0.902064
O O4 0.900517 0.472185 0.857761
O O5 0.078975 0.384355 0.872508
O O6 0.000000 0.445905 0.000000
O O7 0.868874 0.625683 0.750000
O O8 0.032061 0.721573 0.620040
O O9 0.854658 0.710265 0.250000
#
# Coordination Sequence:
#
# PCOD9586853 Si02
#       4
#     4  12  12  12
#     4   9  15  33  67  98 121 150 211 281 331 387
#     4  12  27  42  69 100 142 178 230 296 354 417
#     4  11  24  46  73  96 134 188 237 277 347 442
#     4  10  20  40  69  98 126 167 225 282 338 415
#
# _framework density 21.525857999999999
#
# number of rings (size 3 to 8) (size 9 to 14) (size 15 to 20)
#    0.000    1.200    3.000    3.300    4.200    0.000 
#    1.800    0.000    0.000    0.000    0.000    0.000 
#    0.000    0.000    0.000    0.000    0.000    0.000 
#
# Total GULP energy -223231.533042 kJ/mol
# GULP energy per Si atom -5580.788326 kJ/mol
# Density = 2.147686 g / cm^3
# Si number density = 21.525858 Si / 1000 Ang^3
#
#
#
# Elastic Constant Matrix: (Units=GPa)
#
#
# Indices 1 2 3 4 5 6 
#
# 1 90.9053 22.5451 -2.4359 0.0000 0.0000 0.0000
# 2 22.5451 90.9053 -2.4359 0.0000 0.0000 0.0000
# 3 -2.4359 -2.4359 37.3268 0.0000 0.0000 0.0000
# 4 0.0000 0.0000 0.0000-1622.5971 -0.0002 0.0000
# 5 0.0000 0.0000 0.0000 -0.0002-1622.5969 0.0000
# 6 0.0000 0.0000 0.0000 0.0000 0.0000 34.1801
#
#
#
# Elastic Compliance Matrix: (Units=1/GPa)
#
#
# Indices 1 2 3 4 5 6 
#
# 1 0.011734 -0.002895 0.000577 0.000000 0.000000 0.000000
# 2 -0.002895 0.011734 0.000577 0.000000 0.000000 0.000000
# 3 0.000577 0.000577 0.026866 0.000000 0.000000 0.000000
# 4 0.000000 0.000000 0.000000 -0.000616 0.000000 0.000000
# 5 0.000000 0.000000 0.000000 0.000000 -0.000616 0.000000
# 6 0.000000 0.000000 0.000000 0.000000 0.000000 0.029257
#
#
# Mechanical properties :
#
#
# Convention : Reuss Voigt Hill
#
# Bulk Modulus (GPa) = 21.34406 28.27599 24.81003
# Shear Modulus (GPa) = 51.30495 -628.77184 -288.73344
#
# Velocity S-wave (km/s) = 4.88731 -17.10950 -11.59416
# Velocity P-wave (km/s) = 6.46412 19.42032 12.94921
#
# Compressibility (1/GPa) = 0.04685144
#
# Stress axis : x y z
#
# Youngs Moduli (GPa) = 85.22389 85.22389 37.22221
#
# Poissons Ratio (x) = 0.24669 -0.02147
# Poissons Ratio (y) = 0.24669 -0.02147
# Poissons Ratio (z) = -0.04916 -0.04916
#
# Static dielectric constant tensor:
#      x y z
#    x 1.790260 0.000000 0.000000 
#    y 0.000000 1.790260 0.000000 
#    z 0.000000 0.000000 1.810530 
# 
# From -- ./inp_files/3402.got.cif
#   From: 2010.05.17/outbox.cif.g08.bks.cpg/sg190_2_cif.got.tgz:3402.got - 2010.05.20 12:16:56.
