data_PCOD9586458
_publ_section_title
;
Structure prediction by ZEFSAII (Michael W. Deem and Ramdas Pophale) SiO2 
 PCOD9586458
Probable space group: P -6 2 M
;
_chemical_formula_sum "Si O2"
_cell_formula_units_Z 72
_cell_length_a 14.909767
_cell_length_b 14.909767
_cell_length_c 17.100964
_cell_angle_alpha 90.000000
_cell_angle_beta 90.000000
_cell_angle_gamma 120.000000
_cell_volume 3292.250996
_symmetry_space_group_name_H-M "P -6 2 M"
_symmetry_group_IT_number 189
_symmetry_cell_setting 'hexagonal'
loop_
_space_group_symop_operation_xyz
x,y,z
-x+y,-x,-z
-y,x-y,z
x,y,-z
-x+y,-x,z
-y,x-y,-z
x-y,-y,-z
-x,-x+y,-z
y,x,-z
y,x,z
x-y,-y,z
-x,-x+y,z
loop_
_atom_site_type_symbol
_atom_site_label
_atom_site_fract_x
_atom_site_fract_y
_atom_site_fract_z
Si Si1 0.879724 0.547699 0.833661
Si Si2 0.377820 0.876272 0.915051
Si Si3 0.271530 0.814686 0.412289
Si Si4 0.883804 0.121932 0.344559
Si Si5 0.321618 0.114922 0.828948
Si Si6 0.395571 0.518159 0.338715
O O1 0.830556 0.450869 0.891797
O O2 0.874147 0.647469 0.862392
O O3 0.843950 0.506994 0.745277
O O4 0.000000 0.586109 0.827871
O O5 0.305404 0.869105 0.842647
O O6 0.448504 0.000000 0.924161
O O7 0.326085 0.838281 0.000000
O O8 0.313866 0.838688 0.500000
O O9 0.195320 0.860435 0.398454
O O10 0.366860 0.858869 0.351600
O O11 0.197657 0.692265 0.399039
O O12 0.882716 0.164348 0.257372
O O13 0.000000 0.145584 0.358956
O O14 0.802390 0.000000 0.350311
O O15 0.242933 0.000000 0.861957
O O16 0.438143 0.438143 0.350134
#
# Coordination Sequence:
#
# PCOD9586458 Si02
#       6
#    12  12  12  12  12  12
#     4  10  20  37  62  88 118 162 210 255 309 377
#     4   9  19  36  58  88 126 163 201 252 312 372
#     4  12  25  41  64  93 126 164 209 265 335 407
#     4  11  23  41  64  93 128 172 225 277 326 383
#     4  10  20  37  62  90 124 164 210 261 314 374
#     4  11  24  43  65  90 122 163 210 263 321 386
#
# _framework density 21.869536
#
# number of rings (size 3 to 8) (size 9 to 14) (size 15 to 20)
#    0.000    1.500    1.667    3.500    0.000    6.667 
#    1.000    0.000    0.000    2.833    0.000    0.000 
#    0.000    1.333    0.000    8.333    0.000    0.000 
#
# Total GULP energy -400893.076179 kJ/mol
# GULP energy per Si atom -5567.959391 kJ/mol
# Density = 2.181976 g / cm^3
# Si number density = 21.869536 Si / 1000 Ang^3
#
#
#
# Elastic Constant Matrix: (Units=GPa)
#
#
# Indices 1 2 3 4 5 6 
#
# 1 87.4719 9.8934 21.4072 0.0000 0.0000 0.0000
# 2 9.8934 87.4719 21.4072 0.0000 0.0000 0.0000
# 3 21.4072 21.4072 40.9093 0.0000 0.0000 0.0000
# 4 0.0000 0.0000 0.0000 15.8241 0.0000 0.0000
# 5 0.0000 0.0000 0.0000 0.0000 15.8241 0.0000
# 6 0.0000 0.0000 0.0000 0.0000 0.0000 38.7893
#
#
#
# Elastic Compliance Matrix: (Units=1/GPa)
#
#
# Indices 1 2 3 4 5 6 
#
# 1 0.013115 0.000225 -0.006981 0.000000 0.000000 0.000000
# 2 0.000225 0.013115 -0.006981 0.000000 0.000000 0.000000
# 3 -0.006981 -0.006981 0.031750 0.000000 0.000000 0.000000
# 4 0.000000 0.000000 0.000000 0.063195 0.000000 0.000000
# 5 0.000000 0.000000 0.000000 0.000000 0.063195 0.000000
# 6 0.000000 0.000000 0.000000 0.000000 0.000000 0.025780
#
#
# Mechanical properties :
#
#
# Convention : Reuss Voigt Hill
#
# Bulk Modulus (GPa) = 32.77864 35.69650 34.23757
# Shear Modulus (GPa) = 20.17818 24.96385 22.57102
#
# Velocity S-wave (km/s) = 3.04083 3.38226 3.21608
# Velocity P-wave (km/s) = 5.22969 5.62235 5.42957
#
# Compressibility (1/GPa) = 0.03050768
#
# Stress axis : x y z
#
# Youngs Moduli (GPa) = 76.24744 76.24744 31.49598
#
# Poissons Ratio (x) = -0.01716 0.21986
# Poissons Ratio (y) = -0.01716 0.21986
# Poissons Ratio (z) = 0.53226 0.53226
#
# Static dielectric constant tensor:
#      x y z
#    x 1.864150 0.000000 0.000000 
#    y 0.000000 1.864150 0.000000 
#    z 0.000000 0.000000 1.838960 
# 
# From -- ./inp_files/3105.got.cif
#   From: 2010.05.17/outbox.cif.g08.bks.cpg/sg189_2_cif.got.tgz:3105.got - 2010.05.20 12:14:34.
