data_PCOD9586591
_publ_section_title
;
Structure prediction by ZEFSAII (Michael W. Deem and Ramdas Pophale) SiO2 
 PCOD9586591
Probable space group: P -6 2 M
;
_chemical_formula_sum "Si O2"
_cell_formula_units_Z 58
_cell_length_a 15.000000
_cell_length_b 15.000000
_cell_length_c 15.000000
_cell_angle_alpha 90.000000
_cell_angle_beta 90.000000
_cell_angle_gamma 120.000000
_cell_volume 2922.835738
_symmetry_space_group_name_H-M "P -6 2 M"
_symmetry_group_IT_number 189
_symmetry_cell_setting 'hexagonal'
loop_
_space_group_symop_operation_xyz
x,y,z
-x+y,-x,-z
-y,x-y,z
x,y,-z
-x+y,-x,z
-y,x-y,-z
x-y,-y,-z
-x,-x+y,-z
y,x,-z
y,x,z
x-y,-y,z
-x,-x+y,z
loop_
_atom_site_type_symbol
_atom_site_label
_atom_site_fract_x
_atom_site_fract_y
_atom_site_fract_z
Si Si1 0.122006 0.379992 0.500000
Si Si2 0.333334 0.666668 0.107709
Si Si3 0.387644 0.262758 0.350036
Si Si4 0.122596 0.245169 0.000000
Si Si5 0.465710 0.876522 0.500000
Si Si6 0.110334 0.551099 0.891838
Si Si7 0.354629 0.120005 0.819443
O O1 0.166068 0.348409 0.583754
O O2 0.158509 0.503256 0.500000
O O3 0.000000 0.321650 0.500000
O O4 0.424856 0.779151 0.134941
O O5 0.333334 0.666668 0.000000
O O6 0.318711 0.318711 0.345827
O O7 0.491969 0.343300 0.407562
O O8 0.383703 0.208166 0.255473
O O9 0.144383 0.311972 0.090019
O O10 0.187401 0.187401 0.000000
O O11 0.000000 0.165275 0.000000
O O12 0.525169 0.000000 0.500000
O O13 0.113355 0.454347 0.849651
O O14 0.000000 0.538312 0.865650
O O15 0.110006 0.544551 0.000000
O O16 0.271181 0.000000 0.791680
#
# Coordination Sequence:
#
# PCOD9586591 Si02
#       7
#     6   4  12   6   6  12  12
#     4  10  19  37  63  87 113 151 191 230 304 386
#     4   9  18  33  57  81 108 148 197 250 315 366
#     4  10  20  37  60  88 120 150 192 249 301 355
#     4  10  19  32  52  80 120 170 225 272 312 360
#     4   8  18  37  58  83 114 147 184 238 299 366
#     4   9  17  34  56  80 115 159 207 257 305 362
#     4  10  19  34  57  84 120 169 213 255 310 365
#
# _framework density 19.843743
#
# number of rings (size 3 to 8) (size 9 to 14) (size 15 to 20)
#    0.000    2.483    1.034    2.276    0.000    0.000 
#    8.690    2.069    0.000    7.034    0.000    0.000 
#    0.000    0.000    0.000    0.621    0.000    0.000 
#
# Total GULP energy -322960.781218 kJ/mol
# GULP energy per Si atom -5568.289331 kJ/mol
# Density = 1.979858 g / cm^3
# Si number density = 19.843743 Si / 1000 Ang^3
#
#
#
# Elastic Constant Matrix: (Units=GPa)
#
#
# Indices 1 2 3 4 5 6 
#
# 1 75.8867 17.6262 23.4079 0.0000 -0.0001 0.0004
# 2 17.6262 75.8890 23.4084 0.0000 0.0000 0.0002
# 3 23.4079 23.4084 106.1867 0.0000 0.0000 0.0002
# 4 0.0000 0.0000 0.0000 21.8005 0.0001 0.0000
# 5 -0.0001 0.0000 0.0000 0.0001 21.8002 0.0000
# 6 0.0004 0.0002 0.0002 0.0000 0.0000 29.1305
#
#
#
# Elastic Compliance Matrix: (Units=1/GPa)
#
#
# Indices 1 2 3 4 5 6 
#
# 1 0.014592 -0.002572 -0.002650 0.000000 0.000000 0.000000
# 2 -0.002572 0.014592 -0.002650 0.000000 0.000000 0.000000
# 3 -0.002650 -0.002650 0.010586 0.000000 0.000000 0.000000
# 4 0.000000 0.000000 0.000000 0.045870 0.000000 0.000000
# 5 0.000000 0.000000 0.000000 0.000000 0.045871 0.000000
# 6 0.000000 0.000000 0.000000 0.000000 0.000000 0.034328
#
#
# Mechanical properties :
#
#
# Convention : Reuss Voigt Hill
#
# Bulk Modulus (GPa) = 41.62010 42.98306 42.30158
# Shear Modulus (GPa) = 26.37251 27.44757 26.91004
#
# Velocity S-wave (km/s) = 3.64951 3.72315 3.68652
# Velocity P-wave (km/s) = 6.22720 6.33958 6.28364
#
# Compressibility (1/GPa) = 0.02402685
#
# Stress axis : x y z
#
# Youngs Moduli (GPa) = 68.52952 68.53146 94.46785
#
# Poissons Ratio (x) = 0.17626 0.25032
# Poissons Ratio (y) = 0.17625 0.25032
# Poissons Ratio (z) = 0.18159 0.18159
#
# Static dielectric constant tensor:
#      x y z
#    x 1.741490 0.000000 0.000000 
#    y 0.000000 1.741490 0.000000 
#    z 0.000000 0.000000 1.713000 
# 
# From -- ./inp_files/2580.got.cif
#   From: 2010.05.17/outbox.ucp.g08.bks.cvg/sg189_2_cif.got.tgz:2580.got - 2010.06.11 15:22:13.
