data_PCOD9586862
_publ_section_title
;
Structure prediction by ZEFSAII (Michael W. Deem and Ramdas Pophale) SiO2 
 PCOD9586862
Probable space group: P -6 2 C
;
_chemical_formula_sum "Si O2"
_cell_formula_units_Z 36
_cell_length_a 8.791223
_cell_length_b 8.791223
_cell_length_c 27.720972
_cell_angle_alpha 90.000000
_cell_angle_beta 90.000000
_cell_angle_gamma 120.000000
_cell_volume 1855.400542
_symmetry_space_group_name_H-M "P -6 2 C"
_symmetry_group_IT_number 190
_symmetry_cell_setting 'hexagonal'
loop_
_space_group_symop_operation_xyz
x,y,z
-x+y,-x,1/2-z
-y,x-y,z
x,y,1/2-z
-x+y,-x,z
-y,x-y,1/2-z
x-y,-y,-z
-x,-x+y,-z
y,x,-z
y,x,1/2+z
x-y,-y,1/2+z
-x,-x+y,1/2+z
loop_
_atom_site_type_symbol
_atom_site_label
_atom_site_fract_x
_atom_site_fract_y
_atom_site_fract_z
Si Si1 0.997480 0.670937 0.894352
Si Si2 0.340314 0.998772 0.644964
Si Si3 0.523939 0.646861 0.750000
Si Si4 0.799435 0.000000 0.000000
O O1 0.853137 0.706194 0.869230
O O2 0.187086 0.811724 0.873849
O O3 0.957783 0.478127 0.881048
O O4 0.996281 0.702139 0.951343
O O5 0.360903 0.979404 0.701835
O O6 0.317498 0.495381 0.750000
O O7 0.835860 0.835860 0.000000
#
# Coordination Sequence:
#
# PCOD9586862 Si02
#       4
#    12  12   6   6
#     4  12  24  43  69 102 135 179 223 278 336 402
#     4  12  24  43  69 102 135 177 224 278 337 403
#     4  10  20  42  70  96 134 176 222 276 346 396
#     4  10  20  42  70  96 138 178 224 276 344 400
#
# _framework density 19.402818
#
# number of rings (size 3 to 8) (size 9 to 14) (size 15 to 20)
#    0.667    0.000    6.667    2.000    0.000    5.333 
#    0.000    0.000    0.000    0.000    0.000    0.000 
#    0.000    0.000    0.000    0.000    0.000    0.000 
#
# Total GULP energy -201184.324178 kJ/mol
# GULP energy per Si atom -5588.453449 kJ/mol
# Density = 1.935866 g / cm^3
# Si number density = 19.402818 Si / 1000 Ang^3
#
#
#
# Elastic Constant Matrix: (Units=GPa)
#
#
# Indices 1 2 3 4 5 6 
#
# 1 53.8635 -13.6776 37.0000 0.0000 0.0000 0.0000
# 2 -13.6776 53.8635 37.0000 0.0000 0.0000 0.0000
# 3 37.0000 37.0000 229.0491 0.0000 0.0000 0.0000
# 4 0.0000 0.0000 0.0000 12.9756 0.0000 0.0000
# 5 0.0000 0.0000 0.0000 0.0000 12.9756 0.0000
# 6 0.0000 0.0000 0.0000 0.0000 0.0000 33.7705
#
#
#
# Elastic Compliance Matrix: (Units=1/GPa)
#
#
# Indices 1 2 3 4 5 6 
#
# 1 0.025113 0.010307 -0.005722 0.000000 0.000000 0.000000
# 2 0.010307 0.025113 -0.005722 0.000000 0.000000 0.000000
# 3 -0.005722 -0.005722 0.006214 0.000000 0.000000 0.000000
# 4 0.000000 0.000000 0.000000 0.077068 0.000000 0.000000
# 5 0.000000 0.000000 0.000000 0.000000 0.077068 0.000000
# 6 0.000000 0.000000 0.000000 0.000000 0.000000 0.029612
#
#
# Mechanical properties :
#
#
# Convention : Reuss Voigt Hill
#
# Bulk Modulus (GPa) = 18.46087 50.82458 34.64272
# Shear Modulus (GPa) = 19.19263 30.37457 24.78360
#
# Velocity S-wave (km/s) = 3.14851 3.96090 3.57784
# Velocity P-wave (km/s) = 4.76998 6.86801 5.91279
#
# Compressibility (1/GPa) = 0.05416862
#
# Stress axis : x y z
#
# Youngs Moduli (GPa) = 39.81968 39.81968 160.91564
#
# Poissons Ratio (x) = -0.41044 0.92072
# Poissons Ratio (y) = -0.41044 0.92072
# Poissons Ratio (z) = 0.22784 0.22784
#
# Static dielectric constant tensor:
#      x y z
#    x 1.653850 0.000000 0.000000 
#    y 0.000000 1.653850 0.000000 
#    z 0.000000 0.000000 1.641310 
# 
# From -- ./inp_files/5032.got.cif
#   From: 2010.05.17/outbox.cif.g08.bks.cpg/sg190_3_cif.got.tgz:5032.got - 2010.05.20 12:16:56.
