data_PCOD9586828
_publ_section_title
;
Structure prediction by ZEFSAII (Michael W. Deem and Ramdas Pophale) SiO2 
 PCOD9586828
Probable space group: P -6 2 C
;
_chemical_formula_sum "Si O2"
_cell_formula_units_Z 90
_cell_length_a 17.583179
_cell_length_b 17.583179
_cell_length_c 18.685871
_cell_angle_alpha 90.000000
_cell_angle_beta 90.000000
_cell_angle_gamma 120.000000
_cell_volume 5003.095267
_symmetry_space_group_name_H-M "P -6 2 C"
_symmetry_group_IT_number 190
_symmetry_cell_setting 'hexagonal'
loop_
_space_group_symop_operation_xyz
x,y,z
-x+y,-x,1/2-z
-y,x-y,z
x,y,1/2-z
-x+y,-x,z
-y,x-y,1/2-z
x-y,-y,-z
-x,-x+y,-z
y,x,-z
y,x,1/2+z
x-y,-y,1/2+z
-x,-x+y,1/2+z
loop_
_atom_site_type_symbol
_atom_site_label
_atom_site_fract_x
_atom_site_fract_y
_atom_site_fract_z
Si Si1 0.550458 0.779438 0.898257
Si Si2 0.355572 0.338249 0.418843
Si Si3 0.737435 0.289295 0.250000
Si Si4 0.906250 0.150065 0.670775
Si Si5 0.552869 0.281468 0.547259
Si Si6 0.426452 0.276128 0.668704
Si Si7 0.049522 0.268785 0.923331
Si Si8 0.829161 0.984322 0.920623
O O1 0.583137 0.883278 0.893683
O O2 0.503799 0.734646 0.823427
O O3 0.634010 0.766732 0.915674
O O4 0.489975 0.747419 0.968929
O O5 0.374985 0.374985 0.500000
O O6 0.348218 0.405474 0.365449
O O7 0.259194 0.250944 0.422568
O O8 0.630328 0.239336 0.250000
O O9 0.937057 0.149107 0.750000
O O10 0.812439 0.144763 0.672526
O O11 0.972472 0.240822 0.633035
O O12 0.893210 0.064007 0.629486
O O13 0.614639 0.238302 0.553549
O O14 0.484802 0.259890 0.611196
O O15 0.461778 0.297413 0.750000
O O16 0.088238 0.204717 0.904222
O O17 0.000000 0.244905 0.000000
O O18 0.867082 0.000000 0.000000
#
# Coordination Sequence:
#
# PCOD9586828 Si02
#       8
#    12  12   6  12  12  12  12  12
#     4  11  21  38  66  90 120 157 213 255 304 379
#     4   9  17  32  60  88 109 144 196 247 292 341
#     4  10  24  44  68  86 118 166 206 256 324 386
#     4  10  21  36  55  81 122 162 203 253 305 354
#     4  10  22  38  64  85 110 152 200 244 299 385
#     4  10  20  37  61  87 122 158 200 249 307 361
#     4  11  21  34  61  88 120 164 213 254 310 366
#     4   9  17  33  52  78 109 151 199 241 281 350
#
# _framework density 17.988864
#
# number of rings (size 3 to 8) (size 9 to 14) (size 15 to 20)
#    0.400    1.600    2.667    1.600    1.867    1.067 
#    3.200    0.667   14.667    0.000    0.000    0.000 
#    0.000    0.000    0.000    0.000    0.000    0.000 
#
# Total GULP energy -501005.563847 kJ/mol
# GULP energy per Si atom -5566.728487 kJ/mol
# Density = 1.794792 g / cm^3
# Si number density = 17.988864 Si / 1000 Ang^3
#
#
#
# Elastic Constant Matrix: (Units=GPa)
#
#
# Indices 1 2 3 4 5 6 
#
# 1 64.7732 16.2599 42.2289 0.0000 0.0000 0.0000
# 2 16.2599 64.7732 42.2289 0.0000 0.0000 0.0000
# 3 42.2289 42.2289 157.6945 0.0000 0.0000 0.0000
# 4 0.0000 0.0000 0.0000 15.3483 0.0000 0.0000
# 5 0.0000 0.0000 0.0000 0.0000 15.3483 0.0000
# 6 0.0000 0.0000 0.0000 0.0000 0.0000 24.2567
#
#
#
# Elastic Compliance Matrix: (Units=1/GPa)
#
#
# Indices 1 2 3 4 5 6 
#
# 1 0.018866 -0.001747 -0.004584 0.000000 0.000000 0.000000
# 2 -0.001747 0.018866 -0.004584 0.000000 0.000000 0.000000
# 3 -0.004584 -0.004584 0.008797 0.000000 0.000000 0.000000
# 4 0.000000 0.000000 0.000000 0.065154 0.000000 0.000000
# 5 0.000000 0.000000 0.000000 0.000000 0.065154 0.000000
# 6 0.000000 0.000000 0.000000 0.000000 0.000000 0.041226
#
#
# Mechanical properties :
#
#
# Convention : Reuss Voigt Hill
#
# Bulk Modulus (GPa) = 40.49074 54.29734 47.39404
# Shear Modulus (GPa) = 20.15117 23.42554 21.78836
#
# Velocity S-wave (km/s) = 3.35057 3.61255 3.48403
# Velocity P-wave (km/s) = 6.12586 6.90290 6.52596
#
# Compressibility (1/GPa) = 0.02469700
#
# Stress axis : x y z
#
# Youngs Moduli (GPa) = 53.00618 53.00618 113.68092
#
# Poissons Ratio (x) = 0.09261 0.52113
# Poissons Ratio (y) = 0.09261 0.52113
# Poissons Ratio (z) = 0.24299 0.24299
#
# Static dielectric constant tensor:
#      x y z
#    x 1.647450 0.000000 0.000000 
#    y 0.000000 1.647450 0.000000 
#    z 0.000000 0.000000 1.637340 
# 
# From -- ./inp_files/3958.got.cif
#   From: 2010.05.17/outbox.cif.g08.bks.cpg/sg190_2_cif.got.tgz:3958.got - 2010.05.20 12:16:56.
