data_PCOD9586537
_publ_section_title
;
Structure prediction by ZEFSAII (Michael W. Deem and Ramdas Pophale) SiO2 
 PCOD9586537
Probable space group: P -6 2 M
;
_chemical_formula_sum "Si O2"
_cell_formula_units_Z 56
_cell_length_a 15.739240
_cell_length_b 15.739240
_cell_length_c 13.008669
_cell_angle_alpha 90.000000
_cell_angle_beta 90.000000
_cell_angle_gamma 120.000000
_cell_volume 2790.814756
_symmetry_space_group_name_H-M "P -6 2 M"
_symmetry_group_IT_number 189
_symmetry_cell_setting 'hexagonal'
loop_
_space_group_symop_operation_xyz
x,y,z
-x+y,-x,-z
-y,x-y,z
x,y,-z
-x+y,-x,z
-y,x-y,-z
x-y,-y,-z
-x,-x+y,-z
y,x,-z
y,x,z
x-y,-y,z
-x,-x+y,z
loop_
_atom_site_type_symbol
_atom_site_label
_atom_site_fract_x
_atom_site_fract_y
_atom_site_fract_z
Si Si1 0.703406 0.116733 0.887393
Si Si2 0.196754 0.196754 0.624373
Si Si3 0.508792 0.881951 0.667080
Si Si4 0.814065 0.703311 0.765505
Si Si5 0.000000 0.000000 0.378444
Si Si6 0.545686 0.706041 0.387476
O O1 0.650356 0.133299 0.789698
O O2 0.818787 0.164527 0.862218
O O3 0.658470 0.000000 0.889779
O O4 0.687576 0.148034 0.000000
O O5 0.211803 0.211803 0.500000
O O6 0.272133 0.175438 0.685704
O O7 0.096906 0.096906 0.648697
O O8 0.525780 0.797551 0.617580
O O9 0.400780 0.853840 0.630645
O O10 0.584589 0.000000 0.644736
O O11 0.790681 0.790681 0.784443
O O12 0.723426 0.618625 0.704785
O O13 0.000000 0.000000 0.500000
O O14 0.588372 0.709316 0.500000
#
# Coordination Sequence:
#
# PCOD9586537 Si02
#       6
#    12   6  12  12   2  12
#     4   9  19  39  64  85 111 153 203 261 323 371
#     4  11  20  32  49  77 120 169 217 253 293 349
#     4  10  22  41  62  89 124 162 206 262 322 387
#     4  11  22  35  54  86 123 162 206 254 301 361
#     4   9  18  30  48  69 106 173 220 249 288 339
#     4  11  23  37  59  88 121 160 203 250 309 379
#
# _framework density 20.065823999999999
#
# number of rings (size 3 to 8) (size 9 to 14) (size 15 to 20)
#    0.000    1.714    2.143    2.357    1.500    4.286 
#    0.000    4.286    0.000    5.143    0.000    0.000 
#    0.000    0.000    0.000    0.000    0.000    0.000 
#
# Total GULP energy -311922.381127 kJ/mol
# GULP energy per Si atom -5570.042520 kJ/mol
# Density = 2.002015 g / cm^3
# Si number density = 20.065824 Si / 1000 Ang^3
#
#
#
# Elastic Constant Matrix: (Units=GPa)
#
#
# Indices 1 2 3 4 5 6 
#
# 1 66.1375 19.1420 -1.8733 0.0000 0.0000 0.0000
# 2 19.1420 66.1375 -1.8733 0.0000 0.0000 0.0000
# 3 -1.8733 -1.8733 102.7247 0.0000 0.0000 0.0000
# 4 0.0000 0.0000 0.0000 7.2878 0.0000 0.0000
# 5 0.0000 0.0000 0.0000 0.0000 7.2878 0.0000
# 6 0.0000 0.0000 0.0000 0.0000 0.0000 23.4978
#
#
#
# Elastic Compliance Matrix: (Units=1/GPa)
#
#
# Indices 1 2 3 4 5 6 
#
# 1 0.016507 -0.004772 0.000214 0.000000 0.000000 0.000000
# 2 -0.004772 0.016507 0.000214 0.000000 0.000000 0.000000
# 3 0.000214 0.000214 0.009743 0.000000 0.000000 0.000000
# 4 0.000000 0.000000 0.000000 0.137215 0.000000 0.000000
# 5 0.000000 0.000000 0.000000 0.000000 0.137215 0.000000
# 6 0.000000 0.000000 0.000000 0.000000 0.000000 0.042557
#
#
# Mechanical properties :
#
#
# Convention : Reuss Voigt Hill
#
# Bulk Modulus (GPa) = 29.35158 29.53227 29.44193
# Shear Modulus (GPa) = 13.16528 22.25499 17.71013
#
# Velocity S-wave (km/s) = 2.56423 3.33393 2.97408
# Velocity P-wave (km/s) = 4.84009 5.43781 5.14763
#
# Compressibility (1/GPa) = 0.03406971
#
# Stress axis : x y z
#
# Youngs Moduli (GPa) = 60.58006 60.58006 102.64244
#
# Poissons Ratio (x) = 0.28906 -0.02197
# Poissons Ratio (y) = 0.28906 -0.02197
# Poissons Ratio (z) = -0.01296 -0.01296
#
# Static dielectric constant tensor:
#      x y z
#    x 1.719350 0.000000 0.000000 
#    y 0.000000 1.719350 0.000000 
#    z 0.000000 0.000000 1.710470 
# 
# From -- ./inp_files/2546.got.cif
#   From: 2010.05.17/outbox.cif.g08.bks.cpg/sg189_2_cif.got.tgz:2546.got - 2010.05.20 12:14:34.
