data_PCOD9586478
_publ_section_title
;
Structure prediction by ZEFSAII (Michael W. Deem and Ramdas Pophale) SiO2 
 PCOD9586478
Probable space group: P -6 2 M
;
_chemical_formula_sum "Si O2"
_cell_formula_units_Z 68
_cell_length_a 24.349383
_cell_length_b 24.349383
_cell_length_c 7.523817
_cell_angle_alpha 90.000000
_cell_angle_beta 90.000000
_cell_angle_gamma 120.000000
_cell_volume 3863.178517
_symmetry_space_group_name_H-M "P -6 2 M"
_symmetry_group_IT_number 189
_symmetry_cell_setting 'hexagonal'
loop_
_space_group_symop_operation_xyz
x,y,z
-x+y,-x,-z
-y,x-y,z
x,y,-z
-x+y,-x,z
-y,x-y,-z
x-y,-y,-z
-x,-x+y,-z
y,x,-z
y,x,z
x-y,-y,z
-x,-x+y,z
loop_
_atom_site_type_symbol
_atom_site_label
_atom_site_fract_x
_atom_site_fract_y
_atom_site_fract_z
Si Si1 0.373963 0.449781 0.500000
Si Si2 0.662829 0.587964 0.214411
Si Si3 0.000000 0.000000 0.217057
Si Si4 0.073960 0.716545 0.215043
Si Si5 0.209983 0.070523 0.706887
Si Si6 0.874716 0.000000 0.211967
Si Si7 0.194445 0.847046 0.800154
Si Si8 0.502993 0.076434 0.500000
O O1 0.417457 0.417457 0.500000
O O2 0.330951 0.420409 0.324658
O O3 0.421953 0.524833 0.500000
O O4 0.638588 0.638588 0.250258
O O5 0.735019 0.613171 0.277215
O O6 0.616907 0.525108 0.325239
O O7 0.658835 0.578774 0.000000
O O8 0.062527 0.062527 0.278464
O O9 0.000000 0.000000 0.000000
O O10 0.130126 0.786600 0.271502
O O11 0.000000 0.695458 0.257794
O O12 0.075550 0.710975 0.000000
O O13 0.222246 0.067527 0.500000
O O14 0.184194 0.118815 0.729966
O O15 0.275499 0.095849 0.804596
O O16 0.157497 0.000000 0.767451
O O17 0.875473 0.000000 0.000000
O O18 0.200106 0.828015 0.000000
O O19 0.468783 0.000000 0.500000
#
# Coordination Sequence:
#
# PCOD9586478 Si02
#       8
#     6  12   2  12  12   6  12   6
#     4   9  18  33  52  76 103 133 163 198 248 303
#     4   9  18  32  50  75 107 140 175 218 264 312
#     4   9  18  33  55  65  73 111 163 227 310 357
#     4   9  19  34  51  74 106 143 181 220 259 305
#     4  11  24  36  48  70  95 127 175 234 294 344
#     4  11  21  37  53  65  83 117 171 235 298 357
#     4  10  21  35  52  73 102 142 182 219 265 320
#     4   9  18  31  52  78 103 131 161 194 244 307
#
# _framework density 17.602087000000001
#
# number of rings (size 3 to 8) (size 9 to 14) (size 15 to 20)
#    0.000    2.294    0.882    1.324    3.706    2.471 
#    0.000    3.529    0.000    0.000    0.000    0.000 
#    7.059    0.000    2.118    0.000    0.000    0.000 
#
# Total GULP energy -378714.036698 kJ/mol
# GULP energy per Si atom -5569.324069 kJ/mol
# Density = 1.756202 g / cm^3
# Si number density = 17.602087 Si / 1000 Ang^3
#
#
#
# Elastic Constant Matrix: (Units=GPa)
#
#
# Indices 1 2 3 4 5 6 
#
# 1 80.1197 38.3505 22.4211 0.0000 0.0000 0.0000
# 2 38.3505 80.1197 22.4211 0.0000 0.0000 0.0000
# 3 22.4211 22.4211 67.4306 0.0000 0.0000 0.0000
# 4 0.0000 0.0000 0.0000 20.5068 0.0000 0.0000
# 5 0.0000 0.0000 0.0000 0.0000 20.5068 0.0000
# 6 0.0000 0.0000 0.0000 0.0000 0.0000 20.8846
#
#
#
# Elastic Compliance Matrix: (Units=1/GPa)
#
#
# Indices 1 2 3 4 5 6 
#
# 1 0.016799 -0.007142 -0.003211 0.000000 0.000000 0.000000
# 2 -0.007142 0.016799 -0.003211 0.000000 0.000000 0.000000
# 3 -0.003211 -0.003211 0.016965 0.000000 0.000000 0.000000
# 4 0.000000 0.000000 0.000000 0.048764 0.000000 0.000000
# 5 0.000000 0.000000 0.000000 0.000000 0.048764 0.000000
# 6 0.000000 0.000000 0.000000 0.000000 0.000000 0.047882
#
#
# Mechanical properties :
#
#
# Convention : Reuss Voigt Hill
#
# Bulk Modulus (GPa) = 42.67176 43.78394 43.22785
# Shear Modulus (GPa) = 21.65320 22.01146 21.83233
#
# Velocity S-wave (km/s) = 3.51115 3.54008 3.52565
# Velocity P-wave (km/s) = 6.38222 6.45274 6.41757
#
# Compressibility (1/GPa) = 0.02343470
#
# Stress axis : x y z
#
# Youngs Moduli (GPa) = 59.52848 59.52848 58.94396
#
# Poissons Ratio (x) = 0.42518 0.18926
# Poissons Ratio (y) = 0.42518 0.18926
# Poissons Ratio (z) = 0.19113 0.19113
#
# Static dielectric constant tensor:
#      x y z
#    x 1.602650 0.000000 0.000000 
#    y 0.000000 1.602650 0.000000 
#    z 0.000000 0.000000 1.654500 
# 
# From -- ./inp_files/1119.got.cif
#   From: 2010.05.17/outbox.cif.g08.bks.cpg/sg189_1_cif.got.tgz:1119.got - 2010.05.20 12:14:34.
