data_PCOD9586680
_publ_section_title
;
Structure prediction by ZEFSAII (Michael W. Deem and Ramdas Pophale) SiO2 
 PCOD9586680
Probable space group: P -6 2 C
;
_chemical_formula_sum "Si O2"
_cell_formula_units_Z 72
_cell_length_a 23.355246
_cell_length_b 23.355246
_cell_length_c 8.312489
_cell_angle_alpha 90.000000
_cell_angle_beta 90.000000
_cell_angle_gamma 120.000000
_cell_volume 3926.726085
_symmetry_space_group_name_H-M "P -6 2 C"
_symmetry_group_IT_number 190
_symmetry_cell_setting 'hexagonal'
loop_
_space_group_symop_operation_xyz
x,y,z
-x+y,-x,1/2-z
-y,x-y,z
x,y,1/2-z
-x+y,-x,z
-y,x-y,1/2-z
x-y,-y,-z
-x,-x+y,-z
y,x,-z
y,x,1/2+z
x-y,-y,1/2+z
-x,-x+y,1/2+z
loop_
_atom_site_type_symbol
_atom_site_label
_atom_site_fract_x
_atom_site_fract_y
_atom_site_fract_z
Si Si1 0.203729 0.930134 0.435219
Si Si2 0.074327 0.147537 0.442500
Si Si3 0.591324 0.170657 0.250000
Si Si4 0.483404 0.734098 0.750000
Si Si5 0.201220 0.812269 0.573911
Si Si6 0.483196 0.925615 0.058026
Si Si7 0.694529 0.071425 0.934861
O O1 0.198518 0.940907 0.250000
O O2 0.131539 0.912235 0.503601
O O3 0.219697 0.871906 0.456593
O O4 0.259227 0.000000 0.500000
O O5 0.075529 0.146977 0.250000
O O6 0.125680 0.125680 0.500000
O O7 0.000000 0.095784 0.500000
O O8 0.671424 0.213697 0.250000
O O9 0.567643 0.224646 0.250000
O O10 0.565384 0.125449 0.413798
O O11 0.532930 0.750966 0.902406
O O12 0.200135 0.839910 0.750000
O O13 0.129914 0.751725 0.533965
O O14 0.461424 0.914717 0.250000
O O15 0.551670 0.923591 0.056187
O O16 0.503663 0.000000 0.000000
O O17 0.715524 0.078432 0.750000
O O18 0.675505 0.000000 0.000000
#
# Coordination Sequence:
#
# PCOD9586680 Si02
#       7
#    12  12   6   6  12  12  12
#     4  10  21  37  58  79 108 159 206 256 311 365
#     4  10  20  33  50  74 106 147 201 252 312 355
#     4  12  21  46  66  96 140 163 227 251 317 391
#     4  10  25  40  70  92 124 175 197 251 303 369
#     4  10  20  38  56  87 117 155 202 242 304 363
#     4  10  19  34  64  98 127 166 204 261 323 381
#     4  10  19  31  56  92 127 160 199 247 311 377
#
# _framework density 18.335885999999999
#
# number of rings (size 3 to 8) (size 9 to 14) (size 15 to 20)
#    0.500    1.333    2.500    2.333    1.167    2.667 
#    0.000    5.000    0.000    0.000    0.000    0.000 
#    0.000    0.000    0.000    0.000    0.000    0.000 
#
# Total GULP energy -400865.028362 kJ/mol
# GULP energy per Si atom -5567.569838 kJ/mol
# Density = 1.829415 g / cm^3
# Si number density = 18.335886 Si / 1000 Ang^3
#
#
#
# Elastic Constant Matrix: (Units=GPa)
#
#
# Indices 1 2 3 4 5 6 
#
# 1 70.5483 30.2834 17.2701 0.0000 0.0000 0.0000
# 2 30.2834 70.5483 17.2701 0.0000 0.0000 0.0000
# 3 17.2701 17.2701 78.7770 0.0000 0.0000 0.0000
# 4 0.0000 0.0000 0.0000 38.3234 0.0000 0.0000
# 5 0.0000 0.0000 0.0000 0.0000 38.3234 0.0000
# 6 0.0000 0.0000 0.0000 0.0000 0.0000 20.1325
#
#
#
# Elastic Compliance Matrix: (Units=1/GPa)
#
#
# Indices 1 2 3 4 5 6 
#
# 1 0.017779 -0.007056 -0.002351 0.000000 0.000000 0.000000
# 2 -0.007056 0.017779 -0.002351 0.000000 0.000000 0.000000
# 3 -0.002351 -0.002351 0.013725 0.000000 0.000000 0.000000
# 4 0.000000 0.000000 0.000000 0.026094 0.000000 0.000000
# 5 0.000000 0.000000 0.000000 0.000000 0.026094 0.000000
# 6 0.000000 0.000000 0.000000 0.000000 0.000000 0.049671
#
#
# Mechanical properties :
#
#
# Convention : Reuss Voigt Hill
#
# Bulk Modulus (GPa) = 38.80876 38.83563 38.82219
# Shear Modulus (GPa) = 27.28568 29.69251 28.48910
#
# Velocity S-wave (km/s) = 3.86178 4.02850 3.94602
# Velocity P-wave (km/s) = 6.41060 6.54710 6.47921
#
# Compressibility (1/GPa) = 0.02576738
#
# Stress axis : x y z
#
# Youngs Moduli (GPa) = 56.24569 56.24569 72.86105
#
# Poissons Ratio (x) = 0.39689 0.17128
# Poissons Ratio (y) = 0.39689 0.17128
# Poissons Ratio (z) = 0.13222 0.13222
#
# Static dielectric constant tensor:
#      x y z
#    x 1.632230 0.000000 0.000000 
#    y 0.000000 1.632230 0.000000 
#    z 0.000000 0.000000 1.662560 
# 
# From -- ./inp_files/1283.got.cif
#   From: 2010.05.17/outbox.cif.g08.bks.cpg/sg190_1_cif.got.tgz:1283.got - 2010.05.20 12:16:56.
