data_PCOD9586662
_publ_section_title
;
Structure prediction by ZEFSAII (Michael W. Deem and Ramdas Pophale) SiO2 
 PCOD9586662
Probable space group: P -6 2 C
;
_chemical_formula_sum "Si O2"
_cell_formula_units_Z 72
_cell_length_a 14.855773
_cell_length_b 14.855773
_cell_length_c 18.597562
_cell_angle_alpha 90.000000
_cell_angle_beta 90.000000
_cell_angle_gamma 120.000000
_cell_volume 3554.488850
_symmetry_space_group_name_H-M "P -6 2 C"
_symmetry_group_IT_number 190
_symmetry_cell_setting 'hexagonal'
loop_
_space_group_symop_operation_xyz
x,y,z
-x+y,-x,1/2-z
-y,x-y,z
x,y,1/2-z
-x+y,-x,z
-y,x-y,1/2-z
x-y,-y,-z
-x,-x+y,-z
y,x,-z
y,x,1/2+z
x-y,-y,1/2+z
-x,-x+y,1/2+z
loop_
_atom_site_type_symbol
_atom_site_label
_atom_site_fract_x
_atom_site_fract_y
_atom_site_fract_z
Si Si1 0.087679 0.589654 0.938105
Si Si2 0.528417 0.715566 0.526782
Si Si3 0.764284 0.828648 0.564893
Si Si4 0.207679 0.885331 0.168433
Si Si5 0.220791 0.548122 0.133683
Si Si6 0.715468 0.994629 0.087551
O O1 0.133635 0.515305 0.918682
O O2 0.192110 0.696964 0.958715
O O3 0.033792 0.636781 0.886858
O O4 0.000000 0.528348 0.000000
O O5 0.651830 0.767189 0.526281
O O6 0.474451 0.670080 0.450558
O O7 0.843847 0.843847 0.500000
O O8 0.767644 0.756884 0.627192
O O9 0.767640 0.929487 0.599484
O O10 0.173695 0.883982 0.250000
O O11 0.302463 0.861377 0.169151
O O12 0.116345 0.794693 0.121159
O O13 0.339369 0.573257 0.149794
O O14 0.711575 0.000000 0.000000
#
# Coordination Sequence:
#
# PCOD9586662 Si02
#       6
#    12  12  12  12  12  12
#     4  10  19  30  53  90 128 164 206 267 327 381
#     4  11  18  32  58  94 129 161 210 274 320 370
#     4  11  21  37  63  90 117 159 211 267 319 376
#     4  12  26  43  60  88 131 171 208 266 332 394
#     4  10  20  34  60  92 130 168 205 245 314 396
#     4  10  21  39  63  87 119 159 213 270 325 383
#
# _framework density 20.256077999999999
#
# number of rings (size 3 to 8) (size 9 to 14) (size 15 to 20)
#    0.333    1.000    5.000    2.833    0.000    1.333 
#    1.000    0.833    0.000    0.000    0.000    0.000 
#    0.000    2.667    0.000    0.000    0.000    0.000 
#
# Total GULP energy -401009.641928 kJ/mol
# GULP energy per Si atom -5569.578360 kJ/mol
# Density = 2.020997 g / cm^3
# Si number density = 20.256078 Si / 1000 Ang^3
#
#
#
# Elastic Constant Matrix: (Units=GPa)
#
#
# Indices 1 2 3 4 5 6 
#
# 1 75.4729 24.4322 5.4028 0.0000 0.0000 0.0000
# 2 24.4322 75.4729 5.4028 0.0000 0.0000 0.0000
# 3 5.4028 5.4028 59.2227 0.0000 0.0000 0.0000
# 4 0.0000 0.0000 0.0000 0.4992 0.0000 0.0000
# 5 0.0000 0.0000 0.0000 0.0000 0.4992 0.0000
# 6 0.0000 0.0000 0.0000 0.0000 0.0000 25.5204
#
#
#
# Elastic Compliance Matrix: (Units=1/GPa)
#
#
# Indices 1 2 3 4 5 6 
#
# 1 0.014851 -0.004741 -0.000922 0.000000 0.000000 0.000000
# 2 -0.004741 0.014851 -0.000922 0.000000 0.000000 0.000000
# 3 -0.000922 -0.000922 0.017054 0.000000 0.000000 0.000000
# 4 0.000000 0.000000 0.000000 2.003384 0.000000 0.000000
# 5 0.000000 0.000000 0.000000 0.000000 2.003384 0.000000
# 6 0.000000 0.000000 0.000000 0.000000 0.000000 0.039184
#
#
# Mechanical properties :
#
#
# Convention : Reuss Voigt Hill
#
# Bulk Modulus (GPa) = 29.77681 31.18267 30.47974
# Shear Modulus (GPa) = 1.21446 16.96580 9.09013
#
# Velocity S-wave (km/s) = 0.77515 2.89721 2.12069
# Velocity P-wave (km/s) = 3.94122 5.15940 4.59090
#
# Compressibility (1/GPa) = 0.03358318
#
# Stress axis : x y z
#
# Youngs Moduli (GPa) = 67.33683 67.33683 58.63838
#
# Poissons Ratio (x) = 0.31928 0.05408
# Poissons Ratio (y) = 0.31928 0.05408
# Poissons Ratio (z) = 0.06210 0.06210
#
# Static dielectric constant tensor:
#      x y z
#    x 1.783880 0.000000 0.000000 
#    y 0.000000 1.783880 0.000000 
#    z 0.000000 0.000000 1.751380 
# 
# From -- ./inp_files/3776.got.cif
#   From: 2010.05.17/outbox.cif.g08.bks.cpg/sg190_2_cif.got.tgz:3776.got - 2010.05.20 12:16:56.
