data_PCOD9586979
_publ_section_title
;
Structure prediction by ZEFSAII (Michael W. Deem and Ramdas Pophale) SiO2 
 PCOD9586979
Probable space group: P -6 2 C
;
_chemical_formula_sum "Si O2"
_cell_formula_units_Z 72
_cell_length_a 24.578105
_cell_length_b 24.578105
_cell_length_c 8.521109
_cell_angle_alpha 90.000000
_cell_angle_beta 90.000000
_cell_angle_gamma 120.000000
_cell_volume 4457.830414
_symmetry_space_group_name_H-M "P -6 2 C"
_symmetry_group_IT_number 190
_symmetry_cell_setting 'hexagonal'
loop_
_space_group_symop_operation_xyz
x,y,z
-x+y,-x,1/2-z
-y,x-y,z
x,y,1/2-z
-x+y,-x,z
-y,x-y,1/2-z
x-y,-y,-z
-x,-x+y,-z
y,x,-z
y,x,1/2+z
x-y,-y,1/2+z
-x,-x+y,1/2+z
loop_
_atom_site_type_symbol
_atom_site_label
_atom_site_fract_x
_atom_site_fract_y
_atom_site_fract_z
Si Si1 0.070308 0.139584 0.062977
Si Si2 0.930133 0.189142 0.436662
Si Si3 0.522693 0.263887 0.558792
Si Si4 0.930552 0.401420 0.561119
Si Si5 0.857875 0.255672 0.939800
Si Si6 0.594453 0.190547 0.558494
O O1 0.068912 0.137891 0.250000
O O2 0.116747 0.116747 0.000000
O O3 0.087077 0.208539 0.005243
O O4 0.000000 0.092930 0.000000
O O5 0.933277 0.186881 0.250000
O O6 0.882650 0.212438 0.488329
O O7 0.000000 0.237550 0.500000
O O8 0.522615 0.264551 0.750000
O O9 0.452201 0.211892 0.511879
O O10 0.568979 0.237555 0.513132
O O11 0.549988 0.334942 0.503625
O O12 0.931404 0.402636 0.750000
O O13 0.903950 0.328669 0.514973
O O14 0.878785 0.419700 0.508432
O O15 0.000000 0.445414 0.500000
O O16 0.859058 0.252013 0.750000
O O17 0.595481 0.190494 0.750000
#
# Coordination Sequence:
#
# PCOD9586979 Si02
#       6
#    12  12  12  12  12  12
#     4  11  21  35  53  75 101 128 157 190 228 272
#     4  11  21  33  49  70  94 123 156 193 233 276
#     4   8  13  22  40  64  91 117 146 185 232 276
#     4   9  17  27  41  62  89 116 147 181 220 268
#     4   9  17  29  44  66  92 120 151 188 231 278
#     4   8  13  22  38  63  88 112 142 181 223 268
#
# _framework density 16.151354999999999
#
# number of rings (size 3 to 8) (size 9 to 14) (size 15 to 20)
#    0.000    2.667    0.000    7.000    0.000    3.333 
#    0.000    0.000    0.000    2.000    0.000    2.333 
#    0.000    2.667    0.000    0.000    0.000    0.000 
#
# Total GULP energy -401399.921956 kJ/mol
# GULP energy per Si atom -5574.998916 kJ/mol
# Density = 1.611459 g / cm^3
# Si number density = 16.151355 Si / 1000 Ang^3
#
#
#
# Elastic Constant Matrix: (Units=GPa)
#
#
# Indices 1 2 3 4 5 6 
#
# 1 144.5516 88.7969 36.9771 0.0000 0.0000 0.0000
# 2 88.7969 144.5516 36.9771 0.0000 0.0000 0.0000
# 3 36.9771 36.9771 61.0389 0.0000 0.0000 0.0000
# 4 0.0000 0.0000 0.0000 15.1227 0.0000 0.0000
# 5 0.0000 0.0000 0.0000 0.0000 15.1227 0.0000
# 6 0.0000 0.0000 0.0000 0.0000 0.0000 27.8774
#
#
#
# Elastic Compliance Matrix: (Units=1/GPa)
#
#
# Indices 1 2 3 4 5 6 
#
# 1 0.011620 -0.006316 -0.003213 0.000000 0.000000 0.000000
# 2 -0.006316 0.011620 -0.003213 0.000000 0.000000 0.000000
# 3 -0.003213 -0.003213 0.020276 0.000000 0.000000 0.000000
# 4 0.000000 0.000000 0.000000 0.066126 0.000000 0.000000
# 5 0.000000 0.000000 0.000000 0.000000 0.066126 0.000000
# 6 0.000000 0.000000 0.000000 0.000000 0.000000 0.035871
#
#
# Mechanical properties :
#
#
# Convention : Reuss Voigt Hill
#
# Bulk Modulus (GPa) = 55.45892 75.07156 65.26524
# Shear Modulus (GPa) = 20.56493 24.11729 22.34111
#
# Velocity S-wave (km/s) = 3.57215 3.86839 3.72322
# Velocity P-wave (km/s) = 7.17114 8.15681 7.67981
#
# Compressibility (1/GPa) = 0.01803136
#
# Stress axis : x y z
#
# Youngs Moduli (GPa) = 86.06069 86.06069 49.31988
#
# Poissons Ratio (x) = 0.54356 0.15846
# Poissons Ratio (y) = 0.54356 0.15846
# Poissons Ratio (z) = 0.27651 0.27651
#
# Static dielectric constant tensor:
#      x y z
#    x 1.532940 0.000000 0.000000 
#    y 0.000000 1.532940 0.000000 
#    z 0.000000 0.000000 1.554820 
# 
# From -- ./inp_files/1244.got.cif
#   From: 2010.05.17/outbox.cif.g08.bks.cpg/sg190_1_cif.got.tgz:1244.got - 2010.05.20 12:16:56.
