data_PCOD9586363
_publ_section_title
;
Structure prediction by ZEFSAII (Michael W. Deem and Ramdas Pophale) SiO2 
 PCOD9586363
Probable space group: P -6 2 M
;
_chemical_formula_sum "Si O2"
_cell_formula_units_Z 72
_cell_length_a 23.717232
_cell_length_b 23.717232
_cell_length_c 9.253347
_cell_angle_alpha 90.000000
_cell_angle_beta 90.000000
_cell_angle_gamma 120.000000
_cell_volume 4507.725731
_symmetry_space_group_name_H-M "P -6 2 M"
_symmetry_group_IT_number 189
_symmetry_cell_setting 'hexagonal'
loop_
_space_group_symop_operation_xyz
x,y,z
-x+y,-x,-z
-y,x-y,z
x,y,-z
-x+y,-x,z
-y,x-y,-z
x-y,-y,-z
-x,-x+y,-z
y,x,-z
y,x,z
x-y,-y,z
-x,-x+y,z
loop_
_atom_site_type_symbol
_atom_site_label
_atom_site_fract_x
_atom_site_fract_y
_atom_site_fract_z
Si Si1 0.133230 0.403985 0.165938
Si Si2 0.737639 0.926064 0.825879
Si Si3 0.864964 0.593496 0.164388
Si Si4 0.924910 0.196967 0.328979
Si Si5 0.799320 0.334554 0.325953
Si Si6 0.202177 0.666268 0.672818
O O1 0.203048 0.406606 0.163408
O O2 0.087369 0.338826 0.254396
O O3 0.148172 0.469885 0.246157
O O4 0.112172 0.400692 0.000000
O O5 0.666392 0.915140 0.784417
O O6 0.746504 0.871399 0.745442
O O7 0.791822 0.000000 0.795501
O O8 0.735052 0.915192 0.000000
O O9 0.851533 0.531756 0.257945
O O10 0.880946 0.585599 0.000000
O O11 0.911081 0.194154 0.500000
O O12 0.000000 0.217908 0.309396
O O13 0.807329 0.334441 0.500000
O O14 0.802830 0.401582 0.282502
O O15 0.727602 0.273476 0.291584
O O16 0.196352 0.665467 0.500000
#
# Coordination Sequence:
#
# PCOD9586363 Si02
#       6
#    12  12  12  12  12  12
#     4   9  17  29  45  65  89 120 158 196 234 276
#     4   9  18  33  53  76 100 125 153 186 223 263
#     4   8  15  27  42  62  88 116 149 191 233 270
#     4  10  20  33  51  76 102 125 150 183 224 268
#     4   9  16  26  40  60  88 121 159 202 245 288
#     4   9  16  25  39  59  85 119 157 197 241 286
#
# _framework density 15.972579
#
# number of rings (size 3 to 8) (size 9 to 14) (size 15 to 20)
#    0.000    3.000    0.000    2.333    0.000    7.667 
#    0.000    0.000    0.000    3.333    0.000    4.667 
#    0.000    0.000    0.000    0.000    0.000    0.000 
#
# Total GULP energy -400909.381718 kJ/mol
# GULP energy per Si atom -5568.185857 kJ/mol
# Density = 1.593622 g / cm^3
# Si number density = 15.972579 Si / 1000 Ang^3
#
#
#
# Elastic Constant Matrix: (Units=GPa)
#
#
# Indices 1 2 3 4 5 6 
#
# 1 88.4828 49.6144 50.0876 0.0000 0.0000 0.0000
# 2 49.6144 88.4828 50.0876 0.0000 0.0000 0.0000
# 3 50.0876 50.0876 60.6771 0.0000 0.0000 0.0000
# 4 0.0000 0.0000 0.0000 20.6760 0.0000 0.0000
# 5 0.0000 0.0000 0.0000 0.0000 20.6760 0.0000
# 6 0.0000 0.0000 0.0000 0.0000 0.0000 19.4342
#
#
#
# Elastic Compliance Matrix: (Units=1/GPa)
#
#
# Indices 1 2 3 4 5 6 
#
# 1 0.021888 -0.003839 -0.014899 0.000000 0.000000 0.000000
# 2 -0.003839 0.021888 -0.014899 0.000000 0.000000 0.000000
# 3 -0.014899 -0.014899 0.041078 0.000000 0.000000 0.000000
# 4 0.000000 0.000000 0.000000 0.048365 0.000000 0.000000
# 5 0.000000 0.000000 0.000000 0.000000 0.048365 0.000000
# 6 0.000000 0.000000 0.000000 0.000000 0.000000 0.051456
#
#
# Mechanical properties :
#
#
# Convention : Reuss Voigt Hill
#
# Bulk Modulus (GPa) = 56.88235 59.69134 58.28685
# Shear Modulus (GPa) = 16.33047 18.01412 17.17229
#
# Velocity S-wave (km/s) = 3.20098 3.36194 3.28245
# Velocity P-wave (km/s) = 7.02506 7.24724 7.13701
#
# Compressibility (1/GPa) = 0.01758014
#
# Stress axis : x y z
#
# Youngs Moduli (GPa) = 45.68633 45.68633 24.34377
#
# Poissons Ratio (x) = 0.17541 0.36270
# Poissons Ratio (y) = 0.17541 0.36270
# Poissons Ratio (z) = 0.68068 0.68068
#
# Static dielectric constant tensor:
#      x y z
#    x 1.529030 0.000000 0.000000 
#    y 0.000000 1.529030 0.000000 
#    z 0.000000 0.000000 1.541340 
# 
# From -- ./inp_files/1250.got.cif
#   From: 2010.05.17/outbox.cif.g08.bks.cpg/sg189_1_cif.got.tgz:1250.got - 2010.05.20 12:14:34.
