data_PCOD9586462
_publ_section_title
;
Structure prediction by ZEFSAII (Michael W. Deem and Ramdas Pophale) SiO2 
 PCOD9586462
Probable space group: P -6 2 M
;
_chemical_formula_sum "Si O2"
_cell_formula_units_Z 69
_cell_length_a 14.302147
_cell_length_b 14.302147
_cell_length_c 19.403005
_cell_angle_alpha 90.000000
_cell_angle_beta 90.000000
_cell_angle_gamma 120.000000
_cell_volume 3437.178624
_symmetry_space_group_name_H-M "P -6 2 M"
_symmetry_group_IT_number 189
_symmetry_cell_setting 'hexagonal'
loop_
_space_group_symop_operation_xyz
x,y,z
-x+y,-x,-z
-y,x-y,z
x,y,-z
-x+y,-x,z
-y,x-y,-z
x-y,-y,-z
-x,-x+y,-z
y,x,-z
y,x,z
x-y,-y,z
-x,-x+y,z
loop_
_atom_site_type_symbol
_atom_site_label
_atom_site_fract_x
_atom_site_fract_y
_atom_site_fract_z
Si Si1 0.525331 0.288201 0.000000
Si Si2 0.242995 0.432635 0.148347
Si Si3 0.123544 0.532133 0.372706
Si Si4 0.170106 0.767687 0.392448
Si Si5 0.248342 0.248342 0.500000
Si Si6 0.122920 0.538664 0.216090
Si Si7 0.128366 0.870552 0.742208
O O1 0.589604 0.219798 0.000000
O O2 0.451450 0.263431 0.932744
O O3 0.195748 0.509652 0.169760
O O4 0.356757 0.481135 0.186904
O O5 0.164509 0.317856 0.183592
O O6 0.126797 0.639989 0.397957
O O7 0.183688 0.479199 0.411010
O O8 0.165135 0.558062 0.294098
O O9 0.000000 0.440890 0.370503
O O10 0.162491 0.811685 0.316618
O O11 0.095212 0.792606 0.440573
O O12 0.000000 0.441695 0.216121
O O13 0.000000 0.822796 0.735881
O O14 0.195892 0.000000 0.733383
#
# Coordination Sequence:
#
# PCOD9586462 Si02
#       7
#     6  12  12  12   3  12  12
#     4  10  20  38  58 100 148 196 216 256 342 444
#     4  12  21  38  64  98 144 183 221 280 344 414
#     4  11  21  39  68 103 132 171 223 275 344 415
#     4  12  24  44  71 100 141 180 221 283 350 430
#     4  12  28  48  66 100 144 186 232 264 346 432
#     4  11  20  33  61  98 126 168 224 269 325 408
#     4  12  25  46  73  98 128 180 248 311 357 408
#
# _framework density 20.074603
#
# number of rings (size 3 to 8) (size 9 to 14) (size 15 to 20)
#    0.174    0.348    6.957    2.435    0.000    0.696 
#    0.000    5.652    0.000    0.000    0.000    1.217 
#    0.000    0.000    0.000    0.000    0.000    0.000 
#
# Total GULP energy -384436.393034 kJ/mol
# GULP energy per Si atom -5571.541928 kJ/mol
# Density = 2.002891 g / cm^3
# Si number density = 20.074603 Si / 1000 Ang^3
#
#
#
# Elastic Constant Matrix: (Units=GPa)
#
#
# Indices 1 2 3 4 5 6 
#
# 1 61.4701 44.5067 8.0419 0.0000 0.0000 0.0000
# 2 44.5067 61.4701 8.0419 0.0000 0.0000 0.0000
# 3 8.0419 8.0419 81.2061 0.0000 0.0000 0.0000
# 4 0.0000 0.0000 0.0000 11.4836 0.0000 0.0000
# 5 0.0000 0.0000 0.0000 0.0000 11.4836 0.0000
# 6 0.0000 0.0000 0.0000 0.0000 0.0000 8.4817
#
#
#
# Elastic Compliance Matrix: (Units=1/GPa)
#
#
# Indices 1 2 3 4 5 6 
#
# 1 0.034265 -0.024685 -0.000949 0.000000 0.000000 0.000000
# 2 -0.024685 0.034265 -0.000949 0.000000 0.000000 0.000000
# 3 -0.000949 -0.000949 0.012502 0.000000 0.000000 0.000000
# 4 0.000000 0.000000 0.000000 0.087080 0.000000 0.000000
# 5 0.000000 0.000000 0.000000 0.000000 0.087080 0.000000
# 6 0.000000 0.000000 0.000000 0.000000 0.000000 0.117901
#
#
# Mechanical properties :
#
#
# Convention : Reuss Voigt Hill
#
# Bulk Modulus (GPa) = 35.88421 36.14748 36.01584
# Shear Modulus (GPa) = 11.47976 15.86019 13.66998
#
# Velocity S-wave (km/s) = 2.39394 2.81385 2.61235
# Velocity P-wave (km/s) = 5.05525 5.34815 5.20376
#
# Compressibility (1/GPa) = 0.02786741
#
# Stress axis : x y z
#
# Youngs Moduli (GPa) = 29.18409 29.18409 79.98565
#
# Poissons Ratio (x) = 0.72042 0.07588
# Poissons Ratio (y) = 0.72042 0.07588
# Poissons Ratio (z) = 0.02769 0.02769
#
# Static dielectric constant tensor:
#      x y z
#    x 1.839900 0.000000 0.000000 
#    y 0.000000 1.839900 0.000000 
#    z 0.000000 0.000000 1.728150 
# 
# From -- ./inp_files/3144.got.cif
#   From: 2010.05.17/outbox.cif.g08.bks.cpg/sg189_2_cif.got.tgz:3144.got - 2010.05.20 12:14:34.
