data_PCOD9586028
_publ_section_title
;
Structure prediction by ZEFSAII (Michael W. Deem and Ramdas Pophale) SiO2 
 PCOD9586028
Probable space group: P -6 C 2
;
_chemical_formula_sum "Si O2"
_cell_formula_units_Z 44
_cell_length_a 13.148724
_cell_length_b 13.148724
_cell_length_c 15.878164
_cell_angle_alpha 90.000000
_cell_angle_beta 90.000000
_cell_angle_gamma 120.000000
_cell_volume 2377.377421
_symmetry_space_group_name_H-M "P -6 C 2"
_symmetry_group_IT_number 188
_symmetry_cell_setting 'hexagonal'
loop_
_space_group_symop_operation_xyz
x,y,z
-x+y,-x,1/2-z
-y,x-y,z
x,y,1/2-z
-x+y,-x,z
-y,x-y,1/2-z
-y,-x,-z
-x+y,y,-z
x,x-y,-z
-x+y,y,1/2+z
x,x-y,1/2+z
-y,-x,1/2+z
loop_
_atom_site_type_symbol
_atom_site_label
_atom_site_fract_x
_atom_site_fract_y
_atom_site_fract_z
Si Si1 0.873738 0.747476 0.000000
Si Si2 0.386796 0.474048 0.080339
Si Si3 0.414262 0.137011 0.845263
Si Si4 0.142304 0.857696 0.000000
Si Si5 0.666668 0.333335 0.397968
Si Si6 0.333334 0.666668 0.650658
O O1 0.802475 0.671338 0.919410
O O2 0.806762 0.816370 0.029700
O O3 0.430514 0.406442 0.140688
O O4 0.251970 0.376464 0.057371
O O5 0.382610 0.584458 0.117724
O O6 0.473857 0.526144 0.000000
O O7 0.373260 0.135930 0.750000
O O8 0.536675 0.252759 0.863187
O O9 0.666668 0.333334 0.500000
O O10 0.333334 0.666668 0.750000
#
# Coordination Sequence:
#
# PCOD9586028 Si02
#       6
#     6  12  12   6   4   4
#     4  10  23  42  66  92 125 166 216 254 324 372
#     4  11  21  39  61  88 127 171 212 261 324 386
#     4  11  24  40  61  92 126 163 214 265 316 385
#     4  10  21  40  68  88 121 170 212 264 308 388
#     4  12  22  41  61  88 125 166 202 257 319 373
#     4  12  22  35  58  93 133 167 208 264 319 389
#
# _framework density 18.50779
#
# number of rings (size 3 to 8) (size 9 to 14) (size 15 to 20)
#    0.000    1.091    4.091    2.727    3.818    0.000 
#    0.000    6.818    0.000    0.000    0.000    0.000 
#    0.000    0.000    0.000    0.000    0.000    0.000 
#
# Total GULP energy -245261.735303 kJ/mol
# GULP energy per Si atom -5574.130348 kJ/mol
# Density = 1.846567 g / cm^3
# Si number density = 18.507790 Si / 1000 Ang^3
#
#
#
# Elastic Constant Matrix: (Units=GPa)
#
#
# Indices 1 2 3 4 5 6 
#
# 1 75.5127 11.4746 25.8368 -0.0017 0.0005 0.0006
# 2 11.4746 75.5162 25.8380 0.0002 -0.0006 -0.0002
# 3 25.8368 25.8380 121.4508 -0.0002 0.0008 0.0004
# 4 -0.0017 0.0002 -0.0002 -2.3254 0.0005 0.0006
# 5 0.0005 -0.0006 0.0008 0.0005 -2.3302 0.0003
# 6 0.0006 -0.0002 0.0004 0.0006 0.0003 32.0180
#
#
#
# Elastic Compliance Matrix: (Units=1/GPa)
#
#
# Indices 1 2 3 4 5 6 
#
# 1 0.014387 -0.001228 -0.002799 -0.000010 0.000002 0.000000
# 2 -0.001228 0.014387 -0.002799 0.000002 -0.000005 0.000000
# 3 -0.002799 -0.002799 0.009425 0.000001 0.000003 0.000000
# 4 -0.000010 0.000002 0.000001 -0.430032 -0.000096 0.000007
# 5 0.000002 -0.000005 0.000003 -0.000096 -0.429149 0.000005
# 6 0.000000 0.000000 0.000000 0.000007 0.000005 0.031232
#
#
# Mechanical properties :
#
#
# Convention : Reuss Voigt Hill
#
# Bulk Modulus (GPa) = 40.74204 44.30872 42.52538
# Shear Modulus (GPa) = -6.51115 19.42784 6.45835
#
# Velocity S-wave (km/s) = -1.87768 3.24344 1.87005
# Velocity P-wave (km/s) = 4.16657 6.16596 5.26210
#
# Compressibility (1/GPa) = 0.02454467
#
# Stress axis : x y z
#
# Youngs Moduli (GPa) = 69.50598 69.50890 106.10245
#
# Poissons Ratio (x) = 0.08538 0.29702
# Poissons Ratio (y) = 0.08538 0.29702
# Poissons Ratio (z) = 0.19457 0.19458
#
# Static dielectric constant tensor:
#      x y z
#    x 1.644390 -0.000010 0.000000 
#    y -0.000010 1.644390 0.000000 
#    z 0.000000 0.000000 1.640140 
# 
# From -- ./inp_files/2960.got.cif
#   From: 2010.05.17/outbox.cif.g08.bks.cpg/sg188_2_cif.got.tgz:2960.got - 2010.05.20 12:11:46.
