data_PCOD9586157
_publ_section_title
;
Structure prediction by ZEFSAII (Michael W. Deem and Ramdas Pophale) SiO2 
 PCOD9586157
Probable space group: P -6 2 M
;
_chemical_formula_sum "Si O2"
_cell_formula_units_Z 60
_cell_length_a 18.209957
_cell_length_b 18.209957
_cell_length_c 11.931121
_cell_angle_alpha 90.000000
_cell_angle_beta 90.000000
_cell_angle_gamma 120.000000
_cell_volume 3426.334209
_symmetry_space_group_name_H-M "P -6 2 M"
_symmetry_group_IT_number 189
_symmetry_cell_setting 'hexagonal'
loop_
_space_group_symop_operation_xyz
x,y,z
-x+y,-x,-z
-y,x-y,z
x,y,-z
-x+y,-x,z
-y,x-y,-z
x-y,-y,-z
-x,-x+y,-z
y,x,-z
y,x,z
x-y,-y,z
-x,-x+y,z
loop_
_atom_site_type_symbol
_atom_site_label
_atom_site_fract_x
_atom_site_fract_y
_atom_site_fract_z
Si Si1 0.522239 0.800568 0.000000
Si Si2 0.201868 0.100820 0.867312
Si Si3 0.377878 0.479936 0.629141
Si Si4 0.856426 0.386182 0.000000
Si Si5 0.625813 0.528967 0.751729
Si Si6 0.177395 0.792809 0.766586
O O1 0.577776 0.823250 0.888770
O O2 0.463271 0.698746 0.000000
O O3 0.468081 0.846784 0.000000
O O4 0.142061 0.142061 0.853032
O O5 0.284329 0.149167 0.788538
O O6 0.150625 0.000000 0.845666
O O7 0.227374 0.111771 0.000000
O O8 0.369037 0.498302 0.500000
O O9 0.429758 0.429758 0.633143
O O10 0.436489 0.567238 0.696708
O O11 0.287325 0.419229 0.684928
O O12 0.900873 0.383263 0.886125
O O13 0.588026 0.588026 0.714641
O O14 0.725169 0.573536 0.727700
#
# Coordination Sequence:
#
# PCOD9586157 Si02
#       6
#     6  12  12   6  12  12
#     4  10  19  30  50  79 111 144 185 231 272 323
#     4  10  20  34  54  83 120 156 189 230 286 351
#     4  10  22  40  58  78 108 146 190 237 279 324
#     4  10  18  32  50  77 110 146 180 219 276 333
#     4  10  21  35  55  80 111 146 182 226 277 331
#     4  11  20  36  56  84 112 147 190 235 277 334
#
# _framework density 17.511427000000001
#
# number of rings (size 3 to 8) (size 9 to 14) (size 15 to 20)
#    0.000    1.800    3.000    1.900    0.000    1.600 
#    1.200    0.000    0.000    1.800    0.000    0.000 
#    0.000    1.600    0.000    0.000    0.000    0.000 
#
# Total GULP energy -334696.291832 kJ/mol
# GULP energy per Si atom -5578.271531 kJ/mol
# Density = 1.747157 g / cm^3
# Si number density = 17.511427 Si / 1000 Ang^3
#
#
#
# Elastic Constant Matrix: (Units=GPa)
#
#
# Indices 1 2 3 4 5 6 
#
# 1 88.5018 42.0487 29.3719 0.0000 0.0000 0.0000
# 2 42.0487 88.5018 29.3719 0.0000 0.0000 0.0000
# 3 29.3719 29.3719 82.4114 0.0000 0.0000 0.0000
# 4 0.0000 0.0000 0.0000 5.3437 0.0000 0.0000
# 5 0.0000 0.0000 0.0000 0.0000 5.3437 0.0000
# 6 0.0000 0.0000 0.0000 0.0000 0.0000 23.2265
#
#
#
# Elastic Compliance Matrix: (Units=1/GPa)
#
#
# Indices 1 2 3 4 5 6 
#
# 1 0.015325 -0.006202 -0.003251 0.000000 0.000000 0.000000
# 2 -0.006202 0.015325 -0.003251 0.000000 0.000000 0.000000
# 3 -0.003251 -0.003251 0.014452 0.000000 0.000000 0.000000
# 4 0.000000 0.000000 0.000000 0.187137 0.000000 0.000000
# 5 0.000000 0.000000 0.000000 0.000000 0.187137 0.000000
# 6 0.000000 0.000000 0.000000 0.000000 0.000000 0.043054
#
#
# Mechanical properties :
#
#
# Convention : Reuss Voigt Hill
#
# Bulk Modulus (GPa) = 50.78226 51.22225 51.00225
# Shear Modulus (GPa) = 10.11319 17.35760 13.73540
#
# Velocity S-wave (km/s) = 2.40577 3.15177 2.80369
# Velocity P-wave (km/s) = 6.06460 6.52374 6.29836
#
# Compressibility (1/GPa) = 0.01969192
#
# Stress axis : x y z
#
# Youngs Moduli (GPa) = 65.25275 65.25275 69.19487
#
# Poissons Ratio (x) = 0.40470 0.22499
# Poissons Ratio (y) = 0.40470 0.22499
# Poissons Ratio (z) = 0.21217 0.21217
#
# Static dielectric constant tensor:
#      x y z
#    x 1.591020 0.000000 0.000000 
#    y 0.000000 1.591020 0.000000 
#    z 0.000000 0.000000 1.585720 
# 
# From -- ./inp_files/1935.got.cif
#   From: 2010.05.17/outbox.cif.g08.bks.cpg/sg189_1_cif.got.tgz:1935.got - 2010.05.20 12:14:34.
