data_PCOD9586676
_publ_section_title
;
Structure prediction by ZEFSAII (Michael W. Deem and Ramdas Pophale) SiO2 
 PCOD9586676
Probable space group: P -6 2 C
;
_chemical_formula_sum "Si O2"
_cell_formula_units_Z 60
_cell_length_a 23.175669
_cell_length_b 23.175669
_cell_length_c 7.862141
_cell_angle_alpha 90.000000
_cell_angle_beta 90.000000
_cell_angle_gamma 120.000000
_cell_volume 3657.093121
_symmetry_space_group_name_H-M "P -6 2 C"
_symmetry_group_IT_number 190
_symmetry_cell_setting 'hexagonal'
loop_
_space_group_symop_operation_xyz
x,y,z
-x+y,-x,1/2-z
-y,x-y,z
x,y,1/2-z
-x+y,-x,z
-y,x-y,1/2-z
x-y,-y,-z
-x,-x+y,-z
y,x,-z
y,x,1/2+z
x-y,-y,1/2+z
-x,-x+y,1/2+z
loop_
_atom_site_type_symbol
_atom_site_label
_atom_site_fract_x
_atom_site_fract_y
_atom_site_fract_z
Si Si1 0.150449 0.075104 0.951057
Si Si2 0.505807 0.428153 0.050407
Si Si3 0.248377 0.736724 0.250000
Si Si4 0.593448 0.422298 0.750000
Si Si5 0.430420 0.271031 0.441291
Si Si6 0.076532 0.795873 0.454581
O O1 0.156043 0.079868 0.750000
O O2 0.221787 0.132384 0.018575
O O3 0.096060 0.096060 0.000000
O O4 0.126315 0.000000 0.000000
O O5 0.526126 0.440290 0.250000
O O6 0.453070 0.349000 0.033006
O O7 0.470844 0.470844 0.000000
O O8 0.563628 0.439936 0.916550
O O9 0.222238 0.657502 0.250000
O O10 0.327170 0.784692 0.250000
O O11 0.215180 0.748131 0.416745
O O12 0.450129 0.264457 0.250000
O O13 0.351589 0.227460 0.464400
O O14 0.084017 0.797008 0.250000
O O15 0.000000 0.744465 0.500000
#
# Coordination Sequence:
#
# PCOD9586676 Si02
#       6
#    12  12   6   6  12  12
#     4  10  20  32  47  67  94 129 171 218 265 311
#     4  10  19  32  54  86 113 140 178 222 278 324
#     4  10  21  38  56  82 114 146 188 208 270 316
#     4  10  21  36  58  82 114 152 180 230 260 326
#     4  10  20  33  54  81 112 143 174 219 269 324
#     4  10  19  31  49  76 105 135 171 216 270 326
#
# _framework density 16.406473999999999
#
# number of rings (size 3 to 8) (size 9 to 14) (size 15 to 20)
#    0.000    2.000    2.000    2.200    0.000    4.800 
#    0.000    0.000    0.000    3.600    0.000    0.000 
#    0.000    0.000    0.000    0.000    0.000    0.000 
#
# Total GULP energy -334654.821038 kJ/mol
# GULP energy per Si atom -5577.580351 kJ/mol
# Density = 1.636913 g / cm^3
# Si number density = 16.406474 Si / 1000 Ang^3
#
#
#
# Elastic Constant Matrix: (Units=GPa)
#
#
# Indices 1 2 3 4 5 6 
#
# 1 107.3150 68.1466 53.8019 0.0000 0.0000 0.0000
# 2 68.1466 107.3150 53.8019 0.0000 0.0000 0.0000
# 3 53.8019 53.8019 116.4699 0.0000 0.0000 0.0000
# 4 0.0000 0.0000 0.0000 19.9364 0.0000 0.0000
# 5 0.0000 0.0000 0.0000 0.0000 19.9364 0.0000
# 6 0.0000 0.0000 0.0000 0.0000 0.0000 19.5842
#
#
#
# Elastic Compliance Matrix: (Units=1/GPa)
#
#
# Indices 1 2 3 4 5 6 
#
# 1 0.016741 -0.008789 -0.003673 0.000000 0.000000 0.000000
# 2 -0.008789 0.016741 -0.003673 0.000000 0.000000 0.000000
# 3 -0.003673 -0.003673 0.011980 0.000000 0.000000 0.000000
# 4 0.000000 0.000000 0.000000 0.050159 0.000000 0.000000
# 5 0.000000 0.000000 0.000000 0.000000 0.050159 0.000000
# 6 0.000000 0.000000 0.000000 0.000000 0.000000 0.051062
#
#
# Mechanical properties :
#
#
# Convention : Reuss Voigt Hill
#
# Bulk Modulus (GPa) = 75.81353 75.84451 75.82902
# Shear Modulus (GPa) = 21.41222 22.24805 21.83014
#
# Velocity S-wave (km/s) = 3.61655 3.68646 3.65167
# Velocity P-wave (km/s) = 7.98430 8.02800 8.00618
#
# Compressibility (1/GPa) = 0.01319026
#
# Stress axis : x y z
#
# Youngs Moduli (GPa) = 59.73231 59.73231 83.47524
#
# Poissons Ratio (x) = 0.52501 0.30663
# Poissons Ratio (y) = 0.52501 0.30663
# Poissons Ratio (z) = 0.21942 0.21942
#
# Static dielectric constant tensor:
#      x y z
#    x 1.506630 0.000000 0.000000 
#    y 0.000000 1.506630 0.000000 
#    z 0.000000 0.000000 1.500590 
# 
# From -- ./inp_files/946.got.cif
#   From: 2010.05.17/outbox.cif.g08.bks.cpg/sg190_1_cif.got.tgz:946.got - 2010.05.20 12:16:56.
