data_PCOD9586871
_publ_section_title
;
Structure prediction by ZEFSAII (Michael W. Deem and Ramdas Pophale) SiO2 
 PCOD9586871
Probable space group: P -6 2 C
;
_chemical_formula_sum "Si O2"
_cell_formula_units_Z 44
_cell_length_a 13.478574
_cell_length_b 13.478574
_cell_length_c 14.287592
_cell_angle_alpha 90.000000
_cell_angle_beta 90.000000
_cell_angle_gamma 120.000000
_cell_volume 2247.902997
_symmetry_space_group_name_H-M "P -6 2 C"
_symmetry_group_IT_number 190
_symmetry_cell_setting 'hexagonal'
loop_
_space_group_symop_operation_xyz
x,y,z
-x+y,-x,1/2-z
-y,x-y,z
x,y,1/2-z
-x+y,-x,z
-y,x-y,1/2-z
x-y,-y,-z
-x,-x+y,-z
y,x,-z
y,x,1/2+z
x-y,-y,1/2+z
-x,-x+y,1/2+z
loop_
_atom_site_type_symbol
_atom_site_label
_atom_site_fract_x
_atom_site_fract_y
_atom_site_fract_z
Si Si1 0.221340 0.222659 0.112072
Si Si2 0.449548 0.932478 0.750000
Si Si3 0.390635 0.471016 0.092591
Si Si4 0.333335 0.666668 0.366866
Si Si5 0.000000 0.000000 0.886327
Si Si6 0.179847 0.787344 0.750000
O O1 0.278584 0.357478 0.133374
O O2 0.311625 0.192892 0.160181
O O3 0.095073 0.127570 0.143887
O O4 0.216190 0.216190 0.000000
O O5 0.314420 0.865368 0.750000
O O6 0.506582 0.851591 0.750000
O O7 0.502726 0.013380 0.838913
O O8 0.360774 0.571414 0.092022
O O9 0.428258 0.428258 0.000000
O O10 0.333334 0.666668 0.250000
O O11 0.000000 0.000000 0.000000
#
# Coordination Sequence:
#
# PCOD9586871 Si02
#       6
#    12   6  12   4   4   6
#     4   9  20  38  58  90 126 161 205 265 319 386
#     4  10  21  40  60  92 127 172 220 278 330 402
#     4  10  23  41  64  96 134 170 229 286 329 402
#     4  12  24  45  72  94 131 199 231 276 360 430
#     4   9  18  37  62  85 124 167 202 253 329 388
#     4  10  21  36  62  86 123 164 206 266 332 380
#
# _framework density 19.573798
#
# number of rings (size 3 to 8) (size 9 to 14) (size 15 to 20)
#    0.000    2.182    1.364    0.273    0.000    9.818 
#    0.000    2.727    0.000    0.000    0.000    0.000 
#    0.000    0.000    0.000    0.000    0.000    0.000 
#
# Total GULP energy -245114.556522 kJ/mol
# GULP energy per Si atom -5570.785376 kJ/mol
# Density = 1.952925 g / cm^3
# Si number density = 19.573798 Si / 1000 Ang^3
#
#
#
# Elastic Constant Matrix: (Units=GPa)
#
#
# Indices 1 2 3 4 5 6 
#
# 1 151.6390 96.2590 35.7873 0.0001 0.0000 -0.0001
# 2 96.2590 151.6395 35.7877 0.0001 0.0000 0.0000
# 3 35.7873 35.7877 105.9572 0.0000 0.0000 0.0002
# 4 0.0001 0.0001 0.0000 21.9054 0.0000 0.0000
# 5 0.0000 0.0000 0.0000 0.0000 21.9053 0.0000
# 6 -0.0001 0.0000 0.0002 0.0000 0.0000 27.6901
#
#
#
# Elastic Compliance Matrix: (Units=1/GPa)
#
#
# Indices 1 2 3 4 5 6 
#
# 1 0.011263 -0.006794 -0.001510 0.000000 0.000000 0.000000
# 2 -0.006794 0.011263 -0.001510 0.000000 0.000000 0.000000
# 3 -0.001510 -0.001510 0.010458 0.000000 0.000000 0.000000
# 4 0.000000 0.000000 0.000000 0.045651 0.000000 0.000000
# 5 0.000000 0.000000 0.000000 0.000000 0.045651 0.000000
# 6 0.000000 0.000000 0.000000 0.000000 0.000000 0.036114
#
#
# Mechanical properties :
#
#
# Convention : Reuss Voigt Hill
#
# Bulk Modulus (GPa) = 74.85921 82.76709 78.81315
# Shear Modulus (GPa) = 27.10332 30.39358 28.74845
#
# Velocity S-wave (km/s) = 3.72516 3.94479 3.83655
# Velocity P-wave (km/s) = 7.53857 7.94512 7.74451
#
# Compressibility (1/GPa) = 0.01335841
#
# Stress axis : x y z
#
# Youngs Moduli (GPa) = 88.78306 88.78323 95.62438
#
# Poissons Ratio (x) = 0.60316 0.14436
# Poissons Ratio (y) = 0.60316 0.14437
# Poissons Ratio (z) = 0.13403 0.13404
#
# Static dielectric constant tensor:
#      x y z
#    x 1.684340 0.000000 0.000000 
#    y 0.000000 1.684330 0.000000 
#    z 0.000000 0.000000 1.748900 
# 
# From -- ./inp_files/3536.got.cif
#   From: 2010.05.17/outbox.cif.g08.bks.cpg/sg190_2_cif.got.tgz:3536.got - 2010.05.20 12:16:56.
