data_PCOD9586179
_publ_section_title
;
Structure prediction by ZEFSAII (Michael W. Deem and Ramdas Pophale) SiO2 
 PCOD9586179
Probable space group: P -6 2 M
;
_chemical_formula_sum "Si O2"
_cell_formula_units_Z 60
_cell_length_a 21.377953
_cell_length_b 21.377953
_cell_length_c 9.550323
_cell_angle_alpha 90.000000
_cell_angle_beta 90.000000
_cell_angle_gamma 120.000000
_cell_volume 3779.905372
_symmetry_space_group_name_H-M "P -6 2 M"
_symmetry_group_IT_number 189
_symmetry_cell_setting 'hexagonal'
loop_
_space_group_symop_operation_xyz
x,y,z
-x+y,-x,-z
-y,x-y,z
x,y,-z
-x+y,-x,z
-y,x-y,-z
x-y,-y,-z
-x,-x+y,-z
y,x,-z
y,x,z
x-y,-y,z
-x,-x+y,z
loop_
_atom_site_type_symbol
_atom_site_label
_atom_site_fract_x
_atom_site_fract_y
_atom_site_fract_z
Si Si1 0.084899 0.416288 0.833283
Si Si2 0.916459 0.833102 0.170478
Si Si3 0.826989 0.162262 0.168800
Si Si4 0.591510 0.913743 0.667128
Si Si5 0.549609 0.461825 0.661570
O O1 0.128469 0.375669 0.797292
O O2 0.111361 0.491582 0.754449
O O3 0.000000 0.364500 0.799903
O O4 0.090189 0.428485 0.000000
O O5 0.873277 0.873277 0.217138
O O6 0.876480 0.749048 0.210723
O O7 0.000000 0.875742 0.216030
O O8 0.916667 0.834546 0.000000
O O9 0.750707 0.125668 0.246028
O O10 0.817307 0.154952 0.000000
O O11 0.592172 0.901601 0.500000
O O12 0.509062 0.890055 0.707287
O O13 0.639464 0.000000 0.689990
O O14 0.569247 0.459939 0.500000
O O15 0.505021 0.505021 0.664782
#
# Coordination Sequence:
#
# PCOD9586179 Si02
#       5
#    12  12  12  12  12
#     4   9  17  29  45  67  95 123 149 182 227 274
#     4   9  16  26  41  62  90 126 167 207 243 279
#     4  10  19  29  44  69  98 124 153 193 238 281
#     4   9  18  32  48  67  92 120 150 187 231 276
#     4   8  15  29  48  67  86 110 142 179 217 262
#
# _framework density 15.873412999999999
#
# number of rings (size 3 to 8) (size 9 to 14) (size 15 to 20)
#    0.000    3.000    0.000    2.600    0.000    6.000 
#    0.000    2.000    0.000    2.600    0.000    0.000 
#    0.000    1.600    0.000    0.000    0.000    0.000 
#
# Total GULP energy -334184.150865 kJ/mol
# GULP energy per Si atom -5569.735848 kJ/mol
# Density = 1.583728 g / cm^3
# Si number density = 15.873413 Si / 1000 Ang^3
#
#
#
# Elastic Constant Matrix: (Units=GPa)
#
#
# Indices 1 2 3 4 5 6 
#
# 1 136.0643 92.0186 49.3107 0.0000 0.0000 0.0000
# 2 92.0186 136.0643 49.3107 0.0000 0.0000 0.0000
# 3 49.3107 49.3107 24.0029 0.0000 0.0000 0.0000
# 4 0.0000 0.0000 0.0000 20.3277 0.0000 0.0000
# 5 0.0000 0.0000 0.0000 0.0000 20.3277 0.0000
# 6 0.0000 0.0000 0.0000 0.0000 0.0000 22.0229
#
#
#
# Elastic Compliance Matrix: (Units=1/GPa)
#
#
# Indices 1 2 3 4 5 6 
#
# 1 0.030976 0.008272 -0.080631 0.000000 0.000000 0.000000
# 2 0.008272 0.030976 -0.080631 0.000000 0.000000 0.000000
# 3 -0.080631 -0.080631 0.372951 0.000000 0.000000 0.000000
# 4 0.000000 0.000000 0.000000 0.049194 0.000000 0.000000
# 5 0.000000 0.000000 0.000000 0.000000 0.049194 0.000000
# 6 0.000000 0.000000 0.000000 0.000000 0.000000 0.045407
#
#
# Mechanical properties :
#
#
# Convention : Reuss Voigt Hill
#
# Bulk Modulus (GPa) = 7.75643 75.26794 41.51219
# Shear Modulus (GPa) = 5.38996 19.56843 12.47920
#
# Velocity S-wave (km/s) = 1.84471 3.51491 2.80691
# Velocity P-wave (km/s) = 3.07153 7.99958 6.05919
#
# Compressibility (1/GPa) = 0.12892531
#
# Stress axis : x y z
#
# Youngs Moduli (GPa) = 32.28303 32.28303 2.68132
#
# Poissons Ratio (x) = -0.26706 0.21620
# Poissons Ratio (y) = -0.26706 0.21620
# Poissons Ratio (z) = 2.60300 2.60300
#
# Static dielectric constant tensor:
#      x y z
#    x 1.520710 0.000000 0.000000 
#    y 0.000000 1.520710 0.000000 
#    z 0.000000 0.000000 1.522850 
# 
# From -- ./inp_files/1891.got.cif
#   From: 2010.05.17/outbox.cif.g08.bks.cpg/sg189_1_cif.got.tgz:1891.got - 2010.05.20 12:14:34.
