data_PCOD9586600
_publ_section_title
;
Structure prediction by ZEFSAII (Michael W. Deem and Ramdas Pophale) SiO2 
 PCOD9586600
Probable space group: P -6 2 M
;
_chemical_formula_sum "Si O2"
_cell_formula_units_Z 48
_cell_length_a 18.000000
_cell_length_b 18.000000
_cell_length_c 9.000000
_cell_angle_alpha 90.000000
_cell_angle_beta 90.000000
_cell_angle_gamma 120.000000
_cell_volume 2525.330077
_symmetry_space_group_name_H-M "P -6 2 M"
_symmetry_group_IT_number 189
_symmetry_cell_setting 'hexagonal'
loop_
_space_group_symop_operation_xyz
x,y,z
-x+y,-x,-z
-y,x-y,z
x,y,-z
-x+y,-x,z
-y,x-y,-z
x-y,-y,-z
-x,-x+y,-z
y,x,-z
y,x,z
x-y,-y,z
-x,-x+y,z
loop_
_atom_site_type_symbol
_atom_site_label
_atom_site_fract_x
_atom_site_fract_y
_atom_site_fract_z
Si Si1 0.316747 0.900729 0.671007
Si Si2 0.592923 0.840061 0.828379
Si Si3 0.532617 0.433631 0.168926
Si Si4 0.000000 0.907745 0.319867
Si Si5 0.256822 0.256822 0.675863
O O1 0.290804 0.878054 0.500000
O O2 0.243834 0.837713 0.780495
O O3 0.399491 0.893125 0.711113
O O4 0.345282 0.000000 0.693258
O O5 0.502577 0.836505 0.807320
O O6 0.660127 0.916318 0.728623
O O7 0.615817 0.861230 0.000000
O O8 0.455016 0.455016 0.174587
O O9 0.567879 0.457213 0.000000
O O10 0.000000 0.903765 0.500000
O O11 0.000000 0.826288 0.258855
O O12 0.919226 0.919226 0.278149
O O13 0.252106 0.252106 0.500000
#
# Coordination Sequence:
#
# PCOD9586600 Si02
#       5
#    12  12  12   6   6
#     4  10  22  39  59  86 117 149 190 241 293 344
#     4  11  22  38  59  86 118 155 196 237 287 352
#     4   9  18  37  61  82 109 149 190 231 281 341
#     4   7  14  31  51  73 106 149 190 231 285 336
#     4  11  21  33  57  89 118 153 198 247 291 338
#
# _framework density 19.007415999999999
#
# number of rings (size 3 to 8) (size 9 to 14) (size 15 to 20)
#    0.250    2.000    1.250    1.875    0.000    4.500 
#    1.500    2.500    0.000    2.250    0.000    0.000 
#    0.000    0.000    0.000    0.000    0.000    0.000 
#
# Total GULP energy -267333.395430 kJ/mol
# GULP energy per Si atom -5569.445738 kJ/mol
# Density = 1.896415 g / cm^3
# Si number density = 19.007416 Si / 1000 Ang^3
#
#
#
# Elastic Constant Matrix: (Units=GPa)
#
#
# Indices 1 2 3 4 5 6 
#
# 1 28.7430 18.9045 24.5538 0.0000 0.0000 0.0000
# 2 18.9045 28.7430 24.5538 0.0000 0.0000 0.0000
# 3 24.5538 24.5538 21.9984 0.0000 0.0000 0.0000
# 4 0.0000 0.0000 0.0000 23.5625 0.0000 0.0000
# 5 0.0000 0.0000 0.0000 0.0000 23.5625 0.0000
# 6 0.0000 0.0000 0.0000 0.0000 0.0000 4.9192
#
#
#
# Elastic Compliance Matrix: (Units=1/GPa)
#
#
# Indices 1 2 3 4 5 6 
#
# 1 -0.018967 -0.120608 0.155789 0.000000 0.000000 0.000000
# 2 -0.120608 -0.018967 0.155789 0.000000 0.000000 0.000000
# 3 0.155789 0.155789 -0.302313 0.000000 0.000000 0.000000
# 4 0.000000 0.000000 0.000000 0.042440 0.000000 0.000000
# 5 0.000000 0.000000 0.000000 0.000000 0.042440 0.000000
# 6 0.000000 0.000000 0.000000 0.000000 0.000000 0.203283
#
#
# Mechanical properties :
#
#
# Convention : Reuss Voigt Hill
#
# Bulk Modulus (GPa) = 23.98598 23.94542 23.96570
# Shear Modulus (GPa) = -11.90128 11.17366 -0.36381
#
# Velocity S-wave (km/s) = -2.50499 2.42721 -0.43797
# Velocity P-wave (km/s) = 2.06882 4.52553 3.51855
#
# Compressibility (1/GPa) = 0.04169101
#
# Stress axis : x y z
#
# Youngs Moduli (GPa) = -52.72365 -52.72365 -3.30783
#
# Poissons Ratio (x) = -6.35891 0.51532
# Poissons Ratio (y) = -6.35891 0.51532
# Poissons Ratio (z) = 8.21374 8.21374
#
# Static dielectric constant tensor:
#      x y z
#    x 1.693610 0.000000 0.000000 
#    y 0.000000 1.693610 0.000000 
#    z 0.000000 0.000000 1.625930 
# 
# From -- ./inp_files/645.got.cif
#   From: 2010.05.17/outbox.ucp.g08.bks.cvg/sg189_1_cif.got.tgz:645.got - 2010.06.11 15:22:13.
