data_PCOD9586451
_publ_section_title
;
Structure prediction by ZEFSAII (Michael W. Deem and Ramdas Pophale) SiO2 
 PCOD9586451
Probable space group: P -6 2 M
;
_chemical_formula_sum "Si O2"
_cell_formula_units_Z 76
_cell_length_a 18.090848
_cell_length_b 18.090848
_cell_length_c 14.413255
_cell_angle_alpha 90.000000
_cell_angle_beta 90.000000
_cell_angle_gamma 120.000000
_cell_volume 4085.173926
_symmetry_space_group_name_H-M "P -6 2 M"
_symmetry_group_IT_number 189
_symmetry_cell_setting 'hexagonal'
loop_
_space_group_symop_operation_xyz
x,y,z
-x+y,-x,-z
-y,x-y,z
x,y,-z
-x+y,-x,z
-y,x-y,-z
x-y,-y,-z
-x,-x+y,-z
y,x,-z
y,x,z
x-y,-y,z
-x,-x+y,z
loop_
_atom_site_type_symbol
_atom_site_label
_atom_site_fract_x
_atom_site_fract_y
_atom_site_fract_z
Si Si1 0.200902 0.903073 0.721466
Si Si2 0.172410 0.627209 0.280891
Si Si3 0.361330 0.906768 0.815713
Si Si4 0.368469 0.266835 0.391113
Si Si5 0.333333 0.666667 0.390601
Si Si6 0.734847 0.231234 0.898355
Si Si7 0.100775 0.803643 0.894788
O O1 0.286191 0.900292 0.749574
O O2 0.149729 0.829818 0.646440
O O3 0.144090 0.874321 0.815335
O O4 0.230957 0.000000 0.694544
O O5 0.105094 0.534125 0.244265
O O6 0.133155 0.679152 0.330647
O O7 0.237976 0.621294 0.350577
O O8 0.224502 0.678823 0.189634
O O9 0.313531 0.828087 0.885498
O O10 0.406545 0.000000 0.860553
O O11 0.389766 0.270012 0.500000
O O12 0.309201 0.309201 0.379473
O O13 0.333334 0.666668 0.500000
O O14 0.749380 0.149680 0.891375
O O15 0.699359 0.230892 0.000000
O O16 0.000000 0.744295 0.878571
O O17 0.113371 0.838499 0.000000
#
# Coordination Sequence:
#
# PCOD9586451 Si02
#       7
#    12  12  12  12   4  12  12
#     4  10  20  37  59  85 116 153 194 236 290 354
#     4  12  21  40  58  87 117 155 194 249 299 345
#     4  10  21  37  58  83 117 155 196 239 286 342
#     4  11  23  39  62  89 115 148 192 245 300 351
#     4  12  24  39  61  83 112 159 204 240 298 359
#     4  10  21  36  56  84 118 155 195 235 290 353
#     4   9  17  32  57  87 116 148 188 234 284 341
#
# _framework density 18.603859
#
# number of rings (size 3 to 8) (size 9 to 14) (size 15 to 20)
#    0.000    1.579    4.737    1.421    0.000    2.211 
#    0.000    3.947    0.000    4.421    0.000    0.000 
#    0.000    0.000    0.000    0.000    0.000    0.000 
#
# Total GULP energy -424259.693932 kJ/mol
# GULP energy per Si atom -5582.364394 kJ/mol
# Density = 1.856152 g / cm^3
# Si number density = 18.603859 Si / 1000 Ang^3
#
#
#
# Elastic Constant Matrix: (Units=GPa)
#
#
# Indices 1 2 3 4 5 6 
#
# 1 66.3497 33.3158 33.5495 0.0000 0.0000 0.0000
# 2 33.3158 66.3496 33.5494 0.0000 0.0000 0.0000
# 3 33.5495 33.5494 115.4039 0.0001 0.0000 0.0000
# 4 0.0000 0.0000 0.0001 18.0223 0.0000 0.0000
# 5 0.0000 0.0000 0.0000 0.0000 18.0220 0.0000
# 6 0.0000 0.0000 0.0000 0.0000 0.0000 16.5169
#
#
#
# Elastic Compliance Matrix: (Units=1/GPa)
#
#
# Indices 1 2 3 4 5 6 
#
# 1 0.021374 -0.008898 -0.003627 0.000000 0.000000 0.000000
# 2 -0.008898 0.021374 -0.003627 0.000000 0.000000 0.000000
# 3 -0.003627 -0.003627 0.010774 0.000000 0.000000 0.000000
# 4 0.000000 0.000000 0.000000 0.055487 0.000000 0.000000
# 5 0.000000 0.000000 0.000000 0.000000 0.055488 0.000000
# 6 0.000000 0.000000 0.000000 0.000000 0.000000 0.060544
#
#
# Mechanical properties :
#
#
# Convention : Reuss Voigt Hill
#
# Bulk Modulus (GPa) = 47.13094 49.88138 48.50616
# Shear Modulus (GPa) = 18.90962 20.35814 19.63388
#
# Velocity S-wave (km/s) = 3.19162 3.31160 3.25216
# Velocity P-wave (km/s) = 6.24266 6.44150 6.34286
#
# Compressibility (1/GPa) = 0.02121748
#
# Stress axis : x y z
#
# Youngs Moduli (GPa) = 46.78670 46.78670 92.81699
#
# Poissons Ratio (x) = 0.41633 0.33662
# Poissons Ratio (y) = 0.41633 0.33662
# Poissons Ratio (z) = 0.16968 0.16968
#
# Static dielectric constant tensor:
#      x y z
#    x 1.640700 0.000000 0.000000 
#    y 0.000000 1.640700 0.000000 
#    z 0.000000 0.000000 1.638710 
# 
# From -- ./inp_files/2738.got.cif
#   From: 2010.05.17/outbox.cif.g08.bks.cpg/sg189_2_cif.got.tgz:2738.got - 2010.05.20 12:14:34.
