data_PCOD9586651
_publ_section_title
;
Structure prediction by ZEFSAII (Michael W. Deem and Ramdas Pophale) SiO2 
 PCOD9586651
Probable space group: P -6 2 C
;
_chemical_formula_sum "Si O2"
_cell_formula_units_Z 76
_cell_length_a 19.939153
_cell_length_b 19.939153
_cell_length_c 13.465338
_cell_angle_alpha 90.000000
_cell_angle_beta 90.000000
_cell_angle_gamma 120.000000
_cell_volume 4636.190821
_symmetry_space_group_name_H-M "P -6 2 C"
_symmetry_group_IT_number 190
_symmetry_cell_setting 'hexagonal'
loop_
_space_group_symop_operation_xyz
x,y,z
-x+y,-x,1/2-z
-y,x-y,z
x,y,1/2-z
-x+y,-x,z
-y,x-y,1/2-z
x-y,-y,-z
-x,-x+y,-z
y,x,-z
y,x,1/2+z
x-y,-y,1/2+z
-x,-x+y,1/2+z
loop_
_atom_site_type_symbol
_atom_site_label
_atom_site_fract_x
_atom_site_fract_y
_atom_site_fract_z
Si Si1 0.136184 0.908411 0.983646
Si Si2 0.611147 0.777210 0.632217
Si Si3 0.541963 0.884125 0.936665
Si Si4 0.830072 0.371580 0.130267
Si Si5 0.333335 0.666667 0.630934
Si Si6 0.668849 0.042915 0.863248
Si Si7 0.015386 0.811568 0.135028
O O1 0.189309 0.877047 0.935186
O O2 0.058157 0.868620 0.915790
O O3 0.097765 0.871760 0.089020
O O4 0.181420 0.000000 0.000000
O O5 0.630825 0.785045 0.750000
O O6 0.568090 0.826641 0.611446
O O7 0.548671 0.687201 0.610371
O O8 0.452799 0.860474 0.924688
O O9 0.587587 0.965597 0.879236
O O10 0.573700 0.899222 0.050055
O O11 0.836162 0.385666 0.250000
O O12 0.739353 0.325527 0.101322
O O13 0.333334 0.666668 0.750000
O O14 0.678831 0.071893 0.750000
O O15 0.730027 0.012973 0.880623
O O16 0.012266 0.824391 0.250000
#
# Coordination Sequence:
#
# PCOD9586651 Si02
#       7
#    12  12  12  12   4  12  12
#     4  11  22  38  56  80 116 147 181 227 284 347
#     4  11  20  33  55  81 111 150 191 228 277 338
#     4  11  18  32  55  80 108 140 179 232 287 325
#     4  10  19  29  48  80 113 143 181 227 279 330
#     4   9  15  24  42  75 106 131 169 225 273 309
#     4  10  19  33  58  84 104 131 181 239 283 326
#     4  10  20  38  62  85 104 137 190 235 281 342
#
# _framework density 16.392769000000001
#
# number of rings (size 3 to 8) (size 9 to 14) (size 15 to 20)
#    0.000    1.579    4.737    2.842    0.000    1.263 
#    6.632    0.000    0.000    1.895    0.000    0.000 
#    0.000    0.000    0.000    0.000    0.000    0.000 
#
# Total GULP energy -423177.192474 kJ/mol
# GULP energy per Si atom -5568.120954 kJ/mol
# Density = 1.635546 g / cm^3
# Si number density = 16.392769 Si / 1000 Ang^3
#
#
#
# Elastic Constant Matrix: (Units=GPa)
#
#
# Indices 1 2 3 4 5 6 
#
# 1 95.4226 51.3079 31.3807 0.0000 0.0000 0.0000
# 2 51.3079 95.4219 31.3807 0.0000 0.0000 -0.0001
# 3 31.3807 31.3807 83.1974 0.0000 0.0000 0.0000
# 4 0.0000 0.0000 0.0000 13.0417 -0.0001 0.0000
# 5 0.0000 0.0000 0.0000 -0.0001 13.0419 0.0000
# 6 0.0000 -0.0001 0.0000 0.0000 0.0000 22.0571
#
#
#
# Elastic Compliance Matrix: (Units=1/GPa)
#
#
# Indices 1 2 3 4 5 6 
#
# 1 0.015397 -0.007271 -0.003065 0.000000 0.000000 0.000000
# 2 -0.007271 0.015397 -0.003065 0.000000 0.000000 0.000000
# 3 -0.003065 -0.003065 0.014332 0.000000 0.000000 0.000000
# 4 0.000000 0.000000 0.000000 0.076677 0.000000 0.000000
# 5 0.000000 0.000000 0.000000 0.000000 0.076676 0.000000
# 6 0.000000 0.000000 0.000000 0.000000 0.000000 0.045337
#
#
# Mechanical properties :
#
#
# Convention : Reuss Voigt Hill
#
# Bulk Modulus (GPa) = 54.57332 55.79784 55.18558
# Shear Modulus (GPa) = 18.06837 20.29298 19.18067
#
# Velocity S-wave (km/s) = 3.32357 3.52223 3.42434
# Velocity P-wave (km/s) = 6.93480 7.11712 7.02655
#
# Compressibility (1/GPa) = 0.01832397
#
# Stress axis : x y z
#
# Youngs Moduli (GPa) = 64.94666 64.94608 69.77482
#
# Poissons Ratio (x) = 0.47223 0.21387
# Poissons Ratio (y) = 0.47223 0.21387
# Poissons Ratio (z) = 0.19907 0.19907
#
# Static dielectric constant tensor:
#      x y z
#    x 1.584690 0.000000 0.000000 
#    y 0.000000 1.584690 0.000000 
#    z 0.000000 0.000000 1.569270 
# 
# From -- ./inp_files/3088.got.cif
#   From: 2010.05.17/outbox.cif.g08.bks.cpg/sg190_2_cif.got.tgz:3088.got - 2010.05.20 12:16:56.
