data_PCOD9586711
_publ_section_title
;
Structure prediction by ZEFSAII (Michael W. Deem and Ramdas Pophale) SiO2 
 PCOD9586711
Probable space group: P -6 2 C
;
_chemical_formula_sum "Si O2"
_cell_formula_units_Z 76
_cell_length_a 17.138437
_cell_length_b 17.138437
_cell_length_c 13.769201
_cell_angle_alpha 90.000000
_cell_angle_beta 90.000000
_cell_angle_gamma 120.000000
_cell_volume 3502.529455
_symmetry_space_group_name_H-M "P -6 2 C"
_symmetry_group_IT_number 190
_symmetry_cell_setting 'hexagonal'
loop_
_space_group_symop_operation_xyz
x,y,z
-x+y,-x,1/2-z
-y,x-y,z
x,y,1/2-z
-x+y,-x,z
-y,x-y,1/2-z
x-y,-y,-z
-x,-x+y,-z
y,x,-z
y,x,1/2+z
x-y,-y,1/2+z
-x,-x+y,1/2+z
loop_
_atom_site_type_symbol
_atom_site_label
_atom_site_fract_x
_atom_site_fract_y
_atom_site_fract_z
Si Si1 0.164578 0.489671 0.867520
Si Si2 0.666668 0.333334 0.635216
Si Si3 0.854701 0.509983 0.059079
Si Si4 0.713714 0.776921 0.868164
Si Si5 0.146262 0.867284 0.134933
Si Si6 0.753156 0.045969 0.367427
Si Si7 0.269875 0.477544 0.136535
O O1 0.170334 0.495103 0.750000
O O2 0.259881 0.501853 0.905522
O O3 0.143204 0.565410 0.905631
O O4 0.088702 0.387669 0.895593
O O5 0.666667 0.333334 0.750000
O O6 0.565302 0.263592 0.609104
O O7 0.928587 0.607281 0.099762
O O8 0.858462 0.518819 0.942362
O O9 0.715482 0.775533 0.750000
O O10 0.796382 0.764865 0.901897
O O11 0.722185 0.871594 0.896517
O O12 0.132341 0.874340 0.250000
O O13 0.208587 0.822460 0.124125
O O14 0.048817 0.790357 0.098414
O O15 0.749508 0.043365 0.250000
O O16 0.296584 0.481905 0.250000
#
# Coordination Sequence:
#
# PCOD9586711 Si02
#       7
#    12   4  12  12  12  12  12
#     4  10  19  33  56  90 128 162 199 245 300 369
#     4   9  18  36  54  75 106 146 193 243 294 351
#     4  11  20  33  57  88 123 162 204 247 306 366
#     4   8  16  33  56  85 122 160 199 247 303 364
#     4   9  18  36  58  81 117 165 205 250 309 359
#     4   9  18  34  56  85 123 157 198 255 309 368
#     4  10  21  37  58  81 115 159 206 257 302 356
#
# _framework density 21.698605000000001
#
# number of rings (size 3 to 8) (size 9 to 14) (size 15 to 20)
#    0.000    2.526    0.000    3.632    0.000    0.632 
#    3.789    3.158    3.474    0.000    0.000    0.000 
#    0.000    1.263    0.000    0.000    0.000    0.000 
#
# Total GULP energy -424195.196903 kJ/mol
# GULP energy per Si atom -5581.515749 kJ/mol
# Density = 2.164922 g / cm^3
# Si number density = 21.698605 Si / 1000 Ang^3
#
#
#
# Elastic Constant Matrix: (Units=GPa)
#
#
# Indices 1 2 3 4 5 6 
#
# 1 146.4306 100.2196 32.8518 0.0000 -0.0001 -0.0003
# 2 100.2196 146.4297 32.8512 0.0001 -0.0001 -0.0003
# 3 32.8518 32.8512 118.2401 0.0000 -0.0001 -0.0002
# 4 0.0000 0.0001 0.0000 20.3796 -0.0001 0.0000
# 5 -0.0001 -0.0001 -0.0001 -0.0001 20.3797 0.0001
# 6 -0.0003 -0.0003 -0.0002 0.0000 0.0001 23.1049
#
#
#
# Elastic Compliance Matrix: (Units=1/GPa)
#
#
# Indices 1 2 3 4 5 6 
#
# 1 0.013009 -0.008631 -0.001217 0.000000 0.000000 0.000000
# 2 -0.008631 0.013009 -0.001216 0.000000 0.000000 0.000000
# 3 -0.001217 -0.001216 0.009133 0.000000 0.000000 0.000000
# 4 0.000000 0.000000 0.000000 0.049069 0.000000 0.000000
# 5 0.000000 0.000000 0.000000 0.000000 0.049068 0.000000
# 6 0.000000 0.000000 0.000000 0.000000 0.000000 0.043281
#
#
# Mechanical properties :
#
#
# Convention : Reuss Voigt Hill
#
# Bulk Modulus (GPa) = 76.78022 82.54949 79.66486
# Shear Modulus (GPa) = 24.62588 29.11805 26.87196
#
# Velocity S-wave (km/s) = 3.37249 3.66721 3.52294
# Velocity P-wave (km/s) = 7.11524 7.48716 7.30357
#
# Compressibility (1/GPa) = 0.01302419
#
# Stress axis : x y z
#
# Youngs Moduli (GPa) = 76.86872 76.86841 109.48901
#
# Poissons Ratio (x) = 0.66344 0.13320
# Poissons Ratio (y) = 0.66344 0.13319
# Poissons Ratio (z) = 0.09351 0.09351
#
# Static dielectric constant tensor:
#      x y z
#    x 1.784630 0.000000 0.000000 
#    y 0.000000 1.784630 0.000000 
#    z 0.000000 0.000000 1.870010 
# 
# From -- ./inp_files/3047.got.cif
#   From: 2010.05.17/outbox.cif.g08.bks.cpg/sg190_2_cif.got.tgz:3047.got - 2010.05.20 12:16:56.
