data_PCOD9586368
_publ_section_title
;
Structure prediction by ZEFSAII (Michael W. Deem and Ramdas Pophale) SiO2 
 PCOD9586368
Probable space group: P -6 2 M
;
_chemical_formula_sum "Si O2"
_cell_formula_units_Z 60
_cell_length_a 17.157086
_cell_length_b 17.157086
_cell_length_c 14.145686
_cell_angle_alpha 90.000000
_cell_angle_beta 90.000000
_cell_angle_gamma 120.000000
_cell_volume 3606.132680
_symmetry_space_group_name_H-M "P -6 2 M"
_symmetry_group_IT_number 189
_symmetry_cell_setting 'hexagonal'
loop_
_space_group_symop_operation_xyz
x,y,z
-x+y,-x,-z
-y,x-y,z
x,y,-z
-x+y,-x,z
-y,x-y,-z
x-y,-y,-z
-x,-x+y,-z
y,x,-z
y,x,z
x-y,-y,z
-x,-x+y,z
loop_
_atom_site_type_symbol
_atom_site_label
_atom_site_fract_x
_atom_site_fract_y
_atom_site_fract_z
Si Si1 0.896053 0.517409 0.109437
Si Si2 0.500597 0.105188 0.272131
Si Si3 0.107830 0.892312 0.889951
Si Si4 0.792066 0.186234 0.767687
Si Si5 0.108212 0.648874 0.392904
O O1 0.888006 0.436163 0.171791
O O2 0.830848 0.549389 0.151905
O O3 0.000000 0.597727 0.121751
O O4 0.880733 0.495321 0.000000
O O5 0.443925 0.154647 0.264189
O O6 0.582779 0.140125 0.346890
O O7 0.434451 0.000000 0.292547
O O8 0.150520 0.853739 0.814715
O O9 0.000000 0.842472 0.877209
O O10 0.153365 0.000000 0.879851
O O11 0.123748 0.874788 0.000000
O O12 0.731770 0.133344 0.676985
O O13 0.140753 0.675225 0.500000
O O14 0.000000 0.590158 0.394152
#
# Coordination Sequence:
#
# PCOD9586368 Si02
#       5
#    12  12  12  12  12
#     4   9  18  33  50  67  95 136 173 206 249 300
#     4   9  19  34  50  70 100 132 164 205 253 304
#     4  10  20  33  51  78 113 149 182 218 261 309
#     4  11  19  31  53  79 102 128 174 221 257 305
#     4   9  19  37  57  73  95 130 167 207 260 315
#
# _framework density 16.638321999999999
#
# number of rings (size 3 to 8) (size 9 to 14) (size 15 to 20)
#    0.000    2.400    0.000    4.400    0.000    4.800 
#    9.600    2.000    0.000    1.800    0.000    0.000 
#    0.000    1.600    0.000    0.000    0.000    0.000 
#
# Total GULP energy -334373.079260 kJ/mol
# GULP energy per Si atom -5572.884654 kJ/mol
# Density = 1.660045 g / cm^3
# Si number density = 16.638322 Si / 1000 Ang^3
#
#
#
# Elastic Constant Matrix: (Units=GPa)
#
#
# Indices 1 2 3 4 5 6 
#
# 1 74.8795 41.8283 44.0449 0.0000 0.0000 0.0000
# 2 41.8283 74.8795 44.0449 0.0000 0.0000 0.0000
# 3 44.0449 44.0449 127.5824 0.0000 0.0000 0.0000
# 4 0.0000 0.0000 0.0000 9.1711 0.0000 0.0000
# 5 0.0000 0.0000 0.0000 0.0000 9.1711 0.0000
# 6 0.0000 0.0000 0.0000 0.0000 0.0000 16.5256
#
#
#
# Elastic Compliance Matrix: (Units=1/GPa)
#
#
# Indices 1 2 3 4 5 6 
#
# 1 0.020922 -0.009334 -0.004000 0.000000 0.000000 0.000000
# 2 -0.009334 0.020922 -0.004000 0.000000 0.000000 0.000000
# 3 -0.004000 -0.004000 0.010600 0.000000 0.000000 0.000000
# 4 0.000000 0.000000 0.000000 0.109038 0.000000 0.000000
# 5 0.000000 0.000000 0.000000 0.000000 0.109038 0.000000
# 6 0.000000 0.000000 0.000000 0.000000 0.000000 0.060512
#
#
# Mechanical properties :
#
#
# Convention : Reuss Voigt Hill
#
# Bulk Modulus (GPa) = 56.26137 59.68641 57.97389
# Shear Modulus (GPa) = 13.45432 16.80178 15.12805
#
# Velocity S-wave (km/s) = 2.84674 3.18122 3.01861
# Velocity P-wave (km/s) = 6.68528 7.03166 6.86066
#
# Compressibility (1/GPa) = 0.01777419
#
# Stress axis : x y z
#
# Youngs Moduli (GPa) = 47.79659 47.79659 94.33781
#
# Poissons Ratio (x) = 0.44614 0.37739
# Poissons Ratio (y) = 0.44614 0.37739
# Poissons Ratio (z) = 0.19121 0.19121
#
# Static dielectric constant tensor:
#      x y z
#    x 1.559350 0.000000 0.000000 
#    y 0.000000 1.559350 0.000000 
#    z 0.000000 0.000000 1.562960 
# 
# From -- ./inp_files/2529.got.cif
#   From: 2010.05.17/outbox.cif.g08.bks.cpg/sg189_2_cif.got.tgz:2529.got - 2010.05.20 12:14:34.
