data_PCOD9586681
_publ_section_title
;
Structure prediction by ZEFSAII (Michael W. Deem and Ramdas Pophale) SiO2 
 PCOD9586681
Probable space group: P -6 2 C
;
_chemical_formula_sum "Si O2"
_cell_formula_units_Z 52
_cell_length_a 12.858783
_cell_length_b 12.858783
_cell_length_c 22.278884
_cell_angle_alpha 90.000000
_cell_angle_beta 90.000000
_cell_angle_gamma 120.000000
_cell_volume 3190.243252
_symmetry_space_group_name_H-M "P -6 2 C"
_symmetry_group_IT_number 190
_symmetry_cell_setting 'hexagonal'
loop_
_space_group_symop_operation_xyz
x,y,z
-x+y,-x,1/2-z
-y,x-y,z
x,y,1/2-z
-x+y,-x,z
-y,x-y,1/2-z
x-y,-y,-z
-x,-x+y,-z
y,x,-z
y,x,1/2+z
x-y,-y,1/2+z
-x,-x+y,1/2+z
loop_
_atom_site_type_symbol
_atom_site_label
_atom_site_fract_x
_atom_site_fract_y
_atom_site_fract_z
Si Si1 0.000000 0.000000 0.319726
Si Si2 0.255824 0.002362 0.935046
Si Si3 0.797442 0.001291 0.102950
Si Si4 0.420651 0.335783 0.817892
Si Si5 0.582886 0.668684 0.318556
O O1 0.880546 0.994262 0.344571
O O2 0.000000 0.000000 0.250000
O O3 0.126389 0.883135 0.928843
O O4 0.235315 0.117304 0.934730
O O5 0.330249 0.016316 0.874352
O O6 0.309699 0.000000 0.000000
O O7 0.679378 0.990366 0.132730
O O8 0.376442 0.334978 0.750000
O O9 0.544400 0.459035 0.825538
O O10 0.441102 0.221646 0.821952
O O11 0.629572 0.672162 0.250000
#
# Coordination Sequence:
#
# PCOD9586681 Si02
#       5
#     4  12  12  12  12
#     4   9  15  24  40  71 103 120 145 191 232 267
#     4  10  19  32  47  69  97 125 154 190 231 278
#     4   9  18  28  46  68  93 127 157 184 228 280
#     4   9  16  29  48  70  92 118 152 193 235 275
#     4   9  18  31  49  70  92 118 153 194 235 274
#
# _framework density 16.299696999999998
#
# number of rings (size 3 to 8) (size 9 to 14) (size 15 to 20)
#    0.000    2.769    0.000    2.308    0.000    8.308 
#    0.000    4.615    0.000    0.923    0.000    0.000 
#    0.000    0.000    0.000    0.000    0.000    0.000 
#
# Total GULP energy -289517.671863 kJ/mol
# GULP energy per Si atom -5567.647536 kJ/mol
# Density = 1.626260 g / cm^3
# Si number density = 16.299697 Si / 1000 Ang^3
#
#
#
# Elastic Constant Matrix: (Units=GPa)
#
#
# Indices 1 2 3 4 5 6 
#
# 1 50.3100 9.1558 38.7584 0.0000 0.0000 0.0000
# 2 9.1558 50.3100 38.7584 0.0000 0.0000 0.0000
# 3 38.7584 38.7584 140.6363 0.0000 0.0000 0.0000
# 4 0.0000 0.0000 0.0000 -8.7125 0.0000 0.0000
# 5 0.0000 0.0000 0.0000 0.0000 -8.7125 0.0000
# 6 0.0000 0.0000 0.0000 0.0000 0.0000 20.5771
#
#
#
# Elastic Compliance Matrix: (Units=1/GPa)
#
#
# Indices 1 2 3 4 5 6 
#
# 1 0.025272 0.000973 -0.007233 0.000000 0.000000 0.000000
# 2 0.000973 0.025272 -0.007233 0.000000 0.000000 0.000000
# 3 -0.007233 -0.007233 0.011097 0.000000 0.000000 0.000000
# 4 0.000000 0.000000 0.000000 -0.114777 0.000000 0.000000
# 5 0.000000 0.000000 0.000000 0.000000 -0.114777 0.000000
# 6 0.000000 0.000000 0.000000 0.000000 0.000000 0.048598
#
#
# Mechanical properties :
#
#
# Convention : Reuss Voigt Hill
#
# Bulk Modulus (GPa) = 28.85560 46.06683 37.46121
# Shear Modulus (GPa) = -61.89757 10.93598 -25.48079
#
# Velocity S-wave (km/s) = -6.16904 2.59305 -3.95811
# Velocity P-wave (km/s) = 5.74467 6.10647 1.46419
#
# Compressibility (1/GPa) = 0.03465532
#
# Stress axis : x y z
#
# Youngs Moduli (GPa) = 39.56970 39.56970 90.11267
#
# Poissons Ratio (x) = -0.03850 0.65178
# Poissons Ratio (y) = -0.03850 0.65178
# Poissons Ratio (z) = 0.28620 0.28620
#
# Static dielectric constant tensor:
#      x y z
#    x 1.531380 0.000000 0.000000 
#    y 0.000000 1.531380 0.000000 
#    z 0.000000 0.000000 1.579680 
# 
# From -- ./inp_files/4211.got.cif
#   From: 2010.05.17/outbox.cif.g08.bks.cpg/sg190_3_cif.got.tgz:4211.got - 2010.05.20 12:16:56.
