data_PCOD9586003
_publ_section_title
;
Structure prediction by ZEFSAII (Michael W. Deem and Ramdas Pophale) SiO2 
 PCOD9586003
Probable space group: P -6 C 2
;
_chemical_formula_sum "Si O2"
_cell_formula_units_Z 76
_cell_length_a 17.664676
_cell_length_b 17.664676
_cell_length_c 14.504096
_cell_angle_alpha 90.000000
_cell_angle_beta 90.000000
_cell_angle_gamma 120.000000
_cell_volume 3919.517877
_symmetry_space_group_name_H-M "P -6 C 2"
_symmetry_group_IT_number 188
_symmetry_cell_setting 'hexagonal'
loop_
_space_group_symop_operation_xyz
x,y,z
-x+y,-x,1/2-z
-y,x-y,z
x,y,1/2-z
-x+y,-x,z
-y,x-y,1/2-z
-y,-x,-z
-x+y,y,-z
x,x-y,-z
-x+y,y,1/2+z
x,x-y,1/2+z
-y,-x,1/2+z
loop_
_atom_site_type_symbol
_atom_site_label
_atom_site_fract_x
_atom_site_fract_y
_atom_site_fract_z
Si Si1 0.767625 0.535254 0.137994
Si Si2 0.438397 0.387934 0.638054
Si Si3 0.669430 0.919378 0.860131
Si Si4 0.174088 0.998958 0.500000
Si Si5 0.949532 0.561596 0.361946
Si Si6 0.666667 0.333334 0.638298
Si Si7 0.080616 0.330569 0.860131
O O1 0.769836 0.539676 0.250000
O O2 0.704883 0.572133 0.108013
O O3 0.867243 0.572123 0.108012
O O4 0.716775 0.433566 0.110450
O O5 0.443304 0.388867 0.750000
O O6 0.351129 0.390070 0.613248
O O7 0.528978 0.471018 0.606644
O O8 0.681926 0.928743 0.750000
O O9 0.761110 0.975156 0.912295
O O10 0.636724 0.818359 0.883369
O O11 0.070725 0.929276 0.500000
O O12 0.214049 0.975160 0.587704
O O13 0.192863 0.096432 0.500000
O O14 0.945557 0.556689 0.250000
O O15 0.038934 0.648866 0.386752
O O16 0.666667 0.333334 0.750000
O O17 0.071251 0.318072 0.750000
#
# Coordination Sequence:
#
# PCOD9586003 Si02
#       7
#    12  12  12  12  12   4  12
#     4   9  14  20  34  61  97 133 164 199 239 283
#     4   9  16  26  44  71 101 134 170 206 247 299
#     4   9  19  35  53  74 101 132 169 215 260 303
#     4  10  21  36  53  74 100 132 170 212 259 310
#     4   9  16  26  44  71 101 134 170 206 247 299
#     4   9  12  18  30  54  99 133 161 202 235 272
#     4   9  19  35  53  74 101 132 169 215 260 303
#
# _framework density 19.390139999999999
#
# number of rings (size 3 to 8) (size 9 to 14) (size 15 to 20)
#    0.000    2.842    1.579    0.158    2.211    0.632 
#    0.000    0.789    0.000    2.526    0.000    4.421 
#    0.000    0.000    0.000    0.000    0.000    0.000 
#
# Total GULP energy -423783.184064 kJ/mol
# GULP energy per Si atom -5576.094527 kJ/mol
# Density = 1.934601 g / cm^3
# Si number density = 19.390140 Si / 1000 Ang^3
#
#
#
# Elastic Constant Matrix: (Units=GPa)
#
#
# Indices 1 2 3 4 5 6 
#
# 1 119.6850 71.2305 8.2612 0.0000 0.0000 0.0001
# 2 71.2305 119.6853 8.2611 0.0000 0.0000 0.0000
# 3 8.2612 8.2611 79.2185 0.0000 0.0000 0.0000
# 4 0.0000 0.0000 0.0000 1.7566 0.0000 0.0000
# 5 0.0000 0.0000 0.0000 0.0000 1.7565 0.0000
# 6 0.0001 0.0000 0.0000 0.0000 0.0000 24.2272
#
#
#
# Elastic Compliance Matrix: (Units=1/GPa)
#
#
# Indices 1 2 3 4 5 6 
#
# 1 0.012962 -0.007676 -0.000551 0.000000 0.000000 0.000000
# 2 -0.007676 0.012962 -0.000551 0.000000 0.000000 0.000000
# 3 -0.000551 -0.000551 0.012738 0.000000 0.000000 0.000000
# 4 0.000000 0.000000 0.000000 0.569292 -0.000004 0.000000
# 5 0.000000 0.000000 0.000000 -0.000004 0.569326 0.000000
# 6 0.000000 0.000000 0.000000 0.000000 0.000000 0.041276
#
#
# Mechanical properties :
#
#
# Convention : Reuss Voigt Hill
#
# Bulk Modulus (GPa) = 47.38278 54.89937 51.14107
# Shear Modulus (GPa) = 4.02205 20.93711 12.47958
#
# Velocity S-wave (km/s) = 1.44180 3.28957 2.53969
# Velocity P-wave (km/s) = 5.22123 6.54239 5.91879
#
# Compressibility (1/GPa) = 0.02110471
#
# Stress axis : x y z
#
# Youngs Moduli (GPa) = 77.15009 77.15031 78.50356
#
# Poissons Ratio (x) = 0.59221 0.04327
# Poissons Ratio (y) = 0.59221 0.04327
# Poissons Ratio (z) = 0.04253 0.04252
#
# Static dielectric constant tensor:
#      x y z
#    x 1.669460 0.000000 0.000000 
#    y 0.000000 1.669460 0.000000 
#    z 0.000000 0.000000 1.722230 
# 
# From -- ./inp_files/2482.got.cif
#   From: 2010.05.17/outbox.cif.g08.bks.cpg/sg188_2_cif.got.tgz:2482.got - 2010.05.20 12:11:46.
