data_PCOD9586539
_publ_section_title
;
Structure prediction by ZEFSAII (Michael W. Deem and Ramdas Pophale) SiO2 
 PCOD9586539
Probable space group: P -6 2 M
;
_chemical_formula_sum "Si O2"
_cell_formula_units_Z 76
_cell_length_a 17.952401
_cell_length_b 17.952401
_cell_length_c 14.402728
_cell_angle_alpha 90.000000
_cell_angle_beta 90.000000
_cell_angle_gamma 120.000000
_cell_volume 4019.948336
_symmetry_space_group_name_H-M "P -6 2 M"
_symmetry_group_IT_number 189
_symmetry_cell_setting 'hexagonal'
loop_
_space_group_symop_operation_xyz
x,y,z
-x+y,-x,-z
-y,x-y,z
x,y,-z
-x+y,-x,z
-y,x-y,-z
x-y,-y,-z
-x,-x+y,-z
y,x,-z
y,x,z
x-y,-y,z
-x,-x+y,z
loop_
_atom_site_type_symbol
_atom_site_label
_atom_site_fract_x
_atom_site_fract_y
_atom_site_fract_z
Si Si1 0.104074 0.401589 0.394567
Si Si2 0.648285 0.098767 0.208920
Si Si3 0.333334 0.666667 0.888061
Si Si4 0.623242 0.478273 0.888853
Si Si5 0.575550 0.104456 0.602646
Si Si6 0.844295 0.218511 0.798777
Si Si7 0.902773 0.804792 0.890094
O O1 0.126469 0.390444 0.500000
O O2 0.128517 0.501082 0.383244
O O3 0.145612 0.376208 0.311828
O O4 0.000000 0.345443 0.386234
O O5 0.574054 0.100092 0.147352
O O6 0.638528 0.130755 0.310826
O O7 0.743904 0.161275 0.173447
O O8 0.625492 0.000000 0.214605
O O9 0.415452 0.660004 0.859809
O O10 0.333334 0.666668 0.000000
O O11 0.686375 0.569388 0.842305
O O12 0.625377 0.486854 0.000000
O O13 0.614105 0.134018 0.500000
O O14 0.524412 0.000000 0.602390
O O15 0.889325 0.167610 0.836676
O O16 0.880373 0.880373 0.878937
O O17 0.000000 0.836953 0.859690
O O18 0.896337 0.784471 0.000000
#
# Coordination Sequence:
#
# PCOD9586539 Si02
#       7
#    12  12   4  12  12  12  12
#     4   9  18  34  57  83 111 145 189 243 297 344
#     4  11  23  36  52  80 116 153 188 229 284 339
#     4   9  18  36  54  69  97 149 202 234 267 315
#     4  11  22  36  54  76 109 156 201 236 280 336
#     4   8  15  31  53  74 102 144 188 224 263 316
#     4  12  22  35  59  89 118 148 195 247 294 345
#     4  10  22  41  64  88 115 149 190 243 309 375
#
# _framework density 18.905716000000002
#
# number of rings (size 3 to 8) (size 9 to 14) (size 15 to 20)
#    0.000    1.895    3.158    2.526    0.000    2.842 
#    0.000    0.000    0.000    1.421    0.000    0.000 
#    0.000    1.263    0.000    0.000    0.000    0.000 
#
# Total GULP energy -424211.081317 kJ/mol
# GULP energy per Si atom -5581.724754 kJ/mol
# Density = 1.886269 g / cm^3
# Si number density = 18.905716 Si / 1000 Ang^3
#
#
#
# Elastic Constant Matrix: (Units=GPa)
#
#
# Indices 1 2 3 4 5 6 
#
# 1 50.9464 13.8892 14.6041 0.0000 0.0000 0.0000
# 2 13.8892 50.9463 14.6042 0.0000 0.0000 -0.0001
# 3 14.6041 14.6042 69.6411 0.0000 0.0000 0.0000
# 4 0.0000 0.0000 0.0000 23.7178 0.0000 0.0000
# 5 0.0000 0.0000 0.0000 0.0000 23.7178 0.0000
# 6 0.0000 -0.0001 0.0000 0.0000 0.0000 18.5284
#
#
#
# Elastic Compliance Matrix: (Units=1/GPa)
#
#
# Indices 1 2 3 4 5 6 
#
# 1 0.022009 -0.004976 -0.003572 0.000000 0.000000 0.000000
# 2 -0.004976 0.022009 -0.003572 0.000000 0.000000 0.000000
# 3 -0.003572 -0.003572 0.015857 0.000000 0.000000 0.000000
# 4 0.000000 0.000000 0.000000 0.042162 0.000000 0.000000
# 5 0.000000 0.000000 0.000000 0.000000 0.042162 0.000000
# 6 0.000000 0.000000 0.000000 0.000000 0.000000 0.053971
#
#
# Mechanical properties :
#
#
# Convention : Reuss Voigt Hill
#
# Bulk Modulus (GPa) = 28.06191 28.63650 28.34920
# Shear Modulus (GPa) = 21.34107 21.75522 21.54814
#
# Velocity S-wave (km/s) = 3.36343 3.39591 3.37971
# Velocity P-wave (km/s) = 5.47347 5.52776 5.50068
#
# Compressibility (1/GPa) = 0.03563550
#
# Stress axis : x y z
#
# Youngs Moduli (GPa) = 45.43592 45.43576 63.06192
#
# Poissons Ratio (x) = 0.22610 0.22525
# Poissons Ratio (y) = 0.22610 0.22525
# Poissons Ratio (z) = 0.16229 0.16229
#
# Static dielectric constant tensor:
#      x y z
#    x 1.653320 0.000000 0.000000 
#    y 0.000000 1.653320 0.000000 
#    z 0.000000 0.000000 1.655290 
# 
# From -- ./inp_files/2742.got.cif
#   From: 2010.05.17/outbox.cif.g08.bks.cpg/sg189_2_cif.got.tgz:2742.got - 2010.05.20 12:14:34.
