data_PCOD9586284
_publ_section_title
;
Structure prediction by ZEFSAII (Michael W. Deem and Ramdas Pophale) SiO2 
 PCOD9586284
Probable space group: P -6 2 M
;
_chemical_formula_sum "Si O2"
_cell_formula_units_Z 96
_cell_length_a 15.608381
_cell_length_b 15.608381
_cell_length_c 21.547292
_cell_angle_alpha 90.000000
_cell_angle_beta 90.000000
_cell_angle_gamma 120.000000
_cell_volume 4546.100622
_symmetry_space_group_name_H-M "P -6 2 M"
_symmetry_group_IT_number 189
_symmetry_cell_setting 'hexagonal'
loop_
_space_group_symop_operation_xyz
x,y,z
-x+y,-x,-z
-y,x-y,z
x,y,-z
-x+y,-x,z
-y,x-y,-z
x-y,-y,-z
-x,-x+y,-z
y,x,-z
y,x,z
x-y,-y,z
-x,-x+y,z
loop_
_atom_site_type_symbol
_atom_site_label
_atom_site_fract_x
_atom_site_fract_y
_atom_site_fract_z
Si Si1 0.424445 0.538891 0.435782
Si Si2 0.891033 0.781394 0.758804
Si Si3 0.110183 0.888827 0.907463
Si Si4 0.571341 0.769006 0.295034
Si Si5 0.114695 0.369586 0.569547
Si Si6 0.524742 0.414774 0.923821
Si Si7 0.120014 0.582277 0.298945
Si Si8 0.803881 0.254828 0.926964
O O1 0.370207 0.533251 0.500000
O O2 0.452276 0.452276 0.435618
O O3 0.528689 0.640390 0.436206
O O4 0.381779 0.539351 0.369824
O O5 0.859941 0.859941 0.736402
O O6 0.895438 0.786232 0.833100
O O7 0.807045 0.672578 0.741496
O O8 0.000000 0.810624 0.735147
O O9 0.191212 0.857836 0.922370
O O10 0.000000 0.812070 0.930084
O O11 0.147906 0.000000 0.929535
O O12 0.610912 0.788846 0.367575
O O13 0.494372 0.652354 0.285156
O O14 0.520523 0.830429 0.268859
O O15 0.144942 0.352521 0.500000
O O16 0.000000 0.284739 0.580118
O O17 0.445766 0.445766 0.903105
O O18 0.633886 0.497006 0.902216
O O19 0.497603 0.306773 0.901346
O O20 0.522222 0.413512 0.000000
O O21 0.000000 0.523189 0.296018
O O22 0.791753 0.267313 0.000000
#
# Coordination Sequence:
#
# PCOD9586284 Si02
#       8
#    12  12  12  12  12  12  12  12
#     4   7  11  22  39  59  89 127 159 191 235 286
#     4  10  21  39  62  83 102 130 176 232 285 336
#     4  10  21  37  57  82 110 139 174 222 281 342
#     4  11  20  34  54  77 106 144 180 214 264 324
#     4   8  14  26  46  72 100 132 173 218 261 307
#     4   9  17  29  47  73 105 142 182 219 253 295
#     4  10  20  32  48  73 103 133 169 212 254 306
#     4  10  19  33  54  80 112 149 187 224 263 308
#
# _framework density 21.116999
#
# number of rings (size 3 to 8) (size 9 to 14) (size 15 to 20)
#    0.000    2.625    0.000    4.500    0.000    4.000 
#    0.000    1.250    0.000    7.875    0.000    0.000 
#    0.000    1.000    0.000    0.000    0.000    0.000 
#
# Total GULP energy -534770.355869 kJ/mol
# GULP energy per Si atom -5570.524540 kJ/mol
# Density = 2.106894 g / cm^3
# Si number density = 21.116999 Si / 1000 Ang^3
#
#
#
# Elastic Constant Matrix: (Units=GPa)
#
#
# Indices 1 2 3 4 5 6 
#
# 1 81.8739 5.9883 13.1400 0.0000 0.0000 0.0000
# 2 5.9883 81.8739 13.1400 0.0000 0.0000 0.0000
# 3 13.1400 13.1400 30.2222 0.0000 0.0000 0.0000
# 4 0.0000 0.0000 0.0000 10.3059 0.0000 0.0000
# 5 0.0000 0.0000 0.0000 0.0000 10.3059 0.0000
# 6 0.0000 0.0000 0.0000 0.0000 0.0000 37.9428
#
#
#
# Elastic Compliance Matrix: (Units=1/GPa)
#
#
# Indices 1 2 3 4 5 6 
#
# 1 0.013130 -0.000047 -0.005688 0.000000 0.000000 0.000000
# 2 -0.000047 0.013130 -0.005688 0.000000 0.000000 0.000000
# 3 -0.005688 -0.005688 0.038034 0.000000 0.000000 0.000000
# 4 0.000000 0.000000 0.000000 0.097032 0.000000 0.000000
# 5 0.000000 0.000000 0.000000 0.000000 0.097032 0.000000
# 6 0.000000 0.000000 0.000000 0.000000 0.000000 0.026355
#
#
# Mechanical properties :
#
#
# Convention : Reuss Voigt Hill
#
# Bulk Modulus (GPa) = 24.12689 28.72296 26.42492
# Shear Modulus (GPa) = 15.55804 22.49103 19.02454
#
# Velocity S-wave (km/s) = 2.71727 3.26708 3.00477
# Velocity P-wave (km/s) = 4.61464 5.27855 4.95772
#
# Compressibility (1/GPa) = 0.04144753
#
# Stress axis : x y z
#
# Youngs Moduli (GPa) = 76.15990 76.15990 26.29192
#
# Poissons Ratio (x) = 0.00361 0.14955
# Poissons Ratio (y) = 0.00361 0.14955
# Poissons Ratio (z) = 0.43321 0.43321
#
# Static dielectric constant tensor:
#      x y z
#    x 1.742580 0.000000 0.000000 
#    y 0.000000 1.742580 0.000000 
#    z 0.000000 0.000000 1.862660 
# 
# From -- ./inp_files/3723.got.cif
#   From: 2010.05.17/outbox.cif.g08.bks.cpg/sg189_2_cif.got.tgz:3723.got - 2010.05.20 12:14:34.
