data_PCOD9586032
_publ_section_title
;
Structure prediction by ZEFSAII (Michael W. Deem and Ramdas Pophale) SiO2 
 PCOD9586032
Probable space group: P -6 C 2
;
_chemical_formula_sum "Si O2"
_cell_formula_units_Z 42
_cell_length_a 8.574498
_cell_length_b 8.574498
_cell_length_c 30.283428
_cell_angle_alpha 90.000000
_cell_angle_beta 90.000000
_cell_angle_gamma 120.000000
_cell_volume 1928.204415
_symmetry_space_group_name_H-M "P -6 C 2"
_symmetry_group_IT_number 188
_symmetry_cell_setting 'hexagonal'
loop_
_space_group_symop_operation_xyz
x,y,z
-x+y,-x,1/2-z
-y,x-y,z
x,y,1/2-z
-x+y,-x,z
-y,x-y,1/2-z
-y,-x,-z
-x+y,y,-z
x,x-y,-z
-x+y,y,1/2+z
x,x-y,1/2+z
-y,-x,1/2+z
loop_
_atom_site_type_symbol
_atom_site_label
_atom_site_fract_x
_atom_site_fract_y
_atom_site_fract_z
Si Si1 0.667386 0.709404 0.041362
Si Si2 0.319944 0.863874 0.750000
Si Si3 0.470020 0.339023 0.325274
Si Si4 0.979608 0.644842 0.425041
O O1 0.836432 0.680269 0.048615
O O2 0.494366 0.513554 0.048067
O O3 0.667870 0.836073 0.080514
O O4 0.670210 0.835105 0.000000
O O5 0.495456 0.837264 0.750000
O O6 0.332828 0.976524 0.706658
O O7 0.495806 0.168190 0.316287
O O8 0.432562 0.339208 0.377010
#
# Coordination Sequence:
#
# PCOD9586032 Si02
#       4
#    12   6  12  12
#     4  12  26  46  74 105 150 190 254 316 380 454
#     4  10  24  36  68 110 146 188 242 308 348 454
#     4  10  21  44  72 102 145 195 243 298 379 451
#     4  12  25  47  72 110 142 203 246 317 381 459
#
# _framework density 21.781922999999999
#
# number of rings (size 3 to 8) (size 9 to 14) (size 15 to 20)
#    0.857    0.000    2.857    4.286    4.000    0.000 
#    0.000    2.857    0.000    4.571    0.000    0.000 
#    0.000    0.000    0.000    0.000    0.000    0.000 
#
# Total GULP energy -234208.213618 kJ/mol
# GULP energy per Si atom -5576.386039 kJ/mol
# Density = 2.173235 g / cm^3
# Si number density = 21.781923 Si / 1000 Ang^3
#
#
#
# Elastic Constant Matrix: (Units=GPa)
#
#
# Indices 1 2 3 4 5 6 
#
# 1 142.5503 48.5863 26.0441 0.0000 0.0000 0.0000
# 2 48.5863 142.5503 26.0441 0.0000 0.0000 0.0000
# 3 26.0441 26.0441 115.0529 0.0000 0.0000 0.0000
# 4 0.0000 0.0000 0.0000 39.1149 0.0000 0.0000
# 5 0.0000 0.0000 0.0000 0.0000 39.1149 0.0000
# 6 0.0000 0.0000 0.0000 0.0000 0.0000 46.9820
#
#
#
# Elastic Compliance Matrix: (Units=1/GPa)
#
#
# Indices 1 2 3 4 5 6 
#
# 1 0.008109 -0.002533 -0.001262 0.000000 0.000000 0.000000
# 2 -0.002533 0.008109 -0.001262 0.000000 0.000000 0.000000
# 3 -0.001262 -0.001262 0.009263 0.000000 0.000000 0.000000
# 4 0.000000 0.000000 0.000000 0.025566 0.000000 0.000000
# 5 0.000000 0.000000 0.000000 0.000000 0.025566 0.000000
# 6 0.000000 0.000000 0.000000 0.000000 0.000000 0.021285
#
#
# Mechanical properties :
#
#
# Convention : Reuss Voigt Hill
#
# Bulk Modulus (GPa) = 65.07868 66.83363 65.95616
# Shear Modulus (GPa) = 44.19511 45.00763 44.60137
#
# Velocity S-wave (km/s) = 4.50931 4.55057 4.52999
# Velocity P-wave (km/s) = 7.55341 7.63937 7.59651
#
# Compressibility (1/GPa) = 0.01536602
#
# Stress axis : x y z
#
# Youngs Moduli (GPa) = 123.31821 123.31821 107.95542
#
# Poissons Ratio (x) = 0.31240 0.13626
# Poissons Ratio (y) = 0.31240 0.13626
# Poissons Ratio (z) = 0.15565 0.15565
#
# Static dielectric constant tensor:
#      x y z
#    x 1.803860 0.000000 0.000000 
#    y 0.000000 1.803860 0.000000 
#    z 0.000000 0.000000 1.836170 
# 
# From -- ./inp_files/4408.got.cif
#   From: 2010.05.17/outbox.cif.g08.bks.cpg/sg188_3_cif.got.tgz:4408.got - 2010.05.20 12:11:46.
