data_PCOD9586906
_publ_section_title
;
Structure prediction by ZEFSAII (Michael W. Deem and Ramdas Pophale) SiO2 
 PCOD9586906
Probable space group: P -6 2 C
;
_chemical_formula_sum "Si O2"
_cell_formula_units_Z 42
_cell_length_a 15.321945
_cell_length_b 15.321945
_cell_length_c 10.433578
_cell_angle_alpha 90.000000
_cell_angle_beta 90.000000
_cell_angle_gamma 120.000000
_cell_volume 2121.249226
_symmetry_space_group_name_H-M "P -6 2 C"
_symmetry_group_IT_number 190
_symmetry_cell_setting 'hexagonal'
loop_
_space_group_symop_operation_xyz
x,y,z
-x+y,-x,1/2-z
-y,x-y,z
x,y,1/2-z
-x+y,-x,z
-y,x-y,1/2-z
x-y,-y,-z
-x,-x+y,-z
y,x,-z
y,x,1/2+z
x-y,-y,1/2+z
-x,-x+y,1/2+z
loop_
_atom_site_type_symbol
_atom_site_label
_atom_site_fract_x
_atom_site_fract_y
_atom_site_fract_z
Si Si1 0.371361 0.860098 0.103633
Si Si2 0.204929 0.337363 0.750000
Si Si3 0.700401 0.681578 0.750000
Si Si4 0.846732 0.550383 0.512923
Si Si5 0.087435 0.789108 0.250000
O O1 0.385112 0.831881 0.250000
O O2 0.469138 0.882599 0.025573
O O3 0.272620 0.768014 0.042471
O O4 0.346107 0.949156 0.131249
O O5 0.094208 0.323675 0.750000
O O6 0.263696 0.398087 0.624147
O O7 0.206968 0.233044 0.750000
O O8 0.820263 0.723415 0.750000
O O9 0.896658 0.633322 0.624961
#
# Coordination Sequence:
#
# PCOD9586906 Si02
#       5
#    12   6   6  12   6
#     4   9  18  39  70  89 124 182 234 241 327 422
#     4  12  26  40  60 110 142 152 228 309 330 367
#     4   8  21  43  66  95 127 176 228 280 326 395
#     4  11  21  41  67  97 129 180 219 280 317 403
#     4  10  21  45  66  87 123 190 222 253 346 418
#
# _framework density 19.799654
#
# number of rings (size 3 to 8) (size 9 to 14) (size 15 to 20)
#    0.857    1.143    2.857    1.429    0.000    5.714 
#   16.286    0.000    0.000    0.000    0.000    0.000 
#    0.000    0.000    0.000    0.000    0.000    0.000 
#
# Total GULP energy -234422.101514 kJ/mol
# GULP energy per Si atom -5581.478607 kJ/mol
# Density = 1.975459 g / cm^3
# Si number density = 19.799654 Si / 1000 Ang^3
#
#
#
# Elastic Constant Matrix: (Units=GPa)
#
#
# Indices 1 2 3 4 5 6 
#
# 1 104.1280 82.4565 58.2450 0.0000 0.0000 0.0000
# 2 82.4565 104.1280 58.2450 0.0000 0.0000 0.0000
# 3 58.2450 58.2450 123.1906 0.0000 0.0000 0.0000
# 4 0.0000 0.0000 0.0000 17.6447 0.0000 0.0000
# 5 0.0000 0.0000 0.0000 0.0000 17.6447 0.0000
# 6 0.0000 0.0000 0.0000 0.0000 0.0000 10.8357
#
#
#
# Elastic Compliance Matrix: (Units=1/GPa)
#
#
# Indices 1 2 3 4 5 6 
#
# 1 0.026874 -0.019270 -0.003595 0.000000 0.000000 0.000000
# 2 -0.019270 0.026874 -0.003595 0.000000 0.000000 0.000000
# 3 -0.003595 -0.003595 0.011517 0.000000 0.000000 0.000000
# 4 0.000000 0.000000 0.000000 0.056674 0.000000 0.000000
# 5 0.000000 0.000000 0.000000 0.000000 0.056674 0.000000
# 6 0.000000 0.000000 0.000000 0.000000 0.000000 0.092287
#
#
# Mechanical properties :
#
#
# Convention : Reuss Voigt Hill
#
# Bulk Modulus (GPa) = 81.00828 81.03774 81.02301
# Shear Modulus (GPa) = 15.24688 18.05837 16.65262
#
# Velocity S-wave (km/s) = 2.77800 3.02330 2.90324
# Velocity P-wave (km/s) = 7.16188 7.29417 7.22833
#
# Compressibility (1/GPa) = 0.01234442
#
# Stress axis : x y z
#
# Youngs Moduli (GPa) = 37.21085 37.21085 86.82659
#
# Poissons Ratio (x) = 0.71704 0.31216
# Poissons Ratio (y) = 0.71704 0.31216
# Poissons Ratio (z) = 0.13378 0.13378
#
# Static dielectric constant tensor:
#      x y z
#    x 1.704050 0.000000 0.000000 
#    y 0.000000 1.704050 0.000000 
#    z 0.000000 0.000000 1.690150 
# 
# From -- ./inp_files/1776.got.cif
#   From: 2010.05.17/outbox.cif.g08.bks.cpg/sg190_1_cif.got.tgz:1776.got - 2010.05.20 12:16:56.
