data_PCOD9586231
_publ_section_title
;
Structure prediction by ZEFSAII (Michael W. Deem and Ramdas Pophale) SiO2 
 PCOD9586231
Probable space group: P -6 2 M
;
_chemical_formula_sum "Si O2"
_cell_formula_units_Z 84
_cell_length_a 14.641870
_cell_length_b 14.641870
_cell_length_c 23.687564
_cell_angle_alpha 90.000000
_cell_angle_beta 90.000000
_cell_angle_gamma 120.000000
_cell_volume 4397.887600
_symmetry_space_group_name_H-M "P -6 2 M"
_symmetry_group_IT_number 189
_symmetry_cell_setting 'hexagonal'
loop_
_space_group_symop_operation_xyz
x,y,z
-x+y,-x,-z
-y,x-y,z
x,y,-z
-x+y,-x,z
-y,x-y,-z
x-y,-y,-z
-x,-x+y,-z
y,x,-z
y,x,z
x-y,-y,z
-x,-x+y,z
loop_
_atom_site_type_symbol
_atom_site_label
_atom_site_fract_x
_atom_site_fract_y
_atom_site_fract_z
Si Si1 0.876042 0.647053 0.500000
Si Si2 0.122326 0.662168 0.234902
Si Si3 0.708345 0.582581 0.591577
Si Si4 0.115916 0.228119 0.931666
Si Si5 0.114902 0.617946 0.897113
Si Si6 0.126338 0.557479 0.500000
Si Si7 0.454268 0.127077 0.276692
Si Si8 0.451875 0.166431 0.064900
O O1 0.817292 0.649025 0.557241
O O2 0.857405 0.529266 0.500000
O O3 0.000000 0.729162 0.500000
O O4 0.121965 0.652239 0.167232
O O5 0.141788 0.569442 0.260666
O O6 0.219058 0.779797 0.248529
O O7 0.000000 0.626949 0.251565
O O8 0.649963 0.649963 0.587090
O O9 0.641138 0.476031 0.555237
O O10 0.702839 0.555294 0.657002
O O11 0.202386 0.202386 0.908939
O O12 0.125015 0.335364 0.911912
O O13 0.000000 0.133192 0.920186
O O14 0.127225 0.238578 0.000000
O O15 0.210328 0.708101 0.932049
O O16 0.127116 0.515882 0.899230
O O17 0.000000 0.585664 0.920889
O O18 0.000000 0.483504 0.500000
O O19 0.371284 0.000000 0.265139
O O20 0.447930 0.132761 0.000000
#
# Coordination Sequence:
#
# PCOD9586231 Si02
#       8
#     6  12  12  12  12   6  12  12
#     4  10  19  31  53  79 111 157 201 234 272 334
#     4  10  22  39  61  87 113 149 198 247 302 368
#     4   9  19  35  51  74 114 151 183 231 288 337
#     4   9  17  30  49  75 106 139 176 218 263 313
#     4  11  23  39  57  78 110 145 180 230 283 336
#     4   8  16  31  46  69 108 147 184 220 265 328
#     4  10  21  38  61  87 119 155 195 254 310 352
#     4  11  22  35  55  80 108 145 185 222 268 339
#
# _framework density 19.100078
#
# number of rings (size 3 to 8) (size 9 to 14) (size 15 to 20)
#    0.000    2.143    0.000    3.500    2.000    3.429 
#    3.429    0.714    0.000    1.429    0.000    0.000 
#    0.000    0.000    0.000    0.000    0.000    0.000 
#
# Total GULP energy -468089.971200 kJ/mol
# GULP energy per Si atom -5572.499657 kJ/mol
# Density = 1.905661 g / cm^3
# Si number density = 19.100078 Si / 1000 Ang^3
#
#
#
# Elastic Constant Matrix: (Units=GPa)
#
#
# Indices 1 2 3 4 5 6 
#
# 1 87.0649 34.9562 24.9713 0.0000 0.0000 0.0000
# 2 34.9562 87.0649 24.9713 0.0000 0.0000 0.0000
# 3 24.9713 24.9713 64.4033 0.0000 0.0000 0.0000
# 4 0.0000 0.0000 0.0000 39.0914 0.0000 0.0000
# 5 0.0000 0.0000 0.0000 0.0000 39.0914 0.0000
# 6 0.0000 0.0000 0.0000 0.0000 0.0000 26.0544
#
#
#
# Elastic Compliance Matrix: (Units=1/GPa)
#
#
# Indices 1 2 3 4 5 6 
#
# 1 0.014466 -0.004725 -0.003777 0.000000 0.000000 0.000000
# 2 -0.004725 0.014466 -0.003777 0.000000 0.000000 0.000000
# 3 -0.003777 -0.003777 0.018456 0.000000 0.000000 0.000000
# 4 0.000000 0.000000 0.000000 0.025581 0.000000 0.000000
# 5 0.000000 0.000000 0.000000 0.000000 0.025581 0.000000
# 6 0.000000 0.000000 0.000000 0.000000 0.000000 0.038381
#
#
# Mechanical properties :
#
#
# Convention : Reuss Voigt Hill
#
# Bulk Modulus (GPa) = 43.80098 45.37009 44.58553
# Shear Modulus (GPa) = 29.56850 31.08974 30.32912
#
# Velocity S-wave (km/s) = 3.93884 4.03889 3.98918
# Velocity P-wave (km/s) = 6.60818 6.74949 6.67921
#
# Compressibility (1/GPa) = 0.02283054
#
# Stress axis : x y z
#
# Youngs Moduli (GPa) = 69.12799 69.12799 54.18264
#
# Poissons Ratio (x) = 0.32661 0.20465
# Poissons Ratio (y) = 0.32661 0.20465
# Poissons Ratio (z) = 0.26110 0.26110
#
# Static dielectric constant tensor:
#      x y z
#    x 1.716190 0.000000 0.000000 
#    y 0.000000 1.716190 0.000000 
#    z 0.000000 0.000000 1.660390 
# 
# From -- ./inp_files/3644.got.cif
#   From: 2010.05.17/outbox.cif.g08.bks.cpg/sg189_2_cif.got.tgz:3644.got - 2010.05.20 12:14:34.
