data_PCOD9586978
_publ_section_title
;
Structure prediction by ZEFSAII (Michael W. Deem and Ramdas Pophale) SiO2 
 PCOD9586978
Probable space group: P -6 2 C
;
_chemical_formula_sum "Si O2"
_cell_formula_units_Z 48
_cell_length_a 10.891313
_cell_length_b 10.891313
_cell_length_c 23.158766
_cell_angle_alpha 90.000000
_cell_angle_beta 90.000000
_cell_angle_gamma 120.000000
_cell_volume 2379.066188
_symmetry_space_group_name_H-M "P -6 2 C"
_symmetry_group_IT_number 190
_symmetry_cell_setting 'hexagonal'
loop_
_space_group_symop_operation_xyz
x,y,z
-x+y,-x,1/2-z
-y,x-y,z
x,y,1/2-z
-x+y,-x,z
-y,x-y,1/2-z
x-y,-y,-z
-x,-x+y,-z
y,x,-z
y,x,1/2+z
x-y,-y,1/2+z
-x,-x+y,1/2+z
loop_
_atom_site_type_symbol
_atom_site_label
_atom_site_fract_x
_atom_site_fract_y
_atom_site_fract_z
Si Si1 0.172659 0.328663 0.854056
Si Si2 0.843239 0.004166 0.250000
Si Si3 0.028280 0.606706 0.432092
Si Si4 0.312716 0.813506 0.750000
Si Si5 0.726132 0.659204 0.934851
O O1 0.214568 0.240666 0.809780
O O2 0.306207 0.413202 0.895967
O O3 0.134393 0.419215 0.809924
O O4 0.036390 0.244714 0.894439
O O5 0.006241 0.136236 0.250000
O O6 0.061256 0.481997 0.417266
O O7 0.152160 0.770483 0.427094
O O8 0.000000 0.591014 0.500000
O O9 0.456182 0.809591 0.750000
O O10 0.702707 0.702707 0.000000
#
# Coordination Sequence:
#
# PCOD9586978 Si02
#       5
#    12   6  12   6  12
#     4  11  20  38  62  89 121 158 213 250 312 367
#     4   9  20  36  56  86 116 157 192 260 298 353
#     4  11  23  40  59  89 125 168 205 253 311 372
#     4   9  20  36  58  90 114 155 204 262 296 349
#     4  11  23  40  59  89 125 168 205 253 311 372
#
# _framework density 20.175982999999999
#
# number of rings (size 3 to 8) (size 9 to 14) (size 15 to 20)
#    0.500    1.000    2.500    3.500    0.000    0.000 
#    3.000    1.250    0.000    0.000    0.000   17.500 
#    0.000    0.000    0.000    0.000    0.000    0.000 
#
# Total GULP energy -267309.433269 kJ/mol
# GULP energy per Si atom -5568.946526 kJ/mol
# Density = 2.013006 g / cm^3
# Si number density = 20.175983 Si / 1000 Ang^3
#
#
#
# Elastic Constant Matrix: (Units=GPa)
#
#
# Indices 1 2 3 4 5 6 
#
# 1 55.2360 -8.4375 15.1870 0.0000 0.0000 0.0000
# 2 -8.4375 55.2360 15.1870 0.0000 0.0000 0.0000
# 3 15.1870 15.1870 110.5086 0.0000 0.0000 0.0000
# 4 0.0000 0.0000 0.0000 13.5420 0.0000 0.0000
# 5 0.0000 0.0000 0.0000 0.0000 13.5420 0.0000
# 6 0.0000 0.0000 0.0000 0.0000 0.0000 31.8368
#
#
#
# Elastic Compliance Matrix: (Units=1/GPa)
#
#
# Indices 1 2 3 4 5 6 
#
# 1 0.019583 0.003878 -0.003224 0.000000 0.000000 0.000000
# 2 0.003878 0.019583 -0.003224 0.000000 0.000000 0.000000
# 3 -0.003224 -0.003224 0.009935 0.000000 0.000000 0.000000
# 4 0.000000 0.000000 0.000000 0.073844 0.000000 0.000000
# 5 0.000000 0.000000 0.000000 0.000000 0.073844 0.000000
# 6 0.000000 0.000000 0.000000 0.000000 0.000000 0.031410
#
#
# Mechanical properties :
#
#
# Convention : Reuss Voigt Hill
#
# Bulk Modulus (GPa) = 22.74787 29.42819 26.08803
# Shear Modulus (GPa) = 20.16176 25.05377 22.60777
#
# Velocity S-wave (km/s) = 3.16459 3.52769 3.35106
# Velocity P-wave (km/s) = 4.96508 5.58661 5.28499
#
# Compressibility (1/GPa) = 0.04396016
#
# Stress axis : x y z
#
# Youngs Moduli (GPa) = 51.06479 51.06479 100.65164
#
# Poissons Ratio (x) = -0.19802 0.32452
# Poissons Ratio (y) = -0.19802 0.32452
# Poissons Ratio (z) = 0.16464 0.16464
#
# Static dielectric constant tensor:
#      x y z
#    x 1.718910 0.000000 0.000000 
#    y 0.000000 1.718910 0.000000 
#    z 0.000000 0.000000 1.723370 
# 
# From -- ./inp_files/4143.got.cif
#   From: 2010.05.17/outbox.cif.g08.bks.cpg/sg190_3_cif.got.tgz:4143.got - 2010.05.20 12:16:56.
