data_PCOD9586838
_publ_section_title
;
Structure prediction by ZEFSAII (Michael W. Deem and Ramdas Pophale) SiO2 
 PCOD9586838
Probable space group: P -6 2 C
;
_chemical_formula_sum "Si O2"
_cell_formula_units_Z 52
_cell_length_a 14.458590
_cell_length_b 14.458590
_cell_length_c 14.816247
_cell_angle_alpha 90.000000
_cell_angle_beta 90.000000
_cell_angle_gamma 120.000000
_cell_volume 2682.382620
_symmetry_space_group_name_H-M "P -6 2 C"
_symmetry_group_IT_number 190
_symmetry_cell_setting 'hexagonal'
loop_
_space_group_symop_operation_xyz
x,y,z
-x+y,-x,1/2-z
-y,x-y,z
x,y,1/2-z
-x+y,-x,z
-y,x-y,1/2-z
x-y,-y,-z
-x,-x+y,-z
y,x,-z
y,x,1/2+z
x-y,-y,1/2+z
-x,-x+y,1/2+z
loop_
_atom_site_type_symbol
_atom_site_label
_atom_site_fract_x
_atom_site_fract_y
_atom_site_fract_z
Si Si1 0.237441 0.874590 0.857320
Si Si2 0.781261 0.321848 0.500000
Si Si3 0.000000 0.000000 0.139739
Si Si4 0.212388 0.212388 0.140216
Si Si5 0.874590 0.237441 0.857320
O O1 0.244698 0.862063 0.750000
O O2 0.308633 0.839517 0.913537
O O3 0.113781 0.802749 0.886600
O O4 0.278645 1.000000 0.873379
O O5 0.770986 0.427369 0.500000
O O6 0.839517 0.308633 0.586463
O O7 0.894279 0.000000 0.110987
O O8 0.000000 0.000000 0.250000
O O9 0.212496 0.212496 0.250000
O O10 0.197251 0.311032 0.113399
O O11 0.862064 0.244698 0.750000
#
# Coordination Sequence:
#
# PCOD9586838 Si02
#       5
#    12  12   4  12  12
#     4  10  20  38  65  94 123 154 190 237 299 367
#     4  10  25  45  59  75 114 162 206 260 292 324
#     4   9  12  24  51  85 128 163 175 212 298 376
#     4   9  16  29  57  93 125 156 185 225 297 378
#     4  10  20  38  65  94 123 154 190 237 299 367
#
# _framework density 19.385750999999999
#
# number of rings (size 3 to 8) (size 9 to 14) (size 15 to 20)
#    0.462    1.846    2.308    0.692    0.000    2.769 
#    8.308    0.000    0.000    0.000    0.000    0.000 
#    0.000    0.000    0.000    0.000    0.000    0.000 
#
# Total GULP energy -290006.508093 kJ/mol
# GULP energy per Si atom -5577.048233 kJ/mol
# Density = 1.934163 g / cm^3
# Si number density = 19.385751 Si / 1000 Ang^3
#
#
#
# Elastic Constant Matrix: (Units=GPa)
#
#
# Indices 1 2 3 4 5 6 
#
# 1 65.1212 1.7980 30.4530 0.0000 0.0000 0.0000
# 2 1.7980 65.1212 30.4530 0.0000 0.0000 0.0000
# 3 30.4530 30.4530 77.9127 0.0000 0.0000 0.0000
# 4 0.0000 0.0000 0.0000 23.9352 0.0000 0.0000
# 5 0.0000 0.0000 0.0000 0.0000 23.9352 0.0000
# 6 0.0000 0.0000 0.0000 0.0000 0.0000 31.6616
#
#
#
# Elastic Compliance Matrix: (Units=1/GPa)
#
#
# Indices 1 2 3 4 5 6 
#
# 1 0.019493 0.003701 -0.009066 0.000000 0.000000 0.000000
# 2 0.003701 0.019493 -0.009066 0.000000 0.000000 0.000000
# 3 -0.009066 -0.009066 0.019922 0.000000 0.000000 0.000000
# 4 0.000000 0.000000 0.000000 0.041779 0.000000 0.000000
# 5 0.000000 0.000000 0.000000 0.000000 0.041779 0.000000
# 6 0.000000 0.000000 0.000000 0.000000 0.000000 0.031584
#
#
# Mechanical properties :
#
#
# Convention : Reuss Voigt Hill
#
# Bulk Modulus (GPa) = 33.28047 37.06257 35.17152
# Shear Modulus (GPa) = 23.48209 25.60313 24.54261
#
# Velocity S-wave (km/s) = 3.48416 3.63811 3.56197
# Velocity P-wave (km/s) = 5.77846 6.06694 5.92446
#
# Compressibility (1/GPa) = 0.03004765
#
# Stress axis : x y z
#
# Youngs Moduli (GPa) = 51.29962 51.29962 50.19611
#
# Poissons Ratio (x) = -0.18988 0.45507
# Poissons Ratio (y) = -0.18988 0.45507
# Poissons Ratio (z) = 0.46508 0.46508
#
# Static dielectric constant tensor:
#      x y z
#    x 1.648980 0.000000 0.000000 
#    y 0.000000 1.648980 0.000000 
#    z 0.000000 0.000000 1.694460 
# 
# From -- ./inp_files/2700.got.cif
#   From: 2010.05.17/outbox.cif.g08.bks.cpg/sg190_2_cif.got.tgz:2700.got - 2010.05.20 12:16:56.
