data_PCOD9586856
_publ_section_title
;
Structure prediction by ZEFSAII (Michael W. Deem and Ramdas Pophale) SiO2 
 PCOD9586856
Probable space group: P -6 2 C
;
_chemical_formula_sum "Si O2"
_cell_formula_units_Z 84
_cell_length_a 14.706404
_cell_length_b 14.706404
_cell_length_c 23.451561
_cell_angle_alpha 90.000000
_cell_angle_beta 90.000000
_cell_angle_gamma 120.000000
_cell_volume 4392.536431
_symmetry_space_group_name_H-M "P -6 2 C"
_symmetry_group_IT_number 190
_symmetry_cell_setting 'hexagonal'
loop_
_space_group_symop_operation_xyz
x,y,z
-x+y,-x,1/2-z
-y,x-y,z
x,y,1/2-z
-x+y,-x,z
-y,x-y,1/2-z
x-y,-y,-z
-x,-x+y,-z
y,x,-z
y,x,1/2+z
x-y,-y,1/2+z
-x,-x+y,1/2+z
loop_
_atom_site_type_symbol
_atom_site_label
_atom_site_fract_x
_atom_site_fract_y
_atom_site_fract_z
Si Si1 0.471605 0.735803 0.500000
Si Si2 0.066756 0.825072 0.184777
Si Si3 0.241684 0.066756 0.315223
Si Si4 0.757085 0.203577 0.624287
Si Si5 0.539467 0.123045 0.683279
Si Si6 0.446492 0.203578 0.124287
Si Si7 0.460532 0.876955 0.683279
O O1 0.390010 0.780021 0.500000
O O2 0.537571 0.772021 0.442425
O O3 0.537571 0.765553 0.557576
O O4 0.077169 0.794542 0.250000
O O5 0.102941 0.765695 0.141521
O O6 0.948847 0.801281 0.178118
O O7 0.147566 0.948847 0.178118
O O8 0.282628 0.077169 0.250000
O O9 0.337246 0.102941 0.358479
O O10 0.646567 0.186049 0.647784
O O11 0.846640 0.303582 0.658178
O O12 0.557963 0.151221 0.750000
O O13 0.500000 1.000000 0.678072
O O14 0.539482 0.186049 0.147784
O O15 0.456942 0.303582 0.158179
O O16 0.442035 0.848778 0.750000
#
# Coordination Sequence:
#
# PCOD9586856 Si02
#       7
#    12  12  12  12  12  12  12
#     4  10  20  42  58  80 114 166 208 234 274 346
#     4  10  21  39  63  90 120 154 195 245 301 356
#     4  10  21  39  63  90 120 154 195 245 301 356
#     4  12  21  38  59  83 119 157 196 242 285 346
#     4  11  22  35  56  87 118 149 187 236 298 356
#     4  12  21  38  59  83 119 157 196 242 285 346
#     4  11  22  35  56  87 118 149 187 236 298 356
#
# _framework density 19.123346999999999
#
# number of rings (size 3 to 8) (size 9 to 14) (size 15 to 20)
#    0.286    0.857    2.857    5.143    0.000    5.714 
#    0.000    7.143    0.000    0.000    0.000    2.000 
#    0.000    0.000    0.000    0.000    0.000    0.000 
#
# Total GULP energy -469612.262715 kJ/mol
# GULP energy per Si atom -5590.622175 kJ/mol
# Density = 1.907982 g / cm^3
# Si number density = 19.123347 Si / 1000 Ang^3
#
#
#
# Elastic Constant Matrix: (Units=GPa)
#
#
# Indices 1 2 3 4 5 6 
#
# 1 48.5652 -9.4585 23.9378 0.0000 0.0000 0.0000
# 2 -9.4585 48.5652 23.9378 0.0000 0.0000 0.0000
# 3 23.9378 23.9378 139.1075 0.0000 0.0000 0.0000
# 4 0.0000 0.0000 0.0000 1.8156 0.0000 0.0000
# 5 0.0000 0.0000 0.0000 0.0000 1.8156 0.0000
# 6 0.0000 0.0000 0.0000 0.0000 0.0000 29.0119
#
#
#
# Elastic Compliance Matrix: (Units=1/GPa)
#
#
# Indices 1 2 3 4 5 6 
#
# 1 0.024815 0.007581 -0.005575 0.000000 0.000000 0.000000
# 2 0.007581 0.024815 -0.005575 0.000000 0.000000 0.000000
# 3 -0.005575 -0.005575 0.009107 0.000000 0.000000 0.000000
# 4 0.000000 0.000000 0.000000 0.550769 0.000000 0.000000
# 5 0.000000 0.000000 0.000000 0.000000 0.550769 0.000000
# 6 0.000000 0.000000 0.000000 0.000000 0.000000 0.034469
#
#
# Mechanical properties :
#
#
# Convention : Reuss Voigt Hill
#
# Bulk Modulus (GPa) = 19.37985 34.78581 27.08283
# Shear Modulus (GPa) = 4.10145 19.71669 11.90907
#
# Velocity S-wave (km/s) = 1.46608 3.21444 2.49820
# Velocity P-wave (km/s) = 3.60860 5.65744 4.74492
#
# Compressibility (1/GPa) = 0.05159999
#
# Stress axis : x y z
#
# Youngs Moduli (GPa) = 40.29814 40.29814 109.80215
#
# Poissons Ratio (x) = -0.30549 0.61211
# Poissons Ratio (y) = -0.30549 0.61211
# Poissons Ratio (z) = 0.22465 0.22465
#
# Static dielectric constant tensor:
#      x y z
#    x 1.685820 0.000000 0.000000 
#    y 0.000000 1.685820 0.000000 
#    z 0.000000 0.000000 1.622940 
# 
# From -- ./inp_files/4700.got.cif
#   From: 2010.05.17/outbox.cif.g08.bks.cpg/sg190_3_cif.got.tgz:4700.got - 2010.05.20 12:16:56.
