data_PCOD9586437
_publ_section_title
;
Structure prediction by ZEFSAII (Michael W. Deem and Ramdas Pophale) SiO2 
 PCOD9586437
Probable space group: P -6 2 M
;
_chemical_formula_sum "Si O2"
_cell_formula_units_Z 48
_cell_length_a 13.412501
_cell_length_b 13.412501
_cell_length_c 14.458841
_cell_angle_alpha 90.000000
_cell_angle_beta 90.000000
_cell_angle_gamma 120.000000
_cell_volume 2252.597762
_symmetry_space_group_name_H-M "P -6 2 M"
_symmetry_group_IT_number 189
_symmetry_cell_setting 'hexagonal'
loop_
_space_group_symop_operation_xyz
x,y,z
-x+y,-x,-z
-y,x-y,z
x,y,-z
-x+y,-x,z
-y,x-y,-z
x-y,-y,-z
-x,-x+y,-z
y,x,-z
y,x,z
x-y,-y,z
-x,-x+y,z
loop_
_atom_site_type_symbol
_atom_site_label
_atom_site_fract_x
_atom_site_fract_y
_atom_site_fract_z
Si Si1 0.301037 0.867170 0.607926
Si Si2 0.258710 0.128192 0.889088
Si Si3 0.139424 0.645452 0.101855
Si Si4 0.639454 0.135686 0.700048
O O1 0.270104 0.853292 0.500000
O O2 0.200617 0.771049 0.669409
O O3 0.408345 0.846419 0.625238
O O4 0.347351 0.000000 0.634567
O O5 0.182915 0.182915 0.851894
O O6 0.392375 0.223118 0.881981
O O7 0.215434 0.000000 0.853353
O O8 0.240319 0.118410 0.000000
O O9 0.172410 0.613990 0.199396
O O10 0.000000 0.570219 0.096277
O O11 0.181023 0.633460 0.000000
O O12 0.592226 0.000000 0.705834
#
# Coordination Sequence:
#
# PCOD9586437 Si02
#       4
#    12  12  12  12
#     4  10  21  36  56  84 111 135 176 232 279 325
#     4   8  12  18  31  54  86 127 175 221 258 292
#     4   8  15  28  45  67  99 139 177 211 252 306
#     4  10  20  36  59  83 110 146 181 218 272 327
#
# _framework density 21.308731000000002
#
# number of rings (size 3 to 8) (size 9 to 14) (size 15 to 20)
#    0.000    3.000    0.000    3.000    0.000    3.500 
#    0.000    1.250    0.000    2.000    0.000    0.000 
#    0.000    0.000    0.000    0.000    0.000    0.500 
#
# Total GULP energy -267559.336623 kJ/mol
# GULP energy per Si atom -5574.152846 kJ/mol
# Density = 2.126023 g / cm^3
# Si number density = 21.308731 Si / 1000 Ang^3
#
#
#
# Elastic Constant Matrix: (Units=GPa)
#
#
# Indices 1 2 3 4 5 6 
#
# 1 50.8898 16.7828 19.2382 0.0000 0.0000 0.0000
# 2 16.7828 50.8898 19.2382 0.0000 0.0000 0.0000
# 3 19.2382 19.2382 105.2969 0.0000 0.0000 0.0000
# 4 0.0000 0.0000 0.0000 -16.8966 0.0000 0.0000
# 5 0.0000 0.0000 0.0000 0.0000 -16.8966 0.0000
# 6 0.0000 0.0000 0.0000 0.0000 0.0000 17.0535
#
#
#
# Elastic Compliance Matrix: (Units=1/GPa)
#
#
# Indices 1 2 3 4 5 6 
#
# 1 0.022905 -0.006415 -0.003013 0.000000 0.000000 0.000000
# 2 -0.006415 0.022905 -0.003013 0.000000 0.000000 0.000000
# 3 -0.003013 -0.003013 0.010598 0.000000 0.000000 0.000000
# 4 0.000000 0.000000 0.000000 -0.059184 0.000000 0.000000
# 5 0.000000 0.000000 0.000000 0.000000 -0.059184 0.000000
# 6 0.000000 0.000000 0.000000 0.000000 0.000000 0.058639
#
#
# Mechanical properties :
#
#
# Convention : Reuss Voigt Hill
#
# Bulk Modulus (GPa) = 31.71915 35.28831 33.50373
# Shear Modulus (GPa) = 155.91486 6.77322 81.34404
#
# Velocity S-wave (km/s) = 8.56320 1.78480 6.18522
# Velocity P-wave (km/s) = 10.61550 4.56550 8.17107
#
# Compressibility (1/GPa) = 0.03152669
#
# Stress axis : x y z
#
# Youngs Moduli (GPa) = 43.65907 43.65907 94.35864
#
# Poissons Ratio (x) = 0.28006 0.28428
# Poissons Ratio (y) = 0.28006 0.28428
# Poissons Ratio (z) = 0.13154 0.13154
#
# Static dielectric constant tensor:
#      x y z
#    x 1.802460 0.000000 0.000000 
#    y 0.000000 1.802460 0.000000 
#    z 0.000000 0.000000 1.771520 
# 
# From -- ./inp_files/2383.got.cif
#   From: 2010.05.17/outbox.cif.g08.bks.cpg/sg189_2_cif.got.tgz:2383.got - 2010.05.20 12:14:34.
