data_PCOD9586883
_publ_section_title
;
Structure prediction by ZEFSAII (Michael W. Deem and Ramdas Pophale) SiO2 
 PCOD9586883
Probable space group: P -6 2 C
;
_chemical_formula_sum "Si O2"
_cell_formula_units_Z 48
_cell_length_a 18.535111
_cell_length_b 18.535111
_cell_length_c 8.660906
_cell_angle_alpha 90.000000
_cell_angle_beta 90.000000
_cell_angle_gamma 120.000000
_cell_volume 2576.821522
_symmetry_space_group_name_H-M "P -6 2 C"
_symmetry_group_IT_number 190
_symmetry_cell_setting 'hexagonal'
loop_
_space_group_symop_operation_xyz
x,y,z
-x+y,-x,1/2-z
-y,x-y,z
x,y,1/2-z
-x+y,-x,z
-y,x-y,1/2-z
x-y,-y,-z
-x,-x+y,-z
y,x,-z
y,x,1/2+z
x-y,-y,1/2+z
-x,-x+y,1/2+z
loop_
_atom_site_type_symbol
_atom_site_label
_atom_site_fract_x
_atom_site_fract_y
_atom_site_fract_z
Si Si1 0.906216 0.377648 0.065642
Si Si2 0.187761 0.093929 0.064917
Si Si3 0.625156 0.807688 0.065120
Si Si4 0.621524 0.092873 0.565597
O O1 0.908091 0.376207 0.250000
O O2 0.857258 0.285348 0.998725
O O3 0.871854 0.437730 0.008799
O O4 0.000000 0.420612 0.000000
O O5 0.183736 0.092009 0.250000
O O6 0.144249 0.144249 0.000000
O O7 0.283583 0.138922 0.010357
O O8 0.139482 0.000000 0.000000
O O9 0.634885 0.806150 0.250000
O O10 0.574457 0.855377 0.031294
O O11 0.609754 0.088582 0.750000
O O12 0.584738 0.000000 0.500000
#
# Coordination Sequence:
#
# PCOD9586883 Si02
#       4
#    12  12  12  12
#     4  11  22  38  61  86 117 154 195 242 294 353
#     4  12  25  42  63  90 125 164 207 254 305 360
#     4  11  23  40  62  90 121 157 201 248 299 357
#     4  10  21  38  61  86 116 153 192 240 293 352
#
# _framework density 18.627600999999999
#
# number of rings (size 3 to 8) (size 9 to 14) (size 15 to 20)
#    0.000    1.000    0.000    9.250    0.000    6.000 
#    1.500    0.000    0.000    0.000    0.000    0.000 
#    0.000    0.000    0.000    0.000    0.000    0.000 
#
# Total GULP energy -268512.145285 kJ/mol
# GULP energy per Si atom -5594.003027 kJ/mol
# Density = 1.858520 g / cm^3
# Si number density = 18.627601 Si / 1000 Ang^3
#
#
#
# Elastic Constant Matrix: (Units=GPa)
#
#
# Indices 1 2 3 4 5 6 
#
# 1 138.0995 99.9536 88.4632 0.0000 0.0000 0.0000
# 2 99.9536 138.0995 88.4632 0.0000 0.0000 0.0000
# 3 88.4632 88.4632 149.4179 0.0000 0.0000 0.0000
# 4 0.0000 0.0000 0.0000 32.3112 0.0000 0.0000
# 5 0.0000 0.0000 0.0000 0.0000 32.3112 0.0000
# 6 0.0000 0.0000 0.0000 0.0000 0.0000 19.0730
#
#
#
# Elastic Compliance Matrix: (Units=1/GPa)
#
#
# Indices 1 2 3 4 5 6 
#
# 1 0.016858 -0.009357 -0.004441 0.000000 0.000000 0.000000
# 2 -0.009357 0.016858 -0.004441 0.000000 0.000000 0.000000
# 3 -0.004441 -0.004441 0.011952 0.000000 0.000000 0.000000
# 4 0.000000 0.000000 0.000000 0.030949 0.000000 0.000000
# 5 0.000000 0.000000 0.000000 0.000000 0.030949 0.000000
# 6 0.000000 0.000000 0.000000 0.000000 0.000000 0.052430
#
#
# Mechanical properties :
#
#
# Convention : Reuss Voigt Hill
#
# Bulk Modulus (GPa) = 108.81965 108.81968 108.81966
# Shear Modulus (GPa) = 25.05777 26.65487 25.85632
#
# Velocity S-wave (km/s) = 3.67167 3.78687 3.72972
# Velocity P-wave (km/s) = 8.74758 8.81282 8.78026
#
# Compressibility (1/GPa) = 0.00918952
#
# Stress axis : x y z
#
# Youngs Moduli (GPa) = 59.31765 59.31765 83.67004
#
# Poissons Ratio (x) = 0.55502 0.37161
# Poissons Ratio (y) = 0.55502 0.37161
# Poissons Ratio (z) = 0.26345 0.26345
#
# Static dielectric constant tensor:
#      x y z
#    x 1.625200 0.000000 0.000000 
#    y 0.000000 1.625200 0.000000 
#    z 0.000000 0.000000 1.623510 
# 
# From -- ./inp_files/602.got.cif
#   From: 2010.05.17/outbox.cif.g08.bks.cpg/sg190_1_cif.got.tgz:602.got - 2010.05.20 12:16:56.
