data_PCOD9586719
_publ_section_title
;
Structure prediction by ZEFSAII (Michael W. Deem and Ramdas Pophale) SiO2 
 PCOD9586719
Probable space group: P -6 2 C
;
_chemical_formula_sum "Si O2"
_cell_formula_units_Z 76
_cell_length_a 16.456958
_cell_length_b 16.456958
_cell_length_c 14.174232
_cell_angle_alpha 90.000000
_cell_angle_beta 90.000000
_cell_angle_gamma 120.000000
_cell_volume 3324.522604
_symmetry_space_group_name_H-M "P -6 2 C"
_symmetry_group_IT_number 190
_symmetry_cell_setting 'hexagonal'
loop_
_space_group_symop_operation_xyz
x,y,z
-x+y,-x,1/2-z
-y,x-y,z
x,y,1/2-z
-x+y,-x,z
-y,x-y,1/2-z
x-y,-y,-z
-x,-x+y,-z
y,x,-z
y,x,1/2+z
x-y,-y,1/2+z
-x,-x+y,1/2+z
loop_
_atom_site_type_symbol
_atom_site_label
_atom_site_fract_x
_atom_site_fract_y
_atom_site_fract_z
Si Si1 0.813350 0.649840 0.942544
Si Si2 0.922459 0.559821 0.857868
Si Si3 0.816998 0.166589 0.351115
Si Si4 0.109620 0.500958 0.468477
Si Si5 0.000000 0.000000 0.385058
Si Si6 0.141486 0.619740 0.643683
Si Si7 0.172573 0.189786 0.112321
O O1 0.884646 0.608856 0.930164
O O2 0.709679 0.567340 0.924495
O O3 0.871037 0.741311 0.877995
O O4 0.804481 0.676489 0.050747
O O5 0.900989 0.572351 0.750000
O O6 0.876042 0.452970 0.890311
O O7 0.032062 0.591767 0.864949
O O8 0.863672 0.206133 0.250000
O O9 0.732296 0.188544 0.363187
O O10 0.779921 0.054590 0.347441
O O11 0.159472 0.563001 0.562416
O O12 0.000000 0.437735 0.500000
O O13 0.097779 0.087042 0.354789
O O14 0.000000 0.000000 0.500000
O O15 0.157474 0.596158 0.750000
O O16 0.184599 0.184599 0.000000
#
# Coordination Sequence:
#
# PCOD9586719 Si02
#       7
#    12  12  12  12   4  12  12
#     4  11  21  35  59  90 120 157 203 256 304 375
#     4  10  20  37  60  85 114 151 198 249 300 357
#     4  10  19  34  59  87 111 150 210 259 299 360
#     4  10  22  37  57  84 122 154 198 243 308 370
#     4   9  18  36  55  86 130 171 205 254 311 377
#     4   9  17  34  61  83 107 148 200 254 299 356
#     4   9  19  33  58  85 119 162 210 252 306 361
#
# _framework density 22.860424999999999
#
# number of rings (size 3 to 8) (size 9 to 14) (size 15 to 20)
#    0.000    2.211    3.158    0.000    0.000    4.421 
#    0.947    0.789    0.000    1.895    0.000    0.000 
#    0.000    0.000    0.000    0.000    0.000    0.000 
#
# Total GULP energy -423560.196567 kJ/mol
# GULP energy per Si atom -5573.160481 kJ/mol
# Density = 2.280839 g / cm^3
# Si number density = 22.860425 Si / 1000 Ang^3
#
#
#
# Elastic Constant Matrix: (Units=GPa)
#
#
# Indices 1 2 3 4 5 6 
#
# 1 59.4331 7.6928 0.5646 0.0000 0.0000 0.0000
# 2 7.6928 59.4331 0.5646 0.0000 0.0000 0.0000
# 3 0.5646 0.5646 87.9844 0.0000 0.0000 0.0000
# 4 0.0000 0.0000 0.0000 -1.1737 0.0000 0.0000
# 5 0.0000 0.0000 0.0000 0.0000 -1.1737 0.0000
# 6 0.0000 0.0000 0.0000 0.0000 0.0000 25.8701
#
#
#
# Elastic Compliance Matrix: (Units=1/GPa)
#
#
# Indices 1 2 3 4 5 6 
#
# 1 0.017113 -0.002214 -0.000096 0.000000 0.000000 0.000000
# 2 -0.002214 0.017113 -0.000096 0.000000 0.000000 0.000000
# 3 -0.000096 -0.000096 0.011367 0.000000 0.000000 0.000000
# 4 0.000000 0.000000 0.000000 -0.851976 0.000000 0.000000
# 5 0.000000 0.000000 0.000000 0.000000 -0.851976 0.000000
# 6 0.000000 0.000000 0.000000 0.000000 0.000000 0.038655
#
#
# Mechanical properties :
#
#
# Convention : Reuss Voigt Hill
#
# Bulk Modulus (GPa) = 24.52036 24.94384 24.73210
# Shear Modulus (GPa) = -3.12246 17.90643 7.39198
#
# Velocity S-wave (km/s) = -1.16998 2.80177 1.80015
# Velocity P-wave (km/s) = 2.98735 4.62619 3.89396
#
# Compressibility (1/GPa) = 0.04078243
#
# Stress axis : x y z
#
# Youngs Moduli (GPa) = 58.43457 58.43457 87.97494
#
# Poissons Ratio (x) = 0.12938 0.00841
# Poissons Ratio (y) = 0.12938 0.00841
# Poissons Ratio (z) = 0.00559 0.00559
#
# Static dielectric constant tensor:
#      x y z
#    x 1.888860 0.000000 0.000000 
#    y 0.000000 1.888860 0.000000 
#    z 0.000000 0.000000 1.891350 
# 
# From -- ./inp_files/3110.got.cif
#   From: 2010.05.17/outbox.cif.g08.bks.cpg/sg190_2_cif.got.tgz:3110.got - 2010.05.20 12:16:56.
