data_PCOD9586128
_publ_section_title
;
Structure prediction by ZEFSAII (Michael W. Deem and Ramdas Pophale) SiO2 
 PCOD9586128
Probable space group: P -6 2 M
;
_chemical_formula_sum "Si O2"
_cell_formula_units_Z 72
_cell_length_a 24.427818
_cell_length_b 24.427818
_cell_length_c 7.530068
_cell_angle_alpha 90.000000
_cell_angle_beta 90.000000
_cell_angle_gamma 120.000000
_cell_volume 3891.337336
_symmetry_space_group_name_H-M "P -6 2 M"
_symmetry_group_IT_number 189
_symmetry_cell_setting 'hexagonal'
loop_
_space_group_symop_operation_xyz
x,y,z
-x+y,-x,-z
-y,x-y,z
x,y,-z
-x+y,-x,z
-y,x-y,-z
x-y,-y,-z
-x,-x+y,-z
y,x,-z
y,x,z
x-y,-y,z
-x,-x+y,z
loop_
_atom_site_type_symbol
_atom_site_label
_atom_site_fract_x
_atom_site_fract_y
_atom_site_fract_z
Si Si1 0.792416 0.269298 0.216995
Si Si2 0.285740 0.000000 0.290792
Si Si3 0.331914 0.260615 0.217158
Si Si4 0.410236 0.000000 0.287285
Si Si5 0.333339 0.138943 0.211311
Si Si6 0.477022 0.332130 0.783426
Si Si7 0.408524 0.870916 0.209987
O O1 0.839147 0.243597 0.276387
O O2 0.722312 0.215391 0.267869
O O3 0.818206 0.340216 0.281486
O O4 0.794005 0.271154 0.000000
O O5 0.291960 0.000000 0.500000
O O6 0.223343 0.934770 0.244648
O O7 0.347897 0.000000 0.215061
O O8 0.286361 0.286361 0.277911
O O9 0.315144 0.190456 0.276189
O O10 0.404800 0.307685 0.271052
O O11 0.330755 0.260606 0.000000
O O12 0.408163 0.000000 0.500000
O O13 0.474035 0.062269 0.230765
O O14 0.339060 0.147034 0.000000
O O15 0.529931 0.400639 0.718379
O O16 0.475814 0.333090 0.000000
O O17 0.407892 0.858574 0.000000
#
# Coordination Sequence:
#
# PCOD9586128 Si02
#       7
#    12   6  12   6  12  12  12
#     4   8  14  26  41  63  91 114 144 189 232 269
#     4  11  21  31  45  67  93 121 151 186 229 272
#     4   8  14  25  43  69  97 121 146 181 222 263
#     4  11  23  33  43  63  93 121 149 194 243 278
#     4   9  16  28  47  67  92 120 149 182 220 269
#     4   8  15  25  40  66  92 115 147 190 232 267
#     4  10  18  29  48  68  88 118 156 192 232 285
#
# _framework density 18.502635999999999
#
# number of rings (size 3 to 8) (size 9 to 14) (size 15 to 20)
#    0.000    3.000    1.667    2.500    1.167    0.667 
#    1.000    0.000    0.000    5.500    0.000    0.000 
#    0.833    0.000    1.500    0.000    0.500    0.000 
#
# Total GULP energy -401375.796235 kJ/mol
# GULP energy per Si atom -5574.663837 kJ/mol
# Density = 1.846052 g / cm^3
# Si number density = 18.502636 Si / 1000 Ang^3
#
#
#
# Elastic Constant Matrix: (Units=GPa)
#
#
# Indices 1 2 3 4 5 6 
#
# 1 136.3479 95.7026 1.1829 0.0000 0.0000 0.0000
# 2 95.7026 136.3479 1.1829 0.0000 0.0000 0.0000
# 3 1.1829 1.1829 42.9751 0.0000 0.0000 0.0000
# 4 0.0000 0.0000 0.0000 -31.0073 0.0000 0.0000
# 5 0.0000 0.0000 0.0000 0.0000 -31.0073 0.0000
# 6 0.0000 0.0000 0.0000 0.0000 0.0000 20.3226
#
#
#
# Elastic Compliance Matrix: (Units=1/GPa)
#
#
# Indices 1 2 3 4 5 6 
#
# 1 0.014457 -0.010146 -0.000119 0.000000 0.000000 0.000000
# 2 -0.010146 0.014457 -0.000119 0.000000 0.000000 0.000000
# 3 -0.000119 -0.000119 0.023276 0.000000 0.000000 0.000000
# 4 0.000000 0.000000 0.000000 -0.032250 0.000000 0.000000
# 5 0.000000 0.000000 0.000000 0.000000 -0.032250 0.000000
# 6 0.000000 0.000000 0.000000 0.000000 0.000000 0.049206
#
#
# Mechanical properties :
#
#
# Convention : Reuss Voigt Hill
#
# Bulk Modulus (GPa) = 31.82437 56.86751 44.34594
# Shear Modulus (GPa) = 73.38254 6.16843 39.77549
#
# Velocity S-wave (km/s) = 6.30450 1.82785 4.64154
# Velocity P-wave (km/s) = 8.38050 5.93770 7.26254
#
# Compressibility (1/GPa) = 0.03142246
#
# Stress axis : x y z
#
# Youngs Moduli (GPa) = 69.17133 69.17133 42.96304
#
# Poissons Ratio (x) = 0.70183 0.00510
# Poissons Ratio (y) = 0.70183 0.00510
# Poissons Ratio (z) = 0.00821 0.00821
#
# Static dielectric constant tensor:
#      x y z
#    x 1.641110 0.000000 0.000000 
#    y 0.000000 1.641110 0.000000 
#    z 0.000000 0.000000 1.692730 
# 
# From -- ./inp_files/1314.got.cif
#   From: 2010.05.17/outbox.cif.g08.bks.cpg/sg189_1_cif.got.tgz:1314.got - 2010.05.20 12:14:34.
