data_PCOD9586069
_publ_section_title
;
Structure prediction by ZEFSAII (Michael W. Deem and Ramdas Pophale) SiO2 
 PCOD9586069
Probable space group: P -6 C 2
;
_chemical_formula_sum "Si O2"
_cell_formula_units_Z 34
_cell_length_a 11.394604
_cell_length_b 11.394604
_cell_length_c 14.917438
_cell_angle_alpha 90.000000
_cell_angle_beta 90.000000
_cell_angle_gamma 120.000000
_cell_volume 1677.348661
_symmetry_space_group_name_H-M "P -6 C 2"
_symmetry_group_IT_number 188
_symmetry_cell_setting 'hexagonal'
loop_
_space_group_symop_operation_xyz
x,y,z
-x+y,-x,1/2-z
-y,x-y,z
x,y,1/2-z
-x+y,-x,z
-y,x-y,1/2-z
-y,-x,-z
-x+y,y,-z
x,x-y,-z
-x+y,y,1/2+z
x,x-y,1/2+z
-y,-x,1/2+z
loop_
_atom_site_type_symbol
_atom_site_label
_atom_site_fract_x
_atom_site_fract_y
_atom_site_fract_z
Si Si1 0.754926 0.509852 0.000000
Si Si2 0.000000 0.000000 0.107457
Si Si3 0.319752 0.512982 0.359021
Si Si4 0.299564 0.063174 0.853522
O O1 0.593655 0.406346 0.000000
O O2 0.794899 0.603903 0.913635
O O3 0.146174 0.115722 0.139958
O O4 0.000000 0.000000 0.000000
O O5 0.454091 0.654883 0.385215
O O6 0.317353 0.506660 0.250000
O O7 0.307059 0.374158 0.389726
O O8 0.342971 0.086284 0.750000
#
# Coordination Sequence:
#
# PCOD9586069 Si02
#       4
#     6   4  12  12
#     4  10  26  46  62  96 134 172 230 276 342 416
#     4  12  25  44  67 100 140 181 226 281 352 406
#     4   7  14  32  60  99 128 155 209 267 324 388
#     4  11  22  42  70  96 133 177 223 281 337 406
#
# _framework density 20.270085999999999
#
# number of rings (size 3 to 8) (size 9 to 14) (size 15 to 20)
#    1.059    1.412    1.765    1.059    0.000    4.235 
#    0.000    3.529    0.000    2.118    0.000    0.000 
#    0.000    0.000    0.000    0.000    0.000    0.000 
#
# Total GULP energy -189489.966908 kJ/mol
# GULP energy per Si atom -5573.234321 kJ/mol
# Density = 2.022395 g / cm^3
# Si number density = 20.270086 Si / 1000 Ang^3
#
#
#
# Elastic Constant Matrix: (Units=GPa)
#
#
# Indices 1 2 3 4 5 6 
#
# 1 112.0488 65.1229 35.6978 0.0003 0.0000 0.0000
# 2 65.1229 112.0488 35.6978 -0.0003 0.0000 0.0000
# 3 35.6978 35.6978 78.7374 0.0000 0.0000 0.0000
# 4 0.0003 -0.0003 0.0000 23.1054 0.0000 0.0000
# 5 0.0000 0.0000 0.0000 0.0000 23.1054 0.0003
# 6 0.0000 0.0000 0.0000 0.0000 0.0003 23.4630
#
#
#
# Elastic Compliance Matrix: (Units=1/GPa)
#
#
# Indices 1 2 3 4 5 6 
#
# 1 0.014108 -0.007202 -0.003131 0.000000 0.000000 0.000000
# 2 -0.007202 0.014108 -0.003131 0.000000 0.000000 0.000000
# 3 -0.003131 -0.003131 0.015539 0.000000 0.000000 0.000000
# 4 0.000000 0.000000 0.000000 0.043280 0.000000 0.000000
# 5 0.000000 0.000000 0.000000 0.000000 0.043280 -0.000001
# 6 0.000000 0.000000 0.000000 0.000000 -0.000001 0.042620
#
#
# Mechanical properties :
#
#
# Convention : Reuss Voigt Hill
#
# Bulk Modulus (GPa) = 59.42692 63.98578 61.70635
# Shear Modulus (GPa) = 24.33407 25.02253 24.67830
#
# Velocity S-wave (km/s) = 3.46857 3.51729 3.49302
# Velocity P-wave (km/s) = 6.73962 6.93760 6.83933
#
# Compressibility (1/GPa) = 0.01682739
#
# Stress axis : x y z
#
# Youngs Moduli (GPa) = 70.88142 70.88142 64.35215
#
# Poissons Ratio (x) = 0.51050 0.20149
# Poissons Ratio (y) = 0.51050 0.20149
# Poissons Ratio (z) = 0.22193 0.22193
#
# Static dielectric constant tensor:
#      x y z
#    x 1.715620 0.000000 0.000000 
#    y 0.000000 1.715620 0.000000 
#    z 0.000000 0.000000 1.751520 
# 
# From -- ./inp_files/1924.got.cif
#   From: 2010.05.17/outbox.cif.g08.bks.cpg/sg188_1_cif.got.tgz:1924.got - 2010.05.20 12:11:46.
