data_PCOD9586486
_publ_section_title
;
Structure prediction by ZEFSAII (Michael W. Deem and Ramdas Pophale) SiO2 
 PCOD9586486
Probable space group: P -6 2 M
;
_chemical_formula_sum "Si O2"
_cell_formula_units_Z 48
_cell_length_a 14.040330
_cell_length_b 14.040330
_cell_length_c 13.668726
_cell_angle_alpha 90.000000
_cell_angle_beta 90.000000
_cell_angle_gamma 120.000000
_cell_volume 2333.529526
_symmetry_space_group_name_H-M "P -6 2 M"
_symmetry_group_IT_number 189
_symmetry_cell_setting 'hexagonal'
loop_
_space_group_symop_operation_xyz
x,y,z
-x+y,-x,-z
-y,x-y,z
x,y,-z
-x+y,-x,z
-y,x-y,-z
x-y,-y,-z
-x,-x+y,-z
y,x,-z
y,x,z
x-y,-y,z
-x,-x+y,z
loop_
_atom_site_type_symbol
_atom_site_label
_atom_site_fract_x
_atom_site_fract_y
_atom_site_fract_z
Si Si1 0.869021 0.740709 0.293825
Si Si2 0.409711 0.534533 0.810074
Si Si3 0.236148 0.824994 0.111551
Si Si4 0.672300 0.133396 0.607778
O O1 0.802243 0.802243 0.320034
O O2 0.833168 0.689079 0.185149
O O3 0.841778 0.635728 0.361744
O O4 0.000000 0.822363 0.298320
O O5 0.435638 0.435638 0.809106
O O6 0.516471 0.641445 0.847113
O O7 0.305457 0.495642 0.878994
O O8 0.375636 0.544070 0.699120
O O9 0.233997 0.856250 0.000000
O O10 0.671063 0.176728 0.500000
O O11 0.598400 0.000000 0.603079
#
# Coordination Sequence:
#
# PCOD9586486 Si02
#       4
#    12  12  12  12
#     4  10  21  36  55  82 117 156 197 239 282 333
#     4  10  21  37  57  82 112 143 180 233 291 342
#     4  11  22  36  56  82 110 145 192 240 289 347
#     4   8  16  34  58  81 107 140 177 221 277 337
#
# _framework density 20.569697999999999
#
# number of rings (size 3 to 8) (size 9 to 14) (size 15 to 20)
#    0.000    2.250    0.000    4.500    0.000    5.500 
#    0.000    5.000    0.000    9.000    0.000    0.000 
#    0.000    0.000    0.000    0.000    0.000    0.000 
#
# Total GULP energy -267982.591878 kJ/mol
# GULP energy per Si atom -5582.970664 kJ/mol
# Density = 2.052288 g / cm^3
# Si number density = 20.569698 Si / 1000 Ang^3
#
#
#
# Elastic Constant Matrix: (Units=GPa)
#
#
# Indices 1 2 3 4 5 6 
#
# 1 46.3363 -9.7775 -2.3869 0.0000 0.0000 0.0000
# 2 -9.7775 46.3363 -2.3869 0.0000 0.0000 0.0000
# 3 -2.3869 -2.3869 111.9924 0.0000 0.0000 0.0000
# 4 0.0000 0.0000 0.0000 14.0146 0.0000 0.0000
# 5 0.0000 0.0000 0.0000 0.0000 14.0146 0.0000
# 6 0.0000 0.0000 0.0000 0.0000 0.0000 28.0569
#
#
#
# Elastic Compliance Matrix: (Units=1/GPa)
#
#
# Indices 1 2 3 4 5 6 
#
# 1 0.022625 0.004804 0.000585 0.000000 0.000000 0.000000
# 2 0.004804 0.022625 0.000585 0.000000 0.000000 0.000000
# 3 0.000585 0.000585 0.008954 0.000000 0.000000 0.000000
# 4 0.000000 0.000000 0.000000 0.071354 0.000000 0.000000
# 5 0.000000 0.000000 0.000000 0.000000 0.071354 0.000000
# 6 0.000000 0.000000 0.000000 0.000000 0.000000 0.035642
#
#
# Mechanical properties :
#
#
# Convention : Reuss Voigt Hill
#
# Bulk Modulus (GPa) = 15.11680 19.50695 17.31188
# Shear Modulus (GPa) = 20.60513 25.83166 23.21840
#
# Velocity S-wave (km/s) = 3.16843 3.54759 3.36336
# Velocity P-wave (km/s) = 4.55525 5.12683 4.84947
#
# Compressibility (1/GPa) = 0.06615155
#
# Stress axis : x y z
#
# Youngs Moduli (GPa) = 44.19848 44.19848 111.68076
#
# Poissons Ratio (x) = -0.21234 -0.06529
# Poissons Ratio (y) = -0.21234 -0.06529
# Poissons Ratio (z) = -0.02584 -0.02584
#
# Static dielectric constant tensor:
#      x y z
#    x 1.737730 0.000000 0.000000 
#    y 0.000000 1.737730 0.000000 
#    z 0.000000 0.000000 1.740530 
# 
# From -- ./inp_files/1678.got.cif
#   From: 2010.05.17/outbox.cif.g08.bks.cpg/sg189_1_cif.got.tgz:1678.got - 2010.05.20 12:14:34.
