data_PCOD9586055
_publ_section_title
;
Structure prediction by ZEFSAII (Michael W. Deem and Ramdas Pophale) SiO2 
 PCOD9586055
Probable space group: P -6 C 2
;
_chemical_formula_sum "Si O2"
_cell_formula_units_Z 40
_cell_length_a 8.151662
_cell_length_b 8.151662
_cell_length_c 33.740190
_cell_angle_alpha 90.000000
_cell_angle_beta 90.000000
_cell_angle_gamma 120.000000
_cell_volume 1941.647926
_symmetry_space_group_name_H-M "P -6 C 2"
_symmetry_group_IT_number 188
_symmetry_cell_setting 'hexagonal'
loop_
_space_group_symop_operation_xyz
x,y,z
-x+y,-x,1/2-z
-y,x-y,z
x,y,1/2-z
-x+y,-x,z
-y,x-y,1/2-z
-y,-x,-z
-x+y,y,-z
x,x-y,-z
-x+y,y,1/2+z
x,x-y,1/2+z
-y,-x,1/2+z
loop_
_atom_site_type_symbol
_atom_site_label
_atom_site_fract_x
_atom_site_fract_y
_atom_site_fract_z
Si Si1 0.244263 0.148551 0.082720
Si Si2 0.666668 0.333335 0.452735
Si Si3 0.704783 0.673250 0.828017
Si Si4 0.634272 0.655177 0.205009
O O1 0.449182 0.252064 0.062163
O O2 0.283877 0.197582 0.129304
O O3 0.079049 0.202649 0.073893
O O4 0.666668 0.333334 0.500000
O O5 0.537007 0.463093 0.820148
O O6 0.609331 0.798337 0.818062
O O7 0.867802 0.722938 0.796187
O O8 0.563057 0.623319 0.250000
#
# Coordination Sequence:
#
# PCOD9586055 Si02
#       4
#    12   4  12  12
#     4  10  23  49  75 108 147 194 244 304 362 448
#     4  12  27  48  81 117 151 191 235 300 387 462
#     4  12  23  42  62  90 131 182 240 289 366 432
#     4  12  23  37  58  89 131 178 235 302 356 412
#
# _framework density 20.601057000000001
#
# number of rings (size 3 to 8) (size 9 to 14) (size 15 to 20)
#    0.600    0.000    3.000    6.300    0.000    1.200 
#    1.800    0.000    0.000    0.000    0.000    0.000 
#    0.000    0.000    0.000    0.000    0.000    0.000 
#
# Total GULP energy -223027.662693 kJ/mol
# GULP energy per Si atom -5575.691567 kJ/mol
# Density = 2.055417 g / cm^3
# Si number density = 20.601057 Si / 1000 Ang^3
#
#
#
# Elastic Constant Matrix: (Units=GPa)
#
#
# Indices 1 2 3 4 5 6 
#
# 1 124.4880 47.7843 47.6133 0.0000 0.0000 0.0001
# 2 47.7843 124.4889 47.6135 0.0001 0.0000 0.0001
# 3 47.6133 47.6135 101.7595 -0.0002 0.0001 0.0001
# 4 0.0000 0.0001 -0.0002 9.2227 0.0000 0.0000
# 5 0.0000 0.0000 0.0001 0.0000 9.2228 0.0000
# 6 0.0001 0.0001 0.0001 0.0000 0.0000 38.3519
#
#
#
# Elastic Compliance Matrix: (Units=1/GPa)
#
#
# Indices 1 2 3 4 5 6 
#
# 1 0.010434 -0.002604 -0.003664 0.000000 0.000000 0.000000
# 2 -0.002604 0.010433 -0.003664 0.000000 0.000000 0.000000
# 3 -0.003664 -0.003664 0.013256 0.000000 0.000000 0.000000
# 4 0.000000 0.000000 0.000000 0.108428 0.000001 0.000000
# 5 0.000000 0.000000 0.000000 0.000001 0.108427 0.000000
# 6 0.000000 0.000000 0.000000 0.000000 0.000000 0.026074
#
#
# Mechanical properties :
#
#
# Convention : Reuss Voigt Hill
#
# Bulk Modulus (GPa) = 70.12220 70.75097 70.43658
# Shear Modulus (GPa) = 16.57458 25.20784 20.89121
#
# Velocity S-wave (km/s) = 2.83954 3.50182 3.18792
# Velocity P-wave (km/s) = 6.69796 7.12518 6.91487
#
# Compressibility (1/GPa) = 0.01426082
#
# Stress axis : x y z
#
# Youngs Moduli (GPa) = 95.84492 95.84558 75.44033
#
# Poissons Ratio (x) = 0.24954 0.27638
# Poissons Ratio (y) = 0.24954 0.27638
# Poissons Ratio (z) = 0.35114 0.35114
#
# Static dielectric constant tensor:
#      x y z
#    x 1.812180 0.000000 0.000000 
#    y 0.000000 1.812180 0.000000 
#    z 0.000000 0.000000 1.681810 
# 
# From -- ./inp_files/4366.got.cif
#   From: 2010.05.17/outbox.cif.g08.bks.cpg/sg188_3_cif.got.tgz:4366.got - 2010.05.20 12:11:46.
