data_PCOD9586064
_publ_section_title
;
Structure prediction by ZEFSAII (Michael W. Deem and Ramdas Pophale) SiO2 
 PCOD9586064
Probable space group: P -6 C 2
;
_chemical_formula_sum "Si O2"
_cell_formula_units_Z 84
_cell_length_a 17.823615
_cell_length_b 17.823615
_cell_length_c 14.609297
_cell_angle_alpha 90.000000
_cell_angle_beta 90.000000
_cell_angle_gamma 120.000000
_cell_volume 4019.310291
_symmetry_space_group_name_H-M "P -6 C 2"
_symmetry_group_IT_number 188
_symmetry_cell_setting 'hexagonal'
loop_
_space_group_symop_operation_xyz
x,y,z
-x+y,-x,1/2-z
-y,x-y,z
x,y,1/2-z
-x+y,-x,z
-y,x-y,1/2-z
-y,-x,-z
-x+y,y,-z
x,x-y,-z
-x+y,y,1/2+z
x,x-y,1/2+z
-y,-x,1/2+z
loop_
_atom_site_type_symbol
_atom_site_label
_atom_site_fract_x
_atom_site_fract_y
_atom_site_fract_z
Si Si1 0.878619 0.421784 0.648864
Si Si2 0.783316 0.699798 0.436020
Si Si3 0.157739 0.966345 0.750000
Si Si4 0.712441 0.925801 0.440378
Si Si5 0.738584 0.504011 0.097686
Si Si6 0.437924 0.507880 0.862340
Si Si7 0.521606 0.838868 0.475777
Si Si8 0.194132 0.159395 0.750000
O O1 0.910534 0.426720 0.750000
O O2 0.806345 0.451549 0.644520
O O3 0.825740 0.318993 0.630617
O O4 0.969564 0.494905 0.605978
O O5 0.868286 0.736571 0.500000
O O6 0.719895 0.715356 0.499511
O O7 0.754616 0.600607 0.414660
O O8 0.799580 0.749032 0.340747
O O9 0.200928 0.958230 0.656896
O O10 0.060429 0.887226 0.750000
O O11 0.162865 0.058231 0.750000
O O12 0.750461 0.875231 0.500000
O O13 0.611494 0.859949 0.429137
O O14 0.730472 0.460944 0.000000
O O15 0.423597 0.500227 0.750000
O O16 0.353431 0.461887 0.928064
O O17 0.477469 0.605123 0.902689
O O18 0.474176 0.737088 0.500000
#
# Coordination Sequence:
#
# PCOD9586064 Si02
#       8
#    12  12   6  12  12  12  12   6
#     4  11  24  42  63  97 140 184 232 287 333 398
#     4  11  24  41  64  96 132 177 229 290 337 402
#     4  12  25  42  68  98 132 184 226 284 348 415
#     4  11  23  44  66  98 135 174 228 283 344 406
#     4  11  25  40  65  94 133 187 232 276 338 394
#     4  10  24  45  73 103 140 178 227 282 355 418
#     4  10  24  45  71  99 135 174 219 280 347 422
#     4  12  25  42  66  92 136 172 232 280 354 411
#
# _framework density 20.899107999999998
#
# number of rings (size 3 to 8) (size 9 to 14) (size 15 to 20)
#    0.000    1.143    2.857    2.143   11.000    0.571 
#    8.571    0.000    0.000    0.000    0.000    0.000 
#    0.000    0.000    0.000    0.000    0.000    0.000 
#
# Total GULP energy -467911.153265 kJ/mol
# GULP energy per Si atom -5570.370872 kJ/mol
# Density = 2.085154 g / cm^3
# Si number density = 20.899108 Si / 1000 Ang^3
#
#
#
# Elastic Constant Matrix: (Units=GPa)
#
#
# Indices 1 2 3 4 5 6 
#
# 1 118.0500 17.2275 26.6195 0.0012 0.0000 0.0000
# 2 17.2275 118.0500 26.6195 -0.0012 0.0000 0.0000
# 3 26.6195 26.6195 127.7391 0.0000 0.0000 0.0000
# 4 0.0012 -0.0012 0.0000 27.0491 0.0000 0.0000
# 5 0.0000 0.0000 0.0000 0.0000 27.0491 0.0012
# 6 0.0000 0.0000 0.0000 0.0000 0.0012 50.4113
#
#
#
# Elastic Compliance Matrix: (Units=1/GPa)
#
#
# Indices 1 2 3 4 5 6 
#
# 1 0.008986 -0.000933 -0.001678 0.000000 0.000000 0.000000
# 2 -0.000933 0.008986 -0.001678 0.000000 0.000000 0.000000
# 3 -0.001678 -0.001678 0.008528 0.000000 0.000000 0.000000
# 4 0.000000 0.000000 0.000000 0.036970 0.000000 0.000000
# 5 0.000000 0.000000 0.000000 0.000000 0.036970 -0.000001
# 6 0.000000 0.000000 0.000000 0.000000 -0.000001 0.019837
#
#
# Mechanical properties :
#
#
# Convention : Reuss Voigt Hill
#
# Bulk Modulus (GPa) = 55.80118 56.08579 55.94348
# Shear Modulus (GPa) = 37.08452 40.46005 38.77229
#
# Velocity S-wave (km/s) = 4.21700 4.40474 4.31189
# Velocity P-wave (km/s) = 7.10415 7.26386 7.18445
#
# Compressibility (1/GPa) = 0.01792077
#
# Stress axis : x y z
#
# Youngs Moduli (GPa) = 111.29011 111.29011 117.26285
#
# Poissons Ratio (x) = 0.10382 0.19678
# Poissons Ratio (y) = 0.10382 0.19678
# Poissons Ratio (z) = 0.18675 0.18675
#
# Static dielectric constant tensor:
#      x y z
#    x 1.909200 0.000000 0.000000 
#    y 0.000000 1.909200 0.000000 
#    z 0.000000 0.000000 1.778110 
# 
# From -- ./inp_files/2627.got.cif
#   From: 2010.05.17/outbox.cif.g08.bks.cpg/sg188_2_cif.got.tgz:2627.got - 2010.05.20 12:11:46.
