data_PCOD9586782
_publ_section_title
;
Structure prediction by ZEFSAII (Michael W. Deem and Ramdas Pophale) SiO2 
 PCOD9586782
Probable space group: P -6 2 C
;
_chemical_formula_sum "Si O2"
_cell_formula_units_Z 84
_cell_length_a 16.165268
_cell_length_b 16.165268
_cell_length_c 17.546266
_cell_angle_alpha 90.000000
_cell_angle_beta 90.000000
_cell_angle_gamma 120.000000
_cell_volume 3970.828760
_symmetry_space_group_name_H-M "P -6 2 C"
_symmetry_group_IT_number 190
_symmetry_cell_setting 'hexagonal'
loop_
_space_group_symop_operation_xyz
x,y,z
-x+y,-x,1/2-z
-y,x-y,z
x,y,1/2-z
-x+y,-x,z
-y,x-y,1/2-z
x-y,-y,-z
-x,-x+y,-z
y,x,-z
y,x,1/2+z
x-y,-y,1/2+z
-x,-x+y,1/2+z
loop_
_atom_site_type_symbol
_atom_site_label
_atom_site_fract_x
_atom_site_fract_y
_atom_site_fract_z
Si Si1 0.120872 0.606431 0.427391
Si Si2 0.213707 0.897431 0.957153
Si Si3 0.450835 0.111316 0.831670
Si Si4 0.893505 0.517800 0.097762
Si Si5 0.883424 0.346145 0.165903
Si Si6 0.282660 0.209765 0.160886
Si Si7 0.346886 0.205484 0.887283
O O1 0.149645 0.531166 0.396706
O O2 0.151124 0.638635 0.513871
O O3 0.151548 0.700545 0.377793
O O4 0.005562 0.554647 0.419114
O O5 0.283876 0.871711 0.909649
O O6 0.136008 0.882032 0.892388
O O7 0.154421 0.823078 0.023974
O O8 0.271342 0.000000 0.000000
O O9 0.495535 0.152757 0.750000
O O10 0.361515 0.126128 0.846266
O O11 0.406559 0.998170 0.828408
O O12 0.851696 0.423877 0.149322
O O13 0.894213 0.607591 0.137038
O O14 0.848518 0.300123 0.250000
O O15 0.275044 0.188158 0.250000
O O16 0.225068 0.264909 0.141705
#
# Coordination Sequence:
#
# PCOD9586782 Si02
#       7
#    12  12  12  12  12  12  12
#     4   9  18  32  55  83 119 154 201 245 305 386
#     4  12  23  39  62  91 126 170 219 276 337 395
#     4  10  20  34  55  87 125 163 205 255 318 387
#     4   9  17  33  59  85 116 154 197 250 313 380
#     4  10  20  34  57  89 121 156 205 262 320 379
#     4  11  23  40  64  95 127 165 222 283 334 393
#     4  11  21  39  62  90 123 172 219 269 329 399
#
# _framework density 21.154274999999998
#
# number of rings (size 3 to 8) (size 9 to 14) (size 15 to 20)
#    0.000    1.714    2.857    2.571    2.000    4.000 
#    0.857    0.000    0.000    2.857    0.000    2.000 
#    0.000    0.000    0.000    0.000    0.000    0.000 
#
# Total GULP energy -468130.517838 kJ/mol
# GULP energy per Si atom -5572.982355 kJ/mol
# Density = 2.110613 g / cm^3
# Si number density = 21.154275 Si / 1000 Ang^3
#
#
#
# Elastic Constant Matrix: (Units=GPa)
#
#
# Indices 1 2 3 4 5 6 
#
# 1 43.8164 3.9887 19.9888 0.0000 0.0000 0.0000
# 2 3.9887 43.8164 19.9888 0.0000 0.0000 0.0000
# 3 19.9888 19.9888 127.2265 0.0000 0.0000 0.0000
# 4 0.0000 0.0000 0.0000 6.9288 0.0000 0.0000
# 5 0.0000 0.0000 0.0000 0.0000 6.9288 0.0000
# 6 0.0000 0.0000 0.0000 0.0000 0.0000 19.9139
#
#
#
# Elastic Compliance Matrix: (Units=1/GPa)
#
#
# Indices 1 2 3 4 5 6 
#
# 1 0.024595 -0.000513 -0.003784 0.000000 0.000000 0.000000
# 2 -0.000513 0.024595 -0.003784 0.000000 0.000000 0.000000
# 3 -0.003784 -0.003784 0.009049 0.000000 0.000000 0.000000
# 4 0.000000 0.000000 0.000000 0.144325 0.000000 0.000000
# 5 0.000000 0.000000 0.000000 0.000000 0.144325 0.000000
# 6 0.000000 0.000000 0.000000 0.000000 0.000000 0.050216
#
#
# Mechanical properties :
#
#
# Convention : Reuss Voigt Hill
#
# Bulk Modulus (GPa) = 23.76472 33.64351 28.70411
# Shear Modulus (GPa) = 11.70160 18.14717 14.92439
#
# Velocity S-wave (km/s) = 2.35448 2.93208 2.65901
# Velocity P-wave (km/s) = 4.31854 5.23462 4.79849
#
# Compressibility (1/GPa) = 0.04207919
#
# Stress axis : x y z
#
# Youngs Moduli (GPa) = 40.65823 40.65823 110.51065
#
# Poissons Ratio (x) = 0.02085 0.41813
# Poissons Ratio (y) = 0.02085 0.41813
# Poissons Ratio (z) = 0.15384 0.15384
#
# Static dielectric constant tensor:
#      x y z
#    x 1.803130 0.000000 0.000000 
#    y 0.000000 1.803130 0.000000 
#    z 0.000000 0.000000 1.813140 
# 
# From -- ./inp_files/3172.got.cif
#   From: 2010.05.17/outbox.cif.g08.bks.cpg/sg190_2_cif.got.tgz:3172.got - 2010.05.20 12:16:56.
