data_PCOD9586153
_publ_section_title
;
Structure prediction by ZEFSAII (Michael W. Deem and Ramdas Pophale) SiO2 
 PCOD9586153
Probable space group: P -6 2 M
;
_chemical_formula_sum "Si O2"
_cell_formula_units_Z 75
_cell_length_a 17.755571
_cell_length_b 17.755571
_cell_length_c 15.023215
_cell_angle_alpha 90.000000
_cell_angle_beta 90.000000
_cell_angle_gamma 120.000000
_cell_volume 4101.689688
_symmetry_space_group_name_H-M "P -6 2 M"
_symmetry_group_IT_number 189
_symmetry_cell_setting 'hexagonal'
loop_
_space_group_symop_operation_xyz
x,y,z
-x+y,-x,-z
-y,x-y,z
x,y,-z
-x+y,-x,z
-y,x-y,-z
x-y,-y,-z
-x,-x+y,-z
y,x,-z
y,x,z
x-y,-y,z
-x,-x+y,z
loop_
_atom_site_type_symbol
_atom_site_label
_atom_site_fract_x
_atom_site_fract_y
_atom_site_fract_z
Si Si1 0.848723 0.366573 0.359110
Si Si2 0.181680 0.705252 0.397563
Si Si3 0.896129 0.196693 0.100109
Si Si4 0.636142 0.531928 0.842291
Si Si5 0.753676 0.103979 0.760388
Si Si6 0.475572 0.369887 0.903577
Si Si7 0.407134 0.000000 0.500000
O O1 0.758253 0.286018 0.391389
O O2 0.851606 0.458620 0.365477
O O3 0.861001 0.346518 0.257817
O O4 0.924035 0.372904 0.422325
O O5 0.154713 0.701968 0.500000
O O6 0.146054 0.754157 0.334360
O O7 0.879204 0.277979 0.107458
O O8 0.841516 0.136006 0.182539
O O9 0.000000 0.237178 0.110699
O O10 0.871900 0.158186 0.000000
O O11 0.577413 0.577413 0.836109
O O12 0.576032 0.439917 0.888976
O O13 0.696727 0.130399 0.823760
O O14 0.703460 0.000000 0.751297
O O15 0.423183 0.423183 0.904213
O O16 0.461916 0.327208 0.000000
#
# Coordination Sequence:
#
# PCOD9586153 Si02
#       7
#    12  12  12  12  12  12   3
#     4  12  23  38  57  81 113 154 197 242 283 341
#     4  12  24  39  57  82 117 157 198 243 292 339
#     4  10  21  38  60  84 113 151 192 238 290 348
#     4  10  18  31  54  80 109 143 188 230 273 330
#     4  11  23  36  57  85 115 148 188 239 298 348
#     4   9  17  30  50  77 108 140 176 222 274 331
#     4  12  24  36  64  84 100 150 204 246 284 332
#
# _framework density 18.285148
#
# number of rings (size 3 to 8) (size 9 to 14) (size 15 to 20)
#    0.000    1.280    5.600    1.280    1.120    3.200 
#    0.000    0.000    0.000    0.320    0.000    4.480 
#    0.000    0.000    0.000    0.000    0.000    0.000 
#
# Total GULP energy -417684.530524 kJ/mol
# GULP energy per Si atom -5569.127074 kJ/mol
# Density = 1.824353 g / cm^3
# Si number density = 18.285148 Si / 1000 Ang^3
#
#
#
# Elastic Constant Matrix: (Units=GPa)
#
#
# Indices 1 2 3 4 5 6 
#
# 1 42.5724 8.8817 16.2317 0.0000 0.0000 0.0000
# 2 8.8817 42.5724 16.2317 0.0000 0.0000 0.0000
# 3 16.2317 16.2317 122.8797 0.0000 0.0000 0.0000
# 4 0.0000 0.0000 0.0000 24.8953 0.0000 0.0000
# 5 0.0000 0.0000 0.0000 0.0000 24.8953 0.0000
# 6 0.0000 0.0000 0.0000 0.0000 0.0000 16.8453
#
#
#
# Elastic Compliance Matrix: (Units=1/GPa)
#
#
# Indices 1 2 3 4 5 6 
#
# 1 0.025442 -0.004240 -0.002801 0.000000 0.000000 0.000000
# 2 -0.004240 0.025442 -0.002801 0.000000 0.000000 0.000000
# 3 -0.002801 -0.002801 0.008878 0.000000 0.000000 0.000000
# 4 0.000000 0.000000 0.000000 0.040168 0.000000 0.000000
# 5 0.000000 0.000000 0.000000 0.000000 0.040168 0.000000
# 6 0.000000 0.000000 0.000000 0.000000 0.000000 0.059364
#
#
# Mechanical properties :
#
#
# Convention : Reuss Voigt Hill
#
# Bulk Modulus (GPa) = 24.95074 32.30161 28.62617
# Shear Modulus (GPa) = 21.50501 24.43913 22.97207
#
# Velocity S-wave (km/s) = 3.43314 3.65986 3.54831
# Velocity P-wave (km/s) = 5.42128 5.96350 5.69884
#
# Compressibility (1/GPa) = 0.04007898
#
# Stress axis : x y z
#
# Youngs Moduli (GPa) = 39.30539 39.30539 112.63880
#
# Poissons Ratio (x) = 0.16666 0.31546
# Poissons Ratio (y) = 0.16666 0.31546
# Poissons Ratio (z) = 0.11008 0.11008
#
# Static dielectric constant tensor:
#      x y z
#    x 1.630940 0.000000 0.000000 
#    y 0.000000 1.630940 0.000000 
#    z 0.000000 0.000000 1.652580 
# 
# From -- ./inp_files/2711.got.cif
#   From: 2010.05.17/outbox.cif.g08.bks.cpg/sg189_2_cif.got.tgz:2711.got - 2010.05.20 12:14:34.
