data_PCOD9586397
_publ_section_title
;
Structure prediction by ZEFSAII (Michael W. Deem and Ramdas Pophale) SiO2 
 PCOD9586397
Probable space group: P -6 2 M
;
_chemical_formula_sum "Si O2"
_cell_formula_units_Z 72
_cell_length_a 24.202116
_cell_length_b 24.202116
_cell_length_c 8.543320
_cell_angle_alpha 90.000000
_cell_angle_beta 90.000000
_cell_angle_gamma 120.000000
_cell_volume 4333.751268
_symmetry_space_group_name_H-M "P -6 2 M"
_symmetry_group_IT_number 189
_symmetry_cell_setting 'hexagonal'
loop_
_space_group_symop_operation_xyz
x,y,z
-x+y,-x,-z
-y,x-y,z
x,y,-z
-x+y,-x,z
-y,x-y,-z
x-y,-y,-z
-x,-x+y,-z
y,x,-z
y,x,z
x-y,-y,z
-x,-x+y,z
loop_
_atom_site_type_symbol
_atom_site_label
_atom_site_fract_x
_atom_site_fract_y
_atom_site_fract_z
Si Si1 0.927808 0.263417 0.810859
Si Si2 0.595188 0.128547 0.310667
Si Si3 0.522464 0.667955 0.312493
Si Si4 0.407218 0.407218 0.690681
Si Si5 0.668806 0.864176 0.811609
Si Si6 0.000000 0.720129 0.686856
Si Si7 0.788892 0.521267 0.812570
O O1 0.902793 0.310583 0.755404
O O2 0.874547 0.192033 0.760509
O O3 0.000000 0.288930 0.757356
O O4 0.927318 0.263319 0.000000
O O5 0.597441 0.130688 0.500000
O O6 0.532853 0.131241 0.260848
O O7 0.661277 0.185552 0.246526
O O8 0.591885 0.063113 0.259093
O O9 0.526425 0.668257 0.500000
O O10 0.505782 0.721488 0.258002
O O11 0.406382 0.406382 0.500000
O O12 0.343814 0.343814 0.744557
O O13 0.594902 0.838734 0.764967
O O14 0.713719 0.934170 0.744933
O O15 0.671750 0.867524 0.000000
O O16 0.000000 0.719532 0.500000
O O17 0.784660 0.519930 0.000000
#
# Coordination Sequence:
#
# PCOD9586397 Si02
#       7
#    12  12  12   6  12   6  12
#     4   9  19  36  55  75 103 137 171 208 250 293
#     4  10  20  35  53  73  99 129 166 211 258 308
#     4  10  21  34  53  75  98 130 170 213 258 310
#     4   9  18  31  49  73 101 129 159 202 253 300
#     4   9  18  32  50  73 102 132 162 199 244 295
#     4  11  19  29  51  77 103 135 163 198 243 294
#     4  10  20  35  53  70  95 128 166 211 259 306
#
# _framework density 16.613780999999999
#
# number of rings (size 3 to 8) (size 9 to 14) (size 15 to 20)
#    0.000    2.333    1.667    2.250    1.167    4.333 
#    1.000    0.417    0.000    0.000    0.000    0.000 
#    0.833    0.000    1.500    0.000    0.500    0.000 
#
# Total GULP energy -401629.977403 kJ/mol
# GULP energy per Si atom -5578.194131 kJ/mol
# Density = 1.657597 g / cm^3
# Si number density = 16.613781 Si / 1000 Ang^3
#
#
#
# Elastic Constant Matrix: (Units=GPa)
#
#
# Indices 1 2 3 4 5 6 
#
# 1 116.8270 76.2183 19.0235 0.0000 0.0000 0.0000
# 2 76.2183 116.8270 19.0235 0.0000 0.0000 0.0000
# 3 19.0235 19.0235 10.7833 0.0000 0.0000 0.0000
# 4 0.0000 0.0000 0.0000 21.3313 0.0000 0.0000
# 5 0.0000 0.0000 0.0000 0.0000 21.3313 0.0000
# 6 0.0000 0.0000 0.0000 0.0000 0.0000 20.3044
#
#
#
# Elastic Compliance Matrix: (Units=1/GPa)
#
#
# Indices 1 2 3 4 5 6 
#
# 1 0.016283 -0.008342 -0.014010 0.000000 0.000000 0.000000
# 2 -0.008342 0.016283 -0.014010 0.000000 0.000000 0.000000
# 3 -0.014010 -0.014010 0.142168 0.000000 0.000000 0.000000
# 4 0.000000 0.000000 0.000000 0.046880 0.000000 0.000000
# 5 0.000000 0.000000 0.000000 0.000000 0.046880 0.000000
# 6 0.000000 0.000000 0.000000 0.000000 0.000000 0.049250
#
#
# Mechanical properties :
#
#
# Convention : Reuss Voigt Hill
#
# Bulk Modulus (GPa) = 9.80286 52.55199 31.17743
# Shear Modulus (GPa) = 11.77939 21.27152 16.52545
#
# Velocity S-wave (km/s) = 2.66562 3.58209 3.15728
# Velocity P-wave (km/s) = 3.92266 6.98632 5.66551
#
# Compressibility (1/GPa) = 0.10201100
#
# Stress axis : x y z
#
# Youngs Moduli (GPa) = 61.41273 61.41273 7.03396
#
# Poissons Ratio (x) = 0.51230 0.09854
# Poissons Ratio (y) = 0.51230 0.09854
# Poissons Ratio (z) = 0.86038 0.86038
#
# Static dielectric constant tensor:
#      x y z
#    x 1.553090 0.000000 0.000000 
#    y 0.000000 1.553090 0.000000 
#    z 0.000000 0.000000 1.563410 
# 
# From -- ./inp_files/1339.got.cif
#   From: 2010.05.17/outbox.cif.g08.bks.cpg/sg189_1_cif.got.tgz:1339.got - 2010.05.20 12:14:34.
