data_PCOD9586131
_publ_section_title
;
Structure prediction by ZEFSAII (Michael W. Deem and Ramdas Pophale) SiO2 
 PCOD9586131
Probable space group: P -6 2 M
;
_chemical_formula_sum "Si O2"
_cell_formula_units_Z 84
_cell_length_a 13.904546
_cell_length_b 13.904546
_cell_length_c 28.855075
_cell_angle_alpha 90.000000
_cell_angle_beta 90.000000
_cell_angle_gamma 120.000000
_cell_volume 4831.327363
_symmetry_space_group_name_H-M "P -6 2 M"
_symmetry_group_IT_number 189
_symmetry_cell_setting 'hexagonal'
loop_
_space_group_symop_operation_xyz
x,y,z
-x+y,-x,-z
-y,x-y,z
x,y,-z
-x+y,-x,z
-y,x-y,-z
x-y,-y,-z
-x,-x+y,-z
y,x,-z
y,x,z
x-y,-y,z
-x,-x+y,z
loop_
_atom_site_type_symbol
_atom_site_label
_atom_site_fract_x
_atom_site_fract_y
_atom_site_fract_z
Si Si1 0.479339 0.740030 0.447610
Si Si2 0.133041 0.693753 0.206648
Si Si3 0.127537 0.336688 0.280892
Si Si4 0.588487 0.872243 0.362747
Si Si5 0.333528 0.871643 0.054899
Si Si6 0.436331 0.870201 0.709635
Si Si7 0.460183 0.327416 0.100683
O O1 0.392266 0.786401 0.443399
O O2 0.524167 0.762413 0.500000
O O3 0.566475 0.794346 0.406770
O O4 0.162750 0.807825 0.232620
O O5 0.175172 0.633434 0.242643
O O6 0.171156 0.700873 0.154172
O O7 0.000000 0.618936 0.203901
O O8 0.197700 0.331204 0.323848
O O9 0.132284 0.453871 0.290289
O O10 0.000000 0.242362 0.279324
O O11 0.470943 0.826955 0.335231
O O12 0.638546 0.000000 0.377448
O O13 0.211030 0.782158 0.071386
O O14 0.423489 0.851103 0.081789
O O15 0.369314 0.000000 0.063839
O O16 0.345160 0.859820 0.000000
O O17 0.529573 0.000000 0.709196
O O18 0.373132 0.373132 0.097207
#
# Coordination Sequence:
#
# PCOD9586131 Si02
#       7
#    12  12  12  12  12  12  12
#     4   8  16  29  46  69  97 128 162 199 243 300
#     4   9  19  34  48  71 102 128 162 201 247 300
#     4  10  19  31  49  69  95 132 168 205 246 296
#     4  10  18  30  47  68  97 128 163 207 249 294
#     4  10  21  36  55  80 107 139 180 219 263 325
#     4   8  16  29  43  64  93 123 158 196 237 290
#     4  10  21  36  56  79 110 144 175 223 274 320
#
# _framework density 17.386524999999999
#
# number of rings (size 3 to 8) (size 9 to 14) (size 15 to 20)
#    0.286    2.429    0.000    2.857    2.000    1.714 
#    6.857    0.000    0.000    3.857    0.000    0.000 
#    0.000    0.000    0.000    0.000    0.000    0.000 
#
# Total GULP energy -467675.211686 kJ/mol
# GULP energy per Si atom -5567.562044 kJ/mol
# Density = 1.734695 g / cm^3
# Si number density = 17.386525 Si / 1000 Ang^3
#
#
#
# Elastic Constant Matrix: (Units=GPa)
#
#
# Indices 1 2 3 4 5 6 
#
# 1 46.8726 4.2661 23.3856 0.0000 0.0000 0.0000
# 2 4.2661 46.8726 23.3856 0.0000 0.0000 0.0000
# 3 23.3856 23.3856 114.9539 0.0000 0.0000 0.0000
# 4 0.0000 0.0000 0.0000 12.0209 0.0000 0.0000
# 5 0.0000 0.0000 0.0000 0.0000 12.0209 0.0000
# 6 0.0000 0.0000 0.0000 0.0000 0.0000 21.3033
#
#
#
# Elastic Compliance Matrix: (Units=1/GPa)
#
#
# Indices 1 2 3 4 5 6 
#
# 1 0.023748 0.000277 -0.004887 0.000000 0.000000 0.000000
# 2 0.000277 0.023748 -0.004887 0.000000 0.000000 0.000000
# 3 -0.004887 -0.004887 0.010688 0.000000 0.000000 0.000000
# 4 0.000000 0.000000 0.000000 0.083188 0.000000 0.000000
# 5 0.000000 0.000000 0.000000 0.000000 0.083188 0.000000
# 6 0.000000 0.000000 0.000000 0.000000 0.000000 0.046941
#
#
# Mechanical properties :
#
#
# Convention : Reuss Voigt Hill
#
# Bulk Modulus (GPa) = 25.51846 34.53040 30.02443
# Shear Modulus (GPa) = 16.47125 19.57980 18.02552
#
# Velocity S-wave (km/s) = 3.08126 3.35945 3.22336
# Velocity P-wave (km/s) = 5.23143 5.91198 5.58208
#
# Compressibility (1/GPa) = 0.03918732
#
# Stress axis : x y z
#
# Youngs Moduli (GPa) = 42.10942 42.10942 93.56546
#
# Poissons Ratio (x) = -0.01167 0.45730
# Poissons Ratio (y) = -0.01167 0.45730
# Poissons Ratio (z) = 0.20581 0.20581
#
# Static dielectric constant tensor:
#      x y z
#    x 1.603220 0.000000 0.000000 
#    y 0.000000 1.603220 0.000000 
#    z 0.000000 0.000000 1.621010 
# 
# From -- ./inp_files/3679.got.cif
#   From: 2010.05.17/outbox.cif.g08.bks.cpg/sg189_2_cif.got.tgz:3679.got - 2010.05.20 12:14:34.
