data_PCOD9586604
_publ_section_title
;
Structure prediction by ZEFSAII (Michael W. Deem and Ramdas Pophale) SiO2 
 PCOD9586604
Probable space group: P -6 2 C
;
_chemical_formula_sum "Si O2"
_cell_formula_units_Z 66
_cell_length_a 17.491108
_cell_length_b 17.491108
_cell_length_c 13.672052
_cell_angle_alpha 90.000000
_cell_angle_beta 90.000000
_cell_angle_gamma 120.000000
_cell_volume 3622.421443
_symmetry_space_group_name_H-M "P -6 2 C"
_symmetry_group_IT_number 190
_symmetry_cell_setting 'hexagonal'
loop_
_space_group_symop_operation_xyz
x,y,z
-x+y,-x,1/2-z
-y,x-y,z
x,y,1/2-z
-x+y,-x,z
-y,x-y,1/2-z
x-y,-y,-z
-x,-x+y,-z
y,x,-z
y,x,1/2+z
x-y,-y,1/2+z
-x,-x+y,1/2+z
loop_
_atom_site_type_symbol
_atom_site_label
_atom_site_fract_x
_atom_site_fract_y
_atom_site_fract_z
Si Si1 0.624988 0.773942 0.363428
Si Si2 0.587262 0.441495 0.861088
Si Si3 0.317128 0.855895 0.635981
Si Si4 0.694195 0.694195 0.500000
Si Si5 0.297894 0.475837 0.000622
Si Si6 0.575597 0.051958 0.141951
O O1 0.646708 0.791507 0.250000
O O2 0.534145 0.677573 0.371701
O O3 0.698929 0.768874 0.427943
O O4 0.594003 0.835230 0.415484
O O5 0.584959 0.409360 0.750000
O O6 0.564678 0.366380 0.941077
O O7 0.507778 0.462786 0.872418
O O8 0.289710 0.852282 0.750000
O O9 0.252883 0.768108 0.575097
O O10 0.418322 0.879493 0.638818
O O11 0.320931 0.937049 0.575005
O O12 0.350776 0.439861 0.939180
O O13 0.611129 0.054114 0.250000
#
# Coordination Sequence:
#
# PCOD9586604 Si02
#       6
#    12  12  12   6  12  12
#     4  10  20  33  48  68  90 114 153 202 247 292
#     4  10  20  35  52  66  86 122 167 204 239 299
#     4  10  20  33  48  68  90 114 153 202 247 292
#     4  10  16  28  52  68  78 110 148 188 230 288
#     4  11  20  29  46  65  90 111 142 192 250 293
#     4  10  20  35  52  66  86 122 167 204 239 299
#
# _framework density 18.219857000000001
#
# number of rings (size 3 to 8) (size 9 to 14) (size 15 to 20)
#    0.000    1.818    1.818    4.364    0.000    0.000 
#    8.727    0.000    0.000    0.000    0.000    0.000 
#    0.000    0.000    0.000    0.000    0.000    0.000 
#
# Total GULP energy -368124.241782 kJ/mol
# GULP energy per Si atom -5577.640027 kJ/mol
# Density = 1.817839 g / cm^3
# Si number density = 18.219857 Si / 1000 Ang^3
#
#
#
# Elastic Constant Matrix: (Units=GPa)
#
#
# Indices 1 2 3 4 5 6 
#
# 1 38.5914 5.1735 24.2220 0.0000 0.0000 0.0000
# 2 5.1735 38.5914 24.2220 0.0000 0.0000 0.0000
# 3 24.2220 24.2220 142.3077 0.0000 0.0000 0.0000
# 4 0.0000 0.0000 0.0000 26.6570 0.0000 0.0000
# 5 0.0000 0.0000 0.0000 0.0000 26.6570 0.0000
# 6 0.0000 0.0000 0.0000 0.0000 0.0000 16.7089
#
#
#
# Elastic Compliance Matrix: (Units=1/GPa)
#
#
# Indices 1 2 3 4 5 6 
#
# 1 0.029039 -0.000885 -0.004792 0.000000 0.000000 0.000000
# 2 -0.000885 0.029039 -0.004792 0.000000 0.000000 0.000000
# 3 -0.004792 -0.004792 0.008658 0.000000 0.000000 0.000000
# 4 0.000000 0.000000 0.000000 0.037514 0.000000 0.000000
# 5 0.000000 0.000000 0.000000 0.000000 0.037514 0.000000
# 6 0.000000 0.000000 0.000000 0.000000 0.000000 0.059848
#
#
# Mechanical properties :
#
#
# Convention : Reuss Voigt Hill
#
# Bulk Modulus (GPa) = 21.83516 36.30283 29.06899
# Shear Modulus (GPa) = 21.02467 25.06278 23.04372
#
# Velocity S-wave (km/s) = 3.40066 3.71290 3.56020
# Velocity P-wave (km/s) = 5.23733 6.19265 5.73492
#
# Compressibility (1/GPa) = 0.04579770
#
# Stress axis : x y z
#
# Youngs Moduli (GPa) = 34.43657 34.43657 115.49605
#
# Poissons Ratio (x) = 0.03048 0.55346
# Poissons Ratio (y) = 0.03048 0.55346
# Poissons Ratio (z) = 0.16502 0.16502
#
# Static dielectric constant tensor:
#      x y z
#    x 1.640240 0.000000 0.000000 
#    y 0.000000 1.640240 0.000000 
#    z 0.000000 0.000000 1.703270 
# 
# From -- ./inp_files/3021.got.cif
#   From: 2010.05.17/outbox.cif.g08.bks.cpg/sg190_2_cif.got.tgz:3021.got - 2010.05.20 12:16:56.
