data_PCOD9586273
_publ_section_title
;
Structure prediction by ZEFSAII (Michael W. Deem and Ramdas Pophale) SiO2 
 PCOD9586273
Probable space group: P -6 2 M
;
_chemical_formula_sum "Si O2"
_cell_formula_units_Z 96
_cell_length_a 17.540391
_cell_length_b 17.540391
_cell_length_c 19.547325
_cell_angle_alpha 90.000000
_cell_angle_beta 90.000000
_cell_angle_gamma 120.000000
_cell_volume 5208.306164
_symmetry_space_group_name_H-M "P -6 2 M"
_symmetry_group_IT_number 189
_symmetry_cell_setting 'hexagonal'
loop_
_space_group_symop_operation_xyz
x,y,z
-x+y,-x,-z
-y,x-y,z
x,y,-z
-x+y,-x,z
-y,x-y,-z
x-y,-y,-z
-x,-x+y,-z
y,x,-z
y,x,z
x-y,-y,z
-x,-x+y,z
loop_
_atom_site_type_symbol
_atom_site_label
_atom_site_fract_x
_atom_site_fract_y
_atom_site_fract_z
Si Si1 0.284297 0.463592 0.922795
Si Si2 0.892729 0.401327 0.422078
Si Si3 0.455646 0.096083 0.779457
Si Si4 0.664380 0.770922 0.578952
Si Si5 0.627321 0.844770 0.220001
Si Si6 0.607125 0.105724 0.299339
Si Si7 0.378066 0.859418 0.924439
Si Si8 0.106601 0.209690 0.306376
O O1 0.251331 0.396354 0.858800
O O2 0.232750 0.518732 0.919892
O O3 0.386838 0.535141 0.916911
O O4 0.268608 0.424308 0.000000
O O5 0.864369 0.398447 0.500000
O O6 0.865903 0.301689 0.400476
O O7 0.862640 0.453983 0.372407
O O8 0.000000 0.455365 0.421661
O O9 0.412359 0.154297 0.766776
O O10 0.553980 0.134596 0.751878
O O11 0.461049 0.089111 0.860508
O O12 0.396364 0.000000 0.747563
O O13 0.663084 0.798746 0.500000
O O14 0.716478 0.716478 0.577530
O O15 0.719888 0.849783 0.631551
O O16 0.571120 0.870653 0.269806
O O17 0.728971 0.889809 0.241828
O O18 0.553663 0.000000 0.300644
O O19 0.379853 0.895130 0.000000
O O20 0.142959 0.142959 0.320452
O O21 0.000000 0.156997 0.297245
#
# Coordination Sequence:
#
# PCOD9586273 Si02
#       8
#    12  12  12  12  12  12  12  12
#     4   9  17  30  50  77 111 149 184 221 270 332
#     4   8  14  27  51  80 109 143 180 216 259 317
#     4  10  20  33  50  75 107 142 179 221 270 325
#     4   8  15  31  57  86 112 141 180 222 271 338
#     4  11  21  35  54  80 109 148 187 236 279 339
#     4  10  19  33  51  75 107 140 178 226 272 317
#     4   9  16  28  47  74 108 144 179 211 257 322
#     4  11  23  39  59  82 112 150 194 248 309 366
#
# _framework density 18.432096000000001
#
# number of rings (size 3 to 8) (size 9 to 14) (size 15 to 20)
#    0.000    2.500    1.250    2.625    0.000    3.500 
#    0.750    0.625    0.000    5.625    0.000    0.000 
#    0.000    1.000    0.000    0.000    0.000    0.000 
#
# Total GULP energy -534684.731993 kJ/mol
# GULP energy per Si atom -5569.632625 kJ/mol
# Density = 1.839014 g / cm^3
# Si number density = 18.432096 Si / 1000 Ang^3
#
#
#
# Elastic Constant Matrix: (Units=GPa)
#
#
# Indices 1 2 3 4 5 6 
#
# 1 60.0222 35.8950 35.5482 0.0000 0.0000 0.0000
# 2 35.8950 60.0222 35.5482 0.0000 0.0000 0.0000
# 3 35.5482 35.5482 122.9775 0.0000 0.0000 0.0000
# 4 0.0000 0.0000 0.0000 16.7448 0.0000 0.0000
# 5 0.0000 0.0000 0.0000 0.0000 16.7448 0.0000
# 6 0.0000 0.0000 0.0000 0.0000 0.0000 12.0636
#
#
#
# Elastic Compliance Matrix: (Units=1/GPa)
#
#
# Indices 1 2 3 4 5 6 
#
# 1 0.027358 -0.014089 -0.003835 0.000000 0.000000 0.000000
# 2 -0.014089 0.027358 -0.003835 0.000000 0.000000 0.000000
# 3 -0.003835 -0.003835 0.010349 0.000000 0.000000 0.000000
# 4 0.000000 0.000000 0.000000 0.059720 0.000000 0.000000
# 5 0.000000 0.000000 0.000000 0.000000 0.059720 0.000000
# 6 0.000000 0.000000 0.000000 0.000000 0.000000 0.082894
#
#
# Mechanical properties :
#
#
# Convention : Reuss Voigt Hill
#
# Bulk Modulus (GPa) = 46.41598 50.77833 48.59715
# Shear Modulus (GPa) = 15.71832 18.17935 16.94883
#
# Velocity S-wave (km/s) = 2.92339 3.14393 3.03566
# Velocity P-wave (km/s) = 6.05242 6.38653 6.22171
#
# Compressibility (1/GPa) = 0.02154431
#
# Stress axis : x y z
#
# Youngs Moduli (GPa) = 36.55262 36.55262 96.62826
#
# Poissons Ratio (x) = 0.51500 0.37061
# Poissons Ratio (y) = 0.51500 0.37061
# Poissons Ratio (z) = 0.14020 0.14020
#
# Static dielectric constant tensor:
#      x y z
#    x 1.697940 0.000000 0.000000 
#    y 0.000000 1.697940 0.000000 
#    z 0.000000 0.000000 1.694520 
# 
# From -- ./inp_files/3497.got.cif
#   From: 2010.05.17/outbox.cif.g08.bks.cpg/sg189_2_cif.got.tgz:3497.got - 2010.05.20 12:14:34.
