data_PCOD9586393
_publ_section_title
;
Structure prediction by ZEFSAII (Michael W. Deem and Ramdas Pophale) SiO2 
 PCOD9586393
Probable space group: P -6 2 M
;
_chemical_formula_sum "Si O2"
_cell_formula_units_Z 48
_cell_length_a 18.989807
_cell_length_b 18.989807
_cell_length_c 8.037029
_cell_angle_alpha 90.000000
_cell_angle_beta 90.000000
_cell_angle_gamma 120.000000
_cell_volume 2509.962707
_symmetry_space_group_name_H-M "P -6 2 M"
_symmetry_group_IT_number 189
_symmetry_cell_setting 'hexagonal'
loop_
_space_group_symop_operation_xyz
x,y,z
-x+y,-x,-z
-y,x-y,z
x,y,-z
-x+y,-x,z
-y,x-y,-z
x-y,-y,-z
-x,-x+y,-z
y,x,-z
y,x,z
x-y,-y,z
-x,-x+y,z
loop_
_atom_site_type_symbol
_atom_site_label
_atom_site_fract_x
_atom_site_fract_y
_atom_site_fract_z
Si Si1 0.469830 0.844741 0.500000
Si Si2 0.291342 0.817418 0.500000
Si Si3 0.568947 0.909505 0.819288
Si Si4 0.093160 0.185649 0.299364
Si Si5 0.148997 0.366417 0.813445
O O1 0.376805 0.820475 0.500000
O O2 0.494040 0.773863 0.500000
O O3 0.510441 0.894440 0.666647
O O4 0.277073 0.859394 0.337317
O O5 0.600222 0.845860 0.814306
O O6 0.644373 0.000000 0.805926
O O7 0.529569 0.901658 0.000000
O O8 0.101920 0.196057 0.500000
O O9 0.154363 0.154363 0.242790
O O10 0.109096 0.270886 0.225708
O O11 0.000000 0.117908 0.264395
O O12 0.125223 0.378304 0.000000
#
# Coordination Sequence:
#
# PCOD9586393 Si02
#       5
#     6   6  12  12  12
#     4  10  20  34  56  79 106 140 172 215 268 324
#     4  10  21  38  56  83 111 142 181 225 272 332
#     4   9  18  33  54  81 107 132 171 221 269 318
#     4  10  20  35  56  83 115 151 193 239 283 326
#     4  10  20  36  58  82 110 146 185 227 275 329
#
# _framework density 19.123791000000001
#
# number of rings (size 3 to 8) (size 9 to 14) (size 15 to 20)
#    0.000    2.250    1.250    1.625    0.000    4.000 
#    0.000    2.500    0.000    4.500    0.000    0.000 
#    0.000    0.000    0.000    0.000    0.000    0.000 
#
# Total GULP energy -267561.187855 kJ/mol
# GULP energy per Si atom -5574.191414 kJ/mol
# Density = 1.908026 g / cm^3
# Si number density = 19.123791 Si / 1000 Ang^3
#
#
#
# Elastic Constant Matrix: (Units=GPa)
#
#
# Indices 1 2 3 4 5 6 
#
# 1 47.2139 -1.8789 27.7695 0.0000 0.0000 0.0000
# 2 -1.8789 47.2139 27.7695 0.0000 0.0000 0.0000
# 3 27.7695 27.7695 125.2239 0.0000 0.0000 0.0000
# 4 0.0000 0.0000 0.0000 -23.7614 0.0000 0.0000
# 5 0.0000 0.0000 0.0000 0.0000 -23.7614 0.0000
# 6 0.0000 0.0000 0.0000 0.0000 0.0000 24.5464
#
#
#
# Elastic Compliance Matrix: (Units=1/GPa)
#
#
# Indices 1 2 3 4 5 6 
#
# 1 0.025328 0.004958 -0.006716 0.000000 0.000000 0.000000
# 2 0.004958 0.025328 -0.006716 0.000000 0.000000 0.000000
# 3 -0.006716 -0.006716 0.010964 0.000000 0.000000 0.000000
# 4 0.000000 0.000000 0.000000 -0.042085 0.000000 0.000000
# 5 0.000000 0.000000 0.000000 0.000000 -0.042085 0.000000
# 6 0.000000 0.000000 0.000000 0.000000 0.000000 0.040739
#
#
# Mechanical properties :
#
#
# Convention : Reuss Voigt Hill
#
# Bulk Modulus (GPa) = 22.38564 36.33020 29.35792
# Shear Modulus (GPa) = 99.94491 6.47085 53.20788
#
# Velocity S-wave (km/s) = 7.23709 1.84147 5.28046
# Velocity P-wave (km/s) = 9.03134 4.85386 7.25000
#
# Compressibility (1/GPa) = 0.04467150
#
# Stress axis : x y z
#
# Youngs Moduli (GPa) = 39.48246 39.48246 91.20410
#
# Poissons Ratio (x) = -0.19576 0.61254
# Poissons Ratio (y) = -0.19576 0.61254
# Poissons Ratio (z) = 0.26517 0.26517
#
# Static dielectric constant tensor:
#      x y z
#    x 1.642290 0.000000 0.000000 
#    y 0.000000 1.642290 0.000000 
#    z 0.000000 0.000000 1.712270 
# 
# From -- ./inp_files/635.got.cif
#   From: 2010.05.17/outbox.cif.g08.bks.cpg/sg189_1_cif.got.tgz:635.got - 2010.05.20 12:14:34.
