data_PCOD9586338
_publ_section_title
;
Structure prediction by ZEFSAII (Michael W. Deem and Ramdas Pophale) SiO2 
 PCOD9586338
Probable space group: P -6 2 M
;
_chemical_formula_sum "Si O2"
_cell_formula_units_Z 66
_cell_length_a 18.515386
_cell_length_b 18.515386
_cell_length_c 14.115433
_cell_angle_alpha 90.000000
_cell_angle_beta 90.000000
_cell_angle_gamma 120.000000
_cell_volume 4190.736721
_symmetry_space_group_name_H-M "P -6 2 M"
_symmetry_group_IT_number 189
_symmetry_cell_setting 'hexagonal'
loop_
_space_group_symop_operation_xyz
x,y,z
-x+y,-x,-z
-y,x-y,z
x,y,-z
-x+y,-x,z
-y,x-y,-z
x-y,-y,-z
-x,-x+y,-z
y,x,-z
y,x,z
x-y,-y,z
-x,-x+y,z
loop_
_atom_site_type_symbol
_atom_site_label
_atom_site_fract_x
_atom_site_fract_y
_atom_site_fract_z
Si Si1 0.801862 0.183638 0.797618
Si Si2 0.095543 0.621251 0.886201
Si Si3 0.907149 0.812353 0.500000
Si Si4 0.901505 0.098490 0.114206
Si Si5 0.330841 0.234775 0.606500
Si Si6 0.639546 0.539026 0.889189
O O1 0.713997 0.150098 0.849911
O O2 0.849288 0.135600 0.835360
O O3 0.779136 0.160161 0.687940
O O4 0.858899 0.280054 0.823587
O O5 0.124184 0.554581 0.860786
O O6 0.000000 0.583113 0.852871
O O7 0.093977 0.621951 0.000000
O O8 0.839081 0.839081 0.500000
O O9 0.900583 0.753980 0.411972
O O10 0.000000 0.890310 0.500000
O O11 0.000000 0.149567 0.138764
O O12 0.860456 0.000000 0.135729
O O13 0.895497 0.106047 0.000000
O O14 0.368782 0.256923 0.500000
O O15 0.300630 0.300630 0.632440
O O16 0.593342 0.593342 0.885625
O O17 0.663599 0.539350 0.000000
#
# Coordination Sequence:
#
# PCOD9586338 Si02
#       6
#    12  12   6  12  12  12
#     4  12  19  30  55  76  92 131 181 215 251 316
#     4   9  18  32  49  72 102 130 158 200 251 306
#     4   8  15  28  44  64  94 132 170 212 262 304
#     4  10  20  31  44  68 103 138 171 209 252 302
#     4   8  18  33  46  68  99 126 164 216 259 290
#     4   9  19  34  48  70 107 137 158 203 266 314
#
# _framework density 15.749021000000001
#
# number of rings (size 3 to 8) (size 9 to 14) (size 15 to 20)
#    0.545    2.000    0.000    5.182    0.000    5.091 
#    1.091    0.000    0.000    3.273    0.000    2.545 
#    0.000    0.000    0.000    0.000    0.000    0.000 
#
# Total GULP energy -367508.395425 kJ/mol
# GULP energy per Si atom -5568.309022 kJ/mol
# Density = 1.571318 g / cm^3
# Si number density = 15.749021 Si / 1000 Ang^3
#
#
#
# Elastic Constant Matrix: (Units=GPa)
#
#
# Indices 1 2 3 4 5 6 
#
# 1 82.7345 35.2944 35.0066 0.0000 0.0000 0.0000
# 2 35.2944 82.7345 35.0066 0.0000 0.0000 0.0000
# 3 35.0066 35.0066 50.6800 0.0000 0.0000 0.0000
# 4 0.0000 0.0000 0.0000 -11.3213 0.0000 0.0000
# 5 0.0000 0.0000 0.0000 0.0000 -11.3213 0.0000
# 6 0.0000 0.0000 0.0000 0.0000 0.0000 23.7201
#
#
#
# Elastic Compliance Matrix: (Units=1/GPa)
#
#
# Indices 1 2 3 4 5 6 
#
# 1 0.017716 -0.003363 -0.009915 0.000000 0.000000 0.000000
# 2 -0.003363 0.017716 -0.009915 0.000000 0.000000 0.000000
# 3 -0.009915 -0.009915 0.033428 0.000000 0.000000 0.000000
# 4 0.000000 0.000000 0.000000 -0.088329 0.000000 0.000000
# 5 0.000000 0.000000 0.000000 0.000000 -0.088329 0.000000
# 6 0.000000 0.000000 0.000000 0.000000 0.000000 0.042158
#
#
# Mechanical properties :
#
#
# Convention : Reuss Voigt Hill
#
# Bulk Modulus (GPa) = 44.48928 47.41824 45.95376
# Shear Modulus (GPa) = -425.13274 7.60491 -208.76391
#
# Velocity S-wave (km/s) = -16.44775 2.19984 -11.52582
# Velocity P-wave (km/s) = 18.23168 6.05198 12.16075
#
# Compressibility (1/GPa) = 0.02247732
#
# Stress axis : x y z
#
# Youngs Moduli (GPa) = 56.44466 56.44466 29.91460
#
# Poissons Ratio (x) = 0.18981 0.29659
# Poissons Ratio (y) = 0.18981 0.29659
# Poissons Ratio (z) = 0.55963 0.55963
#
# Static dielectric constant tensor:
#      x y z
#    x 1.519560 0.000000 0.000000 
#    y 0.000000 1.519560 0.000000 
#    z 0.000000 0.000000 1.490970 
# 
# From -- ./inp_files/2673.got.cif
#   From: 2010.05.17/outbox.cif.g08.bks.cpg/sg189_2_cif.got.tgz:2673.got - 2010.05.20 12:14:34.
