data_PCOD9586733
_publ_section_title
;
Structure prediction by ZEFSAII (Michael W. Deem and Ramdas Pophale) SiO2 
 PCOD9586733
Probable space group: P -6 2 C
;
_chemical_formula_sum "Si O2"
_cell_formula_units_Z 84
_cell_length_a 18.316098
_cell_length_b 18.316098
_cell_length_c 15.751179
_cell_angle_alpha 90.000000
_cell_angle_beta 90.000000
_cell_angle_gamma 120.000000
_cell_volume 4576.248671
_symmetry_space_group_name_H-M "P -6 2 C"
_symmetry_group_IT_number 190
_symmetry_cell_setting 'hexagonal'
loop_
_space_group_symop_operation_xyz
x,y,z
-x+y,-x,1/2-z
-y,x-y,z
x,y,1/2-z
-x+y,-x,z
-y,x-y,1/2-z
x-y,-y,-z
-x,-x+y,-z
y,x,-z
y,x,1/2+z
x-y,-y,1/2+z
-x,-x+y,1/2+z
loop_
_atom_site_type_symbol
_atom_site_label
_atom_site_fract_x
_atom_site_fract_y
_atom_site_fract_z
Si Si1 0.923168 0.504204 0.438029
Si Si2 0.770593 0.771619 0.596715
Si Si3 0.592797 0.836788 0.997044
Si Si4 0.291260 0.807106 0.750000
Si Si5 0.620579 0.132944 0.250000
Si Si6 0.909289 0.727313 0.346341
Si Si7 0.419763 0.098418 0.075787
Si Si8 0.103386 0.813559 0.346069
O O1 0.845091 0.511541 0.476203
O O2 0.921714 0.521110 0.336723
O O3 0.918692 0.414278 0.441723
O O4 0.000000 0.565607 0.500000
O O5 0.799291 0.799291 0.500000
O O6 0.765207 0.847370 0.641803
O O7 0.674097 0.694392 0.588244
O O8 0.831357 0.743436 0.638722
O O9 0.638877 0.877924 0.084634
O O10 0.658367 0.884928 0.920049
O O11 0.578985 0.743134 0.992520
O O12 0.385434 0.820892 0.750000
O O13 0.212261 0.714210 0.750000
O O14 0.289752 0.853233 0.834963
O O15 0.898671 0.693433 0.250000
O O16 0.007825 0.793956 0.357035
O O17 0.111911 0.790402 0.250000
#
# Coordination Sequence:
#
# PCOD9586733 Si02
#       8
#    12  12  12   6   6  12  12  12
#     4  11  23  38  59  89 125 156 195 250 305 370
#     4  11  21  36  61  84 121 160 198 248 301 361
#     4  11  22  40  62  85 118 158 197 250 306 366
#     4  10  19  36  58  90 119 151 191 247 309 379
#     4  10  21  36  60  94 119 155 193 253 319 363
#     4  10  22  37  60  85 116 156 202 247 305 357
#     4  10  22  37  60  87 124 154 199 239 310 367
#     4  11  23  40  61  89 117 160 211 253 295 363
#
# _framework density 18.355646
#
# number of rings (size 3 to 8) (size 9 to 14) (size 15 to 20)
#    0.000    1.429    4.286    2.286    6.000    0.000 
#    3.000    0.000    0.000    0.000    0.000    0.000 
#    0.000    0.000    0.000    0.000    0.000    0.000 
#
# Total GULP energy -468620.200433 kJ/mol
# GULP energy per Si atom -5578.811910 kJ/mol
# Density = 1.831387 g / cm^3
# Si number density = 18.355646 Si / 1000 Ang^3
#
#
#
# Elastic Constant Matrix: (Units=GPa)
#
#
# Indices 1 2 3 4 5 6 
#
# 1 76.7974 30.0626 36.0010 0.0000 0.0000 0.0000
# 2 30.0626 76.7974 36.0010 0.0000 0.0000 0.0000
# 3 36.0010 36.0010 134.7770 0.0000 0.0000 0.0000
# 4 0.0000 0.0000 0.0000 26.4389 0.0000 0.0000
# 5 0.0000 0.0000 0.0000 0.0000 26.4389 0.0000
# 6 0.0000 0.0000 0.0000 0.0000 0.0000 23.3674
#
#
#
# Elastic Compliance Matrix: (Units=1/GPa)
#
#
# Indices 1 2 3 4 5 6 
#
# 1 0.016405 -0.004993 -0.003048 0.000000 0.000000 0.000000
# 2 -0.004993 0.016405 -0.003048 0.000000 0.000000 0.000000
# 3 -0.003048 -0.003048 0.009048 0.000000 0.000000 0.000000
# 4 0.000000 0.000000 0.000000 0.037823 0.000000 0.000000
# 5 0.000000 0.000000 0.000000 0.000000 0.037823 0.000000
# 6 0.000000 0.000000 0.000000 0.000000 0.000000 0.042795
#
#
# Mechanical properties :
#
#
# Convention : Reuss Voigt Hill
#
# Bulk Modulus (GPa) = 50.81591 54.72233 52.76912
# Shear Modulus (GPa) = 26.44994 27.66954 27.05974
#
# Velocity S-wave (km/s) = 3.80013 3.88675 3.84369
# Velocity P-wave (km/s) = 6.85557 7.07244 6.96485
#
# Compressibility (1/GPa) = 0.01967888
#
# Stress axis : x y z
#
# Youngs Moduli (GPa) = 60.95830 60.95830 110.51965
#
# Poissons Ratio (x) = 0.30434 0.33690
# Poissons Ratio (y) = 0.30434 0.33690
# Poissons Ratio (z) = 0.18582 0.18582
#
# Static dielectric constant tensor:
#      x y z
#    x 1.657020 0.000000 0.000000 
#    y 0.000000 1.657020 0.000000 
#    z 0.000000 0.000000 1.656050 
# 
# From -- ./inp_files/3209.got.cif
#   From: 2010.05.17/outbox.cif.g08.bks.cpg/sg190_2_cif.got.tgz:3209.got - 2010.05.20 12:16:56.
