data_PCOD9586345
_publ_section_title
;
Structure prediction by ZEFSAII (Michael W. Deem and Ramdas Pophale) SiO2 
 PCOD9586345
Probable space group: P -6 2 M
;
_chemical_formula_sum "Si O2"
_cell_formula_units_Z 72
_cell_length_a 24.314328
_cell_length_b 24.314328
_cell_length_c 9.069243
_cell_angle_alpha 90.000000
_cell_angle_beta 90.000000
_cell_angle_gamma 120.000000
_cell_volume 4643.294315
_symmetry_space_group_name_H-M "P -6 2 M"
_symmetry_group_IT_number 189
_symmetry_cell_setting 'hexagonal'
loop_
_space_group_symop_operation_xyz
x,y,z
-x+y,-x,-z
-y,x-y,z
x,y,-z
-x+y,-x,z
-y,x-y,-z
x-y,-y,-z
-x,-x+y,-z
y,x,-z
y,x,z
x-y,-y,z
-x,-x+y,z
loop_
_atom_site_type_symbol
_atom_site_label
_atom_site_fract_x
_atom_site_fract_y
_atom_site_fract_z
Si Si1 0.259607 0.186158 0.177228
Si Si2 0.407417 0.266057 0.824180
Si Si3 0.599422 0.073294 0.322534
Si Si4 0.399108 0.924766 0.676225
Si Si5 0.863031 0.264812 0.176458
Si Si6 0.735038 0.808691 0.323851
O O1 0.214541 0.214541 0.215525
O O2 0.332940 0.237097 0.214243
O O3 0.243645 0.121359 0.257602
O O4 0.257437 0.176744 0.000000
O O5 0.450631 0.332158 0.744708
O O6 0.422201 0.209857 0.788266
O O7 0.413319 0.275979 0.000000
O O8 0.603098 0.074937 0.500000
O O9 0.544731 0.089717 0.281936
O O10 0.572974 0.000000 0.276437
O O11 0.388449 0.915118 0.500000
O O12 0.334001 0.884378 0.762066
O O13 0.427772 0.000000 0.703738
O O14 0.905752 0.238764 0.250886
O O15 0.870350 0.265591 0.000000
O O16 0.727349 0.808924 0.500000
O O17 0.783336 0.783336 0.291719
#
# Coordination Sequence:
#
# PCOD9586345 Si02
#       6
#    12  12  12  12  12  12
#     4   9  18  32  49  70  96 124 154 191 233 275
#     4   9  18  31  46  67  95 122 149 185 226 267
#     4   9  18  31  47  69  95 121 150 185 225 270
#     4   9  18  32  48  68  95 122 149 187 232 274
#     4  10  20  32  47  69  95 123 156 192 230 273
#     4  10  20  32  47  69  96 125 156 191 232 276
#
# _framework density 15.506232000000001
#
# number of rings (size 3 to 8) (size 9 to 14) (size 15 to 20)
#    0.000    2.667    0.000    4.000    0.000    9.000 
#    0.000    1.667    0.000    1.000    0.000    0.000 
#    0.000    0.000    0.000    0.000    0.000    0.000 
#
# Total GULP energy -401461.815919 kJ/mol
# GULP energy per Si atom -5575.858554 kJ/mol
# Density = 1.547094 g / cm^3
# Si number density = 15.506232 Si / 1000 Ang^3
#
#
#
# Elastic Constant Matrix: (Units=GPa)
#
#
# Indices 1 2 3 4 5 6 
#
# 1 130.3495 88.8941 58.1703 0.0000 0.0000 0.0000
# 2 88.8941 130.3495 58.1703 0.0000 0.0000 0.0000
# 3 58.1703 58.1703 43.3387 0.0000 0.0000 0.0000
# 4 0.0000 0.0000 0.0000 26.5733 0.0000 0.0000
# 5 0.0000 0.0000 0.0000 0.0000 26.5733 0.0000
# 6 0.0000 0.0000 0.0000 0.0000 0.0000 20.7277
#
#
#
# Elastic Compliance Matrix: (Units=1/GPa)
#
#
# Indices 1 2 3 4 5 6 
#
# 1 0.019987 -0.004136 -0.021275 0.000000 0.000000 0.000000
# 2 -0.004136 0.019987 -0.021275 0.000000 0.000000 0.000000
# 3 -0.021275 -0.021275 0.080186 0.000000 0.000000 0.000000
# 4 0.000000 0.000000 0.000000 0.037632 0.000000 0.000000
# 5 0.000000 0.000000 0.000000 0.000000 0.037632 0.000000
# 6 0.000000 0.000000 0.000000 0.000000 0.000000 0.048245
#
#
# Mechanical properties :
#
#
# Convention : Reuss Voigt Hill
#
# Bulk Modulus (GPa) = 37.33174 79.38966 58.36070
# Shear Modulus (GPa) = 14.45215 21.36174 17.90694
#
# Velocity S-wave (km/s) = 3.05622 3.71566 3.40195
# Velocity P-wave (km/s) = 6.04827 8.34972 7.29038
#
# Compressibility (1/GPa) = 0.02678686
#
# Stress axis : x y z
#
# Youngs Moduli (GPa) = 50.03365 50.03365 12.47093
#
# Poissons Ratio (x) = 0.20693 0.26532
# Poissons Ratio (y) = 0.20693 0.26532
# Poissons Ratio (z) = 1.06448 1.06448
#
# Static dielectric constant tensor:
#      x y z
#    x 1.501960 0.000000 0.000000 
#    y 0.000000 1.501960 0.000000 
#    z 0.000000 0.000000 1.516380 
# 
# From -- ./inp_files/1207.got.cif
#   From: 2010.05.17/outbox.cif.g08.bks.cpg/sg189_1_cif.got.tgz:1207.got - 2010.05.20 12:14:34.
