data_PCOD9586253
_publ_section_title
;
Structure prediction by ZEFSAII (Michael W. Deem and Ramdas Pophale) SiO2 
 PCOD9586253
Probable space group: P -6 2 M
;
_chemical_formula_sum "Si O2"
_cell_formula_units_Z 66
_cell_length_a 20.372875
_cell_length_b 20.372875
_cell_length_c 9.647658
_cell_angle_alpha 90.000000
_cell_angle_beta 90.000000
_cell_angle_gamma 120.000000
_cell_volume 3467.824995
_symmetry_space_group_name_H-M "P -6 2 M"
_symmetry_group_IT_number 189
_symmetry_cell_setting 'hexagonal'
loop_
_space_group_symop_operation_xyz
x,y,z
-x+y,-x,-z
-y,x-y,z
x,y,-z
-x+y,-x,z
-y,x-y,-z
x-y,-y,-z
-x,-x+y,-z
y,x,-z
y,x,z
x-y,-y,z
-x,-x+y,z
loop_
_atom_site_type_symbol
_atom_site_label
_atom_site_fract_x
_atom_site_fract_y
_atom_site_fract_z
Si Si1 0.085428 0.173687 0.500000
Si Si2 0.084972 0.278139 0.746308
Si Si3 0.857411 0.305360 0.340809
Si Si4 0.694202 0.163708 0.336409
Si Si5 0.328224 0.242105 0.850416
Si Si6 0.089400 0.542650 0.834797
O O1 0.145812 0.145812 0.500000
O O2 0.091761 0.224890 0.631062
O O3 0.000000 0.102926 0.500000
O O4 0.102187 0.357419 0.678343
O O5 0.153449 0.298287 0.848874
O O6 0.000000 0.235220 0.803255
O O7 0.867890 0.332882 0.500000
O O8 0.767389 0.247532 0.317469
O O9 0.891751 0.373532 0.232666
O O10 0.677350 0.152595 0.500000
O O11 0.722066 0.107955 0.275939
O O12 0.620599 0.142964 0.246120
O O13 0.262305 0.262305 0.837127
O O14 0.366980 0.274335 0.000000
O O15 0.000000 0.513736 0.811557
O O16 0.102403 0.549409 0.000000
#
# Coordination Sequence:
#
# PCOD9586253 Si02
#       6
#     6  12  12  12  12  12
#     4  10  19  32  52  82 118 158 202 254 308 362
#     4  10  20  34  55  83 115 153 197 245 297 351
#     4  10  21  39  61  86 118 153 196 242 294 353
#     4  10  22  40  62  89 117 152 199 248 298 354
#     4  10  21  36  55  81 115 153 194 246 301 352
#     4  11  24  40  61  91 125 160 199 245 300 362
#
# _framework density 19.032102999999999
#
# number of rings (size 3 to 8) (size 9 to 14) (size 15 to 20)
#    0.000    1.818    0.909    2.818    1.273    8.727 
#    1.091    0.000    0.000    0.364    0.000    0.000 
#    0.000    0.000    0.000    0.000    0.000    0.000 
#
# Total GULP energy -368297.383656 kJ/mol
# GULP energy per Si atom -5580.263389 kJ/mol
# Density = 1.898878 g / cm^3
# Si number density = 19.032103 Si / 1000 Ang^3
#
#
#
# Elastic Constant Matrix: (Units=GPa)
#
#
# Indices 1 2 3 4 5 6 
#
# 1 73.1555 22.6774 24.4341 0.0000 0.0000 0.0000
# 2 22.6774 73.1555 24.4341 0.0000 0.0000 0.0000
# 3 24.4341 24.4341 94.0515 0.0000 0.0000 0.0000
# 4 0.0000 0.0000 0.0000 26.2742 0.0000 0.0000
# 5 0.0000 0.0000 0.0000 0.0000 26.2742 0.0000
# 6 0.0000 0.0000 0.0000 0.0000 0.0000 25.2391
#
#
#
# Elastic Compliance Matrix: (Units=1/GPa)
#
#
# Indices 1 2 3 4 5 6 
#
# 1 0.015919 -0.003891 -0.003125 0.000000 0.000000 0.000000
# 2 -0.003891 0.015919 -0.003125 0.000000 0.000000 0.000000
# 3 -0.003125 -0.003125 0.012256 0.000000 0.000000 0.000000
# 4 0.000000 0.000000 0.000000 0.038060 0.000000 0.000000
# 5 0.000000 0.000000 0.000000 0.000000 0.038060 0.000000
# 6 0.000000 0.000000 0.000000 0.000000 0.000000 0.039621
#
#
# Mechanical properties :
#
#
# Convention : Reuss Voigt Hill
#
# Bulk Modulus (GPa) = 41.99352 42.60594 42.29973
# Shear Modulus (GPa) = 26.58780 26.81193 26.69987
#
# Velocity S-wave (km/s) = 3.74170 3.75744 3.74958
# Velocity P-wave (km/s) = 6.38589 6.42335 6.40464
#
# Compressibility (1/GPa) = 0.02381320
#
# Stress axis : x y z
#
# Youngs Moduli (GPa) = 62.81627 62.81627 81.59180
#
# Poissons Ratio (x) = 0.24443 0.25497
# Poissons Ratio (y) = 0.24443 0.25497
# Poissons Ratio (z) = 0.19629 0.19629
#
# Static dielectric constant tensor:
#      x y z
#    x 1.661080 0.000000 0.000000 
#    y 0.000000 1.661080 0.000000 
#    z 0.000000 0.000000 1.654930 
# 
# From -- ./inp_files/1028.got.cif
#   From: 2010.05.17/outbox.cif.g08.bks.cpg/sg189_1_cif.got.tgz:1028.got - 2010.05.20 12:14:34.
