data_PCOD9586518
_publ_section_title
;
Structure prediction by ZEFSAII (Michael W. Deem and Ramdas Pophale) SiO2 
 PCOD9586518
Probable space group: P -6 2 M
;
_chemical_formula_sum "Si O2"
_cell_formula_units_Z 84
_cell_length_a 18.827923
_cell_length_b 18.827923
_cell_length_c 14.515458
_cell_angle_alpha 90.000000
_cell_angle_beta 90.000000
_cell_angle_gamma 120.000000
_cell_volume 4456.215678
_symmetry_space_group_name_H-M "P -6 2 M"
_symmetry_group_IT_number 189
_symmetry_cell_setting 'hexagonal'
loop_
_space_group_symop_operation_xyz
x,y,z
-x+y,-x,-z
-y,x-y,z
x,y,-z
-x+y,-x,z
-y,x-y,-z
x-y,-y,-z
-x,-x+y,-z
y,x,-z
y,x,z
x-y,-y,z
-x,-x+y,z
loop_
_atom_site_type_symbol
_atom_site_label
_atom_site_fract_x
_atom_site_fract_y
_atom_site_fract_z
Si Si1 0.217662 0.350590 0.606094
Si Si2 0.504888 0.093967 0.214267
Si Si3 0.096215 0.245469 0.899439
Si Si4 0.090538 0.904373 0.702646
Si Si5 0.569009 0.753815 0.106287
Si Si6 0.582096 0.674695 0.603963
Si Si7 0.419901 0.326509 0.783718
O O1 0.244754 0.358258 0.500000
O O2 0.155924 0.256361 0.633058
O O3 0.160775 0.392028 0.616383
O O4 0.289581 0.391547 0.681075
O O5 0.488890 0.156607 0.155411
O O6 0.481544 0.101761 0.318813
O O7 0.594567 0.104976 0.212805
O O8 0.442849 0.000000 0.183664
O O9 0.125143 0.223834 0.805412
O O10 0.110698 0.336864 0.889584
O O11 0.000000 0.181545 0.903104
O O12 0.132221 0.242893 0.000000
O O13 0.000000 0.890452 0.693530
O O14 0.157628 0.000000 0.691346
O O15 0.576016 0.833377 0.155905
O O16 0.545550 0.750770 0.000000
O O17 0.550765 0.649918 0.500000
O O18 0.658979 0.658979 0.614054
O O19 0.357209 0.357209 0.815944
#
# Coordination Sequence:
#
# PCOD9586518 Si02
#       7
#    12  12  12  12  12  12  12
#     4  11  22  38  62  89 119 158 205 256 310 370
#     4  10  21  39  63  89 120 155 195 246 302 359
#     4   9  18  33  57  86 112 145 195 252 304 356
#     4  11  22  36  54  80 119 164 211 259 312 371
#     4  11  22  39  63  90 119 156 199 242 293 357
#     4   9  17  33  61  92 116 145 193 249 301 355
#     4  11  24  41  61  91 127 162 200 248 306 362
#
# _framework density 18.850076000000001
#
# number of rings (size 3 to 8) (size 9 to 14) (size 15 to 20)
#    0.000    1.714    2.857    1.429    0.000    6.857 
#    0.857    4.286    0.000    1.714    0.000    0.000 
#    0.000    0.000    0.000    0.000    0.000    0.000 
#
# Total GULP energy -468547.400336 kJ/mol
# GULP energy per Si atom -5577.945242 kJ/mol
# Density = 1.880717 g / cm^3
# Si number density = 18.850076 Si / 1000 Ang^3
#
#
#
# Elastic Constant Matrix: (Units=GPa)
#
#
# Indices 1 2 3 4 5 6 
#
# 1 79.6411 34.7377 45.8116 0.0000 0.0000 0.0000
# 2 34.7377 79.6411 45.8116 0.0000 0.0000 0.0000
# 3 45.8116 45.8116 98.0029 0.0000 0.0000 0.0000
# 4 0.0000 0.0000 0.0000 2.6973 0.0000 0.0000
# 5 0.0000 0.0000 0.0000 0.0000 2.6973 0.0000
# 6 0.0000 0.0000 0.0000 0.0000 0.0000 22.4517
#
#
#
# Elastic Compliance Matrix: (Units=1/GPa)
#
#
# Indices 1 2 3 4 5 6 
#
# 1 0.018123 -0.004147 -0.006533 0.000000 0.000000 0.000000
# 2 -0.004147 0.018123 -0.006533 0.000000 0.000000 0.000000
# 3 -0.006533 -0.006533 0.016312 0.000000 0.000000 0.000000
# 4 0.000000 0.000000 0.000000 0.370746 0.000000 0.000000
# 5 0.000000 0.000000 0.000000 0.000000 0.370746 0.000000
# 6 0.000000 0.000000 0.000000 0.000000 0.000000 0.044540
#
#
# Mechanical properties :
#
#
# Convention : Reuss Voigt Hill
#
# Bulk Modulus (GPa) = 55.15297 56.66743 55.91020
# Shear Modulus (GPa) = 5.68788 14.29753 9.99271
#
# Velocity S-wave (km/s) = 1.73896 2.75705 2.30492
# Velocity P-wave (km/s) = 5.77531 6.34528 6.06699
#
# Compressibility (1/GPa) = 0.01813139
#
# Stress axis : x y z
#
# Youngs Moduli (GPa) = 55.17797 55.17797 61.30554
#
# Poissons Ratio (x) = 0.22881 0.40052
# Poissons Ratio (y) = 0.22881 0.40052
# Poissons Ratio (z) = 0.36049 0.36049
#
# Static dielectric constant tensor:
#      x y z
#    x 1.651140 0.000000 0.000000 
#    y 0.000000 1.651140 0.000000 
#    z 0.000000 0.000000 1.678400 
# 
# From -- ./inp_files/2829.got.cif
#   From: 2010.05.17/outbox.cif.g08.bks.cpg/sg189_2_cif.got.tgz:2829.got - 2010.05.20 12:14:34.
