data_PCOD9586510
_publ_section_title
;
Structure prediction by ZEFSAII (Michael W. Deem and Ramdas Pophale) SiO2 
 PCOD9586510
Probable space group: P -6 2 M
;
_chemical_formula_sum "Si O2"
_cell_formula_units_Z 60
_cell_length_a 20.327977
_cell_length_b 20.327977
_cell_length_c 8.380605
_cell_angle_alpha 90.000000
_cell_angle_beta 90.000000
_cell_angle_gamma 120.000000
_cell_volume 2999.123327
_symmetry_space_group_name_H-M "P -6 2 M"
_symmetry_group_IT_number 189
_symmetry_cell_setting 'hexagonal'
loop_
_space_group_symop_operation_xyz
x,y,z
-x+y,-x,-z
-y,x-y,z
x,y,-z
-x+y,-x,z
-y,x-y,-z
x-y,-y,-z
-x,-x+y,-z
y,x,-z
y,x,z
x-y,-y,z
-x,-x+y,z
loop_
_atom_site_type_symbol
_atom_site_label
_atom_site_fract_x
_atom_site_fract_y
_atom_site_fract_z
Si Si1 0.000000 0.336610 0.193952
Si Si2 0.757659 0.258591 0.685526
Si Si3 0.661355 0.814144 0.809062
Si Si4 0.512319 0.512319 0.805386
Si Si5 0.407758 0.575548 0.188683
Si Si6 0.826021 0.912923 0.692662
O O1 0.075318 0.336428 0.245106
O O2 0.000000 0.411724 0.248023
O O3 0.000000 0.337083 0.000000
O O4 0.773369 0.276158 0.500000
O O5 0.780297 0.196224 0.736885
O O6 0.807125 0.336648 0.782184
O O7 0.669211 0.224873 0.722432
O O8 0.741462 0.883511 0.755292
O O9 0.655956 0.813876 0.000000
O O10 0.441742 0.522310 0.756761
O O11 0.512611 0.512611 0.000000
O O12 0.391719 0.564110 0.000000
O O13 0.823636 0.909767 0.500000
O O14 0.859086 0.859086 0.749119
O O15 0.882039 0.000000 0.739654
#
# Coordination Sequence:
#
# PCOD9586510 Si02
#       6
#     6  12  12   6  12  12
#     4   9  16  32  60  92 118 141 184 249 300 344
#     4  12  25  41  60  90 126 161 198 247 301 359
#     4  11  21  38  63  90 119 156 201 251 301 356
#     4   9  18  36  64  92 116 143 190 247 298 348
#     4  11  22  41  66  91 118 157 201 248 299 357
#     4  10  21  38  60  88 123 162 202 249 308 369
#
# _framework density 20.005846999999999
#
# number of rings (size 3 to 8) (size 9 to 14) (size 15 to 20)
#    0.000    1.400    3.000    3.600    0.000    1.200 
#    1.800    3.000    0.000    1.200    0.000    0.000 
#    0.000    0.000    0.000    0.000    0.000    0.000 
#
# Total GULP energy -335245.189326 kJ/mol
# GULP energy per Si atom -5587.419822 kJ/mol
# Density = 1.996031 g / cm^3
# Si number density = 20.005847 Si / 1000 Ang^3
#
#
#
# Elastic Constant Matrix: (Units=GPa)
#
#
# Indices 1 2 3 4 5 6 
#
# 1 72.5342 2.4298 -0.6378 0.0000 0.0000 0.0000
# 2 2.4298 72.5342 -0.6378 0.0000 0.0000 0.0000
# 3 -0.6378 -0.6378 29.3870 0.0000 0.0000 0.0000
# 4 0.0000 0.0000 0.0000 20.6473 0.0000 0.0000
# 5 0.0000 0.0000 0.0000 0.0000 20.6473 0.0000
# 6 0.0000 0.0000 0.0000 0.0000 0.0000 35.0522
#
#
#
# Elastic Compliance Matrix: (Units=1/GPa)
#
#
# Indices 1 2 3 4 5 6 
#
# 1 0.013805 -0.000460 0.000290 0.000000 0.000000 0.000000
# 2 -0.000460 0.013805 0.000290 0.000000 0.000000 0.000000
# 3 0.000290 0.000290 0.034041 0.000000 0.000000 0.000000
# 4 0.000000 0.000000 0.000000 0.048433 0.000000 0.000000
# 5 0.000000 0.000000 0.000000 0.000000 0.048433 0.000000
# 6 0.000000 0.000000 0.000000 0.000000 0.000000 0.028529
#
#
# Mechanical properties :
#
#
# Convention : Reuss Voigt Hill
#
# Bulk Modulus (GPa) = 16.15793 19.64042 17.89918
# Shear Modulus (GPa) = 24.10392 26.82277 25.46335
#
# Velocity S-wave (km/s) = 3.47485 3.66559 3.57150
# Velocity P-wave (km/s) = 4.91870 5.26821 5.09645
#
# Compressibility (1/GPa) = 0.06188910
#
# Stress axis : x y z
#
# Youngs Moduli (GPa) = 72.43989 72.43989 29.37613
#
# Poissons Ratio (x) = 0.03331 -0.00851
# Poissons Ratio (y) = 0.03331 -0.00851
# Poissons Ratio (z) = -0.02098 -0.02098
#
# Static dielectric constant tensor:
#      x y z
#    x 1.688530 0.000000 0.000000 
#    y 0.000000 1.688530 0.000000 
#    z 0.000000 0.000000 1.680760 
# 
# From -- ./inp_files/950.got.cif
#   From: 2010.05.17/outbox.cif.g08.bks.cpg/sg189_1_cif.got.tgz:950.got - 2010.05.20 12:14:34.
