data_PCOD9586696
_publ_section_title
;
Structure prediction by ZEFSAII (Michael W. Deem and Ramdas Pophale) SiO2 
 PCOD9586696
Probable space group: P -6 2 C
;
_chemical_formula_sum "Si O2"
_cell_formula_units_Z 70
_cell_length_a 14.614008
_cell_length_b 14.614008
_cell_length_c 17.105168
_cell_angle_alpha 90.000000
_cell_angle_beta 90.000000
_cell_angle_gamma 120.000000
_cell_volume 3163.709927
_symmetry_space_group_name_H-M "P -6 2 C"
_symmetry_group_IT_number 190
_symmetry_cell_setting 'hexagonal'
loop_
_space_group_symop_operation_xyz
x,y,z
-x+y,-x,1/2-z
-y,x-y,z
x,y,1/2-z
-x+y,-x,z
-y,x-y,1/2-z
x-y,-y,-z
-x,-x+y,-z
y,x,-z
y,x,1/2+z
x-y,-y,1/2+z
-x,-x+y,1/2+z
loop_
_atom_site_type_symbol
_atom_site_label
_atom_site_fract_x
_atom_site_fract_y
_atom_site_fract_z
Si Si1 0.077961 0.365642 0.115628
Si Si2 0.666668 0.333334 0.653330
Si Si3 0.943360 0.801165 0.664846
Si Si4 0.604276 0.915677 0.839112
Si Si5 0.841221 0.000000 0.000000
Si Si6 0.523550 0.419403 0.838832
Si Si7 0.632685 0.784161 0.547649
O O1 0.127122 0.300676 0.155421
O O2 0.084983 0.462684 0.162319
O O3 0.956839 0.279410 0.096016
O O4 0.133997 0.412904 0.032175
O O5 0.666667 0.333334 0.750000
O O6 0.778718 0.430690 0.628075
O O7 0.948404 0.849774 0.750000
O O8 0.968651 0.867737 0.584372
O O9 0.026398 0.758599 0.665871
O O10 0.563197 0.887698 0.750000
O O11 0.566709 0.816194 0.895666
O O12 0.581338 0.004118 0.875100
O O13 0.730477 0.894979 0.982596
O O14 0.488759 0.381455 0.750000
#
# Coordination Sequence:
#
# PCOD9586696 Si02
#       7
#    12   4  12  12   6  12  12
#     4  10  19  32  51  78 112 145 190 244 297 358
#     4   9  18  33  54  84 123 153 184 242 313 369
#     4   9  16  29  51  78 105 139 181 226 278 336
#     4   9  18  33  55  79 107 146 191 234 289 361
#     4   8  16  32  52  72 100 134 172 226 280 328
#     4  10  19  32  53  84 117 151 191 242 304 369
#     4   9  19  35  53  76 105 144 188 233 289 345
#
# _framework density 22.125921000000002
#
# number of rings (size 3 to 8) (size 9 to 14) (size 15 to 20)
#    0.000    2.743    0.000    1.543    0.000    4.114 
#    0.000   13.714    0.000   56.229    0.000    0.000 
#    0.000    0.000    0.000    0.000    0.000    0.000 
#
# Total GULP energy -390163.229856 kJ/mol
# GULP energy per Si atom -5573.760427 kJ/mol
# Density = 2.207556 g / cm^3
# Si number density = 22.125921 Si / 1000 Ang^3
#
#
#
# Elastic Constant Matrix: (Units=GPa)
#
#
# Indices 1 2 3 4 5 6 
#
# 1 34.4819 21.1234 22.8483 -0.0001 0.0001 0.0000
# 2 21.1234 34.4820 22.8482 -0.0001 0.0000 0.0000
# 3 22.8483 22.8482 132.0378 0.0000 0.0000 0.0000
# 4 -0.0001 -0.0001 0.0000 39.1690 0.0000 0.0001
# 5 0.0001 0.0000 0.0000 0.0000 39.1689 0.0000
# 6 0.0000 0.0000 0.0000 0.0001 0.0000 6.6793
#
#
#
# Elastic Compliance Matrix: (Units=1/GPa)
#
#
# Indices 1 2 3 4 5 6 
#
# 1 0.047912 -0.026947 -0.003628 0.000000 0.000000 0.000000
# 2 -0.026947 0.047912 -0.003628 0.000000 0.000000 0.000000
# 3 -0.003628 -0.003628 0.008829 0.000000 0.000000 0.000000
# 4 0.000000 0.000000 0.000000 0.025530 0.000000 0.000000
# 5 0.000000 0.000000 0.000000 0.000000 0.025530 0.000000
# 6 0.000000 0.000000 0.000000 0.000000 0.000000 0.149717
#
#
# Mechanical properties :
#
#
# Convention : Reuss Voigt Hill
#
# Bulk Modulus (GPa) = 27.58763 37.18239 32.38501
# Shear Modulus (GPa) = 12.95611 25.94888 19.45249
#
# Velocity S-wave (km/s) = 2.42246 3.42831 2.96830
# Velocity P-wave (km/s) = 4.50777 5.70197 5.13967
#
# Compressibility (1/GPa) = 0.03624813
#
# Stress axis : x y z
#
# Youngs Moduli (GPa) = 20.87158 20.87172 113.26109
#
# Poissons Ratio (x) = 0.56242 0.41090
# Poissons Ratio (y) = 0.56242 0.41090
# Poissons Ratio (z) = 0.07572 0.07572
#
# Static dielectric constant tensor:
#      x y z
#    x 1.810040 0.000000 0.000000 
#    y 0.000000 1.810040 0.000000 
#    z 0.000000 0.000000 1.914610 
# 
# From -- ./inp_files/3812.got.cif
#   From: 2010.05.17/outbox.cif.g08.bks.cpg/sg190_2_cif.got.tgz:3812.got - 2010.05.20 12:16:56.
