data_PCOD9586198
_publ_section_title
;
Structure prediction by ZEFSAII (Michael W. Deem and Ramdas Pophale) SiO2 
 PCOD9586198
Probable space group: P -6 2 M
;
_chemical_formula_sum "Si O2"
_cell_formula_units_Z 66
_cell_length_a 16.854284
_cell_length_b 16.854284
_cell_length_c 14.145472
_cell_angle_alpha 90.000000
_cell_angle_beta 90.000000
_cell_angle_gamma 120.000000
_cell_volume 3479.915435
_symmetry_space_group_name_H-M "P -6 2 M"
_symmetry_group_IT_number 189
_symmetry_cell_setting 'hexagonal'
loop_
_space_group_symop_operation_xyz
x,y,z
-x+y,-x,-z
-y,x-y,z
x,y,-z
-x+y,-x,z
-y,x-y,-z
x-y,-y,-z
-x,-x+y,-z
y,x,-z
y,x,z
x-y,-y,z
-x,-x+y,z
loop_
_atom_site_type_symbol
_atom_site_label
_atom_site_fract_x
_atom_site_fract_y
_atom_site_fract_z
Si Si1 0.449771 0.560293 0.301858
Si Si2 0.620221 0.847763 0.896607
Si Si3 0.622159 0.727893 0.612769
Si Si4 0.794222 0.898616 0.000000
Si Si5 0.386593 0.281541 0.310716
Si Si6 0.628343 0.518638 0.105905
O O1 0.499006 0.499006 0.302127
O O2 0.519127 0.651980 0.356823
O O3 0.350315 0.491286 0.343208
O O4 0.449150 0.588173 0.192943
O O5 0.607102 0.891651 0.803488
O O6 0.571475 0.738227 0.885920
O O7 0.591861 0.867861 0.000000
O O8 0.727976 0.884858 0.912108
O O9 0.627559 0.735284 0.500000
O O10 0.687697 0.687697 0.644742
O O11 0.645157 0.824367 0.657008
O O12 0.823281 0.823281 0.000000
O O13 0.878725 0.000000 0.000000
O O14 0.320867 0.320867 0.341151
O O15 0.588975 0.588975 0.114778
O O16 0.604594 0.479128 0.000000
#
# Coordination Sequence:
#
# PCOD9586198 Si02
#       6
#    12  12  12   6  12  12
#     4   9  19  35  56  83 113 145 185 236 290 348
#     4   9  19  31  50  77 116 157 195 233 284 347
#     4  10  22  42  65  87 115 154 199 247 302 364
#     4  10  19  30  46  72 110 156 208 258 299 338
#     4  11  22  37  60  91 124 156 196 248 300 354
#     4   9  15  28  52  80 105 142 192 233 274 335
#
# _framework density 18.965979000000001
#
# number of rings (size 3 to 8) (size 9 to 14) (size 15 to 20)
#    0.545    1.818    1.818    1.182    0.000    2.545 
#    1.091    3.636    0.000    0.364    0.000    0.000 
#    0.000    0.000    0.000    0.000    0.000    0.000 
#
# Total GULP energy -367643.695367 kJ/mol
# GULP energy per Si atom -5570.359021 kJ/mol
# Density = 1.892281 g / cm^3
# Si number density = 18.965979 Si / 1000 Ang^3
#
#
#
# Elastic Constant Matrix: (Units=GPa)
#
#
# Indices 1 2 3 4 5 6 
#
# 1 84.7419 37.6403 18.5556 0.0000 0.0000 0.0000
# 2 37.6403 84.7419 18.5556 0.0000 0.0000 0.0000
# 3 18.5556 18.5556 49.9244 0.0000 0.0000 0.0000
# 4 0.0000 0.0000 0.0000 -0.0204 0.0000 0.0000
# 5 0.0000 0.0000 0.0000 0.0000 -0.0204 0.0000
# 6 0.0000 0.0000 0.0000 0.0000 0.0000 23.5508
#
#
#
# Elastic Compliance Matrix: (Units=1/GPa)
#
#
# Indices 1 2 3 4 5 6 
#
# 1 0.015220 -0.006011 -0.003423 0.000000 0.000000 0.000000
# 2 -0.006011 0.015220 -0.003423 0.000000 0.000000 0.000000
# 3 -0.003423 -0.003423 0.022575 0.000000 0.000000 0.000000
# 4 0.000000 0.000000 0.000000-49.036971 0.000045 0.000000
# 5 0.000000 0.000000 0.000000 0.000045-49.037023 0.000000
# 6 0.000000 0.000000 0.000000 0.000000 0.000000 0.042461
#
#
# Mechanical properties :
#
#
# Convention : Reuss Voigt Hill
#
# Bulk Modulus (GPa) = 36.62783 40.99010 38.80897
# Shear Modulus (GPa) = -0.05105 14.34579 7.14737
#
# Velocity S-wave (km/s) = -0.16424 2.75325 1.94337
# Velocity P-wave (km/s) = 4.39526 5.63618 5.05395
#
# Compressibility (1/GPa) = 0.02730164
#
# Stress axis : x y z
#
# Youngs Moduli (GPa) = 65.70358 65.70358 44.29760
#
# Poissons Ratio (x) = 0.39493 0.15162
# Poissons Ratio (y) = 0.39493 0.15162
# Poissons Ratio (z) = 0.22489 0.22489
#
# Static dielectric constant tensor:
#      x y z
#    x 1.665060 0.000000 0.000000 
#    y 0.000000 1.665060 0.000000 
#    z 0.000000 0.000000 1.687110 
# 
# From -- ./inp_files/2654.got.cif
#   From: 2010.05.17/outbox.cif.g08.bks.cpg/sg189_2_cif.got.tgz:2654.got - 2010.05.20 12:14:34.
