data_PCOD9586612
_publ_section_title
;
Structure prediction by ZEFSAII (Michael W. Deem and Ramdas Pophale) SiO2 
 PCOD9586612
Probable space group: P -6 2 C
;
_chemical_formula_sum "Si O2"
_cell_formula_units_Z 66
_cell_length_a 13.873461
_cell_length_b 13.873461
_cell_length_c 23.092920
_cell_angle_alpha 90.000000
_cell_angle_beta 90.000000
_cell_angle_gamma 120.000000
_cell_volume 3849.276586
_symmetry_space_group_name_H-M "P -6 2 C"
_symmetry_group_IT_number 190
_symmetry_cell_setting 'hexagonal'
loop_
_space_group_symop_operation_xyz
x,y,z
-x+y,-x,1/2-z
-y,x-y,z
x,y,1/2-z
-x+y,-x,z
-y,x-y,1/2-z
x-y,-y,-z
-x,-x+y,-z
y,x,-z
y,x,1/2+z
x-y,-y,1/2+z
-x,-x+y,1/2+z
loop_
_atom_site_type_symbol
_atom_site_label
_atom_site_fract_x
_atom_site_fract_y
_atom_site_fract_z
Si Si1 0.357947 0.352287 0.250000
Si Si2 0.796319 0.993853 0.932028
Si Si3 0.438159 0.321806 0.375975
Si Si4 0.900906 0.179070 0.750000
Si Si5 0.992748 0.426189 0.750000
Si Si6 0.799213 0.787422 0.876854
Si Si7 0.107298 0.455647 0.628367
O O1 0.394910 0.318500 0.309749
O O2 0.225491 0.302986 0.250000
O O3 0.435015 0.487165 0.250000
O O4 0.667931 0.948225 0.917164
O O5 0.824259 0.907092 0.899916
O O6 0.872904 0.115285 0.906021
O O7 0.818680 0.000000 0.000000
O O8 0.537007 0.442620 0.394285
O O9 0.479140 0.232107 0.377901
O O10 0.967623 0.182974 0.692111
O O11 0.901569 0.296351 0.750000
O O12 0.071275 0.449539 0.694998
O O13 0.671031 0.700495 0.893044
#
# Coordination Sequence:
#
# PCOD9586612 Si02
#       7
#     6  12  12   6   6  12  12
#     4  10  17  31  54  77 113 140 174 220 276 326
#     4  11  22  37  55  78 106 148 191 225 273 328
#     4  10  19  33  56  81 108 141 175 227 272 333
#     4  10  18  34  54  84 115 137 184 219 279 337
#     4   8  17  29  46  77 110 141 162 209 259 331
#     4  10  21  36  57  80 113 143 178 230 275 332
#     4   9  18  32  53  79 108 135 173 212 274 320
#
# _framework density 17.146077999999999
#
# number of rings (size 3 to 8) (size 9 to 14) (size 15 to 20)
#    0.000    2.182    1.818    1.818    0.000    2.909 
#    0.545    5.455    0.000    0.727    0.000    0.000 
#    0.000    0.000    0.000    0.000    0.000    0.000 
#
# Total GULP energy -367756.885871 kJ/mol
# GULP energy per Si atom -5572.074028 kJ/mol
# Density = 1.710705 g / cm^3
# Si number density = 17.146078 Si / 1000 Ang^3
#
#
#
# Elastic Constant Matrix: (Units=GPa)
#
#
# Indices 1 2 3 4 5 6 
#
# 1 89.5437 57.4605 28.1631 0.0000 0.0000 0.0000
# 2 57.4605 89.5437 28.1631 0.0000 0.0000 0.0000
# 3 28.1631 28.1631 79.4866 0.0000 0.0000 0.0000
# 4 0.0000 0.0000 0.0000 0.5044 0.0000 0.0000
# 5 0.0000 0.0000 0.0000 0.0000 0.5044 0.0000
# 6 0.0000 0.0000 0.0000 0.0000 0.0000 16.0416
#
#
#
# Elastic Compliance Matrix: (Units=1/GPa)
#
#
# Indices 1 2 3 4 5 6 
#
# 1 0.019520 -0.011649 -0.002789 0.000000 0.000000 0.000000
# 2 -0.011649 0.019520 -0.002789 0.000000 0.000000 0.000000
# 3 -0.002789 -0.002789 0.014557 0.000000 0.000000 0.000000
# 4 0.000000 0.000000 0.000000 1.982640 0.000000 0.000000
# 5 0.000000 0.000000 0.000000 0.000000 1.982640 0.000000
# 6 0.000000 0.000000 0.000000 0.000000 0.000000 0.062338
#
#
# Mechanical properties :
#
#
# Convention : Reuss Voigt Hill
#
# Bulk Modulus (GPa) = 52.23612 54.01640 53.12626
# Shear Modulus (GPa) = 1.21299 13.06255 7.13777
#
# Velocity S-wave (km/s) = 0.84201 2.76314 2.04254
# Velocity P-wave (km/s) = 5.61042 6.46157 6.05098
#
# Compressibility (1/GPa) = 0.01914384
#
# Stress axis : x y z
#
# Youngs Moduli (GPa) = 51.22936 51.22936 68.69562
#
# Poissons Ratio (x) = 0.59677 0.19158
# Poissons Ratio (y) = 0.59677 0.19158
# Poissons Ratio (z) = 0.14287 0.14287
#
# Static dielectric constant tensor:
#      x y z
#    x 1.589550 0.000000 0.000000 
#    y 0.000000 1.589550 0.000000 
#    z 0.000000 0.000000 1.575630 
# 
# From -- ./inp_files/4662.got.cif
#   From: 2010.05.17/outbox.cif.g08.bks.cpg/sg190_3_cif.got.tgz:4662.got - 2010.05.20 12:16:56.
