data_PCOD9586229
_publ_section_title
;
Structure prediction by ZEFSAII (Michael W. Deem and Ramdas Pophale) SiO2 
 PCOD9586229
Probable space group: P -6 2 M
;
_chemical_formula_sum "Si O2"
_cell_formula_units_Z 72
_cell_length_a 24.231752
_cell_length_b 24.231752
_cell_length_c 8.567800
_cell_angle_alpha 90.000000
_cell_angle_beta 90.000000
_cell_angle_gamma 120.000000
_cell_volume 4356.819652
_symmetry_space_group_name_H-M "P -6 2 M"
_symmetry_group_IT_number 189
_symmetry_cell_setting 'hexagonal'
loop_
_space_group_symop_operation_xyz
x,y,z
-x+y,-x,-z
-y,x-y,z
x,y,-z
-x+y,-x,z
-y,x-y,-z
x-y,-y,-z
-x,-x+y,-z
y,x,-z
y,x,z
x-y,-y,z
-x,-x+y,z
loop_
_atom_site_type_symbol
_atom_site_label
_atom_site_fract_x
_atom_site_fract_y
_atom_site_fract_z
Si Si1 0.791778 0.266932 0.312943
Si Si2 0.280349 0.000000 0.312896
Si Si3 0.333907 0.261954 0.189972
Si Si4 0.408006 0.000000 0.310166
Si Si5 0.332547 0.135867 0.187220
Si Si6 0.480249 0.331353 0.813293
Si Si7 0.409479 0.873262 0.311588
O O1 0.794537 0.264647 0.500000
O O2 0.838986 0.243658 0.245917
O O3 0.721801 0.216675 0.254346
O O4 0.815892 0.339617 0.266960
O O5 0.279941 0.000000 0.500000
O O6 0.221448 0.934402 0.252391
O O7 0.344563 0.000000 0.257894
O O8 0.288335 0.288335 0.245482
O O9 0.316737 0.190845 0.237674
O O10 0.407595 0.309147 0.236330
O O11 0.332559 0.261880 0.000000
O O12 0.406187 0.000000 0.500000
O O13 0.472519 0.062587 0.261849
O O14 0.332386 0.134086 0.000000
O O15 0.532183 0.400825 0.757610
O O16 0.480279 0.328147 0.000000
O O17 0.414303 0.873945 0.500000
#
# Coordination Sequence:
#
# PCOD9586229 Si02
#       7
#    12   6  12   6  12  12  12
#     4  10  19  35  55  70  93 132 170 208 261 317
#     4  11  19  33  53  75 107 143 169 198 251 312
#     4   8  16  32  51  71 101 136 164 197 248 298
#     4   9  18  33  51  73  99 129 165 204 247 304
#     4  10  19  31  51  79 106 131 167 210 249 296
#     4  10  21  34  51  74  99 127 167 217 261 306
#     4  10  20  35  53  72  97 130 169 210 255 313
#
# _framework density 16.525815999999999
#
# number of rings (size 3 to 8) (size 9 to 14) (size 15 to 20)
#    0.000    2.333    1.667    2.750    1.167    1.333 
#    1.000    0.000    0.000   10.000    0.000    0.000 
#    0.833    0.000    1.500    0.000    0.500    0.000 
#
# Total GULP energy -401567.186907 kJ/mol
# GULP energy per Si atom -5577.322040 kJ/mol
# Density = 1.648820 g / cm^3
# Si number density = 16.525816 Si / 1000 Ang^3
#
#
#
# Elastic Constant Matrix: (Units=GPa)
#
#
# Indices 1 2 3 4 5 6 
#
# 1 120.6539 79.9876 27.0452 0.0000 0.0000 0.0000
# 2 79.9876 120.6539 27.0452 0.0000 0.0000 0.0000
# 3 27.0452 27.0452 35.5817 0.0000 0.0000 0.0000
# 4 0.0000 0.0000 0.0000 21.4931 0.0000 0.0000
# 5 0.0000 0.0000 0.0000 0.0000 21.4931 0.0000
# 6 0.0000 0.0000 0.0000 0.0000 0.0000 20.3331
#
#
#
# Elastic Compliance Matrix: (Units=1/GPa)
#
#
# Indices 1 2 3 4 5 6 
#
# 1 0.015429 -0.009161 -0.004765 0.000000 0.000000 0.000000
# 2 -0.009161 0.015429 -0.004765 0.000000 0.000000 0.000000
# 3 -0.004765 -0.004765 0.035347 0.000000 0.000000 0.000000
# 4 0.000000 0.000000 0.000000 0.046527 0.000000 0.000000
# 5 0.000000 0.000000 0.000000 0.000000 0.046527 0.000000
# 6 0.000000 0.000000 0.000000 0.000000 0.000000 0.049181
#
#
# Mechanical properties :
#
#
# Convention : Reuss Voigt Hill
#
# Bulk Modulus (GPa) = 34.69094 60.56060 47.62577
# Shear Modulus (GPa) = 19.57488 22.18462 20.87975
#
# Velocity S-wave (km/s) = 3.44540 3.66788 3.55838
# Velocity P-wave (km/s) = 6.07167 7.39347 6.76493
#
# Compressibility (1/GPa) = 0.02882597
#
# Stress axis : x y z
#
# Youngs Moduli (GPa) = 64.81115 64.81115 28.29063
#
# Poissons Ratio (x) = 0.59373 0.13479
# Poissons Ratio (y) = 0.59373 0.13479
# Poissons Ratio (z) = 0.30880 0.30880
#
# Static dielectric constant tensor:
#      x y z
#    x 1.551530 0.000000 0.000000 
#    y 0.000000 1.551530 0.000000 
#    z 0.000000 0.000000 1.563100 
# 
# From -- ./inp_files/1316.got.cif
#   From: 2010.05.17/outbox.cif.g08.bks.cpg/sg189_1_cif.got.tgz:1316.got - 2010.05.20 12:14:34.
