data_PCOD9586881
_publ_section_title
;
Structure prediction by ZEFSAII (Michael W. Deem and Ramdas Pophale) SiO2 
 PCOD9586881
Probable space group: P -6 2 C
;
_chemical_formula_sum "Si O2"
_cell_formula_units_Z 84
_cell_length_a 11.440964
_cell_length_b 11.440964
_cell_length_c 27.204473
_cell_angle_alpha 90.000000
_cell_angle_beta 90.000000
_cell_angle_gamma 120.000000
_cell_volume 3083.870887
_symmetry_space_group_name_H-M "P -6 2 C"
_symmetry_group_IT_number 190
_symmetry_cell_setting 'hexagonal'
loop_
_space_group_symop_operation_xyz
x,y,z
-x+y,-x,1/2-z
-y,x-y,z
x,y,1/2-z
-x+y,-x,z
-y,x-y,1/2-z
x-y,-y,-z
-x,-x+y,-z
y,x,-z
y,x,1/2+z
x-y,-y,1/2+z
-x,-x+y,1/2+z
loop_
_atom_site_type_symbol
_atom_site_label
_atom_site_fract_x
_atom_site_fract_y
_atom_site_fract_z
Si Si1 0.203361 0.428005 0.196535
Si Si2 0.964985 0.758171 0.089374
Si Si3 0.846101 0.257277 0.484151
Si Si4 0.184957 0.431947 0.089000
Si Si5 0.350981 0.888250 0.698616
Si Si6 0.460615 0.543031 0.597308
Si Si7 0.933122 0.771330 0.303657
O O1 0.263912 0.492700 0.250000
O O2 0.258961 0.486031 0.142007
O O3 0.210101 0.290937 0.197055
O O4 0.047935 0.393091 0.196973
O O5 0.871362 0.717586 0.041246
O O6 0.948377 0.608560 0.095161
O O7 0.920370 0.804832 0.139015
O O8 0.126330 0.850978 0.085950
O O9 0.756980 0.230121 0.533509
O O10 0.827299 0.348246 0.443561
O O11 0.000000 0.351792 0.500000
O O12 0.057599 0.453824 0.093597
O O13 0.402728 0.866507 0.750000
O O14 0.403143 0.857103 0.650191
O O15 0.190290 0.811036 0.698229
O O16 0.916957 0.827035 0.250000
#
# Coordination Sequence:
#
# PCOD9586881 Si02
#       7
#    12  12  12  12  12  12  12
#     4   8  15  29  50  78 109 148 192 238 300 368
#     4  11  21  38  63  86 121 170 203 262 325 366
#     4  10  21  38  59  84 119 156 204 267 310 375
#     4   9  20  35  57  82 112 154 201 252 301 363
#     4   9  16  31  54  80 117 157 196 248 313 373
#     4  10  21  38  58  86 121 160 204 260 307 377
#     4   9  17  31  54  85 118 156 201 246 309 385
#
# _framework density 27.238496000000001
#
# number of rings (size 3 to 8) (size 9 to 14) (size 15 to 20)
#    0.000    2.571    1.429    0.429    0.000    4.000 
#    2.571    0.000    0.000   14.857    0.000    0.000 
#    0.000    0.000    0.000    0.000    0.000    0.000 
#
# Total GULP energy -468298.056540 kJ/mol
# GULP energy per Si atom -5574.976864 kJ/mol
# Density = 2.717650 g / cm^3
# Si number density = 27.238496 Si / 1000 Ang^3
#
#
#
# Elastic Constant Matrix: (Units=GPa)
#
#
# Indices 1 2 3 4 5 6 
#
# 1 84.3467 26.3707 28.6679 0.0000 0.0000 0.0000
# 2 26.3707 84.3467 28.6679 0.0000 0.0000 0.0000
# 3 28.6679 28.6679 268.0434 0.0000 0.0000 0.0000
# 4 0.0000 0.0000 0.0000 -4.7837 0.0000 0.0000
# 5 0.0000 0.0000 0.0000 0.0000 -4.7837 0.0000
# 6 0.0000 0.0000 0.0000 0.0000 0.0000 28.9880
#
#
#
# Elastic Compliance Matrix: (Units=1/GPa)
#
#
# Indices 1 2 3 4 5 6 
#
# 1 0.013405 -0.003843 -0.001023 0.000000 0.000000 0.000000
# 2 -0.003843 0.013405 -0.001023 0.000000 0.000000 0.000000
# 3 -0.001023 -0.001023 0.003949 0.000000 0.000000 0.000000
# 4 0.000000 0.000000 0.000000 -0.209044 0.000000 0.000000
# 5 0.000000 0.000000 0.000000 0.000000 -0.209044 0.000000
# 6 0.000000 0.000000 0.000000 0.000000 0.000000 0.034497
#
#
# Mechanical properties :
#
#
# Convention : Reuss Voigt Hill
#
# Bulk Modulus (GPa) = 52.68120 67.12777 59.90449
# Shear Modulus (GPa) = -14.93759 27.41947 6.24094
#
# Velocity S-wave (km/s) = -2.34433 3.17621 1.51532
# Velocity P-wave (km/s) = 3.47201 6.17649 5.01018
#
# Compressibility (1/GPa) = 0.01898210
#
# Stress axis : x y z
#
# Youngs Moduli (GPa) = 74.59876 74.59876 253.19747
#
# Poissons Ratio (x) = 0.28672 0.25893
# Poissons Ratio (y) = 0.28672 0.25893
# Poissons Ratio (z) = 0.07629 0.07629
#
# Static dielectric constant tensor:
#      x y z
#    x 2.106350 0.000000 0.000000 
#    y 0.000000 2.106350 0.000000 
#    z 0.000000 0.000000 2.243050 
# 
# From -- ./inp_files/4972.got.cif
#   From: 2010.05.17/outbox.cif.g08.bks.cpg/sg190_3_cif.got.tgz:4972.got - 2010.05.20 12:16:56.
