data_PCOD9586649
_publ_section_title
;
Structure prediction by ZEFSAII (Michael W. Deem and Ramdas Pophale) SiO2 
 PCOD9586649
Probable space group: P -6 2 C
;
_chemical_formula_sum "Si O2"
_cell_formula_units_Z 68
_cell_length_a 10.931741
_cell_length_b 10.931741
_cell_length_c 34.573264
_cell_angle_alpha 90.000000
_cell_angle_beta 90.000000
_cell_angle_gamma 120.000000
_cell_volume 3578.076992
_symmetry_space_group_name_H-M "P -6 2 C"
_symmetry_group_IT_number 190
_symmetry_cell_setting 'hexagonal'
loop_
_space_group_symop_operation_xyz
x,y,z
-x+y,-x,1/2-z
-y,x-y,z
x,y,1/2-z
-x+y,-x,z
-y,x-y,1/2-z
x-y,-y,-z
-x,-x+y,-z
y,x,-z
y,x,1/2+z
x-y,-y,1/2+z
-x,-x+y,1/2+z
loop_
_atom_site_type_symbol
_atom_site_label
_atom_site_fract_x
_atom_site_fract_y
_atom_site_fract_z
Si Si1 0.055148 0.280707 0.166599
Si Si2 0.118954 0.934982 0.250000
Si Si3 0.055255 0.770258 0.632585
Si Si4 0.666667 0.333334 0.574786
Si Si5 0.252897 0.870347 0.937880
Si Si6 0.333334 0.666668 0.517828
Si Si7 0.839256 0.839256 0.500000
Si Si8 0.490152 0.538825 0.380771
O O1 0.091204 0.270092 0.210787
O O2 0.137466 0.223412 0.140096
O O3 0.095471 0.433404 0.150761
O O4 0.889210 0.176435 0.159133
O O5 0.947783 0.850612 0.250000
O O6 0.114873 0.800785 0.589100
O O7 0.018629 0.611173 0.640033
O O8 0.666668 0.333334 0.528524
O O9 0.820979 0.436079 0.592469
O O10 0.268237 0.760115 0.965260
O O11 0.385936 0.938676 0.908959
O O12 0.242454 0.987350 0.963341
O O13 0.868094 0.000000 0.500000
#
# Coordination Sequence:
#
# PCOD9586649 Si02
#       8
#    12   6  12   4  12   4   6  12
#     4  11  22  39  70 101 131 167 216 267 324 381
#     4  10  18  38  66 108 138 160 210 268 320 394
#     4  11  22  40  68  94 124 175 215 271 314 402
#     4  12  24  39  63  85 124 177 226 268 333 384
#     4  11  24  43  60  91 126 169 224 267 339 385
#     4  12  24  42  63  87 127 179 211 273 336 399
#     4  10  26  42  60  88 124 162 212 296 330 374
#     4  11  24  41  63  91 130 172 223 268 318 405
#
# _framework density 19.004622000000001
#
# number of rings (size 3 to 8) (size 9 to 14) (size 15 to 20)
#    0.353    0.706    5.294    1.412    4.941    1.412 
#    2.647    1.765    0.000    0.000    0.000    0.000 
#    0.000    0.000    0.000    0.000    0.000    0.000 
#
# Total GULP energy -379555.363235 kJ/mol
# GULP energy per Si atom -5581.696518 kJ/mol
# Density = 1.896137 g / cm^3
# Si number density = 19.004622 Si / 1000 Ang^3
#
#
#
# Elastic Constant Matrix: (Units=GPa)
#
#
# Indices 1 2 3 4 5 6 
#
# 1 75.6936 9.2822 37.4686 0.0000 0.0001 0.0000
# 2 9.2822 75.6937 37.4686 0.0000 0.0000 0.0001
# 3 37.4686 37.4686 99.4602 0.0000 0.0002 0.0000
# 4 0.0000 0.0000 0.0000 23.2368 0.0000 0.0000
# 5 0.0001 0.0000 0.0002 0.0000 23.2368 0.0000
# 6 0.0000 0.0001 0.0000 0.0000 0.0000 33.2057
#
#
#
# Elastic Compliance Matrix: (Units=1/GPa)
#
#
# Indices 1 2 3 4 5 6 
#
# 1 0.016340 0.001282 -0.006639 0.000000 0.000000 0.000000
# 2 0.001282 0.016340 -0.006639 0.000000 0.000000 0.000000
# 3 -0.006639 -0.006639 0.015056 0.000000 0.000000 0.000000
# 4 0.000000 0.000000 0.000000 0.043035 0.000000 0.000000
# 5 0.000000 0.000000 0.000000 0.000000 0.043035 0.000000
# 6 0.000000 0.000000 0.000000 0.000000 0.000000 0.030115
#
#
# Mechanical properties :
#
#
# Convention : Reuss Voigt Hill
#
# Bulk Modulus (GPa) = 42.11195 46.58735 44.34965
# Shear Modulus (GPa) = 25.53265 27.04439 26.28852
#
# Velocity S-wave (km/s) = 3.66935 3.77642 3.72327
# Velocity P-wave (km/s) = 6.33712 6.60167 6.47075
#
# Compressibility (1/GPa) = 0.02374623
#
# Stress axis : x y z
#
# Youngs Moduli (GPa) = 61.19910 61.19928 66.41798
#
# Poissons Ratio (x) = -0.07848 0.44093
# Poissons Ratio (y) = -0.07848 0.44093
# Poissons Ratio (z) = 0.40629 0.40629
#
# Static dielectric constant tensor:
#      x y z
#    x 1.679560 0.000000 0.000000 
#    y 0.000000 1.679560 0.000000 
#    z 0.000000 0.000000 1.635600 
# 
# From -- ./inp_files/5163.got.cif
#   From: 2010.05.17/outbox.cif.g08.bks.cpg/sg190_3_cif.got.tgz:5163.got - 2010.05.20 12:16:56.
