data_PCOD9586931
_publ_section_title
;
Structure prediction by ZEFSAII (Michael W. Deem and Ramdas Pophale) SiO2 
 PCOD9586931
Probable space group: P -6 2 C
;
_chemical_formula_sum "Si O2"
_cell_formula_units_Z 58
_cell_length_a 13.631817
_cell_length_b 13.631817
_cell_length_c 15.345411
_cell_angle_alpha 90.000000
_cell_angle_beta 90.000000
_cell_angle_gamma 120.000000
_cell_volume 2469.543332
_symmetry_space_group_name_H-M "P -6 2 C"
_symmetry_group_IT_number 190
_symmetry_cell_setting 'hexagonal'
loop_
_space_group_symop_operation_xyz
x,y,z
-x+y,-x,1/2-z
-y,x-y,z
x,y,1/2-z
-x+y,-x,z
-y,x-y,1/2-z
x-y,-y,-z
-x,-x+y,-z
y,x,-z
y,x,1/2+z
x-y,-y,1/2+z
-x,-x+y,1/2+z
loop_
_atom_site_type_symbol
_atom_site_label
_atom_site_fract_x
_atom_site_fract_y
_atom_site_fract_z
Si Si1 0.654933 0.565975 0.581620
Si Si2 0.741363 0.129899 0.478207
Si Si3 0.364733 0.556577 0.842964
Si Si4 0.000000 0.000000 0.603974
Si Si5 0.608456 0.423720 0.750000
Si Si6 0.812177 0.755966 0.152905
O O1 0.592138 0.592138 0.500000
O O2 0.762309 0.558474 0.542963
O O3 0.589466 0.471601 0.657579
O O4 0.713247 0.682004 0.636364
O O5 0.638345 0.129281 0.426884
O O6 0.843865 0.154622 0.414244
O O7 0.693370 0.000000 0.500000
O O8 0.448615 0.690961 0.844781
O O9 0.378375 0.512748 0.750000
O O10 0.889522 0.887832 0.636459
O O11 0.000000 0.000000 0.500000
O O12 0.741512 0.455038 0.750000
O O13 0.832010 0.729886 0.250000
#
# Coordination Sequence:
#
# PCOD9586931 Si02
#       6
#    12  12  12   4   6  12
#     4  10  22  43  70 103 140 190 246 302 360 457
#     4  11  22  37  62 101 137 176 223 308 357 428
#     4   8  18  40  67  87 120 171 230 286 353 428
#     4  12  22  35  55  93 133 200 229 289 377 463
#     4  10  24  48  78 104 150 198 240 312 394 462
#     4  11  21  37  63  90 136 178 242 286 359 437
#
# _framework density 23.486125999999999
#
# number of rings (size 3 to 8) (size 9 to 14) (size 15 to 20)
#    0.621    1.241    1.034    4.966    0.000    1.655 
#    3.724    8.276    0.000    0.000    0.000    0.000 
#    0.000    0.000    0.000    0.000    0.000    0.000 
#
# Total GULP energy -323743.116787 kJ/mol
# GULP energy per Si atom -5581.777876 kJ/mol
# Density = 2.343267 g / cm^3
# Si number density = 23.486126 Si / 1000 Ang^3
#
#
#
# Elastic Constant Matrix: (Units=GPa)
#
#
# Indices 1 2 3 4 5 6 
#
# 1 56.1836 10.1371 16.8224 0.0000 0.0000 0.0000
# 2 10.1371 56.1836 16.8224 0.0000 0.0000 0.0000
# 3 16.8224 16.8224 108.5817 0.0000 0.0000 0.0000
# 4 0.0000 0.0000 0.0000 26.6611 0.0000 0.0000
# 5 0.0000 0.0000 0.0000 0.0000 26.6611 0.0000
# 6 0.0000 0.0000 0.0000 0.0000 0.0000 23.0233
#
#
#
# Elastic Compliance Matrix: (Units=1/GPa)
#
#
# Indices 1 2 3 4 5 6 
#
# 1 0.019041 -0.002676 -0.002535 0.000000 0.000000 0.000000
# 2 -0.002676 0.019041 -0.002535 0.000000 0.000000 0.000000
# 3 -0.002535 -0.002535 0.009995 0.000000 0.000000 0.000000
# 4 0.000000 0.000000 0.000000 0.037508 0.000000 0.000000
# 5 0.000000 0.000000 0.000000 0.000000 0.037508 0.000000
# 6 0.000000 0.000000 0.000000 0.000000 0.000000 0.043434
#
#
# Mechanical properties :
#
#
# Convention : Reuss Voigt Hill
#
# Bulk Modulus (GPa) = 30.69101 34.27918 32.48510
# Shear Modulus (GPa) = 25.92263 27.08024 26.50143
#
# Velocity S-wave (km/s) = 3.32587 3.39932 3.36279
# Velocity P-wave (km/s) = 5.27680 5.48036 5.37954
#
# Compressibility (1/GPa) = 0.03258283
#
# Stress axis : x y z
#
# Youngs Moduli (GPa) = 52.51885 52.51885 100.04762
#
# Poissons Ratio (x) = 0.14056 0.25365
# Poissons Ratio (y) = 0.14056 0.25365
# Poissons Ratio (z) = 0.13315 0.13315
#
# Static dielectric constant tensor:
#      x y z
#    x 1.941670 0.000000 0.000000 
#    y 0.000000 1.941670 0.000000 
#    z 0.000000 0.000000 1.907810 
# 
# From -- ./inp_files/2834.got.cif
#   From: 2010.05.17/outbox.cif.g08.bks.cpg/sg190_2_cif.got.tgz:2834.got - 2010.05.20 12:16:56.
