data_PCOD9586908
_publ_section_title
;
Structure prediction by ZEFSAII (Michael W. Deem and Ramdas Pophale) SiO2 
 PCOD9586908
Probable space group: P -6 2 C
;
_chemical_formula_sum "Si O2"
_cell_formula_units_Z 70
_cell_length_a 15.615160
_cell_length_b 15.615160
_cell_length_c 16.930695
_cell_angle_alpha 90.000000
_cell_angle_beta 90.000000
_cell_angle_gamma 120.000000
_cell_volume 3575.183151
_symmetry_space_group_name_H-M "P -6 2 C"
_symmetry_group_IT_number 190
_symmetry_cell_setting 'hexagonal'
loop_
_space_group_symop_operation_xyz
x,y,z
-x+y,-x,1/2-z
-y,x-y,z
x,y,1/2-z
-x+y,-x,z
-y,x-y,1/2-z
x-y,-y,-z
-x,-x+y,-z
y,x,-z
y,x,1/2+z
x-y,-y,1/2+z
-x,-x+y,1/2+z
loop_
_atom_site_type_symbol
_atom_site_label
_atom_site_fract_x
_atom_site_fract_y
_atom_site_fract_z
Si Si1 0.547585 0.111842 0.036482
Si Si2 0.621185 0.647335 0.658545
Si Si3 0.711679 0.252722 0.750000
Si Si4 0.110844 0.739486 0.968915
Si Si5 0.000000 0.000000 0.344525
Si Si6 0.788198 0.843039 0.914491
Si Si7 0.717237 0.527201 0.908562
O O1 0.470909 0.101962 0.104486
O O2 0.655722 0.134426 0.063993
O O3 0.552991 0.188812 0.969388
O O4 0.492166 0.000000 0.000000
O O5 0.596292 0.640197 0.750000
O O6 0.721354 0.747861 0.638441
O O7 0.652810 0.568260 0.633030
O O8 0.599281 0.226756 0.750000
O O9 0.735756 0.228662 0.664272
O O10 0.110836 0.827044 0.920221
O O11 0.194019 0.796822 0.035685
O O12 0.000000 0.676455 0.000000
O O13 0.973898 0.080877 0.377468
O O14 0.000000 0.000000 0.250000
O O15 0.809033 0.809033 0.000000
#
# Coordination Sequence:
#
# PCOD9586908 Si02
#       7
#    12  12   6  12   4  12  12
#     4   9  20  38  60  88 121 166 212 262 322 400
#     4  11  21  39  65  89 126 170 222 275 335 397
#     4  10  22  34  56 102 132 154 200 268 350 392
#     4  11  22  38  67  94 126 170 225 268 326 400
#     4  12  28  44  64  99 142 182 223 285 349 398
#     4  12  22  43  67  98 132 178 229 281 335 409
#     4  11  19  39  63  92 131 165 211 267 337 404
#
# _framework density 19.579416999999999
#
# number of rings (size 3 to 8) (size 9 to 14) (size 15 to 20)
#    0.171    1.029    4.286    3.600    0.000    0.000 
#    1.029    1.714    1.886    0.000    0.000    0.000 
#    0.000    0.000    0.000    0.000    0.000    0.000 
#
# Total GULP energy -389832.185589 kJ/mol
# GULP energy per Si atom -5569.031223 kJ/mol
# Density = 1.953485 g / cm^3
# Si number density = 19.579417 Si / 1000 Ang^3
#
#
#
# Elastic Constant Matrix: (Units=GPa)
#
#
# Indices 1 2 3 4 5 6 
#
# 1 92.5965 14.4483 36.6244 0.0000 0.0000 0.0000
# 2 14.4483 92.5965 36.6244 0.0000 0.0000 0.0000
# 3 36.6244 36.6244 99.4833 0.0000 0.0000 0.0000
# 4 0.0000 0.0000 0.0000 23.3811 0.0000 0.0000
# 5 0.0000 0.0000 0.0000 0.0000 23.3811 0.0000
# 6 0.0000 0.0000 0.0000 0.0000 0.0000 39.0741
#
#
#
# Elastic Compliance Matrix: (Units=1/GPa)
#
#
# Indices 1 2 3 4 5 6 
#
# 1 0.012642 -0.000154 -0.004597 0.000000 0.000000 0.000000
# 2 -0.000154 0.012642 -0.004597 0.000000 0.000000 0.000000
# 3 -0.004597 -0.004597 0.013437 0.000000 0.000000 0.000000
# 4 0.000000 0.000000 0.000000 0.042770 0.000000 0.000000
# 5 0.000000 0.000000 0.000000 0.000000 0.042770 0.000000
# 6 0.000000 0.000000 0.000000 0.000000 0.000000 0.025592
#
#
# Mechanical properties :
#
#
# Convention : Reuss Voigt Hill
#
# Bulk Modulus (GPa) = 49.94227 51.11897 50.53062
# Shear Modulus (GPa) = 28.53483 30.29921 29.41702
#
# Velocity S-wave (km/s) = 3.82172 3.93810 3.88035
# Velocity P-wave (km/s) = 6.71096 6.84422 6.77792
#
# Compressibility (1/GPa) = 0.02002312
#
# Stress axis : x y z
#
# Youngs Moduli (GPa) = 79.10162 79.10162 74.42192
#
# Poissons Ratio (x) = 0.01220 0.34214
# Poissons Ratio (y) = 0.01220 0.34214
# Poissons Ratio (z) = 0.36365 0.36365
#
# Static dielectric constant tensor:
#      x y z
#    x 1.692870 0.000000 0.000000 
#    y 0.000000 1.692870 0.000000 
#    z 0.000000 0.000000 1.793010 
# 
# From -- ./inp_files/3816.got.cif
#   From: 2010.05.17/outbox.cif.g08.bks.cpg/sg190_2_cif.got.tgz:3816.got - 2010.05.20 12:16:56.
