data_PCOD9586254
_publ_section_title
;
Structure prediction by ZEFSAII (Michael W. Deem and Ramdas Pophale) SiO2 
 PCOD9586254
Probable space group: P -6 2 M
;
_chemical_formula_sum "Si O2"
_cell_formula_units_Z 60
_cell_length_a 20.303471
_cell_length_b 20.303471
_cell_length_c 9.405031
_cell_angle_alpha 90.000000
_cell_angle_beta 90.000000
_cell_angle_gamma 120.000000
_cell_volume 3357.619219
_symmetry_space_group_name_H-M "P -6 2 M"
_symmetry_group_IT_number 189
_symmetry_cell_setting 'hexagonal'
loop_
_space_group_symop_operation_xyz
x,y,z
-x+y,-x,-z
-y,x-y,z
x,y,-z
-x+y,-x,z
-y,x-y,-z
x-y,-y,-z
-x,-x+y,-z
y,x,-z
y,x,z
x-y,-y,z
-x,-x+y,z
loop_
_atom_site_type_symbol
_atom_site_label
_atom_site_fract_x
_atom_site_fract_y
_atom_site_fract_z
Si Si1 0.772121 0.000000 0.329388
Si Si2 0.491740 0.697357 0.329624
Si Si3 0.382991 0.382991 0.673034
Si Si4 0.633269 0.161144 0.673618
Si Si5 0.086421 0.371858 0.159098
Si Si6 0.914317 0.127718 0.164093
O O1 0.774084 0.000000 0.500000
O O2 0.694580 0.000000 0.286274
O O3 0.775664 0.928609 0.265344
O O4 0.487256 0.696564 0.500000
O O5 0.481588 0.767626 0.280722
O O6 0.430452 0.612384 0.280556
O O7 0.572624 0.713321 0.277026
O O8 0.384536 0.384536 0.500000
O O9 0.458369 0.379842 0.719396
O O10 0.632869 0.159397 0.500000
O O11 0.085542 0.292535 0.163928
O O12 0.000000 0.351860 0.178888
O O13 0.111762 0.404169 0.000000
O O14 0.000000 0.148682 0.205093
O O15 0.901163 0.100011 0.000000
#
# Coordination Sequence:
#
# PCOD9586254 Si02
#       6
#     6  12   6  12  12  12
#     4  11  21  33  55  83 111 138 171 226 281 315
#     4  10  19  32  53  77 103 139 184 223 266 325
#     4   9  18  31  47  73 111 144 169 212 281 335
#     4   9  18  31  48  74 108 140 175 221 269 325
#     4   9  19  35  54  76 104 135 172 224 274 313
#     4   9  19  37  57  76 102 142 183 213 259 332
#
# _framework density 17.869806000000001
#
# number of rings (size 3 to 8) (size 9 to 14) (size 15 to 20)
#    0.000    2.600    0.000    3.100    1.400    4.800 
#    0.600    3.000    0.000    2.400    0.000    0.000 
#    0.000    0.000    0.000    0.000    0.000    0.000 
#
# Total GULP energy -334256.861485 kJ/mol
# GULP energy per Si atom -5570.947691 kJ/mol
# Density = 1.782913 g / cm^3
# Si number density = 17.869806 Si / 1000 Ang^3
#
#
#
# Elastic Constant Matrix: (Units=GPa)
#
#
# Indices 1 2 3 4 5 6 
#
# 1 115.6425 74.4402 26.8121 0.0000 0.0000 0.0000
# 2 74.4402 115.6425 26.8121 0.0000 0.0000 0.0000
# 3 26.8121 26.8121 13.1212 0.0000 0.0000 0.0000
# 4 0.0000 0.0000 0.0000 22.9786 0.0000 0.0000
# 5 0.0000 0.0000 0.0000 0.0000 22.9786 0.0000
# 6 0.0000 0.0000 0.0000 0.0000 0.0000 20.6011
#
#
#
# Elastic Compliance Matrix: (Units=1/GPa)
#
#
# Indices 1 2 3 4 5 6 
#
# 1 0.018346 -0.005925 -0.025382 0.000000 0.000000 0.000000
# 2 -0.005925 0.018346 -0.025382 0.000000 0.000000 0.000000
# 3 -0.025382 -0.025382 0.179945 0.000000 0.000000 0.000000
# 4 0.000000 0.000000 0.000000 0.043519 0.000000 0.000000
# 5 0.000000 0.000000 0.000000 0.000000 0.043519 0.000000
# 6 0.000000 0.000000 0.000000 0.000000 0.000000 0.048541
#
#
# Mechanical properties :
#
#
# Convention : Reuss Voigt Hill
#
# Bulk Modulus (GPa) = 9.68432 55.61498 32.64965
# Shear Modulus (GPa) = 9.99973 21.06777 15.53375
#
# Velocity S-wave (km/s) = 2.36813 3.43732 2.95154
# Velocity P-wave (km/s) = 3.59284 6.85153 5.47047
#
# Compressibility (1/GPa) = 0.10325965
#
# Stress axis : x y z
#
# Youngs Moduli (GPa) = 54.50788 54.50788 5.55724
#
# Poissons Ratio (x) = 0.32294 0.14105
# Poissons Ratio (y) = 0.32294 0.14105
# Poissons Ratio (z) = 1.38353 1.38353
#
# Static dielectric constant tensor:
#      x y z
#    x 1.674700 0.000000 0.000000 
#    y 0.000000 1.674700 0.000000 
#    z 0.000000 0.000000 1.591030 
# 
# From -- ./inp_files/902.got.cif
#   From: 2010.05.17/outbox.cif.g08.bks.cpg/sg189_1_cif.got.tgz:902.got - 2010.05.20 12:14:34.
