data_PCOD9586635
_publ_section_title
;
Structure prediction by ZEFSAII (Michael W. Deem and Ramdas Pophale) SiO2 
 PCOD9586635
Probable space group: P -6 2 C
;
_chemical_formula_sum "Si O2"
_cell_formula_units_Z 34
_cell_length_a 8.478895
_cell_length_b 8.478895
_cell_length_c 29.079358
_cell_angle_alpha 90.000000
_cell_angle_beta 90.000000
_cell_angle_gamma 120.000000
_cell_volume 1810.480953
_symmetry_space_group_name_H-M "P -6 2 C"
_symmetry_group_IT_number 190
_symmetry_cell_setting 'hexagonal'
loop_
_space_group_symop_operation_xyz
x,y,z
-x+y,-x,1/2-z
-y,x-y,z
x,y,1/2-z
-x+y,-x,z
-y,x-y,1/2-z
x-y,-y,-z
-x,-x+y,-z
y,x,-z
y,x,1/2+z
x-y,-y,1/2+z
-x,-x+y,1/2+z
loop_
_atom_site_type_symbol
_atom_site_label
_atom_site_fract_x
_atom_site_fract_y
_atom_site_fract_z
Si Si1 0.621511 0.994141 0.152364
Si Si2 0.004575 0.302986 0.882263
Si Si3 0.903661 0.478095 0.250000
Si Si4 0.000000 0.000000 0.554520
O O1 0.682709 0.845366 0.147624
O O2 0.801268 0.186374 0.142687
O O3 0.471264 0.967946 0.114274
O O4 0.543454 0.989521 0.202824
O O5 0.010521 0.183821 0.924960
O O6 0.787193 0.258775 0.250000
O O7 0.000000 0.000000 0.500000
#
# Coordination Sequence:
#
# PCOD9586635 Si02
#       4
#    12  12   6   4
#     4  11  20  36  56  87 118 167 198 246 298 343
#     4  10  21  37  60  86 123 155 198 246 307 357
#     4  10  18  32  56  80 120 160 214 244 284 348
#     4   9  21  42  66  91 116 151 198 255 312 381
#
# _framework density 18.779540000000001
#
# number of rings (size 3 to 8) (size 9 to 14) (size 15 to 20)
#    0.353    1.412    3.529    2.118    0.000    2.824 
#    0.000    7.059    0.000    0.000    0.000    0.000 
#    0.000    0.000    0.000    0.000    0.000    0.000 
#
# Total GULP energy -189376.325778 kJ/mol
# GULP energy per Si atom -5569.891935 kJ/mol
# Density = 1.873680 g / cm^3
# Si number density = 18.779540 Si / 1000 Ang^3
#
#
#
# Elastic Constant Matrix: (Units=GPa)
#
#
# Indices 1 2 3 4 5 6 
#
# 1 71.7641 -5.5590 27.9653 0.0000 0.0000 0.0000
# 2 -5.5590 71.7641 27.9653 0.0000 0.0000 0.0000
# 3 27.9653 27.9653 121.7908 0.0000 0.0000 0.0000
# 4 0.0000 0.0000 0.0000 15.2677 0.0000 0.0000
# 5 0.0000 0.0000 0.0000 0.0000 15.2677 0.0000
# 6 0.0000 0.0000 0.0000 0.0000 0.0000 38.6616
#
#
#
# Elastic Compliance Matrix: (Units=1/GPa)
#
#
# Indices 1 2 3 4 5 6 
#
# 1 0.015836 0.002904 -0.004303 0.000000 0.000000 0.000000
# 2 0.002904 0.015836 -0.004303 0.000000 0.000000 0.000000
# 3 -0.004303 -0.004303 0.010187 0.000000 0.000000 0.000000
# 4 0.000000 0.000000 0.000000 0.065498 0.000000 0.000000
# 5 0.000000 0.000000 0.000000 0.000000 0.065498 0.000000
# 6 0.000000 0.000000 0.000000 0.000000 0.000000 0.025865
#
#
# Mechanical properties :
#
#
# Convention : Reuss Voigt Hill
#
# Bulk Modulus (GPa) = 32.83589 40.67359 36.75474
# Shear Modulus (GPa) = 22.69872 28.16922 25.43397
#
# Velocity S-wave (km/s) = 3.48040 3.87718 3.68413
# Velocity P-wave (km/s) = 5.80291 6.46133 6.14095
#
# Compressibility (1/GPa) = 0.03045448
#
# Stress axis : x y z
#
# Youngs Moduli (GPa) = 63.14626 63.14626 98.16544
#
# Poissons Ratio (x) = -0.18335 0.42240
# Poissons Ratio (y) = -0.18335 0.42240
# Poissons Ratio (z) = 0.27172 0.27172
#
# Static dielectric constant tensor:
#      x y z
#    x 1.690290 0.000000 0.000000 
#    y 0.000000 1.690290 0.000000 
#    z 0.000000 0.000000 1.611960 
# 
# From -- ./inp_files/4810.got.cif
#   From: 2010.05.17/outbox.cif.g08.bks.cpg/sg190_3_cif.got.tgz:4810.got - 2010.05.20 12:16:56.
