data_PCOD9586289
_publ_section_title
;
Structure prediction by ZEFSAII (Michael W. Deem and Ramdas Pophale) SiO2 
 PCOD9586289
Probable space group: P -6 2 M
;
_chemical_formula_sum "Si O2"
_cell_formula_units_Z 60
_cell_length_a 21.283218
_cell_length_b 21.283218
_cell_length_c 8.858745
_cell_angle_alpha 90.000000
_cell_angle_beta 90.000000
_cell_angle_gamma 120.000000
_cell_volume 3475.180921
_symmetry_space_group_name_H-M "P -6 2 M"
_symmetry_group_IT_number 189
_symmetry_cell_setting 'hexagonal'
loop_
_space_group_symop_operation_xyz
x,y,z
-x+y,-x,-z
-y,x-y,z
x,y,-z
-x+y,-x,z
-y,x-y,-z
x-y,-y,-z
-x,-x+y,-z
y,x,-z
y,x,z
x-y,-y,z
-x,-x+y,z
loop_
_atom_site_type_symbol
_atom_site_label
_atom_site_fract_x
_atom_site_fract_y
_atom_site_fract_z
Si Si1 0.913392 0.554813 0.180214
Si Si2 0.290492 0.914493 0.180709
Si Si3 0.211116 0.211116 0.822931
Si Si4 0.918158 0.000000 0.673019
Si Si5 0.087911 0.509953 0.326669
Si Si6 0.205356 0.346066 0.680302
O O1 0.890973 0.475372 0.242140
O O2 0.869031 0.587808 0.259804
O O3 0.000000 0.606877 0.212865
O O4 0.904862 0.553632 0.000000
O O5 0.348332 0.892257 0.240652
O O6 0.213637 0.862577 0.256663
O O7 0.323616 0.000000 0.218142
O O8 0.284532 0.907599 0.000000
O O9 0.136990 0.136990 0.791013
O O10 0.203811 0.275017 0.745837
O O11 0.226095 0.226095 0.000000
O O12 0.893976 0.000000 0.500000
O O13 0.932301 0.932301 0.688870
O O14 0.113279 0.521868 0.500000
O O15 0.000000 0.466689 0.329164
O O16 0.204348 0.344590 0.500000
#
# Coordination Sequence:
#
# PCOD9586289 Si02
#       6
#    12  12   6   6  12  12
#     4  10  19  33  55  82 112 144 180 223 274 330
#     4  10  21  38  58  82 113 150 193 238 288 343
#     4  12  24  38  56  80 112 147 188 241 298 352
#     4   8  18  38  60  78 100 135 186 239 290 350
#     4   9  17  31  54  82 111 140 176 219 266 324
#     4  12  24  37  56  81 114 151 191 240 294 345
#
# _framework density 17.265288000000002
#
# number of rings (size 3 to 8) (size 9 to 14) (size 15 to 20)
#    0.200    1.600    1.000    4.500    0.000    5.600 
#    0.000    0.000    0.000    0.800    0.000    5.600 
#    0.000    0.000    0.000    0.000    0.000    0.000 
#
# Total GULP energy -334881.850539 kJ/mol
# GULP energy per Si atom -5581.364176 kJ/mol
# Density = 1.722599 g / cm^3
# Si number density = 17.265288 Si / 1000 Ang^3
#
#
#
# Elastic Constant Matrix: (Units=GPa)
#
#
# Indices 1 2 3 4 5 6 
#
# 1 104.5980 65.4136 67.8245 0.0000 0.0000 0.0000
# 2 65.4136 104.5980 67.8245 0.0000 0.0000 0.0000
# 3 67.8245 67.8245 139.0493 0.0000 0.0000 0.0000
# 4 0.0000 0.0000 0.0000 30.9959 0.0000 0.0000
# 5 0.0000 0.0000 0.0000 0.0000 30.9959 0.0000
# 6 0.0000 0.0000 0.0000 0.0000 0.0000 19.5922
#
#
#
# Elastic Compliance Matrix: (Units=1/GPa)
#
#
# Indices 1 2 3 4 5 6 
#
# 1 0.017575 -0.007945 -0.004697 0.000000 0.000000 0.000000
# 2 -0.007945 0.017575 -0.004697 0.000000 0.000000 0.000000
# 3 -0.004697 -0.004697 0.011774 0.000000 0.000000 0.000000
# 4 0.000000 0.000000 0.000000 0.032262 0.000000 0.000000
# 5 0.000000 0.000000 0.000000 0.000000 0.032262 0.000000
# 6 0.000000 0.000000 0.000000 0.000000 0.000000 0.051041
#
#
# Mechanical properties :
#
#
# Convention : Reuss Voigt Hill
#
# Bulk Modulus (GPa) = 81.66670 83.37448 82.52059
# Shear Modulus (GPa) = 24.84473 26.12900 25.48686
#
# Velocity S-wave (km/s) = 3.79753 3.89444 3.84629
# Velocity P-wave (km/s) = 8.16285 8.28356 8.22342
#
# Compressibility (1/GPa) = 0.01224489
#
# Stress axis : x y z
#
# Youngs Moduli (GPa) = 56.89901 56.89901 84.93348
#
# Poissons Ratio (x) = 0.45208 0.39894
# Poissons Ratio (y) = 0.45208 0.39894
# Poissons Ratio (z) = 0.26726 0.26726
#
# Static dielectric constant tensor:
#      x y z
#    x 1.576480 0.000000 0.000000 
#    y 0.000000 1.576480 0.000000 
#    z 0.000000 0.000000 1.576150 
# 
# From -- ./inp_files/986.got.cif
#   From: 2010.05.17/outbox.cif.g08.bks.cpg/sg189_1_cif.got.tgz:986.got - 2010.05.20 12:14:34.
