data_PCOD9586294
_publ_section_title
;
Structure prediction by ZEFSAII (Michael W. Deem and Ramdas Pophale) SiO2 
 PCOD9586294
Probable space group: P -6 2 M
;
_chemical_formula_sum "Si O2"
_cell_formula_units_Z 60
_cell_length_a 13.833130
_cell_length_b 13.833130
_cell_length_c 16.276461
_cell_angle_alpha 90.000000
_cell_angle_beta 90.000000
_cell_angle_gamma 120.000000
_cell_volume 2697.314148
_symmetry_space_group_name_H-M "P -6 2 M"
_symmetry_group_IT_number 189
_symmetry_cell_setting 'hexagonal'
loop_
_space_group_symop_operation_xyz
x,y,z
-x+y,-x,-z
-y,x-y,z
x,y,-z
-x+y,-x,z
-y,x-y,-z
x-y,-y,-z
-x,-x+y,-z
y,x,-z
y,x,z
x-y,-y,z
-x,-x+y,z
loop_
_atom_site_type_symbol
_atom_site_label
_atom_site_fract_x
_atom_site_fract_y
_atom_site_fract_z
Si Si1 0.129055 0.873490 0.627720
Si Si2 0.326852 0.201530 0.804923
Si Si3 0.550081 0.417787 0.246904
Si Si4 0.533853 0.666223 0.091149
Si Si5 0.343888 0.863739 0.589201
O O1 0.137623 0.874481 0.727169
O O2 0.216425 0.836924 0.596898
O O3 0.000000 0.791052 0.606028
O O4 0.173160 0.000000 0.599515
O O5 0.256847 0.256847 0.838158
O O6 0.439075 0.300642 0.763453
O O7 0.365885 0.148086 0.874457
O O8 0.508662 0.508662 0.248020
O O9 0.620993 0.443115 0.163697
O O10 0.617099 0.440263 0.331509
O O11 0.580328 0.580328 0.085229
O O12 0.497407 0.678143 0.000000
O O13 0.362322 0.826930 0.500000
O O14 0.416178 0.000000 0.590117
#
# Coordination Sequence:
#
# PCOD9586294 Si02
#       5
#    12  12  12  12  12
#     4  10  19  33  55  86 123 161 201 243 292 355
#     4  10  20  34  56  83 113 152 197 244 299 358
#     4   9  18  35  55  76 106 142 187 243 293 344
#     4  10  20  36  59  84 113 152 194 238 298 367
#     4   9  17  32  56  80 106 148 195 238 290 347
#
# _framework density 22.244350000000001
#
# number of rings (size 3 to 8) (size 9 to 14) (size 15 to 20)
#    0.000    2.400    2.000    0.800    0.000    1.600 
#    1.200    3.000    0.000    5.200    0.000    0.000 
#    0.000    0.000    0.000    0.000    0.000    0.000 
#
# Total GULP energy -335030.216513 kJ/mol
# GULP energy per Si atom -5583.836942 kJ/mol
# Density = 2.219372 g / cm^3
# Si number density = 22.244350 Si / 1000 Ang^3
#
#
#
# Elastic Constant Matrix: (Units=GPa)
#
#
# Indices 1 2 3 4 5 6 
#
# 1 56.4807 6.9880 28.4853 0.0000 0.0000 0.0000
# 2 6.9880 56.4807 28.4853 0.0000 0.0000 0.0000
# 3 28.4853 28.4853 174.8431 0.0000 0.0000 0.0000
# 4 0.0000 0.0000 0.0000 -2.0529 0.0000 0.0000
# 5 0.0000 0.0000 0.0000 0.0000 -2.0529 0.0000
# 6 0.0000 0.0000 0.0000 0.0000 0.0000 24.7463
#
#
#
# Elastic Compliance Matrix: (Units=1/GPa)
#
#
# Indices 1 2 3 4 5 6 
#
# 1 0.019330 -0.000875 -0.003007 0.000000 0.000000 0.000000
# 2 -0.000875 0.019330 -0.003007 0.000000 0.000000 0.000000
# 3 -0.003007 -0.003007 0.006699 0.000000 0.000000 0.000000
# 4 0.000000 0.000000 0.000000 -0.487118 0.000000 0.000000
# 5 0.000000 0.000000 0.000000 0.000000 -0.487118 0.000000
# 6 0.000000 0.000000 0.000000 0.000000 0.000000 0.040410
#
#
# Mechanical properties :
#
#
# Convention : Reuss Voigt Hill
#
# Bulk Modulus (GPa) = 31.66376 46.19127 38.92752
# Shear Modulus (GPa) = -5.78594 19.05118 6.63262
#
# Velocity S-wave (km/s) = -1.61454 2.92969 1.72864
# Velocity P-wave (km/s) = 3.28478 5.67931 4.63920
#
# Compressibility (1/GPa) = 0.03158185
#
# Stress axis : x y z
#
# Youngs Moduli (GPa) = 51.73361 51.73361 149.27428
#
# Poissons Ratio (x) = 0.04528 0.44881
# Poissons Ratio (y) = 0.04528 0.44881
# Poissons Ratio (z) = 0.15554 0.15554
#
# Static dielectric constant tensor:
#      x y z
#    x 1.833860 0.000000 0.000000 
#    y 0.000000 1.833860 0.000000 
#    z 0.000000 0.000000 1.831500 
# 
# From -- ./inp_files/2520.got.cif
#   From: 2010.05.17/outbox.cif.g08.bks.cpg/sg189_2_cif.got.tgz:2520.got - 2010.05.20 12:14:34.
