data_PCOD9586319
_publ_section_title
;
Structure prediction by ZEFSAII (Michael W. Deem and Ramdas Pophale) SiO2 
 PCOD9586319
Probable space group: P -6 2 M
;
_chemical_formula_sum "Si O2"
_cell_formula_units_Z 84
_cell_length_a 17.684718
_cell_length_b 17.684718
_cell_length_c 16.899896
_cell_angle_alpha 90.000000
_cell_angle_beta 90.000000
_cell_angle_gamma 120.000000
_cell_volume 4577.316487
_symmetry_space_group_name_H-M "P -6 2 M"
_symmetry_group_IT_number 189
_symmetry_cell_setting 'hexagonal'
loop_
_space_group_symop_operation_xyz
x,y,z
-x+y,-x,-z
-y,x-y,z
x,y,-z
-x+y,-x,z
-y,x-y,-z
x-y,-y,-z
-x,-x+y,-z
y,x,-z
y,x,z
x-y,-y,z
-x,-x+y,z
loop_
_atom_site_type_symbol
_atom_site_label
_atom_site_fract_x
_atom_site_fract_y
_atom_site_fract_z
Si Si1 0.507947 0.103799 0.586898
Si Si2 0.473705 0.165164 0.160380
Si Si3 0.363855 0.101741 0.000000
Si Si4 0.354566 0.504299 0.846186
Si Si5 0.901647 0.554076 0.676210
Si Si6 0.201757 0.099907 0.407317
Si Si7 0.097489 0.711473 0.000000
Si Si8 0.148469 0.378983 0.674181
O O1 0.537509 0.142609 0.500000
O O2 0.588906 0.132764 0.645295
O O3 0.431609 0.117885 0.618874
O O4 0.465775 0.000000 0.581988
O O5 0.420033 0.120502 0.080530
O O6 0.553031 0.145509 0.161518
O O7 0.517866 0.270570 0.157549
O O8 0.408411 0.137595 0.236658
O O9 0.347964 0.184421 0.000000
O O10 0.287684 0.000000 0.000000
O O11 0.349186 0.447792 0.770698
O O12 0.335702 0.448258 0.925185
O O13 0.834142 0.584514 0.654761
O O14 0.000000 0.617602 0.646816
O O15 0.232087 0.115635 0.500000
O O16 0.165923 0.165923 0.388078
O O17 0.277864 0.106720 0.349765
O O18 0.123530 0.000000 0.403468
O O19 0.000000 0.692066 0.000000
#
# Coordination Sequence:
#
# PCOD9586319 Si02
#       8
#    12  12   6  12  12  12   6  12
#     4  10  21  37  54  74 105 144 186 232 281 335
#     4  10  21  35  57  85 119 157 195 240 291 344
#     4  10  23  39  57  86 117 147 192 246 301 355
#     4  10  19  35  55  83 115 152 189 231 275 336
#     4  10  21  36  54  77 108 146 186 231 280 331
#     4  10  21  38  61  88 117 148 189 247 313 375
#     4  10  21  37  59  84 113 151 192 234 291 351
#     4  11  21  36  57  84 113 151 194 237 289 353
#
# _framework density 18.351362999999999
#
# number of rings (size 3 to 8) (size 9 to 14) (size 15 to 20)
#    0.000    1.857    1.429    2.571    0.000    5.714 
#    0.857    3.571    0.000    0.143    0.000    0.000 
#    0.000    0.000    0.000    0.000    0.000    0.000 
#
# Total GULP energy -468023.761186 kJ/mol
# GULP energy per Si atom -5571.711443 kJ/mol
# Density = 1.830959 g / cm^3
# Si number density = 18.351363 Si / 1000 Ang^3
#
#
#
# Elastic Constant Matrix: (Units=GPa)
#
#
# Indices 1 2 3 4 5 6 
#
# 1 76.0489 43.3522 25.3029 0.0000 0.0000 0.0000
# 2 43.3522 76.0489 25.3029 0.0000 0.0000 0.0000
# 3 25.3029 25.3029 96.6709 0.0000 0.0000 0.0000
# 4 0.0000 0.0000 0.0000 17.1706 0.0000 0.0000
# 5 0.0000 0.0000 0.0000 0.0000 17.1706 0.0000
# 6 0.0000 0.0000 0.0000 0.0000 0.0000 16.3483
#
#
#
# Elastic Compliance Matrix: (Units=1/GPa)
#
#
# Indices 1 2 3 4 5 6 
#
# 1 0.020002 -0.010582 -0.002466 0.000000 0.000000 0.000000
# 2 -0.010582 0.020002 -0.002466 0.000000 0.000000 0.000000
# 3 -0.002466 -0.002466 0.011635 0.000000 0.000000 0.000000
# 4 0.000000 0.000000 0.000000 0.058239 0.000000 0.000000
# 5 0.000000 0.000000 0.000000 0.000000 0.058239 0.000000
# 6 0.000000 0.000000 0.000000 0.000000 0.000000 0.061168
#
#
# Mechanical properties :
#
#
# Convention : Reuss Voigt Hill
#
# Bulk Modulus (GPa) = 48.51356 48.52051 48.51704
# Shear Modulus (GPa) = 18.71375 20.45863 19.58619
#
# Velocity S-wave (km/s) = 3.19681 3.34253 3.27048
# Velocity P-wave (km/s) = 6.33399 6.43380 6.38409
#
# Compressibility (1/GPa) = 0.02061279
#
# Stress axis : x y z
#
# Youngs Moduli (GPa) = 49.99465 49.99465 85.94676
#
# Poissons Ratio (x) = 0.52904 0.21191
# Poissons Ratio (y) = 0.52904 0.21191
# Poissons Ratio (z) = 0.12327 0.12327
#
# Static dielectric constant tensor:
#      x y z
#    x 1.663490 0.000000 0.000000 
#    y 0.000000 1.663490 0.000000 
#    z 0.000000 0.000000 1.653930 
# 
# From -- ./inp_files/2843.got.cif
#   From: 2010.05.17/outbox.cif.g08.bks.cpg/sg189_2_cif.got.tgz:2843.got - 2010.05.20 12:14:34.
