data_PCOD9586383
_publ_section_title
;
Structure prediction by ZEFSAII (Michael W. Deem and Ramdas Pophale) SiO2 
 PCOD9586383
Probable space group: P -6 2 M
;
_chemical_formula_sum "Si O2"
_cell_formula_units_Z 60
_cell_length_a 15.137512
_cell_length_b 15.137512
_cell_length_c 15.420618
_cell_angle_alpha 90.000000
_cell_angle_beta 90.000000
_cell_angle_gamma 120.000000
_cell_volume 3060.140816
_symmetry_space_group_name_H-M "P -6 2 M"
_symmetry_group_IT_number 189
_symmetry_cell_setting 'hexagonal'
loop_
_space_group_symop_operation_xyz
x,y,z
-x+y,-x,-z
-y,x-y,z
x,y,-z
-x+y,-x,z
-y,x-y,-z
x-y,-y,-z
-x,-x+y,-z
y,x,-z
y,x,z
x-y,-y,z
-x,-x+y,z
loop_
_atom_site_type_symbol
_atom_site_label
_atom_site_fract_x
_atom_site_fract_y
_atom_site_fract_z
Si Si1 0.550358 0.121323 0.269993
Si Si2 0.121246 0.878589 0.099682
Si Si3 0.122250 0.755643 0.262145
Si Si4 0.404506 0.123123 0.400694
Si Si5 0.443372 0.654476 0.907421
O O1 0.668435 0.153870 0.266353
O O2 0.511962 0.155141 0.353534
O O3 0.516798 0.153543 0.181895
O O4 0.491073 0.000000 0.271419
O O5 0.144346 0.815674 0.171070
O O6 0.000000 0.838866 0.106579
O O7 0.186979 0.000000 0.114787
O O8 0.139161 0.858182 0.000000
O O9 0.182463 0.832280 0.339974
O O10 0.000000 0.698603 0.273991
O O11 0.416723 0.157692 0.500000
O O12 0.339309 0.000000 0.399811
O O13 0.432764 0.755289 0.907823
O O14 0.488301 0.647738 0.000000
#
# Coordination Sequence:
#
# PCOD9586383 Si02
#       5
#    12  12  12  12  12
#     4  10  20  34  53  77 107 142 181 229 279 332
#     4   9  17  31  54  86 124 164 203 241 284 340
#     4  10  21  36  58  87 116 147 188 240 290 340
#     4  10  22  40  59  79 108 145 185 234 294 357
#     4   8  16  30  49  70  96 134 174 213 257 308
#
# _framework density 19.606940000000002
#
# number of rings (size 3 to 8) (size 9 to 14) (size 15 to 20)
#    0.400    2.200    0.000    2.000    0.000    3.200 
#    1.200    5.000    0.000    1.600    0.000    0.000 
#    0.000    0.000    0.000    0.000    0.000    0.000 
#
# Total GULP energy -334412.435439 kJ/mol
# GULP energy per Si atom -5573.540591 kJ/mol
# Density = 1.956231 g / cm^3
# Si number density = 19.606940 Si / 1000 Ang^3
#
#
#
# Elastic Constant Matrix: (Units=GPa)
#
#
# Indices 1 2 3 4 5 6 
#
# 1 68.7123 33.8250 51.9729 0.0000 0.0000 0.0000
# 2 33.8250 68.7123 51.9729 0.0000 0.0000 0.0000
# 3 51.9729 51.9729 178.3737 0.0000 0.0000 0.0000
# 4 0.0000 0.0000 0.0000 29.6838 0.0000 0.0000
# 5 0.0000 0.0000 0.0000 0.0000 29.6838 0.0000
# 6 0.0000 0.0000 0.0000 0.0000 0.0000 17.4436
#
#
#
# Elastic Compliance Matrix: (Units=1/GPa)
#
#
# Indices 1 2 3 4 5 6 
#
# 1 0.021252 -0.007412 -0.004033 0.000000 0.000000 0.000000
# 2 -0.007412 0.021252 -0.004033 0.000000 0.000000 0.000000
# 3 -0.004033 -0.004033 0.007956 0.000000 0.000000 0.000000
# 4 0.000000 0.000000 0.000000 0.033688 0.000000 0.000000
# 5 0.000000 0.000000 0.000000 0.000000 0.033688 0.000000
# 6 0.000000 0.000000 0.000000 0.000000 0.000000 0.057328
#
#
# Mechanical properties :
#
#
# Convention : Reuss Voigt Hill
#
# Bulk Modulus (GPa) = 51.26473 65.70446 58.48460
# Shear Modulus (GPa) = 23.51597 27.23075 25.37336
#
# Velocity S-wave (km/s) = 3.46695 3.73075 3.60126
# Velocity P-wave (km/s) = 6.49841 7.22091 6.86916
#
# Compressibility (1/GPa) = 0.01950659
#
# Stress axis : x y z
#
# Youngs Moduli (GPa) = 47.05386 47.05386 125.68680
#
# Poissons Ratio (x) = 0.34874 0.50687
# Poissons Ratio (y) = 0.34874 0.50687
# Poissons Ratio (z) = 0.18976 0.18976
#
# Static dielectric constant tensor:
#      x y z
#    x 1.711400 0.000000 0.000000 
#    y 0.000000 1.711400 0.000000 
#    z 0.000000 0.000000 1.688950 
# 
# From -- ./inp_files/2535.got.cif
#   From: 2010.05.17/outbox.cif.g08.bks.cpg/sg189_2_cif.got.tgz:2535.got - 2010.05.20 12:14:34.
