data_PCOD9586576
_publ_section_title
;
Structure prediction by ZEFSAII (Michael W. Deem and Ramdas Pophale) SiO2 
 PCOD9586576
Probable space group: P -6 2 M
;
_chemical_formula_sum "Si O2"
_cell_formula_units_Z 16
_cell_length_a 9.712619
_cell_length_b 9.712619
_cell_length_c 8.757593
_cell_angle_alpha 90.000000
_cell_angle_beta 90.000000
_cell_angle_gamma 120.000000
_cell_volume 715.464509
_symmetry_space_group_name_H-M "P -6 2 M"
_symmetry_group_IT_number 189
_symmetry_cell_setting 'hexagonal'
loop_
_space_group_symop_operation_xyz
x,y,z
-x+y,-x,-z
-y,x-y,z
x,y,-z
-x+y,-x,z
-y,x-y,-z
x-y,-y,-z
-x,-x+y,-z
y,x,-z
y,x,z
x-y,-y,z
-x,-x+y,z
loop_
_atom_site_type_symbol
_atom_site_label
_atom_site_fract_x
_atom_site_fract_y
_atom_site_fract_z
Si Si1 0.666668 0.333334 0.818988
Si Si2 0.820900 0.000000 0.179481
Si Si3 0.523496 0.000000 0.320063
O O1 0.613410 0.454007 0.755579
O O2 0.666667 0.333334 0.000000
O O3 0.000000 0.147735 0.203718
O O4 0.687257 0.000000 0.282290
O O5 0.779624 0.000000 0.000000
O O6 0.499642 0.000000 0.500000
#
# Coordination Sequence:
#
# PCOD9586576 Si02
#       3
#     4   6   6
#     4  12  28  50  76 102 142 194 244 291 358 440
#     4   8  18  37  64  95 134 182 234 278 336 421
#     4  12  26  45  70 105 146 184 236 302 364 417
#
# _framework density 22.363095000000001
#
# number of rings (size 3 to 8) (size 9 to 14) (size 15 to 20)
#    0.750    0.750    0.000    5.625    5.250    1.500 
#    0.000    0.000    0.000    0.000    0.000    0.000 
#    0.000    0.000    0.000    0.000    0.000    0.000 
#
# Total GULP energy -89538.101792 kJ/mol
# GULP energy per Si atom -5596.131362 kJ/mol
# Density = 2.231220 g / cm^3
# Si number density = 22.363095 Si / 1000 Ang^3
#
#
#
# Elastic Constant Matrix: (Units=GPa)
#
#
# Indices 1 2 3 4 5 6 
#
# 1 90.0344 24.1266 38.5884 0.0000 0.0000 -0.0002
# 2 24.1266 90.0313 38.5884 -0.0002 0.0000 -0.0007
# 3 38.5884 38.5884 184.3764 0.0003 0.0000 0.0000
# 4 0.0000 -0.0002 0.0003 37.8608 -0.0001 0.0000
# 5 0.0000 0.0000 0.0000 -0.0001 37.8616 -0.0001
# 6 -0.0002 -0.0007 0.0000 0.0000 -0.0001 32.9529
#
#
#
# Elastic Compliance Matrix: (Units=1/GPa)
#
#
# Indices 1 2 3 4 5 6 
#
# 1 0.012688 -0.002485 -0.002135 0.000000 0.000000 0.000000
# 2 -0.002485 0.012688 -0.002136 0.000000 0.000000 0.000000
# 3 -0.002135 -0.002136 0.006318 0.000000 0.000000 0.000000
# 4 0.000000 0.000000 0.000000 0.026413 0.000000 0.000000
# 5 0.000000 0.000000 0.000000 0.000000 0.026412 0.000000
# 6 0.000000 0.000000 0.000000 0.000000 0.000000 0.030346
#
#
# Mechanical properties :
#
#
# Convention : Reuss Voigt Hill
#
# Bulk Modulus (GPa) = 54.99834 63.00543 59.00189
# Shear Modulus (GPa) = 37.19207 39.27764 38.23485
#
# Velocity S-wave (km/s) = 4.08254 4.19544 4.13937
# Velocity P-wave (km/s) = 6.84613 7.19055 7.02045
#
# Compressibility (1/GPa) = 0.01818237
#
# Stress axis : x y z
#
# Youngs Moduli (GPa) = 78.81485 78.81184 158.28893
#
# Poissons Ratio (x) = 0.19584 0.33801
# Poissons Ratio (y) = 0.19584 0.33803
# Poissons Ratio (z) = 0.16830 0.16830
#
# Static dielectric constant tensor:
#      x y z
#    x 1.834140 0.000000 0.000000 
#    y 0.000000 1.834140 0.000000 
#    z 0.000000 0.000000 1.737790 
# 
# From -- ./inp_files/137.got.cif
#   From: 2010.05.17/outbox.cif.g08.bks.cpg/sg189_1_cif.got.tgz:137.got - 2010.05.20 12:14:34.
