data_PCOD9586822
_publ_section_title
;
Structure prediction by ZEFSAII (Michael W. Deem and Ramdas Pophale) SiO2 
 PCOD9586822
Probable space group: P -6 2 C
;
_chemical_formula_sum "Si O2"
_cell_formula_units_Z 52
_cell_length_a 11.607148
_cell_length_b 11.607148
_cell_length_c 20.357621
_cell_angle_alpha 90.000000
_cell_angle_beta 90.000000
_cell_angle_gamma 120.000000
_cell_volume 2375.246575
_symmetry_space_group_name_H-M "P -6 2 C"
_symmetry_group_IT_number 190
_symmetry_cell_setting 'hexagonal'
loop_
_space_group_symop_operation_xyz
x,y,z
-x+y,-x,1/2-z
-y,x-y,z
x,y,1/2-z
-x+y,-x,z
-y,x-y,1/2-z
x-y,-y,-z
-x,-x+y,-z
y,x,-z
y,x,1/2+z
x-y,-y,1/2+z
-x,-x+y,1/2+z
loop_
_atom_site_type_symbol
_atom_site_label
_atom_site_fract_x
_atom_site_fract_y
_atom_site_fract_z
Si Si1 0.278308 0.012042 0.750000
Si Si2 0.064401 0.682997 0.105093
Si Si3 0.888132 0.167850 0.442163
Si Si4 0.000000 0.000000 0.082391
Si Si5 0.351731 0.934993 0.387318
Si Si6 0.735347 0.994009 0.750000
O O1 0.156676 0.861980 0.750000
O O2 0.376308 0.048761 0.688381
O O3 0.216452 0.109405 0.750000
O O4 0.206132 0.815440 0.089850
O O5 0.088947 0.560287 0.096399
O O6 0.023737 0.682987 0.181636
O O7 0.944176 0.678173 0.061726
O O8 0.000000 0.215723 0.500000
O O9 0.946772 0.095600 0.395335
O O10 0.921558 0.309453 0.416502
O O11 0.000000 0.000000 0.000000
#
# Coordination Sequence:
#
# PCOD9586822 Si02
#       6
#     6  12  12   4  12   6
#     4  10  20  36  64  98 130 179 231 280 350 406
#     4  11  23  41  67  98 139 180 225 280 351 420
#     4  11  22  41  68  95 127 174 228 282 340 405
#     4   9  18  36  66  94 116 157 219 276 325 389
#     4  11  23  41  64  95 135 175 226 281 345 420
#     4  10  20  36  64 100 138 175 225 292 344 416
#
# _framework density 21.892464
#
# number of rings (size 3 to 8) (size 9 to 14) (size 15 to 20)
#    0.000    1.385    4.615    1.385    0.000    0.000 
#    5.538    2.308    0.000    0.000    0.000    0.000 
#    0.000    0.000    0.000    0.000    0.000    0.000 
#
# Total GULP energy -289511.255976 kJ/mol
# GULP energy per Si atom -5567.524153 kJ/mol
# Density = 2.184264 g / cm^3
# Si number density = 21.892464 Si / 1000 Ang^3
#
#
#
# Elastic Constant Matrix: (Units=GPa)
#
#
# Indices 1 2 3 4 5 6 
#
# 1 138.9839 56.7047 28.8987 0.0000 0.0000 0.0000
# 2 56.7047 138.9839 28.8987 0.0000 0.0000 0.0000
# 3 28.8987 28.8987 66.3105 0.0000 0.0000 0.0000
# 4 0.0000 0.0000 0.0000 9.8906 0.0000 0.0000
# 5 0.0000 0.0000 0.0000 0.0000 9.8906 0.0000
# 6 0.0000 0.0000 0.0000 0.0000 0.0000 41.1396
#
#
#
# Elastic Compliance Matrix: (Units=1/GPa)
#
#
# Indices 1 2 3 4 5 6 
#
# 1 0.009009 -0.003144 -0.002556 0.000000 0.000000 0.000000
# 2 -0.003144 0.009009 -0.002556 0.000000 0.000000 0.000000
# 3 -0.002556 -0.002556 0.017308 0.000000 0.000000 0.000000
# 4 0.000000 0.000000 0.000000 0.101106 0.000000 0.000000
# 5 0.000000 0.000000 0.000000 0.000000 0.101106 0.000000
# 6 0.000000 0.000000 0.000000 0.000000 0.000000 0.024307
#
#
# Mechanical properties :
#
#
# Convention : Reuss Voigt Hill
#
# Bulk Modulus (GPa) = 53.15070 63.69807 58.42439
# Shear Modulus (GPa) = 17.56658 27.50258 22.53458
#
# Velocity S-wave (km/s) = 2.83575 3.54822 3.21180
# Velocity P-wave (km/s) = 5.92053 6.77831 6.36389
#
# Compressibility (1/GPa) = 0.01881443
#
# Stress axis : x y z
#
# Youngs Moduli (GPa) = 110.99495 110.99495 57.77511
#
# Poissons Ratio (x) = 0.34900 0.14768
# Poissons Ratio (y) = 0.34900 0.14768
# Poissons Ratio (z) = 0.28371 0.28371
#
# Static dielectric constant tensor:
#      x y z
#    x 1.820320 0.000000 0.000000 
#    y 0.000000 1.820320 0.000000 
#    z 0.000000 0.000000 1.973120 
# 
# From -- ./inp_files/4237.got.cif
#   From: 2010.05.17/outbox.cif.g08.bks.cpg/sg190_3_cif.got.tgz:4237.got - 2010.05.20 12:16:56.
