data_PCOD9586565
_publ_section_title
;
Structure prediction by ZEFSAII (Michael W. Deem and Ramdas Pophale) SiO2 
 PCOD9586565
Probable space group: P -6 2 M
;
_chemical_formula_sum "Si O2"
_cell_formula_units_Z 60
_cell_length_a 15.246499
_cell_length_b 15.246499
_cell_length_c 13.980157
_cell_angle_alpha 90.000000
_cell_angle_beta 90.000000
_cell_angle_gamma 120.000000
_cell_volume 2814.381320
_symmetry_space_group_name_H-M "P -6 2 M"
_symmetry_group_IT_number 189
_symmetry_cell_setting 'hexagonal'
loop_
_space_group_symop_operation_xyz
x,y,z
-x+y,-x,-z
-y,x-y,z
x,y,-z
-x+y,-x,z
-y,x-y,-z
x-y,-y,-z
-x,-x+y,-z
y,x,-z
y,x,z
x-y,-y,z
-x,-x+y,z
loop_
_atom_site_type_symbol
_atom_site_label
_atom_site_fract_x
_atom_site_fract_y
_atom_site_fract_z
Si Si1 0.120934 0.595155 0.200443
Si Si2 0.877206 0.567546 0.608461
Si Si3 0.887976 0.110361 0.115617
Si Si4 0.114597 0.231882 0.615915
Si Si5 0.448753 0.189527 0.886777
O O1 0.150441 0.635892 0.309159
O O2 0.182705 0.692246 0.132884
O O3 0.151556 0.512905 0.171837
O O4 0.000000 0.546708 0.189795
O O5 0.840567 0.531988 0.500000
O O6 0.849107 0.652509 0.640004
O O7 0.000000 0.630121 0.603733
O O8 0.867818 0.199512 0.143626
O O9 0.000000 0.135991 0.142534
O O10 0.803592 0.000000 0.149416
O O11 0.884189 0.108389 0.000000
O O12 0.112999 0.230432 0.500000
O O13 0.158448 0.158448 0.643999
O O14 0.000000 0.188944 0.649031
O O15 0.455160 0.172412 0.000000
#
# Coordination Sequence:
#
# PCOD9586565 Si02
#       5
#    12  12  12  12  12
#     4  11  23  41  65  90 121 162 203 250 312 369
#     4   8  16  33  57  84 116 157 203 249 299 358
#     4   9  17  31  53  82 117 156 196 239 291 355
#     4   8  12  20  40  74 116 161 207 253 301 355
#     4  11  23  38  59  90 122 154 202 256 304 363
#
# _framework density 21.319071999999998
#
# number of rings (size 3 to 8) (size 9 to 14) (size 15 to 20)
#    0.000    2.600    0.000    3.800    0.000    4.800 
#    0.000    3.000    0.000    0.000    0.000    2.800 
#    0.000    0.000    0.000    0.800    0.000   32.400 
#
# Total GULP energy -335194.843296 kJ/mol
# GULP energy per Si atom -5586.580722 kJ/mol
# Density = 2.127055 g / cm^3
# Si number density = 21.319072 Si / 1000 Ang^3
#
#
#
# Elastic Constant Matrix: (Units=GPa)
#
#
# Indices 1 2 3 4 5 6 
#
# 1 14.8363 138.7220 38.0491 0.0000 0.0000 0.0000
# 2 138.7220 14.8363 38.0491 0.0000 0.0000 0.0000
# 3 38.0491 38.0491 140.2692 0.0000 0.0000 0.0000
# 4 0.0000 0.0000 0.0000 144.4536 0.0000 0.0000
# 5 0.0000 0.0000 0.0000 0.0000 144.4536 0.0000
# 6 0.0000 0.0000 0.0000 0.0000 0.0000 -61.9428
#
#
#
# Elastic Compliance Matrix: (Units=1/GPa)
#
#
# Indices 1 2 3 4 5 6 
#
# 1 -0.000274 0.007798 -0.002041 0.000000 0.000000 0.000000
# 2 0.007798 -0.000274 -0.002041 0.000000 0.000000 0.000000
# 3 -0.002041 -0.002041 0.008236 0.000000 0.000000 0.000000
# 4 0.000000 0.000000 0.000000 0.006923 0.000000 0.000000
# 5 0.000000 0.000000 0.000000 0.000000 0.006923 0.000000
# 6 0.000000 0.000000 0.000000 0.000000 0.000000 -0.016144
#
#
# Mechanical properties :
#
#
# Convention : Reuss Voigt Hill
#
# Bulk Modulus (GPa) = 66.13697 66.62024 66.37861
# Shear Modulus (GPa) = 1668.28389 42.40098 855.34243
#
# Velocity S-wave (km/s) = 28.00411 4.46452 20.05196
# Velocity P-wave (km/s) = 32.81356 7.60874 23.81830
#
# Compressibility (1/GPa) = 0.01512014
#
# Stress axis : x y z
#
# Youngs Moduli (GPa) = -3646.87696 -3646.87696 121.41338
#
# Poissons Ratio (x) = 28.43743 0.24778
# Poissons Ratio (y) = 28.43743 0.24778
# Poissons Ratio (z) = -7.44261 -7.44261
#
# Static dielectric constant tensor:
#      x y z
#    x 1.742570 0.000000 0.000000 
#    y 0.000000 1.742570 0.000000 
#    z 0.000000 0.000000 1.833120 
# 
# From -- ./inp_files/2513.got.cif
#   From: 2010.05.17/outbox.cif.g08.bks.cpg/sg189_2_cif.got.tgz:2513.got - 2010.05.20 12:14:34.
