data_PCOD9586839
_publ_section_title
;
Structure prediction by ZEFSAII (Michael W. Deem and Ramdas Pophale) SiO2 
 PCOD9586839
Probable space group: P -6 2 C
;
_chemical_formula_sum "Si O2"
_cell_formula_units_Z 58
_cell_length_a 15.000612
_cell_length_b 15.000612
_cell_length_c 13.685546
_cell_angle_alpha 90.000000
_cell_angle_beta 90.000000
_cell_angle_gamma 120.000000
_cell_volume 2666.924470
_symmetry_space_group_name_H-M "P -6 2 C"
_symmetry_group_IT_number 190
_symmetry_cell_setting 'hexagonal'
loop_
_space_group_symop_operation_xyz
x,y,z
-x+y,-x,1/2-z
-y,x-y,z
x,y,1/2-z
-x+y,-x,z
-y,x-y,1/2-z
x-y,-y,-z
-x,-x+y,-z
y,x,-z
y,x,1/2+z
x-y,-y,1/2+z
-x,-x+y,1/2+z
loop_
_atom_site_type_symbol
_atom_site_label
_atom_site_fract_x
_atom_site_fract_y
_atom_site_fract_z
Si Si1 0.507855 0.507855 0.500000
Si Si2 0.161362 0.923101 0.868591
Si Si3 0.459107 0.192970 0.031512
Si Si4 0.202194 0.136168 0.636349
Si Si5 0.315763 0.430070 0.363304
Si Si6 0.666668 0.333334 0.135591
O O1 0.619146 0.522118 0.478256
O O2 0.425127 0.463243 0.412212
O O3 0.166462 0.912780 0.750000
O O4 0.200377 0.852701 0.918660
O O5 0.044147 0.884515 0.900906
O O6 0.220114 0.043715 0.896811
O O7 0.550378 0.277912 0.096847
O O8 0.467290 0.251669 0.930028
O O9 0.174040 0.109259 0.750000
O O10 0.306985 0.244041 0.631562
O O11 0.325191 0.461711 0.250000
O O12 0.666667 0.333334 0.250000
#
# Coordination Sequence:
#
# PCOD9586839 Si02
#       6
#     6  12  12  12  12   4
#     4  12  26  46  74 104 136 192 258 310 382 466
#     4  10  20  38  68 105 150 191 236 295 358 439
#     4  12  25  47  70 106 143 192 252 307 375 458
#     4   9  19  36  63 101 141 188 231 283 361 437
#     4  11  25  46  70 101 145 192 247 316 382 450
#     4  12  27  48  73 104 145 189 249 318 379 440
#
# _framework density 21.747896999999998
#
# number of rings (size 3 to 8) (size 9 to 14) (size 15 to 20)
#    0.000    1.241    2.069    3.517    0.000    4.138 
#    0.000    0.000    0.000    2.483    0.000    0.000 
#    0.000    0.000    0.000    0.000    0.000    0.000 
#
# Total GULP energy -324235.707908 kJ/mol
# GULP energy per Si atom -5590.270826 kJ/mol
# Density = 2.169840 g / cm^3
# Si number density = 21.747897 Si / 1000 Ang^3
#
#
#
# Elastic Constant Matrix: (Units=GPa)
#
#
# Indices 1 2 3 4 5 6 
#
# 1 94.7611 48.2200 63.6422 -0.0005 0.0002 0.0029
# 2 48.2200 94.7680 63.6414 0.0003 0.0000 -0.0016
# 3 63.6422 63.6414 162.7875 0.0000 -0.0001 0.0000
# 4 -0.0005 0.0003 0.0000 30.0607 0.0000 0.0001
# 5 0.0002 0.0000 -0.0001 0.0000 30.0606 0.0004
# 6 0.0029 -0.0016 0.0000 0.0001 0.0004 23.2721
#
#
#
# Elastic Compliance Matrix: (Units=1/GPa)
#
#
# Indices 1 2 3 4 5 6 
#
# 1 0.016107 -0.005379 -0.004194 0.000000 0.000000 -0.000002
# 2 -0.005379 0.016105 -0.004193 0.000000 0.000000 0.000002
# 3 -0.004194 -0.004193 0.009422 0.000000 0.000000 0.000000
# 4 0.000000 0.000000 0.000000 0.033266 0.000000 0.000000
# 5 0.000000 0.000000 0.000000 0.000000 0.033266 -0.000001
# 6 -0.000002 0.000002 0.000000 0.000000 -0.000001 0.042970
#
#
# Mechanical properties :
#
#
# Convention : Reuss Voigt Hill
#
# Bulk Modulus (GPa) = 70.91628 78.14709 74.53168
# Shear Modulus (GPa) = 27.26741 28.46619 27.86680
#
# Velocity S-wave (km/s) = 3.54474 3.62182 3.58349
# Velocity P-wave (km/s) = 7.03084 7.31446 7.17405
#
# Compressibility (1/GPa) = 0.01410114
#
# Stress axis : x y z
#
# Youngs Moduli (GPa) = 62.08575 62.09249 106.13404
#
# Poissons Ratio (x) = 0.33399 0.44514
# Poissons Ratio (y) = 0.33395 0.44505
# Poissons Ratio (z) = 0.26039 0.26037
#
# Static dielectric constant tensor:
#      x y z
#    x 1.860770 0.000010 0.000000 
#    y 0.000010 1.860770 0.000000 
#    z 0.000000 0.000000 1.840030 
# 
# From -- ./inp_files/2828.got.cif
#   From: 2010.05.17/outbox.cif.g08.bks.cpg/sg190_2_cif.got.tgz:2828.got - 2010.05.20 12:16:56.
