data_PCOD9586542
_publ_section_title
;
Structure prediction by ZEFSAII (Michael W. Deem and Ramdas Pophale) SiO2 
 PCOD9586542
Probable space group: P -6 2 M
;
_chemical_formula_sum "Si O2"
_cell_formula_units_Z 84
_cell_length_a 14.004349
_cell_length_b 14.004349
_cell_length_c 23.374110
_cell_angle_alpha 90.000000
_cell_angle_beta 90.000000
_cell_angle_gamma 120.000000
_cell_volume 3970.009679
_symmetry_space_group_name_H-M "P -6 2 M"
_symmetry_group_IT_number 189
_symmetry_cell_setting 'hexagonal'
loop_
_space_group_symop_operation_xyz
x,y,z
-x+y,-x,-z
-y,x-y,z
x,y,-z
-x+y,-x,z
-y,x-y,-z
x-y,-y,-z
-x,-x+y,-z
y,x,-z
y,x,z
x-y,-y,z
-x,-x+y,z
loop_
_atom_site_type_symbol
_atom_site_label
_atom_site_fract_x
_atom_site_fract_y
_atom_site_fract_z
Si Si1 0.579586 0.130824 0.560982
Si Si2 0.125927 0.560678 0.313632
Si Si3 0.339466 0.466399 0.067038
Si Si4 0.133259 0.454973 0.120599
Si Si5 0.131045 0.808653 0.561349
Si Si6 0.122642 0.248397 0.684746
Si Si7 0.216754 0.447809 0.753320
O O1 0.567410 0.176933 0.500000
O O2 0.570908 0.173682 0.622694
O O3 0.698906 0.140347 0.562027
O O4 0.490326 0.000000 0.560506
O O5 0.197426 0.663557 0.271985
O O6 0.127838 0.460351 0.283981
O O7 0.000000 0.535105 0.318579
O O8 0.371893 0.371893 0.079050
O O9 0.213695 0.433299 0.079771
O O10 0.426395 0.573461 0.103460
O O11 0.362772 0.495545 0.000000
O O12 0.186500 0.458159 0.182359
O O13 0.000000 0.369151 0.118983
O O14 0.177602 0.866159 0.500000
O O15 0.170500 0.866631 0.622269
O O16 0.000000 0.763433 0.559944
O O17 0.157067 0.157067 0.675363
O O18 0.200768 0.332323 0.732654
O O19 0.000000 0.193973 0.706017
#
# Coordination Sequence:
#
# PCOD9586542 Si02
#       7
#    12  12  12  12  12  12  12
#     4   8  14  29  54  78 100 135 183 239 310 375
#     4  11  22  39  59  81 113 152 193 254 315 362
#     4  10  22  41  68 101 132 166 209 252 303 366
#     4  11  23  40  63  96 136 174 208 256 308 357
#     4   8  14  28  51  76 100 133 183 242 306 369
#     4  11  22  37  55  80 114 156 202 251 303 363
#     4  12  24  39  59  87 118 155 206 242 290 357
#
# _framework density 21.158639000000001
#
# number of rings (size 3 to 8) (size 9 to 14) (size 15 to 20)
#    0.000    1.857    1.429    4.571    0.000    3.429 
#    0.000    1.429    0.000    2.857    0.000    0.000 
#    0.000    0.000    0.000    0.000    0.000    0.000 
#
# Total GULP energy -468517.797635 kJ/mol
# GULP energy per Si atom -5577.592829 kJ/mol
# Density = 2.111048 g / cm^3
# Si number density = 21.158639 Si / 1000 Ang^3
#
#
#
# Elastic Constant Matrix: (Units=GPa)
#
#
# Indices 1 2 3 4 5 6 
#
# 1 79.4708 32.6923 25.8602 0.0000 0.0000 0.0000
# 2 32.6923 79.4708 25.8602 0.0000 0.0000 0.0000
# 3 25.8602 25.8602 116.8284 0.0000 0.0000 0.0000
# 4 0.0000 0.0000 0.0000 15.1158 0.0000 0.0000
# 5 0.0000 0.0000 0.0000 0.0000 15.1158 0.0000
# 6 0.0000 0.0000 0.0000 0.0000 0.0000 23.3893
#
#
#
# Elastic Compliance Matrix: (Units=1/GPa)
#
#
# Indices 1 2 3 4 5 6 
#
# 1 0.015653 -0.005724 -0.002198 0.000000 0.000000 0.000000
# 2 -0.005724 0.015653 -0.002198 0.000000 0.000000 0.000000
# 3 -0.002198 -0.002198 0.009533 0.000000 0.000000 0.000000
# 4 0.000000 0.000000 0.000000 0.066156 0.000000 0.000000
# 5 0.000000 0.000000 0.000000 0.000000 0.066156 0.000000
# 6 0.000000 0.000000 0.000000 0.000000 0.000000 0.042755
#
#
# Mechanical properties :
#
#
# Convention : Reuss Voigt Hill
#
# Bulk Modulus (GPa) = 48.54518 49.39949 48.97234
# Shear Modulus (GPa) = 20.57519 23.48135 22.02827
#
# Velocity S-wave (km/s) = 3.12176 3.33494 3.23011
# Velocity P-wave (km/s) = 5.99892 6.18280 6.09155
#
# Compressibility (1/GPa) = 0.02059937
#
# Stress axis : x y z
#
# Youngs Moduli (GPa) = 63.88478 63.88478 104.90387
#
# Poissons Ratio (x) = 0.36569 0.23056
# Poissons Ratio (y) = 0.36569 0.23056
# Poissons Ratio (z) = 0.14041 0.14041
#
# Static dielectric constant tensor:
#      x y z
#    x 1.769480 0.000000 0.000000 
#    y 0.000000 1.769480 0.000000 
#    z 0.000000 0.000000 1.808930 
# 
# From -- ./inp_files/3605.got.cif
#   From: 2010.05.17/outbox.cif.g08.bks.cpg/sg189_2_cif.got.tgz:3605.got - 2010.05.20 12:14:34.
