data_PCOD9586384
_publ_section_title
;
Structure prediction by ZEFSAII (Michael W. Deem and Ramdas Pophale) SiO2 
 PCOD9586384
Probable space group: P -6 2 M
;
_chemical_formula_sum "Si O2"
_cell_formula_units_Z 72
_cell_length_a 23.933754
_cell_length_b 23.933754
_cell_length_c 8.776135
_cell_angle_alpha 90.000000
_cell_angle_beta 90.000000
_cell_angle_gamma 120.000000
_cell_volume 4353.670656
_symmetry_space_group_name_H-M "P -6 2 M"
_symmetry_group_IT_number 189
_symmetry_cell_setting 'hexagonal'
loop_
_space_group_symop_operation_xyz
x,y,z
-x+y,-x,-z
-y,x-y,z
x,y,-z
-x+y,-x,z
-y,x-y,-z
x-y,-y,-z
-x,-x+y,-z
y,x,-z
y,x,z
x-y,-y,z
-x,-x+y,z
loop_
_atom_site_type_symbol
_atom_site_label
_atom_site_fract_x
_atom_site_fract_y
_atom_site_fract_z
Si Si1 0.073980 0.332225 0.816493
Si Si2 0.593796 0.121910 0.181564
Si Si3 0.518269 0.670650 0.182713
Si Si4 0.404807 0.404807 0.319561
Si Si5 0.670449 0.864240 0.681894
Si Si6 0.000000 0.719176 0.181196
Si Si7 0.791005 0.518499 0.681333
O O1 0.100102 0.407610 0.779526
O O2 0.124486 0.314557 0.743270
O O3 0.000000 0.288050 0.767770
O O4 0.076717 0.327941 0.000000
O O5 0.532676 0.129826 0.220501
O O6 0.660779 0.183793 0.231044
O O7 0.591762 0.062357 0.268768
O O8 0.593356 0.111722 0.000000
O O9 0.502399 0.720353 0.267072
O O10 0.515371 0.678523 0.000000
O O11 0.395211 0.395211 0.500000
O O12 0.344992 0.344992 0.237766
O O13 0.676247 0.868624 0.500000
O O14 0.594653 0.837571 0.719625
O O15 0.712890 0.934252 0.754835
O O16 0.000000 0.720931 0.000000
O O17 0.793919 0.511296 0.500000
#
# Coordination Sequence:
#
# PCOD9586384 Si02
#       7
#    12  12  12   6  12   6  12
#     4   9  18  34  56  79 107 141 179 220 259 306
#     4  11  22  36  56  78 103 137 179 226 273 328
#     4   9  20  36  55  76 100 134 179 224 268 322
#     4  12  24  36  52  78 110 140 172 219 274 331
#     4  10  20  34  53  78 111 141 171 213 260 315
#     4  12  22  34  56  82 108 142 178 213 260 321
#     4  10  20  35  54  73 101 135 171 220 275 325
#
# _framework density 16.537768
#
# number of rings (size 3 to 8) (size 9 to 14) (size 15 to 20)
#    0.000    1.833    1.667    3.000    1.167    3.000 
#    1.000    0.000    0.000    0.000    0.000    0.000 
#    0.833    0.000    1.500    0.000    1.500    0.000 
#
# Total GULP energy -402060.225586 kJ/mol
# GULP energy per Si atom -5584.169800 kJ/mol
# Density = 1.650013 g / cm^3
# Si number density = 16.537768 Si / 1000 Ang^3
#
#
#
# Elastic Constant Matrix: (Units=GPa)
#
#
# Indices 1 2 3 4 5 6 
#
# 1 102.0157 65.5016 39.0347 0.0000 0.0000 0.0000
# 2 65.5016 102.0157 39.0347 0.0000 0.0000 0.0000
# 3 39.0347 39.0347 48.5649 0.0000 0.0000 0.0000
# 4 0.0000 0.0000 0.0000 17.8931 0.0000 0.0000
# 5 0.0000 0.0000 0.0000 0.0000 17.8931 0.0000
# 6 0.0000 0.0000 0.0000 0.0000 0.0000 18.2570
#
#
#
# Elastic Compliance Matrix: (Units=1/GPa)
#
#
# Indices 1 2 3 4 5 6 
#
# 1 0.018466 -0.008921 -0.007672 0.000000 0.000000 0.000000
# 2 -0.008921 0.018466 -0.007672 0.000000 0.000000 0.000000
# 3 -0.007672 -0.007672 0.032924 0.000000 0.000000 0.000000
# 4 0.000000 0.000000 0.000000 0.055887 0.000000 0.000000
# 5 0.000000 0.000000 0.000000 0.000000 0.055887 0.000000
# 6 0.000000 0.000000 0.000000 0.000000 0.000000 0.054773
#
#
# Mechanical properties :
#
#
# Convention : Reuss Voigt Hill
#
# Bulk Modulus (GPa) = 46.89083 59.97093 53.43088
# Shear Modulus (GPa) = 17.12087 18.07701 17.59894
#
# Velocity S-wave (km/s) = 3.22103 3.30975 3.26570
# Velocity P-wave (km/s) = 6.49990 7.13777 6.82629
#
# Compressibility (1/GPa) = 0.02132613
#
# Stress axis : x y z
#
# Youngs Moduli (GPa) = 54.15417 54.15417 30.37322
#
# Poissons Ratio (x) = 0.48310 0.23302
# Poissons Ratio (y) = 0.48310 0.23302
# Poissons Ratio (z) = 0.41546 0.41546
#
# Static dielectric constant tensor:
#      x y z
#    x 1.547150 0.000000 0.000000 
#    y 0.000000 1.547150 0.000000 
#    z 0.000000 0.000000 1.548680 
# 
# From -- ./inp_files/1336.got.cif
#   From: 2010.05.17/outbox.cif.g08.bks.cpg/sg189_1_cif.got.tgz:1336.got - 2010.05.20 12:14:34.
