data_PCOD9586333
_publ_section_title
;
Structure prediction by ZEFSAII (Michael W. Deem and Ramdas Pophale) SiO2 
 PCOD9586333
Probable space group: P -6 2 M
;
_chemical_formula_sum "Si O2"
_cell_formula_units_Z 72
_cell_length_a 24.801340
_cell_length_b 24.801340
_cell_length_c 7.639709
_cell_angle_alpha 90.000000
_cell_angle_beta 90.000000
_cell_angle_gamma 120.000000
_cell_volume 4069.656371
_symmetry_space_group_name_H-M "P -6 2 M"
_symmetry_group_IT_number 189
_symmetry_cell_setting 'hexagonal'
loop_
_space_group_symop_operation_xyz
x,y,z
-x+y,-x,-z
-y,x-y,z
x,y,-z
-x+y,-x,z
-y,x-y,-z
x-y,-y,-z
-x,-x+y,-z
y,x,-z
y,x,z
x-y,-y,z
-x,-x+y,z
loop_
_atom_site_type_symbol
_atom_site_label
_atom_site_fract_x
_atom_site_fract_y
_atom_site_fract_z
Si Si1 0.808534 0.404102 0.286613
Si Si2 0.071042 0.930082 0.290261
Si Si3 0.525648 0.929906 0.714098
Si Si4 0.261813 0.191428 0.207386
Si Si5 0.595021 0.857550 0.291324
Si Si6 0.524070 0.260309 0.286198
O O1 0.808746 0.403215 0.500000
O O2 0.877674 0.456432 0.231488
O O3 0.783252 0.334080 0.224816
O O4 0.762469 0.430043 0.237085
O O5 0.067973 0.933938 0.500000
O O6 0.091997 0.879547 0.254764
O O7 0.000000 0.900183 0.222733
O O8 0.114877 0.000000 0.223546
O O9 0.526078 0.930778 0.500000
O O10 0.571875 0.904778 0.771421
O O11 0.550806 0.000000 0.773993
O O12 0.234235 0.234235 0.281770
O O13 0.332799 0.216838 0.257585
O O14 0.260972 0.195686 0.000000
O O15 0.587333 0.855032 0.500000
O O16 0.544958 0.788428 0.227089
O O17 0.523815 0.258317 0.500000
#
# Coordination Sequence:
#
# PCOD9586333 Si02
#       6
#    12  12  12  12  12  12
#     4   8  12  18  29  48  75 100 123 159 205 249
#     4   9  17  30  49  71  92 113 137 167 205 249
#     4   8  13  20  32  52  76 102 131 162 200 244
#     4  10  20  31  43  62  87 114 144 176 210 248
#     4   9  16  26  41  60  82 109 140 173 208 248
#     4   8  13  20  33  55  80 106 135 168 210 257
#
# _framework density 17.691911999999999
#
# number of rings (size 3 to 8) (size 9 to 14) (size 15 to 20)
#    0.000    3.333    0.000    3.500    0.000    4.000 
#    0.000    0.000    0.000    2.000    0.000    9.333 
#    0.000    0.000    0.000    0.000    0.000    1.667 
#
# Total GULP energy -401114.978989 kJ/mol
# GULP energy per Si atom -5571.041375 kJ/mol
# Density = 1.765164 g / cm^3
# Si number density = 17.691912 Si / 1000 Ang^3
#
#
#
# Elastic Constant Matrix: (Units=GPa)
#
#
# Indices 1 2 3 4 5 6 
#
# 1 187.7835 92.2553 4.0469 0.0000 0.0000 0.0000
# 2 92.2553 187.7835 4.0469 0.0000 0.0000 0.0000
# 3 4.0469 4.0469 30.2354 0.0000 0.0000 0.0000
# 4 0.0000 0.0000 0.0000 -13.5816 0.0000 0.0000
# 5 0.0000 0.0000 0.0000 0.0000 -13.5816 0.0000
# 6 0.0000 0.0000 0.0000 0.0000 0.0000 47.7641
#
#
#
# Elastic Compliance Matrix: (Units=1/GPa)
#
#
# Indices 1 2 3 4 5 6 
#
# 1 0.007026 -0.003442 -0.000480 0.000000 0.000000 0.000000
# 2 -0.003442 0.007026 -0.000480 0.000000 0.000000 0.000000
# 3 -0.000480 -0.000480 0.033202 0.000000 0.000000 0.000000
# 4 0.000000 0.000000 0.000000 -0.073629 0.000000 0.000000
# 5 0.000000 0.000000 0.000000 0.000000 -0.073629 0.000000
# 6 0.000000 0.000000 0.000000 0.000000 0.000000 0.020936
#
#
# Mechanical properties :
#
#
# Convention : Reuss Voigt Hill
#
# Bulk Modulus (GPa) = 26.00607 67.38898 46.69752
# Shear Modulus (GPa) = -87.03773 24.48372 -31.27700
#
# Velocity S-wave (km/s) = -7.02162 3.72411 -4.20917
# Velocity P-wave (km/s) = 7.14186 7.52761 1.68207
#
# Compressibility (1/GPa) = 0.03845256
#
# Stress axis : x y z
#
# Youngs Moduli (GPa) = 142.31922 142.31922 30.11847
#
# Poissons Ratio (x) = 0.48981 0.01445
# Poissons Ratio (y) = 0.48981 0.01445
# Poissons Ratio (z) = 0.06829 0.06829
#
# Static dielectric constant tensor:
#      x y z
#    x 1.610940 0.000000 0.000000 
#    y 0.000000 1.610940 0.000000 
#    z 0.000000 0.000000 1.644500 
# 
# From -- ./inp_files/1245.got.cif
#   From: 2010.05.17/outbox.cif.g08.bks.cpg/sg189_1_cif.got.tgz:1245.got - 2010.05.20 12:14:34.
