data_PCOD9586706
_publ_section_title
;
Structure prediction by ZEFSAII (Michael W. Deem and Ramdas Pophale) SiO2 
 PCOD9586706
Probable space group: P -6 2 C
;
_chemical_formula_sum "Si O2"
_cell_formula_units_Z 56
_cell_length_a 14.072740
_cell_length_b 14.072740
_cell_length_c 13.913611
_cell_angle_alpha 90.000000
_cell_angle_beta 90.000000
_cell_angle_gamma 120.000000
_cell_volume 2386.315250
_symmetry_space_group_name_H-M "P -6 2 C"
_symmetry_group_IT_number 190
_symmetry_cell_setting 'hexagonal'
loop_
_space_group_symop_operation_xyz
x,y,z
-x+y,-x,1/2-z
-y,x-y,z
x,y,1/2-z
-x+y,-x,z
-y,x-y,1/2-z
x-y,-y,-z
-x,-x+y,-z
y,x,-z
y,x,1/2+z
x-y,-y,1/2+z
-x,-x+y,1/2+z
loop_
_atom_site_type_symbol
_atom_site_label
_atom_site_fract_x
_atom_site_fract_y
_atom_site_fract_z
Si Si1 0.666668 0.333335 0.866659
Si Si2 0.394756 0.484359 0.632635
Si Si3 0.727361 0.576742 0.132235
Si Si4 0.000000 0.000000 0.613258
Si Si5 0.049343 0.244128 0.360166
Si Si6 0.144508 0.715830 0.132561
O O1 0.666667 0.333334 0.750000
O O2 0.543357 0.294931 0.896526
O O3 0.397026 0.487403 0.750000
O O4 0.484663 0.606064 0.600634
O O5 0.271940 0.451361 0.603133
O O6 0.421817 0.390416 0.603436
O O7 0.728755 0.576068 0.250000
O O8 0.751621 0.696496 0.099919
O O9 0.120515 0.025992 0.642299
O O10 0.000000 0.000000 0.500000
O O11 0.056402 0.281792 0.250000
O O12 0.169326 0.326463 0.401169
O O13 0.141249 0.715003 0.250000
#
# Coordination Sequence:
#
# PCOD9586706 Si02
#       6
#     4  12  12   4  12  12
#     4   9  15  24  39  69 108 135 156 195 247 293
#     4   9  15  23  35  59  95 132 163 197 243 293
#     4   9  16  25  41  66  99 133 164 199 244 291
#     4  12  25  38  52  72  97 128 163 204 250 296
#     4  10  19  33  52  74  99 130 165 203 244 292
#     4   9  16  25  41  66  99 132 162 198 244 293
#
# _framework density 23.467143
#
# number of rings (size 3 to 8) (size 9 to 14) (size 15 to 20)
#    0.000    2.571    0.000    3.643    0.000   10.286 
#    0.000    0.000    0.000    0.000    0.000   13.500 
#    0.000    0.000    0.000    0.000    0.000    0.000 
#
# Total GULP energy -313370.413873 kJ/mol
# GULP energy per Si atom -5595.900248 kJ/mol
# Density = 2.341373 g / cm^3
# Si number density = 23.467143 Si / 1000 Ang^3
#
#
#
# Elastic Constant Matrix: (Units=GPa)
#
#
# Indices 1 2 3 4 5 6 
#
# 1 220.9387 127.0707 -14.2245 0.0000 0.0000 -0.0001
# 2 127.0707 220.9409 -14.2243 -0.0001 -0.0001 0.0000
# 3 -14.2245 -14.2243 71.6199 -0.0001 0.0000 -0.0001
# 4 0.0000 -0.0001 -0.0001 -3.3943 -0.0001 0.0000
# 5 0.0000 -0.0001 0.0000 -0.0001 -3.3938 0.0000
# 6 -0.0001 0.0000 -0.0001 0.0000 0.0000 46.9345
#
#
#
# Elastic Compliance Matrix: (Units=1/GPa)
#
#
# Indices 1 2 3 4 5 6 
#
# 1 0.006787 -0.003866 0.000580 0.000000 0.000000 0.000000
# 2 -0.003866 0.006787 0.000580 0.000000 0.000000 0.000000
# 3 0.000580 0.000580 0.014193 0.000000 0.000000 0.000000
# 4 0.000000 0.000000 0.000000 -0.294616 0.000008 0.000000
# 5 0.000000 0.000000 0.000000 0.000008 -0.294654 0.000000
# 6 0.000000 0.000000 0.000000 0.000000 0.000000 0.021306
#
#
# Mechanical properties :
#
#
# Convention : Reuss Voigt Hill
#
# Bulk Modulus (GPa) = 44.73208 78.97146 61.85177
# Shear Modulus (GPa) = -9.48167 35.68779 13.10306
#
# Velocity S-wave (km/s) = -2.01226 3.90392 2.36552
# Velocity P-wave (km/s) = 3.70190 7.35158 5.82022
#
# Compressibility (1/GPa) = 0.02235532
#
# Stress axis : x y z
#
# Youngs Moduli (GPa) = 147.33936 147.34091 70.45707
#
# Poissons Ratio (x) = 0.56964 -0.04088
# Poissons Ratio (y) = 0.56963 -0.04087
# Poissons Ratio (z) = -0.08548 -0.08547
#
# Static dielectric constant tensor:
#      x y z
#    x 1.810210 0.000000 0.000000 
#    y 0.000000 1.810210 0.000000 
#    z 0.000000 0.000000 1.979950 
# 
# From -- ./inp_files/3626.got.cif
#   From: 2010.05.17/outbox.cif.g08.bks.cpg/sg190_2_cif.got.tgz:3626.got - 2010.05.20 12:16:56.
