data_PCOD9586399
_publ_section_title
;
Structure prediction by ZEFSAII (Michael W. Deem and Ramdas Pophale) SiO2 
 PCOD9586399
Probable space group: P -6 2 M
;
_chemical_formula_sum "Si O2"
_cell_formula_units_Z 60
_cell_length_a 15.637404
_cell_length_b 15.637404
_cell_length_c 15.882676
_cell_angle_alpha 90.000000
_cell_angle_beta 90.000000
_cell_angle_gamma 120.000000
_cell_volume 3363.439509
_symmetry_space_group_name_H-M "P -6 2 M"
_symmetry_group_IT_number 189
_symmetry_cell_setting 'hexagonal'
loop_
_space_group_symop_operation_xyz
x,y,z
-x+y,-x,-z
-y,x-y,z
x,y,-z
-x+y,-x,z
-y,x-y,-z
x-y,-y,-z
-x,-x+y,-z
y,x,-z
y,x,z
x-y,-y,z
-x,-x+y,z
loop_
_atom_site_type_symbol
_atom_site_label
_atom_site_fract_x
_atom_site_fract_y
_atom_site_fract_z
Si Si1 0.435916 0.551529 0.819809
Si Si2 0.116499 0.373220 0.221044
Si Si3 0.385796 0.266733 0.905610
Si Si4 0.564461 0.735421 0.408727
Si Si5 0.488792 0.885041 0.625710
O O1 0.504747 0.504747 0.839273
O O2 0.513586 0.666490 0.808408
O O3 0.346536 0.500318 0.884601
O O4 0.390972 0.513845 0.727122
O O5 0.182835 0.344380 0.165269
O O6 0.130985 0.375178 0.321909
O O7 0.000000 0.306747 0.204128
O O8 0.326373 0.326373 0.901811
O O9 0.377224 0.227221 0.000000
O O10 0.614111 0.746874 0.500000
O O11 0.476718 0.621733 0.401751
O O12 0.520874 0.809347 0.407386
O O13 0.561369 0.000000 0.603521
#
# Coordination Sequence:
#
# PCOD9586399 Si02
#       5
#    12  12  12  12  12
#     4   8  16  33  53  73 102 139 174 215 267 318
#     4  10  21  36  55  79 110 145 180 224 275 329
#     4  10  20  36  58  80 105 139 179 226 278 332
#     4  11  21  32  51  78 109 149 192 231 279 329
#     4  10  20  35  53  75 108 147 189 236 279 329
#
# _framework density 17.838882000000002
#
# number of rings (size 3 to 8) (size 9 to 14) (size 15 to 20)
#    0.000    2.200    2.000    2.800    0.000    4.000 
#    1.200    2.000    0.000    0.400    0.000    0.000 
#    0.000    0.000    0.000    0.000    0.000    0.000 
#
# Total GULP energy -334272.202746 kJ/mol
# GULP energy per Si atom -5571.203379 kJ/mol
# Density = 1.779828 g / cm^3
# Si number density = 17.838882 Si / 1000 Ang^3
#
#
#
# Elastic Constant Matrix: (Units=GPa)
#
#
# Indices 1 2 3 4 5 6 
#
# 1 55.4534 12.0519 30.5037 0.0000 0.0000 0.0000
# 2 12.0519 55.4534 30.5037 0.0000 0.0000 0.0000
# 3 30.5037 30.5037 111.1022 0.0000 0.0000 0.0000
# 4 0.0000 0.0000 0.0000 21.4255 0.0000 0.0000
# 5 0.0000 0.0000 0.0000 0.0000 21.4255 0.0000
# 6 0.0000 0.0000 0.0000 0.0000 0.0000 21.7008
#
#
#
# Elastic Compliance Matrix: (Units=1/GPa)
#
#
# Indices 1 2 3 4 5 6 
#
# 1 0.021371 -0.001669 -0.005409 0.000000 0.000000 0.000000
# 2 -0.001669 0.021371 -0.005409 0.000000 0.000000 0.000000
# 3 -0.005409 -0.005409 0.011971 0.000000 0.000000 0.000000
# 4 0.000000 0.000000 0.000000 0.046673 0.000000 0.000000
# 5 0.000000 0.000000 0.000000 0.000000 0.046673 0.000000
# 6 0.000000 0.000000 0.000000 0.000000 0.000000 0.046081
#
#
# Mechanical properties :
#
#
# Convention : Reuss Voigt Hill
#
# Bulk Modulus (GPa) = 33.62674 40.90305 37.26490
# Shear Modulus (GPa) = 21.83113 22.84034 22.33573
#
# Velocity S-wave (km/s) = 3.50207 3.58211 3.54232
# Velocity P-wave (km/s) = 5.93665 6.33147 6.13724
#
# Compressibility (1/GPa) = 0.02973823
#
# Stress axis : x y z
#
# Youngs Moduli (GPa) = 46.79131 46.79131 83.53477
#
# Poissons Ratio (x) = 0.07810 0.45187
# Poissons Ratio (y) = 0.07810 0.45187
# Poissons Ratio (z) = 0.25311 0.25311
#
# Static dielectric constant tensor:
#      x y z
#    x 1.608930 0.000000 0.000000 
#    y 0.000000 1.608930 0.000000 
#    z 0.000000 0.000000 1.667050 
# 
# From -- ./inp_files/2506.got.cif
#   From: 2010.05.17/outbox.cif.g08.bks.cpg/sg189_2_cif.got.tgz:2506.got - 2010.05.20 12:14:34.
