data_PCOD9586042
_publ_section_title
;
Structure prediction by ZEFSAII (Michael W. Deem and Ramdas Pophale) SiO2 
 PCOD9586042
Probable space group: P -6 C 2
;
_chemical_formula_sum "Si O2"
_cell_formula_units_Z 60
_cell_length_a 16.330307
_cell_length_b 16.330307
_cell_length_c 11.248386
_cell_angle_alpha 90.000000
_cell_angle_beta 90.000000
_cell_angle_gamma 120.000000
_cell_volume 2597.822904
_symmetry_space_group_name_H-M "P -6 C 2"
_symmetry_group_IT_number 188
_symmetry_cell_setting 'hexagonal'
loop_
_space_group_symop_operation_xyz
x,y,z
-x+y,-x,1/2-z
-y,x-y,z
x,y,1/2-z
-x+y,-x,z
-y,x-y,1/2-z
-y,-x,-z
-x+y,y,-z
x,x-y,-z
-x+y,y,1/2+z
x,x-y,1/2+z
-y,-x,1/2+z
loop_
_atom_site_type_symbol
_atom_site_label
_atom_site_fract_x
_atom_site_fract_y
_atom_site_fract_z
Si Si1 0.127541 0.363295 0.618160
Si Si2 0.918240 0.732089 0.116074
Si Si3 0.428947 0.840368 0.124182
Si Si4 0.479773 0.045748 0.122176
Si Si5 0.751231 0.525338 0.123705
O O1 0.166383 0.357677 0.750000
O O2 0.185860 0.371720 0.500000
O O3 0.121489 0.458903 0.625588
O O4 0.025792 0.269763 0.604801
O O5 0.906560 0.763860 0.250000
O O6 0.853467 0.618088 0.118369
O O7 0.882163 0.764325 0.000000
O O8 0.387608 0.792850 0.250000
O O9 0.416437 0.932774 0.118222
O O10 0.394262 0.788524 0.000000
O O11 0.532573 0.064669 0.250000
O O12 0.435150 0.112882 0.125514
O O13 0.536313 0.072626 0.000000
O O14 0.739314 0.475483 0.250000
O O15 0.735801 0.471602 0.000000
#
# Coordination Sequence:
#
# PCOD9586042 Si02
#       5
#    12  12  12  12  12
#     4  10  22  40  60  88 127 166 208 264 319 378
#     4   9  19  33  54  85 119 156 201 250 306 362
#     4   9  19  33  54  85 119 156 201 250 306 362
#     4   9  18  30  47  76 113 153 195 240 289 344
#     4   9  18  30  47  76 113 153 195 240 289 344
#
# _framework density 23.096261999999999
#
# number of rings (size 3 to 8) (size 9 to 14) (size 15 to 20)
#    0.000    2.800    0.000    0.000   11.200    2.400 
#    0.000    0.000    0.000    1.200    0.000    0.000 
#    0.000    0.000    0.000    0.000    0.000    0.000 
#
# Total GULP energy -334210.727421 kJ/mol
# GULP energy per Si atom -5570.178790 kJ/mol
# Density = 2.304369 g / cm^3
# Si number density = 23.096262 Si / 1000 Ang^3
#
#
#
# Elastic Constant Matrix: (Units=GPa)
#
#
# Indices 1 2 3 4 5 6 
#
# 1 58.9083 18.6044 31.0687 0.0001 0.0000 0.0000
# 2 18.6044 58.9083 31.0687 -0.0001 0.0000 0.0000
# 3 31.0687 31.0687 313.3584 0.0000 0.0000 0.0000
# 4 0.0001 -0.0001 0.0000 15.7813 0.0000 0.0000
# 5 0.0000 0.0000 0.0000 0.0000 15.7813 0.0001
# 6 0.0000 0.0000 0.0000 0.0000 0.0001 20.1519
#
#
#
# Elastic Compliance Matrix: (Units=1/GPa)
#
#
# Indices 1 2 3 4 5 6 
#
# 1 0.019413 -0.005398 -0.001390 0.000000 0.000000 0.000000
# 2 -0.005398 0.019413 -0.001390 0.000000 0.000000 0.000000
# 3 -0.001390 -0.001390 0.003467 0.000000 0.000000 0.000000
# 4 0.000000 0.000000 0.000000 0.063366 0.000000 0.000000
# 5 0.000000 0.000000 0.000000 0.000000 0.063366 0.000000
# 6 0.000000 0.000000 0.000000 0.000000 0.000000 0.049623
#
#
# Mechanical properties :
#
#
# Convention : Reuss Voigt Hill
#
# Bulk Modulus (GPa) = 38.55252 65.85094 52.20173
# Shear Modulus (GPa) = 20.52129 33.70512 27.11321
#
# Velocity S-wave (km/s) = 2.98402 3.82427 3.42997
# Velocity P-wave (km/s) = 5.34798 6.93350 6.19170
#
# Compressibility (1/GPa) = 0.02593864
#
# Stress axis : x y z
#
# Youngs Moduli (GPa) = 51.51111 51.51111 288.45243
#
# Poissons Ratio (x) = 0.27807 0.40082
# Poissons Ratio (y) = 0.27807 0.40082
# Poissons Ratio (z) = 0.07158 0.07158
#
# Static dielectric constant tensor:
#      x y z
#    x 1.827130 0.000000 0.000000 
#    y 0.000000 1.827130 0.000000 
#    z 0.000000 0.000000 2.015730 
# 
# From -- ./inp_files/1683.got.cif
#   From: 2010.05.17/outbox.cif.g08.bks.cpg/sg188_1_cif.got.tgz:1683.got - 2010.05.20 12:11:46.
