data_PCOD9586048
_publ_section_title
;
Structure prediction by ZEFSAII (Michael W. Deem and Ramdas Pophale) SiO2 
 PCOD9586048
Probable space group: P -6 C 2
;
_chemical_formula_sum "Si O2"
_cell_formula_units_Z 54
_cell_length_a 15.442447
_cell_length_b 15.442447
_cell_length_c 15.216380
_cell_angle_alpha 90.000000
_cell_angle_beta 90.000000
_cell_angle_gamma 120.000000
_cell_volume 3142.492255
_symmetry_space_group_name_H-M "P -6 C 2"
_symmetry_group_IT_number 188
_symmetry_cell_setting 'hexagonal'
loop_
_space_group_symop_operation_xyz
x,y,z
-x+y,-x,1/2-z
-y,x-y,z
x,y,1/2-z
-x+y,-x,z
-y,x-y,1/2-z
-y,-x,-z
-x+y,y,-z
x,x-y,-z
-x+y,y,1/2+z
x,x-y,1/2+z
-y,-x,1/2+z
loop_
_atom_site_type_symbol
_atom_site_label
_atom_site_fract_x
_atom_site_fract_y
_atom_site_fract_z
Si Si1 0.801080 0.801564 0.647759
Si Si2 0.032383 0.516192 0.500000
Si Si3 0.719259 0.636302 0.500000
Si Si4 0.202833 0.601417 0.353760
Si Si5 0.000484 0.198920 0.147759
O O1 0.773218 0.776331 0.750000
O O2 0.745539 0.707628 0.584738
O O3 0.918621 0.837243 0.640431
O O4 0.782807 0.891404 0.622417
O O5 0.108019 0.554010 0.416511
O O6 0.959968 0.397716 0.500000
O O7 0.797804 0.595607 0.500000
O O8 0.745539 0.707628 0.415262
O O9 0.279367 0.558736 0.370127
O O10 0.178071 0.589036 0.250000
O O11 0.003113 0.226782 0.250000
#
# Coordination Sequence:
#
# PCOD9586048 Si02
#       5
#    12   6  12  12  12
#     4   9  17  31  52  79 111 141 165 198 250 317
#     4  12  22  36  60  76  98 148 188 224 282 326
#     4  10  23  38  49  73 104 133 182 236 267 300
#     4   8  18  36  56  86 122 142 164 210 267 342
#     4   9  17  31  52  79 111 141 165 198 250 317
#
# _framework density 17.183814999999999
#
# number of rings (size 3 to 8) (size 9 to 14) (size 15 to 20)
#    0.444    2.222    0.000    1.778    0.000    7.111 
#    0.667    6.667    0.000    0.000    0.000    0.000 
#    0.000    0.000    0.000    0.000    0.000    0.000 
#
# Total GULP energy -300937.851980 kJ/mol
# GULP energy per Si atom -5572.923185 kJ/mol
# Density = 1.714470 g / cm^3
# Si number density = 17.183815 Si / 1000 Ang^3
#
#
#
# Elastic Constant Matrix: (Units=GPa)
#
#
# Indices 1 2 3 4 5 6 
#
# 1 104.5118 84.6674 57.6138 0.0000 0.0000 0.0000
# 2 84.6674 104.5118 57.6138 0.0000 0.0000 0.0000
# 3 57.6138 57.6138 73.3761 0.0000 0.0000 0.0000
# 4 0.0000 0.0000 0.0000 2.1856 0.0000 0.0000
# 5 0.0000 0.0000 0.0000 0.0000 2.1856 0.0000
# 6 0.0000 0.0000 0.0000 0.0000 0.0000 9.9222
#
#
#
# Elastic Compliance Matrix: (Units=1/GPa)
#
#
# Indices 1 2 3 4 5 6 
#
# 1 0.030262 -0.020130 -0.007955 0.000000 0.000000 0.000000
# 2 -0.020130 0.030262 -0.007955 0.000000 0.000000 0.000000
# 3 -0.007955 -0.007955 0.026121 0.000000 0.000000 0.000000
# 4 0.000000 0.000000 0.000000 0.457548 0.000000 0.000000
# 5 0.000000 0.000000 0.000000 0.000000 0.457548 0.000000
# 6 0.000000 0.000000 0.000000 0.000000 0.000000 0.100784
#
#
# Mechanical properties :
#
#
# Convention : Reuss Voigt Hill
#
# Bulk Modulus (GPa) = 68.66509 75.79885 72.23197
# Shear Modulus (GPa) = 4.23923 8.35898 6.29910
#
# Velocity S-wave (km/s) = 1.57237 2.20794 1.91668
# Velocity P-wave (km/s) = 6.58349 7.12084 6.85743
#
# Compressibility (1/GPa) = 0.01456344
#
# Stress axis : x y z
#
# Youngs Moduli (GPa) = 33.04509 33.04509 38.28402
#
# Poissons Ratio (x) = 0.66521 0.30455
# Poissons Ratio (y) = 0.66521 0.30455
# Poissons Ratio (z) = 0.26287 0.26287
#
# Static dielectric constant tensor:
#      x y z
#    x 1.568910 0.000000 0.000000 
#    y 0.000000 1.568910 0.000000 
#    z 0.000000 0.000000 1.590380 
# 
# From -- ./inp_files/2183.got.cif
#   From: 2010.05.17/outbox.cif.g08.bks.cpg/sg188_2_cif.got.tgz:2183.got - 2010.05.20 12:11:46.
