data_PCOD9586650
_publ_section_title
;
Structure prediction by ZEFSAII (Michael W. Deem and Ramdas Pophale) SiO2 
 PCOD9586650
Probable space group: P -6 2 C
;
_chemical_formula_sum "Si O2"
_cell_formula_units_Z 70
_cell_length_a 14.811268
_cell_length_b 14.811268
_cell_length_c 16.190942
_cell_angle_alpha 90.000000
_cell_angle_beta 90.000000
_cell_angle_gamma 120.000000
_cell_volume 3076.006361
_symmetry_space_group_name_H-M "P -6 2 C"
_symmetry_group_IT_number 190
_symmetry_cell_setting 'hexagonal'
loop_
_space_group_symop_operation_xyz
x,y,z
-x+y,-x,1/2-z
-y,x-y,z
x,y,1/2-z
-x+y,-x,z
-y,x-y,1/2-z
x-y,-y,-z
-x,-x+y,-z
y,x,-z
y,x,1/2+z
x-y,-y,1/2+z
-x,-x+y,1/2+z
loop_
_atom_site_type_symbol
_atom_site_label
_atom_site_fract_x
_atom_site_fract_y
_atom_site_fract_z
Si Si1 0.451646 0.246955 0.428866
Si Si2 0.857781 0.534650 0.848669
Si Si3 0.333335 0.666667 0.153003
Si Si4 0.889150 0.425452 0.984348
Si Si5 0.761180 0.852279 0.851141
Si Si6 0.765532 0.461514 0.250000
Si Si7 0.146071 0.239028 0.151152
O O1 0.516443 0.197107 0.471008
O O2 0.484370 0.354021 0.476494
O O3 0.334615 0.155369 0.413261
O O4 0.481334 0.286622 0.334894
O O5 0.872803 0.539624 0.750000
O O6 0.735957 0.453835 0.869945
O O7 0.891906 0.650404 0.879412
O O8 0.902832 0.466761 0.889499
O O9 0.333334 0.666668 0.250000
O O10 0.000000 0.436659 0.000000
O O11 0.735604 0.836091 0.750000
O O12 0.821752 0.791443 0.874536
O O13 0.831933 0.976695 0.862727
O O14 0.775441 0.358773 0.250000
O O15 0.147073 0.252217 0.250000
#
# Coordination Sequence:
#
# PCOD9586650 Si02
#       7
#    12  12   4  12  12   6  12
#     4  12  23  41  66  98 138 178 223 276 334 408
#     4  10  21  41  63  88 126 176 222 269 333 409
#     4   9  18  33  60  84 114 163 212 247 303 384
#     4  12  26  43  64 100 134 174 220 280 340 398
#     4  10  20  36  64  96 133 178 226 281 337 389
#     4  10  18  40  68  94 126 182 222 268 332 394
#     4   9  19  37  61  95 130 172 229 281 327 391
#
# _framework density 22.756779000000002
#
# number of rings (size 3 to 8) (size 9 to 14) (size 15 to 20)
#    0.171    1.371    2.571    2.743    0.000    4.114 
#    3.086    1.714    0.000    0.000    0.000    3.600 
#    0.000    0.000    0.000    0.000    0.000    0.000 
#
# Total GULP energy -389818.654041 kJ/mol
# GULP energy per Si atom -5568.837915 kJ/mol
# Density = 2.270498 g / cm^3
# Si number density = 22.756779 Si / 1000 Ang^3
#
#
#
# Elastic Constant Matrix: (Units=GPa)
#
#
# Indices 1 2 3 4 5 6 
#
# 1 -35.5415 66.5523 3.7831 0.0016 -0.0009 -0.0018
# 2 66.5523 -35.5444 3.7842 -0.0018 0.0009 0.0026
# 3 3.7831 3.7842 78.2412 -0.0001 0.0001 0.0007
# 4 0.0016 -0.0018 -0.0001 30.6739 0.0000 -0.0009
# 5 -0.0009 0.0009 0.0001 0.0000 30.6743 -0.0017
# 6 -0.0018 0.0026 0.0007 -0.0009 -0.0017 -50.9759
#
#
#
# Elastic Compliance Matrix: (Units=1/GPa)
#
#
# Indices 1 2 3 4 5 6 
#
# 1 0.011420 0.021214 -0.001578 0.000001 0.000000 0.000001
# 2 0.021214 0.011419 -0.001578 0.000000 0.000000 0.000000
# 3 -0.001578 -0.001578 0.012934 0.000000 0.000000 0.000000
# 4 0.000001 0.000000 0.000000 0.032601 0.000000 -0.000001
# 5 0.000000 0.000000 0.000000 0.000000 0.032601 -0.000001
# 6 0.000001 0.000000 0.000000 -0.000001 -0.000001 -0.019617
#
#
# Mechanical properties :
#
#
# Convention : Reuss Voigt Hill
#
# Bulk Modulus (GPa) = 13.91053 17.26606 15.58830
# Shear Modulus (GPa) = 72.25058 -2.38981 34.93038
#
# Velocity S-wave (km/s) = 5.64074 -1.02588 3.92209
# Velocity P-wave (km/s) = 6.96778 2.49007 5.23213
#
# Compressibility (1/GPa) = 0.07188797
#
# Stress axis : x y z
#
# Youngs Moduli (GPa) = 87.56733 87.57467 77.31790
#
# Poissons Ratio (x) = -1.85782 0.12202
# Poissons Ratio (y) = -1.85766 0.12201
# Poissons Ratio (z) = 0.13820 0.13819
#
# Static dielectric constant tensor:
#      x y z
#    x 1.919980 0.000000 0.000000 
#    y 0.000000 1.919950 0.000000 
#    z 0.000000 0.000000 1.843980 
# 
# From -- ./inp_files/3819.got.cif
#   From: 2010.05.17/outbox.cif.g08.bks.cpg/sg190_2_cif.got.tgz:3819.got - 2010.05.20 12:16:56.
