data_PCOD9586735
_publ_section_title
;
Structure prediction by ZEFSAII (Michael W. Deem and Ramdas Pophale) SiO2 
 PCOD9586735
Probable space group: P -6 2 C
;
_chemical_formula_sum "Si O2"
_cell_formula_units_Z 66
_cell_length_a 11.399786
_cell_length_b 11.399786
_cell_length_c 21.866022
_cell_angle_alpha 90.000000
_cell_angle_beta 90.000000
_cell_angle_gamma 120.000000
_cell_volume 2460.899114
_symmetry_space_group_name_H-M "P -6 2 C"
_symmetry_group_IT_number 190
_symmetry_cell_setting 'hexagonal'
loop_
_space_group_symop_operation_xyz
x,y,z
-x+y,-x,1/2-z
-y,x-y,z
x,y,1/2-z
-x+y,-x,z
-y,x-y,1/2-z
x-y,-y,-z
-x,-x+y,-z
y,x,-z
y,x,1/2+z
x-y,-y,1/2+z
-x,-x+y,1/2+z
loop_
_atom_site_type_symbol
_atom_site_label
_atom_site_fract_x
_atom_site_fract_y
_atom_site_fract_z
Si Si1 0.817599 0.237446 0.883656
Si Si2 0.049917 0.781968 0.883498
Si Si3 0.210161 0.260483 0.750000
Si Si4 0.471998 0.561481 0.750000
Si Si5 0.567991 0.475208 0.378303
Si Si6 0.410873 0.157082 0.484354
Si Si7 0.572275 0.759410 0.250000
O O1 0.745821 0.225165 0.817584
O O2 0.952924 0.381463 0.879915
O O3 0.840897 0.108689 0.886340
O O4 0.759812 0.226325 0.952551
O O5 0.055115 0.641722 0.880877
O O6 0.129640 0.838233 0.946378
O O7 0.102252 0.853944 0.817222
O O8 0.345706 0.409431 0.750000
O O9 0.274812 0.161983 0.750000
O O10 0.469978 0.629022 0.686917
O O11 0.613302 0.560177 0.750000
O O12 0.658513 0.478660 0.433806
O O13 0.347573 0.000000 0.500000
#
# Coordination Sequence:
#
# PCOD9586735 Si02
#       7
#    12  12   6   6  12  12   6
#     4   9  18  32  53  76 105 145 187 239 302 351
#     4  10  19  36  59  81 118 159 193 262 304 359
#     4   8  16  29  51  83 106 147 208 235 310 369
#     4   8  14  29  51  73 108 151 184 239 306 338
#     4   9  19  35  54  82 115 148 197 247 291 372
#     4  10  21  34  51  79 114 152 200 247 293 371
#     4   8  14  28  46  70 100 136 186 236 288 359
#
# _framework density 26.819465000000001
#
# number of rings (size 3 to 8) (size 9 to 14) (size 15 to 20)
#    0.000    2.909    0.000    0.545    0.000    5.091 
#    2.727    0.909    0.000   18.909    0.000    0.000 
#    0.000   17.455    0.000    0.000    0.000    0.000 
#
# Total GULP energy -367991.589950 kJ/mol
# GULP energy per Si atom -5575.630151 kJ/mol
# Density = 2.675842 g / cm^3
# Si number density = 26.819465 Si / 1000 Ang^3
#
#
#
# Elastic Constant Matrix: (Units=GPa)
#
#
# Indices 1 2 3 4 5 6 
#
# 1 75.0979 10.1029 19.9150 0.0000 0.0000 0.0000
# 2 10.1029 75.0979 19.9150 0.0000 0.0000 0.0000
# 3 19.9150 19.9150 333.5547 0.0000 0.0000 0.0000
# 4 0.0000 0.0000 0.0000 -35.1580 0.0000 0.0000
# 5 0.0000 0.0000 0.0000 0.0000 -35.1580 0.0000
# 6 0.0000 0.0000 0.0000 0.0000 0.0000 32.4975
#
#
#
# Elastic Compliance Matrix: (Units=1/GPa)
#
#
# Indices 1 2 3 4 5 6 
#
# 1 0.013730 -0.001656 -0.000721 0.000000 0.000000 0.000000
# 2 -0.001656 0.013730 -0.000721 0.000000 0.000000 0.000000
# 3 -0.000721 -0.000721 0.003084 0.000000 0.000000 0.000000
# 4 0.000000 0.000000 0.000000 -0.028443 0.000000 0.000000
# 5 0.000000 0.000000 0.000000 0.000000 -0.028443 0.000000
# 6 0.000000 0.000000 0.000000 0.000000 0.000000 0.030772
#
#
# Mechanical properties :
#
#
# Convention : Reuss Voigt Hill
#
# Bulk Modulus (GPa) = 41.07026 64.84626 52.95826
# Shear Modulus (GPa) = 266.79771 21.35751 144.07761
#
# Velocity S-wave (km/s) = 9.98474 2.82502 7.33743
# Velocity P-wave (km/s) = 12.17677 5.90527 9.56938
#
# Compressibility (1/GPa) = 0.02434852
#
# Stress axis : x y z
#
# Youngs Moduli (GPa) = 72.83386 72.83386 324.24483
#
# Poissons Ratio (x) = 0.12061 0.23374
# Poissons Ratio (y) = 0.12061 0.23374
# Poissons Ratio (z) = 0.05250 0.05250
#
# Static dielectric constant tensor:
#      x y z
#    x 2.133990 0.000000 0.000000 
#    y 0.000000 2.133990 0.000000 
#    z 0.000000 0.000000 2.227310 
# 
# From -- ./inp_files/4369.got.cif
#   From: 2010.05.17/outbox.cif.g08.bks.cpg/sg190_3_cif.got.tgz:4369.got - 2010.05.20 12:16:56.
