data_PCOD9586375
_publ_section_title
;
Structure prediction by ZEFSAII (Michael W. Deem and Ramdas Pophale) SiO2 
 PCOD9586375
Probable space group: P -6 2 M
;
_chemical_formula_sum "Si O2"
_cell_formula_units_Z 96
_cell_length_a 21.890353
_cell_length_b 21.890353
_cell_length_c 13.462370
_cell_angle_alpha 90.000000
_cell_angle_beta 90.000000
_cell_angle_gamma 120.000000
_cell_volume 5586.730016
_symmetry_space_group_name_H-M "P -6 2 M"
_symmetry_group_IT_number 189
_symmetry_cell_setting 'hexagonal'
loop_
_space_group_symop_operation_xyz
x,y,z
-x+y,-x,-z
-y,x-y,z
x,y,-z
-x+y,-x,z
-y,x-y,-z
x-y,-y,-z
-x,-x+y,-z
y,x,-z
y,x,z
x-y,-y,z
-x,-x+y,z
loop_
_atom_site_type_symbol
_atom_site_label
_atom_site_fract_x
_atom_site_fract_y
_atom_site_fract_z
Si Si1 0.549942 0.351670 0.613765
Si Si2 0.442933 0.212243 0.113438
Si Si3 0.081429 0.378445 0.386127
Si Si4 0.922732 0.785590 0.884915
Si Si5 0.611180 0.917471 0.390838
Si Si6 0.921476 0.644999 0.172883
Si Si7 0.302454 0.078814 0.194192
Si Si8 0.205576 0.523155 0.697307
O O1 0.574568 0.373047 0.500000
O O2 0.472344 0.341879 0.622415
O O3 0.540433 0.275540 0.636295
O O4 0.605648 0.409006 0.688549
O O5 0.422192 0.273097 0.132797
O O6 0.369511 0.139089 0.134842
O O7 0.498347 0.215290 0.193925
O O8 0.464405 0.214594 0.000000
O O9 0.094660 0.367941 0.500000
O O10 0.088443 0.326489 0.308686
O O11 0.137750 0.456770 0.351703
O O12 0.000000 0.359673 0.378790
O O13 0.925168 0.712920 0.877729
O O14 0.852784 0.765114 0.824055
O O15 0.000000 0.846388 0.850807
O O16 0.913484 0.798397 0.000000
O O17 0.628969 0.899431 0.500000
O O18 0.646479 0.908297 0.291565
O O19 0.636387 0.000000 0.393191
O O20 0.000000 0.655881 0.160294
O O21 0.281851 0.000000 0.163576
#
# Coordination Sequence:
#
# PCOD9586375 Si02
#       8
#    12  12  12  12  12  12  12  12
#     4  11  21  34  53  74  97 128 166 207 245 291
#     4  10  20  34  51  74 103 134 170 215 261 301
#     4   9  18  33  53  78 106 134 163 204 263 319
#     4   9  17  28  43  66  97 132 169 209 252 295
#     4   9  18  31  48  73 102 129 155 191 246 301
#     4   9  15  28  49  73  99 126 159 200 246 301
#     4   9  17  29  49  76 102 133 174 216 259 310
#     4  11  22  37  53  76 102 132 172 212 247 297
#
# _framework density 17.183575999999999
#
# number of rings (size 3 to 8) (size 9 to 14) (size 15 to 20)
#    0.000    2.375    1.250    2.875    0.000    2.250 
#    0.000    1.875    0.000    0.625    0.000    0.000 
#    0.000    0.000    0.000    0.000    0.000    2.125 
#
# Total GULP energy -534526.961227 kJ/mol
# GULP energy per Si atom -5567.989179 kJ/mol
# Density = 1.714447 g / cm^3
# Si number density = 17.183576 Si / 1000 Ang^3
#
#
#
# Elastic Constant Matrix: (Units=GPa)
#
#
# Indices 1 2 3 4 5 6 
#
# 1 41.3993 27.6060 23.5214 0.0000 0.0000 0.0000
# 2 27.6060 41.3993 23.5214 0.0000 0.0000 0.0000
# 3 23.5214 23.5214 88.1189 0.0000 0.0000 0.0000
# 4 0.0000 0.0000 0.0000 17.6608 0.0000 0.0000
# 5 0.0000 0.0000 0.0000 0.0000 17.6608 0.0000
# 6 0.0000 0.0000 0.0000 0.0000 0.0000 6.8967
#
#
#
# Elastic Compliance Matrix: (Units=1/GPa)
#
#
# Indices 1 2 3 4 5 6 
#
# 1 0.045107 -0.027392 -0.004729 0.000000 0.000000 0.000000
# 2 -0.027392 0.045107 -0.004729 0.000000 0.000000 0.000000
# 3 -0.004729 -0.004729 0.013873 0.000000 0.000000 0.000000
# 4 0.000000 0.000000 0.000000 0.056623 0.000000 0.000000
# 5 0.000000 0.000000 0.000000 0.000000 0.056623 0.000000
# 6 0.000000 0.000000 0.000000 0.000000 0.000000 0.144998
#
#
# Mechanical properties :
#
#
# Convention : Reuss Voigt Hill
#
# Bulk Modulus (GPa) = 32.90709 35.57943 34.24326
# Shear Modulus (GPa) = 11.20679 14.86156 13.03418
#
# Velocity S-wave (km/s) = 2.55655 2.94406 2.75712
# Velocity P-wave (km/s) = 5.28266 5.68393 5.48697
#
# Compressibility (1/GPa) = 0.03038859
#
# Stress axis : x y z
#
# Youngs Moduli (GPa) = 22.16945 22.16945 72.08375
#
# Poissons Ratio (x) = 0.60726 0.34086
# Poissons Ratio (y) = 0.60726 0.34086
# Poissons Ratio (z) = 0.10483 0.10483
#
# Static dielectric constant tensor:
#      x y z
#    x 1.599120 0.000000 0.000000 
#    y 0.000000 1.599120 0.000000 
#    z 0.000000 0.000000 1.602790 
# 
# From -- ./inp_files/2288.got.cif
#   From: 2010.05.17/outbox.cif.g08.bks.cpg/sg189_2_cif.got.tgz:2288.got - 2010.05.20 12:14:34.
