data_PCOD9586318
_publ_section_title
;
Structure prediction by ZEFSAII (Michael W. Deem and Ramdas Pophale) SiO2 
 PCOD9586318
Probable space group: P -6 2 M
;
_chemical_formula_sum "Si O2"
_cell_formula_units_Z 72
_cell_length_a 14.102477
_cell_length_b 14.102477
_cell_length_c 19.608398
_cell_angle_alpha 90.000000
_cell_angle_beta 90.000000
_cell_angle_gamma 120.000000
_cell_volume 3377.252605
_symmetry_space_group_name_H-M "P -6 2 M"
_symmetry_group_IT_number 189
_symmetry_cell_setting 'hexagonal'
loop_
_space_group_symop_operation_xyz
x,y,z
-x+y,-x,-z
-y,x-y,z
x,y,-z
-x+y,-x,z
-y,x-y,-z
x-y,-y,-z
-x,-x+y,-z
y,x,-z
y,x,z
x-y,-y,z
-x,-x+y,z
loop_
_atom_site_type_symbol
_atom_site_label
_atom_site_fract_x
_atom_site_fract_y
_atom_site_fract_z
Si Si1 0.808099 0.127693 0.925776
Si Si2 0.128432 0.579980 0.926373
Si Si3 0.121365 0.705902 0.681614
Si Si4 0.870649 0.130333 0.418750
Si Si5 0.322484 0.116183 0.779617
Si Si6 0.452159 0.579208 0.223202
O O1 0.695066 0.130367 0.926154
O O2 0.874344 0.193335 0.860588
O O3 0.772006 0.000000 0.918661
O O4 0.860527 0.167128 0.000000
O O5 0.176784 0.576137 0.853092
O O6 0.000000 0.485847 0.926333
O O7 0.174668 0.569965 0.000000
O O8 0.169659 0.796293 0.621829
O O9 0.114003 0.778235 0.743193
O O10 0.174052 0.640194 0.718465
O O11 0.000000 0.616071 0.657533
O O12 0.860390 0.138746 0.500000
O O13 0.000000 0.199176 0.402087
O O14 0.819176 0.000000 0.403031
O O15 0.435200 0.120987 0.758403
O O16 0.222969 0.000000 0.758073
O O17 0.481915 0.481915 0.215168
#
# Coordination Sequence:
#
# PCOD9586318 Si02
#       6
#    12  12  12  12  12  12
#     4   9  17  31  51  71  95 133 176 216 269 336
#     4   8  13  25  46  65  83 117 164 209 256 310
#     4  10  19  35  55  73 103 145 181 213 265 336
#     4   9  17  30  53  86 119 147 177 218 266 318
#     4  11  21  31  48  76 105 133 176 230 274 318
#     4   9  18  31  46  68  97 128 170 221 266 314
#
# _framework density 21.319103999999999
#
# number of rings (size 3 to 8) (size 9 to 14) (size 15 to 20)
#    0.000    2.667    1.667    2.167    0.000    1.667 
#    1.000    1.667    0.000    4.667    0.000    4.667 
#    0.000    0.000    0.000    0.000    0.000    0.000 
#
# Total GULP energy -401042.850021 kJ/mol
# GULP energy per Si atom -5570.039584 kJ/mol
# Density = 2.127058 g / cm^3
# Si number density = 21.319104 Si / 1000 Ang^3
#
#
#
# Elastic Constant Matrix: (Units=GPa)
#
#
# Indices 1 2 3 4 5 6 
#
# 1 54.3900 26.4692 27.7780 0.0000 0.0000 0.0000
# 2 26.4692 54.3900 27.7780 0.0000 0.0000 0.0000
# 3 27.7780 27.7780 116.6411 0.0000 0.0000 0.0000
# 4 0.0000 0.0000 0.0000 7.9657 0.0000 0.0000
# 5 0.0000 0.0000 0.0000 0.0000 7.9657 0.0000
# 6 0.0000 0.0000 0.0000 0.0000 0.0000 13.9604
#
#
#
# Elastic Compliance Matrix: (Units=1/GPa)
#
#
# Indices 1 2 3 4 5 6 
#
# 1 0.025301 -0.010515 -0.003521 0.000000 0.000000 0.000000
# 2 -0.010515 0.025301 -0.003521 0.000000 0.000000 0.000000
# 3 -0.003521 -0.003521 0.010251 0.000000 0.000000 0.000000
# 4 0.000000 0.000000 0.000000 0.125538 0.000000 0.000000
# 5 0.000000 0.000000 0.000000 0.000000 0.125538 0.000000
# 6 0.000000 0.000000 0.000000 0.000000 0.000000 0.071631
#
#
# Mechanical properties :
#
#
# Convention : Reuss Voigt Hill
#
# Bulk Modulus (GPa) = 38.85286 43.27462 41.06374
# Shear Modulus (GPa) = 11.70266 15.53809 13.62037
#
# Velocity S-wave (km/s) = 2.34546 2.70262 2.53035
# Velocity P-wave (km/s) = 5.05954 5.48466 5.27638
#
# Compressibility (1/GPa) = 0.02573813
#
# Stress axis : x y z
#
# Youngs Moduli (GPa) = 39.52387 39.52387 97.55561
#
# Poissons Ratio (x) = 0.41557 0.34354
# Poissons Ratio (y) = 0.41557 0.34354
# Poissons Ratio (z) = 0.13918 0.13918
#
# Static dielectric constant tensor:
#      x y z
#    x 1.808480 0.000000 0.000000 
#    y 0.000000 1.808480 0.000000 
#    z 0.000000 0.000000 1.808200 
# 
# From -- ./inp_files/3128.got.cif
#   From: 2010.05.17/outbox.cif.g08.bks.cpg/sg189_2_cif.got.tgz:3128.got - 2010.05.20 12:14:34.
