data_PCOD9586799
_publ_section_title
;
Structure prediction by ZEFSAII (Michael W. Deem and Ramdas Pophale) SiO2 
 PCOD9586799
Probable space group: P -6 2 C
;
_chemical_formula_sum "Si O2"
_cell_formula_units_Z 66
_cell_length_a 22.535179
_cell_length_b 22.535179
_cell_length_c 8.170286
_cell_angle_alpha 90.000000
_cell_angle_beta 90.000000
_cell_angle_gamma 120.000000
_cell_volume 3593.270526
_symmetry_space_group_name_H-M "P -6 2 C"
_symmetry_group_IT_number 190
_symmetry_cell_setting 'hexagonal'
loop_
_space_group_symop_operation_xyz
x,y,z
-x+y,-x,1/2-z
-y,x-y,z
x,y,1/2-z
-x+y,-x,z
-y,x-y,1/2-z
x-y,-y,-z
-x,-x+y,-z
y,x,-z
y,x,1/2+z
x-y,-y,1/2+z
-x,-x+y,1/2+z
loop_
_atom_site_type_symbol
_atom_site_label
_atom_site_fract_x
_atom_site_fract_y
_atom_site_fract_z
Si Si1 0.343555 0.421850 0.947579
Si Si2 0.573685 0.416539 0.560793
Si Si3 0.709865 0.920822 0.944869
Si Si4 0.424069 0.077840 0.553604
Si Si5 0.709544 0.787796 0.445689
Si Si6 0.248315 0.639892 0.750000
O O1 0.347976 0.434128 0.750000
O O2 0.264448 0.369356 0.994823
O O3 0.379142 0.379142 0.000000
O O4 0.385599 0.492480 0.044016
O O5 0.590293 0.409824 0.750000
O O6 0.619403 0.496285 0.508667
O O7 0.584612 0.373881 0.420883
O O8 0.710760 0.923088 0.750000
O O9 0.728217 0.863589 0.000092
O O10 0.759159 0.000000 0.000000
O O11 0.423000 0.079695 0.750000
O O12 0.366720 0.096169 0.493088
O O13 0.396477 0.000000 0.500000
O O14 0.707907 0.786510 0.250000
O O15 0.761337 0.761337 0.500000
O O16 0.309790 0.717002 0.750000
#
# Coordination Sequence:
#
# PCOD9586799 Si02
#       6
#    12  12  12  12  12   6
#     4  10  20  35  56  89 125 155 198 247 301 364
#     4  11  22  39  63  87 115 157 202 252 314 365
#     4  10  21  37  58  87 121 158 197 243 296 349
#     4   9  20  34  54  88 119 152 193 240 299 357
#     4  10  20  37  58  86 122 155 197 243 293 354
#     4  10  26  46  58  78 108 150 206 254 300 356
#
# _framework density 18.367668999999999
#
# number of rings (size 3 to 8) (size 9 to 14) (size 15 to 20)
#    0.182    1.818    0.909    2.182    1.273    6.545 
#    0.000    1.818    0.000    0.364    0.000    2.545 
#    0.000    0.000    0.000    0.000    0.000    0.000 
#
# Total GULP energy -367586.885465 kJ/mol
# GULP energy per Si atom -5569.498265 kJ/mol
# Density = 1.832586 g / cm^3
# Si number density = 18.367669 Si / 1000 Ang^3
#
#
#
# Elastic Constant Matrix: (Units=GPa)
#
#
# Indices 1 2 3 4 5 6 
#
# 1 91.3895 0.6735 6.4581 0.0000 0.0000 0.0000
# 2 0.6735 91.3895 6.4581 0.0000 0.0000 0.0000
# 3 6.4581 6.4581 43.3532 0.0000 0.0000 0.0000
# 4 0.0000 0.0000 0.0000 38.1946 0.0000 0.0000
# 5 0.0000 0.0000 0.0000 0.0000 38.1946 0.0000
# 6 0.0000 0.0000 0.0000 0.0000 0.0000 45.3580
#
#
#
# Elastic Compliance Matrix: (Units=1/GPa)
#
#
# Indices 1 2 3 4 5 6 
#
# 1 0.011059 0.000035 -0.001653 0.000000 0.000000 0.000000
# 2 0.000035 0.011059 -0.001653 0.000000 0.000000 0.000000
# 3 -0.001653 -0.001653 0.023559 0.000000 0.000000 0.000000
# 4 0.000000 0.000000 0.000000 0.026182 0.000000 0.000000
# 5 0.000000 0.000000 0.000000 0.000000 0.026182 0.000000
# 6 0.000000 0.000000 0.000000 0.000000 0.000000 0.022047
#
#
# Mechanical properties :
#
#
# Convention : Reuss Voigt Hill
#
# Bulk Modulus (GPa) = 25.55176 28.14572 26.84874
# Shear Modulus (GPa) = 35.79826 38.51895 37.15861
#
# Velocity S-wave (km/s) = 4.41952 4.58438 4.50271
# Velocity P-wave (km/s) = 6.32332 6.58627 6.45613
#
# Compressibility (1/GPa) = 0.03913625
#
# Stress axis : x y z
#
# Youngs Moduli (GPa) = 90.42655 90.42655 42.44719
#
# Poissons Ratio (x) = -0.00319 0.07015
# Poissons Ratio (y) = -0.00319 0.07015
# Poissons Ratio (z) = 0.14944 0.14944
#
# Static dielectric constant tensor:
#      x y z
#    x 1.536200 0.000000 0.000000 
#    y 0.000000 1.536200 0.000000 
#    z 0.000000 0.000000 1.600500 
# 
# From -- ./inp_files/1042.got.cif
#   From: 2010.05.17/outbox.cif.g08.bks.cpg/sg190_1_cif.got.tgz:1042.got - 2010.05.20 12:16:56.
