data_PCOD9586104
_publ_section_title
;
Structure prediction by ZEFSAII (Michael W. Deem and Ramdas Pophale) SiO2 
 PCOD9586104
Probable space group: P -6 2 M
;
_chemical_formula_sum "Si O2"
_cell_formula_units_Z 70
_cell_length_a 15.223112
_cell_length_b 15.223112
_cell_length_c 17.172196
_cell_angle_alpha 90.000000
_cell_angle_beta 90.000000
_cell_angle_gamma 120.000000
_cell_volume 3446.381526
_symmetry_space_group_name_H-M "P -6 2 M"
_symmetry_group_IT_number 189
_symmetry_cell_setting 'hexagonal'
loop_
_space_group_symop_operation_xyz
x,y,z
-x+y,-x,-z
-y,x-y,z
x,y,-z
-x+y,-x,z
-y,x-y,-z
x-y,-y,-z
-x,-x+y,-z
y,x,-z
y,x,z
x-y,-y,z
-x,-x+y,z
loop_
_atom_site_type_symbol
_atom_site_label
_atom_site_fract_x
_atom_site_fract_y
_atom_site_fract_z
Si Si1 0.333335 0.666668 0.906160
Si Si2 0.240399 0.120112 0.690479
Si Si3 0.879217 0.213265 0.151945
Si Si4 0.527663 0.113759 0.094543
Si Si5 0.434645 0.185005 0.593723
Si Si6 0.474426 0.888394 0.594890
Si Si7 0.116084 0.878050 0.000000
O O1 0.413107 0.782997 0.883715
O O2 0.333334 0.666668 0.000000
O O3 0.182836 0.182836 0.678307
O O4 0.309670 0.157842 0.768439
O O5 0.321031 0.136492 0.623915
O O6 0.159929 0.000000 0.696724
O O7 0.872553 0.313445 0.137046
O O8 0.836309 0.142601 0.076603
O O9 0.000000 0.255964 0.153086
O O10 0.505063 0.000000 0.113048
O O11 0.514364 0.114915 0.000000
O O12 0.433360 0.182190 0.500000
O O13 0.496295 0.130759 0.621657
O O14 0.497908 0.302367 0.619132
O O15 0.471376 0.886022 0.500000
O O16 0.560326 0.000000 0.618946
O O17 0.000000 0.847343 0.000000
O O18 0.186035 0.000000 0.000000
#
# Coordination Sequence:
#
# PCOD9586104 Si02
#       7
#     4  12  12  12  12  12   6
#     4   9  18  30  54  87 117 150 190 224 280 351
#     4  11  23  38  55  79 115 157 199 238 281 336
#     4   9  18  33  53  74 101 142 188 236 290 335
#     4   9  16  32  55  77 107 146 187 234 284 340
#     4  10  20  36  59  85 112 143 181 227 283 346
#     4   9  17  31  53  80 107 136 174 221 270 320
#     4  10  17  28  48  74 100 130 175 234 294 344
#
# _framework density 20.311157000000001
#
# number of rings (size 3 to 8) (size 9 to 14) (size 15 to 20)
#    0.000    2.400    0.857    2.143    0.000    3.429 
#    0.000    5.143    0.000    3.086    0.000    0.000 
#    0.000    0.000    0.000    0.514    0.000    0.000 
#
# Total GULP energy -390195.679509 kJ/mol
# GULP energy per Si atom -5574.223993 kJ/mol
# Density = 2.026493 g / cm^3
# Si number density = 20.311157 Si / 1000 Ang^3
#
#
#
# Elastic Constant Matrix: (Units=GPa)
#
#
# Indices 1 2 3 4 5 6 
#
# 1 66.9000 4.5075 3.9103 0.0000 0.0001 0.0005
# 2 4.5075 66.9028 3.9103 0.0001 0.0000 0.0002
# 3 3.9103 3.9103 21.8459 0.0000 0.0000 0.0000
# 4 0.0000 0.0001 0.0000 12.2058 0.0001 0.0001
# 5 0.0001 0.0000 0.0000 0.0001 12.2054 0.0000
# 6 0.0005 0.0002 0.0000 0.0001 0.0000 31.1964
#
#
#
# Elastic Compliance Matrix: (Units=1/GPa)
#
#
# Indices 1 2 3 4 5 6 
#
# 1 0.015156 -0.000872 -0.002557 0.000000 0.000000 0.000000
# 2 -0.000872 0.015155 -0.002557 0.000000 0.000000 0.000000
# 3 -0.002557 -0.002557 0.046690 0.000000 0.000000 0.000000
# 4 0.000000 0.000000 0.000000 0.081928 -0.000001 0.000000
# 5 0.000000 0.000000 0.000000 -0.000001 0.081931 0.000000
# 6 0.000000 0.000000 0.000000 0.000000 0.000000 0.032055
#
#
# Mechanical properties :
#
#
# Convention : Reuss Voigt Hill
#
# Bulk Modulus (GPa) = 15.37722 20.03387 17.70554
# Shear Modulus (GPa) = 16.30985 20.67622 18.49304
#
# Velocity S-wave (km/s) = 2.83680 3.19403 3.02070
# Velocity P-wave (km/s) = 4.27986 4.84637 4.57190
#
# Compressibility (1/GPa) = 0.06503126
#
# Stress axis : x y z
#
# Youngs Moduli (GPa) = 65.98111 65.98384 21.41766
#
# Poissons Ratio (x) = 0.05752 0.05476
# Poissons Ratio (y) = 0.05751 0.05476
# Poissons Ratio (z) = 0.16870 0.16870
#
# Static dielectric constant tensor:
#      x y z
#    x 1.708270 0.000000 0.000000 
#    y 0.000000 1.708270 0.000000 
#    z 0.000000 0.000000 1.743410 
# 
# From -- ./inp_files/3134.got.cif
#   From: 2010.05.17/outbox.cif.g08.bks.cpg/sg189_2_cif.got.tgz:3134.got - 2010.05.20 12:14:34.
