data_PCOD9586647
_publ_section_title
;
Structure prediction by ZEFSAII (Michael W. Deem and Ramdas Pophale) SiO2 
 PCOD9586647
Probable space group: P -6 2 C
;
_chemical_formula_sum "Si O2"
_cell_formula_units_Z 52
_cell_length_a 13.805999
_cell_length_b 13.805999
_cell_length_c 15.842636
_cell_angle_alpha 90.000000
_cell_angle_beta 90.000000
_cell_angle_gamma 120.000000
_cell_volume 2615.132818
_symmetry_space_group_name_H-M "P -6 2 C"
_symmetry_group_IT_number 190
_symmetry_cell_setting 'hexagonal'
loop_
_space_group_symop_operation_xyz
x,y,z
-x+y,-x,1/2-z
-y,x-y,z
x,y,1/2-z
-x+y,-x,z
-y,x-y,1/2-z
x-y,-y,-z
-x,-x+y,-z
y,x,-z
y,x,1/2+z
x-y,-y,1/2+z
-x,-x+y,1/2+z
loop_
_atom_site_type_symbol
_atom_site_label
_atom_site_fract_x
_atom_site_fract_y
_atom_site_fract_z
Si Si1 0.781986 0.462698 0.013386
Si Si2 0.213941 0.997078 0.398298
Si Si3 0.305147 0.248711 0.409972
Si Si4 0.589097 0.819788 0.343209
Si Si5 0.000000 0.000000 0.398138
O O1 0.653912 0.431337 0.031369
O O2 0.875833 0.565219 0.064395
O O3 0.797405 0.499611 0.915787
O O4 0.278032 0.128217 0.375650
O O5 0.225113 0.000000 0.500000
O O6 0.238382 0.902493 0.363965
O O7 0.086959 0.961432 0.372253
O O8 0.241210 0.241210 0.500000
O O9 0.275159 0.322729 0.350814
O O10 0.541846 0.789176 0.250000
O O11 0.000000 0.000000 0.500000
#
# Coordination Sequence:
#
# PCOD9586647 Si02
#       5
#    12  12  12  12   4
#     4   9  21  41  62  79 104 150 206 259 282 325
#     4  11  16  31  54  80 119 158 191 232 281 359
#     4  10  18  36  59  87 116 150 198 244 284 346
#     4  11  23  36  56  91 127 155 181 234 313 369
#     4   9  15  24  49  74 109 153 175 212 289 327
#
# _framework density 19.884267000000001
#
# number of rings (size 3 to 8) (size 9 to 14) (size 15 to 20)
#    0.462    1.385    6.923    0.692    0.000    1.846 
#   12.462    0.000    0.000    1.385    0.000    0.000 
#    0.000    0.000    0.000    0.000    0.000    0.000 
#
# Total GULP energy -289633.841739 kJ/mol
# GULP energy per Si atom -5569.881572 kJ/mol
# Density = 1.983901 g / cm^3
# Si number density = 19.884267 Si / 1000 Ang^3
#
#
#
# Elastic Constant Matrix: (Units=GPa)
#
#
# Indices 1 2 3 4 5 6 
#
# 1 53.8222 2.3539 2.2603 0.0000 0.0000 0.0000
# 2 2.3539 53.8222 2.2603 0.0000 0.0000 0.0000
# 3 2.2603 2.2603 28.5916 0.0000 0.0000 0.0000
# 4 0.0000 0.0000 0.0000 8.2971 0.0000 0.0000
# 5 0.0000 0.0000 0.0000 0.0000 8.2971 0.0000
# 6 0.0000 0.0000 0.0000 0.0000 0.0000 25.7341
#
#
#
# Elastic Compliance Matrix: (Units=1/GPa)
#
#
# Indices 1 2 3 4 5 6 
#
# 1 0.018672 -0.000757 -0.001416 0.000000 0.000000 0.000000
# 2 -0.000757 0.018672 -0.001416 0.000000 0.000000 0.000000
# 3 -0.001416 -0.001416 0.035199 0.000000 0.000000 0.000000
# 4 0.000000 0.000000 0.000000 0.120524 0.000000 0.000000
# 5 0.000000 0.000000 0.000000 0.000000 0.120524 0.000000
# 6 0.000000 0.000000 0.000000 0.000000 0.000000 0.038859
#
#
# Mechanical properties :
#
#
# Convention : Reuss Voigt Hill
#
# Bulk Modulus (GPa) = 15.29887 16.66502 15.98194
# Shear Modulus (GPa) = 13.10898 17.08976 15.09937
#
# Velocity S-wave (km/s) = 2.57040 2.93484 2.75864
# Velocity P-wave (km/s) = 4.06447 4.45910 4.26635
#
# Compressibility (1/GPa) = 0.06536432
#
# Stress axis : x y z
#
# Youngs Moduli (GPa) = 53.55526 53.55526 28.40970
#
# Poissons Ratio (x) = 0.04055 0.04024
# Poissons Ratio (y) = 0.04055 0.04024
# Poissons Ratio (z) = 0.07585 0.07585
#
# Static dielectric constant tensor:
#      x y z
#    x 1.722500 0.000000 0.000000 
#    y 0.000000 1.722500 0.000000 
#    z 0.000000 0.000000 1.713930 
# 
# From -- ./inp_files/2717.got.cif
#   From: 2010.05.17/outbox.cif.g08.bks.cpg/sg190_2_cif.got.tgz:2717.got - 2010.05.20 12:16:56.
