data_PCOD9586449
_publ_section_title
;
Structure prediction by ZEFSAII (Michael W. Deem and Ramdas Pophale) SiO2 
 PCOD9586449
Probable space group: P -6 2 M
;
_chemical_formula_sum "Si O2"
_cell_formula_units_Z 96
_cell_length_a 14.291836
_cell_length_b 14.291836
_cell_length_c 26.843475
_cell_angle_alpha 90.000000
_cell_angle_beta 90.000000
_cell_angle_gamma 120.000000
_cell_volume 4748.379442
_symmetry_space_group_name_H-M "P -6 2 M"
_symmetry_group_IT_number 189
_symmetry_cell_setting 'hexagonal'
loop_
_space_group_symop_operation_xyz
x,y,z
-x+y,-x,-z
-y,x-y,z
x,y,-z
-x+y,-x,z
-y,x-y,-z
x-y,-y,-z
-x,-x+y,-z
y,x,-z
y,x,z
x-y,-y,z
-x,-x+y,z
loop_
_atom_site_type_symbol
_atom_site_label
_atom_site_fract_x
_atom_site_fract_y
_atom_site_fract_z
Si Si1 0.684021 0.559937 0.093814
Si Si2 0.245024 0.120272 0.713508
Si Si3 0.537200 0.413237 0.639601
Si Si4 0.482478 0.876454 0.249855
Si Si5 0.350796 0.474820 0.941446
Si Si6 0.325558 0.203878 0.605766
Si Si7 0.872509 0.330080 0.445625
Si Si8 0.426883 0.166157 0.792348
O O1 0.638354 0.638354 0.075137
O O2 0.786117 0.559477 0.068411
O O3 0.581381 0.438140 0.088451
O O4 0.720501 0.590835 0.150890
O O5 0.205242 0.205242 0.721123
O O6 0.302640 0.146822 0.659669
O O7 0.323147 0.128083 0.757662
O O8 0.145805 0.000000 0.711562
O O9 0.507652 0.507652 0.650717
O O10 0.541857 0.370398 0.694144
O O11 0.435005 0.318271 0.611865
O O12 0.636716 0.462617 0.601670
O O13 0.376881 0.875622 0.231467
O O14 0.510225 0.805890 0.213357
O O15 0.579980 0.000000 0.251513
O O16 0.382019 0.382019 0.930427
O O17 0.373286 0.502265 0.000000
O O18 0.230817 0.230817 0.594709
O O19 0.354390 0.140446 0.565721
O O20 0.826540 0.330508 0.500000
O O21 0.000000 0.417185 0.446838
#
# Coordination Sequence:
#
# PCOD9586449 Si02
#       8
#    12  12  12  12  12  12  12  12
#     4  11  23  39  61  95 133 169 210 265 328 384
#     4  11  22  38  59  86 120 163 211 258 304 361
#     4   9  19  36  55  76 104 141 182 231 285 339
#     4  11  22  38  57  81 115 155 198 246 291 349
#     4  10  22  41  66  93 123 167 219 268 322 379
#     4  10  20  37  59  82 109 144 193 243 291 348
#     4  10  21  37  57  81 110 143 180 230 300 374
#     4  12  23  37  58  87 122 162 201 242 304 368
#
# _framework density 20.217424000000001
#
# number of rings (size 3 to 8) (size 9 to 14) (size 15 to 20)
#    0.000    1.500    1.250    4.375    0.000    4.500 
#    0.750    1.250    0.000    0.500    0.000    0.000 
#    0.000    0.000    0.000    0.000    0.000    0.000 
#
# Total GULP energy -535976.555405 kJ/mol
# GULP energy per Si atom -5583.089119 kJ/mol
# Density = 2.017141 g / cm^3
# Si number density = 20.217424 Si / 1000 Ang^3
#
#
#
# Elastic Constant Matrix: (Units=GPa)
#
#
# Indices 1 2 3 4 5 6 
#
# 1 82.9514 28.7976 17.4991 0.0000 0.0000 0.0000
# 2 28.7976 82.9514 17.4991 0.0000 0.0000 0.0000
# 3 17.4991 17.4991 45.4132 0.0000 0.0000 0.0000
# 4 0.0000 0.0000 0.0000 16.8172 0.0000 0.0000
# 5 0.0000 0.0000 0.0000 0.0000 16.8172 0.0000
# 6 0.0000 0.0000 0.0000 0.0000 0.0000 27.0769
#
#
#
# Elastic Compliance Matrix: (Units=1/GPa)
#
#
# Indices 1 2 3 4 5 6 
#
# 1 0.014321 -0.004145 -0.003921 0.000000 0.000000 0.000000
# 2 -0.004145 0.014321 -0.003921 0.000000 0.000000 0.000000
# 3 -0.003921 -0.003921 0.025042 0.000000 0.000000 0.000000
# 4 0.000000 0.000000 0.000000 0.059463 0.000000 0.000000
# 5 0.000000 0.000000 0.000000 0.000000 0.059463 0.000000
# 6 0.000000 0.000000 0.000000 0.000000 0.000000 0.036932
#
#
# Mechanical properties :
#
#
# Convention : Reuss Voigt Hill
#
# Bulk Modulus (GPa) = 33.65875 37.65640 35.65758
# Shear Modulus (GPa) = 20.54059 21.97695 21.25877
#
# Velocity S-wave (km/s) = 3.19091 3.30059 3.24621
# Velocity P-wave (km/s) = 5.50095 5.76119 5.63257
#
# Compressibility (1/GPa) = 0.02970996
#
# Stress axis : x y z
#
# Youngs Moduli (GPa) = 69.82586 69.82586 39.93277
#
# Poissons Ratio (x) = 0.28940 0.15659
# Poissons Ratio (y) = 0.28940 0.15659
# Poissons Ratio (z) = 0.27382 0.27382
#
# Static dielectric constant tensor:
#      x y z
#    x 1.757580 0.000000 0.000000 
#    y 0.000000 1.757580 0.000000 
#    z 0.000000 0.000000 1.724890 
# 
# From -- ./inp_files/3718.got.cif
#   From: 2010.05.17/outbox.cif.g08.bks.cpg/sg189_2_cif.got.tgz:3718.got - 2010.05.20 12:14:34.
