data_PCOD9586761
_publ_section_title
;
Structure prediction by ZEFSAII (Michael W. Deem and Ramdas Pophale) SiO2 
 PCOD9586761
Probable space group: P -6 2 C
;
_chemical_formula_sum "Si O2"
_cell_formula_units_Z 72
_cell_length_a 24.689752
_cell_length_b 24.689752
_cell_length_c 8.876519
_cell_angle_alpha 90.000000
_cell_angle_beta 90.000000
_cell_angle_gamma 120.000000
_cell_volume 4686.048443
_symmetry_space_group_name_H-M "P -6 2 C"
_symmetry_group_IT_number 190
_symmetry_cell_setting 'hexagonal'
loop_
_space_group_symop_operation_xyz
x,y,z
-x+y,-x,1/2-z
-y,x-y,z
x,y,1/2-z
-x+y,-x,z
-y,x-y,1/2-z
x-y,-y,-z
-x,-x+y,-z
y,x,-z
y,x,1/2+z
x-y,-y,1/2+z
-x,-x+y,1/2+z
loop_
_atom_site_type_symbol
_atom_site_label
_atom_site_fract_x
_atom_site_fract_y
_atom_site_fract_z
Si Si1 0.493220 0.748443 0.070734
Si Si2 0.484392 0.853677 0.929581
Si Si3 0.515161 0.138003 0.571363
Si Si4 0.068108 0.698619 0.931142
Si Si5 0.367646 0.068292 0.930150
Si Si6 0.812093 0.630518 0.429683
O O1 0.505473 0.758739 0.250000
O O2 0.463521 0.674628 0.045421
O O3 0.461590 0.787177 0.011561
O O4 0.558062 0.778684 0.979377
O O5 0.362813 0.517341 0.750000
O O6 0.556915 0.899604 0.974647
O O7 0.439135 0.879156 0.980375
O O8 0.520407 0.129717 0.750000
O O9 0.441613 0.098276 0.530726
O O10 0.064036 0.696508 0.750000
O O11 0.116097 0.770907 0.974350
O O12 0.000000 0.669907 0.000000
O O13 0.363655 0.066092 0.750000
O O14 0.345017 0.115199 0.991644
O O15 0.328878 0.000000 0.000000
O O16 0.808968 0.635233 0.250000
#
# Coordination Sequence:
#
# PCOD9586761 Si02
#       6
#    12  12  12  12  12  12
#     4   9  17  31  48  63  81 110 147 185 233 289
#     4  10  20  32  46  65  88 115 150 194 242 287
#     4   9  19  33  47  64  86 115 150 191 240 290
#     4   9  19  32  47  69  93 120 153 187 227 275
#     4  10  20  33  50  72  95 124 158 190 232 282
#     4   9  17  31  49  69  93 118 148 187 225 267
#
# _framework density 15.364758
#
# number of rings (size 3 to 8) (size 9 to 14) (size 15 to 20)
#    0.000    2.667    0.000    4.000    0.000    8.667 
#    1.000    3.333    0.000    0.000    0.000    0.000 
#    0.000    0.000    0.000    0.500    0.000    8.000 
#
# Total GULP energy -400966.478224 kJ/mol
# GULP energy per Si atom -5568.978864 kJ/mol
# Density = 1.532979 g / cm^3
# Si number density = 15.364758 Si / 1000 Ang^3
#
#
#
# Elastic Constant Matrix: (Units=GPa)
#
#
# Indices 1 2 3 4 5 6 
#
# 1 85.5453 60.1517 36.7309 0.0000 0.0000 0.0000
# 2 60.1517 85.5453 36.7309 0.0000 0.0000 0.0000
# 3 36.7309 36.7309 39.8855 0.0000 0.0000 0.0000
# 4 0.0000 0.0000 0.0000 22.2013 0.0000 0.0000
# 5 0.0000 0.0000 0.0000 0.0000 22.2013 0.0000
# 6 0.0000 0.0000 0.0000 0.0000 0.0000 12.6968
#
#
#
# Elastic Compliance Matrix: (Units=1/GPa)
#
#
# Indices 1 2 3 4 5 6 
#
# 1 0.026096 -0.013283 -0.011800 0.000000 0.000000 0.000000
# 2 -0.013283 0.026096 -0.011800 0.000000 0.000000 0.000000
# 3 -0.011800 -0.011800 0.046804 0.000000 0.000000 0.000000
# 4 0.000000 0.000000 0.000000 0.045042 0.000000 0.000000
# 5 0.000000 0.000000 0.000000 0.000000 0.045042 0.000000
# 6 0.000000 0.000000 0.000000 0.000000 0.000000 0.078760
#
#
# Mechanical properties :
#
#
# Convention : Reuss Voigt Hill
#
# Bulk Modulus (GPa) = 39.63213 53.13366 46.38290
# Shear Modulus (GPa) = 14.28500 16.57743 15.43121
#
# Velocity S-wave (km/s) = 3.05245 3.28826 3.17255
# Velocity P-wave (km/s) = 6.18655 7.00525 6.60859
#
# Compressibility (1/GPa) = 0.02523205
#
# Stress axis : x y z
#
# Youngs Moduli (GPa) = 38.31940 38.31940 21.36551
#
# Poissons Ratio (x) = 0.50901 0.25210
# Poissons Ratio (y) = 0.50901 0.25210
# Poissons Ratio (z) = 0.45215 0.45215
#
# Static dielectric constant tensor:
#      x y z
#    x 1.522270 0.000000 0.000000 
#    y 0.000000 1.522270 0.000000 
#    z 0.000000 0.000000 1.511050 
# 
# From -- ./inp_files/1174.got.cif
#   From: 2010.05.17/outbox.cif.g08.bks.cpg/sg190_1_cif.got.tgz:1174.got - 2010.05.20 12:16:56.
