data_PCOD9586935
_publ_section_title
;
Structure prediction by ZEFSAII (Michael W. Deem and Ramdas Pophale) SiO2 
 PCOD9586935
Probable space group: P -6 2 C
;
_chemical_formula_sum "Si O2"
_cell_formula_units_Z 42
_cell_length_a 8.591976
_cell_length_b 8.591976
_cell_length_c 33.013684
_cell_angle_alpha 90.000000
_cell_angle_beta 90.000000
_cell_angle_gamma 120.000000
_cell_volume 2110.623319
_symmetry_space_group_name_H-M "P -6 2 C"
_symmetry_group_IT_number 190
_symmetry_cell_setting 'hexagonal'
loop_
_space_group_symop_operation_xyz
x,y,z
-x+y,-x,1/2-z
-y,x-y,z
x,y,1/2-z
-x+y,-x,z
-y,x-y,1/2-z
x-y,-y,-z
-x,-x+y,-z
y,x,-z
y,x,1/2+z
x-y,-y,1/2+z
-x,-x+y,1/2+z
loop_
_atom_site_type_symbol
_atom_site_label
_atom_site_fract_x
_atom_site_fract_y
_atom_site_fract_z
Si Si1 0.333334 0.666668 0.046323
Si Si2 0.654108 0.532869 0.828146
Si Si3 0.000000 0.000000 0.451051
Si Si4 0.333335 0.666668 0.549872
Si Si5 0.118697 0.471183 0.750000
Si Si6 0.996174 0.333072 0.917060
O O1 0.528411 0.725136 0.063687
O O2 0.333334 0.666667 0.998337
O O3 0.494291 0.322507 0.827912
O O4 0.625646 0.626175 0.789321
O O5 0.658303 0.634371 0.869000
O O6 0.945860 0.140036 0.433162
O O7 0.000000 0.000000 0.500000
O O8 0.472062 0.609567 0.566378
O O9 0.175092 0.683519 0.750000
#
# Coordination Sequence:
#
# PCOD9586935 Si02
#       6
#     4  12   4   4   6  12
#     4  12  21  48  60 103 131 184 237 285 351 417
#     4  10  22  44  69  95 134 181 221 271 351 410
#     4  12  27  45  66 100 146 187 240 300 351 411
#     4  12  27  36  72  91 143 181 237 291 345 405
#     4  10  24  38  70 106 130 162 226 276 330 412
#     4  12  25  43  67 100 135 186 234 290 352 420
#
# _framework density 19.899336999999999
#
# number of rings (size 3 to 8) (size 9 to 14) (size 15 to 20)
#    0.857    0.000    2.857    5.143    4.000    0.000 
#    0.000    0.000    0.000    4.571    0.000    0.000 
#    0.000    0.000    0.000    0.000    0.000    0.000 
#
# Total GULP energy -234554.206224 kJ/mol
# GULP energy per Si atom -5584.623958 kJ/mol
# Density = 1.985404 g / cm^3
# Si number density = 19.899337 Si / 1000 Ang^3
#
#
#
# Elastic Constant Matrix: (Units=GPa)
#
#
# Indices 1 2 3 4 5 6 
#
# 1 63.3628 -4.1708 38.4557 -0.0008 -0.0006 0.0001
# 2 -4.1708 63.3626 38.4556 0.0018 -0.0007 -0.0003
# 3 38.4557 38.4556 218.5775 0.0009 0.0001 0.0000
# 4 -0.0008 0.0018 0.0009 110.9449 -0.0019 0.0000
# 5 -0.0006 -0.0007 0.0001 -0.0019 110.9162 0.0013
# 6 0.0001 -0.0003 0.0000 0.0000 0.0013 33.7659
#
#
#
# Elastic Compliance Matrix: (Units=1/GPa)
#
#
# Indices 1 2 3 4 5 6 
#
# 1 0.018354 0.003547 -0.003853 0.000000 0.000000 0.000000
# 2 0.003547 0.018354 -0.003853 0.000000 0.000000 0.000000
# 3 -0.003853 -0.003853 0.005931 0.000000 0.000000 0.000000
# 4 0.000000 0.000000 0.000000 0.009013 0.000000 0.000000
# 5 0.000000 0.000000 0.000000 0.000000 0.009016 0.000000
# 6 0.000000 0.000000 0.000000 0.000000 0.000000 0.029616
#
#
# Mechanical properties :
#
#
# Convention : Reuss Voigt Hill
#
# Bulk Modulus (GPa) = 29.13763 54.53155 41.83459
# Shear Modulus (GPa) = 45.43668 69.29623 57.36646
#
# Velocity S-wave (km/s) = 4.78360 5.90754 5.37503
# Velocity P-wave (km/s) = 6.72196 8.60204 7.71945
#
# Compressibility (1/GPa) = 0.03431989
#
# Stress axis : x y z
#
# Youngs Moduli (GPa) = 54.48374 54.48356 168.60997
#
# Poissons Ratio (x) = -0.19324 0.64968
# Poissons Ratio (y) = -0.19324 0.64968
# Poissons Ratio (z) = 0.20993 0.20993
#
# Static dielectric constant tensor:
#      x y z
#    x 1.654860 0.000000 0.000000 
#    y 0.000000 1.654860 0.000000 
#    z 0.000000 0.000000 1.664880 
# 
# From -- ./inp_files/5098.got.cif
#   From: 2010.05.17/outbox.cif.g08.bks.cpg/sg190_3_cif.got.tgz:5098.got - 2010.05.20 12:16:56.
