data_PCOD9586675
_publ_section_title
;
Structure prediction by ZEFSAII (Michael W. Deem and Ramdas Pophale) SiO2 
 PCOD9586675
Probable space group: P -6 2 C
;
_chemical_formula_sum "Si O2"
_cell_formula_units_Z 72
_cell_length_a 24.431030
_cell_length_b 24.431030
_cell_length_c 8.780185
_cell_angle_alpha 90.000000
_cell_angle_beta 90.000000
_cell_angle_gamma 120.000000
_cell_volume 4538.557608
_symmetry_space_group_name_H-M "P -6 2 C"
_symmetry_group_IT_number 190
_symmetry_cell_setting 'hexagonal'
loop_
_space_group_symop_operation_xyz
x,y,z
-x+y,-x,1/2-z
-y,x-y,z
x,y,1/2-z
-x+y,-x,z
-y,x-y,1/2-z
x-y,-y,-z
-x,-x+y,-z
y,x,-z
y,x,1/2+z
x-y,-y,1/2+z
-x,-x+y,1/2+z
loop_
_atom_site_type_symbol
_atom_site_label
_atom_site_fract_x
_atom_site_fract_y
_atom_site_fract_z
Si Si1 0.260753 0.858299 0.432179
Si Si2 0.406730 0.930383 0.432793
Si Si3 0.194181 0.931278 0.932800
Si Si4 0.406659 0.260823 0.433570
Si Si5 0.191781 0.260413 0.932645
Si Si6 0.523764 0.930239 0.566893
O O1 0.255689 0.860306 0.250000
O O2 0.333685 0.883852 0.471213
O O3 0.238090 0.904053 0.505931
O O4 0.212342 0.788299 0.492055
O O5 0.413516 0.935140 0.250000
O O6 0.454918 0.910184 0.501531
O O7 0.429715 0.000000 0.500000
O O8 0.198013 0.934056 0.750000
O O9 0.122654 0.878825 0.976939
O O10 0.217861 0.000000 0.000000
O O11 0.407576 0.254938 0.250000
O O12 0.333863 0.237160 0.477908
O O13 0.450665 0.333818 0.474977
O O14 0.193721 0.257790 0.750000
O O15 0.216344 0.216344 0.000000
O O16 0.523229 0.934577 0.750000
O O17 0.569968 0.000000 0.500000
#
# Coordination Sequence:
#
# PCOD9586675 Si02
#       6
#    12  12  12  12  12  12
#     4  10  20  32  49  72  96 126 160 194 237 284
#     4  10  20  32  47  70  97 125 158 194 234 280
#     4  10  20  33  49  71  98 126 158 196 237 281
#     4   9  19  33  48  70  98 125 156 194 234 278
#     4   9  18  31  47  69  96 123 152 189 230 274
#     4  10  19  31  49  72  97 127 159 193 236 281
#
# _framework density 15.864070999999999
#
# number of rings (size 3 to 8) (size 9 to 14) (size 15 to 20)
#    0.000    2.333    0.000    5.000    0.000    8.667 
#    0.000    0.000    0.000    1.000    0.000    0.000 
#    0.000    0.000    0.000    0.000    0.000    0.000 
#
# Total GULP energy -401654.843290 kJ/mol
# GULP energy per Si atom -5578.539490 kJ/mol
# Density = 1.582796 g / cm^3
# Si number density = 15.864071 Si / 1000 Ang^3
#
#
#
# Elastic Constant Matrix: (Units=GPa)
#
#
# Indices 1 2 3 4 5 6 
#
# 1 144.3661 99.3314 51.8237 0.0000 0.0000 0.0000
# 2 99.3314 144.3661 51.8237 0.0000 0.0000 0.0000
# 3 51.8237 51.8237 48.6764 0.0000 0.0000 0.0000
# 4 0.0000 0.0000 0.0000 24.7643 0.0000 0.0000
# 5 0.0000 0.0000 0.0000 0.0000 24.7643 0.0000
# 6 0.0000 0.0000 0.0000 0.0000 0.0000 22.5174
#
#
#
# Elastic Compliance Matrix: (Units=1/GPa)
#
#
# Indices 1 2 3 4 5 6 
#
# 1 0.014852 -0.007353 -0.007984 0.000000 0.000000 0.000000
# 2 -0.007353 0.014852 -0.007984 0.000000 0.000000 0.000000
# 3 -0.007984 -0.007984 0.037544 0.000000 0.000000 0.000000
# 4 0.000000 0.000000 0.000000 0.040381 0.000000 0.000000
# 5 0.000000 0.000000 0.000000 0.000000 0.040381 0.000000
# 6 0.000000 0.000000 0.000000 0.000000 0.000000 0.044410
#
#
# Mechanical properties :
#
#
# Convention : Reuss Voigt Hill
#
# Bulk Modulus (GPa) = 48.52824 82.59624 65.56224
# Shear Modulus (GPa) = 20.33089 23.37118 21.85103
#
# Velocity S-wave (km/s) = 3.58378 3.84241 3.71535
# Velocity P-wave (km/s) = 6.91239 8.47723 7.73449
#
# Compressibility (1/GPa) = 0.02060656
#
# Stress axis : x y z
#
# Youngs Moduli (GPa) = 67.33044 67.33044 26.63510
#
# Poissons Ratio (x) = 0.49508 0.21266
# Poissons Ratio (y) = 0.49508 0.21266
# Poissons Ratio (z) = 0.53757 0.53757
#
# Static dielectric constant tensor:
#      x y z
#    x 1.516890 0.000000 0.000000 
#    y 0.000000 1.516890 0.000000 
#    z 0.000000 0.000000 1.534660 
# 
# From -- ./inp_files/1260.got.cif
#   From: 2010.05.17/outbox.cif.g08.bks.cpg/sg190_1_cif.got.tgz:1260.got - 2010.05.20 12:16:56.
