data_PCOD9586488
_publ_section_title
;
Structure prediction by ZEFSAII (Michael W. Deem and Ramdas Pophale) SiO2 
 PCOD9586488
Probable space group: P -6 2 M
;
_chemical_formula_sum "Si O2"
_cell_formula_units_Z 72
_cell_length_a 13.615116
_cell_length_b 13.615116
_cell_length_c 21.826932
_cell_angle_alpha 90.000000
_cell_angle_beta 90.000000
_cell_angle_gamma 120.000000
_cell_volume 3504.015502
_symmetry_space_group_name_H-M "P -6 2 M"
_symmetry_group_IT_number 189
_symmetry_cell_setting 'hexagonal'
loop_
_space_group_symop_operation_xyz
x,y,z
-x+y,-x,-z
-y,x-y,z
x,y,-z
-x+y,-x,z
-y,x-y,-z
x-y,-y,-z
-x,-x+y,-z
y,x,-z
y,x,z
x-y,-y,z
-x,-x+y,z
loop_
_atom_site_type_symbol
_atom_site_label
_atom_site_fract_x
_atom_site_fract_y
_atom_site_fract_z
Si Si1 0.131760 0.430639 0.747717
Si Si2 0.000000 0.537211 0.572978
Si Si3 0.246679 0.438711 0.929912
Si Si4 0.457076 0.584725 0.858792
Si Si5 0.000000 0.302385 0.573414
Si Si6 0.366516 0.234907 0.361619
Si Si7 0.873546 0.748006 0.154212
O O1 0.167721 0.541762 0.789547
O O2 0.210632 0.428774 0.694256
O O3 0.130441 0.343308 0.798022
O O4 0.000000 0.378937 0.726611
O O5 0.000000 0.548900 0.500000
O O6 0.893542 0.545390 0.600934
O O7 0.000000 0.420810 0.586173
O O8 0.346711 0.474451 0.881270
O O9 0.197790 0.519547 0.909831
O O10 0.154772 0.311761 0.911957
O O11 0.281463 0.451668 0.000000
O O12 0.559757 0.559757 0.860415
O O13 0.000000 0.290403 0.500000
O O14 0.116207 0.313455 0.600799
O O15 0.270829 0.270829 0.344393
O O16 0.852271 0.852271 0.154936
O O17 0.000000 0.786371 0.171545
#
# Coordination Sequence:
#
# PCOD9586488 Si02
#       7
#    12   6  12  12   6  12  12
#     4   9  18  38  60  88 126 157 208 260 322 390
#     4   9  22  42  65  99 139 183 232 278 330 396
#     4  11  22  37  58  85 112 149 201 252 319 393
#     4  10  22  39  59  85 117 157 191 254 317 380
#     4  11  22  42  67  97 143 185 228 286 334 392
#     4  10  21  40  67  99 133 178 228 280 341 403
#     4  10  21  36  56  80 113 158 201 257 312 372
#
# _framework density 20.547854999999998
#
# number of rings (size 3 to 8) (size 9 to 14) (size 15 to 20)
#    0.500    1.500    0.833    4.000    0.000    3.333 
#    7.500    0.000    0.000    1.000    0.000    0.000 
#    0.000    0.000    0.000    0.000    0.000    0.000 
#
# Total GULP energy -401161.257147 kJ/mol
# GULP energy per Si atom -5571.684127 kJ/mol
# Density = 2.050109 g / cm^3
# Si number density = 20.547855 Si / 1000 Ang^3
#
#
#
# Elastic Constant Matrix: (Units=GPa)
#
#
# Indices 1 2 3 4 5 6 
#
# 1 50.0321 3.8220 29.7966 0.0000 0.0000 0.0000
# 2 3.8220 50.0321 29.7966 0.0000 0.0000 0.0000
# 3 29.7966 29.7966 134.9536 0.0000 0.0000 0.0000
# 4 0.0000 0.0000 0.0000 22.8019 0.0000 0.0000
# 5 0.0000 0.0000 0.0000 0.0000 22.8019 0.0000
# 6 0.0000 0.0000 0.0000 0.0000 0.0000 23.1050
#
#
#
# Elastic Compliance Matrix: (Units=1/GPa)
#
#
# Indices 1 2 3 4 5 6 
#
# 1 0.023106 0.001466 -0.005425 0.000000 0.000000 0.000000
# 2 0.001466 0.023106 -0.005425 0.000000 0.000000 0.000000
# 3 -0.005425 -0.005425 0.009806 0.000000 0.000000 0.000000
# 4 0.000000 0.000000 0.000000 0.043856 0.000000 0.000000
# 5 0.000000 0.000000 0.000000 0.000000 0.043856 0.000000
# 6 0.000000 0.000000 0.000000 0.000000 0.000000 0.043281
#
#
# Mechanical properties :
#
#
# Convention : Reuss Voigt Hill
#
# Bulk Modulus (GPa) = 26.84651 40.20533 33.52592
# Shear Modulus (GPa) = 22.91515 25.18196 24.04855
#
# Velocity S-wave (km/s) = 3.34310 3.50455 3.42478
# Velocity P-wave (km/s) = 5.29107 5.99875 5.65599
#
# Compressibility (1/GPa) = 0.03724879
#
# Stress axis : x y z
#
# Youngs Moduli (GPa) = 43.27833 43.27833 101.98172
#
# Poissons Ratio (x) = -0.06344 0.55328
# Poissons Ratio (y) = -0.06344 0.55328
# Poissons Ratio (z) = 0.23480 0.23480
#
# Static dielectric constant tensor:
#      x y z
#    x 1.786640 0.000000 0.000000 
#    y 0.000000 1.786640 0.000000 
#    z 0.000000 0.000000 1.739100 
# 
# From -- ./inp_files/3439.got.cif
#   From: 2010.05.17/outbox.cif.g08.bks.cpg/sg189_2_cif.got.tgz:3439.got - 2010.05.20 12:14:34.
