data_PCOD9586239
_publ_section_title
;
Structure prediction by ZEFSAII (Michael W. Deem and Ramdas Pophale) SiO2 
 PCOD9586239
Probable space group: P -6 2 M
;
_chemical_formula_sum "Si O2"
_cell_formula_units_Z 64
_cell_length_a 13.983395
_cell_length_b 13.983395
_cell_length_c 21.687199
_cell_angle_alpha 90.000000
_cell_angle_beta 90.000000
_cell_angle_gamma 120.000000
_cell_volume 3672.479224
_symmetry_space_group_name_H-M "P -6 2 M"
_symmetry_group_IT_number 189
_symmetry_cell_setting 'hexagonal'
loop_
_space_group_symop_operation_xyz
x,y,z
-x+y,-x,-z
-y,x-y,z
x,y,-z
-x+y,-x,z
-y,x-y,-z
x-y,-y,-z
-x,-x+y,-z
y,x,-z
y,x,z
x-y,-y,z
-x,-x+y,z
loop_
_atom_site_type_symbol
_atom_site_label
_atom_site_fract_x
_atom_site_fract_y
_atom_site_fract_z
Si Si1 0.516845 0.648028 0.128355
Si Si2 0.759545 0.538494 0.343478
Si Si3 0.876003 0.435876 0.260899
Si Si4 0.127252 0.685875 0.072479
Si Si5 0.666667 0.333334 0.428004
Si Si6 0.871579 0.740319 0.430139
O O1 0.608552 0.608552 0.130874
O O2 0.456370 0.621472 0.194825
O O3 0.420498 0.563057 0.082724
O O4 0.562790 0.774181 0.108475
O O5 0.810400 0.486423 0.295914
O O6 0.657272 0.529911 0.305954
O O7 0.709666 0.453508 0.399922
O O8 0.841339 0.653435 0.375052
O O9 0.000000 0.532575 0.251068
O O10 0.000000 0.643854 0.092492
O O11 0.136154 0.712218 0.000000
O O12 0.666667 0.333334 0.500000
O O13 0.854150 0.691165 0.500000
O O14 0.796454 0.796454 0.425026
O O15 0.000000 0.830892 0.426218
#
# Coordination Sequence:
#
# PCOD9586239 Si02
#       6
#    12  12  12  12   4  12
#     4  10  20  34  53  76 105 140 174 214 265 312
#     4  10  19  32  50  70  98 130 159 200 252 302
#     4  10  20  33  50  73  98 127 165 202 240 296
#     4  10  20  33  52  80 110 140 177 218 259 310
#     4   9  18  30  45  69  96 123 157 194 241 309
#     4  10  20  34  52  73  97 128 168 213 259 306
#
# _framework density 17.426919000000002
#
# number of rings (size 3 to 8) (size 9 to 14) (size 15 to 20)
#    0.000    2.062    0.000    4.312    0.000    1.875 
#    0.000    0.938    0.000    9.375    0.000    0.000 
#    0.000    0.000    0.000    0.000    0.000    0.000 
#
# Total GULP energy -356705.013681 kJ/mol
# GULP energy per Si atom -5573.515839 kJ/mol
# Density = 1.738725 g / cm^3
# Si number density = 17.426919 Si / 1000 Ang^3
#
#
#
# Elastic Constant Matrix: (Units=GPa)
#
#
# Indices 1 2 3 4 5 6 
#
# 1 65.0368 36.7333 38.6369 0.0000 -0.0002 0.0002
# 2 36.7333 65.0372 38.6374 0.0000 -0.0001 0.0001
# 3 38.6369 38.6374 103.7917 0.0000 -0.0001 0.0002
# 4 0.0000 0.0000 0.0000 24.9782 0.0000 -0.0001
# 5 -0.0002 -0.0001 -0.0001 0.0000 24.9781 0.0000
# 6 0.0002 0.0001 0.0002 -0.0001 0.0000 14.1527
#
#
#
# Elastic Compliance Matrix: (Units=1/GPa)
#
#
# Indices 1 2 3 4 5 6 
#
# 1 0.024514 -0.010817 -0.005099 0.000000 0.000000 0.000000
# 2 -0.010817 0.024514 -0.005099 0.000000 0.000000 0.000000
# 3 -0.005099 -0.005099 0.013431 0.000000 0.000000 0.000000
# 4 0.000000 0.000000 0.000000 0.040035 0.000000 0.000000
# 5 0.000000 0.000000 0.000000 0.000000 0.040035 0.000000
# 6 0.000000 0.000000 0.000000 0.000000 0.000000 0.070658
#
#
# Mechanical properties :
#
#
# Convention : Reuss Voigt Hill
#
# Bulk Modulus (GPa) = 48.94705 51.32011 50.13358
# Shear Modulus (GPa) = 19.08198 20.81234 19.94716
#
# Velocity S-wave (km/s) = 3.31263 3.45956 3.38689
# Velocity P-wave (km/s) = 6.54059 6.74320 6.64267
#
# Compressibility (1/GPa) = 0.02043024
#
# Stress axis : x y z
#
# Youngs Moduli (GPa) = 40.79230 40.79231 74.45449
#
# Poissons Ratio (x) = 0.44124 0.37964
# Poissons Ratio (y) = 0.44123 0.37966
# Poissons Ratio (z) = 0.20800 0.20801
#
# Static dielectric constant tensor:
#      x y z
#    x 1.600760 0.000000 0.000000 
#    y 0.000000 1.600760 0.000000 
#    z 0.000000 0.000000 1.614310 
# 
# From -- ./inp_files/3060.got.cif
#   From: 2010.05.17/outbox.cif.g08.bks.cpg/sg189_2_cif.got.tgz:3060.got - 2010.05.20 12:14:34.
