data_PCOD9586374
_publ_section_title
;
Structure prediction by ZEFSAII (Michael W. Deem and Ramdas Pophale) SiO2 
 PCOD9586374
Probable space group: P -6 2 M
;
_chemical_formula_sum "Si O2"
_cell_formula_units_Z 60
_cell_length_a 23.548178
_cell_length_b 23.548178
_cell_length_c 7.531058
_cell_angle_alpha 90.000000
_cell_angle_beta 90.000000
_cell_angle_gamma 120.000000
_cell_volume 3616.606379
_symmetry_space_group_name_H-M "P -6 2 M"
_symmetry_group_IT_number 189
_symmetry_cell_setting 'hexagonal'
loop_
_space_group_symop_operation_xyz
x,y,z
-x+y,-x,-z
-y,x-y,z
x,y,-z
-x+y,-x,z
-y,x-y,-z
x-y,-y,-z
-x,-x+y,-z
y,x,-z
y,x,z
x-y,-y,z
-x,-x+y,z
loop_
_atom_site_type_symbol
_atom_site_label
_atom_site_fract_x
_atom_site_fract_y
_atom_site_fract_z
Si Si1 0.075029 0.926334 0.713406
Si Si2 0.174300 0.579742 0.500000
Si Si3 0.424969 0.501684 0.790206
Si Si4 0.724583 0.925707 0.788408
Si Si5 0.485435 0.749953 0.500000
Si Si6 0.423493 0.270574 0.789320
O O1 0.072439 0.929295 0.500000
O O2 0.098481 0.874762 0.756081
O O3 0.000000 0.894543 0.779430
O O4 0.120013 0.000000 0.779774
O O5 0.125991 0.563397 0.331016
O O6 0.216015 0.543333 0.500000
O O7 0.226032 0.657914 0.500000
O O8 0.469435 0.469435 0.742405
O O9 0.347880 0.448256 0.765169
O O10 0.434414 0.518060 0.000000
O O11 0.651215 0.879413 0.724974
O O12 0.757886 0.000000 0.716062
O O13 0.718836 0.930105 0.000000
O O14 0.529811 0.784297 0.327197
O O15 0.427749 0.260107 0.000000
#
# Coordination Sequence:
#
# PCOD9586374 Si02
#       6
#    12   6  12  12   6  12
#     4   9  17  28  42  61  87 121 160 200 240 283
#     4  10  20  34  50  75 104 134 168 202 234 285
#     4   9  17  31  53  78 102 128 159 201 252 297
#     4   9  17  29  46  69  96 122 151 195 247 293
#     4  10  21  34  52  73 102 136 166 194 236 279
#     4   9  18  32  50  75 104 130 158 195 243 298
#
# _framework density 16.590136999999999
#
# number of rings (size 3 to 8) (size 9 to 14) (size 15 to 20)
#    0.000    2.800    0.000    1.300    1.400    4.400 
#    0.000    1.000    0.000    6.000    0.000    0.000 
#    0.000    0.000    0.000    0.000    0.000    0.000 
#
# Total GULP energy -334433.550922 kJ/mol
# GULP energy per Si atom -5573.892515 kJ/mol
# Density = 1.655238 g / cm^3
# Si number density = 16.590137 Si / 1000 Ang^3
#
#
#
# Elastic Constant Matrix: (Units=GPa)
#
#
# Indices 1 2 3 4 5 6 
#
# 1 132.5035 89.3555 46.6594 0.0000 0.0000 0.0000
# 2 89.3555 132.5035 46.6594 0.0000 0.0000 0.0000
# 3 46.6594 46.6594 68.9739 0.0000 0.0000 0.0000
# 4 0.0000 0.0000 0.0000 16.4686 0.0000 0.0000
# 5 0.0000 0.0000 0.0000 0.0000 16.4686 0.0000
# 6 0.0000 0.0000 0.0000 0.0000 0.0000 21.5740
#
#
#
# Elastic Compliance Matrix: (Units=1/GPa)
#
#
# Indices 1 2 3 4 5 6 
#
# 1 0.014738 -0.008438 -0.004262 0.000000 0.000000 0.000000
# 2 -0.008438 0.014738 -0.004262 0.000000 0.000000 0.000000
# 3 -0.004262 -0.004262 0.020264 0.000000 0.000000 0.000000
# 4 0.000000 0.000000 0.000000 0.060722 0.000000 0.000000
# 5 0.000000 0.000000 0.000000 0.000000 0.060722 0.000000
# 6 0.000000 0.000000 0.000000 0.000000 0.000000 0.046352
#
#
# Mechanical properties :
#
#
# Convention : Reuss Voigt Hill
#
# Bulk Modulus (GPa) = 63.22302 77.70327 70.46315
# Shear Modulus (GPa) = 19.47561 20.98934 20.23248
#
# Velocity S-wave (km/s) = 3.42998 3.56078 3.49599
# Velocity P-wave (km/s) = 7.34015 7.99026 7.67210
#
# Compressibility (1/GPa) = 0.01581702
#
# Stress axis : x y z
#
# Youngs Moduli (GPa) = 67.85177 67.85177 49.34799
#
# Poissons Ratio (x) = 0.57254 0.21031
# Poissons Ratio (y) = 0.57254 0.21031
# Poissons Ratio (z) = 0.28917 0.28917
#
# Static dielectric constant tensor:
#      x y z
#    x 1.540990 0.000000 0.000000 
#    y 0.000000 1.540990 0.000000 
#    z 0.000000 0.000000 1.601560 
# 
# From -- ./inp_files/909.got.cif
#   From: 2010.05.17/outbox.cif.g08.bks.cpg/sg189_1_cif.got.tgz:909.got - 2010.05.20 12:14:34.
