data_PCOD9586353
_publ_section_title
;
Structure prediction by ZEFSAII (Michael W. Deem and Ramdas Pophale) SiO2 
 PCOD9586353
Probable space group: P -6 2 M
;
_chemical_formula_sum "Si O2"
_cell_formula_units_Z 48
_cell_length_a 19.020147
_cell_length_b 19.020147
_cell_length_c 7.915672
_cell_angle_alpha 90.000000
_cell_angle_beta 90.000000
_cell_angle_gamma 120.000000
_cell_volume 2479.968474
_symmetry_space_group_name_H-M "P -6 2 M"
_symmetry_group_IT_number 189
_symmetry_cell_setting 'hexagonal'
loop_
_space_group_symop_operation_xyz
x,y,z
-x+y,-x,-z
-y,x-y,z
x,y,-z
-x+y,-x,z
-y,x-y,-z
x-y,-y,-z
-x,-x+y,-z
y,x,-z
y,x,z
x-y,-y,z
-x,-x+y,z
loop_
_atom_site_type_symbol
_atom_site_label
_atom_site_fract_x
_atom_site_fract_y
_atom_site_fract_z
Si Si1 0.000000 0.089045 0.702747
Si Si2 0.429294 0.337067 0.204034
Si Si3 0.602505 0.767255 0.799059
Si Si4 0.752086 0.752086 0.198309
Si Si5 0.496775 0.589482 0.701608
O O1 0.000000 0.097776 0.500000
O O2 0.000000 0.164125 0.785665
O O3 0.076034 0.076034 0.746608
O O4 0.368948 0.368948 0.264371
O O5 0.408538 0.248967 0.268868
O O6 0.519827 0.406724 0.251283
O O7 0.425000 0.334111 0.000000
O O8 0.679363 0.762502 0.727165
O O9 0.525666 0.678295 0.771859
O O10 0.615427 0.781512 0.000000
O O11 0.732883 0.732883 0.000000
O O12 0.503125 0.595100 0.500000
O O13 0.556729 0.556729 0.764363
#
# Coordination Sequence:
#
# PCOD9586353 Si02
#       5
#     6  12  12   6  12
#     4   8  18  36  52  70 105 152 191 224 271 326
#     4   9  19  36  57  79 107 143 180 222 271 325
#     4  10  20  35  56  84 112 143 181 223 274 326
#     4  10  20  32  54  86 113 140 183 232 271 320
#     4  10  20  35  56  80 107 142 180 222 268 318
#
# _framework density 19.355084999999999
#
# number of rings (size 3 to 8) (size 9 to 14) (size 15 to 20)
#    0.250    2.250    1.250    0.750    0.000    4.500 
#    1.500    2.500    0.000    3.000    0.000    0.000 
#    0.000    0.000    0.000    0.000    0.000    0.000 
#
# Total GULP energy -267627.079190 kJ/mol
# GULP energy per Si atom -5575.564150 kJ/mol
# Density = 1.931103 g / cm^3
# Si number density = 19.355085 Si / 1000 Ang^3
#
#
#
# Elastic Constant Matrix: (Units=GPa)
#
#
# Indices 1 2 3 4 5 6 
#
# 1 141.1807 91.3896 -3.8455 0.0000 0.0000 0.0000
# 2 91.3896 141.1807 -3.8455 0.0000 0.0000 0.0000
# 3 -3.8455 -3.8455 12.9061 0.0000 0.0000 0.0000
# 4 0.0000 0.0000 0.0000 -4.8236 0.0000 0.0000
# 5 0.0000 0.0000 0.0000 0.0000 -4.8236 0.0000
# 6 0.0000 0.0000 0.0000 0.0000 0.0000 24.8955
#
#
#
# Elastic Compliance Matrix: (Units=1/GPa)
#
#
# Indices 1 2 3 4 5 6 
#
# 1 0.012213 -0.007871 0.001294 0.000000 0.000000 0.000000
# 2 -0.007871 0.012213 0.001294 0.000000 0.000000 0.000000
# 3 0.001294 0.001294 0.078254 0.000000 0.000000 0.000000
# 4 0.000000 0.000000 0.000000 -0.207312 0.000000 0.000000
# 5 0.000000 0.000000 0.000000 0.000000 -0.207312 0.000000
# 6 0.000000 0.000000 0.000000 0.000000 0.000000 0.040168
#
#
# Mechanical properties :
#
#
# Convention : Reuss Voigt Hill
#
# Bulk Modulus (GPa) = 10.85602 51.40718 31.13160
# Shear Modulus (GPa) = -21.69142 17.15424 -2.26859
#
# Velocity S-wave (km/s) = -3.35133 2.98029 -1.08381
# Velocity P-wave (km/s) = 3.05846 6.20166 3.81486
#
# Compressibility (1/GPa) = 0.09211480
#
# Stress axis : x y z
#
# Youngs Moduli (GPa) = 81.87833 81.87833 12.77890
#
# Poissons Ratio (x) = 0.64444 -0.01653
# Poissons Ratio (y) = 0.64444 -0.01653
# Poissons Ratio (z) = -0.10594 -0.10594
#
# Static dielectric constant tensor:
#      x y z
#    x 1.676450 0.000000 0.000000 
#    y 0.000000 1.676450 0.000000 
#    z 0.000000 0.000000 1.689680 
# 
# From -- ./inp_files/663.got.cif
#   From: 2010.05.17/outbox.cif.g08.bks.cpg/sg189_1_cif.got.tgz:663.got - 2010.05.20 12:14:34.
