data_PCOD9586547
_publ_section_title
;
Structure prediction by ZEFSAII (Michael W. Deem and Ramdas Pophale) SiO2 
 PCOD9586547
Probable space group: P -6 2 M
;
_chemical_formula_sum "Si O2"
_cell_formula_units_Z 45
_cell_length_a 18.614272
_cell_length_b 18.614272
_cell_length_c 8.142305
_cell_angle_alpha 90.000000
_cell_angle_beta 90.000000
_cell_angle_gamma 120.000000
_cell_volume 2443.262389
_symmetry_space_group_name_H-M "P -6 2 M"
_symmetry_group_IT_number 189
_symmetry_cell_setting 'hexagonal'
loop_
_space_group_symop_operation_xyz
x,y,z
-x+y,-x,-z
-y,x-y,z
x,y,-z
-x+y,-x,z
-y,x-y,-z
x-y,-y,-z
-x,-x+y,-z
y,x,-z
y,x,z
x-y,-y,z
-x,-x+y,z
loop_
_atom_site_type_symbol
_atom_site_label
_atom_site_fract_x
_atom_site_fract_y
_atom_site_fract_z
Si Si1 0.206128 0.206128 0.799021
Si Si2 0.403346 0.502874 0.305180
Si Si3 0.000000 0.905716 0.500000
Si Si4 0.221049 0.382227 0.808478
Si Si5 0.342325 0.906553 0.304169
O O1 0.140978 0.140978 0.667748
O O2 0.213500 0.294780 0.760897
O O3 0.189934 0.189934 0.000000
O O4 0.389648 0.506596 0.500000
O O5 0.447859 0.447859 0.283844
O O6 0.314171 0.455722 0.223336
O O7 0.470928 0.594293 0.242471
O O8 0.922066 0.922066 0.500000
O O9 0.155272 0.401939 0.726347
O O10 0.203469 0.376380 0.000000
O O11 0.354808 0.913279 0.500000
O O12 0.375141 0.000000 0.240673
#
# Coordination Sequence:
#
# PCOD9586547 Si02
#       5
#     6  12   3  12  12
#     4  10  24  42  64  98 131 163 214 271 317 378
#     4   9  18  35  60  84 110 148 192 242 295 350
#     4  10  26  46  66  98 120 170 222 248 336 388
#     4  11  22  36  58  89 121 160 200 246 309 367
#     4   9  20  38  58  85 115 148 194 248 302 355
#
# _framework density 18.417997
#
# number of rings (size 3 to 8) (size 9 to 14) (size 15 to 20)
#    0.133    2.133    1.333    2.400    3.733    3.200 
#    1.600    5.333    0.000    0.000    0.000    0.000 
#    0.000    0.000    0.000    0.000    0.000    0.000 
#
# Total GULP energy -250794.522097 kJ/mol
# GULP energy per Si atom -5573.211602 kJ/mol
# Density = 1.837608 g / cm^3
# Si number density = 18.417997 Si / 1000 Ang^3
#
#
#
# Elastic Constant Matrix: (Units=GPa)
#
#
# Indices 1 2 3 4 5 6 
#
# 1 104.7836 53.0047 33.8020 0.0000 0.0000 0.0000
# 2 53.0047 104.7836 33.8020 0.0000 0.0000 0.0000
# 3 33.8020 33.8020 31.2975 0.0000 0.0000 0.0000
# 4 0.0000 0.0000 0.0000 -93.4768 0.0000 0.0000
# 5 0.0000 0.0000 0.0000 0.0000 -93.4768 0.0000
# 6 0.0000 0.0000 0.0000 0.0000 0.0000 25.8894
#
#
#
# Elastic Compliance Matrix: (Units=1/GPa)
#
#
# Indices 1 2 3 4 5 6 
#
# 1 0.015554 -0.003758 -0.012740 0.000000 0.000000 0.000000
# 2 -0.003758 0.015554 -0.012740 0.000000 0.000000 0.000000
# 3 -0.012740 -0.012740 0.059470 0.000000 0.000000 0.000000
# 4 0.000000 0.000000 0.000000 -0.010698 0.000000 0.000000
# 5 0.000000 0.000000 0.000000 0.000000 -0.010698 0.000000
# 6 0.000000 0.000000 0.000000 0.000000 0.000000 0.038626
#
#
# Mechanical properties :
#
#
# Convention : Reuss Voigt Hill
#
# Bulk Modulus (GPa) = 31.15018 53.56467 42.35743
# Shear Modulus (GPa) = 28.25062 -24.19579 2.02742
#
# Velocity S-wave (km/s) = 3.92070 -3.62844 1.05032
# Velocity P-wave (km/s) = 6.11927 3.40468 4.95163
#
# Compressibility (1/GPa) = 0.03210254
#
# Stress axis : x y z
#
# Youngs Moduli (GPa) = 64.29023 64.29023 16.81506
#
# Poissons Ratio (x) = 0.24163 0.21422
# Poissons Ratio (y) = 0.24163 0.21422
# Poissons Ratio (z) = 0.81906 0.81906
#
# Static dielectric constant tensor:
#      x y z
#    x 1.645870 0.000000 0.000000 
#    y 0.000000 1.645870 0.000000 
#    z 0.000000 0.000000 1.648100 
# 
# From -- ./inp_files/562.got.cif
#   From: 2010.05.17/outbox.cif.g08.bks.cpg/sg189_1_cif.got.tgz:562.got - 2010.05.20 12:14:34.
