data_PCOD9586091
_publ_section_title
;
Structure prediction by ZEFSAII (Michael W. Deem and Ramdas Pophale) SiO2 
 PCOD9586091
Probable space group: P -6 C 2
;
_chemical_formula_sum "Si O2"
_cell_formula_units_Z 40
_cell_length_a 11.262902
_cell_length_b 11.262902
_cell_length_c 15.925917
_cell_angle_alpha 90.000000
_cell_angle_beta 90.000000
_cell_angle_gamma 120.000000
_cell_volume 1749.587593
_symmetry_space_group_name_H-M "P -6 C 2"
_symmetry_group_IT_number 188
_symmetry_cell_setting 'hexagonal'
loop_
_space_group_symop_operation_xyz
x,y,z
-x+y,-x,1/2-z
-y,x-y,z
x,y,1/2-z
-x+y,-x,z
-y,x-y,1/2-z
-y,-x,-z
-x+y,y,-z
x,x-y,-z
-x+y,y,1/2+z
x,x-y,1/2+z
-y,-x,1/2+z
loop_
_atom_site_type_symbol
_atom_site_label
_atom_site_fract_x
_atom_site_fract_y
_atom_site_fract_z
Si Si1 0.123117 0.384528 0.656405
Si Si2 0.541915 0.944409 0.590294
Si Si3 0.666668 0.333334 0.350640
Si Si4 0.370587 0.198363 0.097849
O O1 0.165987 0.371552 0.750000
O O2 0.093299 0.509609 0.651679
O O3 0.245620 0.423814 0.591445
O O4 0.977031 0.249269 0.635532
O O5 0.483216 0.966432 0.500000
O O6 0.686204 0.066992 0.625489
O O7 0.666667 0.333334 0.250000
O O8 0.791605 0.473526 0.385914
O O9 0.340257 0.170128 0.000000
#
# Coordination Sequence:
#
# PCOD9586091 Si02
#       4
#    12  12   4  12
#     4  12  27  45  72 111 153 195 250 322 394 458
#     4  12  25  48  77 104 148 200 257 311 379 467
#     4  12  22  38  67 102 142 182 235 315 385 440
#     4  12  24  44  72 105 139 189 253 312 374 458
#
# _framework density 22.862531000000001
#
# number of rings (size 3 to 8) (size 9 to 14) (size 15 to 20)
#    0.000    0.000    6.000    4.200    0.000    3.600 
#    1.800    0.000    0.000    0.000    0.000    0.000 
#    0.000    0.000    0.000    0.000    0.000    0.000 
#
# Total GULP energy -223268.487556 kJ/mol
# GULP energy per Si atom -5581.712189 kJ/mol
# Density = 2.281049 g / cm^3
# Si number density = 22.862531 Si / 1000 Ang^3
#
#
#
# Elastic Constant Matrix: (Units=GPa)
#
#
# Indices 1 2 3 4 5 6 
#
# 1 124.6317 46.9826 16.6024 0.0001 -0.0001 0.0000
# 2 46.9826 124.6329 16.6023 -0.0003 0.0001 0.0003
# 3 16.6024 16.6023 114.2843 0.0003 -0.0004 0.0000
# 4 0.0001 -0.0003 0.0003 13.1067 -0.0006 -0.0001
# 5 -0.0001 0.0001 -0.0004 -0.0006 13.1078 0.0000
# 6 0.0000 0.0003 0.0000 -0.0001 0.0000 38.8251
#
#
#
# Elastic Compliance Matrix: (Units=1/GPa)
#
#
# Indices 1 2 3 4 5 6 
#
# 1 0.009437 -0.003441 -0.000871 0.000000 0.000000 0.000000
# 2 -0.003441 0.009437 -0.000871 0.000000 0.000000 0.000000
# 3 -0.000871 -0.000871 0.009003 0.000000 0.000000 0.000000
# 4 0.000000 0.000000 0.000000 0.076297 0.000004 0.000000
# 5 0.000000 0.000000 0.000000 0.000004 0.076290 0.000000
# 6 0.000000 0.000000 0.000000 0.000000 0.000000 0.025757
#
#
# Mechanical properties :
#
#
# Convention : Reuss Voigt Hill
#
# Bulk Modulus (GPa) = 57.10934 58.21374 57.66154
# Shear Modulus (GPa) = 22.47955 31.89868 27.18912
#
# Velocity S-wave (km/s) = 3.13908 3.73934 3.45228
# Velocity P-wave (km/s) = 6.17836 6.64540 6.41613
#
# Compressibility (1/GPa) = 0.01751027
#
# Stress axis : x y z
#
# Youngs Moduli (GPa) = 105.96605 105.96705 111.07205
#
# Poissons Ratio (x) = 0.36468 0.09674
# Poissons Ratio (y) = 0.36467 0.09674
# Poissons Ratio (z) = 0.09230 0.09229
#
# Static dielectric constant tensor:
#      x y z
#    x 1.956300 0.000000 0.000000 
#    y 0.000000 1.956290 0.000000 
#    z 0.000000 0.000000 1.848690 
# 
# From -- ./inp_files/2846.got.cif
#   From: 2010.05.17/outbox.cif.g08.bks.cpg/sg188_2_cif.got.tgz:2846.got - 2010.05.20 12:11:46.
