data_PCOD9586972
_publ_section_title
;
Structure prediction by ZEFSAII (Michael W. Deem and Ramdas Pophale) SiO2 
 PCOD9586972
Probable space group: P -6 2 C
;
_chemical_formula_sum "Si O2"
_cell_formula_units_Z 68
_cell_length_a 11.222868
_cell_length_b 11.222868
_cell_length_c 24.363322
_cell_angle_alpha 90.000000
_cell_angle_beta 90.000000
_cell_angle_gamma 120.000000
_cell_volume 2657.509628
_symmetry_space_group_name_H-M "P -6 2 C"
_symmetry_group_IT_number 190
_symmetry_cell_setting 'hexagonal'
loop_
_space_group_symop_operation_xyz
x,y,z
-x+y,-x,1/2-z
-y,x-y,z
x,y,1/2-z
-x+y,-x,z
-y,x-y,1/2-z
x-y,-y,-z
-x,-x+y,-z
y,x,-z
y,x,1/2+z
x-y,-y,1/2+z
-x,-x+y,1/2+z
loop_
_atom_site_type_symbol
_atom_site_label
_atom_site_fract_x
_atom_site_fract_y
_atom_site_fract_z
Si Si1 0.000000 0.000000 0.435113
Si Si2 0.538983 0.577018 0.350391
Si Si3 0.641341 0.918790 0.638933
Si Si4 0.236135 0.485367 0.963304
Si Si5 0.135096 0.312292 0.071310
Si Si6 0.699128 0.753361 0.250000
Si Si7 0.666667 0.333334 0.814694
Si Si8 0.813529 0.982678 0.750000
O O1 0.029366 0.150167 0.419096
O O2 0.000000 0.000000 0.500000
O O3 0.495390 0.419341 0.346201
O O4 0.595449 0.671946 0.403934
O O5 0.645357 0.663386 0.302750
O O6 0.402193 0.582203 0.336083
O O7 0.584812 0.792814 0.596183
O O8 0.730628 0.923556 0.691531
O O9 0.733498 0.056633 0.602743
O O10 0.402618 0.588184 0.969357
O O11 0.176819 0.366905 0.009255
O O12 0.864002 0.875109 0.250000
O O13 0.668715 0.876937 0.250000
O O14 0.666667 0.333334 0.750000
#
# Coordination Sequence:
#
# PCOD9586972 Si02
#       8
#     4  12  12  12  12   6   4   6
#     4  12  30  48  72 106 155 196 249 306 373 452
#     4  12  25  42  79 111 148 196 250 317 384 445
#     4  12  26  47  73 112 151 195 258 316 379 463
#     4  10  26  49  78 108 152 195 255 312 386 465
#     4  12  26  47  77 112 151 200 249 314 385 457
#     4  12  26  46  72 106 150 204 254 317 375 453
#     4  12  21  42  72 111 156 180 246 313 365 439
#     4  12  28  48  72 108 154 206 264 307 391 459
#
# _framework density 25.587865000000001
#
# number of rings (size 3 to 8) (size 9 to 14) (size 15 to 20)
#    0.353    0.000    4.412    3.353    4.941    1.412 
#    0.000    0.000    0.000    0.000    0.000    0.000 
#    0.000    0.000    0.000    0.000    0.000    0.000 
#
# Total GULP energy -380095.389206 kJ/mol
# GULP energy per Si atom -5589.638077 kJ/mol
# Density = 2.552963 g / cm^3
# Si number density = 25.587865 Si / 1000 Ang^3
#
#
#
# Elastic Constant Matrix: (Units=GPa)
#
#
# Indices 1 2 3 4 5 6 
#
# 1 104.5545 27.9268 38.6729 0.0080 -0.0034 0.0003
# 2 27.9268 104.5556 38.6739 -0.0038 0.0047 0.0003
# 3 38.6729 38.6739 155.2129 0.0003 0.0009 0.0003
# 4 0.0080 -0.0038 0.0003 261.6061 0.0316 -0.0040
# 5 -0.0034 0.0047 0.0009 0.0316 261.4787 -0.0059
# 6 0.0003 0.0003 0.0003 -0.0040 -0.0059 38.3114
#
#
#
# Elastic Compliance Matrix: (Units=1/GPa)
#
#
# Indices 1 2 3 4 5 6 
#
# 1 0.010942 -0.002108 -0.002201 0.000000 0.000000 0.000000
# 2 -0.002108 0.010942 -0.002201 0.000000 0.000000 0.000000
# 3 -0.002201 -0.002201 0.007540 0.000000 0.000000 0.000000
# 4 0.000000 0.000000 0.000000 0.003823 0.000000 0.000000
# 5 0.000000 0.000000 0.000000 0.000000 0.003824 0.000001
# 6 0.000000 0.000000 0.000000 0.000000 0.000001 0.026102
#
#
# Mechanical properties :
#
#
# Convention : Reuss Voigt Hill
#
# Bulk Modulus (GPa) = 60.96729 63.87448 62.42088
# Shear Modulus (GPa) = 61.22991 129.54918 95.38954
#
# Velocity S-wave (km/s) = 4.89706 7.12314 6.11229
# Velocity P-wave (km/s) = 7.47351 9.62648 8.61749
#
# Compressibility (1/GPa) = 0.01640224
#
# Stress axis : x y z
#
# Youngs Moduli (GPa) = 91.39418 91.39469 132.63424
#
# Poissons Ratio (x) = 0.19270 0.29191
# Poissons Ratio (y) = 0.19270 0.29192
# Poissons Ratio (z) = 0.20115 0.20115
#
# Static dielectric constant tensor:
#      x y z
#    x 2.097310 0.000000 0.000000 
#    y 0.000000 2.097320 0.000000 
#    z 0.000000 0.000000 1.954600 
# 
# From -- ./inp_files/5162.got.cif
#   From: 2010.05.17/outbox.cif.g08.bks.cpg/sg190_3_cif.got.tgz:5162.got - 2010.05.20 12:16:56.
