data_PCOD9586065
_publ_section_title
;
Structure prediction by ZEFSAII (Michael W. Deem and Ramdas Pophale) SiO2 
 PCOD9586065
Probable space group: P -6 C 2
;
_chemical_formula_sum "Si O2"
_cell_formula_units_Z 58
_cell_length_a 14.429431
_cell_length_b 14.429431
_cell_length_c 13.804955
_cell_angle_alpha 90.000000
_cell_angle_beta 90.000000
_cell_angle_gamma 120.000000
_cell_volume 2489.224338
_symmetry_space_group_name_H-M "P -6 C 2"
_symmetry_group_IT_number 188
_symmetry_cell_setting 'hexagonal'
loop_
_space_group_symop_operation_xyz
x,y,z
-x+y,-x,1/2-z
-y,x-y,z
x,y,1/2-z
-x+y,-x,z
-y,x-y,1/2-z
-y,-x,-z
-x+y,y,-z
x,x-y,-z
-x+y,y,1/2+z
x,x-y,1/2+z
-y,-x,1/2+z
loop_
_atom_site_type_symbol
_atom_site_label
_atom_site_fract_x
_atom_site_fract_y
_atom_site_fract_z
Si Si1 0.468091 0.575066 0.633656
Si Si2 0.333334 0.666668 0.132885
Si Si3 0.845740 0.259643 0.630917
Si Si4 0.228283 0.928099 0.582715
Si Si5 0.505469 0.394822 0.633105
Si Si6 0.859397 0.947756 0.250000
O O1 0.467754 0.567347 0.750000
O O2 0.367530 0.583379 0.601664
O O3 0.577799 0.684096 0.611948
O O4 0.453838 0.464001 0.597401
O O5 0.333334 0.666668 0.250000
O O6 0.862119 0.259167 0.750000
O O7 0.727207 0.169342 0.602712
O O8 0.845156 0.370081 0.609427
O O9 0.942785 0.254608 0.579078
O O10 0.151891 0.848110 0.500000
O O11 0.141646 0.921667 0.660521
O O12 0.503227 0.388572 0.750000
O O13 0.928047 0.886119 0.250000
#
# Coordination Sequence:
#
# PCOD9586065 Si02
#       6
#    12   4  12  12  12   6
#     4   9  17  35  57  90 134 175 220 278 337 408
#     4   9  18  33  58  92 121 175 224 274 334 404
#     4   9  15  29  54  94 145 182 222 276 340 431
#     4  11  21  39  65  97 137 178 231 284 341 412
#     4   8  14  24  48  85 133 182 215 259 332 409
#     4  10  24  46  68  90 126 178 220 286 344 402
#
# _framework density 23.300431
#
# number of rings (size 3 to 8) (size 9 to 14) (size 15 to 20)
#    0.207    2.483    2.069    1.655    0.000    2.483 
#    3.724    1.034    0.000    0.000    0.000    0.000 
#    0.000    0.000    0.000    1.241    0.000    0.000 
#
# Total GULP energy -323598.747437 kJ/mol
# GULP energy per Si atom -5579.288749 kJ/mol
# Density = 2.324740 g / cm^3
# Si number density = 23.300431 Si / 1000 Ang^3
#
#
#
# Elastic Constant Matrix: (Units=GPa)
#
#
# Indices 1 2 3 4 5 6 
#
# 1 136.1096 67.5133 17.0332 0.0000 -0.0001 -0.0008
# 2 67.5133 136.1079 17.0322 -0.0002 0.0001 -0.0006
# 3 17.0332 17.0322 81.5488 0.0001 0.0000 -0.0005
# 4 0.0000 -0.0002 0.0001 20.3093 -0.0002 -0.0001
# 5 -0.0001 0.0001 0.0000 -0.0002 20.3099 0.0002
# 6 -0.0008 -0.0006 -0.0005 -0.0001 0.0002 34.2975
#
#
#
# Elastic Compliance Matrix: (Units=1/GPa)
#
#
# Indices 1 2 3 4 5 6 
#
# 1 0.009834 -0.004745 -0.001063 0.000000 0.000000 0.000000
# 2 -0.004745 0.009834 -0.001063 0.000000 0.000000 0.000000
# 3 -0.001063 -0.001063 0.012707 0.000000 0.000000 0.000000
# 4 0.000000 0.000000 0.000000 0.049238 0.000000 0.000000
# 5 0.000000 0.000000 0.000000 0.000000 0.049237 0.000000
# 6 0.000000 0.000000 0.000000 0.000000 0.000000 0.029157
#
#
# Mechanical properties :
#
#
# Convention : Reuss Voigt Hill
#
# Bulk Modulus (GPa) = 53.66883 61.88043 57.77463
# Shear Modulus (GPa) = 27.78429 31.79585 29.79007
#
# Velocity S-wave (km/s) = 3.45691 3.69806 3.57952
# Velocity P-wave (km/s) = 6.24637 6.69698 6.47559
#
# Compressibility (1/GPa) = 0.01863279
#
# Stress axis : x y z
#
# Youngs Moduli (GPa) = 101.69317 101.69215 78.69931
#
# Poissons Ratio (x) = 0.48250 0.08365
# Poissons Ratio (y) = 0.48250 0.08364
# Poissons Ratio (z) = 0.10810 0.10808
#
# Static dielectric constant tensor:
#      x y z
#    x 1.865890 0.000000 0.000000 
#    y 0.000000 1.865890 0.000000 
#    z 0.000000 0.000000 2.001800 
# 
# From -- ./inp_files/2299.got.cif
#   From: 2010.05.17/outbox.cif.g08.bks.cpg/sg188_2_cif.got.tgz:2299.got - 2010.05.20 12:11:46.
