data_PCOD9586922
_publ_section_title
;
Structure prediction by ZEFSAII (Michael W. Deem and Ramdas Pophale) SiO2 
 PCOD9586922
Probable space group: P -6 2 C
;
_chemical_formula_sum "Si O2"
_cell_formula_units_Z 76
_cell_length_a 17.625242
_cell_length_b 17.625242
_cell_length_c 13.815661
_cell_angle_alpha 90.000000
_cell_angle_beta 90.000000
_cell_angle_gamma 120.000000
_cell_volume 3716.828113
_symmetry_space_group_name_H-M "P -6 2 C"
_symmetry_group_IT_number 190
_symmetry_cell_setting 'hexagonal'
loop_
_space_group_symop_operation_xyz
x,y,z
-x+y,-x,1/2-z
-y,x-y,z
x,y,1/2-z
-x+y,-x,z
-y,x-y,1/2-z
x-y,-y,-z
-x,-x+y,-z
y,x,-z
y,x,1/2+z
x-y,-y,1/2+z
-x,-x+y,1/2+z
loop_
_atom_site_type_symbol
_atom_site_label
_atom_site_fract_x
_atom_site_fract_y
_atom_site_fract_z
Si Si1 0.176274 0.427852 0.863335
Si Si2 0.480645 0.652025 0.040650
Si Si3 0.095484 0.756356 0.018008
Si Si4 0.806947 0.872098 0.409150
Si Si5 0.034017 0.347357 0.145466
Si Si6 0.000000 0.000000 0.117137
Si Si7 0.321514 0.507978 0.137178
O O1 0.203611 0.442935 0.750000
O O2 0.215247 0.376474 0.925532
O O3 0.070423 0.371122 0.863853
O O4 0.197132 0.511540 0.930491
O O5 0.577052 0.669059 0.069469
O O6 0.406007 0.555445 0.067877
O O7 0.459010 0.713412 0.108214
O O8 0.083372 0.836871 0.051170
O O9 0.139401 0.732401 0.105369
O O10 0.000000 0.675395 0.000000
O O11 0.835034 0.835034 0.500000
O O12 0.732521 0.785769 0.357185
O O13 0.897810 0.938892 0.357101
O O14 0.060303 0.392154 0.250000
O O15 0.000000 0.000000 0.000000
O O16 0.343629 0.519727 0.250000
#
# Coordination Sequence:
#
# PCOD9586922 Si02
#       7
#    12  12  12  12  12   4  12
#     4  10  22  40  64  91 120 168 217 261 314 383
#     4  11  22  41  63  91 124 157 205 267 331 391
#     4  11  23  37  60  91 129 170 209 262 322 381
#     4  11  18  36  57  86 126 174 227 264 318 373
#     4  11  20  35  63  90 119 161 215 269 319 385
#     4   9  21  30  58  86 124 183 225 268 316 365
#     4  11  23  39  63  92 121 155 201 259 328 392
#
# _framework density 20.447541000000001
#
# number of rings (size 3 to 8) (size 9 to 14) (size 15 to 20)
#    0.000    1.263    4.737    3.632    0.000    1.895 
#    0.000    3.947    0.000    0.000    0.000    0.000 
#    0.000    0.000    0.000    0.000    0.000    0.000 
#
# Total GULP energy -423943.696423 kJ/mol
# GULP energy per Si atom -5578.206532 kJ/mol
# Density = 2.040100 g / cm^3
# Si number density = 20.447541 Si / 1000 Ang^3
#
#
#
# Elastic Constant Matrix: (Units=GPa)
#
#
# Indices 1 2 3 4 5 6 
#
# 1 70.3174 41.2284 25.4791 0.0000 0.0000 0.0000
# 2 41.2284 70.3174 25.4791 0.0000 0.0000 0.0000
# 3 25.4791 25.4791 139.5414 0.0000 0.0000 0.0000
# 4 0.0000 0.0000 0.0000 -7.6567 0.0000 0.0000
# 5 0.0000 0.0000 0.0000 0.0000 -7.6567 0.0000
# 6 0.0000 0.0000 0.0000 0.0000 0.0000 14.5445
#
#
#
# Elastic Compliance Matrix: (Units=1/GPa)
#
#
# Indices 1 2 3 4 5 6 
#
# 1 0.022079 -0.012298 -0.001786 0.000000 0.000000 0.000000
# 2 -0.012298 0.022079 -0.001786 0.000000 0.000000 0.000000
# 3 -0.001786 -0.001786 0.007819 0.000000 0.000000 0.000000
# 4 0.000000 0.000000 0.000000 -0.130605 0.000000 0.000000
# 5 0.000000 0.000000 0.000000 0.000000 -0.130605 0.000000
# 6 0.000000 0.000000 0.000000 0.000000 0.000000 0.068755
#
#
# Mechanical properties :
#
#
# Convention : Reuss Voigt Hill
#
# Bulk Modulus (GPa) = 49.41561 51.61661 50.51611
# Shear Modulus (GPa) = -49.02280 12.37886 -18.32197
#
# Velocity S-wave (km/s) = -4.90173 2.46315 -2.99665
# Velocity P-wave (km/s) = 2.79579 5.77821 3.57570
#
# Compressibility (1/GPa) = 0.02023652
#
# Stress axis : x y z
#
# Youngs Moduli (GPa) = 45.29178 45.29178 127.90161
#
# Poissons Ratio (x) = 0.55701 0.22842
# Poissons Ratio (y) = 0.55701 0.22842
# Poissons Ratio (z) = 0.08089 0.08089
#
# Static dielectric constant tensor:
#      x y z
#    x 1.748160 0.000000 0.000000 
#    y 0.000000 1.748160 0.000000 
#    z 0.000000 0.000000 1.280770 
# 
# From -- ./inp_files/3111.got.cif
#   From: 2010.05.17/outbox.cif.g08.bks.cpg/sg190_2_cif.got.tgz:3111.got - 2010.05.20 12:16:56.
