data_PCOD9586581
_publ_section_title
;
Structure prediction by ZEFSAII (Michael W. Deem and Ramdas Pophale) SiO2 
 PCOD9586581
Probable space group: P -6 2 M
;
_chemical_formula_sum "Si O2"
_cell_formula_units_Z 60
_cell_length_a 15.811844
_cell_length_b 15.811844
_cell_length_c 14.207229
_cell_angle_alpha 90.000000
_cell_angle_beta 90.000000
_cell_angle_gamma 120.000000
_cell_volume 3076.132614
_symmetry_space_group_name_H-M "P -6 2 M"
_symmetry_group_IT_number 189
_symmetry_cell_setting 'hexagonal'
loop_
_space_group_symop_operation_xyz
x,y,z
-x+y,-x,-z
-y,x-y,z
x,y,-z
-x+y,-x,z
-y,x-y,-z
x-y,-y,-z
-x,-x+y,-z
y,x,-z
y,x,z
x-y,-y,z
-x,-x+y,z
loop_
_atom_site_type_symbol
_atom_site_label
_atom_site_fract_x
_atom_site_fract_y
_atom_site_fract_z
Si Si1 0.469198 0.583630 0.771292
Si Si2 0.113406 0.224784 0.385021
Si Si3 0.895588 0.251320 0.112592
Si Si4 0.298200 0.880594 0.392072
Si Si5 0.116739 0.684964 0.891340
O O1 0.507436 0.507436 0.751030
O O2 0.544695 0.659514 0.847190
O O3 0.490987 0.646694 0.677011
O O4 0.364646 0.522041 0.819456
O O5 0.114027 0.225392 0.500000
O O6 0.181663 0.181663 0.353554
O O7 0.145743 0.335960 0.358314
O O8 0.000000 0.154414 0.357604
O O9 0.796393 0.153954 0.135545
O O10 0.000000 0.269670 0.148290
O O11 0.900408 0.256959 0.000000
O O12 0.294471 0.850169 0.500000
O O13 0.358412 0.000000 0.390481
O O14 0.000000 0.622761 0.890286
O O15 0.147194 0.682338 0.000000
#
# Coordination Sequence:
#
# PCOD9586581 Si02
#       5
#    12  12  12  12  12
#     4   9  16  28  47  69  96 129 163 200 246 300
#     4   8  12  18  30  51  82 121 167 221 278 328
#     4   9  17  30  49  73 101 131 162 200 251 308
#     4   8  14  24  39  61  89 125 171 217 259 305
#     4   9  17  30  49  73 101 131 164 206 255 306
#
# _framework density 19.505009999999999
#
# number of rings (size 3 to 8) (size 9 to 14) (size 15 to 20)
#    0.000    3.400    0.000    2.000    0.000    3.200 
#    1.200    1.000    0.000    1.600    0.000    2.800 
#    0.000    0.000    0.000    0.000    0.000    0.400 
#
# Total GULP energy -334034.450367 kJ/mol
# GULP energy per Si atom -5567.240839 kJ/mol
# Density = 1.946062 g / cm^3
# Si number density = 19.505010 Si / 1000 Ang^3
#
#
#
# Elastic Constant Matrix: (Units=GPa)
#
#
# Indices 1 2 3 4 5 6 
#
# 1 63.4310 29.1187 42.5906 0.0000 0.0000 0.0000
# 2 29.1187 63.4310 42.5906 0.0000 0.0000 0.0000
# 3 42.5906 42.5906 76.8499 0.0000 0.0000 0.0000
# 4 0.0000 0.0000 0.0000 13.1895 0.0000 0.0000
# 5 0.0000 0.0000 0.0000 0.0000 13.1895 0.0000
# 6 0.0000 0.0000 0.0000 0.0000 0.0000 17.1561
#
#
#
# Elastic Compliance Matrix: (Units=1/GPa)
#
#
# Indices 1 2 3 4 5 6 
#
# 1 0.025599 -0.003545 -0.012223 0.000000 0.000000 0.000000
# 2 -0.003545 0.025599 -0.012223 0.000000 0.000000 0.000000
# 3 -0.012223 -0.012223 0.026560 0.000000 0.000000 0.000000
# 4 0.000000 0.000000 0.000000 0.075818 0.000000 0.000000
# 5 0.000000 0.000000 0.000000 0.000000 0.075818 0.000000
# 6 0.000000 0.000000 0.000000 0.000000 0.000000 0.058288
#
#
# Mechanical properties :
#
#
# Convention : Reuss Voigt Hill
#
# Bulk Modulus (GPa) = 45.91711 48.03462 46.97587
# Shear Modulus (GPa) = 14.24811 14.66780 14.45796
#
# Velocity S-wave (km/s) = 2.70568 2.74524 2.72553
# Velocity P-wave (km/s) = 5.77523 5.89311 5.83447
#
# Compressibility (1/GPa) = 0.02177837
#
# Stress axis : x y z
#
# Youngs Moduli (GPa) = 39.06343 39.06343 37.65019
#
# Poissons Ratio (x) = 0.13847 0.46019
# Poissons Ratio (y) = 0.13847 0.46019
# Poissons Ratio (z) = 0.47747 0.47747
#
# Static dielectric constant tensor:
#      x y z
#    x 1.692950 0.000000 0.000000 
#    y 0.000000 1.692950 0.000000 
#    z 0.000000 0.000000 1.727760 
# 
# From -- ./inp_files/2528.got.cif
#   From: 2010.05.17/outbox.cif.g08.bks.cpg/sg189_2_cif.got.tgz:2528.got - 2010.05.20 12:14:34.
