data_PCOD9586694
_publ_section_title
;
Structure prediction by ZEFSAII (Michael W. Deem and Ramdas Pophale) SiO2 
 PCOD9586694
Probable space group: P -6 2 C
;
_chemical_formula_sum "Si O2"
_cell_formula_units_Z 72
_cell_length_a 24.374305
_cell_length_b 24.374305
_cell_length_c 8.661882
_cell_angle_alpha 90.000000
_cell_angle_beta 90.000000
_cell_angle_gamma 120.000000
_cell_volume 4456.638187
_symmetry_space_group_name_H-M "P -6 2 C"
_symmetry_group_IT_number 190
_symmetry_cell_setting 'hexagonal'
loop_
_space_group_symop_operation_xyz
x,y,z
-x+y,-x,1/2-z
-y,x-y,z
x,y,1/2-z
-x+y,-x,z
-y,x-y,1/2-z
x-y,-y,-z
-x,-x+y,-z
y,x,-z
y,x,1/2+z
x-y,-y,1/2+z
-x,-x+y,1/2+z
loop_
_atom_site_type_symbol
_atom_site_label
_atom_site_fract_x
_atom_site_fract_y
_atom_site_fract_z
Si Si1 0.070769 0.140368 0.065096
Si Si2 0.929844 0.189233 0.435838
Si Si3 0.526398 0.262497 0.566397
Si Si4 0.930814 0.405403 0.435141
Si Si5 0.853749 0.259360 0.063754
Si Si6 0.599026 0.194008 0.435421
O O1 0.069106 0.138207 0.250000
O O2 0.116668 0.116668 0.000000
O O3 0.088876 0.210089 0.006322
O O4 0.000000 0.094450 0.000000
O O5 0.933291 0.186542 0.250000
O O6 0.882245 0.214580 0.476425
O O7 0.000000 0.237146 0.500000
O O8 0.531126 0.260905 0.750000
O O9 0.455383 0.212590 0.511961
O O10 0.571504 0.238742 0.490618
O O11 0.550190 0.333178 0.509159
O O12 0.934138 0.407218 0.250000
O O13 0.903482 0.332051 0.482064
O O14 0.877052 0.422323 0.480995
O O15 0.000000 0.450135 0.500000
O O16 0.846638 0.258644 0.250000
O O17 0.604105 0.197224 0.250000
#
# Coordination Sequence:
#
# PCOD9586694 Si02
#       6
#    12  12  12  12  12  12
#     4  11  21  34  51  73 101 131 165 203 248 296
#     4  10  19  32  51  75 102 132 166 202 243 292
#     4  11  21  32  50  76 100 125 164 208 244 282
#     4   9  18  31  49  72  97 128 161 194 235 282
#     4   9  19  34  50  71 101 135 164 192 239 296
#     4  10  20  35  51  69  99 135 163 193 244 300
#
# _framework density 16.155676
#
# number of rings (size 3 to 8) (size 9 to 14) (size 15 to 20)
#    0.000    2.000    0.000    7.000    0.000    4.667 
#    0.000    0.000    0.000    1.000    0.000    4.667 
#    0.000    0.000    0.000    0.000    0.000    0.000 
#
# Total GULP energy -401918.151676 kJ/mol
# GULP energy per Si atom -5582.196551 kJ/mol
# Density = 1.611890 g / cm^3
# Si number density = 16.155676 Si / 1000 Ang^3
#
#
#
# Elastic Constant Matrix: (Units=GPa)
#
#
# Indices 1 2 3 4 5 6 
#
# 1 122.3741 80.0568 38.4353 0.0000 0.0000 0.0000
# 2 80.0568 122.3741 38.4353 0.0000 0.0000 0.0000
# 3 38.4353 38.4353 65.0940 0.0000 0.0000 0.0000
# 4 0.0000 0.0000 0.0000 24.8676 0.0000 0.0000
# 5 0.0000 0.0000 0.0000 0.0000 24.8676 0.0000
# 6 0.0000 0.0000 0.0000 0.0000 0.0000 21.1587
#
#
#
# Elastic Compliance Matrix: (Units=1/GPa)
#
#
# Indices 1 2 3 4 5 6 
#
# 1 0.014999 -0.008632 -0.003760 0.000000 0.000000 0.000000
# 2 -0.008632 0.014999 -0.003760 0.000000 0.000000 0.000000
# 3 -0.003760 -0.003760 0.019803 0.000000 0.000000 0.000000
# 4 0.000000 0.000000 0.000000 0.040213 0.000000 0.000000
# 5 0.000000 0.000000 0.000000 0.000000 0.040213 0.000000
# 6 0.000000 0.000000 0.000000 0.000000 0.000000 0.047262
#
#
# Mechanical properties :
#
#
# Convention : Reuss Voigt Hill
#
# Bulk Modulus (GPa) = 57.14793 69.29967 63.22380
# Shear Modulus (GPa) = 23.18842 24.37308 23.78075
#
# Velocity S-wave (km/s) = 3.79266 3.88833 3.84079
# Velocity P-wave (km/s) = 7.39115 7.94650 7.67385
#
# Compressibility (1/GPa) = 0.01749845
#
# Stress axis : x y z
#
# Youngs Moduli (GPa) = 66.66952 66.66952 50.49866
#
# Poissons Ratio (x) = 0.57547 0.18987
# Poissons Ratio (y) = 0.57547 0.18987
# Poissons Ratio (z) = 0.25067 0.25067
#
# Static dielectric constant tensor:
#      x y z
#    x 1.526760 0.000000 0.000000 
#    y 0.000000 1.526760 0.000000 
#    z 0.000000 0.000000 1.542360 
# 
# From -- ./inp_files/1245.got.cif
#   From: 2010.05.17/outbox.cif.g08.bks.cpg/sg190_1_cif.got.tgz:1245.got - 2010.05.20 12:16:56.
