data_PCOD9586563
_publ_section_title
;
Structure prediction by ZEFSAII (Michael W. Deem and Ramdas Pophale) SiO2 
 PCOD9586563
Probable space group: P -6 2 M
;
_chemical_formula_sum "Si O2"
_cell_formula_units_Z 60
_cell_length_a 20.410890
_cell_length_b 20.410890
_cell_length_c 7.830746
_cell_angle_alpha 90.000000
_cell_angle_beta 90.000000
_cell_angle_gamma 120.000000
_cell_volume 2825.255008
_symmetry_space_group_name_H-M "P -6 2 M"
_symmetry_group_IT_number 189
_symmetry_cell_setting 'hexagonal'
loop_
_space_group_symop_operation_xyz
x,y,z
-x+y,-x,-z
-y,x-y,z
x,y,-z
-x+y,-x,z
-y,x-y,-z
x-y,-y,-z
-x,-x+y,-z
y,x,-z
y,x,z
x-y,-y,z
-x,-x+y,z
loop_
_atom_site_type_symbol
_atom_site_label
_atom_site_fract_x
_atom_site_fract_y
_atom_site_fract_z
Si Si1 0.756100 0.000000 0.789989
Si Si2 0.489797 0.713865 0.198326
Si Si3 0.397020 0.397020 0.795875
Si Si4 0.613744 0.159501 0.305983
Si Si5 0.079203 0.368339 0.205497
Si Si6 0.918476 0.132866 0.795333
O O1 0.679658 0.000000 0.734195
O O2 0.836283 0.070380 0.732614
O O3 0.753431 0.000000 0.000000
O O4 0.471947 0.772172 0.291986
O O5 0.431445 0.624268 0.203282
O O6 0.564740 0.719802 0.276220
O O7 0.501501 0.738891 0.000000
O O8 0.473460 0.395099 0.745508
O O9 0.394711 0.394711 0.000000
O O10 0.587214 0.151279 0.500000
O O11 0.078793 0.290753 0.228678
O O12 0.000000 0.356804 0.271550
O O13 0.080549 0.381021 0.000000
O O14 0.000000 0.146911 0.729776
O O15 0.918281 0.119799 0.000000
#
# Coordination Sequence:
#
# PCOD9586563 Si02
#       6
#     6  12   6  12  12  12
#     4   9  16  27  47  75 109 152 199 250 299 355
#     4  11  22  39  64  89 115 155 209 254 299 372
#     4  11  23  41  65  91 119 162 225 278 319 387
#     4  12  26  43  61  89 130 168 203 259 334 395
#     4   8  15  28  50  79 106 135 179 241 294 334
#     4   8  13  23  39  66 106 145 181 225 288 350
#
# _framework density 21.237023000000001
#
# number of rings (size 3 to 8) (size 9 to 14) (size 15 to 20)
#    0.000    2.200    0.000    5.500    1.400    3.200 
#    0.600    0.000    0.000    0.000    0.000    0.000 
#    0.000    2.400    0.000    0.000    0.000    0.000 
#
# Total GULP energy -334267.543532 kJ/mol
# GULP energy per Si atom -5571.125726 kJ/mol
# Density = 2.118869 g / cm^3
# Si number density = 21.237023 Si / 1000 Ang^3
#
#
#
# Elastic Constant Matrix: (Units=GPa)
#
#
# Indices 1 2 3 4 5 6 
#
# 1 37.8089 64.2065 -0.0722 0.0000 0.0000 0.0000
# 2 64.2065 37.8089 -0.0722 0.0000 0.0000 0.0000
# 3 -0.0722 -0.0722 44.1986 0.0000 0.0000 0.0000
# 4 0.0000 0.0000 0.0000 11.9028 0.0000 0.0000
# 5 0.0000 0.0000 0.0000 0.0000 11.9028 0.0000
# 6 0.0000 0.0000 0.0000 0.0000 0.0000 -13.1988
#
#
#
# Elastic Compliance Matrix: (Units=1/GPa)
#
#
# Indices 1 2 3 4 5 6 
#
# 1 -0.014040 0.023842 0.000016 0.000000 0.000000 0.000000
# 2 0.023842 -0.014040 0.000016 0.000000 0.000000 0.000000
# 3 0.000016 0.000016 0.022625 0.000000 0.000000 0.000000
# 4 0.000000 0.000000 0.000000 0.084014 0.000000 0.000000
# 5 0.000000 0.000000 0.000000 0.000000 0.084014 0.000000
# 6 0.000000 0.000000 0.000000 0.000000 0.000000 -0.075765
#
#
# Mechanical properties :
#
#
# Convention : Reuss Voigt Hill
#
# Bulk Modulus (GPa) = 23.64391 27.54895 25.59643
# Shear Modulus (GPa) = 94.05987 5.83833 49.94910
#
# Velocity S-wave (km/s) = 6.66233 1.65985 4.85499
# Velocity P-wave (km/s) = 8.38688 4.08335 6.59596
#
# Compressibility (1/GPa) = 0.04229420
#
# Stress axis : x y z
#
# Youngs Moduli (GPa) = -71.22548 -71.22548 44.19851
#
# Poissons Ratio (x) = 1.69819 -0.00071
# Poissons Ratio (y) = 1.69819 -0.00071
# Poissons Ratio (z) = 0.00114 0.00114
#
# Static dielectric constant tensor:
#      x y z
#    x 1.987280 0.000000 0.000000 
#    y 0.000000 1.987280 0.000000 
#    z 0.000000 0.000000 1.781510 
# 
# From -- ./inp_files/898.got.cif
#   From: 2010.05.17/outbox.cif.g08.bks.cpg/sg189_1_cif.got.tgz:898.got - 2010.05.20 12:14:34.
