data_PCOD9586327
_publ_section_title
;
Structure prediction by ZEFSAII (Michael W. Deem and Ramdas Pophale) SiO2 
 PCOD9586327
Probable space group: P -6 2 M
;
_chemical_formula_sum "Si O2"
_cell_formula_units_Z 36
_cell_length_a 14.849112
_cell_length_b 14.849112
_cell_length_c 11.796489
_cell_angle_alpha 90.000000
_cell_angle_beta 90.000000
_cell_angle_gamma 120.000000
_cell_volume 2252.601478
_symmetry_space_group_name_H-M "P -6 2 M"
_symmetry_group_IT_number 189
_symmetry_cell_setting 'hexagonal'
loop_
_space_group_symop_operation_xyz
x,y,z
-x+y,-x,-z
-y,x-y,z
x,y,-z
-x+y,-x,z
-y,x-y,-z
x-y,-y,-z
-x,-x+y,-z
y,x,-z
y,x,z
x-y,-y,z
-x,-x+y,z
loop_
_atom_site_type_symbol
_atom_site_label
_atom_site_fract_x
_atom_site_fract_y
_atom_site_fract_z
Si Si1 0.875518 0.125459 0.500000
Si Si2 0.537937 0.422475 0.749787
Si Si3 0.250878 0.795583 0.628316
Si Si4 0.802630 0.411547 0.000000
O O1 0.841805 0.173921 0.394557
O O2 0.000000 0.174287 0.500000
O O3 0.812854 0.000000 0.500000
O O4 0.447901 0.447901 0.724590
O O5 0.508870 0.313584 0.692773
O O6 0.644532 0.512644 0.696065
O O7 0.552060 0.417220 0.884081
O O8 0.279619 0.781383 0.500000
O O9 0.714128 0.445223 0.000000
#
# Coordination Sequence:
#
# PCOD9586327 Si02
#       4
#     6  12  12   6
#     4  10  21  36  52  74 104 138 177 216 260 302
#     4  12  21  36  58  78 108 143 176 216 265 310
#     4  10  22  34  53  81 109 139 173 213 253 323
#     4  10  19  38  54  74 106 146 174 220 261 310
#
# _framework density 15.981522
#
# number of rings (size 3 to 8) (size 9 to 14) (size 15 to 20)
#    1.333    0.000    3.333    4.333    0.000    1.333 
#    0.000    0.000    0.000    0.000    0.000    0.000 
#    0.000    0.000    0.000   14.333    0.000    0.000 
#
# Total GULP energy -200478.693954 kJ/mol
# GULP energy per Si atom -5568.852610 kJ/mol
# Density = 1.594515 g / cm^3
# Si number density = 15.981522 Si / 1000 Ang^3
#
#
#
# Elastic Constant Matrix: (Units=GPa)
#
#
# Indices 1 2 3 4 5 6 
#
# 1 63.1596 11.0260 13.6054 0.0000 0.0000 0.0000
# 2 11.0260 63.1596 13.6054 0.0000 0.0000 0.0000
# 3 13.6054 13.6054 95.9693 0.0000 0.0000 0.0000
# 4 0.0000 0.0000 0.0000 10.2114 0.0000 0.0000
# 5 0.0000 0.0000 0.0000 0.0000 10.2114 0.0000
# 6 0.0000 0.0000 0.0000 0.0000 0.0000 26.0668
#
#
#
# Elastic Compliance Matrix: (Units=1/GPa)
#
#
# Indices 1 2 3 4 5 6 
#
# 1 0.016700 -0.002481 -0.002016 0.000000 0.000000 0.000000
# 2 -0.002481 0.016700 -0.002016 0.000000 0.000000 0.000000
# 3 -0.002016 -0.002016 0.010992 0.000000 0.000000 0.000000
# 4 0.000000 0.000000 0.000000 0.097930 0.000000 0.000000
# 5 0.000000 0.000000 0.000000 0.000000 0.097930 0.000000
# 6 0.000000 0.000000 0.000000 0.000000 0.000000 0.038363
#
#
# Mechanical properties :
#
#
# Convention : Reuss Voigt Hill
#
# Bulk Modulus (GPa) = 31.88116 33.19579 32.53848
# Shear Modulus (GPa) = 16.55101 21.56801 19.05951
#
# Velocity S-wave (km/s) = 3.22162 3.67762 3.45715
# Velocity P-wave (km/s) = 5.81640 6.23295 6.02827
#
# Compressibility (1/GPa) = 0.03136648
#
# Stress axis : x y z
#
# Youngs Moduli (GPa) = 59.87917 59.87917 90.97889
#
# Poissons Ratio (x) = 0.14857 0.18340
# Poissons Ratio (y) = 0.14857 0.18340
# Poissons Ratio (z) = 0.12071 0.12071
#
# Static dielectric constant tensor:
#      x y z
#    x 1.518690 0.000000 0.000000 
#    y 0.000000 1.518690 0.000000 
#    z 0.000000 0.000000 1.518840 
# 
# From -- ./inp_files/1583.got.cif
#   From: 2010.05.17/outbox.cif.g08.bks.cpg/sg189_1_cif.got.tgz:1583.got - 2010.05.20 12:14:34.
