data_PCOD9586975
_publ_section_title
;
Structure prediction by ZEFSAII (Michael W. Deem and Ramdas Pophale) SiO2 
 PCOD9586975
Probable space group: P -6 2 C
;
_chemical_formula_sum "Si O2"
_cell_formula_units_Z 84
_cell_length_a 17.304033
_cell_length_b 17.304033
_cell_length_c 14.682364
_cell_angle_alpha 90.000000
_cell_angle_beta 90.000000
_cell_angle_gamma 120.000000
_cell_volume 3807.336723
_symmetry_space_group_name_H-M "P -6 2 C"
_symmetry_group_IT_number 190
_symmetry_cell_setting 'hexagonal'
loop_
_space_group_symop_operation_xyz
x,y,z
-x+y,-x,1/2-z
-y,x-y,z
x,y,1/2-z
-x+y,-x,z
-y,x-y,1/2-z
x-y,-y,-z
-x,-x+y,-z
y,x,-z
y,x,1/2+z
x-y,-y,1/2+z
-x,-x+y,1/2+z
loop_
_atom_site_type_symbol
_atom_site_label
_atom_site_fract_x
_atom_site_fract_y
_atom_site_fract_z
Si Si1 0.689655 0.807177 0.144902
Si Si2 0.721793 0.797962 0.646089
Si Si3 0.789732 0.995198 0.893641
Si Si4 0.592871 0.964310 0.857892
Si Si5 0.756280 0.234429 0.357437
Si Si6 0.407734 0.546485 0.140225
Si Si7 0.778486 0.270588 0.946402
O O1 0.653516 0.785415 0.250000
O O2 0.730885 0.749515 0.102772
O O3 0.612812 0.796778 0.075265
O O4 0.769266 0.909665 0.146947
O O5 0.731793 0.779536 0.750000
O O6 0.784582 0.903573 0.634184
O O7 0.621099 0.778187 0.636885
O O8 0.693113 0.984771 0.873742
O O9 0.803083 0.000000 0.000000
O O10 0.580649 0.965186 0.750000
O O11 0.530073 0.860829 0.882482
O O12 0.582261 0.045396 0.894548
O O13 0.750117 0.257588 0.250000
O O14 0.769929 0.291950 0.447888
O O15 0.403443 0.544135 0.250000
O O16 0.486583 0.639636 0.105115
O O17 0.317784 0.539302 0.100860
#
# Coordination Sequence:
#
# PCOD9586975 Si02
#       7
#    12  12  12  12  12  12  12
#     4  11  21  37  62  90 124 168 216 262 324 397
#     4   9  20  37  58  85 123 164 207 265 324 379
#     4  11  20  32  57  89 120 165 214 261 311 388
#     4   9  18  35  60  88 121 163 212 259 310 379
#     4   9  20  41  65  90 124 168 217 264 317 381
#     4  11  23  39  61  96 135 167 208 270 336 400
#     4  12  24  40  66  95 128 171 213 266 339 401
#
# _framework density 22.062664999999999
#
# number of rings (size 3 to 8) (size 9 to 14) (size 15 to 20)
#    0.000    1.714    1.429    5.429    0.000    2.286 
#    0.857    3.571    0.000    3.429    0.000    2.000 
#    0.000    0.000    0.000    0.000    0.000    0.000 
#
# Total GULP energy -468350.383356 kJ/mol
# GULP energy per Si atom -5575.599802 kJ/mol
# Density = 2.201245 g / cm^3
# Si number density = 22.062665 Si / 1000 Ang^3
#
#
#
# Elastic Constant Matrix: (Units=GPa)
#
#
# Indices 1 2 3 4 5 6 
#
# 1 41.2666 -5.5948 4.8006 0.0000 0.0000 0.0000
# 2 -5.5948 41.2666 4.8006 0.0000 0.0000 0.0000
# 3 4.8006 4.8006 126.5260 0.0000 0.0000 0.0000
# 4 0.0000 0.0000 0.0000 -15.4089 0.0000 0.0000
# 5 0.0000 0.0000 0.0000 0.0000 -15.4089 0.0000
# 6 0.0000 0.0000 0.0000 0.0000 0.0000 23.4307
#
#
#
# Elastic Compliance Matrix: (Units=1/GPa)
#
#
# Indices 1 2 3 4 5 6 
#
# 1 0.024831 0.003492 -0.001075 0.000000 0.000000 0.000000
# 2 0.003492 0.024831 -0.001075 0.000000 0.000000 0.000000
# 3 -0.001075 -0.001075 0.007985 0.000000 0.000000 0.000000
# 4 0.000000 0.000000 0.000000 -0.064898 0.000000 0.000000
# 5 0.000000 0.000000 0.000000 0.000000 -0.064898 0.000000
# 6 0.000000 0.000000 0.000000 0.000000 0.000000 0.042679
#
#
# Mechanical properties :
#
#
# Convention : Reuss Voigt Hill
#
# Bulk Modulus (GPa) = 16.57502 24.11910 20.34706
# Shear Modulus (GPa) = -415.17437 12.19278 -201.49079
#
# Velocity S-wave (km/s) = -13.73274 2.35339 -9.56686
# Velocity P-wave (km/s) = 15.61800 4.28257 10.62030
#
# Compressibility (1/GPa) = 0.06033174
#
# Stress axis : x y z
#
# Youngs Moduli (GPa) = 40.27221 40.27221 125.23388
#
# Poissons Ratio (x) = -0.14061 0.13458
# Poissons Ratio (y) = -0.14061 0.13458
# Poissons Ratio (z) = 0.04328 0.04328
#
# Static dielectric constant tensor:
#      x y z
#    x 1.846280 0.000000 0.000000 
#    y 0.000000 1.846280 0.000000 
#    z 0.000000 0.000000 1.868920 
# 
# From -- ./inp_files/3177.got.cif
#   From: 2010.05.17/outbox.cif.g08.bks.cpg/sg190_2_cif.got.tgz:3177.got - 2010.05.20 12:16:56.
