data_PCOD9586216
_publ_section_title
;
Structure prediction by ZEFSAII (Michael W. Deem and Ramdas Pophale) SiO2 
 PCOD9586216
Probable space group: P -6 2 M
;
_chemical_formula_sum "Si O2"
_cell_formula_units_Z 72
_cell_length_a 24.549409
_cell_length_b 24.549409
_cell_length_c 8.649277
_cell_angle_alpha 90.000000
_cell_angle_beta 90.000000
_cell_angle_gamma 120.000000
_cell_volume 4514.321866
_symmetry_space_group_name_H-M "P -6 2 M"
_symmetry_group_IT_number 189
_symmetry_cell_setting 'hexagonal'
loop_
_space_group_symop_operation_xyz
x,y,z
-x+y,-x,-z
-y,x-y,z
x,y,-z
-x+y,-x,z
-y,x-y,-z
x-y,-y,-z
-x,-x+y,-z
y,x,-z
y,x,z
x-y,-y,z
-x,-x+y,z
loop_
_atom_site_type_symbol
_atom_site_label
_atom_site_fract_x
_atom_site_fract_y
_atom_site_fract_z
Si Si1 0.403823 0.140051 0.814460
Si Si2 0.191697 0.927979 0.314669
Si Si3 0.811929 0.071783 0.186977
Si Si4 0.858634 0.594873 0.812206
Si Si5 0.524816 0.597881 0.684937
Si Si6 0.479874 0.406362 0.186499
O O1 0.333237 0.095616 0.752247
O O2 0.422563 0.210950 0.765664
O O3 0.449217 0.116042 0.752823
O O4 0.402190 0.137779 0.000000
O O5 0.192640 0.924839 0.500000
O O6 0.122330 0.879188 0.253875
O O7 0.217456 0.000000 0.268529
O O8 0.763511 0.095814 0.232918
O O9 0.785016 0.000000 0.235393
O O10 0.815625 0.074491 0.000000
O O11 0.884510 0.549814 0.758534
O O12 0.859639 0.593745 0.000000
O O13 0.525463 0.600763 0.500000
O O14 0.570389 0.570389 0.733275
O O15 0.455678 0.546910 0.742978
O O16 0.432622 0.432622 0.224169
O O17 0.485712 0.407763 0.000000
#
# Coordination Sequence:
#
# PCOD9586216 Si02
#       6
#    12  12  12  12  12  12
#     4  10  19  31  49  71  93 120 156 194 231 273
#     4  10  20  32  46  67  96 127 156 189 232 279
#     4   9  17  30  49  72  96 122 153 190 231 275
#     4   8  15  28  47  71  95 117 145 185 228 268
#     4  10  20  32  45  65  95 125 152 187 230 272
#     4   9  16  28  48  70  91 118 150 181 218 269
#
# _framework density 15.949239
#
# number of rings (size 3 to 8) (size 9 to 14) (size 15 to 20)
#    0.000    2.667    0.000    3.500    0.000    6.667 
#    0.000    4.167    0.000    5.000    0.000    2.333 
#    0.000    0.000    0.000    0.000    0.000    0.000 
#
# Total GULP energy -401406.295517 kJ/mol
# GULP energy per Si atom -5575.087438 kJ/mol
# Density = 1.591294 g / cm^3
# Si number density = 15.949239 Si / 1000 Ang^3
#
#
#
# Elastic Constant Matrix: (Units=GPa)
#
#
# Indices 1 2 3 4 5 6 
#
# 1 147.2964 98.8850 35.3328 0.0000 0.0000 0.0000
# 2 98.8850 147.2964 35.3328 0.0000 0.0000 0.0000
# 3 35.3328 35.3328 25.7760 0.0000 0.0000 0.0000
# 4 0.0000 0.0000 0.0000 3.0370 0.0000 0.0000
# 5 0.0000 0.0000 0.0000 0.0000 3.0370 0.0000
# 6 0.0000 0.0000 0.0000 0.0000 0.0000 24.2057
#
#
#
# Elastic Compliance Matrix: (Units=1/GPa)
#
#
# Indices 1 2 3 4 5 6 
#
# 1 0.013677 -0.006980 -0.009180 0.000000 0.000000 0.000000
# 2 -0.006980 0.013677 -0.009180 0.000000 0.000000 0.000000
# 3 -0.009180 -0.009180 0.063964 0.000000 0.000000 0.000000
# 4 0.000000 0.000000 0.000000 0.329273 0.000000 0.000000
# 5 0.000000 0.000000 0.000000 0.000000 0.329273 0.000000
# 6 0.000000 0.000000 0.000000 0.000000 0.000000 0.041313
#
#
# Mechanical properties :
#
#
# Convention : Reuss Voigt Hill
#
# Bulk Modulus (GPa) = 24.60806 73.27447 48.94126
# Shear Modulus (GPa) = 5.84520 16.11048 10.97784
#
# Velocity S-wave (km/s) = 1.91646 3.18167 2.62639
# Velocity P-wave (km/s) = 4.51216 7.71618 6.32056
#
# Compressibility (1/GPa) = 0.04063710
#
# Stress axis : x y z
#
# Youngs Moduli (GPa) = 73.11670 73.11670 15.63380
#
# Poissons Ratio (x) = 0.51032 0.14352
# Poissons Ratio (y) = 0.51032 0.14352
# Poissons Ratio (z) = 0.67124 0.67124
#
# Static dielectric constant tensor:
#      x y z
#    x 1.522170 0.000000 0.000000 
#    y 0.000000 1.522170 0.000000 
#    z 0.000000 0.000000 1.537740 
# 
# From -- ./inp_files/1261.got.cif
#   From: 2010.05.17/outbox.cif.g08.bks.cpg/sg189_1_cif.got.tgz:1261.got - 2010.05.20 12:14:34.
