data_PCOD9586599
_publ_section_title
;
Structure prediction by ZEFSAII (Michael W. Deem and Ramdas Pophale) SiO2 
 PCOD9586599
Probable space group: P -6 2 M
;
_chemical_formula_sum "Si O2"
_cell_formula_units_Z 76
_cell_length_a 18.000000
_cell_length_b 18.000000
_cell_length_c 15.000000
_cell_angle_alpha 90.000000
_cell_angle_beta 90.000000
_cell_angle_gamma 120.000000
_cell_volume 4208.883462
_symmetry_space_group_name_H-M "P -6 2 M"
_symmetry_group_IT_number 189
_symmetry_cell_setting 'hexagonal'
loop_
_space_group_symop_operation_xyz
x,y,z
-x+y,-x,-z
-y,x-y,z
x,y,-z
-x+y,-x,z
-y,x-y,-z
x-y,-y,-z
-x,-x+y,-z
y,x,-z
y,x,z
x-y,-y,z
-x,-x+y,z
loop_
_atom_site_type_symbol
_atom_site_label
_atom_site_fract_x
_atom_site_fract_y
_atom_site_fract_z
Si Si1 0.359405 0.512647 0.399606
Si Si2 0.658827 0.557610 0.595124
Si Si3 0.098531 0.901875 0.108601
Si Si4 0.098743 0.629623 0.215244
Si Si5 0.458295 0.103067 0.787086
Si Si6 0.394190 0.201394 0.894904
Si Si7 0.666668 0.333334 0.393058
O O1 0.331258 0.479937 0.500000
O O2 0.462527 0.575253 0.405291
O O3 0.342375 0.449583 0.318712
O O4 0.324306 0.576156 0.369892
O O5 0.704006 0.565523 0.500000
O O6 0.624807 0.624807 0.593900
O O7 0.696492 0.562594 0.692980
O O8 0.141408 0.846165 0.135845
O O9 0.000000 0.858011 0.137223
O O10 0.153441 0.000000 0.138861
O O11 0.098911 0.903241 0.000000
O O12 0.125684 0.556584 0.210872
O O13 0.156201 0.708943 0.153993
O O14 0.000000 0.585435 0.187316
O O15 0.433234 0.142186 0.867906
O O16 0.402926 0.000000 0.787805
O O17 0.395785 0.213697 0.000000
O O18 0.666667 0.333334 0.500000
#
# Coordination Sequence:
#
# PCOD9586599 Si02
#       7
#    12  12  12  12  12  12   4
#     4   9  17  29  48  73 103 132 165 207 258 315
#     4   8  14  27  48  71  96 127 162 201 250 309
#     4   9  17  31  54  81 104 125 155 204 269 336
#     4  10  22  37  54  75 102 141 179 216 263 312
#     4   9  19  36  55  76 101 135 179 219 260 313
#     4  11  23  37  52  73 102 140 181 226 269 307
#     4   9  18  27  42  75 106 134 163 204 261 309
#
# _framework density 18.057044999999999
#
# number of rings (size 3 to 8) (size 9 to 14) (size 15 to 20)
#    0.000    2.684    0.000    2.526    4.421    4.105 
#    0.947    1.579    0.000    0.000    0.000    0.000 
#    0.000    0.000    0.000    0.947    0.000   20.368 
#
# Total GULP energy -423277.260618 kJ/mol
# GULP energy per Si atom -5569.437640 kJ/mol
# Density = 1.801595 g / cm^3
# Si number density = 18.057045 Si / 1000 Ang^3
#
#
#
# Elastic Constant Matrix: (Units=GPa)
#
#
# Indices 1 2 3 4 5 6 
#
# 1 36.8693 17.4564 7.8753 0.0000 0.0000 -0.0001
# 2 17.4564 36.8687 7.8750 0.0000 0.0000 0.0001
# 3 7.8753 7.8750 45.8835 0.0000 0.0000 -0.0001
# 4 0.0000 0.0000 0.0000 8.5277 0.0000 0.0000
# 5 0.0000 0.0000 0.0000 0.0000 8.5276 0.0000
# 6 -0.0001 0.0001 -0.0001 0.0000 0.0000 9.7066
#
#
#
# Elastic Compliance Matrix: (Units=1/GPa)
#
#
# Indices 1 2 3 4 5 6 
#
# 1 0.035442 -0.016071 -0.003325 0.000000 0.000000 0.000000
# 2 -0.016071 0.035443 -0.003325 0.000000 0.000000 0.000000
# 3 -0.003325 -0.003325 0.022936 0.000000 0.000000 0.000000
# 4 0.000000 0.000000 0.000000 0.117265 0.000000 0.000000
# 5 0.000000 0.000000 0.000000 0.000000 0.117266 0.000000
# 6 0.000000 0.000000 0.000000 0.000000 0.000000 0.103023
#
#
# Mechanical properties :
#
#
# Convention : Reuss Voigt Hill
#
# Bulk Modulus (GPa) = 20.66993 20.67055 20.67024
# Shear Modulus (GPa) = 10.14321 11.11337 10.62829
#
# Velocity S-wave (km/s) = 2.37266 2.48354 2.42873
# Velocity P-wave (km/s) = 4.35636 4.43803 4.39739
#
# Compressibility (1/GPa) = 0.04837946
#
# Stress axis : x y z
#
# Youngs Moduli (GPa) = 28.21507 28.21469 43.60028
#
# Poissons Ratio (x) = 0.45343 0.14497
# Poissons Ratio (y) = 0.45344 0.14496
# Poissons Ratio (z) = 0.09381 0.09380
#
# Static dielectric constant tensor:
#      x y z
#    x 1.632990 0.000000 0.000000 
#    y 0.000000 1.632990 0.000000 
#    z 0.000000 0.000000 1.663640 
# 
# From -- ./inp_files/2754.got.cif
#   From: 2010.05.17/outbox.ucp.g08.bks.cvg/sg189_2_cif.got.tgz:2754.got - 2010.06.11 15:22:13.
