data_PCOD9586879
_publ_section_title
;
Structure prediction by ZEFSAII (Michael W. Deem and Ramdas Pophale) SiO2 
 PCOD9586879
Probable space group: P -6 2 C
;
_chemical_formula_sum "Si O2"
_cell_formula_units_Z 60
_cell_length_a 19.832066
_cell_length_b 19.832066
_cell_length_c 9.843247
_cell_angle_alpha 90.000000
_cell_angle_beta 90.000000
_cell_angle_gamma 120.000000
_cell_volume 3352.779041
_symmetry_space_group_name_H-M "P -6 2 C"
_symmetry_group_IT_number 190
_symmetry_cell_setting 'hexagonal'
loop_
_space_group_symop_operation_xyz
x,y,z
-x+y,-x,1/2-z
-y,x-y,z
x,y,1/2-z
-x+y,-x,z
-y,x-y,1/2-z
x-y,-y,-z
-x,-x+y,-z
y,x,-z
y,x,1/2+z
x-y,-y,1/2+z
-x,-x+y,1/2+z
loop_
_atom_site_type_symbol
_atom_site_label
_atom_site_fract_x
_atom_site_fract_y
_atom_site_fract_z
Si Si1 0.867718 0.218918 0.405173
Si Si2 0.162640 0.639987 0.090104
Si Si3 0.623755 0.929037 0.591637
Si Si4 0.504827 0.692505 0.091515
Si Si5 0.097620 0.022089 0.750000
Si Si6 0.000000 0.182349 0.000000
O O1 0.882608 0.246712 0.250000
O O2 0.783227 0.141298 0.411512
O O3 0.861881 0.281303 0.500397
O O4 0.931434 0.196761 0.450088
O O5 0.140386 0.637278 0.250000
O O6 0.244132 0.720858 0.072388
O O7 0.173186 0.566302 0.062461
O O8 0.102505 0.644406 0.987036
O O9 0.621964 0.949319 0.750000
O O10 0.684968 0.000000 0.500000
O O11 0.525796 0.695728 0.250000
O O12 0.017558 0.937626 0.750000
O O13 0.147777 0.028700 0.619610
#
# Coordination Sequence:
#
# PCOD9586879 Si02
#       6
#    12  12  12  12   6   6
#     4  10  23  40  57  86 118 156 194 238 285 357
#     4   9  17  33  56  86 117 150 190 242 284 336
#     4  10  21  38  57  82 113 147 195 237 287 342
#     4   9  18  33  59  87 120 155 199 240 292 342
#     4  10  24  42  66  92 118 144 190 242 292 360
#     4  12  22  44  64  88 126 154 188 240 302 350
#
# _framework density 17.895602
#
# number of rings (size 3 to 8) (size 9 to 14) (size 15 to 20)
#    0.200    2.000    1.000    1.600    1.400    4.800 
#    1.800    0.000    0.000    2.400    0.000    0.000 
#    0.000    0.000    0.000    0.000    0.000    0.000 
#
# Total GULP energy -334700.171781 kJ/mol
# GULP energy per Si atom -5578.336196 kJ/mol
# Density = 1.785487 g / cm^3
# Si number density = 17.895602 Si / 1000 Ang^3
#
#
#
# Elastic Constant Matrix: (Units=GPa)
#
#
# Indices 1 2 3 4 5 6 
#
# 1 56.6965 17.9647 33.9456 0.0000 0.0000 0.0000
# 2 17.9647 56.6965 33.9456 0.0000 0.0000 0.0000
# 3 33.9456 33.9456 101.9674 0.0000 0.0000 0.0000
# 4 0.0000 0.0000 0.0000 27.6841 0.0000 0.0000
# 5 0.0000 0.0000 0.0000 0.0000 27.6841 0.0000
# 6 0.0000 0.0000 0.0000 0.0000 0.0000 19.3659
#
#
#
# Elastic Compliance Matrix: (Units=1/GPa)
#
#
# Indices 1 2 3 4 5 6 
#
# 1 0.022514 -0.003305 -0.006395 0.000000 0.000000 0.000000
# 2 -0.003305 0.022514 -0.006395 0.000000 0.000000 0.000000
# 3 -0.006395 -0.006395 0.014065 0.000000 0.000000 0.000000
# 4 0.000000 0.000000 0.000000 0.036122 0.000000 0.000000
# 5 0.000000 0.000000 0.000000 0.000000 0.036122 0.000000
# 6 0.000000 0.000000 0.000000 0.000000 0.000000 0.051637
#
#
# Mechanical properties :
#
#
# Convention : Reuss Voigt Hill
#
# Bulk Modulus (GPa) = 37.17013 43.00801 40.08907
# Shear Modulus (GPa) = 22.30853 23.58043 22.94448
#
# Velocity S-wave (km/s) = 3.53454 3.63390 3.58457
# Velocity P-wave (km/s) = 6.12152 6.45693 6.29146
#
# Compressibility (1/GPa) = 0.02690332
#
# Stress axis : x y z
#
# Youngs Moduli (GPa) = 44.41750 44.41750 71.09985
#
# Poissons Ratio (x) = 0.14680 0.45466
# Poissons Ratio (y) = 0.14680 0.45466
# Poissons Ratio (z) = 0.28404 0.28404
#
# Static dielectric constant tensor:
#      x y z
#    x 1.591920 0.000000 0.000000 
#    y 0.000000 1.591920 0.000000 
#    z 0.000000 0.000000 1.629030 
# 
# From -- ./inp_files/981.got.cif
#   From: 2010.05.17/outbox.cif.g08.bks.cpg/sg190_1_cif.got.tgz:981.got - 2010.05.20 12:16:56.
