data_PCOD9586798
_publ_section_title
;
Structure prediction by ZEFSAII (Michael W. Deem and Ramdas Pophale) SiO2 
 PCOD9586798
Probable space group: P -6 2 C
;
_chemical_formula_sum "Si O2"
_cell_formula_units_Z 74
_cell_length_a 16.069421
_cell_length_b 16.069421
_cell_length_c 18.258555
_cell_angle_alpha 90.000000
_cell_angle_beta 90.000000
_cell_angle_gamma 120.000000
_cell_volume 4083.170298
_symmetry_space_group_name_H-M "P -6 2 C"
_symmetry_group_IT_number 190
_symmetry_cell_setting 'hexagonal'
loop_
_space_group_symop_operation_xyz
x,y,z
-x+y,-x,1/2-z
-y,x-y,z
x,y,1/2-z
-x+y,-x,z
-y,x-y,1/2-z
x-y,-y,-z
-x,-x+y,-z
y,x,-z
y,x,1/2+z
x-y,-y,1/2+z
-x,-x+y,1/2+z
loop_
_atom_site_type_symbol
_atom_site_label
_atom_site_fract_x
_atom_site_fract_y
_atom_site_fract_z
Si Si1 0.005801 0.894792 0.750000
Si Si2 0.333334 0.666668 0.359170
Si Si3 0.301980 0.460423 0.532119
Si Si4 0.346870 0.098217 0.544976
Si Si5 0.898243 0.726456 0.831874
Si Si6 0.881070 0.377983 0.830788
Si Si7 0.962492 0.581883 0.886094
Si Si8 0.666668 0.333334 0.464823
O O1 0.912301 0.909461 0.750000
O O2 0.994113 0.829796 0.820103
O O3 0.355017 0.771086 0.334212
O O4 0.333334 0.666667 0.446885
O O5 0.190228 0.395702 0.509300
O O6 0.343876 0.414507 0.588926
O O7 0.358820 0.464549 0.457458
O O8 0.322626 0.564867 0.556499
O O9 0.275079 0.110714 0.600029
O O10 0.427184 0.104424 0.601648
O O11 0.298114 0.000000 0.500000
O O12 0.854386 0.711006 0.750000
O O13 0.921566 0.642079 0.845584
O O14 0.897393 0.349950 0.750000
O O15 0.949980 0.491683 0.841230
#
# Coordination Sequence:
#
# PCOD9586798 Si02
#       8
#     6   4  12  12  12  12  12   4
#     4   8  18  36  64  86 104 152 186 236 302 356
#     4  12  19  34  57  87 120 160 194 239 305 364
#     4  10  21  34  57  83 117 160 200 233 307 351
#     4  11  23  37  56  89 122 159 197 254 300 358
#     4   9  19  38  62  84 119 150 197 248 300 354
#     4  12  23  34  57  86 125 156 206 247 303 359
#     4  10  20  35  56  86 119 156 194 245 292 366
#     4  12  18  37  55  84 118 169 193 254 286 358
#
# _framework density 18.123173999999999
#
# number of rings (size 3 to 8) (size 9 to 14) (size 15 to 20)
#    0.649    0.973    3.243    2.432    4.541    1.297 
#    0.000    0.000    0.000    0.000    0.000    0.000 
#    0.000    0.000    0.000    0.000    0.000    0.000 
#
# Total GULP energy -412299.163626 kJ/mol
# GULP energy per Si atom -5571.610319 kJ/mol
# Density = 1.808192 g / cm^3
# Si number density = 18.123174 Si / 1000 Ang^3
#
#
#
# Elastic Constant Matrix: (Units=GPa)
#
#
# Indices 1 2 3 4 5 6 
#
# 1 76.5084 36.7542 33.0272 0.0020 0.0010 -0.0001
# 2 36.7542 76.5086 33.0270 0.0004 0.0022 0.0000
# 3 33.0272 33.0270 67.0074 0.0010 -0.0002 0.0000
# 4 0.0020 0.0004 0.0010 -13.1191 -0.0087 -0.0006
# 5 0.0010 0.0022 -0.0002 -0.0087 -12.9974 -0.0008
# 6 -0.0001 0.0000 0.0000 -0.0006 -0.0008 19.8772
#
#
#
# Elastic Compliance Matrix: (Units=1/GPa)
#
#
# Indices 1 2 3 4 5 6 
#
# 1 0.018773 -0.006382 -0.006107 0.000002 0.000000 0.000000
# 2 -0.006382 0.018773 -0.006107 -0.000001 0.000003 0.000000
# 3 -0.006107 -0.006107 0.020944 0.000000 -0.000002 0.000000
# 4 0.000002 -0.000001 0.000000 -0.076225 0.000051 -0.000002
# 5 0.000000 0.000003 -0.000002 0.000051 -0.076938 -0.000003
# 6 0.000000 0.000000 0.000000 -0.000002 -0.000003 0.050309
#
#
# Mechanical properties :
#
#
# Convention : Reuss Voigt Hill
#
# Bulk Modulus (GPa) = 46.95580 47.29344 47.12462
# Shear Modulus (GPa) = -68260.31615 6.56654 -34126.87481
#
# Velocity S-wave (km/s) = -194.28439 1.90556 -137.37320
# Velocity P-wave (km/s) = 224.28242 5.56720 158.54275
#
# Compressibility (1/GPa) = 0.02129662
#
# Stress axis : x y z
#
# Youngs Moduli (GPa) = 53.26891 53.26924 47.74615
#
# Poissons Ratio (x) = 0.33996 0.29160
# Poissons Ratio (y) = 0.33996 0.29159
# Poissons Ratio (z) = 0.32533 0.32532
#
# Static dielectric constant tensor:
#      x y z
#    x 1.632690 0.000000 0.000000 
#    y 0.000000 1.632690 0.000000 
#    z 0.000000 0.000000 1.613850 
# 
# From -- ./inp_files/4422.got.cif
#   From: 2010.05.17/outbox.cif.g08.bks.cpg/sg190_3_cif.got.tgz:4422.got - 2010.05.20 12:16:56.
