data_PCOD9586094
_publ_section_title
;
Structure prediction by ZEFSAII (Michael W. Deem and Ramdas Pophale) SiO2 
 PCOD9586094
Probable space group: P -6 C 2
;
_chemical_formula_sum "Si O2"
_cell_formula_units_Z 72
_cell_length_a 15.000000
_cell_length_b 15.000000
_cell_length_c 18.000000
_cell_angle_alpha 90.000000
_cell_angle_beta 90.000000
_cell_angle_gamma 120.000000
_cell_volume 3507.402885
_symmetry_space_group_name_H-M "P -6 C 2"
_symmetry_group_IT_number 188
_symmetry_cell_setting 'hexagonal'
loop_
_space_group_symop_operation_xyz
x,y,z
-x+y,-x,1/2-z
-y,x-y,z
x,y,1/2-z
-x+y,-x,z
-y,x-y,1/2-z
-y,-x,-z
-x+y,y,-z
x,x-y,-z
-x+y,y,1/2+z
x,x-y,1/2+z
-y,-x,1/2+z
loop_
_atom_site_type_symbol
_atom_site_label
_atom_site_fract_x
_atom_site_fract_y
_atom_site_fract_z
Si Si1 0.050847 0.238122 0.066877
Si Si2 0.452802 0.229676 0.170315
Si Si3 0.426182 0.080392 0.446869
Si Si4 0.886432 0.794299 0.668192
Si Si5 0.104667 0.767936 0.162714
Si Si6 0.577239 0.034908 0.112265
O O1 0.136765 0.329310 0.118334
O O2 0.971587 0.275498 0.044408
O O3 0.978878 0.133119 0.110950
O O4 0.112389 0.224778 0.000000
O O5 0.493280 0.216523 0.250000
O O6 0.480476 0.189236 0.096344
O O7 0.328490 0.154657 0.171320
O O8 0.472910 0.345060 0.164874
O O9 0.462371 0.015338 0.395142
O O10 0.456936 0.079472 0.531170
O O11 0.924638 0.837594 0.750000
O O12 0.781457 0.793560 0.652440
O O13 0.124843 0.769017 0.250000
O O14 0.062167 0.653529 0.130900
#
# Coordination Sequence:
#
# PCOD9586094 Si02
#       6
#    12  12  12  12  12  12
#     4  11  20  34  55  85 114 149 191 238 287 344
#     4   9  18  33  54  79 108 142 181 230 284 339
#     4  10  21  35  57  84 115 146 193 240 286 343
#     4   8  17  33  52  75 107 144 183 228 280 333
#     4  10  20  36  58  81 111 151 194 238 288 347
#     4  10  19  36  57  81 110 152 189 233 287 348
#
# _framework density 20.528009999999998
#
# number of rings (size 3 to 8) (size 9 to 14) (size 15 to 20)
#    0.000    2.333    1.667    2.500    0.000    2.667 
#    2.000    0.000    0.000    0.667    4.333    0.000 
#    0.000    0.000    0.000    0.000    0.000    0.000 
#
# Total GULP energy -400957.966554 kJ/mol
# GULP energy per Si atom -5568.860647 kJ/mol
# Density = 2.048129 g / cm^3
# Si number density = 20.528010 Si / 1000 Ang^3
#
#
#
# Elastic Constant Matrix: (Units=GPa)
#
#
# Indices 1 2 3 4 5 6 
#
# 1 27.9356 -2.0754 9.4375 0.0001 0.0000 0.0000
# 2 -2.0754 27.9356 9.4375 -0.0001 0.0000 0.0000
# 3 9.4375 9.4375 95.7064 0.0000 0.0000 0.0000
# 4 0.0001 -0.0001 0.0000 4.3963 0.0000 0.0000
# 5 0.0000 0.0000 0.0000 0.0000 4.3963 0.0001
# 6 0.0000 0.0000 0.0000 0.0000 0.0001 15.0055
#
#
#
# Elastic Compliance Matrix: (Units=1/GPa)
#
#
# Indices 1 2 3 4 5 6 
#
# 1 0.037495 0.004174 -0.004109 0.000000 0.000000 0.000000
# 2 0.004174 0.037495 -0.004109 0.000000 0.000000 0.000000
# 3 -0.004109 -0.004109 0.011259 0.000000 0.000000 0.000000
# 4 0.000000 0.000000 0.000000 0.227466 0.000000 0.000000
# 5 0.000000 0.000000 0.000000 0.000000 0.227466 -0.000001
# 6 0.000000 0.000000 0.000000 0.000000 -0.000001 0.066642
#
#
# Mechanical properties :
#
#
# Convention : Reuss Voigt Hill
#
# Bulk Modulus (GPa) = 12.79423 20.57522 16.68473
# Shear Modulus (GPa) = 7.78860 13.74480 10.76670
#
# Velocity S-wave (km/s) = 1.94997 2.59040 2.29266
# Velocity P-wave (km/s) = 3.36392 4.35794 3.89279
#
# Compressibility (1/GPa) = 0.07816023
#
# Stress axis : x y z
#
# Youngs Moduli (GPa) = 26.67038 26.67038 88.81813
#
# Poissons Ratio (x) = -0.11131 0.36494
# Poissons Ratio (y) = -0.11131 0.36494
# Poissons Ratio (z) = 0.10959 0.10959
#
# Static dielectric constant tensor:
#      x y z
#    x 1.767450 0.000000 0.000000 
#    y 0.000000 1.767450 0.000000 
#    z 0.000000 0.000000 1.798510 
# 
# From -- ./inp_files/3179.got.cif
#   From: 2010.05.17/outbox.ucp.g08.bks.cvg/sg188_2_cif.got.tgz:3179.got - 2010.06.11 15:21:59.
