data_PCOD9586423
_publ_section_title
;
Structure prediction by ZEFSAII (Michael W. Deem and Ramdas Pophale) SiO2 
 PCOD9586423
Probable space group: P -6 2 M
;
_chemical_formula_sum "Si O2"
_cell_formula_units_Z 60
_cell_length_a 14.543195
_cell_length_b 14.543195
_cell_length_c 16.086638
_cell_angle_alpha 90.000000
_cell_angle_beta 90.000000
_cell_angle_gamma 120.000000
_cell_volume 2946.561943
_symmetry_space_group_name_H-M "P -6 2 M"
_symmetry_group_IT_number 189
_symmetry_cell_setting 'hexagonal'
loop_
_space_group_symop_operation_xyz
x,y,z
-x+y,-x,-z
-y,x-y,z
x,y,-z
-x+y,-x,z
-y,x-y,-z
x-y,-y,-z
-x,-x+y,-z
y,x,-z
y,x,z
x-y,-y,z
-x,-x+y,z
loop_
_atom_site_type_symbol
_atom_site_label
_atom_site_fract_x
_atom_site_fract_y
_atom_site_fract_z
Si Si1 0.884325 0.507016 0.649079
Si Si2 0.668425 0.122794 0.841700
Si Si3 0.112890 0.883615 0.399450
Si Si4 0.122461 0.457061 0.900046
Si Si5 0.454110 0.163892 0.404982
O O1 0.876592 0.541250 0.741729
O O2 0.786791 0.496647 0.596783
O O3 0.872843 0.392082 0.650336
O O4 0.000000 0.587900 0.612924
O O5 0.573324 0.142902 0.872321
O O6 0.782732 0.219769 0.869634
O O7 0.631079 0.000000 0.867536
O O8 0.111793 0.871741 0.500000
O O9 0.213332 0.876571 0.371467
O O10 0.000000 0.796411 0.365767
O O11 0.133144 0.000000 0.382672
O O12 0.000000 0.373082 0.873294
O O13 0.124224 0.455898 0.000000
O O14 0.450994 0.128079 0.500000
#
# Coordination Sequence:
#
# PCOD9586423 Si02
#       5
#    12  12  12  12  12
#     4  11  23  38  55  75 104 143 185 229 277 333
#     4  10  21  37  58  84 116 155 195 236 284 341
#     4   9  17  30  49  72  96 123 160 212 275 338
#     4  10  20  35  59  91 123 153 186 229 281 336
#     4  11  22  35  52  74 102 138 182 234 289 342
#
# _framework density 20.362715000000001
#
# number of rings (size 3 to 8) (size 9 to 14) (size 15 to 20)
#    0.000    1.800    0.000    4.600    0.000    5.200 
#    0.000    1.000    0.000    0.400    0.000    0.000 
#    0.000    0.000    0.000    0.000    0.000    0.000 
#
# Total GULP energy -334913.155696 kJ/mol
# GULP energy per Si atom -5581.885928 kJ/mol
# Density = 2.031637 g / cm^3
# Si number density = 20.362715 Si / 1000 Ang^3
#
#
#
# Elastic Constant Matrix: (Units=GPa)
#
#
# Indices 1 2 3 4 5 6 
#
# 1 130.3879 75.0369 19.5049 0.0000 0.0000 0.0000
# 2 75.0369 130.3879 19.5049 0.0000 0.0000 0.0000
# 3 19.5049 19.5049 49.7773 0.0000 0.0000 0.0000
# 4 0.0000 0.0000 0.0000 -37.5810 0.0000 0.0000
# 5 0.0000 0.0000 0.0000 0.0000 -37.5810 0.0000
# 6 0.0000 0.0000 0.0000 0.0000 0.0000 27.6755
#
#
#
# Elastic Compliance Matrix: (Units=1/GPa)
#
#
# Indices 1 2 3 4 5 6 
#
# 1 0.011663 -0.006404 -0.002061 0.000000 0.000000 0.000000
# 2 -0.006404 0.011663 -0.002061 0.000000 0.000000 0.000000
# 3 -0.002061 -0.002061 0.021705 0.000000 0.000000 0.000000
# 4 0.000000 0.000000 0.000000 -0.026609 0.000000 0.000000
# 5 0.000000 0.000000 0.000000 0.000000 -0.026609 0.000000
# 6 0.000000 0.000000 0.000000 0.000000 0.000000 0.036133
#
#
# Mechanical properties :
#
#
# Convention : Reuss Voigt Hill
#
# Bulk Modulus (GPa) = 41.70170 59.84961 50.77566
# Shear Modulus (GPa) = 87.73642 3.60311 45.66976
#
# Velocity S-wave (km/s) = 6.57117 1.33165 4.74097
# Velocity P-wave (km/s) = 8.83729 5.64092 7.41342
#
# Compressibility (1/GPa) = 0.02397984
#
# Stress axis : x y z
#
# Youngs Moduli (GPa) = 85.74185 85.74185 46.07332
#
# Poissons Ratio (x) = 0.54906 0.09495
# Poissons Ratio (y) = 0.54906 0.09495
# Poissons Ratio (z) = 0.17670 0.17670
#
# Static dielectric constant tensor:
#      x y z
#    x 1.790810 0.000000 0.000000 
#    y 0.000000 1.790810 0.000000 
#    z 0.000000 0.000000 1.700640 
# 
# From -- ./inp_files/2510.got.cif
#   From: 2010.05.17/outbox.cif.g08.bks.cpg/sg189_2_cif.got.tgz:2510.got - 2010.05.20 12:14:34.
