data_PCOD9586359
_publ_section_title
;
Structure prediction by ZEFSAII (Michael W. Deem and Ramdas Pophale) SiO2 
 PCOD9586359
Probable space group: P -6 2 M
;
_chemical_formula_sum "Si O2"
_cell_formula_units_Z 60
_cell_length_a 20.678712
_cell_length_b 20.678712
_cell_length_c 10.284222
_cell_angle_alpha 90.000000
_cell_angle_beta 90.000000
_cell_angle_gamma 120.000000
_cell_volume 3808.456891
_symmetry_space_group_name_H-M "P -6 2 M"
_symmetry_group_IT_number 189
_symmetry_cell_setting 'hexagonal'
loop_
_space_group_symop_operation_xyz
x,y,z
-x+y,-x,-z
-y,x-y,z
x,y,-z
-x+y,-x,z
-y,x-y,-z
x-y,-y,-z
-x,-x+y,-z
y,x,-z
y,x,z
x-y,-y,z
-x,-x+y,z
loop_
_atom_site_type_symbol
_atom_site_label
_atom_site_fract_x
_atom_site_fract_y
_atom_site_fract_z
Si Si1 0.000000 0.196837 0.853359
Si Si2 0.152886 0.352825 0.151275
Si Si3 0.000000 0.084241 0.647871
Si Si4 0.627687 0.538354 0.847543
Si Si5 0.721587 0.089045 0.346544
Si Si6 0.481363 0.909562 0.353868
O O1 0.926218 0.202966 0.838563
O O2 0.000000 0.140177 0.750048
O O3 0.000000 0.170038 0.000000
O O4 0.134756 0.418860 0.178996
O O5 0.211322 0.351006 0.250623
O O6 0.177751 0.359828 0.000000
O O7 0.000000 0.108341 0.500000
O O8 0.069741 0.069741 0.663114
O O9 0.594976 0.594976 0.827661
O O10 0.581757 0.467924 0.754105
O O11 0.615766 0.517493 0.000000
O O12 0.742423 0.101183 0.500000
O O13 0.655837 0.109083 0.326751
O O14 0.684983 0.000000 0.321758
O O15 0.451703 0.883663 0.500000
O O16 0.524824 0.000000 0.356062
#
# Coordination Sequence:
#
# PCOD9586359 Si02
#       6
#     6  12   6  12  12  12
#     4  10  20  34  50  70 100 133 166 211 262 307
#     4  10  20  33  49  72 104 135 166 208 255 303
#     4   8  18  36  52  66  88 121 168 221 266 309
#     4   9  16  29  49  72  98 126 154 191 242 291
#     4   9  19  35  51  71 101 135 168 208 256 300
#     4   8  15  29  49  71  95 120 151 192 236 287
#
# _framework density 15.754412
#
# number of rings (size 3 to 8) (size 9 to 14) (size 15 to 20)
#    0.200    2.800    1.000    1.200    0.000    4.000 
#    0.000    6.000    0.000    0.800    0.000    0.000 
#    0.000    0.000    0.000    0.000    0.000    0.000 
#
# Total GULP energy -334032.670588 kJ/mol
# GULP energy per Si atom -5567.211176 kJ/mol
# Density = 1.571855 g / cm^3
# Si number density = 15.754412 Si / 1000 Ang^3
#
#
#
# Elastic Constant Matrix: (Units=GPa)
#
#
# Indices 1 2 3 4 5 6 
#
# 1 71.1857 43.9258 77.1753 0.0000 0.0000 0.0000
# 2 43.9258 71.1857 77.1753 0.0000 0.0000 0.0000
# 3 77.1753 77.1753 120.1480 0.0000 0.0000 0.0000
# 4 0.0000 0.0000 0.0000 12.3104 0.0000 0.0000
# 5 0.0000 0.0000 0.0000 0.0000 12.3104 0.0000
# 6 0.0000 0.0000 0.0000 0.0000 0.0000 13.6300
#
#
#
# Elastic Compliance Matrix: (Units=1/GPa)
#
#
# Indices 1 2 3 4 5 6 
#
# 1 0.049657 0.012973 -0.040229 0.000000 0.000000 0.000000
# 2 0.012973 0.049657 -0.040229 0.000000 0.000000 0.000000
# 3 -0.040229 -0.040229 0.060005 0.000000 0.000000 0.000000
# 4 0.000000 0.000000 0.000000 0.081232 0.000000 0.000000
# 5 0.000000 0.000000 0.000000 0.000000 0.081232 0.000000
# 6 0.000000 0.000000 0.000000 0.000000 0.000000 0.073368
#
#
# Mechanical properties :
#
#
# Convention : Reuss Voigt Hill
#
# Bulk Modulus (GPa) = 41.07304 73.23023 57.15164
# Shear Modulus (GPa) = 9.28958 11.93304 10.61131
#
# Velocity S-wave (km/s) = 2.43090 2.75515 2.59809
# Velocity P-wave (km/s) = 5.83151 7.53023 6.73464
#
# Compressibility (1/GPa) = 0.02434687
#
# Stress axis : x y z
#
# Youngs Moduli (GPa) = 20.13816 20.13816 16.66537
#
# Poissons Ratio (x) = -0.26125 0.67044
# Poissons Ratio (y) = -0.26125 0.67044
# Poissons Ratio (z) = 0.81015 0.81015
#
# Static dielectric constant tensor:
#      x y z
#    x 1.516330 0.000000 0.000000 
#    y 0.000000 1.516330 0.000000 
#    z 0.000000 0.000000 1.524290 
# 
# From -- ./inp_files/907.got.cif
#   From: 2010.05.17/outbox.cif.g08.bks.cpg/sg189_1_cif.got.tgz:907.got - 2010.05.20 12:14:34.
