data_PCOD9586930
_publ_section_title
;
Structure prediction by ZEFSAII (Michael W. Deem and Ramdas Pophale) SiO2 
 PCOD9586930
Probable space group: P -6 2 C
;
_chemical_formula_sum "Si O2"
_cell_formula_units_Z 60
_cell_length_a 10.065708
_cell_length_b 10.065708
_cell_length_c 30.674857
_cell_angle_alpha 90.000000
_cell_angle_beta 90.000000
_cell_angle_gamma 120.000000
_cell_volume 2691.546169
_symmetry_space_group_name_H-M "P -6 2 C"
_symmetry_group_IT_number 190
_symmetry_cell_setting 'hexagonal'
loop_
_space_group_symop_operation_xyz
x,y,z
-x+y,-x,1/2-z
-y,x-y,z
x,y,1/2-z
-x+y,-x,z
-y,x-y,1/2-z
x-y,-y,-z
-x,-x+y,-z
y,x,-z
y,x,1/2+z
x-y,-y,1/2+z
-x,-x+y,1/2+z
loop_
_atom_site_type_symbol
_atom_site_label
_atom_site_fract_x
_atom_site_fract_y
_atom_site_fract_z
Si Si1 0.157741 0.845648 0.374139
Si Si2 0.304250 0.407144 0.916472
Si Si3 0.988620 0.385828 0.450312
Si Si4 0.757799 0.692812 0.297656
Si Si5 0.557237 0.965778 0.673852
O O1 0.997284 0.768941 0.400376
O O2 0.127238 0.698480 0.343958
O O3 0.283769 0.903878 0.412243
O O4 0.199270 0.976850 0.338533
O O5 0.448499 0.450510 0.947114
O O6 0.182457 0.440845 0.937238
O O7 0.376315 0.500518 0.871931
O O8 0.000000 0.345348 0.500000
O O9 0.774009 0.764332 0.250000
O O10 0.583904 0.549587 0.303075
O O11 0.875479 0.628482 0.301230
#
# Coordination Sequence:
#
# PCOD9586930 Si02
#       5
#    12  12  12  12  12
#     4  10  22  43  63  93 141 172 211 268 336 394
#     4  10  23  45  73  93 134 178 220 267 338 390
#     4  12  25  45  72 104 131 172 230 279 326 397
#     4  12  23  43  71 103 128 171 229 281 329 399
#     4  10  22  43  72  92 133 173 222 269 342 387
#
# _framework density 22.292017999999999
#
# number of rings (size 3 to 8) (size 9 to 14) (size 15 to 20)
#    1.200    0.000    4.000    1.400    2.800    1.600 
#   19.200    0.000    0.000    0.000    0.000    0.000 
#    0.000    0.000    0.000    0.000    0.000    0.000 
#
# Total GULP energy -334229.904867 kJ/mol
# GULP energy per Si atom -5570.498414 kJ/mol
# Density = 2.224128 g / cm^3
# Si number density = 22.292018 Si / 1000 Ang^3
#
#
#
# Elastic Constant Matrix: (Units=GPa)
#
#
# Indices 1 2 3 4 5 6 
#
# 1 57.6385 14.4877 32.2863 0.0000 0.0000 0.0000
# 2 14.4877 57.6385 32.2863 0.0000 0.0000 0.0000
# 3 32.2863 32.2863 159.3968 0.0000 0.0000 0.0000
# 4 0.0000 0.0000 0.0000 -76.9653 0.0000 0.0000
# 5 0.0000 0.0000 0.0000 0.0000 -76.9653 0.0000
# 6 0.0000 0.0000 0.0000 0.0000 0.0000 21.5754
#
#
#
# Elastic Compliance Matrix: (Units=1/GPa)
#
#
# Indices 1 2 3 4 5 6 
#
# 1 0.020055 -0.003119 -0.003430 0.000000 0.000000 0.000000
# 2 -0.003119 0.020055 -0.003430 0.000000 0.000000 0.000000
# 3 -0.003430 -0.003430 0.007663 0.000000 0.000000 0.000000
# 4 0.000000 0.000000 0.000000 -0.012993 0.000000 0.000000
# 5 0.000000 0.000000 0.000000 0.000000 -0.012993 0.000000
# 6 0.000000 0.000000 0.000000 0.000000 0.000000 0.046349
#
#
# Mechanical properties :
#
#
# Convention : Reuss Voigt Hill
#
# Bulk Modulus (GPa) = 35.95414 48.08829 42.02122
# Shear Modulus (GPa) = 51.35139 -13.43014 18.96062
#
# Velocity S-wave (km/s) = 4.80477 -2.45718 2.91959
# Velocity P-wave (km/s) = 6.85162 3.68355 5.50060
#
# Compressibility (1/GPa) = 0.02781321
#
# Stress axis : x y z
#
# Youngs Moduli (GPa) = 49.86256 49.86256 130.49165
#
# Poissons Ratio (x) = 0.15554 0.44764
# Poissons Ratio (y) = 0.15554 0.44764
# Poissons Ratio (z) = 0.17105 0.17105
#
# Static dielectric constant tensor:
#      x y z
#    x 1.854040 0.000000 0.000000 
#    y 0.000000 1.854040 0.000000 
#    z 0.000000 0.000000 1.849860 
# 
# From -- ./inp_files/5119.got.cif
#   From: 2010.05.17/outbox.cif.g08.bks.cpg/sg190_3_cif.got.tgz:5119.got - 2010.05.20 12:16:56.
