data_PCOD9586891
_publ_section_title
;
Structure prediction by ZEFSAII (Michael W. Deem and Ramdas Pophale) SiO2 
 PCOD9586891
Probable space group: P -6 2 C
;
_chemical_formula_sum "Si O2"
_cell_formula_units_Z 48
_cell_length_a 9.364166
_cell_length_b 9.364166
_cell_length_c 24.162983
_cell_angle_alpha 90.000000
_cell_angle_beta 90.000000
_cell_angle_gamma 120.000000
_cell_volume 1834.929521
_symmetry_space_group_name_H-M "P -6 2 C"
_symmetry_group_IT_number 190
_symmetry_cell_setting 'hexagonal'
loop_
_space_group_symop_operation_xyz
x,y,z
-x+y,-x,1/2-z
-y,x-y,z
x,y,1/2-z
-x+y,-x,z
-y,x-y,1/2-z
x-y,-y,-z
-x,-x+y,-z
y,x,-z
y,x,1/2+z
x-y,-y,1/2+z
-x,-x+y,1/2+z
loop_
_atom_site_type_symbol
_atom_site_label
_atom_site_fract_x
_atom_site_fract_y
_atom_site_fract_z
Si Si1 0.453498 0.053071 0.750000
Si Si2 0.712948 0.927242 0.750000
Si Si3 0.851265 0.686797 0.963171
Si Si4 0.397674 0.945795 0.127492
Si Si5 0.069504 0.786258 0.631744
O O1 0.571814 0.975972 0.750000
O O2 0.267902 0.902641 0.750000
O O3 0.475711 0.135116 0.810787
O O4 0.799428 0.987554 0.808270
O O5 0.705557 0.542658 0.925553
O O6 0.962993 0.806130 0.914721
O O7 0.761398 0.761398 0.000000
O O8 0.000000 0.687773 0.000000
O O9 0.593366 0.018496 0.125168
O O10 0.365252 0.100351 0.126128
#
# Coordination Sequence:
#
# PCOD9586891 Si02
#       5
#     6   6  12  12  12
#     4   8  15  31  58  90 118 146 189 257 318 372
#     4   8  15  31  58  90 118 146 189 257 318 372
#     4  12  25  43  60  81 127 174 206 251 299 358
#     4  10  21  39  64  91 119 154 204 257 316 366
#     4  10  21  39  64  91 119 154 204 257 316 366
#
# _framework density 26.159044999999999
#
# number of rings (size 3 to 8) (size 9 to 14) (size 15 to 20)
#    0.000    2.000    2.500    1.000    0.000    6.000 
#    1.500    0.000    0.000    0.000    0.000    0.000 
#    0.000    0.000    0.000    0.000    0.000    0.000 
#
# Total GULP energy -267842.139070 kJ/mol
# GULP energy per Si atom -5580.044564 kJ/mol
# Density = 2.609951 g / cm^3
# Si number density = 26.159045 Si / 1000 Ang^3
#
#
#
# Elastic Constant Matrix: (Units=GPa)
#
#
# Indices 1 2 3 4 5 6 
#
# 1 140.2098 53.8198 38.8925 0.0000 0.0000 0.0000
# 2 53.8198 140.2098 38.8925 0.0000 0.0000 0.0000
# 3 38.8925 38.8925 237.7236 0.0000 0.0000 0.0000
# 4 0.0000 0.0000 0.0000 22.3770 0.0000 0.0000
# 5 0.0000 0.0000 0.0000 0.0000 22.3770 0.0000
# 6 0.0000 0.0000 0.0000 0.0000 0.0000 43.1950
#
#
#
# Elastic Compliance Matrix: (Units=1/GPa)
#
#
# Indices 1 2 3 4 5 6 
#
# 1 0.008546 -0.003030 -0.000902 0.000000 0.000000 0.000000
# 2 -0.003030 0.008546 -0.000902 0.000000 0.000000 0.000000
# 3 -0.000902 -0.000902 0.004502 0.000000 0.000000 0.000000
# 4 0.000000 0.000000 0.000000 0.044689 0.000000 0.000000
# 5 0.000000 0.000000 0.000000 0.000000 0.044689 0.000000
# 6 0.000000 0.000000 0.000000 0.000000 0.000000 0.023151
#
#
# Mechanical properties :
#
#
# Convention : Reuss Voigt Hill
#
# Bulk Modulus (GPa) = 83.86766 86.81698 85.34232
# Shear Modulus (GPa) = 33.83748 43.35901 38.59825
#
# Velocity S-wave (km/s) = 3.60047 4.07568 3.84542
# Velocity P-wave (km/s) = 7.02956 7.44368 7.23958
#
# Compressibility (1/GPa) = 0.01192355
#
# Stress axis : x y z
#
# Youngs Moduli (GPa) = 117.02048 117.02048 222.13190
#
# Poissons Ratio (x) = 0.35456 0.20045
# Poissons Ratio (y) = 0.35456 0.20045
# Poissons Ratio (z) = 0.10560 0.10560
#
# Static dielectric constant tensor:
#      x y z
#    x 2.090080 0.000000 0.000000 
#    y 0.000000 2.090080 0.000000 
#    z 0.000000 0.000000 2.189570 
# 
# From -- ./inp_files/4154.got.cif
#   From: 2010.05.17/outbox.cif.g08.bks.cpg/sg190_3_cif.got.tgz:4154.got - 2010.05.20 12:16:56.
