data_PCOD9586850
_publ_section_title
;
Structure prediction by ZEFSAII (Michael W. Deem and Ramdas Pophale) SiO2 
 PCOD9586850
Probable space group: P -6 2 C
;
_chemical_formula_sum "Si O2"
_cell_formula_units_Z 70
_cell_length_a 14.228110
_cell_length_b 14.228110
_cell_length_c 17.109651
_cell_angle_alpha 90.000000
_cell_angle_beta 90.000000
_cell_angle_gamma 120.000000
_cell_volume 2999.619795
_symmetry_space_group_name_H-M "P -6 2 C"
_symmetry_group_IT_number 190
_symmetry_cell_setting 'hexagonal'
loop_
_space_group_symop_operation_xyz
x,y,z
-x+y,-x,1/2-z
-y,x-y,z
x,y,1/2-z
-x+y,-x,z
-y,x-y,1/2-z
x-y,-y,-z
-x,-x+y,-z
y,x,-z
y,x,1/2+z
x-y,-y,1/2+z
-x,-x+y,1/2+z
loop_
_atom_site_type_symbol
_atom_site_label
_atom_site_fract_x
_atom_site_fract_y
_atom_site_fract_z
Si Si1 0.029024 0.793606 0.418876
Si Si2 0.597366 0.598561 0.084454
Si Si3 0.467410 0.230111 0.567524
Si Si4 0.333334 0.666668 0.340056
Si Si5 0.307163 0.021989 0.250000
Si Si6 0.171264 0.229386 0.250000
Si Si7 0.871423 0.532211 0.086209
Si Si8 0.730061 0.125955 0.250000
O O1 0.147818 0.805525 0.418854
O O2 0.019184 0.842665 0.336451
O O3 0.000000 0.830725 0.500000
O O4 0.950021 0.662676 0.421553
O O5 0.518374 0.646332 0.082463
O O6 0.658787 0.635503 0.167279
O O7 0.534725 0.468686 0.077530
O O8 0.653323 0.653323 0.000000
O O9 0.550522 0.311282 0.629633
O O10 0.498137 0.280447 0.480829
O O11 0.333334 0.666668 0.250000
O O12 0.318084 0.140085 0.250000
O O13 0.187296 0.915364 0.250000
O O14 0.305046 0.309246 0.250000
O O15 0.835113 0.527306 0.174884
#
# Coordination Sequence:
#
# PCOD9586850 Si02
#       8
#    12  12  12   4   6   6  12   6
#     4   9  18  35  61  89 127 183 230 273 356 439
#     4  12  24  41  68 105 143 184 246 315 361 443
#     4  11  22  40  58  92 137 186 234 294 361 439
#     4  12  27  33  51  85 134 178 225 297 381 429
#     4  12  25  43  71 112 135 178 251 316 382 423
#     4  10  20  40  64  96 132 166 224 297 349 426
#     4  10  21  42  66  93 139 197 244 281 372 450
#     4  10  23  43  71  98 135 192 237 287 365 457
#
# _framework density 23.336290999999999
#
# number of rings (size 3 to 8) (size 9 to 14) (size 15 to 20)
#    0.000    1.371    1.714    5.143    2.400    0.000 
#    3.600    0.000    0.000    4.800    0.000    1.200 
#    0.000    0.000    0.000    0.000    0.000    0.000 
#
# Total GULP energy -389851.921769 kJ/mol
# GULP energy per Si atom -5569.313168 kJ/mol
# Density = 2.328318 g / cm^3
# Si number density = 23.336291 Si / 1000 Ang^3
#
#
#
# Elastic Constant Matrix: (Units=GPa)
#
#
# Indices 1 2 3 4 5 6 
#
# 1 58.0974 41.0080 30.2606 -0.0025 -0.0004 -0.0012
# 2 41.0080 58.0989 30.2591 0.0027 0.0003 0.0015
# 3 30.2606 30.2591 225.1326 -0.0010 0.0006 -0.0003
# 4 -0.0025 0.0027 -0.0010 17.8185 0.0041 -0.0003
# 5 -0.0004 0.0003 0.0006 0.0041 17.8060 0.0026
# 6 -0.0012 0.0015 -0.0003 -0.0003 0.0026 8.5461
#
#
#
# Elastic Compliance Matrix: (Units=1/GPa)
#
#
# Indices 1 2 3 4 5 6 
#
# 1 0.034753 -0.023760 -0.001478 0.000008 0.000001 0.000009
# 2 -0.023760 0.034752 -0.001477 -0.000009 -0.000001 -0.000010
# 3 -0.001478 -0.001477 0.004839 0.000000 0.000000 0.000000
# 4 0.000008 -0.000009 0.000000 0.056121 -0.000013 0.000002
# 5 0.000001 -0.000001 0.000000 -0.000013 0.056161 -0.000017
# 6 0.000009 -0.000010 0.000000 0.000002 -0.000017 0.117012
#
#
# Mechanical properties :
#
#
# Convention : Reuss Voigt Hill
#
# Bulk Modulus (GPa) = 47.81503 60.48714 54.15108
# Shear Modulus (GPa) = 13.73470 24.82087 19.27779
#
# Velocity S-wave (km/s) = 2.42865 3.26485 2.87729
# Velocity P-wave (km/s) = 5.32902 6.33943 5.85606
#
# Compressibility (1/GPa) = 0.02091393
#
# Stress axis : x y z
#
# Youngs Moduli (GPa) = 28.77412 28.77512 206.65429
#
# Poissons Ratio (x) = 0.68371 0.30538
# Poissons Ratio (y) = 0.68369 0.30527
# Poissons Ratio (z) = 0.04252 0.04251
#
# Static dielectric constant tensor:
#      x y z
#    x 1.446010 -0.000090 0.000000 
#    y -0.000090 1.445980 0.000000 
#    z 0.000000 0.000000 2.059270 
# 
# From -- ./inp_files/3838.got.cif
#   From: 2010.05.17/outbox.cif.g08.bks.cpg/sg190_2_cif.got.tgz:3838.got - 2010.05.20 12:16:56.
