data_PCOD9586044
_publ_section_title
;
Structure prediction by ZEFSAII (Michael W. Deem and Ramdas Pophale) SiO2 
 PCOD9586044
Probable space group: P -6 C 2
;
_chemical_formula_sum "Si O2"
_cell_formula_units_Z 72
_cell_length_a 15.209989
_cell_length_b 15.209989
_cell_length_c 16.752585
_cell_angle_alpha 90.000000
_cell_angle_beta 90.000000
_cell_angle_gamma 120.000000
_cell_volume 3356.373332
_symmetry_space_group_name_H-M "P -6 C 2"
_symmetry_group_IT_number 188
_symmetry_cell_setting 'hexagonal'
loop_
_space_group_symop_operation_xyz
x,y,z
-x+y,-x,1/2-z
-y,x-y,z
x,y,1/2-z
-x+y,-x,z
-y,x-y,1/2-z
-y,-x,-z
-x+y,y,-z
x,x-y,-z
-x+y,y,1/2+z
x,x-y,1/2+z
-y,-x,1/2+z
loop_
_atom_site_type_symbol
_atom_site_label
_atom_site_fract_x
_atom_site_fract_y
_atom_site_fract_z
Si Si1 0.541064 0.873241 0.981355
Si Si2 0.284003 0.309368 0.375164
Si Si3 0.093116 0.318580 0.339165
Si Si4 0.619563 0.488408 0.658740
Si Si5 0.231728 0.140620 0.909620
Si Si6 0.836889 0.549285 0.652387
O O1 0.590420 0.899844 0.893136
O O2 0.442890 0.885779 0.000000
O O3 0.513198 0.756599 0.000000
O O4 0.639349 0.943157 0.037131
O O5 0.206816 0.338228 0.336505
O O6 0.397437 0.357551 0.342578
O O7 0.232699 0.187372 0.368343
O O8 0.056119 0.319286 0.250000
O O9 0.023072 0.204412 0.375983
O O10 0.610730 0.454702 0.750000
O O11 0.718785 0.488602 0.628317
O O12 0.514412 0.403119 0.624120
O O13 0.347528 0.228553 0.895833
O O14 0.204920 0.102460 0.000000
O O15 0.841593 0.568077 0.750000
#
# Coordination Sequence:
#
# PCOD9586044 Si02
#       6
#    12  12  12  12  12  12
#     4  10  22  42  68  98 134 178 222 271 333 404
#     4  10  22  40  64  93 128 172 223 268 330 396
#     4  11  24  43  67  96 132 170 223 283 334 392
#     4   9  17  31  55  87 128 167 207 258 315 381
#     4  11  22  39  62  88 127 167 213 264 324 396
#     4   9  18  32  53  86 124 165 204 252 312 372
#
# _framework density 21.451727000000002
#
# number of rings (size 3 to 8) (size 9 to 14) (size 15 to 20)
#    0.000    2.000    1.667    1.500    2.333    3.333 
#    1.000    5.833    0.000    0.000    0.000    0.000 
#    0.000    0.000    0.000    0.000    0.000    0.000 
#
# Total GULP energy -400961.459062 kJ/mol
# GULP energy per Si atom -5568.909154 kJ/mol
# Density = 2.140290 g / cm^3
# Si number density = 21.451727 Si / 1000 Ang^3
#
#
#
# Elastic Constant Matrix: (Units=GPa)
#
#
# Indices 1 2 3 4 5 6 
#
# 1 99.1882 42.0995 17.5090 0.0001 0.0000 0.0000
# 2 42.0995 99.1882 17.5090 -0.0001 0.0000 0.0000
# 3 17.5090 17.5090 90.1489 0.0000 0.0000 0.0000
# 4 0.0001 -0.0001 0.0000 21.6664 0.0000 0.0000
# 5 0.0000 0.0000 0.0000 0.0000 21.6664 0.0001
# 6 0.0000 0.0000 0.0000 0.0000 0.0001 28.5443
#
#
#
# Elastic Compliance Matrix: (Units=1/GPa)
#
#
# Indices 1 2 3 4 5 6 
#
# 1 0.012476 -0.005040 -0.001444 0.000000 0.000000 0.000000
# 2 -0.005040 0.012476 -0.001444 0.000000 0.000000 0.000000
# 3 -0.001444 -0.001444 0.011654 0.000000 0.000000 0.000000
# 4 0.000000 0.000000 0.000000 0.046154 0.000000 0.000000
# 5 0.000000 0.000000 0.000000 0.000000 0.046154 0.000000
# 6 0.000000 0.000000 0.000000 0.000000 0.000000 0.035033
#
#
# Mechanical properties :
#
#
# Convention : Reuss Voigt Hill
#
# Bulk Modulus (GPa) = 48.19646 49.19557 48.69601
# Shear Modulus (GPa) = 26.77781 28.46929 27.62355
#
# Velocity S-wave (km/s) = 3.53694 3.64694 3.59236
# Velocity P-wave (km/s) = 6.26068 6.38094 6.32110
#
# Compressibility (1/GPa) = 0.02074841
#
# Stress axis : x y z
#
# Youngs Moduli (GPa) = 80.15287 80.15287 85.80933
#
# Poissons Ratio (x) = 0.40401 0.12392
# Poissons Ratio (y) = 0.40401 0.12392
# Poissons Ratio (z) = 0.11576 0.11576
#
# Static dielectric constant tensor:
#      x y z
#    x 1.843410 0.000000 0.000000 
#    y 0.000000 1.843410 0.000000 
#    z 0.000000 0.000000 1.854020 
# 
# From -- ./inp_files/3173.got.cif
#   From: 2010.05.17/outbox.cif.g08.bks.cpg/sg188_2_cif.got.tgz:3173.got - 2010.05.20 12:11:46.
