data_PCOD9586947
_publ_section_title
;
Structure prediction by ZEFSAII (Michael W. Deem and Ramdas Pophale) SiO2 
 PCOD9586947
Probable space group: P -6 2 C
;
_chemical_formula_sum "Si O2"
_cell_formula_units_Z 42
_cell_length_a 14.118417
_cell_length_b 14.118417
_cell_length_c 11.279684
_cell_angle_alpha 90.000000
_cell_angle_beta 90.000000
_cell_angle_gamma 120.000000
_cell_volume 1947.150744
_symmetry_space_group_name_H-M "P -6 2 C"
_symmetry_group_IT_number 190
_symmetry_cell_setting 'hexagonal'
loop_
_space_group_symop_operation_xyz
x,y,z
-x+y,-x,1/2-z
-y,x-y,z
x,y,1/2-z
-x+y,-x,z
-y,x-y,1/2-z
x-y,-y,-z
-x,-x+y,-z
y,x,-z
y,x,1/2+z
x-y,-y,1/2+z
-x,-x+y,1/2+z
loop_
_atom_site_type_symbol
_atom_site_label
_atom_site_fract_x
_atom_site_fract_y
_atom_site_fract_z
Si Si1 0.729543 0.163770 0.250000
Si Si2 0.782241 0.456398 0.891512
Si Si3 0.881596 0.676372 0.496130
Si Si4 0.653508 0.653508 0.000000
Si Si5 0.395556 0.914432 0.750000
O O1 0.778096 0.136104 0.138557
O O2 0.599567 0.097412 0.250000
O O3 0.789022 0.295152 0.250000
O O4 0.659233 0.431410 0.927917
O O5 0.787705 0.460152 0.750000
O O6 0.874602 0.569830 0.940501
O O7 0.774261 0.677086 0.537719
O O8 0.000000 0.781930 0.500000
O O9 0.581190 0.612907 0.876437
#
# Coordination Sequence:
#
# PCOD9586947 Si02
#       5
#     6  12  12   6   6
#     4  10  25  39  62 100 134 172 220 274 350 414
#     4   8  19  38  60  92 127 166 214 263 327 415
#     4  11  25  42  65  94 131 172 231 283 340 408
#     4  10  26  46  66  98 134 188 234 294 350 420
#     4  10  23  45  70  98 146 188 226 284 358 438
#
# _framework density 21.569977000000002
#
# number of rings (size 3 to 8) (size 9 to 14) (size 15 to 20)
#    0.571    1.714    0.000    0.286   14.000    0.000 
#    0.857    0.000    0.000    0.000    0.000    0.000 
#    0.000    0.000    0.000    0.000    0.000    0.000 
#
# Total GULP energy -233970.708934 kJ/mol
# GULP energy per Si atom -5570.731165 kJ/mol
# Density = 2.152088 g / cm^3
# Si number density = 21.569977 Si / 1000 Ang^3
#
#
#
# Elastic Constant Matrix: (Units=GPa)
#
#
# Indices 1 2 3 4 5 6 
#
# 1 72.8623 32.5215 10.3003 0.0000 0.0000 0.0000
# 2 32.5215 72.8623 10.3003 0.0000 0.0000 0.0000
# 3 10.3003 10.3003 87.8395 0.0000 0.0000 0.0000
# 4 0.0000 0.0000 0.0000 41.7057 0.0000 0.0000
# 5 0.0000 0.0000 0.0000 0.0000 41.7057 0.0000
# 6 0.0000 0.0000 0.0000 0.0000 0.0000 20.1704
#
#
#
# Elastic Compliance Matrix: (Units=1/GPa)
#
#
# Indices 1 2 3 4 5 6 
#
# 1 0.017250 -0.007539 -0.001139 0.000000 0.000000 0.000000
# 2 -0.007539 0.017250 -0.001139 0.000000 0.000000 0.000000
# 3 -0.001139 -0.001139 0.011651 0.000000 0.000000 0.000000
# 4 0.000000 0.000000 0.000000 0.023978 0.000000 0.000000
# 5 0.000000 0.000000 0.000000 0.000000 0.023978 0.000000
# 6 0.000000 0.000000 0.000000 0.000000 0.000000 0.049578
#
#
# Mechanical properties :
#
#
# Convention : Reuss Voigt Hill
#
# Bulk Modulus (GPa) = 37.70785 37.75647 37.73216
# Shear Modulus (GPa) = 29.04326 32.74581 30.89454
#
# Velocity S-wave (km/s) = 3.67340 3.90053 3.78867
# Velocity P-wave (km/s) = 5.95915 6.15042 6.05554
#
# Compressibility (1/GPa) = 0.02651968
#
# Stress axis : x y z
#
# Youngs Moduli (GPa) = 57.97011 57.97011 85.82597
#
# Poissons Ratio (x) = 0.43701 0.09774
# Poissons Ratio (y) = 0.43701 0.09774
# Poissons Ratio (z) = 0.06602 0.06602
#
# Static dielectric constant tensor:
#      x y z
#    x 2.088950 0.000000 0.000000 
#    y 0.000000 2.088950 0.000000 
#    z 0.000000 0.000000 1.733300 
# 
# From -- ./inp_files/1777.got.cif
#   From: 2010.05.17/outbox.cif.g08.bks.cpg/sg190_1_cif.got.tgz:1777.got - 2010.05.20 12:16:56.
