data_PCOD9586315
_publ_section_title
;
Structure prediction by ZEFSAII (Michael W. Deem and Ramdas Pophale) SiO2 
 PCOD9586315
Probable space group: P -6 2 M
;
_chemical_formula_sum "Si O2"
_cell_formula_units_Z 44
_cell_length_a 17.266888
_cell_length_b 17.266888
_cell_length_c 9.686244
_cell_angle_alpha 90.000000
_cell_angle_beta 90.000000
_cell_angle_gamma 120.000000
_cell_volume 2501.002815
_symmetry_space_group_name_H-M "P -6 2 M"
_symmetry_group_IT_number 189
_symmetry_cell_setting 'hexagonal'
loop_
_space_group_symop_operation_xyz
x,y,z
-x+y,-x,-z
-y,x-y,z
x,y,-z
-x+y,-x,z
-y,x-y,-z
x-y,-y,-z
-x,-x+y,-z
y,x,-z
y,x,z
x-y,-y,z
-x,-x+y,z
loop_
_atom_site_type_symbol
_atom_site_label
_atom_site_fract_x
_atom_site_fract_y
_atom_site_fract_z
Si Si1 0.633519 0.805155 0.163849
Si Si2 0.347545 0.455272 0.657708
Si Si3 0.000000 0.000000 0.831414
Si Si4 0.179134 0.000000 0.832440
Si Si5 0.489559 0.597508 0.156516
O O1 0.603363 0.862401 0.253800
O O2 0.729500 0.818584 0.207833
O O3 0.557752 0.701536 0.180416
O O4 0.638583 0.826822 0.000000
O O5 0.327588 0.467244 0.500000
O O6 0.403885 0.403885 0.655853
O O7 0.409912 0.548928 0.735070
O O8 0.910215 0.910215 0.787043
O O9 0.000000 0.000000 0.000000
O O10 0.179227 0.000000 0.000000
O O11 0.547848 0.547848 0.162196
O O12 0.453397 0.585786 0.000000
#
# Coordination Sequence:
#
# PCOD9586315 Si02
#       5
#    12  12   2   6  12
#     4  10  19  34  58  86 111 142 185 231 280 334
#     4  10  22  37  53  77 110 145 183 225 271 329
#     4   9  18  30  48  84 127 152 178 231 289 329
#     4   9  18  32  53  86 119 148 186 237 285 333
#     4   9  17  34  57  80 105 135 176 226 276 325
#
# _framework density 17.592943000000002
#
# number of rings (size 3 to 8) (size 9 to 14) (size 15 to 20)
#    0.000    2.455    1.364    0.818    1.909    2.727 
#    1.636    0.682    0.000    0.000    0.000    0.000 
#    0.000    0.000    0.000    0.000    0.000    0.000 
#
# Total GULP energy -245367.193150 kJ/mol
# GULP energy per Si atom -5576.527117 kJ/mol
# Density = 1.755290 g / cm^3
# Si number density = 17.592943 Si / 1000 Ang^3
#
#
#
# Elastic Constant Matrix: (Units=GPa)
#
#
# Indices 1 2 3 4 5 6 
#
# 1 81.9450 36.7534 53.4614 0.0000 0.0000 0.0000
# 2 36.7534 81.9450 53.4614 0.0000 0.0000 0.0000
# 3 53.4614 53.4614 85.0558 0.0000 0.0000 0.0000
# 4 0.0000 0.0000 0.0000 15.5458 0.0000 0.0000
# 5 0.0000 0.0000 0.0000 0.0000 15.5458 0.0000
# 6 0.0000 0.0000 0.0000 0.0000 0.0000 22.5958
#
#
#
# Elastic Compliance Matrix: (Units=1/GPa)
#
#
# Indices 1 2 3 4 5 6 
#
# 1 0.020774 -0.001354 -0.012206 0.000000 0.000000 0.000000
# 2 -0.001354 0.020774 -0.012206 0.000000 0.000000 0.000000
# 3 -0.012206 -0.012206 0.027102 0.000000 0.000000 0.000000
# 4 0.000000 0.000000 0.000000 0.064326 0.000000 0.000000
# 5 0.000000 0.000000 0.000000 0.000000 0.064326 0.000000
# 6 0.000000 0.000000 0.000000 0.000000 0.000000 0.044256
#
#
# Mechanical properties :
#
#
# Convention : Reuss Voigt Hill
#
# Bulk Modulus (GPa) = 58.42432 59.58867 59.00649
# Shear Modulus (GPa) = 16.73378 17.75548 17.24463
#
# Velocity S-wave (km/s) = 3.08744 3.18030 3.13421
# Velocity P-wave (km/s) = 6.78165 6.88695 6.83450
#
# Compressibility (1/GPa) = 0.01711616
#
# Stress axis : x y z
#
# Youngs Moduli (GPa) = 48.13687 48.13687 36.89815
#
# Poissons Ratio (x) = 0.06517 0.45040
# Poissons Ratio (y) = 0.06517 0.45040
# Poissons Ratio (z) = 0.58758 0.58758
#
# Static dielectric constant tensor:
#      x y z
#    x 1.586980 0.000000 0.000000 
#    y 0.000000 1.586980 0.000000 
#    z 0.000000 0.000000 1.591560 
# 
# From -- ./inp_files/585.got.cif
#   From: 2010.05.17/outbox.cif.g08.bks.cpg/sg189_1_cif.got.tgz:585.got - 2010.05.20 12:14:34.
