data_PCOD9586584
_publ_section_title
;
Structure prediction by ZEFSAII (Michael W. Deem and Ramdas Pophale) SiO2 
 PCOD9586584
Probable space group: P -6 2 M
;
_chemical_formula_sum "Si O2"
_cell_formula_units_Z 64
_cell_length_a 22.101838
_cell_length_b 22.101838
_cell_length_c 7.339569
_cell_angle_alpha 90.000000
_cell_angle_beta 90.000000
_cell_angle_gamma 120.000000
_cell_volume 3104.974030
_symmetry_space_group_name_H-M "P -6 2 M"
_symmetry_group_IT_number 189
_symmetry_cell_setting 'hexagonal'
loop_
_space_group_symop_operation_xyz
x,y,z
-x+y,-x,-z
-y,x-y,z
x,y,-z
-x+y,-x,z
-y,x-y,-z
x-y,-y,-z
-x,-x+y,-z
y,x,-z
y,x,z
x-y,-y,z
-x,-x+y,z
loop_
_atom_site_type_symbol
_atom_site_label
_atom_site_fract_x
_atom_site_fract_y
_atom_site_fract_z
Si Si1 0.451032 0.279052 0.277150
Si Si2 0.801533 0.332906 0.721577
Si Si3 0.079844 0.921674 0.218309
Si Si4 0.920943 0.706325 0.283973
Si Si5 0.666667 0.333334 0.720671
Si Si6 0.522569 0.441877 0.277804
O O1 0.454132 0.280005 0.500000
O O2 0.485262 0.232626 0.218425
O O3 0.370924 0.241638 0.215461
O O4 0.488368 0.360496 0.222711
O O5 0.803161 0.331680 0.500000
O O6 0.744112 0.354243 0.776128
O O7 0.876910 0.395791 0.778458
O O8 0.105105 0.866695 0.257881
O O9 0.000000 0.887405 0.286539
O O10 0.127942 0.000000 0.286618
O O11 0.076608 0.925300 0.000000
O O12 0.925940 0.698909 0.500000
O O13 0.000000 0.742450 0.209785
O O14 0.666667 0.333334 0.500000
O O15 0.521003 0.441736 0.500000
O O16 0.478968 0.478968 0.217906
#
# Coordination Sequence:
#
# PCOD9586584 Si02
#       6
#    12  12  12  12   4  12
#     4   9  15  23  35  50  73 107 140 168 204 250
#     4   9  14  20  31  47  67  96 135 173 208 246
#     4   9  17  30  48  67  85 106 136 175 214 248
#     4   9  17  28  41  60  87 116 143 170 205 252
#     4   9  12  18  30  45  63  90 130 170 205 246
#     4   9  15  21  30  45  66  94 130 170 208 246
#
# _framework density 20.612089000000001
#
# number of rings (size 3 to 8) (size 9 to 14) (size 15 to 20)
#    0.000    3.000    1.875    0.750    0.000    3.375 
#    0.000    0.938    0.000    4.500    0.000    0.000 
#    0.000    1.500    0.000    5.438    0.000    4.500 
#
# Total GULP energy -356925.421163 kJ/mol
# GULP energy per Si atom -5576.959706 kJ/mol
# Density = 2.056518 g / cm^3
# Si number density = 20.612089 Si / 1000 Ang^3
#
#
#
# Elastic Constant Matrix: (Units=GPa)
#
#
# Indices 1 2 3 4 5 6 
#
# 1 170.1672 112.6029 2.5642 -0.0001 0.0001 0.0000
# 2 112.6029 170.1660 2.5641 -0.0001 -0.0001 -0.0001
# 3 2.5642 2.5641 77.1588 0.0000 0.0000 0.0000
# 4 -0.0001 -0.0001 0.0000 11.4371 0.0000 0.0001
# 5 0.0001 -0.0001 0.0000 0.0000 11.4372 0.0000
# 6 0.0000 -0.0001 0.0000 0.0001 0.0000 28.7818
#
#
#
# Elastic Compliance Matrix: (Units=1/GPa)
#
#
# Indices 1 2 3 4 5 6 
#
# 1 0.010455 -0.006917 -0.000118 0.000000 0.000000 0.000000
# 2 -0.006917 0.010455 -0.000118 0.000000 0.000000 0.000000
# 3 -0.000118 -0.000118 0.012968 0.000000 0.000000 0.000000
# 4 0.000000 0.000000 0.000000 0.087434 0.000000 0.000000
# 5 0.000000 0.000000 0.000000 0.000000 0.087434 0.000000
# 6 0.000000 0.000000 0.000000 0.000000 0.000000 0.034744
#
#
# Mechanical properties :
#
#
# Convention : Reuss Voigt Hill
#
# Bulk Modulus (GPa) = 51.08586 72.55049 61.81818
# Shear Modulus (GPa) = 18.91644 30.31529 24.61586
#
# Velocity S-wave (km/s) = 3.03270 3.83920 3.45953
# Velocity P-wave (km/s) = 6.09108 7.41128 6.78337
#
# Compressibility (1/GPa) = 0.01957489
#
# Stress axis : x y z
#
# Youngs Moduli (GPa) = 95.64538 95.64473 77.11230
#
# Poissons Ratio (x) = 0.66155 0.00907
# Poissons Ratio (y) = 0.66155 0.00907
# Poissons Ratio (z) = 0.01125 0.01125
#
# Static dielectric constant tensor:
#      x y z
#    x 1.724220 0.000000 0.000000 
#    y 0.000000 1.724220 0.000000 
#    z 0.000000 0.000000 1.801470 
# 
# From -- ./inp_files/2035.got.cif
#   From: 2010.05.17/outbox.cif.g08.bks.cpg/sg189_2_cif.got.tgz:2035.got - 2010.05.20 12:14:34.
