data_PCOD9586442
_publ_section_title
;
Structure prediction by ZEFSAII (Michael W. Deem and Ramdas Pophale) SiO2 
 PCOD9586442
Probable space group: P -6 2 M
;
_chemical_formula_sum "Si O2"
_cell_formula_units_Z 84
_cell_length_a 15.073466
_cell_length_b 15.073466
_cell_length_c 22.334520
_cell_angle_alpha 90.000000
_cell_angle_beta 90.000000
_cell_angle_gamma 120.000000
_cell_volume 4394.743236
_symmetry_space_group_name_H-M "P -6 2 M"
_symmetry_group_IT_number 189
_symmetry_cell_setting 'hexagonal'
loop_
_space_group_symop_operation_xyz
x,y,z
-x+y,-x,-z
-y,x-y,z
x,y,-z
-x+y,-x,z
-y,x-y,-z
x-y,-y,-z
-x,-x+y,-z
y,x,-z
y,x,z
x-y,-y,z
-x,-x+y,z
loop_
_atom_site_type_symbol
_atom_site_label
_atom_site_fract_x
_atom_site_fract_y
_atom_site_fract_z
Si Si1 0.403381 0.883002 0.737610
Si Si2 0.458800 0.198051 0.624131
Si Si3 0.120949 0.879437 0.570307
Si Si4 0.544344 0.123068 0.933344
Si Si5 0.268965 0.886586 0.151455
Si Si6 0.122895 0.668151 0.175066
Si Si7 0.589891 0.119984 0.567981
O O1 0.320705 0.825650 0.686523
O O2 0.343856 0.889693 0.795827
O O3 0.474797 0.841406 0.765222
O O4 0.476818 0.000000 0.715831
O O5 0.338229 0.150060 0.612725
O O6 0.501206 0.147723 0.576547
O O7 0.509007 0.318124 0.611670
O O8 0.135909 0.861275 0.500000
O O9 0.000000 0.811787 0.582906
O O10 0.160888 0.000000 0.576320
O O11 0.449810 0.133491 0.908329
O O12 0.631208 0.161537 0.882514
O O13 0.497605 0.000000 0.935925
O O14 0.577457 0.165126 0.000000
O O15 0.162648 0.787500 0.167465
O O16 0.284322 0.000000 0.148313
O O17 0.000000 0.602971 0.176447
O O18 0.628897 0.142420 0.500000
O O19 0.544883 0.000000 0.578812
#
# Coordination Sequence:
#
# PCOD9586442 Si02
#       7
#    12  12  12  12  12  12  12
#     4   9  20  37  55  77 106 140 186 231 276 334
#     4  12  23  38  59  80 109 148 185 230 285 341
#     4  10  20  36  60  88 116 147 185 230 282 339
#     4   8  15  30  51  76 110 150 189 231 276 324
#     4   9  18  34  54  77 110 149 186 232 282 326
#     4   9  18  34  55  79 113 152 188 232 280 330
#     4  11  24  40  57  81 112 145 185 228 275 341
#
# _framework density 19.113745999999999
#
# number of rings (size 3 to 8) (size 9 to 14) (size 15 to 20)
#    0.000    2.286    0.000    5.143    2.000    3.429 
#    6.857    0.714    0.000    0.286    0.000    0.000 
#    0.000    0.000    0.000    7.143    0.000    0.000 
#
# Total GULP energy -468567.731621 kJ/mol
# GULP energy per Si atom -5578.187281 kJ/mol
# Density = 1.907024 g / cm^3
# Si number density = 19.113746 Si / 1000 Ang^3
#
#
#
# Elastic Constant Matrix: (Units=GPa)
#
#
# Indices 1 2 3 4 5 6 
#
# 1 90.8168 39.5720 48.2335 0.0000 0.0000 0.0000
# 2 39.5720 90.8168 48.2335 0.0000 0.0000 0.0000
# 3 48.2335 48.2335 105.4148 0.0000 0.0000 0.0000
# 4 0.0000 0.0000 0.0000 16.7656 0.0000 0.0000
# 5 0.0000 0.0000 0.0000 0.0000 16.7656 0.0000
# 6 0.0000 0.0000 0.0000 0.0000 0.0000 25.6224
#
#
#
# Elastic Compliance Matrix: (Units=1/GPa)
#
#
# Indices 1 2 3 4 5 6 
#
# 1 0.015554 -0.003960 -0.005305 0.000000 0.000000 0.000000
# 2 -0.003960 0.015554 -0.005305 0.000000 0.000000 0.000000
# 3 -0.005305 -0.005305 0.014341 0.000000 0.000000 0.000000
# 4 0.000000 0.000000 0.000000 0.059646 0.000000 0.000000
# 5 0.000000 0.000000 0.000000 0.000000 0.059646 0.000000
# 6 0.000000 0.000000 0.000000 0.000000 0.000000 0.039028
#
#
# Mechanical properties :
#
#
# Convention : Reuss Voigt Hill
#
# Bulk Modulus (GPa) = 61.31441 62.12516 61.71979
# Shear Modulus (GPa) = 20.97786 21.89800 21.43793
#
# Velocity S-wave (km/s) = 3.31649 3.38844 3.35266
# Velocity P-wave (km/s) = 6.84206 6.91969 6.88099
#
# Compressibility (1/GPa) = 0.01630938
#
# Stress axis : x y z
#
# Youngs Moduli (GPa) = 64.29118 64.29118 69.72965
#
# Poissons Ratio (x) = 0.25459 0.36992
# Poissons Ratio (y) = 0.25459 0.36992
# Poissons Ratio (z) = 0.34107 0.34107
#
# Static dielectric constant tensor:
#      x y z
#    x 1.674400 0.000000 0.000000 
#    y 0.000000 1.674400 0.000000 
#    z 0.000000 0.000000 1.702940 
# 
# From -- ./inp_files/3590.got.cif
#   From: 2010.05.17/outbox.cif.g08.bks.cpg/sg189_2_cif.got.tgz:3590.got - 2010.05.20 12:14:34.
