data_PCOD9586971
_publ_section_title
;
Structure prediction by ZEFSAII (Michael W. Deem and Ramdas Pophale) SiO2 
 PCOD9586971
Probable space group: P -6 2 C
;
_chemical_formula_sum "Si O2"
_cell_formula_units_Z 58
_cell_length_a 14.344174
_cell_length_b 14.344174
_cell_length_c 15.228763
_cell_angle_alpha 90.000000
_cell_angle_beta 90.000000
_cell_angle_gamma 120.000000
_cell_volume 2713.603240
_symmetry_space_group_name_H-M "P -6 2 C"
_symmetry_group_IT_number 190
_symmetry_cell_setting 'hexagonal'
loop_
_space_group_symop_operation_xyz
x,y,z
-x+y,-x,1/2-z
-y,x-y,z
x,y,1/2-z
-x+y,-x,z
-y,x-y,1/2-z
x-y,-y,-z
-x,-x+y,-z
y,x,-z
y,x,1/2+z
x-y,-y,1/2+z
-x,-x+y,1/2+z
loop_
_atom_site_type_symbol
_atom_site_label
_atom_site_fract_x
_atom_site_fract_y
_atom_site_fract_z
Si Si1 0.804367 0.364358 0.750000
Si Si2 0.461669 0.006031 0.891447
Si Si3 0.876888 0.763826 0.849486
Si Si4 0.321146 0.099613 0.147895
Si Si5 0.000000 0.000000 0.895137
Si Si6 0.024883 0.675523 0.900647
O O1 0.691866 0.248136 0.750000
O O2 0.879836 0.384529 0.837095
O O3 0.342178 0.923942 0.859029
O O4 0.546153 0.969851 0.859762
O O5 0.451016 0.000000 0.000000
O O6 0.841496 0.737542 0.750000
O O7 0.778167 0.769040 0.893897
O O8 0.924069 0.688455 0.873271
O O9 0.975361 0.885169 0.860119
O O10 0.298515 0.110596 0.250000
O O11 0.342841 0.210110 0.105853
O O12 0.000000 0.000000 0.000000
O O13 0.000000 0.642642 0.000000
#
# Coordination Sequence:
#
# PCOD9586971 Si02
#       6
#     6  12  12  12   4  12
#     4  10  26  48  82 110 148 208 282 328 402 480
#     4  11  27  46  72 107 147 193 260 331 394 469
#     4  11  23  37  63  95 134 172 223 274 348 433
#     4  11  25  42  69 103 138 189 234 295 376 466
#     4  12  22  35  55  93 133 173 211 261 331 428
#     4  11  26  43  67 102 136 185 235 299 372 451
#
# _framework density 21.373794
#
# number of rings (size 3 to 8) (size 9 to 14) (size 15 to 20)
#    0.207    0.828    3.103    1.862    8.690    1.655 
#    1.241    0.000    0.000    0.000    0.000    0.000 
#    0.000    0.000    0.000    0.000    0.000    0.000 
#
# Total GULP energy -323268.942188 kJ/mol
# GULP energy per Si atom -5573.602452 kJ/mol
# Density = 2.132515 g / cm^3
# Si number density = 21.373794 Si / 1000 Ang^3
#
#
#
# Elastic Constant Matrix: (Units=GPa)
#
#
# Indices 1 2 3 4 5 6 
#
# 1 61.0168 68.6641 13.4201 0.0000 0.0000 0.0000
# 2 68.6641 61.0168 13.4201 0.0000 0.0000 0.0000
# 3 13.4201 13.4201 79.4992 0.0000 0.0000 0.0000
# 4 0.0000 0.0000 0.0000 33.8600 0.0000 0.0000
# 5 0.0000 0.0000 0.0000 0.0000 33.8600 0.0000
# 6 0.0000 0.0000 0.0000 0.0000 0.0000 -3.8237
#
#
#
# Elastic Compliance Matrix: (Units=1/GPa)
#
#
# Indices 1 2 3 4 5 6 
#
# 1 -0.061387 0.069378 -0.001349 0.000000 0.000000 0.000000
# 2 0.069378 -0.061387 -0.001349 0.000000 0.000000 0.000000
# 3 -0.001349 -0.001349 0.013034 0.000000 0.000000 0.000000
# 4 0.000000 0.000000 0.000000 0.029533 0.000000 0.000000
# 5 0.000000 0.000000 0.000000 0.000000 0.029533 0.000000
# 6 0.000000 0.000000 0.000000 0.000000 0.000000 -0.261530
#
#
# Mechanical properties :
#
#
# Convention : Reuss Voigt Hill
#
# Bulk Modulus (GPa) = 42.33780 43.61573 42.97676
# Shear Modulus (GPa) = -11.42360 19.84783 4.21211
#
# Velocity S-wave (km/s) = -2.31436 3.05061 1.40534
# Velocity P-wave (km/s) = 3.56505 5.73226 4.77328
#
# Compressibility (1/GPa) = 0.02361956
#
# Stress axis : x y z
#
# Youngs Moduli (GPa) = -16.29003 -16.29003 76.72166
#
# Poissons Ratio (x) = 1.13016 0.10349
# Poissons Ratio (y) = 1.13016 0.10349
# Poissons Ratio (z) = -0.02197 -0.02197
#
# Static dielectric constant tensor:
#      x y z
#    x 1.936710 0.000000 0.000000 
#    y 0.000000 1.936710 0.000000 
#    z 0.000000 0.000000 1.778750 
# 
# From -- ./inp_files/2853.got.cif
#   From: 2010.05.17/outbox.cif.g08.bks.cpg/sg190_2_cif.got.tgz:2853.got - 2010.05.20 12:16:56.
