data_PCOD9586086
_publ_section_title
;
Structure prediction by ZEFSAII (Michael W. Deem and Ramdas Pophale) SiO2 
 PCOD9586086
Probable space group: P -6 C 2
;
_chemical_formula_sum "Si O2"
_cell_formula_units_Z 58
_cell_length_a 14.267563
_cell_length_b 14.267563
_cell_length_c 14.761347
_cell_angle_alpha 90.000000
_cell_angle_beta 90.000000
_cell_angle_gamma 120.000000
_cell_volume 2602.293153
_symmetry_space_group_name_H-M "P -6 C 2"
_symmetry_group_IT_number 188
_symmetry_cell_setting 'hexagonal'
loop_
_space_group_symop_operation_xyz
x,y,z
-x+y,-x,1/2-z
-y,x-y,z
x,y,1/2-z
-x+y,-x,z
-y,x-y,1/2-z
-y,-x,-z
-x+y,y,-z
x,x-y,-z
-x+y,y,1/2+z
x,x-y,1/2+z
-y,-x,1/2+z
loop_
_atom_site_type_symbol
_atom_site_label
_atom_site_fract_x
_atom_site_fract_y
_atom_site_fract_z
Si Si1 0.230568 0.425772 0.897973
Si Si2 0.644580 0.087773 0.250000
Si Si3 0.333335 0.666668 0.642599
Si Si4 0.526562 0.529241 0.103445
Si Si5 0.917154 0.150613 0.250000
Si Si6 0.766117 0.591544 0.105018
Si Si7 0.745933 0.839623 0.750000
O O1 0.248163 0.546151 0.889349
O O2 0.348806 0.443723 0.873134
O O3 0.144280 0.333366 0.834180
O O4 0.195050 0.390100 0.000000
O O5 0.560944 0.005738 0.171260
O O6 0.721180 0.173753 0.330743
O O7 0.333334 0.666668 0.750000
O O8 0.636783 0.523083 0.110053
O O9 0.489454 0.510547 0.000000
O O10 0.907541 0.204820 0.342426
O O11 0.034282 0.162464 0.250000
O O12 0.806388 0.035187 0.250000
O O13 0.802328 0.604656 0.000000
#
# Coordination Sequence:
#
# PCOD9586086 Si02
#       7
#    12   6   4  12   6  12   6
#     4  12  27  48  74 111 157 201 252 323 385 470
#     4  11  24  42  71  99 142 199 242 312 373 443
#     4  12  25  44  70 112 155 193 256 302 373 475
#     4  12  24  46  73 105 151 203 254 318 392 458
#     4  11  26  45  74 100 150 185 249 320 376 456
#     4  11  24  45  67 105 144 191 255 308 374 450
#     4  12  26  47  75 111 142 198 251 314 397 447
#
# _framework density 22.288032999999999
#
# number of rings (size 3 to 8) (size 9 to 14) (size 15 to 20)
#    0.000    0.414    5.172    3.931    2.897    3.310 
#    4.966    1.034    0.000    2.483    0.000    0.000 
#    0.000    0.000    0.000    0.000    0.000    0.000 
#
# Total GULP energy -323050.459598 kJ/mol
# GULP energy per Si atom -5569.835510 kJ/mol
# Density = 2.223730 g / cm^3
# Si number density = 22.288033 Si / 1000 Ang^3
#
#
#
# Elastic Constant Matrix: (Units=GPa)
#
#
# Indices 1 2 3 4 5 6 
#
# 1 86.7749 9.0801 19.6739 0.0003 0.0000 -0.0001
# 2 9.0801 86.7736 19.6739 -0.0004 0.0001 -0.0003
# 3 19.6739 19.6739 192.9715 0.0001 0.0001 0.0000
# 4 0.0003 -0.0004 0.0001 38.8785 -0.0002 0.0000
# 5 0.0000 0.0001 0.0001 -0.0002 38.8787 0.0003
# 6 -0.0001 -0.0003 0.0000 0.0000 0.0003 38.8472
#
#
#
# Elastic Compliance Matrix: (Units=1/GPa)
#
#
# Indices 1 2 3 4 5 6 
#
# 1 0.011879 -0.000991 -0.001110 0.000000 0.000000 0.000000
# 2 -0.000991 0.011880 -0.001110 0.000000 0.000000 0.000000
# 3 -0.001110 -0.001110 0.005408 0.000000 0.000000 0.000000
# 4 0.000000 0.000000 0.000000 0.025721 0.000000 0.000000
# 5 0.000000 0.000000 0.000000 0.000000 0.025721 0.000000
# 6 0.000000 0.000000 0.000000 0.000000 0.000000 0.025742
#
#
# Mechanical properties :
#
#
# Convention : Reuss Voigt Hill
#
# Bulk Modulus (GPa) = 43.96664 51.48620 47.72642
# Shear Modulus (GPa) = 41.54332 44.52702 43.03517
#
# Velocity S-wave (km/s) = 4.32201 4.47452 4.39893
# Velocity P-wave (km/s) = 6.68399 7.06015 6.87464
#
# Compressibility (1/GPa) = 0.02274452
#
# Stress axis : x y z
#
# Youngs Moduli (GPa) = 84.17870 84.17748 184.89549
#
# Poissons Ratio (x) = 0.08345 0.20525
# Poissons Ratio (y) = 0.08345 0.20525
# Poissons Ratio (z) = 0.09344 0.09344
#
# Static dielectric constant tensor:
#      x y z
#    x 1.904970 0.000000 0.000000 
#    y 0.000000 1.904970 0.000000 
#    z 0.000000 0.000000 1.723050 
# 
# From -- ./inp_files/2351.got.cif
#   From: 2010.05.17/outbox.cif.g08.bks.cpg/sg188_2_cif.got.tgz:2351.got - 2010.05.20 12:11:46.
