data_PCOD9586872
_publ_section_title
;
Structure prediction by ZEFSAII (Michael W. Deem and Ramdas Pophale) SiO2 
 PCOD9586872
Probable space group: P -6 2 C
;
_chemical_formula_sum "Si O2"
_cell_formula_units_Z 60
_cell_length_a 15.735594
_cell_length_b 15.735594
_cell_length_c 13.850808
_cell_angle_alpha 90.000000
_cell_angle_beta 90.000000
_cell_angle_gamma 120.000000
_cell_volume 2970.106513
_symmetry_space_group_name_H-M "P -6 2 C"
_symmetry_group_IT_number 190
_symmetry_cell_setting 'hexagonal'
loop_
_space_group_symop_operation_xyz
x,y,z
-x+y,-x,1/2-z
-y,x-y,z
x,y,1/2-z
-x+y,-x,z
-y,x-y,1/2-z
x-y,-y,-z
-x,-x+y,-z
y,x,-z
y,x,1/2+z
x-y,-y,1/2+z
-x,-x+y,1/2+z
loop_
_atom_site_type_symbol
_atom_site_label
_atom_site_fract_x
_atom_site_fract_y
_atom_site_fract_z
Si Si1 0.663433 0.603742 0.136327
Si Si2 0.603742 0.940308 0.363673
Si Si3 0.165828 0.732074 0.863959
Si Si4 0.421779 0.843557 1.000000
Si Si5 0.566244 0.732073 0.363959
O O1 0.642800 0.582494 0.250000
O O2 0.772484 0.621210 0.119083
O O3 0.636053 0.686806 0.112966
O O4 0.598955 0.507706 0.074405
O O5 0.582494 0.939694 0.250000
O O6 0.507707 0.908752 0.425596
O O7 0.621209 0.848725 0.380917
O O8 0.686807 0.050752 0.387034
O O9 0.175052 0.715946 0.750000
O O10 0.204651 0.672740 0.928524
O O11 0.327262 0.795348 0.071476
O O12 0.540892 0.715945 0.250000
#
# Coordination Sequence:
#
# PCOD9586872 Si02
#       5
#    12  12  12  12  12
#     4  10  21  37  57  81 110 144 181 222 270 324
#     4  10  21  37  57  81 110 144 181 222 270 324
#     4  10  21  37  57  81 110 144 181 222 270 324
#     4  12  21  34  56  78 104 142 184 224 266 316
#     4  10  21  37  57  81 110 144 181 222 270 324
#
# _framework density 20.201295999999999
#
# number of rings (size 3 to 8) (size 9 to 14) (size 15 to 20)
#    0.000    1.600    0.000    6.000    0.000    3.200 
#    9.600    0.000    0.000    0.800    0.000    5.600 
#    0.000    6.400    0.000    0.800    0.000    0.000 
#
# Total GULP energy -334951.802417 kJ/mol
# GULP energy per Si atom -5582.530040 kJ/mol
# Density = 2.015532 g / cm^3
# Si number density = 20.201296 Si / 1000 Ang^3
#
#
#
# Elastic Constant Matrix: (Units=GPa)
#
#
# Indices 1 2 3 4 5 6 
#
# 1 87.9056 54.8761 49.2308 0.0000 0.0000 0.0000
# 2 54.8761 87.9056 49.2308 0.0000 0.0000 0.0000
# 3 49.2308 49.2308 83.2066 0.0000 0.0000 0.0000
# 4 0.0000 0.0000 0.0000 36.1407 0.0000 0.0000
# 5 0.0000 0.0000 0.0000 0.0000 36.1407 0.0000
# 6 0.0000 0.0000 0.0000 0.0000 0.0000 16.5148
#
#
#
# Elastic Compliance Matrix: (Units=1/GPa)
#
#
# Indices 1 2 3 4 5 6 
#
# 1 0.021053 -0.009223 -0.007000 0.000000 0.000000 0.000000
# 2 -0.009223 0.021053 -0.007000 0.000000 0.000000 0.000000
# 3 -0.007000 -0.007000 0.020302 0.000000 0.000000 0.000000
# 4 0.000000 0.000000 0.000000 0.027670 0.000000 0.000000
# 5 0.000000 0.000000 0.000000 0.000000 0.027670 0.000000
# 6 0.000000 0.000000 0.000000 0.000000 0.000000 0.060552
#
#
# Mechanical properties :
#
#
# Convention : Reuss Voigt Hill
#
# Bulk Modulus (GPa) = 62.64300 62.85480 62.74890
# Shear Modulus (GPa) = 21.73294 24.80457 23.26876
#
# Velocity S-wave (km/s) = 3.28353 3.50790 3.39757
# Velocity P-wave (km/s) = 6.74182 6.89847 6.82060
#
# Compressibility (1/GPa) = 0.01596348
#
# Stress axis : x y z
#
# Youngs Moduli (GPa) = 47.49833 47.49833 49.25733
#
# Poissons Ratio (x) = 0.43806 0.34480
# Poissons Ratio (y) = 0.43806 0.34480
# Poissons Ratio (z) = 0.33248 0.33248
#
# Static dielectric constant tensor:
#      x y z
#    x 1.751430 0.000000 0.000000 
#    y 0.000000 1.751430 0.000000 
#    z 0.000000 0.000000 1.779710 
# 
# From -- ./inp_files/2786.got.cif
#   From: 2010.05.17/outbox.cif.g08.bks.cpg/sg190_2_cif.got.tgz:2786.got - 2010.05.20 12:16:56.
