data_PCOD9586532
_publ_section_title
;
Structure prediction by ZEFSAII (Michael W. Deem and Ramdas Pophale) SiO2 
 PCOD9586532
Probable space group: P -6 2 M
;
_chemical_formula_sum "Si O2"
_cell_formula_units_Z 44
_cell_length_a 17.386583
_cell_length_b 17.386583
_cell_length_c 9.014880
_cell_angle_alpha 90.000000
_cell_angle_beta 90.000000
_cell_angle_gamma 120.000000
_cell_volume 2360.038338
_symmetry_space_group_name_H-M "P -6 2 M"
_symmetry_group_IT_number 189
_symmetry_cell_setting 'hexagonal'
loop_
_space_group_symop_operation_xyz
x,y,z
-x+y,-x,-z
-y,x-y,z
x,y,-z
-x+y,-x,z
-y,x-y,-z
x-y,-y,-z
-x,-x+y,-z
y,x,-z
y,x,z
x-y,-y,z
-x,-x+y,z
loop_
_atom_site_type_symbol
_atom_site_label
_atom_site_fract_x
_atom_site_fract_y
_atom_site_fract_z
Si Si1 0.599367 0.107216 0.829492
Si Si2 0.000000 0.820582 0.321032
Si Si3 0.445716 0.106870 0.668543
Si Si4 0.203401 0.357746 0.177358
Si Si5 0.000000 0.000000 0.320162
O O1 0.543841 0.138476 0.730594
O O2 0.698214 0.135090 0.780265
O O3 0.545042 0.000000 0.829059
O O4 0.602795 0.136633 0.000000
O O5 0.000000 0.817148 0.500000
O O6 0.085675 0.819043 0.257411
O O7 0.000000 0.910430 0.274767
O O8 0.448309 0.137609 0.500000
O O9 0.392113 0.137773 0.772621
O O10 0.394210 0.000000 0.667543
O O11 0.202776 0.345587 0.000000
O O12 0.000000 0.000000 0.500000
#
# Coordination Sequence:
#
# PCOD9586532 Si02
#       5
#    12   6  12  12   2
#     4   9  18  37  60  82 112 148 189 238 291 350
#     4  11  23  41  65  90 123 166 211 261 316 369
#     4  10  22  38  58  86 118 152 195 245 297 356
#     4  11  22  39  62  91 121 158 204 249 305 370
#     4   9  24  45  61  86 127 168 205 257 316 363
#
# _framework density 18.643764000000001
#
# number of rings (size 3 to 8) (size 9 to 14) (size 15 to 20)
#    0.000    1.909    1.364    2.045    1.909    3.818 
#    1.636    2.045    0.000    0.000    0.000    0.000 
#    0.000    0.000    0.000    0.000    0.000    0.000 
#
# Total GULP energy -245599.100473 kJ/mol
# GULP energy per Si atom -5581.797738 kJ/mol
# Density = 1.860133 g / cm^3
# Si number density = 18.643764 Si / 1000 Ang^3
#
#
#
# Elastic Constant Matrix: (Units=GPa)
#
#
# Indices 1 2 3 4 5 6 
#
# 1 95.6809 53.6576 44.4986 0.0000 0.0000 0.0000
# 2 53.6576 95.6809 44.4986 0.0000 0.0000 0.0000
# 3 44.4986 44.4986 63.2962 0.0000 0.0000 0.0000
# 4 0.0000 0.0000 0.0000 32.1834 0.0000 0.0000
# 5 0.0000 0.0000 0.0000 0.0000 32.1834 0.0000
# 6 0.0000 0.0000 0.0000 0.0000 0.0000 21.0117
#
#
#
# Elastic Compliance Matrix: (Units=1/GPa)
#
#
# Indices 1 2 3 4 5 6 
#
# 1 0.017660 -0.006136 -0.008102 0.000000 0.000000 0.000000
# 2 -0.006136 0.017660 -0.008102 0.000000 0.000000 0.000000
# 3 -0.008102 -0.008102 0.027190 0.000000 0.000000 0.000000
# 4 0.000000 0.000000 0.000000 0.031072 0.000000 0.000000
# 5 0.000000 0.000000 0.000000 0.000000 0.031072 0.000000
# 6 0.000000 0.000000 0.000000 0.000000 0.000000 0.047593
#
#
# Mechanical properties :
#
#
# Convention : Reuss Voigt Hill
#
# Bulk Modulus (GPa) = 56.08030 59.99639 58.03834
# Shear Modulus (GPa) = 22.43449 24.54258 23.48854
#
# Velocity S-wave (km/s) = 3.47266 3.63215 3.55330
# Velocity P-wave (km/s) = 6.79885 7.05977 6.93054
#
# Compressibility (1/GPa) = 0.01783157
#
# Stress axis : x y z
#
# Youngs Moduli (GPa) = 56.62390 56.62390 36.77767
#
# Poissons Ratio (x) = 0.34744 0.29797
# Poissons Ratio (y) = 0.34744 0.29797
# Poissons Ratio (z) = 0.45876 0.45876
#
# Static dielectric constant tensor:
#      x y z
#    x 1.625210 0.000000 0.000000 
#    y 0.000000 1.625210 0.000000 
#    z 0.000000 0.000000 1.640330 
# 
# From -- ./inp_files/587.got.cif
#   From: 2010.05.17/outbox.cif.g08.bks.cpg/sg189_1_cif.got.tgz:587.got - 2010.05.20 12:14:34.
