data_PCOD9586334
_publ_section_title
;
Structure prediction by ZEFSAII (Michael W. Deem and Ramdas Pophale) SiO2 
 PCOD9586334
Probable space group: P -6 2 M
;
_chemical_formula_sum "Si O2"
_cell_formula_units_Z 72
_cell_length_a 24.712448
_cell_length_b 24.712448
_cell_length_c 7.692029
_cell_angle_alpha 90.000000
_cell_angle_beta 90.000000
_cell_angle_gamma 120.000000
_cell_volume 4068.207364
_symmetry_space_group_name_H-M "P -6 2 M"
_symmetry_group_IT_number 189
_symmetry_cell_setting 'hexagonal'
loop_
_space_group_symop_operation_xyz
x,y,z
-x+y,-x,-z
-y,x-y,z
x,y,-z
-x+y,-x,z
-y,x-y,-z
x-y,-y,-z
-x,-x+y,-z
y,x,-z
y,x,z
x-y,-y,z
-x,-x+y,z
loop_
_atom_site_type_symbol
_atom_site_label
_atom_site_fract_x
_atom_site_fract_y
_atom_site_fract_z
Si Si1 0.858022 0.929649 0.790462
Si Si2 0.740746 0.475318 0.713381
Si Si3 0.929067 0.396866 0.206564
Si Si4 0.851176 0.252710 0.703753
Si Si5 0.928877 0.191961 0.291546
Si Si6 0.406704 0.596827 0.290635
O O1 0.900613 0.900613 0.728038
O O2 0.787253 0.879846 0.742982
O O3 0.885058 0.000000 0.726601
O O4 0.861794 0.931775 0.000000
O O5 0.741057 0.475814 0.500000
O O6 0.759749 0.544702 0.775355
O O7 0.784515 0.448178 0.771648
O O8 0.668353 0.431403 0.766085
O O9 0.898512 0.327114 0.283239
O O10 0.879819 0.420203 0.242199
O O11 0.000000 0.441249 0.269405
O O12 0.931271 0.390238 0.000000
O O13 0.840300 0.236559 0.500000
O O14 0.883831 0.215989 0.779582
O O15 0.932289 0.200590 0.500000
O O16 0.000000 0.232929 0.223568
O O17 0.404767 0.597197 0.500000
#
# Coordination Sequence:
#
# PCOD9586334 Si02
#       6
#    12  12  12  12  12  12
#     4   9  17  29  45  64  86 113 145 180 217 258
#     4   8  14  25  44  68  88 109 139 175 212 252
#     4  10  20  31  43  63  91 119 148 183 220 258
#     4   9  17  30  48  68  90 116 146 180 220 265
#     4   9  17  28  43  65  91 116 142 175 217 263
#     4   9  16  28  47  68  90 115 144 178 218 264
#
# _framework density 17.698212000000002
#
# number of rings (size 3 to 8) (size 9 to 14) (size 15 to 20)
#    0.000    3.000    0.000    2.500    0.000    5.000 
#    0.000    5.000    0.000    2.000    0.000    7.000 
#    0.000    0.000    0.000    0.000    0.000    0.000 
#
# Total GULP energy -401260.141274 kJ/mol
# GULP energy per Si atom -5573.057518 kJ/mol
# Density = 1.765793 g / cm^3
# Si number density = 17.698212 Si / 1000 Ang^3
#
#
#
# Elastic Constant Matrix: (Units=GPa)
#
#
# Indices 1 2 3 4 5 6 
#
# 1 142.9535 92.2653 -4.1891 0.0000 0.0000 0.0000
# 2 92.2653 142.9535 -4.1891 0.0000 0.0000 0.0000
# 3 -4.1891 -4.1891 25.9005 0.0000 0.0000 0.0000
# 4 0.0000 0.0000 0.0000 37.1936 0.0000 0.0000
# 5 0.0000 0.0000 0.0000 0.0000 37.1936 0.0000
# 6 0.0000 0.0000 0.0000 0.0000 0.0000 25.3441
#
#
#
# Elastic Compliance Matrix: (Units=1/GPa)
#
#
# Indices 1 2 3 4 5 6 
#
# 1 0.012002 -0.007726 0.000692 0.000000 0.000000 0.000000
# 2 -0.007726 0.012002 0.000692 0.000000 0.000000 0.000000
# 3 0.000692 0.000692 0.038833 0.000000 0.000000 0.000000
# 4 0.000000 0.000000 0.000000 0.026886 0.000000 0.000000
# 5 0.000000 0.000000 0.000000 0.000000 0.026886 0.000000
# 6 0.000000 0.000000 0.000000 0.000000 0.000000 0.039457
#
#
# Mechanical properties :
#
#
# Convention : Reuss Voigt Hill
#
# Bulk Modulus (GPa) = 19.93966 53.28689 36.61328
# Shear Modulus (GPa) = 26.95850 35.14096 31.04973
#
# Velocity S-wave (km/s) = 3.90710 4.46080 4.19310
# Velocity P-wave (km/s) = 5.62537 7.53032 6.64645
#
# Compressibility (1/GPa) = 0.05015130
#
# Stress axis : x y z
#
# Youngs Moduli (GPa) = 83.31786 83.31786 25.75131
#
# Poissons Ratio (x) = 0.64373 -0.01781
# Poissons Ratio (y) = 0.64373 -0.01781
# Poissons Ratio (z) = -0.05762 -0.05762
#
# Static dielectric constant tensor:
#      x y z
#    x 1.602350 0.000000 0.000000 
#    y 0.000000 1.602350 0.000000 
#    z 0.000000 0.000000 1.657370 
# 
# From -- ./inp_files/1284.got.cif
#   From: 2010.05.17/outbox.cif.g08.bks.cpg/sg189_1_cif.got.tgz:1284.got - 2010.05.20 12:14:34.
