data_PCOD9586426
_publ_section_title
;
Structure prediction by ZEFSAII (Michael W. Deem and Ramdas Pophale) SiO2 
 PCOD9586426
Probable space group: P -6 2 M
;
_chemical_formula_sum "Si O2"
_cell_formula_units_Z 84
_cell_length_a 19.030493
_cell_length_b 19.030493
_cell_length_c 14.096136
_cell_angle_alpha 90.000000
_cell_angle_beta 90.000000
_cell_angle_gamma 120.000000
_cell_volume 4421.104611
_symmetry_space_group_name_H-M "P -6 2 M"
_symmetry_group_IT_number 189
_symmetry_cell_setting 'hexagonal'
loop_
_space_group_symop_operation_xyz
x,y,z
-x+y,-x,-z
-y,x-y,z
x,y,-z
-x+y,-x,z
-y,x-y,-z
x-y,-y,-z
-x,-x+y,-z
y,x,-z
y,x,z
x-y,-y,z
-x,-x+y,z
loop_
_atom_site_type_symbol
_atom_site_label
_atom_site_fract_x
_atom_site_fract_y
_atom_site_fract_z
Si Si1 0.902006 0.515997 0.613013
Si Si2 0.098256 0.774222 0.390437
Si Si3 0.664632 0.664632 0.114603
Si Si4 0.503727 0.503727 0.886875
Si Si5 0.748474 0.501559 0.114640
Si Si6 0.846639 0.164030 0.887935
Si Si7 0.421530 0.837263 0.204431
Si Si8 0.191823 0.097582 0.735446
O O1 0.886343 0.498778 0.500000
O O2 0.878824 0.585248 0.639755
O O3 0.853482 0.440729 0.684010
O O4 0.000000 0.556995 0.625492
O O5 0.121137 0.792071 0.500000
O O6 0.126392 0.857508 0.335459
O O7 0.000000 0.726038 0.384104
O O8 0.584880 0.584880 0.148153
O O9 0.748743 0.670982 0.140644
O O10 0.659508 0.659508 0.000000
O O11 0.430576 0.511123 0.845700
O O12 0.501659 0.501659 0.000000
O O13 0.821911 0.593264 0.132213
O O14 0.769171 0.437804 0.161166
O O15 0.665687 0.483688 0.165955
O O16 0.736078 0.492405 0.000000
O O17 0.861724 0.099679 0.833576
O O18 0.848772 0.153184 0.000000
O O19 0.127741 0.127741 0.713911
O O20 0.147196 0.000000 0.735871
#
# Coordination Sequence:
#
# PCOD9586426 Si02
#       8
#    12  12   6   6  12  12  12  12
#     4   9  18  36  62  91 117 147 194 250 295 344
#     4   8  16  33  56  79 106 138 174 222 284 343
#     4   9  16  32  56  77  97 136 191 235 269 325
#     4  11  20  34  59  87 113 144 198 249 286 351
#     4  11  23  37  55  84 123 155 187 234 293 359
#     4  10  20  36  55  75 104 146 189 229 276 339
#     4  12  22  37  59  87 117 160 195 236 302 359
#     4  11  22  35  53  78 109 145 189 242 296 350
#
# _framework density 18.999776000000001
#
# number of rings (size 3 to 8) (size 9 to 14) (size 15 to 20)
#    0.000    1.857    2.857    3.429    0.000    0.571 
#    1.286    0.714    0.000    2.571    0.000    0.000 
#    0.000    0.000    0.000    0.000    0.000    0.000 
#
# Total GULP energy -467999.807296 kJ/mol
# GULP energy per Si atom -5571.426277 kJ/mol
# Density = 1.895653 g / cm^3
# Si number density = 18.999776 Si / 1000 Ang^3
#
#
#
# Elastic Constant Matrix: (Units=GPa)
#
#
# Indices 1 2 3 4 5 6 
#
# 1 38.4134 23.8372 22.1171 0.0000 0.0000 0.0000
# 2 23.8372 38.4134 22.1171 0.0000 0.0000 0.0000
# 3 22.1171 22.1171 94.0299 0.0000 0.0000 0.0000
# 4 0.0000 0.0000 0.0000 27.2287 0.0000 0.0000
# 5 0.0000 0.0000 0.0000 0.0000 27.2287 0.0000
# 6 0.0000 0.0000 0.0000 0.0000 0.0000 7.2881
#
#
#
# Elastic Compliance Matrix: (Units=1/GPa)
#
#
# Indices 1 2 3 4 5 6 
#
# 1 0.043946 -0.024659 -0.004537 0.000000 0.000000 0.000000
# 2 -0.024659 0.043946 -0.004537 0.000000 0.000000 0.000000
# 3 -0.004537 -0.004537 0.012769 0.000000 0.000000 0.000000
# 4 0.000000 0.000000 0.000000 0.036726 0.000000 0.000000
# 5 0.000000 0.000000 0.000000 0.000000 0.036726 0.000000
# 6 0.000000 0.000000 0.000000 0.000000 0.000000 0.137210
#
#
# Mechanical properties :
#
#
# Convention : Reuss Voigt Hill
#
# Bulk Modulus (GPa) = 30.12250 34.11105 32.11678
# Shear Modulus (GPa) = 12.82532 19.20145 16.01338
#
# Velocity S-wave (km/s) = 2.60094 3.18247 2.90628
# Velocity P-wave (km/s) = 4.99083 5.61217 5.31060
#
# Compressibility (1/GPa) = 0.03319777
#
# Stress axis : x y z
#
# Youngs Moduli (GPa) = 22.75499 22.75499 78.31386
#
# Poissons Ratio (x) = 0.56111 0.35529
# Poissons Ratio (y) = 0.56111 0.35529
# Poissons Ratio (z) = 0.10323 0.10323
#
# Static dielectric constant tensor:
#      x y z
#    x 1.741450 0.000000 0.000000 
#    y 0.000000 1.741450 0.000000 
#    z 0.000000 0.000000 1.681580 
# 
# From -- ./inp_files/2855.got.cif
#   From: 2010.05.17/outbox.cif.g08.bks.cpg/sg189_2_cif.got.tgz:2855.got - 2010.05.20 12:14:34.
