data_PCOD9586190
_publ_section_title
;
Structure prediction by ZEFSAII (Michael W. Deem and Ramdas Pophale) SiO2 
 PCOD9586190
Probable space group: P -6 2 M
;
_chemical_formula_sum "Si O2"
_cell_formula_units_Z 72
_cell_length_a 24.705777
_cell_length_b 24.705777
_cell_length_c 8.069363
_cell_angle_alpha 90.000000
_cell_angle_beta 90.000000
_cell_angle_gamma 120.000000
_cell_volume 4265.470262
_symmetry_space_group_name_H-M "P -6 2 M"
_symmetry_group_IT_number 189
_symmetry_cell_setting 'hexagonal'
loop_
_space_group_symop_operation_xyz
x,y,z
-x+y,-x,-z
-y,x-y,z
x,y,-z
-x+y,-x,z
-y,x-y,-z
x-y,-y,-z
-x,-x+y,-z
y,x,-z
y,x,z
x-y,-y,z
-x,-x+y,z
loop_
_atom_site_type_symbol
_atom_site_label
_atom_site_fract_x
_atom_site_fract_y
_atom_site_fract_z
Si Si1 0.594022 0.404130 0.200296
Si Si2 0.928712 0.735897 0.199752
Si Si3 0.735280 0.474746 0.801031
Si Si4 0.259540 0.405568 0.697248
Si Si5 0.142492 0.070339 0.202240
Si Si6 0.402497 0.473266 0.300177
O O1 0.664770 0.447273 0.260485
O O2 0.566259 0.332390 0.258997
O O3 0.544206 0.424524 0.251948
O O4 0.594966 0.403200 0.000000
O O5 0.881967 0.665870 0.253465
O O6 0.912042 0.788480 0.255719
O O7 0.000000 0.759805 0.256537
O O8 0.929915 0.737315 0.000000
O O9 0.784455 0.546081 0.758089
O O10 0.732007 0.469332 0.000000
O O11 0.262870 0.409356 0.500000
O O12 0.330686 0.431735 0.760763
O O13 0.095447 0.095447 0.248861
O O14 0.117205 0.000000 0.260727
O O15 0.142995 0.069312 0.000000
O O16 0.401188 0.469871 0.500000
O O17 0.444907 0.444907 0.239334
#
# Coordination Sequence:
#
# PCOD9586190 Si02
#       6
#    12  12  12  12  12  12
#     4   9  17  29  47  69  91 116 144 175 214 261
#     4   9  17  28  43  65  91 117 146 182 223 263
#     4   9  17  30  47  68  93 117 142 176 218 261
#     4  10  19  30  45  65  89 119 152 182 216 260
#     4   8  13  22  39  64  91 116 142 175 217 263
#     4   9  18  31  45  63  89 118 146 179 218 257
#
# _framework density 16.879733999999999
#
# number of rings (size 3 to 8) (size 9 to 14) (size 15 to 20)
#    0.000    3.000    0.000    2.500    0.000    4.667 
#    0.000    0.000    0.000    3.500    0.000    2.333 
#    0.000    1.333    0.000    0.000    0.000    0.000 
#
# Total GULP energy -401211.069763 kJ/mol
# GULP energy per Si atom -5572.375969 kJ/mol
# Density = 1.684132 g / cm^3
# Si number density = 16.879734 Si / 1000 Ang^3
#
#
#
# Elastic Constant Matrix: (Units=GPa)
#
#
# Indices 1 2 3 4 5 6 
#
# 1 140.7937 90.8395 6.4483 0.0000 0.0000 0.0000
# 2 90.8395 140.7937 6.4483 0.0000 0.0000 0.0000
# 3 6.4483 6.4483 7.5348 0.0000 0.0000 0.0000
# 4 0.0000 0.0000 0.0000 8.2826 0.0000 0.0000
# 5 0.0000 0.0000 0.0000 0.0000 8.2826 0.0000
# 6 0.0000 0.0000 0.0000 0.0000 0.0000 24.9771
#
#
#
# Elastic Compliance Matrix: (Units=1/GPa)
#
#
# Indices 1 2 3 4 5 6 
#
# 1 0.012276 -0.007743 -0.003879 0.000000 0.000000 0.000000
# 2 -0.007743 0.012276 -0.003879 0.000000 0.000000 0.000000
# 3 -0.003879 -0.003879 0.139358 0.000000 0.000000 0.000000
# 4 0.000000 0.000000 0.000000 0.120736 0.000000 0.000000
# 5 0.000000 0.000000 0.000000 0.000000 0.120736 0.000000
# 6 0.000000 0.000000 0.000000 0.000000 0.000000 0.040037
#
#
# Mechanical properties :
#
#
# Convention : Reuss Voigt Hill
#
# Bulk Modulus (GPa) = 7.52410 55.17715 31.35062
# Shear Modulus (GPa) = 9.60204 20.66753 15.13478
#
# Velocity S-wave (km/s) = 2.38765 3.50294 2.99762
# Velocity P-wave (km/s) = 3.47394 7.00857 5.53120
#
# Compressibility (1/GPa) = 0.13290630
#
# Stress axis : x y z
#
# Youngs Moduli (GPa) = 81.46145 81.46145 7.17577
#
# Poissons Ratio (x) = 0.63072 0.02784
# Poissons Ratio (y) = 0.63072 0.02784
# Poissons Ratio (z) = 0.31603 0.31603
#
# Static dielectric constant tensor:
#      x y z
#    x 1.565960 0.000000 0.000000 
#    y 0.000000 1.565960 0.000000 
#    z 0.000000 0.000000 1.597730 
# 
# From -- ./inp_files/1232.got.cif
#   From: 2010.05.17/outbox.cif.g08.bks.cpg/sg189_1_cif.got.tgz:1232.got - 2010.05.20 12:14:34.
