data_PCOD9586330
_publ_section_title
;
Structure prediction by ZEFSAII (Michael W. Deem and Ramdas Pophale) SiO2 
 PCOD9586330
Probable space group: P -6 2 M
;
_chemical_formula_sum "Si O2"
_cell_formula_units_Z 72
_cell_length_a 24.795137
_cell_length_b 24.795137
_cell_length_c 7.622342
_cell_angle_alpha 90.000000
_cell_angle_beta 90.000000
_cell_angle_gamma 120.000000
_cell_volume 4058.374187
_symmetry_space_group_name_H-M "P -6 2 M"
_symmetry_group_IT_number 189
_symmetry_cell_setting 'hexagonal'
loop_
_space_group_symop_operation_xyz
x,y,z
-x+y,-x,-z
-y,x-y,z
x,y,-z
-x+y,-x,z
-y,x-y,-z
x-y,-y,-z
-x,-x+y,-z
y,x,-z
y,x,z
x-y,-y,z
-x,-x+y,z
loop_
_atom_site_type_symbol
_atom_site_label
_atom_site_fract_x
_atom_site_fract_y
_atom_site_fract_z
Si Si1 0.261402 0.191198 0.214539
Si Si2 0.403399 0.261453 0.790452
Si Si3 0.595079 0.070372 0.291913
Si Si4 0.403504 0.929173 0.790906
Si Si5 0.856962 0.263869 0.214258
Si Si6 0.737426 0.807679 0.786243
O O1 0.216244 0.216244 0.274224
O O2 0.332772 0.237683 0.271575
O O3 0.245044 0.122097 0.269267
O O4 0.260878 0.191472 0.000000
O O5 0.448941 0.333454 0.754070
O O6 0.422971 0.211769 0.725951
O O7 0.398706 0.254626 0.000000
O O8 0.592006 0.065545 0.500000
O O9 0.546231 0.091862 0.237488
O O10 0.568459 0.000000 0.218822
O O11 0.334190 0.883953 0.722594
O O12 0.434090 0.000000 0.720470
O O13 0.397584 0.933174 0.000000
O O14 0.903308 0.238051 0.262420
O O15 0.855566 0.264874 0.000000
O O16 0.781227 0.781227 0.724429
O O17 0.738874 0.808058 0.000000
#
# Coordination Sequence:
#
# PCOD9586330 Si02
#       6
#    12  12  12  12  12  12
#     4   8  13  20  32  52  76 102 134 170 203 236
#     4   9  16  27  44  63  82 106 137 172 209 247
#     4  10  20  31  42  60  87 114 139 169 204 244
#     4   9  16  27  45  66  86 109 136 167 206 251
#     4   8  14  24  40  63  84 100 127 169 208 242
#     4   8  12  18  30  50  77 105 129 160 204 242
#
# _framework density 17.741094
#
# number of rings (size 3 to 8) (size 9 to 14) (size 15 to 20)
#    0.000    3.333    0.000    3.500    0.000    3.667 
#    0.000    0.833    0.000    1.000    0.000    4.667 
#    0.000    6.000    0.000    0.000    0.000    0.000 
#
# Total GULP energy -401125.648023 kJ/mol
# GULP energy per Si atom -5571.189556 kJ/mol
# Density = 1.770071 g / cm^3
# Si number density = 17.741094 Si / 1000 Ang^3
#
#
#
# Elastic Constant Matrix: (Units=GPa)
#
#
# Indices 1 2 3 4 5 6 
#
# 1 186.8968 90.5796 3.5049 0.0000 0.0000 0.0000
# 2 90.5796 186.8968 3.5049 0.0000 0.0000 0.0000
# 3 3.5049 3.5049 32.3286 0.0000 0.0000 0.0000
# 4 0.0000 0.0000 0.0000 -11.7892 0.0000 0.0000
# 5 0.0000 0.0000 0.0000 0.0000 -11.7892 0.0000
# 6 0.0000 0.0000 0.0000 0.0000 0.0000 48.1586
#
#
#
# Elastic Compliance Matrix: (Units=1/GPa)
#
#
# Indices 1 2 3 4 5 6 
#
# 1 0.006998 -0.003384 -0.000392 0.000000 0.000000 0.000000
# 2 -0.003384 0.006998 -0.000392 0.000000 0.000000 0.000000
# 3 -0.000392 -0.000392 0.031017 0.000000 0.000000 0.000000
# 4 0.000000 0.000000 0.000000 -0.084824 0.000000 0.000000
# 5 0.000000 0.000000 0.000000 0.000000 -0.084824 0.000000
# 6 0.000000 0.000000 0.000000 0.000000 0.000000 0.020765
#
#
# Mechanical properties :
#
#
# Convention : Reuss Voigt Hill
#
# Bulk Modulus (GPa) = 27.26446 66.81124 47.03785
# Shear Modulus (GPa) = -60.01881 25.48491 -17.26695
#
# Velocity S-wave (km/s) = -5.82270 3.79422 -3.12312
# Velocity P-wave (km/s) = 5.45928 7.54557 3.68319
#
# Compressibility (1/GPa) = 0.03667779
#
# Stress axis : x y z
#
# Youngs Moduli (GPa) = 142.89631 142.89631 32.24002
#
# Poissons Ratio (x) = 0.48360 0.01263
# Poissons Ratio (y) = 0.48360 0.01263
# Poissons Ratio (z) = 0.05599 0.05599
#
# Static dielectric constant tensor:
#      x y z
#    x 1.596840 0.000000 0.000000 
#    y 0.000000 1.596840 0.000000 
#    z 0.000000 0.000000 1.652340 
# 
# From -- ./inp_files/1202.got.cif
#   From: 2010.05.17/outbox.cif.g08.bks.cpg/sg189_1_cif.got.tgz:1202.got - 2010.05.20 12:14:34.
