data_PCOD9586422
_publ_section_title
;
Structure prediction by ZEFSAII (Michael W. Deem and Ramdas Pophale) SiO2 
 PCOD9586422
Probable space group: P -6 2 M
;
_chemical_formula_sum "Si O2"
_cell_formula_units_Z 72
_cell_length_a 15.067421
_cell_length_b 15.067421
_cell_length_c 19.790811
_cell_angle_alpha 90.000000
_cell_angle_beta 90.000000
_cell_angle_gamma 120.000000
_cell_volume 3891.097107
_symmetry_space_group_name_H-M "P -6 2 M"
_symmetry_group_IT_number 189
_symmetry_cell_setting 'hexagonal'
loop_
_space_group_symop_operation_xyz
x,y,z
-x+y,-x,-z
-y,x-y,z
x,y,-z
-x+y,-x,z
-y,x-y,-z
x-y,-y,-z
-x,-x+y,-z
y,x,-z
y,x,z
x-y,-y,z
-x,-x+y,z
loop_
_atom_site_type_symbol
_atom_site_label
_atom_site_fract_x
_atom_site_fract_y
_atom_site_fract_z
Si Si1 0.685129 0.122335 0.710779
Si Si2 0.265640 0.803709 0.076016
Si Si3 0.122053 0.594497 0.149362
Si Si4 0.763509 0.881194 0.264528
Si Si5 0.787168 0.445815 0.574616
Si Si6 0.114620 0.229066 0.101269
O O1 0.641558 0.154526 0.775126
O O2 0.805714 0.159838 0.715433
O O3 0.658088 0.151820 0.639521
O O4 0.630276 0.000000 0.716080
O O5 0.186490 0.688444 0.098959
O O6 0.358920 0.851478 0.128850
O O7 0.201210 0.861922 0.077133
O O8 0.304456 0.807397 0.000000
O O9 0.000000 0.547951 0.142547
O O10 0.812364 0.812364 0.286632
O O11 0.765311 0.884050 0.182914
O O12 0.833886 0.000000 0.287215
O O13 0.672983 0.431792 0.577817
O O14 0.831019 0.486762 0.500000
O O15 0.196224 0.196224 0.079242
O O16 0.000000 0.144192 0.082047
#
# Coordination Sequence:
#
# PCOD9586422 Si02
#       6
#    12  12  12  12  12  12
#     4  10  20  35  59  89 117 150 192 236 289 342
#     4  12  25  40  60  81 108 153 196 239 298 354
#     4  11  25  43  60  85 116 148 194 250 295 345
#     4   9  17  32  55  85 118 152 189 233 286 346
#     4   8  18  35  57  83 115 155 189 228 285 341
#     4  10  20  36  57  82 111 143 185 237 295 354
#
# _framework density 18.503779000000002
#
# number of rings (size 3 to 8) (size 9 to 14) (size 15 to 20)
#    0.333    1.667    1.667    2.167    2.333    5.000 
#    0.000    0.833    0.000    2.500    0.000    0.000 
#    0.000    1.333    0.000    0.000    0.000    0.000 
#
# Total GULP energy -401536.186719 kJ/mol
# GULP energy per Si atom -5576.891482 kJ/mol
# Density = 1.846166 g / cm^3
# Si number density = 18.503779 Si / 1000 Ang^3
#
#
#
# Elastic Constant Matrix: (Units=GPa)
#
#
# Indices 1 2 3 4 5 6 
#
# 1 69.7891 20.2491 28.6365 0.0000 0.0000 0.0000
# 2 20.2491 69.7891 28.6365 0.0000 0.0000 0.0000
# 3 28.6365 28.6365 80.8048 0.0000 0.0000 0.0000
# 4 0.0000 0.0000 0.0000 18.0128 0.0000 0.0000
# 5 0.0000 0.0000 0.0000 0.0000 18.0128 0.0000
# 6 0.0000 0.0000 0.0000 0.0000 0.0000 24.7700
#
#
#
# Elastic Compliance Matrix: (Units=1/GPa)
#
#
# Indices 1 2 3 4 5 6 
#
# 1 0.017262 -0.002923 -0.005082 0.000000 0.000000 0.000000
# 2 -0.002923 0.017262 -0.005082 0.000000 0.000000 0.000000
# 3 -0.005082 -0.005082 0.015977 0.000000 0.000000 0.000000
# 4 0.000000 0.000000 0.000000 0.055516 0.000000 0.000000
# 5 0.000000 0.000000 0.000000 0.000000 0.055516 0.000000
# 6 0.000000 0.000000 0.000000 0.000000 0.000000 0.040371
#
#
# Mechanical properties :
#
#
# Convention : Reuss Voigt Hill
#
# Bulk Modulus (GPa) = 41.10390 41.71412 41.40901
# Shear Modulus (GPa) = 21.16961 21.68318 21.42640
#
# Velocity S-wave (km/s) = 3.38608 3.42691 3.40655
# Velocity P-wave (km/s) = 6.12776 6.18472 6.15630
#
# Compressibility (1/GPa) = 0.02432859
#
# Stress axis : x y z
#
# Youngs Moduli (GPa) = 57.92992 57.92992 62.58917
#
# Poissons Ratio (x) = 0.16936 0.31805
# Poissons Ratio (y) = 0.16936 0.31805
# Poissons Ratio (z) = 0.29437 0.29437
#
# Static dielectric constant tensor:
#      x y z
#    x 1.654260 0.000000 0.000000 
#    y 0.000000 1.654260 0.000000 
#    z 0.000000 0.000000 1.629420 
# 
# From -- ./inp_files/3121.got.cif
#   From: 2010.05.17/outbox.cif.g08.bks.cpg/sg189_2_cif.got.tgz:3121.got - 2010.05.20 12:14:34.
