data_PCOD9586716
_publ_section_title
;
Structure prediction by ZEFSAII (Michael W. Deem and Ramdas Pophale) SiO2 
 PCOD9586716
Probable space group: P -6 2 C
;
_chemical_formula_sum "Si O2"
_cell_formula_units_Z 78
_cell_length_a 24.820840
_cell_length_b 24.820840
_cell_length_c 8.368742
_cell_angle_alpha 90.000000
_cell_angle_beta 90.000000
_cell_angle_gamma 120.000000
_cell_volume 4465.023623
_symmetry_space_group_name_H-M "P -6 2 C"
_symmetry_group_IT_number 190
_symmetry_cell_setting 'hexagonal'
loop_
_space_group_symop_operation_xyz
x,y,z
-x+y,-x,1/2-z
-y,x-y,z
x,y,1/2-z
-x+y,-x,z
-y,x-y,1/2-z
x-y,-y,-z
-x,-x+y,-z
y,x,-z
y,x,1/2+z
x-y,-y,1/2+z
-x,-x+y,1/2+z
loop_
_atom_site_type_symbol
_atom_site_label
_atom_site_fract_x
_atom_site_fract_y
_atom_site_fract_z
Si Si1 0.738583 0.473889 0.570660
Si Si2 0.642977 0.931314 0.059629
Si Si3 0.623676 0.806592 0.436771
Si Si4 0.067642 0.591251 0.937095
Si Si5 0.316169 0.930019 0.056114
Si Si6 0.409756 0.729245 0.750000
Si Si7 0.389674 0.860183 0.063593
O O1 0.749186 0.455639 0.750000
O O2 0.776161 0.548704 0.562175
O O3 0.754065 0.446503 0.415394
O O4 0.665969 0.454993 0.559044
O O5 0.646962 0.930673 0.250000
O O6 0.651065 0.875094 0.991962
O O7 0.574192 0.918853 0.017998
O O8 0.690910 0.000000 0.000000
O O9 0.642333 0.813936 0.250000
O O10 0.636280 0.753644 0.504684
O O11 0.062377 0.598525 0.750000
O O12 0.118817 0.571922 0.972193
O O13 0.000000 0.538446 0.000000
O O14 0.314761 0.927492 0.250000
O O15 0.359486 0.901434 0.005561
O O16 0.344593 0.000000 0.000000
O O17 0.384333 0.654512 0.750000
O O18 0.406671 0.875126 0.250000
#
# Coordination Sequence:
#
# PCOD9586716 Si02
#       7
#    12  12  12  12  12   6  12
#     4   9  19  38  56  70  94 128 165 201 255 311
#     4  10  19  34  52  71  96 124 163 203 245 296
#     4   8  17  35  55  71  95 134 164 194 242 307
#     4  11  21  31  44  66  95 121 152 197 246 294
#     4   9  17  31  49  73 100 125 160 195 235 290
#     4  10  24  38  48  72  96 118 162 222 248 304
#     4   9  18  32  50  69  93 125 159 196 246 305
#
# _framework density 17.469113
#
# number of rings (size 3 to 8) (size 9 to 14) (size 15 to 20)
#    0.154    2.462    0.000    5.077    1.077    3.692 
#    6.923    3.077    0.000    0.000    0.000    0.000 
#    0.000    0.000    0.000    0.462    0.000    5.538 
#
# Total GULP energy -435164.767786 kJ/mol
# GULP energy per Si atom -5579.035484 kJ/mol
# Density = 1.742935 g / cm^3
# Si number density = 17.469113 Si / 1000 Ang^3
#
#
#
# Elastic Constant Matrix: (Units=GPa)
#
#
# Indices 1 2 3 4 5 6 
#
# 1 74.0027 30.4193 22.2386 0.0000 0.0000 0.0000
# 2 30.4193 74.0027 22.2386 0.0000 0.0000 0.0000
# 3 22.2386 22.2386 65.0991 0.0000 0.0000 0.0000
# 4 0.0000 0.0000 0.0000 22.5046 0.0000 0.0000
# 5 0.0000 0.0000 0.0000 0.0000 22.5046 0.0000
# 6 0.0000 0.0000 0.0000 0.0000 0.0000 21.7917
#
#
#
# Elastic Compliance Matrix: (Units=1/GPa)
#
#
# Indices 1 2 3 4 5 6 
#
# 1 0.017076 -0.005869 -0.003829 0.000000 0.000000 0.000000
# 2 -0.005869 0.017076 -0.003829 0.000000 0.000000 0.000000
# 3 -0.003829 -0.003829 0.017977 0.000000 0.000000 0.000000
# 4 0.000000 0.000000 0.000000 0.044435 0.000000 0.000000
# 5 0.000000 0.000000 0.000000 0.000000 0.044435 0.000000
# 6 0.000000 0.000000 0.000000 0.000000 0.000000 0.045889
#
#
# Mechanical properties :
#
#
# Convention : Reuss Voigt Hill
#
# Bulk Modulus (GPa) = 39.87667 40.32195 40.09931
# Shear Modulus (GPa) = 22.49226 22.57407 22.53317
#
# Velocity S-wave (km/s) = 3.59213 3.59866 3.59539
# Velocity P-wave (km/s) = 6.33096 6.35603 6.34351
#
# Compressibility (1/GPa) = 0.02507732
#
# Stress axis : x y z
#
# Youngs Moduli (GPa) = 58.56219 58.56219 55.62690
#
# Poissons Ratio (x) = 0.34368 0.21297
# Poissons Ratio (y) = 0.34368 0.21297
# Poissons Ratio (z) = 0.22421 0.22421
#
# Static dielectric constant tensor:
#      x y z
#    x 1.610460 0.000000 0.000000 
#    y 0.000000 1.610460 0.000000 
#    z 0.000000 0.000000 1.621480 
# 
# From -- ./inp_files/1382.got.cif
#   From: 2010.05.17/outbox.cif.g08.bks.cpg/sg190_1_cif.got.tgz:1382.got - 2010.05.20 12:16:56.
