data_PCOD9586996
_publ_section_title
;
Structure prediction by ZEFSAII (Michael W. Deem and Ramdas Pophale) SiO2 
 PCOD9586996
Probable space group: P -6 2 C
;
_chemical_formula_sum "Si O2"
_cell_formula_units_Z 60
_cell_length_a 14.180471
_cell_length_b 14.180471
_cell_length_c 13.939236
_cell_angle_alpha 90.000000
_cell_angle_beta 90.000000
_cell_angle_gamma 120.000000
_cell_volume 2427.453475
_symmetry_space_group_name_H-M "P -6 2 C"
_symmetry_group_IT_number 190
_symmetry_cell_setting 'hexagonal'
loop_
_space_group_symop_operation_xyz
x,y,z
-x+y,-x,1/2-z
-y,x-y,z
x,y,1/2-z
-x+y,-x,z
-y,x-y,1/2-z
x-y,-y,-z
-x,-x+y,-z
y,x,-z
y,x,1/2+z
x-y,-y,1/2+z
-x,-x+y,1/2+z
loop_
_atom_site_type_symbol
_atom_site_label
_atom_site_fract_x
_atom_site_fract_y
_atom_site_fract_z
Si Si1 0.195816 0.953850 0.856015
Si Si2 0.751352 0.545344 0.456172
Si Si3 0.860853 0.526670 0.857235
Si Si4 0.089937 0.572546 0.864348
Si Si5 0.188303 0.226234 0.391714
O O1 0.245643 0.959986 0.750000
O O2 0.236948 0.899175 0.933850
O O3 0.066763 0.874918 0.848209
O O4 0.213637 0.070433 0.883545
O O5 0.772227 0.510883 0.561893
O O6 0.632133 0.466250 0.415762
O O7 0.848429 0.547760 0.393563
O O8 0.821276 0.480592 0.750000
O O9 0.927230 0.657406 0.848781
O O10 0.960364 0.507466 0.890059
O O11 0.094172 0.562704 0.750000
O O12 0.225058 0.225058 0.500000
#
# Coordination Sequence:
#
# PCOD9586996 Si02
#       5
#    12  12  12  12  12
#     4  12  24  41  69 109 151 195 249 306 379 467
#     4  12  25  47  77 113 150 203 264 327 394 463
#     4  11  24  48  75 107 157 203 248 319 404 473
#     4  11  23  45  79 115 152 200 263 333 396 463
#     4  12  23  43  66 103 153 203 240 299 370 464
#
# _framework density 24.71726
#
# number of rings (size 3 to 8) (size 9 to 14) (size 15 to 20)
#    0.000    0.400    4.000    5.600    0.000    0.000 
#    7.200    1.000    0.000    2.400    0.000    0.000 
#    0.000    0.000    0.000    0.000    0.000    0.000 
#
# Total GULP energy -335591.802534 kJ/mol
# GULP energy per Si atom -5593.196709 kJ/mol
# Density = 2.466100 g / cm^3
# Si number density = 24.717260 Si / 1000 Ang^3
#
#
#
# Elastic Constant Matrix: (Units=GPa)
#
#
# Indices 1 2 3 4 5 6 
#
# 1 81.4541 0.4563 18.0034 0.0000 0.0000 0.0000
# 2 0.4563 81.4541 18.0034 0.0000 0.0000 0.0000
# 3 18.0034 18.0034 186.0151 0.0000 0.0000 0.0000
# 4 0.0000 0.0000 0.0000 -16.9452 0.0000 0.0000
# 5 0.0000 0.0000 0.0000 0.0000 -16.9452 0.0000
# 6 0.0000 0.0000 0.0000 0.0000 0.0000 40.4989
#
#
#
# Elastic Compliance Matrix: (Units=1/GPa)
#
#
# Indices 1 2 3 4 5 6 
#
# 1 0.012548 0.000202 -0.001234 0.000000 0.000000 0.000000
# 2 0.000202 0.012548 -0.001234 0.000000 0.000000 0.000000
# 3 -0.001234 -0.001234 0.005615 0.000000 0.000000 0.000000
# 4 0.000000 0.000000 0.000000 -0.059014 0.000000 0.000000
# 5 0.000000 0.000000 0.000000 0.000000 -0.059014 0.000000
# 6 0.000000 0.000000 0.000000 0.000000 0.000000 0.024692
#
#
# Mechanical properties :
#
#
# Convention : Reuss Voigt Hill
#
# Bulk Modulus (GPa) = 38.19663 46.87218 42.53440
# Shear Modulus (GPa) = -101.28480 22.15238 -39.56621
#
# Velocity S-wave (km/s) = -6.40830 2.99696 -4.00528
# Velocity P-wave (km/s) = 6.26643 5.56599 2.03567
#
# Compressibility (1/GPa) = 0.02618032
#
# Stress axis : x y z
#
# Youngs Moduli (GPa) = 79.69084 79.69084 178.10101
#
# Poissons Ratio (x) = -0.01614 0.21979
# Poissons Ratio (y) = -0.01614 0.21979
# Poissons Ratio (z) = 0.09835 0.09835
#
# Static dielectric constant tensor:
#      x y z
#    x 1.957100 0.000000 0.000000 
#    y 0.000000 1.957100 0.000000 
#    z 0.000000 0.000000 2.064820 
# 
# From -- ./inp_files/2814.got.cif
#   From: 2010.05.17/outbox.cif.g08.bks.cpg/sg190_2_cif.got.tgz:2814.got - 2010.05.20 12:16:56.
