data_PCOD9586587
_publ_section_title
;
Structure prediction by ZEFSAII (Michael W. Deem and Ramdas Pophale) SiO2 
 PCOD9586587
Probable space group: P -6 2 M
;
_chemical_formula_sum "Si O2"
_cell_formula_units_Z 72
_cell_length_a 23.701346
_cell_length_b 23.701346
_cell_length_c 7.569723
_cell_angle_alpha 90.000000
_cell_angle_beta 90.000000
_cell_angle_gamma 120.000000
_cell_volume 3682.617731
_symmetry_space_group_name_H-M "P -6 2 M"
_symmetry_group_IT_number 189
_symmetry_cell_setting 'hexagonal'
loop_
_space_group_symop_operation_xyz
x,y,z
-x+y,-x,-z
-y,x-y,z
x,y,-z
-x+y,-x,z
-y,x-y,-z
x-y,-y,-z
-x,-x+y,-z
y,x,-z
y,x,z
x-y,-y,z
-x,-x+y,z
loop_
_atom_site_type_symbol
_atom_site_label
_atom_site_fract_x
_atom_site_fract_y
_atom_site_fract_z
Si Si1 0.382215 0.568553 0.787638
Si Si2 0.928665 0.855838 0.212986
Si Si3 0.928366 0.201322 0.295344
Si Si4 0.712715 0.475442 0.214470
Si Si5 0.350247 0.424873 0.288574
Si Si6 0.175918 0.793162 0.707030
O O1 0.313125 0.560766 0.729893
O O2 0.439735 0.638157 0.724170
O O3 0.382929 0.502609 0.741766
O O4 0.382897 0.571245 0.000000
O O5 0.913837 0.913837 0.251402
O O6 0.869423 0.791304 0.290864
O O7 0.000000 0.874451 0.274342
O O8 0.925941 0.848105 0.000000
O O9 0.930214 0.221103 0.500000
O O10 0.861719 0.190757 0.212997
O O11 0.000000 0.250836 0.217673
O O12 0.758063 0.548574 0.278523
O O13 0.712774 0.476419 0.000000
O O14 0.345827 0.416629 0.500000
O O15 0.390741 0.390741 0.221991
O O16 0.275538 0.393125 0.219533
O O17 0.159916 0.793894 0.500000
#
# Coordination Sequence:
#
# PCOD9586587 Si02
#       6
#    12  12  12  12  12  12
#     4   9  17  30  49  72  97 123 151 186 230 277
#     4   9  17  29  45  65  89 116 145 180 225 275
#     4   9  18  32  48  66  89 118 153 192 231 270
#     4   9  17  30  49  72  96 121 150 185 226 273
#     4   9  18  32  48  67  93 125 159 194 233 277
#     4   9  18  32  49  68  92 123 158 194 231 273
#
# _framework density 19.551311999999999
#
# number of rings (size 3 to 8) (size 9 to 14) (size 15 to 20)
#    0.000    3.000    0.000    0.500    0.000    4.667 
#    0.000    2.500    0.000    6.000    0.000    0.000 
#    0.000    0.000    0.000    0.000    0.000    0.000 
#
# Total GULP energy -401092.503224 kJ/mol
# GULP energy per Si atom -5570.729211 kJ/mol
# Density = 1.950681 g / cm^3
# Si number density = 19.551312 Si / 1000 Ang^3
#
#
#
# Elastic Constant Matrix: (Units=GPa)
#
#
# Indices 1 2 3 4 5 6 
#
# 1 126.8137 95.0147 0.8281 0.0000 0.0000 0.0000
# 2 95.0147 126.8137 0.8281 0.0000 0.0000 0.0000
# 3 0.8281 0.8281 43.4664 0.0000 0.0000 0.0000
# 4 0.0000 0.0000 0.0000 76.3292 0.0000 0.0000
# 5 0.0000 0.0000 0.0000 0.0000 76.3292 0.0000
# 6 0.0000 0.0000 0.0000 0.0000 0.0000 15.8995
#
#
#
# Elastic Compliance Matrix: (Units=1/GPa)
#
#
# Indices 1 2 3 4 5 6 
#
# 1 0.017978 -0.013469 -0.000086 0.000000 0.000000 0.000000
# 2 -0.013469 0.017978 -0.000086 0.000000 0.000000 0.000000
# 3 -0.000086 -0.000086 0.023010 0.000000 0.000000 0.000000
# 4 0.000000 0.000000 0.000000 0.013101 0.000000 0.000000
# 5 0.000000 0.000000 0.000000 0.000000 0.013101 0.000000
# 6 0.000000 0.000000 0.000000 0.000000 0.000000 0.062895
#
#
# Mechanical properties :
#
#
# Convention : Reuss Voigt Hill
#
# Bulk Modulus (GPa) = 31.56241 54.49284 43.02763
# Shear Modulus (GPa) = 26.89516 47.07308 36.98412
#
# Velocity S-wave (km/s) = 3.71296 4.91212 4.35402
# Velocity P-wave (km/s) = 5.87876 7.75269 6.87982
#
# Compressibility (1/GPa) = 0.03168325
#
# Stress axis : x y z
#
# Youngs Moduli (GPa) = 55.62314 55.62314 43.46017
#
# Poissons Ratio (x) = 0.74922 0.00373
# Poissons Ratio (y) = 0.74922 0.00373
# Poissons Ratio (z) = 0.00478 0.00478
#
# Static dielectric constant tensor:
#      x y z
#    x 1.685200 0.000000 0.000000 
#    y 0.000000 1.685200 0.000000 
#    z 0.000000 0.000000 1.751630 
# 
# From -- ./inp_files/1221.got.cif
#   From: 2010.05.17/outbox.cif.g08.bks.cpg/sg189_1_cif.got.tgz:1221.got - 2010.05.20 12:14:34.
