data_PCOD9586235
_publ_section_title
;
Structure prediction by ZEFSAII (Michael W. Deem and Ramdas Pophale) SiO2 
 PCOD9586235
Probable space group: P -6 2 M
;
_chemical_formula_sum "Si O2"
_cell_formula_units_Z 66
_cell_length_a 23.201120
_cell_length_b 23.201120
_cell_length_c 7.969270
_cell_angle_alpha 90.000000
_cell_angle_beta 90.000000
_cell_angle_gamma 120.000000
_cell_volume 3715.070617
_symmetry_space_group_name_H-M "P -6 2 M"
_symmetry_group_IT_number 189
_symmetry_cell_setting 'hexagonal'
loop_
_space_group_symop_operation_xyz
x,y,z
-x+y,-x,-z
-y,x-y,z
x,y,-z
-x+y,-x,z
-y,x-y,-z
x-y,-y,-z
-x,-x+y,-z
y,x,-z
y,x,z
x-y,-y,z
-x,-x+y,z
loop_
_atom_site_type_symbol
_atom_site_label
_atom_site_fract_x
_atom_site_fract_y
_atom_site_fract_z
Si Si1 0.655504 0.579963 0.299300
Si Si2 0.242795 0.166079 0.196817
Si Si3 0.183261 0.383931 0.798642
Si Si4 0.922371 0.076670 0.500000
Si Si5 0.702042 0.226770 0.804150
Si Si6 0.807504 0.368165 0.697008
O O1 0.647011 0.576328 0.500000
O O2 0.617159 0.617159 0.231847
O O3 0.734487 0.618112 0.263718
O O4 0.629127 0.504098 0.239026
O O5 0.224662 0.224662 0.212481
O O6 0.318151 0.186519 0.238272
O O7 0.196899 0.111159 0.332300
O O8 0.230338 0.144257 0.000000
O O9 0.247466 0.451077 0.734532
O O10 0.183043 0.390413 0.000000
O O11 0.000000 0.125994 0.500000
O O12 0.904187 0.000000 0.500000
O O13 0.744325 0.306688 0.784407
O O14 0.630532 0.195964 0.720169
O O15 0.690404 0.209828 0.000000
O O16 0.801563 0.351698 0.500000
#
# Coordination Sequence:
#
# PCOD9586235 Si02
#       6
#    12  12  12   6  12  12
#     4   9  19  34  51  71 100 135 166 203 254 307
#     4   9  19  37  57  78 109 144 177 217 263 312
#     4   9  19  34  52  75 100 131 172 215 258 306
#     4  10  21  36  56  82 110 140 174 212 258 310
#     4  10  19  32  50  72  98 129 168 214 260 306
#     4  10  19  32  49  71  98 130 166 206 254 307
#
# _framework density 17.765477000000001
#
# number of rings (size 3 to 8) (size 9 to 14) (size 15 to 20)
#    0.000    2.545    0.000    1.545    1.273    2.909 
#    0.000    2.727    0.000    2.182    0.000    0.000 
#    0.000    0.000    0.000    0.000    0.000    0.000 
#
# Total GULP energy -367850.961483 kJ/mol
# GULP energy per Si atom -5573.499416 kJ/mol
# Density = 1.772504 g / cm^3
# Si number density = 17.765477 Si / 1000 Ang^3
#
#
#
# Elastic Constant Matrix: (Units=GPa)
#
#
# Indices 1 2 3 4 5 6 
#
# 1 111.9123 85.7513 22.8528 0.0000 0.0000 0.0000
# 2 85.7513 111.9123 22.8528 0.0000 0.0000 0.0000
# 3 22.8528 22.8528 35.3050 0.0000 0.0000 0.0000
# 4 0.0000 0.0000 0.0000 15.4561 0.0000 0.0000
# 5 0.0000 0.0000 0.0000 0.0000 15.4561 0.0000
# 6 0.0000 0.0000 0.0000 0.0000 0.0000 13.0805
#
#
#
# Elastic Compliance Matrix: (Units=1/GPa)
#
#
# Indices 1 2 3 4 5 6 
#
# 1 0.022087 -0.016138 -0.003851 0.000000 0.000000 0.000000
# 2 -0.016138 0.022087 -0.003851 0.000000 0.000000 0.000000
# 3 -0.003851 -0.003851 0.033310 0.000000 0.000000 0.000000
# 4 0.000000 0.000000 0.000000 0.064699 0.000000 0.000000
# 5 0.000000 0.000000 0.000000 0.000000 0.064699 0.000000
# 6 0.000000 0.000000 0.000000 0.000000 0.000000 0.076450
#
#
# Mechanical properties :
#
#
# Convention : Reuss Voigt Hill
#
# Bulk Modulus (GPa) = 33.55159 58.00482 45.77821
# Shear Modulus (GPa) = 14.66500 17.31005 15.98753
#
# Velocity S-wave (km/s) = 2.87623 3.12487 3.00312
# Velocity P-wave (km/s) = 5.47331 6.76320 6.15215
#
# Compressibility (1/GPa) = 0.02980485
#
# Stress axis : x y z
#
# Youngs Moduli (GPa) = 45.27512 45.27512 30.02079
#
# Poissons Ratio (x) = 0.73063 0.11561
# Poissons Ratio (y) = 0.73063 0.11561
# Poissons Ratio (z) = 0.17436 0.17436
#
# Static dielectric constant tensor:
#      x y z
#    x 1.603100 0.000000 0.000000 
#    y 0.000000 1.603100 0.000000 
#    z 0.000000 0.000000 1.620950 
# 
# From -- ./inp_files/1029.got.cif
#   From: 2010.05.17/outbox.cif.g08.bks.cpg/sg189_1_cif.got.tgz:1029.got - 2010.05.20 12:14:34.
