data_PCOD9586130
_publ_section_title
;
Structure prediction by ZEFSAII (Michael W. Deem and Ramdas Pophale) SiO2 
 PCOD9586130
Probable space group: P -6 2 M
;
_chemical_formula_sum "Si O2"
_cell_formula_units_Z 36
_cell_length_a 18.777104
_cell_length_b 18.777104
_cell_length_c 8.545084
_cell_angle_alpha 90.000000
_cell_angle_beta 90.000000
_cell_angle_gamma 120.000000
_cell_volume 2609.180904
_symmetry_space_group_name_H-M "P -6 2 M"
_symmetry_group_IT_number 189
_symmetry_cell_setting 'hexagonal'
loop_
_space_group_symop_operation_xyz
x,y,z
-x+y,-x,-z
-y,x-y,z
x,y,-z
-x+y,-x,z
-y,x-y,-z
x-y,-y,-z
-x,-x+y,-z
y,x,-z
y,x,z
x-y,-y,z
-x,-x+y,z
loop_
_atom_site_type_symbol
_atom_site_label
_atom_site_fract_x
_atom_site_fract_y
_atom_site_fract_z
Si Si1 0.332084 0.506371 0.687147
Si Si2 0.495456 0.667259 0.812772
Si Si3 0.421764 0.000000 0.313008
Si Si4 0.000000 0.583173 0.186190
O O1 0.332231 0.509867 0.500000
O O2 0.409364 0.591369 0.750054
O O3 0.249068 0.497683 0.755669
O O4 0.346997 0.432611 0.742507
O O5 0.568045 0.653934 0.743611
O O6 0.495488 0.663168 0.000000
O O7 0.429849 0.000000 0.500000
O O8 0.499605 0.000000 0.232556
O O9 0.000000 0.590671 0.000000
#
# Coordination Sequence:
#
# PCOD9586130 Si02
#       4
#    12  12   6   6
#     4  11  20  31  44  61  82 108 139 174 209 246
#     4  11  20  31  44  61  82 108 139 174 209 246
#     4  10  18  30  44  60  80 106 135 168 207 248
#     4  10  18  30  44  60  80 106 135 168 207 248
#
# _framework density 13.797434000000001
#
# number of rings (size 3 to 8) (size 9 to 14) (size 15 to 20)
#    0.000    1.333    0.000   13.667    0.000    0.000 
#    0.000    0.000    0.000    0.000    0.000    0.000 
#    0.000    0.000    0.000    1.000    0.000   14.000 
#
# Total GULP energy -200898.829980 kJ/mol
# GULP energy per Si atom -5580.523055 kJ/mol
# Density = 1.376603 g / cm^3
# Si number density = 13.797434 Si / 1000 Ang^3
#
#
#
# Elastic Constant Matrix: (Units=GPa)
#
#
# Indices 1 2 3 4 5 6 
#
# 1 83.8883 43.9294 20.9488 0.0000 0.0000 0.0000
# 2 43.9294 83.8883 20.9488 0.0000 0.0000 0.0000
# 3 20.9488 20.9488 99.4845 0.0000 0.0000 0.0000
# 4 0.0000 0.0000 0.0000 22.1591 0.0000 0.0000
# 5 0.0000 0.0000 0.0000 0.0000 22.1591 0.0000
# 6 0.0000 0.0000 0.0000 0.0000 0.0000 19.9794
#
#
#
# Elastic Compliance Matrix: (Units=1/GPa)
#
#
# Indices 1 2 3 4 5 6 
#
# 1 0.016715 -0.008311 -0.001770 0.000000 0.000000 0.000000
# 2 -0.008311 0.016715 -0.001770 0.000000 0.000000 0.000000
# 3 -0.001770 -0.001770 0.010797 0.000000 0.000000 0.000000
# 4 0.000000 0.000000 0.000000 0.045128 0.000000 0.000000
# 5 0.000000 0.000000 0.000000 0.000000 0.045128 0.000000
# 6 0.000000 0.000000 0.000000 0.000000 0.000000 0.050052
#
#
# Mechanical properties :
#
#
# Convention : Reuss Voigt Hill
#
# Bulk Modulus (GPa) = 48.71849 48.76836 48.74342
# Shear Modulus (GPa) = 23.24749 24.95512 24.10131
#
# Velocity S-wave (km/s) = 4.10922 4.25747 4.18400
# Velocity P-wave (km/s) = 7.60926 7.71950 7.66458
#
# Compressibility (1/GPa) = 0.02052609
#
# Stress axis : x y z
#
# Youngs Moduli (GPa) = 59.82746 59.82746 92.61764
#
# Poissons Ratio (x) = 0.49723 0.16390
# Poissons Ratio (y) = 0.49723 0.16390
# Poissons Ratio (z) = 0.10587 0.10587
#
# Static dielectric constant tensor:
#      x y z
#    x 1.463200 0.000000 0.000000 
#    y 0.000000 1.463200 0.000000 
#    z 0.000000 0.000000 1.456270 
# 
# From -- ./inp_files/438.got.cif
#   From: 2010.05.17/outbox.cif.g08.bks.cpg/sg189_1_cif.got.tgz:438.got - 2010.05.20 12:14:34.
