data_PCOD9586183
_publ_section_title
;
Structure prediction by ZEFSAII (Michael W. Deem and Ramdas Pophale) SiO2 
 PCOD9586183
Probable space group: P -6 2 M
;
_chemical_formula_sum "Si O2"
_cell_formula_units_Z 72
_cell_length_a 24.662264
_cell_length_b 24.662264
_cell_length_c 7.733058
_cell_angle_alpha 90.000000
_cell_angle_beta 90.000000
_cell_angle_gamma 120.000000
_cell_volume 4073.313007
_symmetry_space_group_name_H-M "P -6 2 M"
_symmetry_group_IT_number 189
_symmetry_cell_setting 'hexagonal'
loop_
_space_group_symop_operation_xyz
x,y,z
-x+y,-x,-z
-y,x-y,z
x,y,-z
-x+y,-x,z
-y,x-y,-z
x-y,-y,-z
-x,-x+y,-z
y,x,-z
y,x,z
x-y,-y,z
-x,-x+y,z
loop_
_atom_site_type_symbol
_atom_site_label
_atom_site_fract_x
_atom_site_fract_y
_atom_site_fract_z
Si Si1 0.809703 0.396905 0.300421
Si Si2 0.072375 0.929396 0.211088
Si Si3 0.521734 0.929334 0.290716
Si Si4 0.264681 0.192313 0.211399
Si Si5 0.595308 0.858505 0.206472
Si Si6 0.529707 0.272817 0.201649
O O1 0.820153 0.388471 0.500000
O O2 0.875082 0.453479 0.228216
O O3 0.778816 0.328981 0.217072
O O4 0.760663 0.422217 0.289534
O O5 0.090231 0.877485 0.265930
O O6 0.000000 0.902889 0.261259
O O7 0.116586 0.000000 0.271416
O O8 0.073317 0.930270 0.000000
O O9 0.519140 0.928794 0.500000
O O10 0.571021 0.907240 0.240683
O O11 0.546064 0.000000 0.230966
O O12 0.237960 0.237960 0.261327
O O13 0.335049 0.219284 0.275619
O O14 0.265586 0.192194 0.000000
O O15 0.539671 0.791564 0.270578
O O16 0.599260 0.853076 0.000000
O O17 0.531010 0.288746 0.000000
#
# Coordination Sequence:
#
# PCOD9586183 Si02
#       6
#    12  12  12  12  12  12
#     4  10  19  31  47  65  86 112 141 171 208 254
#     4   8  12  17  27  46  74 107 139 169 201 237
#     4   9  18  31  46  65  87 109 136 173 212 248
#     4   8  13  21  34  53  76 103 136 169 199 236
#     4   9  17  28  43  62  84 111 139 168 205 250
#     4  10  19  30  44  63  87 111 137 171 209 247
#
# _framework density 17.676027999999999
#
# number of rings (size 3 to 8) (size 9 to 14) (size 15 to 20)
#    0.000    3.000    0.000    3.000    0.000    3.000 
#    0.000    0.000    0.000    1.000    0.000    2.333 
#    0.000    0.667    0.000    0.500    0.000    5.333 
#
# Total GULP energy -401241.102995 kJ/mol
# GULP energy per Si atom -5572.793097 kJ/mol
# Density = 1.763580 g / cm^3
# Si number density = 17.676028 Si / 1000 Ang^3
#
#
#
# Elastic Constant Matrix: (Units=GPa)
#
#
# Indices 1 2 3 4 5 6 
#
# 1 134.0398 83.8826 0.0283 0.0000 0.0000 0.0000
# 2 83.8826 134.0398 0.0283 0.0000 0.0000 0.0000
# 3 0.0283 0.0283 24.2330 0.0000 0.0000 0.0000
# 4 0.0000 0.0000 0.0000 1.3562 0.0000 0.0000
# 5 0.0000 0.0000 0.0000 0.0000 1.3562 0.0000
# 6 0.0000 0.0000 0.0000 0.0000 0.0000 25.0786
#
#
#
# Elastic Compliance Matrix: (Units=1/GPa)
#
#
# Indices 1 2 3 4 5 6 
#
# 1 0.012263 -0.007674 -0.000005 0.000000 0.000000 0.000000
# 2 -0.007674 0.012263 -0.000005 0.000000 0.000000 0.000000
# 3 -0.000005 -0.000005 0.041266 0.000000 0.000000 0.000000
# 4 0.000000 0.000000 0.000000 0.737354 0.000000 0.000000
# 5 0.000000 0.000000 0.000000 0.000000 0.737354 0.000000
# 6 0.000000 0.000000 0.000000 0.000000 0.000000 0.039875
#
#
# Mechanical properties :
#
#
# Convention : Reuss Voigt Hill
#
# Bulk Modulus (GPa) = 19.83251 51.13230 35.48240
# Shear Modulus (GPa) = 3.10067 19.44977 11.27522
#
# Velocity S-wave (km/s) = 1.32589 3.32075 2.52837
# Velocity P-wave (km/s) = 3.68624 6.61010 5.35172
#
# Compressibility (1/GPa) = 0.05042227
#
# Stress axis : x y z
#
# Youngs Moduli (GPa) = 81.54579 81.54579 24.23297
#
# Poissons Ratio (x) = 0.62580 0.00013
# Poissons Ratio (y) = 0.62580 0.00013
# Poissons Ratio (z) = 0.00044 0.00044
#
# Static dielectric constant tensor:
#      x y z
#    x 1.600140 0.000000 0.000000 
#    y 0.000000 1.600140 0.000000 
#    z 0.000000 0.000000 1.642020 
# 
# From -- ./inp_files/1243.got.cif
#   From: 2010.05.17/outbox.cif.g08.bks.cpg/sg189_1_cif.got.tgz:1243.got - 2010.05.20 12:14:34.
