data_PCOD9586002
_publ_section_title
;
Structure prediction by ZEFSAII (Michael W. Deem and Ramdas Pophale) SiO2 
 PCOD9586002
Probable space group: P -6 C 2
;
_chemical_formula_sum "Si O2"
_cell_formula_units_Z 84
_cell_length_a 19.021605
_cell_length_b 19.021605
_cell_length_c 14.531915
_cell_angle_alpha 90.000000
_cell_angle_beta 90.000000
_cell_angle_gamma 120.000000
_cell_volume 4553.525767
_symmetry_space_group_name_H-M "P -6 C 2"
_symmetry_group_IT_number 188
_symmetry_cell_setting 'hexagonal'
loop_
_space_group_symop_operation_xyz
x,y,z
-x+y,-x,1/2-z
-y,x-y,z
x,y,1/2-z
-x+y,-x,z
-y,x-y,1/2-z
-y,-x,-z
-x+y,y,-z
x,x-y,-z
-x+y,y,1/2+z
x,x-y,1/2+z
-y,-x,1/2+z
loop_
_atom_site_type_symbol
_atom_site_label
_atom_site_fract_x
_atom_site_fract_y
_atom_site_fract_z
Si Si1 0.323877 0.083364 0.861784
Si Si2 0.824410 0.489949 0.861771
Si Si3 0.510051 0.175590 0.861771
Si Si4 0.165315 0.666539 0.000000
Si Si5 0.097096 0.739522 0.140304
Si Si6 0.916636 0.240513 0.361784
Si Si7 0.642427 0.902904 0.640304
O O1 0.322846 0.084490 0.750000
O O2 0.417401 0.118097 0.890421
O O3 0.299111 0.149556 0.891960
O O4 0.273474 0.989886 0.889245
O O5 0.826524 0.490440 0.750000
O O6 0.846304 0.423152 0.893423
O O7 0.733007 0.466013 0.887795
O O8 0.881903 0.582599 0.890421
O O9 0.509560 0.173476 0.750000
O O10 0.120681 0.680326 0.086978
O O11 0.258364 0.741637 0.000000
O O12 0.162146 0.581073 0.000000
O O13 0.120681 0.680326 0.913022
O O14 0.094655 0.725630 0.250000
O O15 0.169839 0.830161 0.121053
O O16 0.915510 0.238356 0.250000
O O17 0.010114 0.283587 0.389245
O O18 0.630975 0.905345 0.750000
#
# Coordination Sequence:
#
# PCOD9586002 Si02
#       7
#    12  12  12  12  12  12  12
#     4   8  14  25  42  65  93 124 157 194 236 281
#     4   8  12  17  27  47  77 112 147 181 217 258
#     4   8  12  17  27  47  77 112 147 181 217 258
#     4  10  21  36  53  74 100 130 166 208 255 308
#     4   9  18  33  52  73  98 129 164 204 252 303
#     4   8  14  25  42  65  93 124 157 194 236 281
#     4   9  18  33  52  73  98 129 164 204 252 303
#
# _framework density 18.447244000000001
#
# number of rings (size 3 to 8) (size 9 to 14) (size 15 to 20)
#    0.000    3.429    0.000    2.143    0.000    2.857 
#    0.000    3.571    0.000    2.286    0.000    4.000 
#    0.000    0.000    0.000    0.000    0.000    0.000 
#
# Total GULP energy -468183.113914 kJ/mol
# GULP energy per Si atom -5573.608499 kJ/mol
# Density = 1.840526 g / cm^3
# Si number density = 18.447244 Si / 1000 Ang^3
#
#
#
# Elastic Constant Matrix: (Units=GPa)
#
#
# Indices 1 2 3 4 5 6 
#
# 1 127.2379 101.2527 29.9881 0.0000 0.0000 0.0000
# 2 101.2527 127.2379 29.9881 0.0000 0.0000 0.0000
# 3 29.9881 29.9881 83.5205 0.0000 0.0000 0.0000
# 4 0.0000 0.0000 0.0000 -5.4711 0.0000 0.0000
# 5 0.0000 0.0000 0.0000 0.0000 -5.4711 0.0000
# 6 0.0000 0.0000 0.0000 0.0000 0.0000 12.9926
#
#
#
# Elastic Compliance Matrix: (Units=1/GPa)
#
#
# Indices 1 2 3 4 5 6 
#
# 1 0.021658 -0.016826 -0.001735 0.000000 0.000000 0.000000
# 2 -0.016826 0.021658 -0.001735 0.000000 0.000000 0.000000
# 3 -0.001735 -0.001735 0.013219 0.000000 0.000000 0.000000
# 4 0.000000 0.000000 0.000000 -0.182778 0.000000 0.000000
# 5 0.000000 0.000000 0.000000 0.000000 -0.182778 0.000000
# 6 0.000000 0.000000 0.000000 0.000000 0.000000 0.076967
#
#
# Mechanical properties :
#
#
# Convention : Reuss Voigt Hill
#
# Bulk Modulus (GPa) = 62.72270 73.38377 68.05323
# Shear Modulus (GPa) = -26.86017 12.19457 -7.33280
#
# Velocity S-wave (km/s) = -3.81997 2.57388 -1.99591
# Velocity P-wave (km/s) = 3.82345 6.97853 5.62666
#
# Compressibility (1/GPa) = 0.01594319
#
# Stress axis : x y z
#
# Youngs Moduli (GPa) = 46.17305 46.17305 75.64894
#
# Poissons Ratio (x) = 0.77689 0.13124
# Poissons Ratio (y) = 0.77689 0.13124
# Poissons Ratio (z) = 0.08011 0.08011
#
# Static dielectric constant tensor:
#      x y z
#    x 1.616670 0.000000 0.000000 
#    y 0.000000 1.616670 0.000000 
#    z 0.000000 0.000000 1.717260 
# 
# From -- ./inp_files/2598.got.cif
#   From: 2010.05.17/outbox.cif.g08.bks.cpg/sg188_2_cif.got.tgz:2598.got - 2010.05.20 12:11:46.
