data_PCOD9586566
_publ_section_title
;
Structure prediction by ZEFSAII (Michael W. Deem and Ramdas Pophale) SiO2 
 PCOD9586566
Probable space group: P -6 2 M
;
_chemical_formula_sum "Si O2"
_cell_formula_units_Z 60
_cell_length_a 14.686259
_cell_length_b 14.686259
_cell_length_c 14.445306
_cell_angle_alpha 90.000000
_cell_angle_beta 90.000000
_cell_angle_gamma 120.000000
_cell_volume 2698.234828
_symmetry_space_group_name_H-M "P -6 2 M"
_symmetry_group_IT_number 189
_symmetry_cell_setting 'hexagonal'
loop_
_space_group_symop_operation_xyz
x,y,z
-x+y,-x,-z
-y,x-y,z
x,y,-z
-x+y,-x,z
-y,x-y,-z
x-y,-y,-z
-x,-x+y,-z
y,x,-z
y,x,z
x-y,-y,z
-x,-x+y,z
loop_
_atom_site_type_symbol
_atom_site_label
_atom_site_fract_x
_atom_site_fract_y
_atom_site_fract_z
Si Si1 0.119472 0.240081 0.213909
Si Si2 0.784182 0.127826 0.601524
Si Si3 0.825324 0.556174 0.891417
Si Si4 0.394480 0.878327 0.800368
Si Si5 0.127524 0.569931 0.398911
O O1 0.150443 0.150443 0.227293
O O2 0.139584 0.302379 0.311155
O O3 0.200427 0.324576 0.142276
O O4 0.000000 0.190339 0.184295
O O5 0.834457 0.163487 0.500000
O O6 0.689697 0.152726 0.610078
O O7 0.724387 0.000000 0.602664
O O8 0.872798 0.495424 0.835493
O O9 0.703180 0.505441 0.863415
O O10 0.838195 0.547817 0.000000
O O11 0.375109 0.839477 0.693990
O O12 0.424540 0.000000 0.805021
O O13 0.165588 0.557117 0.500000
O O14 0.000000 0.500399 0.399541
#
# Coordination Sequence:
#
# PCOD9586566 Si02
#       5
#    12  12  12  12  12
#     4  11  23  40  61  90 128 172 218 264 313 370
#     4   8  14  29  56  88 121 159 202 247 300 364
#     4  12  26  43  65  93 122 157 212 271 322 381
#     4  11  23  43  68  94 126 163 200 252 322 382
#     4   8  14  30  60  93 123 157 195 239 299 373
#
# _framework density 22.236758999999999
#
# number of rings (size 3 to 8) (size 9 to 14) (size 15 to 20)
#    0.000    2.000    2.000    3.600    0.000    4.400 
#    0.000    2.000    0.000    4.800    0.000    0.000 
#    0.000    0.000    0.000    0.000    0.000    0.000 
#
# Total GULP energy -335629.755456 kJ/mol
# GULP energy per Si atom -5593.829258 kJ/mol
# Density = 2.218615 g / cm^3
# Si number density = 22.236759 Si / 1000 Ang^3
#
#
#
# Elastic Constant Matrix: (Units=GPa)
#
#
# Indices 1 2 3 4 5 6 
#
# 1 72.1122 22.5078 12.0634 0.0000 0.0000 0.0000
# 2 22.5078 72.1122 12.0634 0.0000 0.0000 0.0000
# 3 12.0634 12.0634 138.0281 0.0000 0.0000 0.0000
# 4 0.0000 0.0000 0.0000 12.4549 0.0000 0.0000
# 5 0.0000 0.0000 0.0000 0.0000 12.4549 0.0000
# 6 0.0000 0.0000 0.0000 0.0000 0.0000 24.8022
#
#
#
# Elastic Compliance Matrix: (Units=1/GPa)
#
#
# Indices 1 2 3 4 5 6 
#
# 1 0.015485 -0.004675 -0.000945 0.000000 0.000000 0.000000
# 2 -0.004675 0.015485 -0.000945 0.000000 0.000000 0.000000
# 3 -0.000945 -0.000945 0.007410 0.000000 0.000000 0.000000
# 4 0.000000 0.000000 0.000000 0.080290 0.000000 0.000000
# 5 0.000000 0.000000 0.000000 0.000000 0.080290 0.000000
# 6 0.000000 0.000000 0.000000 0.000000 0.000000 0.040319
#
#
# Mechanical properties :
#
#
# Convention : Reuss Voigt Hill
#
# Bulk Modulus (GPa) = 39.60383 41.72464 40.66424
# Shear Modulus (GPa) = 19.17007 25.65024 22.41016
#
# Velocity S-wave (km/s) = 2.93932 3.40002 3.17803
# Velocity P-wave (km/s) = 5.41924 5.84962 5.63854
#
# Compressibility (1/GPa) = 0.02525008
#
# Stress axis : x y z
#
# Youngs Moduli (GPa) = 64.58070 64.58070 134.95209
#
# Poissons Ratio (x) = 0.30192 0.12749
# Poissons Ratio (y) = 0.30192 0.12749
# Poissons Ratio (z) = 0.06101 0.06101
#
# Static dielectric constant tensor:
#      x y z
#    x 1.808550 0.000000 0.000000 
#    y 0.000000 1.808550 0.000000 
#    z 0.000000 0.000000 1.805690 
# 
# From -- ./inp_files/2514.got.cif
#   From: 2010.05.17/outbox.cif.g08.bks.cpg/sg189_2_cif.got.tgz:2514.got - 2010.05.20 12:14:34.
