data_PCOD9586985
_publ_section_title
;
Structure prediction by ZEFSAII (Michael W. Deem and Ramdas Pophale) SiO2 
 PCOD9586985
Probable space group: P -6 2 C
;
_chemical_formula_sum "Si O2"
_cell_formula_units_Z 60
_cell_length_a 11.963028
_cell_length_b 11.963028
_cell_length_c 28.150891
_cell_angle_alpha 90.000000
_cell_angle_beta 90.000000
_cell_angle_gamma 120.000000
_cell_volume 3489.032504
_symmetry_space_group_name_H-M "P -6 2 C"
_symmetry_group_IT_number 190
_symmetry_cell_setting 'hexagonal'
loop_
_space_group_symop_operation_xyz
x,y,z
-x+y,-x,1/2-z
-y,x-y,z
x,y,1/2-z
-x+y,-x,z
-y,x-y,1/2-z
x-y,-y,-z
-x,-x+y,-z
y,x,-z
y,x,1/2+z
x-y,-y,1/2+z
-x,-x+y,1/2+z
loop_
_atom_site_type_symbol
_atom_site_label
_atom_site_fract_x
_atom_site_fract_y
_atom_site_fract_z
Si Si1 0.264171 0.240700 0.443538
Si Si2 0.094464 0.415126 0.957927
Si Si3 0.512491 0.957720 0.114713
Si Si4 0.333334 0.666668 0.001091
Si Si5 0.446402 0.830933 0.694714
Si Si6 0.333334 0.666668 0.115598
Si Si7 0.000000 0.000000 0.942499
O O1 0.265990 0.265990 0.500000
O O2 0.348289 0.170587 0.436697
O O3 0.329741 0.374551 0.415789
O O4 0.118437 0.138716 0.428310
O O5 0.014163 0.444360 0.919539
O O6 0.199827 0.550393 0.981236
O O7 0.000000 0.327314 0.000000
O O8 0.411139 0.814684 0.130933
O O9 0.576113 0.055571 0.158202
O O10 0.333334 0.666667 0.057804
O O11 0.290733 0.759934 0.687019
O O12 0.472222 0.868308 0.750000
O O13 0.000000 0.000000 0.000000
#
# Coordination Sequence:
#
# PCOD9586985 Si02
#       7
#    12  12  12   4  12   4   4
#     4  11  22  37  53  77 109 150 200 241 277 326
#     4  12  22  33  55  76 113 154 198 235 279 328
#     4  12  23  36  55  84 114 152 188 231 279 350
#     4  12  21  36  45  82 116 163 195 237 273 331
#     4   8  18  39  66  90 105 127 179 244 285 318
#     4  12  27  36  49  82 132 160 184 219 291 343
#     4   9  21  36  54  72 106 152 196 243 285 312
#
# _framework density 17.196743999999999
#
# number of rings (size 3 to 8) (size 9 to 14) (size 15 to 20)
#    0.400    0.800    4.000    4.800    2.800    0.000 
#    0.000    1.000    0.000    0.000    0.000    0.000 
#    0.000    0.000    0.000    0.000    0.000    0.000 
#
# Total GULP energy -335161.510351 kJ/mol
# GULP energy per Si atom -5586.025173 kJ/mol
# Density = 1.715760 g / cm^3
# Si number density = 17.196744 Si / 1000 Ang^3
#
#
#
# Elastic Constant Matrix: (Units=GPa)
#
#
# Indices 1 2 3 4 5 6 
#
# 1 58.1620 7.3805 15.2358 0.0000 -0.0002 -0.0003
# 2 7.3805 58.1611 15.2354 0.0001 -0.0001 -0.0002
# 3 15.2358 15.2354 53.7172 -0.0001 -0.0001 -0.0001
# 4 0.0000 0.0001 -0.0001 13.3516 0.0000 0.0000
# 5 -0.0002 -0.0001 -0.0001 0.0000 13.3518 0.0000
# 6 -0.0003 -0.0002 -0.0001 0.0000 0.0000 25.3905
#
#
#
# Elastic Compliance Matrix: (Units=1/GPa)
#
#
# Indices 1 2 3 4 5 6 
#
# 1 0.018633 -0.001059 -0.004985 0.000000 0.000000 0.000000
# 2 -0.001059 0.018634 -0.004985 0.000000 0.000000 0.000000
# 3 -0.004985 -0.004985 0.021444 0.000000 0.000000 0.000000
# 4 0.000000 0.000000 0.000000 0.074898 0.000000 0.000000
# 5 0.000000 0.000000 0.000000 0.000000 0.074896 0.000000
# 6 0.000000 0.000000 0.000000 0.000000 0.000000 0.039385
#
#
# Mechanical properties :
#
#
# Convention : Reuss Voigt Hill
#
# Bulk Modulus (GPa) = 27.28179 27.30487 27.29333
# Shear Modulus (GPa) = 17.72020 19.23134 18.47577
#
# Velocity S-wave (km/s) = 3.21353 3.34775 3.28132
# Velocity P-wave (km/s) = 5.44683 5.55478 5.50107
#
# Compressibility (1/GPa) = 0.03665448
#
# Stress axis : x y z
#
# Youngs Moduli (GPa) = 53.66685 53.66619 46.63397
#
# Poissons Ratio (x) = 0.05682 0.23246
# Poissons Ratio (y) = 0.05682 0.23245
# Poissons Ratio (z) = 0.26751 0.26751
#
# Static dielectric constant tensor:
#      x y z
#    x 1.601450 0.000000 0.000000 
#    y 0.000000 1.601450 0.000000 
#    z 0.000000 0.000000 1.550910 
# 
# From -- ./inp_files/4922.got.cif
#   From: 2010.05.17/outbox.cif.g08.bks.cpg/sg190_3_cif.got.tgz:4922.got - 2010.05.20 12:16:56.
