data_PCOD9586615
_publ_section_title
;
Structure prediction by ZEFSAII (Michael W. Deem and Ramdas Pophale) SiO2 
 PCOD9586615
Probable space group: P -6 2 C
;
_chemical_formula_sum "Si O2"
_cell_formula_units_Z 84
_cell_length_a 17.431340
_cell_length_b 17.431340
_cell_length_c 16.265341
_cell_angle_alpha 90.000000
_cell_angle_beta 90.000000
_cell_angle_gamma 120.000000
_cell_volume 4280.114154
_symmetry_space_group_name_H-M "P -6 2 C"
_symmetry_group_IT_number 190
_symmetry_cell_setting 'hexagonal'
loop_
_space_group_symop_operation_xyz
x,y,z
-x+y,-x,1/2-z
-y,x-y,z
x,y,1/2-z
-x+y,-x,z
-y,x-y,1/2-z
x-y,-y,-z
-x,-x+y,-z
y,x,-z
y,x,1/2+z
x-y,-y,1/2+z
-x,-x+y,1/2+z
loop_
_atom_site_type_symbol
_atom_site_label
_atom_site_fract_x
_atom_site_fract_y
_atom_site_fract_z
Si Si1 0.420774 0.179760 0.993474
Si Si2 0.164618 0.937379 0.574615
Si Si3 0.878977 0.376066 0.250000
Si Si4 0.767102 0.997723 0.849024
Si Si5 0.582336 0.909544 0.580152
Si Si6 0.706160 0.185398 0.250000
Si Si7 0.311152 0.105282 0.843087
Si Si8 0.931521 0.413883 0.429579
O O1 0.325982 0.119662 0.038316
O O2 0.438249 0.277715 0.007878
O O3 0.492153 0.160155 0.036124
O O4 0.396494 0.145352 0.901243
O O5 0.071755 0.867030 0.615810
O O6 0.165200 0.000000 0.500000
O O7 0.237472 0.004862 0.637784
O O8 0.789493 0.282598 0.250000
O O9 0.838922 0.442589 0.250000
O O10 0.934390 0.390410 0.333836
O O11 0.748447 0.982990 0.750000
O O12 0.683925 0.983483 0.905209
O O13 0.840400 0.099917 0.858690
O O14 0.568768 0.856181 0.664889
O O15 0.509546 0.939094 0.574400
O O16 0.339387 0.116389 0.750000
O O17 0.000000 0.420213 0.500000
#
# Coordination Sequence:
#
# PCOD9586615 Si02
#       8
#    12  12   6  12  12   6  12  12
#     4  10  21  40  57  83 117 152 195 246 304 365
#     4   9  19  35  57  84 115 152 198 244 302 358
#     4  10  21  36  62  90 121 153 191 251 309 373
#     4  10  20  35  58  85 120 159 204 251 295 357
#     4  10  21  35  60  85 120 156 191 239 306 363
#     4  10  17  36  56  88 113 149 189 239 303 365
#     4  10  21  37  59  85 114 161 208 248 292 361
#     4  11  23  39  58  91 124 152 194 249 308 368
#
# _framework density 19.625644000000001
#
# number of rings (size 3 to 8) (size 9 to 14) (size 15 to 20)
#    0.000    2.000    2.143    1.857    2.000    4.571 
#    6.857    0.000    0.000    0.000    0.000    0.000 
#    0.000    0.000    0.000    0.000    0.000    0.000 
#
# Total GULP energy -468245.791425 kJ/mol
# GULP energy per Si atom -5574.354660 kJ/mol
# Density = 1.958098 g / cm^3
# Si number density = 19.625644 Si / 1000 Ang^3
#
#
#
# Elastic Constant Matrix: (Units=GPa)
#
#
# Indices 1 2 3 4 5 6 
#
# 1 29.0641 1.4803 29.0474 0.0000 0.0000 0.0000
# 2 1.4803 29.0641 29.0474 0.0000 0.0000 0.0000
# 3 29.0474 29.0474 125.6810 0.0000 0.0000 0.0000
# 4 0.0000 0.0000 0.0000 24.6950 0.0000 0.0000
# 5 0.0000 0.0000 0.0000 0.0000 24.6950 0.0000
# 6 0.0000 0.0000 0.0000 0.0000 0.0000 13.7919
#
#
#
# Elastic Compliance Matrix: (Units=1/GPa)
#
#
# Indices 1 2 3 4 5 6 
#
# 1 0.047336 0.011083 -0.013502 0.000000 0.000000 0.000000
# 2 0.011083 0.047336 -0.013502 0.000000 0.000000 0.000000
# 3 -0.013502 -0.013502 0.014198 0.000000 0.000000 0.000000
# 4 0.000000 0.000000 0.000000 0.040494 0.000000 0.000000
# 5 0.000000 0.000000 0.000000 0.000000 0.040494 0.000000
# 6 0.000000 0.000000 0.000000 0.000000 0.000000 0.072506
#
#
# Mechanical properties :
#
#
# Convention : Reuss Voigt Hill
#
# Bulk Modulus (GPa) = 12.98206 33.66213 23.32209
# Shear Modulus (GPa) = 15.63073 20.91866 18.27470
#
# Velocity S-wave (km/s) = 2.82520 3.26833 3.05481
# Velocity P-wave (km/s) = 4.15590 5.60642 4.93475
#
# Compressibility (1/GPa) = 0.07702941
#
# Stress axis : x y z
#
# Youngs Moduli (GPa) = 21.12539 21.12539 70.43353
#
# Poissons Ratio (x) = -0.23414 0.95099
# Poissons Ratio (y) = -0.23414 0.95099
# Poissons Ratio (z) = 0.28523 0.28523
#
# Static dielectric constant tensor:
#      x y z
#    x 1.714130 0.000000 0.000000 
#    y 0.000000 1.714130 0.000000 
#    z 0.000000 0.000000 1.738620 
# 
# From -- ./inp_files/3203.got.cif
#   From: 2010.05.17/outbox.cif.g08.bks.cpg/sg190_2_cif.got.tgz:3203.got - 2010.05.20 12:16:56.
