data_PCOD9586993
_publ_section_title
;
Structure prediction by ZEFSAII (Michael W. Deem and Ramdas Pophale) SiO2 
 PCOD9586993
Probable space group: P -6 2 C
;
_chemical_formula_sum "Si O2"
_cell_formula_units_Z 28
_cell_length_a 10.843938
_cell_length_b 10.843938
_cell_length_c 14.470697
_cell_angle_alpha 90.000000
_cell_angle_beta 90.000000
_cell_angle_gamma 120.000000
_cell_volume 1473.649270
_symmetry_space_group_name_H-M "P -6 2 C"
_symmetry_group_IT_number 190
_symmetry_cell_setting 'hexagonal'
loop_
_space_group_symop_operation_xyz
x,y,z
-x+y,-x,1/2-z
-y,x-y,z
x,y,1/2-z
-x+y,-x,z
-y,x-y,1/2-z
x-y,-y,-z
-x,-x+y,-z
y,x,-z
y,x,1/2+z
x-y,-y,1/2+z
-x,-x+y,1/2+z
loop_
_atom_site_type_symbol
_atom_site_label
_atom_site_fract_x
_atom_site_fract_y
_atom_site_fract_z
Si Si1 0.794422 0.281696 0.971378
Si Si2 0.000000 0.000000 0.389167
Si Si3 0.259412 0.956620 0.645537
O O1 0.815938 0.440430 0.962880
O O2 0.887632 0.260723 0.894310
O O3 0.848869 0.262360 0.070546
O O4 0.159716 0.052703 0.357257
O O5 0.000000 0.000000 0.500000
O O6 0.293071 0.935910 0.750000
#
# Coordination Sequence:
#
# PCOD9586993 Si02
#       3
#    12   4  12
#     4   9  22  41  60  88 128 158 198 245 302 363
#     4  12  22  41  64  88 125 160 208 254 304 361
#     4  11  23  40  66  93 120 160 205 255 304 356
#
# _framework density 19.000451000000002
#
# number of rings (size 3 to 8) (size 9 to 14) (size 15 to 20)
#    0.857    0.857    4.286    1.286    0.000   10.286 
#    0.000    0.000    0.000    0.000    0.000    0.000 
#    0.000    0.000    0.000    0.000    0.000    0.000 
#
# Total GULP energy -156128.624550 kJ/mol
# GULP energy per Si atom -5576.022305 kJ/mol
# Density = 1.895721 g / cm^3
# Si number density = 19.000451 Si / 1000 Ang^3
#
#
#
# Elastic Constant Matrix: (Units=GPa)
#
#
# Indices 1 2 3 4 5 6 
#
# 1 45.0285 -20.9357 -21.4026 0.0000 0.0000 0.0000
# 2 -20.9357 45.0285 -21.4026 0.0000 0.0000 0.0000
# 3 -21.4026 -21.4026 92.1569 0.0000 0.0000 0.0000
# 4 0.0000 0.0000 0.0000 0.5760 0.0000 0.0000
# 5 0.0000 0.0000 0.0000 0.0000 0.5760 0.0000
# 6 0.0000 0.0000 0.0000 0.0000 0.0000 32.9821
#
#
#
# Elastic Compliance Matrix: (Units=1/GPa)
#
#
# Indices 1 2 3 4 5 6 
#
# 1 0.042911 0.027752 0.016411 0.000000 0.000000 0.000000
# 2 0.027752 0.042911 0.016411 0.000000 0.000000 0.000000
# 3 0.016411 0.016411 0.018474 0.000000 0.000000 0.000000
# 4 0.000000 0.000000 0.000000 1.735991 0.000000 0.000000
# 5 0.000000 0.000000 0.000000 0.000000 1.735991 0.000000
# 6 0.000000 0.000000 0.000000 0.000000 0.000000 0.030319
#
#
# Mechanical properties :
#
#
# Convention : Reuss Voigt Hill
#
# Bulk Modulus (GPa) = 4.43573 6.08136 5.25854
# Shear Modulus (GPa) = 1.40426 23.22382 12.31404
#
# Velocity S-wave (km/s) = 0.86062 3.49990 2.54853
# Velocity P-wave (km/s) = 1.82405 4.42041 3.38136
#
# Compressibility (1/GPa) = 0.22544215
#
# Stress axis : x y z
#
# Youngs Moduli (GPa) = 23.30391 23.30391 54.13146
#
# Poissons Ratio (x) = -0.64672 -0.88834
# Poissons Ratio (y) = -0.64672 -0.88834
# Poissons Ratio (z) = -0.38243 -0.38243
#
# Static dielectric constant tensor:
#      x y z
#    x 1.664320 0.000000 0.000000 
#    y 0.000000 1.664320 0.000000 
#    z 0.000000 0.000000 1.649180 
# 
# From -- ./inp_files/2206.got.cif
#   From: 2010.05.17/outbox.cif.g08.bks.cpg/sg190_2_cif.got.tgz:2206.got - 2010.05.20 12:16:56.
