data_PCOD9586621
_publ_section_title
;
Structure prediction by ZEFSAII (Michael W. Deem and Ramdas Pophale) SiO2 
 PCOD9586621
Probable space group: P -6 2 C
;
_chemical_formula_sum "Si O2"
_cell_formula_units_Z 78
_cell_length_a 22.627315
_cell_length_b 22.627315
_cell_length_c 10.083932
_cell_angle_alpha 90.000000
_cell_angle_beta 90.000000
_cell_angle_gamma 120.000000
_cell_volume 4471.225626
_symmetry_space_group_name_H-M "P -6 2 C"
_symmetry_group_IT_number 190
_symmetry_cell_setting 'hexagonal'
loop_
_space_group_symop_operation_xyz
x,y,z
-x+y,-x,1/2-z
-y,x-y,z
x,y,1/2-z
-x+y,-x,z
-y,x-y,1/2-z
x-y,-y,-z
-x,-x+y,-z
y,x,-z
y,x,1/2+z
x-y,-y,1/2+z
-x,-x+y,1/2+z
loop_
_atom_site_type_symbol
_atom_site_label
_atom_site_fract_x
_atom_site_fract_y
_atom_site_fract_z
Si Si1 0.497498 0.550872 0.603816
Si Si2 0.563977 0.910247 0.893255
Si Si3 0.314531 0.066516 0.407498
Si Si4 0.837027 0.135964 0.601618
Si Si5 0.262135 0.462308 0.399627
Si Si6 0.712334 0.000000 0.000000
Si Si7 0.478118 0.170495 0.401545
O O1 0.528828 0.565165 0.750000
O O2 0.547827 0.547827 0.500000
O O3 0.427786 0.478924 0.606933
O O4 0.482751 0.611610 0.574131
O O5 0.551289 0.874403 0.750000
O O6 0.536730 0.859094 0.015928
O O7 0.645253 0.959006 0.907532
O O8 0.295805 0.052488 0.250000
O O9 0.284208 0.109342 0.483421
O O10 0.397000 0.114704 0.410284
O O11 0.290636 0.000000 0.500000
O O12 0.866529 0.141526 0.750000
O O13 0.792886 0.174309 0.607754
O O14 0.781144 0.057725 0.568591
O O15 0.279973 0.488365 0.250000
O O16 0.227410 0.494794 0.489227
O O17 0.491098 0.196430 0.250000
#
# Coordination Sequence:
#
# PCOD9586621 Si02
#       7
#    12  12  12  12  12   6  12
#     4  10  20  32  47  71 100 131 164 202 251 307
#     4  10  19  31  48  70  99 132 164 202 249 301
#     4  10  19  31  48  69  96 129 163 201 243 287
#     4   9  18  30  46  69  96 127 161 195 236 286
#     4   9  18  31  48  68  90 121 161 201 245 294
#     4  10  18  30  50  74 102 134 166 204 240 288
#     4   9  18  32  49  69  94 125 163 204 247 298
#
# _framework density 17.444882
#
# number of rings (size 3 to 8) (size 9 to 14) (size 15 to 20)
#    0.000    2.462    0.769    1.846    0.000    6.769 
#    0.000    0.000    0.000    0.615    0.000    2.154 
#    0.769    0.000    0.923    0.000    0.615    0.000 
#
# Total GULP energy -434214.059790 kJ/mol
# GULP energy per Si atom -5566.846920 kJ/mol
# Density = 1.740518 g / cm^3
# Si number density = 17.444882 Si / 1000 Ang^3
#
#
#
# Elastic Constant Matrix: (Units=GPa)
#
#
# Indices 1 2 3 4 5 6 
#
# 1 25.5008 0.2656 22.2739 0.0000 0.0000 0.0000
# 2 0.2656 25.5008 22.2739 0.0000 0.0000 0.0000
# 3 22.2739 22.2739 133.3047 0.0000 0.0000 0.0000
# 4 0.0000 0.0000 0.0000 22.3800 0.0000 0.0000
# 5 0.0000 0.0000 0.0000 0.0000 22.3800 0.0000
# 6 0.0000 0.0000 0.0000 0.0000 0.0000 12.6176
#
#
#
# Elastic Compliance Matrix: (Units=1/GPa)
#
#
# Indices 1 2 3 4 5 6 
#
# 1 0.047102 0.007475 -0.009119 0.000000 0.000000 0.000000
# 2 0.007475 0.047102 -0.009119 0.000000 0.000000 0.000000
# 3 -0.009119 -0.009119 0.010549 0.000000 0.000000 0.000000
# 4 0.000000 0.000000 0.000000 0.044683 0.000000 0.000000
# 5 0.000000 0.000000 0.000000 0.000000 0.044683 0.000000
# 6 0.000000 0.000000 0.000000 0.000000 0.000000 0.079255
#
#
# Mechanical properties :
#
#
# Convention : Reuss Voigt Hill
#
# Bulk Modulus (GPa) = 12.01556 30.43699 21.22627
# Shear Modulus (GPa) = 15.49705 20.77505 18.13605
#
# Velocity S-wave (km/s) = 2.98374 3.45468 3.22781
# Velocity P-wave (km/s) = 4.33278 5.77914 5.10742
#
# Compressibility (1/GPa) = 0.08322542
#
# Stress axis : x y z
#
# Youngs Moduli (GPa) = 21.23056 21.23056 94.79524
#
# Poissons Ratio (x) = -0.15869 0.86446
# Poissons Ratio (y) = -0.15869 0.86446
# Poissons Ratio (z) = 0.19361 0.19361
#
# Static dielectric constant tensor:
#      x y z
#    x 1.599620 0.000000 0.000000 
#    y 0.000000 1.599620 0.000000 
#    z 0.000000 0.000000 1.634720 
# 
# From -- ./inp_files/1358.got.cif
#   From: 2010.05.17/outbox.cif.g08.bks.cpg/sg190_1_cif.got.tgz:1358.got - 2010.05.20 12:16:56.
