data_PCOD9586433
_publ_section_title
;
Structure prediction by ZEFSAII (Michael W. Deem and Ramdas Pophale) SiO2 
 PCOD9586433
Probable space group: P -6 2 M
;
_chemical_formula_sum "Si O2"
_cell_formula_units_Z 44
_cell_length_a 17.436866
_cell_length_b 17.436866
_cell_length_c 9.034682
_cell_angle_alpha 90.000000
_cell_angle_beta 90.000000
_cell_angle_gamma 120.000000
_cell_volume 2378.922877
_symmetry_space_group_name_H-M "P -6 2 M"
_symmetry_group_IT_number 189
_symmetry_cell_setting 'hexagonal'
loop_
_space_group_symop_operation_xyz
x,y,z
-x+y,-x,-z
-y,x-y,z
x,y,-z
-x+y,-x,z
-y,x-y,-z
x-y,-y,-z
-x,-x+y,-z
y,x,-z
y,x,z
x-y,-y,z
-x,-x+y,z
loop_
_atom_site_type_symbol
_atom_site_label
_atom_site_fract_x
_atom_site_fract_y
_atom_site_fract_z
Si Si1 0.645045 0.538764 0.671509
Si Si2 0.000000 0.821004 0.821472
Si Si3 0.614087 0.106840 0.167473
Si Si4 0.793412 0.151112 0.323354
Si Si5 0.000000 0.000000 0.179345
O O1 0.644344 0.512744 0.500000
O O2 0.593468 0.593468 0.678915
O O3 0.590110 0.451356 0.769227
O O4 0.746142 0.603394 0.715275
O O5 0.914718 0.733546 0.758410
O O6 0.000000 0.910571 0.775535
O O7 0.000000 0.816678 0.000000
O O8 0.696582 0.130012 0.271949
O O9 0.557144 0.000000 0.163306
O O10 0.643382 0.138462 0.000000
O O11 0.795494 0.139491 0.500000
O O12 0.000000 0.000000 0.000000
#
# Coordination Sequence:
#
# PCOD9586433 Si02
#       5
#    12   6  12  12   2
#     4   9  20  38  59  83 114 149 191 241 293 353
#     4  11  23  41  63  88 121 164 211 257 306 367
#     4  10  20  36  58  84 114 148 190 237 286 347
#     4  11  22  37  61  90 119 157 199 246 303 362
#     4   9  24  45  61  86 127 168 205 257 316 357
#
# _framework density 18.495764999999999
#
# number of rings (size 3 to 8) (size 9 to 14) (size 15 to 20)
#    0.000    1.909    1.364    2.045    1.909    3.273 
#    1.636    2.045    0.000    0.000    0.000    0.000 
#    0.000    0.000    0.000    0.000    0.000    0.000 
#
# Total GULP energy -245565.920116 kJ/mol
# GULP energy per Si atom -5581.043639 kJ/mol
# Density = 1.845367 g / cm^3
# Si number density = 18.495765 Si / 1000 Ang^3
#
#
#
# Elastic Constant Matrix: (Units=GPa)
#
#
# Indices 1 2 3 4 5 6 
#
# 1 93.1709 43.6323 40.7153 0.0000 0.0000 0.0000
# 2 43.6323 93.1709 40.7153 0.0000 0.0000 0.0000
# 3 40.7153 40.7153 63.5314 0.0000 0.0000 0.0000
# 4 0.0000 0.0000 0.0000 25.2237 0.0000 0.0000
# 5 0.0000 0.0000 0.0000 0.0000 25.2237 0.0000
# 6 0.0000 0.0000 0.0000 0.0000 0.0000 24.7693
#
#
#
# Elastic Compliance Matrix: (Units=1/GPa)
#
#
# Indices 1 2 3 4 5 6 
#
# 1 0.016002 -0.004184 -0.007574 0.000000 0.000000 0.000000
# 2 -0.004184 0.016002 -0.007574 0.000000 0.000000 0.000000
# 3 -0.007574 -0.007574 0.025448 0.000000 0.000000 0.000000
# 4 0.000000 0.000000 0.000000 0.039645 0.000000 0.000000
# 5 0.000000 0.000000 0.000000 0.000000 0.039645 0.000000
# 6 0.000000 0.000000 0.000000 0.000000 0.000000 0.040373
#
#
# Mechanical properties :
#
#
# Convention : Reuss Voigt Hill
#
# Bulk Modulus (GPa) = 53.22352 55.55546 54.38949
# Shear Modulus (GPa) = 22.51831 23.36402 22.94116
#
# Velocity S-wave (km/s) = 3.49303 3.55802 3.52568
# Velocity P-wave (km/s) = 6.71617 6.85430 6.78558
#
# Compressibility (1/GPa) = 0.01878869
#
# Stress axis : x y z
#
# Youngs Moduli (GPa) = 62.49168 62.49168 39.29606
#
# Poissons Ratio (x) = 0.26147 0.29762
# Poissons Ratio (y) = 0.26147 0.29762
# Poissons Ratio (z) = 0.47330 0.47330
#
# Static dielectric constant tensor:
#      x y z
#    x 1.624780 0.000000 0.000000 
#    y 0.000000 1.624780 0.000000 
#    z 0.000000 0.000000 1.639880 
# 
# From -- ./inp_files/593.got.cif
#   From: 2010.05.17/outbox.cif.g08.bks.cpg/sg189_1_cif.got.tgz:593.got - 2010.05.20 12:14:34.
