data_PCOD9586238
_publ_section_title
;
Structure prediction by ZEFSAII (Michael W. Deem and Ramdas Pophale) SiO2 
 PCOD9586238
Probable space group: P -6 2 M
;
_chemical_formula_sum "Si O2"
_cell_formula_units_Z 72
_cell_length_a 24.549702
_cell_length_b 24.549702
_cell_length_c 8.260687
_cell_angle_alpha 90.000000
_cell_angle_beta 90.000000
_cell_angle_gamma 120.000000
_cell_volume 4311.607792
_symmetry_space_group_name_H-M "P -6 2 M"
_symmetry_group_IT_number 189
_symmetry_cell_setting 'hexagonal'
loop_
_space_group_symop_operation_xyz
x,y,z
-x+y,-x,-z
-y,x-y,z
x,y,-z
-x+y,-x,z
-y,x-y,-z
x-y,-y,-z
-x,-x+y,-z
y,x,-z
y,x,z
x-y,-y,z
-x,-x+y,z
loop_
_atom_site_type_symbol
_atom_site_label
_atom_site_fract_x
_atom_site_fract_y
_atom_site_fract_z
Si Si1 0.856026 0.927405 0.804545
Si Si2 0.191367 0.263811 0.695322
Si Si3 0.258513 0.728663 0.812210
Si Si4 0.589281 0.192212 0.309770
Si Si5 0.856011 0.593268 0.303996
Si Si6 0.070949 0.591700 0.302670
O O1 0.884191 0.884191 0.747296
O O2 0.785926 0.906970 0.749017
O O3 0.900303 0.000000 0.750864
O O4 0.856924 0.927528 0.000000
O O5 0.193235 0.264942 0.500000
O O6 0.235413 0.235413 0.750791
O O7 0.218987 0.335234 0.751150
O O8 0.330761 0.777886 0.778102
O O9 0.236605 0.664337 0.713711
O O10 0.211673 0.753854 0.763017
O O11 0.249514 0.711195 0.000000
O O12 0.574832 0.188284 0.500000
O O13 0.574560 0.123549 0.250360
O O14 0.852415 0.591738 0.500000
O O15 0.903324 0.567741 0.257755
O O16 0.070498 0.590206 0.500000
O O17 0.000000 0.547010 0.246013
#
# Coordination Sequence:
#
# PCOD9586238 Si02
#       6
#    12  12  12  12  12  12
#     4   9  17  29  45  65  91 124 159 193 233 284
#     4   9  17  29  47  71  96 121 152 193 237 278
#     4  11  21  32  47  69  97 124 154 191 229 268
#     4  10  19  32  50  70  94 123 155 188 227 275
#     4   9  17  30  48  69  94 123 152 182 223 277
#     4   8  14  26  47  72  92 113 144 181 219 263
#
# _framework density 16.699107999999999
#
# number of rings (size 3 to 8) (size 9 to 14) (size 15 to 20)
#    0.000    2.667    0.000    4.000    0.000    3.667 
#    0.000    0.000    0.000   18.500    0.000    2.333 
#    0.000    0.000    0.000    0.000    0.000    0.000 
#
# Total GULP energy -401427.106307 kJ/mol
# GULP energy per Si atom -5575.376476 kJ/mol
# Density = 1.666110 g / cm^3
# Si number density = 16.699108 Si / 1000 Ang^3
#
#
#
# Elastic Constant Matrix: (Units=GPa)
#
#
# Indices 1 2 3 4 5 6 
#
# 1 120.2194 70.7986 0.4167 0.0000 0.0000 0.0000
# 2 70.7986 120.2194 0.4167 0.0000 0.0000 0.0000
# 3 0.4167 0.4167 11.2600 0.0000 0.0000 0.0000
# 4 0.0000 0.0000 0.0000 6.5926 0.0000 0.0000
# 5 0.0000 0.0000 0.0000 0.0000 6.5926 0.0000
# 6 0.0000 0.0000 0.0000 0.0000 0.0000 24.7104
#
#
#
# Elastic Compliance Matrix: (Units=1/GPa)
#
#
# Indices 1 2 3 4 5 6 
#
# 1 0.012735 -0.007499 -0.000194 0.000000 0.000000 0.000000
# 2 -0.007499 0.012735 -0.000194 0.000000 0.000000 0.000000
# 3 -0.000194 -0.000194 0.088824 0.000000 0.000000 0.000000
# 4 0.000000 0.000000 0.000000 0.151684 0.000000 0.000000
# 5 0.000000 0.000000 0.000000 0.000000 0.151684 0.000000
# 6 0.000000 0.000000 0.000000 0.000000 0.000000 0.040469
#
#
# Mechanical properties :
#
#
# Convention : Reuss Voigt Hill
#
# Bulk Modulus (GPa) = 10.15008 43.88473 27.01741
# Shear Modulus (GPa) = 9.86687 19.58358 14.72523
#
# Velocity S-wave (km/s) = 2.43340 3.42823 2.97273
# Velocity P-wave (km/s) = 3.73988 6.48129 5.29121
#
# Compressibility (1/GPa) = 0.09852135
#
# Stress axis : x y z
#
# Youngs Moduli (GPa) = 78.52264 78.52264 11.25816
#
# Poissons Ratio (x) = 0.58886 0.00218
# Poissons Ratio (y) = 0.58886 0.00218
# Poissons Ratio (z) = 0.01521 0.01521
#
# Static dielectric constant tensor:
#      x y z
#    x 1.552540 0.000000 0.000000 
#    y 0.000000 1.552540 0.000000 
#    z 0.000000 0.000000 1.574450 
# 
# From -- ./inp_files/1273.got.cif
#   From: 2010.05.17/outbox.cif.g08.bks.cpg/sg189_1_cif.got.tgz:1273.got - 2010.05.20 12:14:34.
