data_PCOD9586331
_publ_section_title
;
Structure prediction by ZEFSAII (Michael W. Deem and Ramdas Pophale) SiO2 
 PCOD9586331
Probable space group: P -6 2 M
;
_chemical_formula_sum "Si O2"
_cell_formula_units_Z 40
_cell_length_a 19.685041
_cell_length_b 19.685041
_cell_length_c 8.778057
_cell_angle_alpha 90.000000
_cell_angle_beta 90.000000
_cell_angle_gamma 120.000000
_cell_volume 2945.789268
_symmetry_space_group_name_H-M "P -6 2 M"
_symmetry_group_IT_number 189
_symmetry_cell_setting 'hexagonal'
loop_
_space_group_symop_operation_xyz
x,y,z
-x+y,-x,-z
-y,x-y,z
x,y,-z
-x+y,-x,z
-y,x-y,-z
x-y,-y,-z
-x,-x+y,-z
y,x,-z
y,x,z
x-y,-y,z
-x,-x+y,z
loop_
_atom_site_type_symbol
_atom_site_label
_atom_site_fract_x
_atom_site_fract_y
_atom_site_fract_z
Si Si1 0.756307 0.248360 0.317549
Si Si2 0.089871 0.461652 0.182066
Si Si3 0.333334 0.666668 0.182460
Si Si4 0.522461 0.911247 0.317091
O O1 0.758084 0.256251 0.500000
O O2 0.844286 0.291138 0.254726
O O3 0.715730 0.294490 0.245751
O O4 0.698193 0.157281 0.277340
O O5 0.103869 0.545736 0.240398
O O6 0.000000 0.399353 0.223616
O O7 0.096919 0.464442 0.000000
O O8 0.333334 0.666668 0.000000
O O9 0.510719 0.908061 0.500000
O O10 0.588020 0.000000 0.276957
#
# Coordination Sequence:
#
# PCOD9586331 Si02
#       4
#    12  12   4  12
#     4  11  20  30  45  62  82 109 142 177 214 255
#     4  10  20  31  43  60  82 109 141 176 213 249
#     4  12  22  29  40  60  85 110 142 183 214 245
#     4   9  18  31  45  60  80 106 137 174 213 252
#
# _framework density 13.578704
#
# number of rings (size 3 to 8) (size 9 to 14) (size 15 to 20)
#    0.000    1.800    3.000    2.700    0.000    3.000 
#    0.000    0.000    0.000    0.000    0.000    0.000 
#    0.000    0.000    0.000    0.900    0.000   13.800 
#
# Total GULP energy -223117.118994 kJ/mol
# GULP energy per Si atom -5577.927975 kJ/mol
# Density = 1.354780 g / cm^3
# Si number density = 13.578704 Si / 1000 Ang^3
#
#
#
# Elastic Constant Matrix: (Units=GPa)
#
#
# Indices 1 2 3 4 5 6 
#
# 1 93.8449 47.6675 33.3050 0.0001 -0.0001 0.0001
# 2 47.6675 93.8448 33.3049 0.0000 0.0000 -0.0001
# 3 33.3050 33.3049 38.7083 0.0002 0.0001 0.0001
# 4 0.0001 0.0000 0.0002 13.7338 -0.0001 0.0000
# 5 -0.0001 0.0000 0.0001 -0.0001 13.7339 -0.0001
# 6 0.0001 -0.0001 0.0001 0.0000 -0.0001 23.0884
#
#
#
# Elastic Compliance Matrix: (Units=1/GPa)
#
#
# Indices 1 2 3 4 5 6 
#
# 1 0.016766 -0.004890 -0.010219 0.000000 0.000000 0.000000
# 2 -0.004890 0.016766 -0.010219 0.000000 0.000000 0.000000
# 3 -0.010219 -0.010219 0.043419 0.000000 0.000000 0.000000
# 4 0.000000 0.000000 0.000000 0.072813 0.000000 0.000000
# 5 0.000000 0.000000 0.000000 0.000000 0.072812 0.000000
# 6 0.000000 0.000000 0.000000 0.000000 0.000000 0.043312
#
#
# Mechanical properties :
#
#
# Convention : Reuss Voigt Hill
#
# Bulk Modulus (GPa) = 38.02697 50.55029 44.28863
# Shear Modulus (GPa) = 15.37008 17.58592 16.47800
#
# Velocity S-wave (km/s) = 3.36806 3.60267 3.48734
# Velocity P-wave (km/s) = 6.57197 7.39013 6.99303
#
# Compressibility (1/GPa) = 0.02629712
#
# Stress axis : x y z
#
# Youngs Moduli (GPa) = 59.64446 59.64450 23.03162
#
# Poissons Ratio (x) = 0.29164 0.23535
# Poissons Ratio (y) = 0.29164 0.23535
# Poissons Ratio (z) = 0.60948 0.60948
#
# Static dielectric constant tensor:
#      x y z
#    x 1.449850 0.000000 0.000000 
#    y 0.000000 1.449850 0.000000 
#    z 0.000000 0.000000 1.453800 
# 
# From -- ./inp_files/471.got.cif
#   From: 2010.05.17/outbox.cif.g08.bks.cpg/sg189_1_cif.got.tgz:471.got - 2010.05.20 12:14:34.
