data_PCOD9586829
_publ_section_title
;
Structure prediction by ZEFSAII (Michael W. Deem and Ramdas Pophale) SiO2 
 PCOD9586829
Probable space group: P -6 2 C
;
_chemical_formula_sum "Si O2"
_cell_formula_units_Z 76
_cell_length_a 17.385558
_cell_length_b 17.385558
_cell_length_c 14.895387
_cell_angle_alpha 90.000000
_cell_angle_beta 90.000000
_cell_angle_gamma 120.000000
_cell_volume 3899.057962
_symmetry_space_group_name_H-M "P -6 2 C"
_symmetry_group_IT_number 190
_symmetry_cell_setting 'hexagonal'
loop_
_space_group_symop_operation_xyz
x,y,z
-x+y,-x,1/2-z
-y,x-y,z
x,y,1/2-z
-x+y,-x,z
-y,x-y,1/2-z
x-y,-y,-z
-x,-x+y,-z
y,x,-z
y,x,1/2+z
x-y,-y,1/2+z
-x,-x+y,1/2+z
loop_
_atom_site_type_symbol
_atom_site_label
_atom_site_fract_x
_atom_site_fract_y
_atom_site_fract_z
Si Si1 0.666667 0.333334 0.859283
Si Si2 0.339868 0.105266 0.002999
Si Si3 0.630146 0.152237 0.350355
Si Si4 0.184525 0.543379 0.482871
Si Si5 0.770094 0.100282 0.646611
Si Si6 0.576902 0.038975 0.904647
Si Si7 0.787131 0.105712 0.145382
O O1 0.666667 0.333334 0.750000
O O2 0.575869 0.262328 0.909193
O O3 0.445496 0.151728 0.017841
O O4 0.328895 0.155590 0.916894
O O5 0.296837 0.130557 0.084327
O O6 0.296506 0.000000 0.000000
O O7 0.635750 0.188922 0.250000
O O8 0.608335 0.199783 0.431513
O O9 0.715766 0.140076 0.366480
O O10 0.553834 0.047981 0.352128
O O11 0.103440 0.540424 0.428545
O O12 0.797977 0.116193 0.750000
O O13 0.673861 0.093900 0.638201
O O14 0.740312 0.998317 0.622120
O O15 0.586626 0.000000 0.000000
O O16 0.808415 0.114416 0.250000
#
# Coordination Sequence:
#
# PCOD9586829 Si02
#       7
#     4  12  12  12  12  12  12
#     4  12  27  42  58  74 100 153 207 246 286 329
#     4  12  24  37  56  85 120 151 177 221 291 353
#     4   9  17  33  59  86 112 151 194 233 280 330
#     4  11  23  38  52  79 121 155 191 237 280 332
#     4  10  20  37  62  86 106 141 195 243 275 320
#     4   9  16  31  56  84 117 154 192 231 272 320
#     4   9  19  38  64  86 106 141 193 241 275 320
#
# _framework density 19.491887999999999
#
# number of rings (size 3 to 8) (size 9 to 14) (size 15 to 20)
#    0.000    1.895    0.000    8.053    0.000    4.421 
#    0.000    2.368    0.000    2.526    0.000    0.000 
#    0.000    0.000    0.000    0.000    0.000    0.000 
#
# Total GULP energy -423952.738961 kJ/mol
# GULP energy per Si atom -5578.325513 kJ/mol
# Density = 1.944752 g / cm^3
# Si number density = 19.491888 Si / 1000 Ang^3
#
#
#
# Elastic Constant Matrix: (Units=GPa)
#
#
# Indices 1 2 3 4 5 6 
#
# 1 37.9226 -0.8822 15.9474 0.0000 0.0000 0.0000
# 2 -0.8822 37.9226 15.9475 0.0000 0.0001 0.0000
# 3 15.9474 15.9475 73.5989 0.0000 0.0000 0.0000
# 4 0.0000 0.0000 0.0000 15.2113 0.0000 0.0000
# 5 0.0000 0.0001 0.0000 0.0000 15.2112 0.0000
# 6 0.0000 0.0000 0.0000 0.0000 0.0000 19.4025
#
#
#
# Elastic Compliance Matrix: (Units=1/GPa)
#
#
# Indices 1 2 3 4 5 6 
#
# 1 0.029480 0.003710 -0.007192 0.000000 0.000000 0.000000
# 2 0.003710 0.029480 -0.007192 0.000000 0.000000 0.000000
# 3 -0.007192 -0.007192 0.016704 0.000000 0.000000 0.000000
# 4 0.000000 0.000000 0.000000 0.065741 0.000000 0.000000
# 5 0.000000 0.000000 0.000000 0.000000 0.065741 0.000000
# 6 0.000000 0.000000 0.000000 0.000000 0.000000 0.051540
#
#
# Mechanical properties :
#
#
# Convention : Reuss Voigt Hill
#
# Bulk Modulus (GPa) = 18.41027 23.49661 20.95344
# Shear Modulus (GPa) = 16.77076 17.86042 17.31559
#
# Velocity S-wave (km/s) = 2.93643 3.03033 2.98375
# Velocity P-wave (km/s) = 4.57848 4.93200 4.75852
#
# Compressibility (1/GPa) = 0.05431750
#
# Stress axis : x y z
#
# Youngs Moduli (GPa) = 33.92115 33.92113 59.86670
#
# Poissons Ratio (x) = -0.12585 0.43054
# Poissons Ratio (y) = -0.12585 0.43055
# Poissons Ratio (z) = 0.24395 0.24395
#
# Static dielectric constant tensor:
#      x y z
#    x 1.714610 0.000000 0.000000 
#    y 0.000000 1.714610 0.000000 
#    z 0.000000 0.000000 1.716580 
# 
# From -- ./inp_files/3060.got.cif
#   From: 2010.05.17/outbox.cif.g08.bks.cpg/sg190_2_cif.got.tgz:3060.got - 2010.05.20 12:16:56.
