data_PCOD9586379
_publ_section_title
;
Structure prediction by ZEFSAII (Michael W. Deem and Ramdas Pophale) SiO2 
 PCOD9586379
Probable space group: P -6 2 M
;
_chemical_formula_sum "Si O2"
_cell_formula_units_Z 72
_cell_length_a 18.731713
_cell_length_b 18.731713
_cell_length_c 12.783967
_cell_angle_alpha 90.000000
_cell_angle_beta 90.000000
_cell_angle_gamma 120.000000
_cell_volume 3884.644338
_symmetry_space_group_name_H-M "P -6 2 M"
_symmetry_group_IT_number 189
_symmetry_cell_setting 'hexagonal'
loop_
_space_group_symop_operation_xyz
x,y,z
-x+y,-x,-z
-y,x-y,z
x,y,-z
-x+y,-x,z
-y,x-y,-z
x-y,-y,-z
-x,-x+y,-z
y,x,-z
y,x,z
x-y,-y,z
-x,-x+y,z
loop_
_atom_site_type_symbol
_atom_site_label
_atom_site_fract_x
_atom_site_fract_y
_atom_site_fract_z
Si Si1 0.518844 0.098664 0.388797
Si Si2 0.902503 0.590529 0.380510
Si Si3 0.824018 0.167465 0.789271
Si Si4 0.534396 0.433636 0.000000
Si Si5 0.900556 0.355471 0.178535
Si Si6 0.097447 0.196417 0.621625
Si Si7 0.903581 0.631987 0.000000
O O1 0.514332 0.134205 0.500000
O O2 0.607508 0.106731 0.375716
O O3 0.494346 0.132391 0.291328
O O4 0.456268 0.000000 0.391314
O O5 0.883052 0.602662 0.500000
O O6 0.849514 0.600442 0.291314
O O7 0.000000 0.656126 0.363061
O O8 0.872510 0.260404 0.832548
O O9 0.876893 0.140723 0.714431
O O10 0.782058 0.117302 0.894683
O O11 0.596383 0.470330 0.901998
O O12 0.481538 0.481538 0.000000
O O13 0.868149 0.532165 0.000000
O O14 0.000000 0.406371 0.176299
O O15 0.110699 0.228772 0.500000
O O16 0.150730 0.150730 0.632839
O O17 0.000000 0.132503 0.630344
O O18 0.000000 0.669027 0.000000
#
# Coordination Sequence:
#
# PCOD9586379 Si02
#       7
#    12  12  12   6  12  12   6
#     4   8  15  29  50  73  97 128 166 207 251 307
#     4   9  17  31  52  77 104 136 176 223 278 336
#     4  12  22  33  53  84 115 141 180 241 294 327
#     4   9  19  38  60  75  92 128 175 216 255 313
#     4  10  20  34  52  75 104 138 173 210 261 324
#     4  10  21  38  59  83 116 160 204 243 291 357
#     4  11  23  38  59  83 105 134 176 226 280 335
#
# _framework density 18.534514999999999
#
# number of rings (size 3 to 8) (size 9 to 14) (size 15 to 20)
#    0.000    2.167    0.000    5.167    0.000    6.000 
#    0.000    2.917    0.000    9.333    0.000    1.167 
#    0.000    0.000    0.000    0.000    0.000    0.000 
#
# Total GULP energy -401002.474372 kJ/mol
# GULP energy per Si atom -5569.478811 kJ/mol
# Density = 1.849233 g / cm^3
# Si number density = 18.534515 Si / 1000 Ang^3
#
#
#
# Elastic Constant Matrix: (Units=GPa)
#
#
# Indices 1 2 3 4 5 6 
#
# 1 39.5760 17.1567 30.4027 0.0000 0.0000 0.0000
# 2 17.1567 39.5760 30.4027 0.0000 0.0000 0.0000
# 3 30.4027 30.4027 105.2531 0.0000 0.0000 0.0000
# 4 0.0000 0.0000 0.0000 122.1220 0.0000 0.0000
# 5 0.0000 0.0000 0.0000 0.0000 122.1220 0.0000
# 6 0.0000 0.0000 0.0000 0.0000 0.0000 11.2097
#
#
#
# Elastic Compliance Matrix: (Units=1/GPa)
#
#
# Indices 1 2 3 4 5 6 
#
# 1 0.035067 -0.009537 -0.007375 0.000000 0.000000 0.000000
# 2 -0.009537 0.035067 -0.007375 0.000000 0.000000 0.000000
# 3 -0.007375 -0.007375 0.013761 0.000000 0.000000 0.000000
# 4 0.000000 0.000000 0.000000 0.008189 0.000000 0.000000
# 5 0.000000 0.000000 0.000000 0.000000 0.008189 0.000000
# 6 0.000000 0.000000 0.000000 0.000000 0.000000 0.089209
#
#
# Mechanical properties :
#
#
# Convention : Reuss Voigt Hill
#
# Bulk Modulus (GPa) = 28.30939 37.81436 33.06187
# Shear Modulus (GPa) = 20.01374 58.18695 39.10034
#
# Velocity S-wave (km/s) = 3.28961 5.60910 4.59802
# Velocity P-wave (km/s) = 5.45305 7.89910 6.78717
#
# Compressibility (1/GPa) = 0.03532396
#
# Stress axis : x y z
#
# Youngs Moduli (GPa) = 28.51652 28.51652 72.66787
#
# Poissons Ratio (x) = 0.27196 0.53589
# Poissons Ratio (y) = 0.27196 0.53589
# Poissons Ratio (z) = 0.21030 0.21030
#
# Static dielectric constant tensor:
#      x y z
#    x 1.641240 0.000000 0.000000 
#    y 0.000000 1.641240 0.000000 
#    z 0.000000 0.000000 1.680150 
# 
# From -- ./inp_files/2090.got.cif
#   From: 2010.05.17/outbox.cif.g08.bks.cpg/sg189_2_cif.got.tgz:2090.got - 2010.05.20 12:14:34.
