data_PCOD9586819
_publ_section_title
;
Structure prediction by ZEFSAII (Michael W. Deem and Ramdas Pophale) SiO2 
 PCOD9586819
Probable space group: P -6 2 C
;
_chemical_formula_sum "Si O2"
_cell_formula_units_Z 76
_cell_length_a 16.007291
_cell_length_b 16.007291
_cell_length_c 15.338679
_cell_angle_alpha 90.000000
_cell_angle_beta 90.000000
_cell_angle_gamma 120.000000
_cell_volume 3403.723482
_symmetry_space_group_name_H-M "P -6 2 C"
_symmetry_group_IT_number 190
_symmetry_cell_setting 'hexagonal'
loop_
_space_group_symop_operation_xyz
x,y,z
-x+y,-x,1/2-z
-y,x-y,z
x,y,1/2-z
-x+y,-x,z
-y,x-y,1/2-z
x-y,-y,-z
-x,-x+y,-z
y,x,-z
y,x,1/2+z
x-y,-y,1/2+z
-x,-x+y,1/2+z
loop_
_atom_site_type_symbol
_atom_site_label
_atom_site_fract_x
_atom_site_fract_y
_atom_site_fract_z
Si Si1 0.802592 0.641368 0.977091
Si Si2 0.870736 0.522622 0.851803
Si Si3 0.818523 0.094375 0.348584
Si Si4 0.117243 0.525098 0.496575
Si Si5 0.000000 0.000000 0.396740
Si Si6 0.102416 0.625673 0.657246
Si Si7 0.092648 0.211822 0.152538
O O1 0.849751 0.589989 0.917554
O O2 0.702019 0.554855 0.008294
O O3 0.797002 0.713704 0.908364
O O4 0.859940 0.714195 0.056149
O O5 0.837426 0.515823 0.750000
O O6 0.840431 0.425214 0.906741
O O7 0.985904 0.567123 0.846610
O O8 0.863649 0.121026 0.250000
O O9 0.732567 0.119301 0.343943
O O10 0.786480 0.981339 0.359188
O O11 0.146375 0.599371 0.576220
O O12 0.000000 0.468248 0.500000
O O13 0.014202 0.100764 0.363319
O O14 0.000000 0.000000 0.500000
O O15 0.133513 0.604850 0.750000
O O16 0.091285 0.241029 0.250000
#
# Coordination Sequence:
#
# PCOD9586819 Si02
#       7
#    12  12  12  12   4  12  12
#     4  12  22  37  63  94 127 163 215 270 320 400
#     4  10  20  37  61  87 116 156 206 260 313 369
#     4  10  20  36  63  93 117 157 220 271 316 380
#     4  10  23  39  58  86 125 161 203 252 318 384
#     4  12  25  44  64  96 145 182 221 284 343 390
#     4   9  17  36  64  87 112 152 206 263 312 373
#     4  11  24  41  65  95 131 180 224 269 328 391
#
# _framework density 22.328489999999999
#
# number of rings (size 3 to 8) (size 9 to 14) (size 15 to 20)
#    0.000    1.579    3.158    2.368    0.000    3.789 
#    0.947    0.000    0.000    0.000    0.000    0.000 
#    0.000    0.000    0.000    0.000    0.000    0.000 
#
# Total GULP energy -423569.272899 kJ/mol
# GULP energy per Si atom -5573.279907 kJ/mol
# Density = 2.227767 g / cm^3
# Si number density = 22.328490 Si / 1000 Ang^3
#
#
#
# Elastic Constant Matrix: (Units=GPa)
#
#
# Indices 1 2 3 4 5 6 
#
# 1 42.0362 1.4875 23.9024 0.0000 0.0000 0.0000
# 2 1.4875 42.0362 23.9024 0.0000 0.0000 0.0000
# 3 23.9024 23.9024 155.8349 0.0000 0.0000 0.0000
# 4 0.0000 0.0000 0.0000 16.1670 0.0000 0.0000
# 5 0.0000 0.0000 0.0000 0.0000 16.1670 0.0000
# 6 0.0000 0.0000 0.0000 0.0000 0.0000 20.2744
#
#
#
# Elastic Compliance Matrix: (Units=1/GPa)
#
#
# Indices 1 2 3 4 5 6 
#
# 1 0.026146 0.001485 -0.004238 0.000000 0.000000 0.000000
# 2 0.001485 0.026146 -0.004238 0.000000 0.000000 0.000000
# 3 -0.004238 -0.004238 0.007717 0.000000 0.000000 0.000000
# 4 0.000000 0.000000 0.000000 0.061854 0.000000 0.000000
# 5 0.000000 0.000000 0.000000 0.000000 0.061854 0.000000
# 6 0.000000 0.000000 0.000000 0.000000 0.000000 0.049323
#
#
# Mechanical properties :
#
#
# Convention : Reuss Voigt Hill
#
# Bulk Modulus (GPa) = 21.72653 37.61020 29.66837
# Shear Modulus (GPa) = 19.05727 23.22936 21.14331
#
# Velocity S-wave (km/s) = 2.92463 3.22894 3.08055
# Velocity P-wave (km/s) = 4.59958 5.54815 5.09599
#
# Compressibility (1/GPa) = 0.04602667
#
# Stress axis : x y z
#
# Youngs Moduli (GPa) = 38.24626 38.24626 129.58143
#
# Poissons Ratio (x) = -0.05678 0.54918
# Poissons Ratio (y) = -0.05678 0.54918
# Poissons Ratio (z) = 0.16209 0.16209
#
# Static dielectric constant tensor:
#      x y z
#    x 1.850760 0.000000 0.000000 
#    y 0.000000 1.850760 0.000000 
#    z 0.000000 0.000000 1.883380 
# 
# From -- ./inp_files/3109.got.cif
#   From: 2010.05.17/outbox.cif.g08.bks.cpg/sg190_2_cif.got.tgz:3109.got - 2010.05.20 12:16:56.
