data_PCOD9586904
_publ_section_title
;
Structure prediction by ZEFSAII (Michael W. Deem and Ramdas Pophale) SiO2 
 PCOD9586904
Probable space group: P -6 2 C
;
_chemical_formula_sum "Si O2"
_cell_formula_units_Z 52
_cell_length_a 11.230276
_cell_length_b 11.230276
_cell_length_c 22.589681
_cell_angle_alpha 90.000000
_cell_angle_beta 90.000000
_cell_angle_gamma 120.000000
_cell_volume 2467.297902
_symmetry_space_group_name_H-M "P -6 2 C"
_symmetry_group_IT_number 190
_symmetry_cell_setting 'hexagonal'
loop_
_space_group_symop_operation_xyz
x,y,z
-x+y,-x,1/2-z
-y,x-y,z
x,y,1/2-z
-x+y,-x,z
-y,x-y,1/2-z
x-y,-y,-z
-x,-x+y,-z
y,x,-z
y,x,1/2+z
x-y,-y,1/2+z
-x,-x+y,1/2+z
loop_
_atom_site_type_symbol
_atom_site_label
_atom_site_fract_x
_atom_site_fract_y
_atom_site_fract_z
Si Si1 0.961519 0.583725 0.317245
Si Si2 0.397036 0.110979 0.359304
Si Si3 0.308363 0.162163 0.894640
Si Si4 0.487801 0.223968 0.489285
Si Si5 0.000000 0.000000 0.070566
O O1 0.010279 0.593472 0.250000
O O2 0.902135 0.430086 0.341456
O O3 0.836048 0.614272 0.319540
O O4 0.078081 0.694592 0.360139
O O5 0.416252 0.168947 0.426483
O O6 0.265877 0.960286 0.357261
O O7 0.383876 0.170877 0.956458
O O8 0.149881 0.114582 0.907447
O O9 0.609468 0.186058 0.492665
O O10 0.000000 0.000000 0.000000
#
# Coordination Sequence:
#
# PCOD9586904 Si02
#       5
#    12  12  12  12   4
#     4  12  27  46  72 101 139 192 250 302 359 438
#     4  12  23  48  73 102 139 185 246 300 362 428
#     4  12  26  43  69 107 145 189 230 297 374 440
#     4  10  21  42  72 107 141 177 230 303 366 427
#     4  12  24  42  64 104 148 186 231 292 362 442
#
# _framework density 21.075686999999999
#
# number of rings (size 3 to 8) (size 9 to 14) (size 15 to 20)
#    0.462    0.000    4.615    4.615    0.000    1.846 
#    1.385    0.000    0.000    0.000    0.000    0.000 
#    0.000    0.000    0.000    0.000    0.000    0.000 
#
# Total GULP energy -290988.757934 kJ/mol
# GULP energy per Si atom -5595.937653 kJ/mol
# Density = 2.102772 g / cm^3
# Si number density = 21.075687 Si / 1000 Ang^3
#
#
#
# Elastic Constant Matrix: (Units=GPa)
#
#
# Indices 1 2 3 4 5 6 
#
# 1 72.6033 -7.6243 17.5202 0.0000 0.0000 0.0000
# 2 -7.6243 72.6033 17.5202 0.0000 0.0000 0.0000
# 3 17.5202 17.5202 107.7487 0.0000 0.0000 0.0000
# 4 0.0000 0.0000 0.0000 86.4260 0.0000 0.0000
# 5 0.0000 0.0000 0.0000 0.0000 86.4260 0.0000
# 6 0.0000 0.0000 0.0000 0.0000 0.0000 40.1138
#
#
#
# Elastic Compliance Matrix: (Units=1/GPa)
#
#
# Indices 1 2 3 4 5 6 
#
# 1 0.014667 0.002202 -0.002743 0.000000 0.000000 0.000000
# 2 0.002202 0.014667 -0.002743 0.000000 0.000000 0.000000
# 3 -0.002743 -0.002743 0.010173 0.000000 0.000000 0.000000
# 4 0.000000 0.000000 0.000000 0.011571 0.000000 0.000000
# 5 0.000000 0.000000 0.000000 0.000000 0.011571 0.000000
# 6 0.000000 0.000000 0.000000 0.000000 0.000000 0.024929
#
#
# Mechanical properties :
#
#
# Convention : Reuss Voigt Hill
#
# Bulk Modulus (GPa) = 30.35942 34.19859 32.27900
# Shear Modulus (GPa) = 47.56320 57.62912 52.59616
#
# Velocity S-wave (km/s) = 4.75571 5.23481 5.00100
# Velocity P-wave (km/s) = 6.67772 7.26632 6.97823
#
# Compressibility (1/GPa) = 0.03293871
#
# Stress axis : x y z
#
# Youngs Moduli (GPa) = 68.18204 68.18204 98.30082
#
# Poissons Ratio (x) = -0.15014 0.26963
# Poissons Ratio (y) = -0.15014 0.26963
# Poissons Ratio (z) = 0.18702 0.18702
#
# Static dielectric constant tensor:
#      x y z
#    x 1.762600 0.000000 0.000000 
#    y 0.000000 1.762600 0.000000 
#    z 0.000000 0.000000 1.739400 
# 
# From -- ./inp_files/4207.got.cif
#   From: 2010.05.17/outbox.cif.g08.bks.cpg/sg190_3_cif.got.tgz:4207.got - 2010.05.20 12:16:56.
