data_PCOD9586880
_publ_section_title
;
Structure prediction by ZEFSAII (Michael W. Deem and Ramdas Pophale) SiO2 
 PCOD9586880
Probable space group: P -6 2 C
;
_chemical_formula_sum "Si O2"
_cell_formula_units_Z 72
_cell_length_a 14.501437
_cell_length_b 14.501437
_cell_length_c 18.423460
_cell_angle_alpha 90.000000
_cell_angle_beta 90.000000
_cell_angle_gamma 120.000000
_cell_volume 3355.242450
_symmetry_space_group_name_H-M "P -6 2 C"
_symmetry_group_IT_number 190
_symmetry_cell_setting 'hexagonal'
loop_
_space_group_symop_operation_xyz
x,y,z
-x+y,-x,1/2-z
-y,x-y,z
x,y,1/2-z
-x+y,-x,z
-y,x-y,1/2-z
x-y,-y,-z
-x,-x+y,-z
y,x,-z
y,x,1/2+z
x-y,-y,1/2+z
-x,-x+y,1/2+z
loop_
_atom_site_type_symbol
_atom_site_label
_atom_site_fract_x
_atom_site_fract_y
_atom_site_fract_z
Si Si1 0.344656 0.399531 0.834550
Si Si2 0.748723 0.579705 0.083671
Si Si3 0.567381 0.592285 0.166560
Si Si4 0.821793 0.860180 0.924177
Si Si5 0.057842 0.844745 0.163495
Si Si6 0.454870 0.669984 0.439182
O O1 0.315510 0.400178 0.750000
O O2 0.279144 0.441156 0.881276
O O3 0.470194 0.472246 0.841192
O O4 0.303797 0.276134 0.852537
O O5 0.670930 0.586938 0.142349
O O6 0.812943 0.699518 0.053213
O O7 0.681310 0.498300 0.020597
O O8 0.576122 0.626233 0.250000
O O9 0.534930 0.660855 0.115386
O O10 0.853318 0.960302 0.872150
O O11 0.840660 0.777985 0.876772
O O12 0.881697 0.881697 0.000000
O O13 0.063893 0.860422 0.250000
O O14 0.431415 0.767325 0.428941
#
# Coordination Sequence:
#
# PCOD9586880 Si02
#       6
#    12  12  12  12  12  12
#     4   9  21  40  63  92 126 165 211 267 331 395
#     4  11  22  41  65  93 127 166 217 272 329 394
#     4  11  23  40  64  93 129 167 212 275 334 401
#     4  11  22  36  58  87 121 158 207 256 312 385
#     4  10  21  38  58  84 120 162 202 250 315 383
#     4  10  24  43  66  93 126 173 222 276 336 396
#
# _framework density 21.458955
#
# number of rings (size 3 to 8) (size 9 to 14) (size 15 to 20)
#    0.333    1.333    0.000    4.333    0.000    5.333 
#    1.000    5.000    0.000    0.000    0.000    0.000 
#    0.000    0.000    0.000    0.000    0.000    0.000 
#
# Total GULP energy -402245.700499 kJ/mol
# GULP energy per Si atom -5586.745840 kJ/mol
# Density = 2.141011 g / cm^3
# Si number density = 21.458955 Si / 1000 Ang^3
#
#
#
# Elastic Constant Matrix: (Units=GPa)
#
#
# Indices 1 2 3 4 5 6 
#
# 1 50.0055 5.6664 18.3415 0.0000 0.0000 0.0000
# 2 5.6664 50.0055 18.3415 0.0000 0.0000 0.0000
# 3 18.3415 18.3415 86.3041 0.0000 0.0000 0.0000
# 4 0.0000 0.0000 0.0000 25.6948 0.0000 0.0000
# 5 0.0000 0.0000 0.0000 0.0000 25.6948 0.0000
# 6 0.0000 0.0000 0.0000 0.0000 0.0000 22.1695
#
#
#
# Elastic Compliance Matrix: (Units=1/GPa)
#
#
# Indices 1 2 3 4 5 6 
#
# 1 0.021720 -0.000833 -0.004439 0.000000 0.000000 0.000000
# 2 -0.000833 0.021720 -0.004439 0.000000 0.000000 0.000000
# 3 -0.004439 -0.004439 0.013474 0.000000 0.000000 0.000000
# 4 0.000000 0.000000 0.000000 0.038918 0.000000 0.000000
# 5 0.000000 0.000000 0.000000 0.000000 0.038918 0.000000
# 6 0.000000 0.000000 0.000000 0.000000 0.000000 0.045107
#
#
# Mechanical properties :
#
#
# Convention : Reuss Voigt Hill
#
# Bulk Modulus (GPa) = 26.67215 30.11266 28.39240
# Shear Modulus (GPa) = 23.60964 24.30953 23.95959
#
# Velocity S-wave (km/s) = 3.32056 3.36942 3.34508
# Velocity P-wave (km/s) = 5.21132 5.40374 5.30840
#
# Compressibility (1/GPa) = 0.03749230
#
# Stress axis : x y z
#
# Youngs Moduli (GPa) = 46.03969 46.03969 74.21863
#
# Poissons Ratio (x) = 0.03835 0.32946
# Poissons Ratio (y) = 0.03835 0.32946
# Poissons Ratio (z) = 0.20437 0.20437
#
# Static dielectric constant tensor:
#      x y z
#    x 1.798840 0.000000 0.000000 
#    y 0.000000 1.798840 0.000000 
#    z 0.000000 0.000000 1.733030 
# 
# From -- ./inp_files/3762.got.cif
#   From: 2010.05.17/outbox.cif.g08.bks.cpg/sg190_2_cif.got.tgz:3762.got - 2010.05.20 12:16:56.
