data_PCOD9586673
_publ_section_title
;
Structure prediction by ZEFSAII (Michael W. Deem and Ramdas Pophale) SiO2 
 PCOD9586673
Probable space group: P -6 2 C
;
_chemical_formula_sum "Si O2"
_cell_formula_units_Z 72
_cell_length_a 24.529491
_cell_length_b 24.529491
_cell_length_c 8.567964
_cell_angle_alpha 90.000000
_cell_angle_beta 90.000000
_cell_angle_gamma 120.000000
_cell_volume 4464.628607
_symmetry_space_group_name_H-M "P -6 2 C"
_symmetry_group_IT_number 190
_symmetry_cell_setting 'hexagonal'
loop_
_space_group_symop_operation_xyz
x,y,z
-x+y,-x,1/2-z
-y,x-y,z
x,y,1/2-z
-x+y,-x,z
-y,x-y,1/2-z
x-y,-y,-z
-x,-x+y,-z
y,x,-z
y,x,1/2+z
x-y,-y,1/2+z
-x,-x+y,1/2+z
loop_
_atom_site_type_symbol
_atom_site_label
_atom_site_fract_x
_atom_site_fract_y
_atom_site_fract_z
Si Si1 0.476260 0.736490 0.560520
Si Si2 0.070451 0.811728 0.562185
Si Si3 0.594070 0.405931 0.060897
Si Si4 0.929216 0.859594 0.936311
Si Si5 0.473723 0.404348 0.935666
Si Si6 0.263556 0.402722 0.561188
O O1 0.476180 0.734382 0.750000
O O2 0.450326 0.665497 0.506430
O O3 0.430000 0.763206 0.517185
O O4 0.546055 0.789959 0.511401
O O5 0.068432 0.814079 0.750000
O O6 0.090220 0.880109 0.494902
O O7 0.115018 0.783900 0.515392
O O8 0.000000 0.765649 0.500000
O O9 0.592189 0.407997 0.250000
O O10 0.542940 0.422178 0.994946
O O11 0.930912 0.861511 0.750000
O O12 0.884527 0.884527 0.000000
O O13 0.000000 0.904426 0.000000
O O14 0.472459 0.404209 0.750000
O O15 0.449872 0.449872 0.000000
O O16 0.427291 0.333448 0.996790
O O17 0.267881 0.404801 0.750000
#
# Coordination Sequence:
#
# PCOD9586673 Si02
#       6
#    12  12  12  12  12  12
#     4   8  14  26  47  72  95 123 156 190 228 275
#     4  10  19  31  48  71  98 126 157 193 233 279
#     4   9  16  29  49  72  97 125 158 192 231 281
#     4  11  21  34  51  72  98 126 158 193 233 279
#     4  11  21  32  47  68  95 126 160 198 240 283
#     4   9  18  32  50  73  99 126 158 194 235 285
#
# _framework density 16.126761999999999
#
# number of rings (size 3 to 8) (size 9 to 14) (size 15 to 20)
#    0.000    2.333    0.000    6.500    0.000    4.000 
#    0.000    3.333    0.000    1.000    0.000    0.000 
#    0.000    0.000    0.000    0.000    0.000    0.000 
#
# Total GULP energy -401614.916680 kJ/mol
# GULP energy per Si atom -5577.984954 kJ/mol
# Density = 1.609006 g / cm^3
# Si number density = 16.126762 Si / 1000 Ang^3
#
#
#
# Elastic Constant Matrix: (Units=GPa)
#
#
# Indices 1 2 3 4 5 6 
#
# 1 146.6632 101.7660 40.1809 0.0000 0.0000 0.0000
# 2 101.7660 146.6632 40.1809 0.0000 0.0000 0.0000
# 3 40.1809 40.1809 56.8053 0.0000 0.0000 0.0000
# 4 0.0000 0.0000 0.0000 19.6539 0.0000 0.0000
# 5 0.0000 0.0000 0.0000 0.0000 19.6539 0.0000
# 6 0.0000 0.0000 0.0000 0.0000 0.0000 22.4486
#
#
#
# Elastic Compliance Matrix: (Units=1/GPa)
#
#
# Indices 1 2 3 4 5 6 
#
# 1 0.013746 -0.008527 -0.003692 0.000000 0.000000 0.000000
# 2 -0.008527 0.013746 -0.003692 0.000000 0.000000 0.000000
# 3 -0.003692 -0.003692 0.022827 0.000000 0.000000 0.000000
# 4 0.000000 0.000000 0.000000 0.050881 0.000000 0.000000
# 5 0.000000 0.000000 0.000000 0.000000 0.050881 0.000000
# 6 0.000000 0.000000 0.000000 0.000000 0.000000 0.044546
#
#
# Mechanical properties :
#
#
# Convention : Reuss Voigt Hill
#
# Bulk Modulus (GPa) = 54.05969 79.37637 66.71803
# Shear Modulus (GPa) = 21.31152 23.55152 22.43152
#
# Velocity S-wave (km/s) = 3.63919 3.82566 3.73359
# Velocity P-wave (km/s) = 7.15910 8.29707 7.74901
#
# Compressibility (1/GPa) = 0.01849807
#
# Stress axis : x y z
#
# Youngs Moduli (GPa) = 72.74656 72.74656 43.80764
#
# Poissons Ratio (x) = 0.62029 0.16174
# Poissons Ratio (y) = 0.62029 0.16174
# Poissons Ratio (z) = 0.26858 0.26858
#
# Static dielectric constant tensor:
#      x y z
#    x 1.531200 0.000000 0.000000 
#    y 0.000000 1.531200 0.000000 
#    z 0.000000 0.000000 1.547070 
# 
# From -- ./inp_files/1253.got.cif
#   From: 2010.05.17/outbox.cif.g08.bks.cpg/sg190_1_cif.got.tgz:1253.got - 2010.05.20 12:16:56.
