data_PCOD9586700
_publ_section_title
;
Structure prediction by ZEFSAII (Michael W. Deem and Ramdas Pophale) SiO2 
 PCOD9586700
Probable space group: P -6 2 C
;
_chemical_formula_sum "Si O2"
_cell_formula_units_Z 76
_cell_length_a 18.071722
_cell_length_b 18.071722
_cell_length_c 14.522199
_cell_angle_alpha 90.000000
_cell_angle_beta 90.000000
_cell_angle_gamma 120.000000
_cell_volume 4107.353572
_symmetry_space_group_name_H-M "P -6 2 C"
_symmetry_group_IT_number 190
_symmetry_cell_setting 'hexagonal'
loop_
_space_group_symop_operation_xyz
x,y,z
-x+y,-x,1/2-z
-y,x-y,z
x,y,1/2-z
-x+y,-x,z
-y,x-y,1/2-z
x-y,-y,-z
-x,-x+y,-z
y,x,-z
y,x,1/2+z
x-y,-y,1/2+z
-x,-x+y,1/2+z
loop_
_atom_site_type_symbol
_atom_site_label
_atom_site_fract_x
_atom_site_fract_y
_atom_site_fract_z
Si Si1 0.148278 0.957686 0.903945
Si Si2 0.611697 0.754052 0.644079
Si Si3 0.574969 0.885735 0.952132
Si Si4 0.862694 0.410623 0.140104
Si Si5 0.333334 0.666667 0.639969
Si Si6 0.710953 0.056713 0.858907
Si Si7 0.035219 0.865700 0.146511
O O1 0.202712 0.916688 0.864077
O O2 0.049104 0.885310 0.913924
O O3 0.144774 0.036131 0.855440
O O4 0.190974 0.000000 0.000000
O O5 0.591591 0.764657 0.750000
O O6 0.576860 0.802264 0.580348
O O7 0.552747 0.652866 0.624194
O O8 0.496671 0.896525 0.917258
O O9 0.655213 0.960106 0.896181
O O10 0.584190 0.893483 0.062493
O O11 0.870119 0.430663 0.250000
O O12 0.762205 0.359033 0.113889
O O13 0.333334 0.666668 0.750000
O O14 0.695534 0.064237 0.750000
O O15 0.808445 0.078762 0.871092
O O16 0.998524 0.843150 0.250000
#
# Coordination Sequence:
#
# PCOD9586700 Si02
#       7
#    12  12  12  12   4  12  12
#     4  12  24  37  55  83 121 158 199 251 304 358
#     4  11  21  36  59  88 123 158 195 246 310 365
#     4  11  20  35  62  88 116 150 199 247 304 362
#     4  10  19  32  57  91 122 150 187 244 308 366
#     4   9  15  27  51  90 121 140 178 237 297 348
#     4  10  22  38  60  84 112 155 208 250 289 353
#     4  11  22  38  58  81 111 154 206 248 296 347
#
# _framework density 18.503399000000002
#
# number of rings (size 3 to 8) (size 9 to 14) (size 15 to 20)
#    0.000    1.263    3.158    4.579    2.211    0.000 
#    2.842    0.000    0.000    0.947    0.000    0.000 
#    0.000    0.000    0.000    0.000    0.000    0.000 
#
# Total GULP energy -423502.976307 kJ/mol
# GULP energy per Si atom -5572.407583 kJ/mol
# Density = 1.846128 g / cm^3
# Si number density = 18.503399 Si / 1000 Ang^3
#
#
#
# Elastic Constant Matrix: (Units=GPa)
#
#
# Indices 1 2 3 4 5 6 
#
# 1 83.8286 24.5094 31.3541 0.0000 0.0001 0.0001
# 2 24.5094 83.8296 31.3540 0.0000 0.0001 0.0000
# 3 31.3541 31.3540 115.4013 0.0000 0.0000 0.0000
# 4 0.0000 0.0000 0.0000 26.7724 -0.0001 0.0000
# 5 0.0001 0.0001 0.0000 -0.0001 26.7726 0.0000
# 6 0.0001 0.0000 0.0000 0.0000 0.0000 29.6597
#
#
#
# Elastic Compliance Matrix: (Units=1/GPa)
#
#
# Indices 1 2 3 4 5 6 
#
# 1 0.013905 -0.002953 -0.002976 0.000000 0.000000 0.000000
# 2 -0.002953 0.013905 -0.002976 0.000000 0.000000 0.000000
# 3 -0.002976 -0.002976 0.010282 0.000000 0.000000 0.000000
# 4 0.000000 0.000000 0.000000 0.037352 0.000000 0.000000
# 5 0.000000 0.000000 0.000000 0.000000 0.037352 0.000000
# 6 0.000000 0.000000 0.000000 0.000000 0.000000 0.033716
#
#
# Mechanical properties :
#
#
# Convention : Reuss Voigt Hill
#
# Bulk Modulus (GPa) = 49.29821 50.83273 50.06547
# Shear Modulus (GPa) = 29.22570 29.69707 29.46138
#
# Velocity S-wave (km/s) = 3.97858 4.01053 3.99459
# Velocity P-wave (km/s) = 6.91419 6.99840 6.95642
#
# Compressibility (1/GPa) = 0.02028471
#
# Stress axis : x y z
#
# Youngs Moduli (GPa) = 71.91456 71.91557 97.25302
#
# Poissons Ratio (x) = 0.21233 0.28941
# Poissons Ratio (y) = 0.21233 0.28940
# Poissons Ratio (z) = 0.21401 0.21401
#
# Static dielectric constant tensor:
#      x y z
#    x 1.672190 0.000000 0.000000 
#    y 0.000000 1.672190 0.000000 
#    z 0.000000 0.000000 1.686490 
# 
# From -- ./inp_files/3077.got.cif
#   From: 2010.05.17/outbox.cif.g08.bks.cpg/sg190_2_cif.got.tgz:3077.got - 2010.05.20 12:16:56.
