data_PCOD9586624
_publ_section_title
;
Structure prediction by ZEFSAII (Michael W. Deem and Ramdas Pophale) SiO2 
 PCOD9586624
Probable space group: P -6 2 C
;
_chemical_formula_sum "Si O2"
_cell_formula_units_Z 72
_cell_length_a 24.428297
_cell_length_b 24.428297
_cell_length_c 8.546495
_cell_angle_alpha 90.000000
_cell_angle_beta 90.000000
_cell_angle_gamma 120.000000
_cell_volume 4416.772780
_symmetry_space_group_name_H-M "P -6 2 C"
_symmetry_group_IT_number 190
_symmetry_cell_setting 'hexagonal'
loop_
_space_group_symop_operation_xyz
x,y,z
-x+y,-x,1/2-z
-y,x-y,z
x,y,1/2-z
-x+y,-x,z
-y,x-y,1/2-z
x-y,-y,-z
-x,-x+y,-z
y,x,-z
y,x,1/2+z
x-y,-y,1/2+z
-x,-x+y,1/2+z
loop_
_atom_site_type_symbol
_atom_site_label
_atom_site_fract_x
_atom_site_fract_y
_atom_site_fract_z
Si Si1 0.736587 0.596123 0.439852
Si Si2 0.193002 0.595387 0.064013
Si Si3 0.521014 0.591005 0.938051
Si Si4 0.473244 0.738804 0.562281
Si Si5 0.189230 0.928971 0.938689
Si Si6 0.858730 0.929926 0.063146
O O1 0.737029 0.596651 0.250000
O O2 0.663753 0.569957 0.487123
O O3 0.754201 0.543295 0.488091
O O4 0.782628 0.667531 0.491376
O O5 0.195824 0.590762 0.250000
O O6 0.122709 0.546510 0.004057
O O7 0.238709 0.572700 0.986685
O O8 0.217204 0.666889 0.013756
O O9 0.518210 0.589131 0.750000
O O10 0.545708 0.545708 0.000000
O O11 0.472100 0.743377 0.750000
O O12 0.187816 0.930272 0.750000
O O13 0.120108 0.908917 0.003136
O O14 0.234721 0.000000 0.000000
O O15 0.860117 0.929733 0.250000
O O16 0.903699 0.903699 0.000000
O O17 0.884248 0.000000 0.000000
#
# Coordination Sequence:
#
# PCOD9586624 Si02
#       6
#    12  12  12  12  12  12
#     4   8  17  31  50  73  99 128 162 198 240 287
#     4  11  21  33  49  74 102 131 165 205 247 296
#     4  10  19  33  51  74 101 133 166 202 245 292
#     4  10  19  34  52  72  98 132 166 203 248 295
#     4  10  18  31  49  73 100 128 158 194 234 281
#     4  11  21  34  50  72  98 128 160 196 237 283
#
# _framework density 16.301494999999999
#
# number of rings (size 3 to 8) (size 9 to 14) (size 15 to 20)
#    0.000    2.000    0.000    7.500    0.000    0.000 
#    0.000    9.167    0.000    1.000    0.000    4.667 
#    0.000    0.000    0.000    0.000    0.000    0.000 
#
# Total GULP energy -401886.027709 kJ/mol
# GULP energy per Si atom -5581.750385 kJ/mol
# Density = 1.626439 g / cm^3
# Si number density = 16.301495 Si / 1000 Ang^3
#
#
#
# Elastic Constant Matrix: (Units=GPa)
#
#
# Indices 1 2 3 4 5 6 
#
# 1 119.7637 77.1588 21.2891 0.0000 0.0000 0.0000
# 2 77.1588 119.7637 21.2891 0.0000 0.0000 0.0000
# 3 21.2891 21.2891 71.0602 0.0000 0.0000 0.0000
# 4 0.0000 0.0000 0.0000 19.4249 0.0000 0.0000
# 5 0.0000 0.0000 0.0000 0.0000 19.4249 0.0000
# 6 0.0000 0.0000 0.0000 0.0000 0.0000 21.3025
#
#
#
# Elastic Compliance Matrix: (Units=1/GPa)
#
#
# Indices 1 2 3 4 5 6 
#
# 1 0.014451 -0.009021 -0.001627 0.000000 0.000000 0.000000
# 2 -0.009021 0.014451 -0.001627 0.000000 0.000000 0.000000
# 3 -0.001627 -0.001627 0.015047 0.000000 0.000000 0.000000
# 4 0.000000 0.000000 0.000000 0.051480 0.000000 0.000000
# 5 0.000000 0.000000 0.000000 0.000000 0.051480 0.000000
# 6 0.000000 0.000000 0.000000 0.000000 0.000000 0.046943
#
#
# Mechanical properties :
#
#
# Convention : Reuss Voigt Hill
#
# Bulk Modulus (GPa) = 51.54628 61.11797 56.33213
# Shear Modulus (GPa) = 22.23533 24.75384 23.49459
#
# Velocity S-wave (km/s) = 3.69725 3.90102 3.80050
# Velocity P-wave (km/s) = 7.06509 7.60686 7.34097
#
# Compressibility (1/GPa) = 0.01940004
#
# Stress axis : x y z
#
# Youngs Moduli (GPa) = 69.20099 69.20099 66.45715
#
# Poissons Ratio (x) = 0.62425 0.10811
# Poissons Ratio (y) = 0.62425 0.10811
# Poissons Ratio (z) = 0.11257 0.11257
#
# Static dielectric constant tensor:
#      x y z
#    x 1.534350 0.000000 0.000000 
#    y 0.000000 1.534350 0.000000 
#    z 0.000000 0.000000 1.546570 
# 
# From -- ./inp_files/1246.got.cif
#   From: 2010.05.17/outbox.cif.g08.bks.cpg/sg190_1_cif.got.tgz:1246.got - 2010.05.20 12:16:56.
