data_PCOD9586386
_publ_section_title
;
Structure prediction by ZEFSAII (Michael W. Deem and Ramdas Pophale) SiO2 
 PCOD9586386
Probable space group: P -6 2 M
;
_chemical_formula_sum "Si O2"
_cell_formula_units_Z 72
_cell_length_a 15.597837
_cell_length_b 15.597837
_cell_length_c 18.132144
_cell_angle_alpha 90.000000
_cell_angle_beta 90.000000
_cell_angle_gamma 120.000000
_cell_volume 3820.397448
_symmetry_space_group_name_H-M "P -6 2 M"
_symmetry_group_IT_number 189
_symmetry_cell_setting 'hexagonal'
loop_
_space_group_symop_operation_xyz
x,y,z
-x+y,-x,-z
-y,x-y,z
x,y,-z
-x+y,-x,z
-y,x-y,-z
x-y,-y,-z
-x,-x+y,-z
y,x,-z
y,x,z
x-y,-y,z
-x,-x+y,z
loop_
_atom_site_type_symbol
_atom_site_label
_atom_site_fract_x
_atom_site_fract_y
_atom_site_fract_z
Si Si1 0.210928 0.422067 0.308154
Si Si2 0.419436 0.881626 0.132876
Si Si3 0.160766 0.272988 0.000000
Si Si4 0.362062 0.477964 0.000000
Si Si5 0.880340 0.440337 0.298146
Si Si6 0.342685 0.113404 0.850107
Si Si7 0.234048 0.116998 0.586310
O O1 0.328015 0.489513 0.324242
O O2 0.160759 0.489232 0.325776
O O3 0.184195 0.378710 0.222772
O O4 0.164741 0.327828 0.360854
O O5 0.418859 0.843461 0.213443
O O6 0.314367 0.869963 0.113703
O O7 0.494268 0.000000 0.139034
O O8 0.459324 0.837486 0.072478
O O9 0.118474 0.279647 0.080583
O O10 0.183565 0.183565 0.000000
O O11 0.263435 0.375834 0.000000
O O12 0.449465 0.449465 0.000000
O O13 0.000000 0.499598 0.303195
O O14 0.284509 0.000000 0.821092
O O15 0.263559 0.131672 0.500000
O O16 0.167977 0.167977 0.599283
O O17 0.169492 0.000000 0.599808
#
# Coordination Sequence:
#
# PCOD9586386 Si02
#       7
#    12  12   6   6  12  12  12
#     4  11  21  37  60  87 119 158 198 240 295 362
#     4   8  15  28  47  68  92 126 170 221 271 319
#     4  11  22  31  45  73 106 140 182 234 293 357
#     4   9  15  25  41  63  90 122 164 212 266 325
#     4  10  20  34  53  81 115 148 186 232 282 341
#     4  10  20  35  54  74 100 140 190 238 287 348
#     4  10  21  39  64  93 122 153 196 252 306 349
#
# _framework density 18.846205999999999
#
# number of rings (size 3 to 8) (size 9 to 14) (size 15 to 20)
#    0.000    2.167    0.000    5.250    0.000    4.667 
#    0.000    0.833    0.000    9.000    0.000    0.000 
#    0.000    0.000    0.000    0.000    0.000    0.000 
#
# Total GULP energy -400968.868842 kJ/mol
# GULP energy per Si atom -5569.012067 kJ/mol
# Density = 1.880331 g / cm^3
# Si number density = 18.846206 Si / 1000 Ang^3
#
#
#
# Elastic Constant Matrix: (Units=GPa)
#
#
# Indices 1 2 3 4 5 6 
#
# 1 97.9904 32.1695 42.5324 0.0000 0.0000 0.0000
# 2 32.1695 97.9904 42.5324 0.0000 0.0000 0.0000
# 3 42.5324 42.5324 54.0767 0.0000 0.0000 0.0000
# 4 0.0000 0.0000 0.0000 28.5102 0.0000 0.0000
# 5 0.0000 0.0000 0.0000 0.0000 28.5102 0.0000
# 6 0.0000 0.0000 0.0000 0.0000 0.0000 32.9104
#
#
#
# Elastic Compliance Matrix: (Units=1/GPa)
#
#
# Indices 1 2 3 4 5 6 
#
# 1 0.015501 0.000308 -0.012434 0.000000 0.000000 0.000000
# 2 0.000308 0.015501 -0.012434 0.000000 0.000000 0.000000
# 3 -0.012434 -0.012434 0.038052 0.000000 0.000000 0.000000
# 4 0.000000 0.000000 0.000000 0.035075 0.000000 0.000000
# 5 0.000000 0.000000 0.000000 0.000000 0.035075 0.000000
# 6 0.000000 0.000000 0.000000 0.000000 0.000000 0.030385
#
#
# Mechanical properties :
#
#
# Convention : Reuss Voigt Hill
#
# Bulk Modulus (GPa) = 50.16752 53.83623 52.00187
# Shear Modulus (GPa) = 22.18729 26.84106 24.51418
#
# Velocity S-wave (km/s) = 3.43488 3.77797 3.61050
# Velocity P-wave (km/s) = 6.51217 6.90354 6.71071
#
# Compressibility (1/GPa) = 0.01993322
#
# Stress axis : x y z
#
# Youngs Moduli (GPa) = 64.51224 64.51224 26.27998
#
# Poissons Ratio (x) = -0.01988 0.32677
# Poissons Ratio (y) = -0.01988 0.32677
# Poissons Ratio (z) = 0.80216 0.80216
#
# Static dielectric constant tensor:
#      x y z
#    x 1.678470 0.000000 0.000000 
#    y 0.000000 1.678470 0.000000 
#    z 0.000000 0.000000 1.757490 
# 
# From -- ./inp_files/3440.got.cif
#   From: 2010.05.17/outbox.cif.g08.bks.cpg/sg189_2_cif.got.tgz:3440.got - 2010.05.20 12:14:34.
