data_PCOD9586297
_publ_section_title
;
Structure prediction by ZEFSAII (Michael W. Deem and Ramdas Pophale) SiO2 
 PCOD9586297
Probable space group: P -6 2 M
;
_chemical_formula_sum "Si O2"
_cell_formula_units_Z 76
_cell_length_a 18.138345
_cell_length_b 18.138345
_cell_length_c 14.414472
_cell_angle_alpha 90.000000
_cell_angle_beta 90.000000
_cell_angle_gamma 120.000000
_cell_volume 4106.999848
_symmetry_space_group_name_H-M "P -6 2 M"
_symmetry_group_IT_number 189
_symmetry_cell_setting 'hexagonal'
loop_
_space_group_symop_operation_xyz
x,y,z
-x+y,-x,-z
-y,x-y,z
x,y,-z
-x+y,-x,z
-y,x-y,-z
x-y,-y,-z
-x,-x+y,-z
y,x,-z
y,x,z
x-y,-y,z
-x,-x+y,z
loop_
_atom_site_type_symbol
_atom_site_label
_atom_site_fract_x
_atom_site_fract_y
_atom_site_fract_z
Si Si1 0.818230 0.908333 0.610589
Si Si2 0.837482 0.616293 0.800368
Si Si3 0.341228 0.903713 0.889775
Si Si4 0.333334 0.666668 0.112578
Si Si5 0.899431 0.798160 0.890766
Si Si6 0.360699 0.260935 0.605728
Si Si7 0.147314 0.624446 0.889271
O O1 0.832572 0.914054 0.500000
O O2 0.835383 0.835383 0.646950
O O3 0.725984 0.896571 0.616093
O O4 0.884941 0.000000 0.651691
O O5 0.740636 0.577690 0.833916
O O6 0.878839 0.716328 0.827168
O O7 0.845008 0.591391 0.694525
O O8 0.881453 0.571057 0.855114
O O9 0.425419 0.899931 0.862255
O O10 0.361528 0.000000 0.878028
O O11 0.326200 0.882287 0.000000
O O12 0.414652 0.754820 0.141302
O O13 0.333334 0.666668 0.000000
O O14 0.842710 0.842710 0.870671
O O15 0.000000 0.865683 0.882778
O O16 0.882870 0.770340 0.000000
O O17 0.392983 0.267676 0.500000
O O18 0.332042 0.332042 0.616809
O O19 0.145261 0.625631 0.000000
#
# Coordination Sequence:
#
# PCOD9586297 Si02
#       7
#    12  12  12   4  12  12  12
#     4   8  13  23  41  64  89 119 160 214 274 326
#     4  12  21  33  58  84 105 141 192 235 272 333
#     4  10  21  35  51  79 120 153 173 212 281 348
#     4   9  15  30  54  81 112 143 172 207 264 333
#     4  10  21  36  53  76 111 154 195 233 274 325
#     4   9  20  37  52  70 100 137 181 234 284 322
#     4  10  19  33  56  85 115 145 175 214 272 342
#
# _framework density 18.504991
#
# number of rings (size 3 to 8) (size 9 to 14) (size 15 to 20)
#    0.000    2.211    1.579    3.632    0.000    5.053 
#    0.000    1.579    0.000    2.842    0.000    0.000 
#    0.000    0.000    0.000    0.000    0.000    0.000 
#
# Total GULP energy -423319.922936 kJ/mol
# GULP energy per Si atom -5569.998986 kJ/mol
# Density = 1.846287 g / cm^3
# Si number density = 18.504991 Si / 1000 Ang^3
#
#
#
# Elastic Constant Matrix: (Units=GPa)
#
#
# Indices 1 2 3 4 5 6 
#
# 1 56.8640 18.5586 24.6671 0.0000 0.0000 0.0000
# 2 18.5586 56.8644 24.6670 0.0000 0.0000 0.0000
# 3 24.6671 24.6670 100.2237 0.0000 0.0000 0.0000
# 4 0.0000 0.0000 0.0000 -2.6491 0.0000 0.0000
# 5 0.0000 0.0000 0.0000 0.0000 -2.6492 0.0000
# 6 0.0000 0.0000 0.0000 0.0000 0.0000 19.1526
#
#
#
# Elastic Compliance Matrix: (Units=1/GPa)
#
#
# Indices 1 2 3 4 5 6 
#
# 1 0.020954 -0.005152 -0.003889 0.000000 0.000000 0.000000
# 2 -0.005152 0.020954 -0.003889 0.000000 0.000000 0.000000
# 3 -0.003889 -0.003889 0.011892 0.000000 0.000000 0.000000
# 4 0.000000 0.000000 0.000000 -0.377485 -0.000003 0.000000
# 5 0.000000 0.000000 0.000000 -0.000003 -0.377475 0.000000
# 6 0.000000 0.000000 0.000000 0.000000 0.000000 0.052212
#
#
# Mechanical properties :
#
#
# Convention : Reuss Voigt Hill
#
# Bulk Modulus (GPa) = 35.79095 38.85975 37.32535
# Shear Modulus (GPa) = -8.14633 12.50815 2.18091
#
# Velocity S-wave (km/s) = -2.10043 2.60269 1.08679
# Velocity P-wave (km/s) = 3.67435 5.48427 4.66787
#
# Compressibility (1/GPa) = 0.02794002
#
# Stress axis : x y z
#
# Youngs Moduli (GPa) = 47.72279 47.72331 84.08894
#
# Poissons Ratio (x) = 0.24585 0.32705
# Poissons Ratio (y) = 0.24585 0.32705
# Poissons Ratio (z) = 0.18561 0.18561
#
# Static dielectric constant tensor:
#      x y z
#    x 1.664810 0.000000 0.000000 
#    y 0.000000 1.664810 0.000000 
#    z 0.000000 0.000000 1.692390 
# 
# From -- ./inp_files/2756.got.cif
#   From: 2010.05.17/outbox.cif.g08.bks.cpg/sg189_2_cif.got.tgz:2756.got - 2010.05.20 12:14:34.
