data_PCOD9586887
_publ_section_title
;
Structure prediction by ZEFSAII (Michael W. Deem and Ramdas Pophale) SiO2 
 PCOD9586887
Probable space group: P -6 2 C
;
_chemical_formula_sum "Si O2"
_cell_formula_units_Z 76
_cell_length_a 17.807444
_cell_length_b 17.807444
_cell_length_c 14.183596
_cell_angle_alpha 90.000000
_cell_angle_beta 90.000000
_cell_angle_gamma 120.000000
_cell_volume 3895.113873
_symmetry_space_group_name_H-M "P -6 2 C"
_symmetry_group_IT_number 190
_symmetry_cell_setting 'hexagonal'
loop_
_space_group_symop_operation_xyz
x,y,z
-x+y,-x,1/2-z
-y,x-y,z
x,y,1/2-z
-x+y,-x,z
-y,x-y,1/2-z
x-y,-y,-z
-x,-x+y,-z
y,x,-z
y,x,1/2+z
x-y,-y,1/2+z
-x,-x+y,1/2+z
loop_
_atom_site_type_symbol
_atom_site_label
_atom_site_fract_x
_atom_site_fract_y
_atom_site_fract_z
Si Si1 0.622073 0.587769 0.357135
Si Si2 0.164627 0.563452 0.524738
Si Si3 0.113211 0.334568 0.140947
Si Si4 0.194451 0.095080 0.011119
Si Si5 0.463715 0.264727 0.534199
Si Si6 0.349291 0.175422 0.356431
Si Si7 0.666667 0.333334 0.140287
O O1 0.587633 0.565645 0.250000
O O2 0.581831 0.506255 0.426738
O O3 0.624574 0.676701 0.385788
O O4 0.723050 0.613779 0.354289
O O5 0.159312 0.632964 0.457830
O O6 0.215604 0.519067 0.478804
O O7 0.235004 0.623856 0.603731
O O8 0.095139 0.309071 0.250000
O O9 0.094026 0.257224 0.070434
O O10 0.213703 0.402421 0.121215
O O11 0.166508 0.166508 0.000000
O O12 0.250894 0.119066 0.106640
O O13 0.112317 0.000000 0.000000
O O14 0.404354 0.242931 0.439476
O O15 0.355925 0.209411 0.250000
O O16 0.666667 0.333334 0.250000
#
# Coordination Sequence:
#
# PCOD9586887 Si02
#       7
#    12  12  12  12  12  12   4
#     4   9  16  29  55  84 110 149 196 243 292 349
#     4   9  17  28  48  83 118 148 192 250 305 355
#     4  10  21  39  61  85 115 159 205 244 294 360
#     4  11  22  37  60  89 120 154 196 243 291 342
#     4   9  19  33  55  83 115 157 196 245 305 358
#     4   9  18  33  54  81 115 154 196 240 294 350
#     4   9  15  24  39  72 124 161 184 234 309 372
#
# _framework density 19.511624999999999
#
# number of rings (size 3 to 8) (size 9 to 14) (size 15 to 20)
#    0.000    2.526    1.579    0.947    0.000    5.053 
#    0.000    0.789   13.895    1.895    0.000    0.000 
#    0.000    0.000    0.000    0.000    0.000    0.000 
#
# Total GULP energy -423514.007211 kJ/mol
# GULP energy per Si atom -5572.552726 kJ/mol
# Density = 1.946722 g / cm^3
# Si number density = 19.511625 Si / 1000 Ang^3
#
#
#
# Elastic Constant Matrix: (Units=GPa)
#
#
# Indices 1 2 3 4 5 6 
#
# 1 61.3003 20.4363 14.7529 0.0000 0.0000 0.0000
# 2 20.4363 61.3001 14.7529 0.0000 0.0000 0.0000
# 3 14.7529 14.7529 54.0689 0.0000 0.0000 0.0000
# 4 0.0000 0.0000 0.0000 14.2322 0.0000 0.0000
# 5 0.0000 0.0000 0.0000 0.0000 14.2323 0.0000
# 6 0.0000 0.0000 0.0000 0.0000 0.0000 20.4320
#
#
#
# Elastic Compliance Matrix: (Units=1/GPa)
#
#
# Indices 1 2 3 4 5 6 
#
# 1 0.019021 -0.005450 -0.003703 0.000000 0.000000 0.000000
# 2 -0.005450 0.019021 -0.003703 0.000000 0.000000 0.000000
# 3 -0.003703 -0.003703 0.020516 0.000000 0.000000 0.000000
# 4 0.000000 0.000000 0.000000 0.070263 0.000000 0.000000
# 5 0.000000 0.000000 0.000000 0.000000 0.070263 0.000000
# 6 0.000000 0.000000 0.000000 0.000000 0.000000 0.048943
#
#
# Mechanical properties :
#
#
# Convention : Reuss Voigt Hill
#
# Bulk Modulus (GPa) = 30.44492 30.72815 30.58654
# Shear Modulus (GPa) = 17.56310 18.22778 17.89544
#
# Velocity S-wave (km/s) = 3.00348 3.05979 3.03176
# Velocity P-wave (km/s) = 5.25977 5.31657 5.28825
#
# Compressibility (1/GPa) = 0.03284620
#
# Stress axis : x y z
#
# Youngs Moduli (GPa) = 52.57270 52.57249 48.74330
#
# Poissons Ratio (x) = 0.28653 0.18049
# Poissons Ratio (y) = 0.28653 0.18049
# Poissons Ratio (z) = 0.19467 0.19467
#
# Static dielectric constant tensor:
#      x y z
#    x 1.719030 0.000000 0.000000 
#    y 0.000000 1.719030 0.000000 
#    z 0.000000 0.000000 1.675030 
# 
# From -- ./inp_files/3067.got.cif
#   From: 2010.05.17/outbox.cif.g08.bks.cpg/sg190_2_cif.got.tgz:3067.got - 2010.05.20 12:16:56.
