data_PCOD9586480
_publ_section_title
;
Structure prediction by ZEFSAII (Michael W. Deem and Ramdas Pophale) SiO2 
 PCOD9586480
Probable space group: P -6 2 M
;
_chemical_formula_sum "Si O2"
_cell_formula_units_Z 96
_cell_length_a 14.731210
_cell_length_b 14.731210
_cell_length_c 26.049627
_cell_angle_alpha 90.000000
_cell_angle_beta 90.000000
_cell_angle_gamma 120.000000
_cell_volume 4895.634448
_symmetry_space_group_name_H-M "P -6 2 M"
_symmetry_group_IT_number 189
_symmetry_cell_setting 'hexagonal'
loop_
_space_group_symop_operation_xyz
x,y,z
-x+y,-x,-z
-y,x-y,z
x,y,-z
-x+y,-x,z
-y,x-y,-z
x-y,-y,-z
-x,-x+y,-z
y,x,-z
y,x,z
x-y,-y,z
-x,-x+y,z
loop_
_atom_site_type_symbol
_atom_site_label
_atom_site_fract_x
_atom_site_fract_y
_atom_site_fract_z
Si Si1 0.224241 0.808156 0.646206
Si Si2 0.249418 0.125476 0.738943
Si Si3 0.411109 0.234443 0.168574
Si Si4 0.122795 0.537440 0.204451
Si Si5 0.876590 0.123205 0.438906
Si Si6 0.570879 0.122261 0.679734
Si Si7 0.836151 0.571729 0.059503
Si Si8 0.502037 0.108470 0.060055
O O1 0.179890 0.849713 0.691972
O O2 0.180654 0.828964 0.594092
O O3 0.182413 0.685889 0.656265
O O4 0.349541 0.865400 0.648605
O O5 0.175479 0.175479 0.728638
O O6 0.321694 0.184240 0.788336
O O7 0.182038 0.000000 0.746425
O O8 0.481979 0.179288 0.176817
O O9 0.493981 0.357212 0.178496
O O10 0.361198 0.223621 0.111614
O O11 0.162528 0.568786 0.262797
O O12 0.000000 0.454180 0.207517
O O13 0.866477 0.132991 0.500000
O O14 0.000000 0.175949 0.426926
O O15 0.817043 0.000000 0.426055
O O16 0.535210 0.000000 0.684224
O O17 0.884607 0.497106 0.064352
O O18 0.712159 0.497616 0.069759
O O19 0.854870 0.612675 0.000000
O O20 0.415043 0.000000 0.085820
O O21 0.477911 0.098012 0.000000
#
# Coordination Sequence:
#
# PCOD9586480 Si02
#       8
#    12  12  12  12  12  12  12  12
#     4  12  23  40  65  93 128 168 211 252 301 370
#     4  12  25  42  63  88 117 151 197 257 320 374
#     4  12  23  36  59  86 118 155 195 242 295 365
#     4  11  22  38  57  83 117 153 193 236 293 358
#     4  10  21  39  65  98 135 175 221 275 329 372
#     4  11  21  37  60  88 122 161 200 244 298 355
#     4  10  21  35  53  80 112 149 191 236 294 362
#     4   9  18  34  54  75 103 138 178 226 277 335
#
# _framework density 19.609307999999999
#
# number of rings (size 3 to 8) (size 9 to 14) (size 15 to 20)
#    0.000    1.125    2.500    4.750    0.000    4.500 
#    0.000    1.875    0.000    2.250    0.000    0.000 
#    0.000    1.000    0.000    0.000    0.000    0.000 
#
# Total GULP energy -535741.422510 kJ/mol
# GULP energy per Si atom -5580.639818 kJ/mol
# Density = 1.956468 g / cm^3
# Si number density = 19.609308 Si / 1000 Ang^3
#
#
#
# Elastic Constant Matrix: (Units=GPa)
#
#
# Indices 1 2 3 4 5 6 
#
# 1 65.5248 28.0412 21.6757 0.0000 0.0000 0.0000
# 2 28.0412 65.5248 21.6757 0.0000 0.0000 0.0000
# 3 21.6757 21.6757 79.1455 0.0000 0.0000 0.0000
# 4 0.0000 0.0000 0.0000 -27.8528 0.0000 0.0000
# 5 0.0000 0.0000 0.0000 0.0000 -27.8528 0.0000
# 6 0.0000 0.0000 0.0000 0.0000 0.0000 18.7418
#
#
#
# Elastic Compliance Matrix: (Units=1/GPa)
#
#
# Indices 1 2 3 4 5 6 
#
# 1 0.019460 -0.007219 -0.003352 0.000000 0.000000 0.000000
# 2 -0.007219 0.019460 -0.003352 0.000000 0.000000 0.000000
# 3 -0.003352 -0.003352 0.014471 0.000000 0.000000 0.000000
# 4 0.000000 0.000000 0.000000 -0.035903 0.000000 0.000000
# 5 0.000000 0.000000 0.000000 0.000000 -0.035903 0.000000
# 6 0.000000 0.000000 0.000000 0.000000 0.000000 0.053357
#
#
# Mechanical properties :
#
#
# Convention : Reuss Voigt Hill
#
# Bulk Modulus (GPa) = 39.14921 39.22004 39.18462
# Shear Modulus (GPa) = 70.12350 1.86073 35.99212
#
# Velocity S-wave (km/s) = 5.98648 0.97517 4.28888
# Velocity P-wave (km/s) = 8.23358 4.61650 6.67473
#
# Compressibility (1/GPa) = 0.02554330
#
# Stress axis : x y z
#
# Youngs Moduli (GPa) = 51.38842 51.38842 69.10256
#
# Poissons Ratio (x) = 0.37096 0.23166
# Poissons Ratio (y) = 0.37096 0.23166
# Poissons Ratio (z) = 0.17228 0.17228
#
# Static dielectric constant tensor:
#      x y z
#    x 1.723970 0.000000 0.000000 
#    y 0.000000 1.723970 0.000000 
#    z 0.000000 0.000000 1.744570 
# 
# From -- ./inp_files/3708.got.cif
#   From: 2010.05.17/outbox.cif.g08.bks.cpg/sg189_2_cif.got.tgz:3708.got - 2010.05.20 12:14:34.
