data_PCOD9586757
_publ_section_title
;
Structure prediction by ZEFSAII (Michael W. Deem and Ramdas Pophale) SiO2 
 PCOD9586757
Probable space group: P -6 2 C
;
_chemical_formula_sum "Si O2"
_cell_formula_units_Z 72
_cell_length_a 24.070446
_cell_length_b 24.070446
_cell_length_c 9.533361
_cell_angle_alpha 90.000000
_cell_angle_beta 90.000000
_cell_angle_gamma 120.000000
_cell_volume 4783.490824
_symmetry_space_group_name_H-M "P -6 2 C"
_symmetry_group_IT_number 190
_symmetry_cell_setting 'hexagonal'
loop_
_space_group_symop_operation_xyz
x,y,z
-x+y,-x,1/2-z
-y,x-y,z
x,y,1/2-z
-x+y,-x,z
-y,x-y,1/2-z
x-y,-y,-z
-x,-x+y,-z
y,x,-z
y,x,1/2+z
x-y,-y,1/2+z
-x,-x+y,1/2+z
loop_
_atom_site_type_symbol
_atom_site_label
_atom_site_fract_x
_atom_site_fract_y
_atom_site_fract_z
Si Si1 0.747519 0.480323 0.909062
Si Si2 0.637141 0.702667 0.081787
Si Si3 0.699040 0.065953 0.084767
Si Si4 0.807795 0.171865 0.910137
Si Si5 0.520906 0.374793 0.085646
Si Si6 0.376432 0.862566 0.082722
O O1 0.748057 0.457648 0.750000
O O2 0.787369 0.558105 0.905398
O O3 0.676075 0.464052 0.946979
O O4 0.785751 0.460687 0.015105
O O5 0.643151 0.699301 0.250000
O O6 0.655594 0.775638 0.048351
O O7 0.561500 0.656844 0.047822
O O8 0.678514 0.678514 0.000000
O O9 0.703969 0.056234 0.250000
O O10 0.656223 0.100525 0.069218
O O11 0.767864 0.114201 0.015934
O O12 0.665976 0.000000 0.000000
O O13 0.806978 0.149668 0.750000
O O14 0.535842 0.382698 0.250000
O O15 0.560293 0.441409 0.004011
O O16 0.388408 0.867824 0.250000
#
# Coordination Sequence:
#
# PCOD9586757 Si02
#       6
#    12  12  12  12  12  12
#     4   8  15  30  48  60  74 105 145 179 220 276
#     4   9  18  31  48  70  93 119 151 184 222 269
#     4  10  20  32  47  68  91 118 151 184 224 273
#     4   8  15  30  49  66  87 114 144 180 217 257
#     4  10  20  31  44  64  87 110 142 189 239 279
#     4   9  18  32  47  62  83 114 150 186 228 280
#
# _framework density 15.051767999999999
#
# number of rings (size 3 to 8) (size 9 to 14) (size 15 to 20)
#    0.000    3.000    0.000    3.000    0.000    4.667 
#    1.000    6.667    0.000    0.000    0.000    0.000 
#    0.000    0.000    0.000    0.500    0.000    8.000 
#
# Total GULP energy -401108.782171 kJ/mol
# GULP energy per Si atom -5570.955308 kJ/mol
# Density = 1.501751 g / cm^3
# Si number density = 15.051768 Si / 1000 Ang^3
#
#
#
# Elastic Constant Matrix: (Units=GPa)
#
#
# Indices 1 2 3 4 5 6 
#
# 1 62.0508 42.7027 59.1446 0.0000 0.0000 0.0000
# 2 42.7027 62.0508 59.1446 0.0000 0.0000 0.0000
# 3 59.1446 59.1446 86.6488 0.0000 0.0000 0.0000
# 4 0.0000 0.0000 0.0000 22.7350 0.0000 0.0000
# 5 0.0000 0.0000 0.0000 0.0000 22.7350 0.0000
# 6 0.0000 0.0000 0.0000 0.0000 0.0000 9.6741
#
#
#
# Elastic Compliance Matrix: (Units=1/GPa)
#
#
# Indices 1 2 3 4 5 6 
#
# 1 0.046665 -0.005019 -0.028426 0.000000 0.000000 0.000000
# 2 -0.005019 0.046665 -0.028426 0.000000 0.000000 0.000000
# 3 -0.028426 -0.028426 0.050347 0.000000 0.000000 0.000000
# 4 0.000000 0.000000 0.000000 0.043985 0.000000 0.000000
# 5 0.000000 0.000000 0.000000 0.000000 0.043985 0.000000
# 6 0.000000 0.000000 0.000000 0.000000 0.000000 0.103369
#
#
# Mechanical properties :
#
#
# Convention : Reuss Voigt Hill
#
# Bulk Modulus (GPa) = 50.16796 59.19268 54.68032
# Shear Modulus (GPa) = 10.74329 14.34603 12.54466
#
# Velocity S-wave (km/s) = 2.67452 3.09060 2.89006
# Velocity P-wave (km/s) = 6.55287 7.22130 6.89519
#
# Compressibility (1/GPa) = 0.01993304
#
# Stress axis : x y z
#
# Youngs Moduli (GPa) = 21.42923 21.42923 19.86199
#
# Poissons Ratio (x) = 0.10756 0.56461
# Poissons Ratio (y) = 0.10756 0.56461
# Poissons Ratio (z) = 0.60916 0.60916
#
# Static dielectric constant tensor:
#      x y z
#    x 1.493230 0.000000 0.000000 
#    y 0.000000 1.493230 0.000000 
#    z 0.000000 0.000000 1.497740 
# 
# From -- ./inp_files/1175.got.cif
#   From: 2010.05.17/outbox.cif.g08.bks.cpg/sg190_1_cif.got.tgz:1175.got - 2010.05.20 12:16:56.
