data_PCOD9586746
_publ_section_title
;
Structure prediction by ZEFSAII (Michael W. Deem and Ramdas Pophale) SiO2 
 PCOD9586746
Probable space group: P -6 2 C
;
_chemical_formula_sum "Si O2"
_cell_formula_units_Z 70
_cell_length_a 16.358423
_cell_length_b 16.358423
_cell_length_c 16.034712
_cell_angle_alpha 90.000000
_cell_angle_beta 90.000000
_cell_angle_gamma 120.000000
_cell_volume 3715.991089
_symmetry_space_group_name_H-M "P -6 2 C"
_symmetry_group_IT_number 190
_symmetry_cell_setting 'hexagonal'
loop_
_space_group_symop_operation_xyz
x,y,z
-x+y,-x,1/2-z
-y,x-y,z
x,y,1/2-z
-x+y,-x,z
-y,x-y,1/2-z
x-y,-y,-z
-x,-x+y,-z
y,x,-z
y,x,1/2+z
x-y,-y,1/2+z
-x,-x+y,1/2+z
loop_
_atom_site_type_symbol
_atom_site_label
_atom_site_fract_x
_atom_site_fract_y
_atom_site_fract_z
Si Si1 0.155912 0.214470 0.108687
Si Si2 0.432213 0.408497 0.750000
Si Si3 0.517705 0.921861 0.926997
Si Si4 0.870575 0.673929 0.435638
Si Si5 0.162238 0.812029 0.250000
Si Si6 0.563866 0.630271 0.250000
Si Si7 0.000000 0.000000 0.400536
Si Si8 0.059793 0.405230 0.585393
O O1 0.255708 0.216449 0.120930
O O2 0.145182 0.283136 0.171195
O O3 0.073136 0.107726 0.122774
O O4 0.159352 0.260236 0.018407
O O5 0.406790 0.443978 0.665395
O O6 0.389133 0.298159 0.750000
O O7 0.544910 0.458387 0.750000
O O8 0.574592 0.867907 0.949847
O O9 0.405217 0.884531 0.922380
O O10 0.552496 0.000000 0.000000
O O11 0.766826 0.644203 0.405116
O O12 0.269702 0.840707 0.250000
O O13 0.612941 0.618975 0.333261
O O14 0.000000 0.000000 0.500000
O O15 0.000000 0.366387 0.500000
#
# Coordination Sequence:
#
# PCOD9586746 Si02
#       8
#    12   6  12  12   6   6   4  12
#     4  11  25  36  61  84 119 167 201 248 287 364
#     4  10  20  39  59  84 111 148 188 236 291 337
#     4  10  19  39  57  84 112 145 191 240 285 344
#     4  11  20  38  61  85 108 159 201 231 299 364
#     4  12  22  39  60  87 115 159 194 246 304 357
#     4  10  24  38  59  89 116 145 200 242 287 366
#     4  12  24  40  53  85 132 157 209 259 288 334
#     4  10  23  37  61  83 118 151 188 252 291 347
#
# _framework density 18.837503999999999
#
# number of rings (size 3 to 8) (size 9 to 14) (size 15 to 20)
#    0.000    1.371    5.143    1.029    4.800    2.057 
#    1.543    0.000    0.000    0.000    0.000    0.000 
#    0.000    0.000    0.000    0.000    0.000    0.000 
#
# Total GULP energy -390003.705282 kJ/mol
# GULP energy per Si atom -5571.481504 kJ/mol
# Density = 1.879463 g / cm^3
# Si number density = 18.837504 Si / 1000 Ang^3
#
#
#
# Elastic Constant Matrix: (Units=GPa)
#
#
# Indices 1 2 3 4 5 6 
#
# 1 72.3172 15.5726 -2.2384 0.0000 0.0000 0.0000
# 2 15.5726 72.3172 -2.2384 0.0000 0.0000 0.0000
# 3 -2.2384 -2.2384 77.1414 0.0000 0.0000 0.0000
# 4 0.0000 0.0000 0.0000 -15.0899 0.0000 0.0000
# 5 0.0000 0.0000 0.0000 0.0000 -15.0899 0.0000
# 6 0.0000 0.0000 0.0000 0.0000 0.0000 28.3723
#
#
#
# Elastic Compliance Matrix: (Units=1/GPa)
#
#
# Indices 1 2 3 4 5 6 
#
# 1 0.014509 -0.003114 0.000331 0.000000 0.000000 0.000000
# 2 -0.003114 0.014509 0.000331 0.000000 0.000000 0.000000
# 3 0.000331 0.000331 0.012982 0.000000 0.000000 0.000000
# 4 0.000000 0.000000 0.000000 -0.066270 0.000000 0.000000
# 5 0.000000 0.000000 0.000000 0.000000 -0.066270 0.000000
# 6 0.000000 0.000000 0.000000 0.000000 0.000000 0.035246
#
#
# Mechanical properties :
#
#
# Convention : Reuss Voigt Hill
#
# Bulk Modulus (GPa) = 26.95821 27.10746 27.03284
# Shear Modulus (GPa) = -131.49820 13.68384 -58.90718
#
# Velocity S-wave (km/s) = -8.36410 2.69813 -5.59813
# Velocity P-wave (km/s) = 8.88457 4.91202 5.23486
#
# Compressibility (1/GPa) = 0.03709445
#
# Stress axis : x y z
#
# Youngs Moduli (GPa) = 68.92375 68.92375 77.02734
#
# Poissons Ratio (x) = 0.21463 -0.02547
# Poissons Ratio (y) = 0.21463 -0.02547
# Poissons Ratio (z) = -0.02279 -0.02279
#
# Static dielectric constant tensor:
#      x y z
#    x 1.681130 0.000000 0.000000 
#    y 0.000000 1.681130 0.000000 
#    z 0.000000 0.000000 1.595800 
# 
# From -- ./inp_files/3828.got.cif
#   From: 2010.05.17/outbox.cif.g08.bks.cpg/sg190_2_cif.got.tgz:3828.got - 2010.05.20 12:16:56.
