data_PCOD9586303
_publ_section_title
;
Structure prediction by ZEFSAII (Michael W. Deem and Ramdas Pophale) SiO2 
 PCOD9586303
Probable space group: P -6 2 M
;
_chemical_formula_sum "Si O2"
_cell_formula_units_Z 72
_cell_length_a 15.419308
_cell_length_b 15.419308
_cell_length_c 22.306356
_cell_angle_alpha 90.000000
_cell_angle_beta 90.000000
_cell_angle_gamma 120.000000
_cell_volume 4592.921554
_symmetry_space_group_name_H-M "P -6 2 M"
_symmetry_group_IT_number 189
_symmetry_cell_setting 'hexagonal'
loop_
_space_group_symop_operation_xyz
x,y,z
-x+y,-x,-z
-y,x-y,z
x,y,-z
-x+y,-x,z
-y,x-y,-z
x-y,-y,-z
-x,-x+y,-z
y,x,-z
y,x,z
x-y,-y,z
-x,-x+y,z
loop_
_atom_site_type_symbol
_atom_site_label
_atom_site_fract_x
_atom_site_fract_y
_atom_site_fract_z
Si Si1 0.702326 0.457699 0.828468
Si Si2 0.797587 0.412054 0.500000
Si Si3 0.116960 0.879991 0.000000
Si Si4 0.672850 0.792102 0.123435
Si Si5 0.239107 0.120083 0.251889
Si Si6 0.756784 0.541595 0.694733
Si Si7 0.569739 0.116759 0.368707
O O1 0.591779 0.363902 0.839086
O O2 0.732339 0.554487 0.867015
O O3 0.715568 0.490544 0.759344
O O4 0.731042 0.290468 0.500000
O O5 0.859477 0.448436 0.439246
O O6 0.148256 0.849028 0.061409
O O7 0.000000 0.837297 0.000000
O O8 0.174186 0.000000 0.000000
O O9 0.716898 0.716898 0.121585
O O10 0.722850 0.860345 0.182463
O O11 0.177024 0.177024 0.263009
O O12 0.339669 0.163873 0.292366
O O13 0.170900 0.000000 0.260343
O O14 0.659080 0.507062 0.654056
O O15 0.820380 0.495532 0.665657
O O16 0.522978 0.000000 0.356725
#
# Coordination Sequence:
#
# PCOD9586303 Si02
#       7
#    12   6   6  12  12  12  12
#     4   9  17  33  54  73 100 141 169 203 248 304
#     4  10  19  36  54  68 104 140 164 218 253 290
#     4  10  19  34  54  74  98 132 171 218 266 316
#     4   9  19  33  51  75 104 131 170 220 265 308
#     4  10  20  34  51  75 106 138 172 214 264 313
#     4  11  19  35  51  80 107 132 171 216 246 310
#     4  12  21  33  55  77 103 138 168 207 263 304
#
# _framework density 15.676296000000001
#
# number of rings (size 3 to 8) (size 9 to 14) (size 15 to 20)
#    0.500    1.333    3.333    2.333    0.000    0.667 
#    0.000    4.167    0.000    1.000    0.000    0.000 
#    0.000    0.000    0.000    7.167    0.000    0.000 
#
# Total GULP energy -401227.943896 kJ/mol
# GULP energy per Si atom -5572.610332 kJ/mol
# Density = 1.564062 g / cm^3
# Si number density = 15.676296 Si / 1000 Ang^3
#
#
#
# Elastic Constant Matrix: (Units=GPa)
#
#
# Indices 1 2 3 4 5 6 
#
# 1 68.8115 15.0662 19.9543 0.0000 0.0000 0.0000
# 2 15.0662 68.8115 19.9543 0.0000 0.0000 0.0000
# 3 19.9543 19.9543 80.5017 0.0000 0.0000 0.0000
# 4 0.0000 0.0000 0.0000 13.7318 0.0000 0.0000
# 5 0.0000 0.0000 0.0000 0.0000 13.7318 0.0000
# 6 0.0000 0.0000 0.0000 0.0000 0.0000 26.8727
#
#
#
# Elastic Compliance Matrix: (Units=1/GPa)
#
#
# Indices 1 2 3 4 5 6 
#
# 1 0.016061 -0.002545 -0.003350 0.000000 0.000000 0.000000
# 2 -0.002545 0.016061 -0.003350 0.000000 0.000000 0.000000
# 3 -0.003350 -0.003350 0.014083 0.000000 0.000000 0.000000
# 4 0.000000 0.000000 0.000000 0.072824 0.000000 0.000000
# 5 0.000000 0.000000 0.000000 0.000000 0.072824 0.000000
# 6 0.000000 0.000000 0.000000 0.000000 0.000000 0.037213
#
#
# Mechanical properties :
#
#
# Convention : Reuss Voigt Hill
#
# Bulk Modulus (GPa) = 36.08269 36.45270 36.26770
# Shear Modulus (GPa) = 19.47079 21.74391 20.60735
#
# Velocity S-wave (km/s) = 3.52810 3.72836 3.62961
# Velocity P-wave (km/s) = 6.29793 6.46824 6.38365
#
# Compressibility (1/GPa) = 0.02771412
#
# Stress axis : x y z
#
# Youngs Moduli (GPa) = 62.26175 62.26175 71.00751
#
# Poissons Ratio (x) = 0.15846 0.23790
# Poissons Ratio (y) = 0.15846 0.23790
# Poissons Ratio (z) = 0.20860 0.20860
#
# Static dielectric constant tensor:
#      x y z
#    x 1.508140 0.000000 0.000000 
#    y 0.000000 1.508140 0.000000 
#    z 0.000000 0.000000 1.511050 
# 
# From -- ./inp_files/3448.got.cif
#   From: 2010.05.17/outbox.cif.g08.bks.cpg/sg189_2_cif.got.tgz:3448.got - 2010.05.20 12:14:34.
