data_PCOD9586155
_publ_section_title
;
Structure prediction by ZEFSAII (Michael W. Deem and Ramdas Pophale) SiO2 
 PCOD9586155
Probable space group: P -6 2 M
;
_chemical_formula_sum "Si O2"
_cell_formula_units_Z 84
_cell_length_a 18.155424
_cell_length_b 18.155424
_cell_length_c 17.038033
_cell_angle_alpha 90.000000
_cell_angle_beta 90.000000
_cell_angle_gamma 120.000000
_cell_volume 4863.656315
_symmetry_space_group_name_H-M "P -6 2 M"
_symmetry_group_IT_number 189
_symmetry_cell_setting 'hexagonal'
loop_
_space_group_symop_operation_xyz
x,y,z
-x+y,-x,-z
-y,x-y,z
x,y,-z
-x+y,-x,z
-y,x-y,-z
x-y,-y,-z
-x,-x+y,-z
y,x,-z
y,x,z
x-y,-y,z
-x,-x+y,z
loop_
_atom_site_type_symbol
_atom_site_label
_atom_site_fract_x
_atom_site_fract_y
_atom_site_fract_z
Si Si1 0.159369 0.377552 0.326999
Si Si2 0.631552 0.157552 0.169450
Si Si3 0.496514 0.401274 0.000000
Si Si4 0.470740 0.180499 0.168072
Si Si5 0.099162 0.199284 0.407292
Si Si6 0.095912 0.643793 0.671176
Si Si7 0.502389 0.604756 0.589010
Si Si8 0.323300 0.900569 0.000000
O O1 0.150567 0.399093 0.235848
O O2 0.115262 0.279825 0.354458
O O3 0.258424 0.415349 0.346826
O O4 0.128099 0.433099 0.374270
O O5 0.539560 0.149599 0.177921
O O6 0.717600 0.247196 0.180467
O O7 0.635412 0.097011 0.234915
O O8 0.642279 0.136928 0.080627
O O9 0.421756 0.421756 0.000000
O O10 0.585900 0.489800 0.000000
O O11 0.429149 0.148681 0.081507
O O12 0.113183 0.224837 0.500000
O O13 0.159785 0.159785 0.388099
O O14 0.000000 0.127790 0.399649
O O15 0.130013 0.583717 0.636840
O O16 0.000000 0.608524 0.642505
O O17 0.481622 0.614595 0.500000
O O18 0.551460 0.551460 0.589371
O O19 0.347806 0.000000 0.000000
#
# Coordination Sequence:
#
# PCOD9586155 Si02
#       8
#    12  12   6  12  12  12  12   6
#     4  11  21  35  55  83 109 143 187 229 279 336
#     4  10  18  32  49  71 102 133 179 220 267 323
#     4   9  17  28  46  68  92 129 171 215 263 315
#     4  10  20  32  51  76 104 146 182 236 286 333
#     4  10  21  38  61  88 116 143 177 229 294 360
#     4  10  21  36  53  73 104 142 178 222 270 318
#     4  10  21  37  54  73 101 139 182 223 268 323
#     4   9  19  32  46  72 104 137 185 235 289 343
#
# _framework density 17.270956999999999
#
# number of rings (size 3 to 8) (size 9 to 14) (size 15 to 20)
#    0.000    2.000    1.429    2.571    0.000    4.571 
#    0.857    2.857    0.000    0.000    0.000    0.000 
#    0.000    0.000    0.000    1.286    0.000    0.429 
#
# Total GULP energy -467808.594232 kJ/mol
# GULP energy per Si atom -5569.149931 kJ/mol
# Density = 1.723165 g / cm^3
# Si number density = 17.270957 Si / 1000 Ang^3
#
#
#
# Elastic Constant Matrix: (Units=GPa)
#
#
# Indices 1 2 3 4 5 6 
#
# 1 57.9854 20.9450 23.1030 0.0000 0.0000 0.0000
# 2 20.9450 57.9854 23.1030 0.0000 0.0000 0.0000
# 3 23.1030 23.1030 96.4830 0.0000 0.0000 0.0000
# 4 0.0000 0.0000 0.0000 22.1813 0.0000 0.0000
# 5 0.0000 0.0000 0.0000 0.0000 22.1813 0.0000
# 6 0.0000 0.0000 0.0000 0.0000 0.0000 18.5202
#
#
#
# Elastic Compliance Matrix: (Units=1/GPa)
#
#
# Indices 1 2 3 4 5 6 
#
# 1 0.020866 -0.006131 -0.003528 0.000000 0.000000 0.000000
# 2 -0.006131 0.020866 -0.003528 0.000000 0.000000 0.000000
# 3 -0.003528 -0.003528 0.012054 0.000000 0.000000 0.000000
# 4 0.000000 0.000000 0.000000 0.045083 0.000000 0.000000
# 5 0.000000 0.000000 0.000000 0.000000 0.045083 0.000000
# 6 0.000000 0.000000 0.000000 0.000000 0.000000 0.053995
#
#
# Mechanical properties :
#
#
# Convention : Reuss Voigt Hill
#
# Bulk Modulus (GPa) = 36.48195 38.52841 37.50518
# Shear Modulus (GPa) = 21.41690 22.26342 21.84016
#
# Velocity S-wave (km/s) = 3.52526 3.59425 3.55992
# Velocity P-wave (km/s) = 6.14321 6.29138 6.21774
#
# Compressibility (1/GPa) = 0.02741082
#
# Stress axis : x y z
#
# Youngs Moduli (GPa) = 47.92437 47.92437 82.95849
#
# Poissons Ratio (x) = 0.29384 0.29270
# Poissons Ratio (y) = 0.29384 0.29270
# Poissons Ratio (z) = 0.16909 0.16909
#
# Static dielectric constant tensor:
#      x y z
#    x 1.593440 0.000000 0.000000 
#    y 0.000000 1.593440 0.000000 
#    z 0.000000 0.000000 1.596530 
# 
# From -- ./inp_files/2846.got.cif
#   From: 2010.05.17/outbox.cif.g08.bks.cpg/sg189_2_cif.got.tgz:2846.got - 2010.05.20 12:14:34.
