data_PCOD9586243
_publ_section_title
;
Structure prediction by ZEFSAII (Michael W. Deem and Ramdas Pophale) SiO2 
 PCOD9586243
Probable space group: P -6 2 M
;
_chemical_formula_sum "Si O2"
_cell_formula_units_Z 40
_cell_length_a 13.260722
_cell_length_b 13.260722
_cell_length_c 15.839497
_cell_angle_alpha 90.000000
_cell_angle_beta 90.000000
_cell_angle_gamma 120.000000
_cell_volume 2412.161374
_symmetry_space_group_name_H-M "P -6 2 M"
_symmetry_group_IT_number 189
_symmetry_cell_setting 'hexagonal'
loop_
_space_group_symop_operation_xyz
x,y,z
-x+y,-x,-z
-y,x-y,z
x,y,-z
-x+y,-x,z
-y,x-y,-z
x-y,-y,-z
-x,-x+y,-z
y,x,-z
y,x,z
x-y,-y,z
-x,-x+y,z
loop_
_atom_site_type_symbol
_atom_site_label
_atom_site_fract_x
_atom_site_fract_y
_atom_site_fract_z
Si Si1 0.133788 0.270140 0.500000
Si Si2 0.135358 0.862365 0.000000
Si Si3 0.861723 0.720862 0.813587
Si Si4 0.333335 0.666668 0.397814
Si Si5 0.579725 0.715823 0.341803
O O1 0.220106 0.220106 0.500000
O O2 0.149660 0.347307 0.582014
O O3 0.000000 0.166423 0.500000
O O4 0.154130 0.822599 0.908403
O O5 0.000000 0.827209 0.000000
O O6 0.215594 0.000000 0.000000
O O7 0.808451 0.808451 0.812498
O O8 0.790328 0.623811 0.743953
O O9 0.000000 0.793612 0.795396
O O10 0.333334 0.666668 0.500000
O O11 0.445590 0.663960 0.363220
O O12 0.618343 0.618343 0.338215
#
# Coordination Sequence:
#
# PCOD9586243 Si02
#       5
#     6   6  12   4  12
#     4  10  19  32  50  76 107 138 168 204 252 306
#     4   8  13  22  42  72 108 144 177 210 250 300
#     4   9  16  28  48  78 112 145 177 213 256 305
#     4  12  24  42  60  76  95 133 171 222 267 304
#     4  10  22  37  53  76 103 132 172 214 259 311
#
# _framework density 16.582637999999999
#
# number of rings (size 3 to 8) (size 9 to 14) (size 15 to 20)
#    0.000    2.400    1.500    1.500    0.000    4.800 
#    0.000    3.000    0.000    1.800    0.000    6.300 
#    0.000    0.000    0.000    0.000    0.000    0.000 
#
# Total GULP energy -222838.192090 kJ/mol
# GULP energy per Si atom -5570.954802 kJ/mol
# Density = 1.654490 g / cm^3
# Si number density = 16.582638 Si / 1000 Ang^3
#
#
#
# Elastic Constant Matrix: (Units=GPa)
#
#
# Indices 1 2 3 4 5 6 
#
# 1 60.0677 40.8922 39.5714 -0.0001 0.0001 -0.0002
# 2 40.8922 60.0667 39.5715 0.0000 -0.0001 -0.0004
# 3 39.5714 39.5715 133.5776 0.0001 0.0000 -0.0002
# 4 -0.0001 0.0000 0.0001 15.6338 0.0000 0.0001
# 5 0.0001 -0.0001 0.0000 0.0000 15.6338 0.0000
# 6 -0.0002 -0.0004 -0.0002 0.0001 0.0000 9.5874
#
#
#
# Elastic Compliance Matrix: (Units=1/GPa)
#
#
# Indices 1 2 3 4 5 6 
#
# 1 0.032526 -0.019625 -0.003822 0.000000 0.000000 0.000000
# 2 -0.019625 0.032526 -0.003822 0.000000 0.000000 0.000001
# 3 -0.003822 -0.003822 0.009751 0.000000 0.000000 0.000000
# 4 0.000000 0.000000 0.000000 0.063964 0.000000 -0.000001
# 5 0.000000 0.000000 0.000000 0.000000 0.063964 0.000000
# 6 0.000000 0.000001 0.000000 -0.000001 0.000000 0.104303
#
#
# Mechanical properties :
#
#
# Convention : Reuss Voigt Hill
#
# Bulk Modulus (GPa) = 49.34552 54.86467 52.10510
# Shear Modulus (GPa) = 13.57490 17.08279 15.32885
#
# Velocity S-wave (km/s) = 2.86426 3.21309 3.04368
# Velocity P-wave (km/s) = 6.38440 6.85002 6.62130
#
# Compressibility (1/GPa) = 0.02026526
#
# Stress axis : x y z
#
# Youngs Moduli (GPa) = 30.74489 30.74424 102.55718
#
# Poissons Ratio (x) = 0.60336 0.39194
# Poissons Ratio (y) = 0.60337 0.39197
# Poissons Ratio (z) = 0.11750 0.11750
#
# Static dielectric constant tensor:
#      x y z
#    x 1.534860 0.000000 0.000000 
#    y 0.000000 1.534860 0.000000 
#    z 0.000000 0.000000 1.598330 
# 
# From -- ./inp_files/2943.got.cif
#   From: 2010.05.17/outbox.cif.g08.bks.cpg/sg189_2_cif.got.tgz:2943.got - 2010.05.20 12:14:34.
