data_PCOD9586123
_publ_section_title
;
Structure prediction by ZEFSAII (Michael W. Deem and Ramdas Pophale) SiO2 
 PCOD9586123
Probable space group: P -6 2 M
;
_chemical_formula_sum "Si O2"
_cell_formula_units_Z 72
_cell_length_a 23.887617
_cell_length_b 23.887617
_cell_length_c 7.586217
_cell_angle_alpha 90.000000
_cell_angle_beta 90.000000
_cell_angle_gamma 120.000000
_cell_volume 3748.880072
_symmetry_space_group_name_H-M "P -6 2 M"
_symmetry_group_IT_number 189
_symmetry_cell_setting 'hexagonal'
loop_
_space_group_symop_operation_xyz
x,y,z
-x+y,-x,-z
-y,x-y,z
x,y,-z
-x+y,-x,z
-y,x-y,-z
x-y,-y,-z
-x,-x+y,-z
y,x,-z
y,x,z
x-y,-y,z
-x,-x+y,z
loop_
_atom_site_type_symbol
_atom_site_label
_atom_site_fract_x
_atom_site_fract_y
_atom_site_fract_z
Si Si1 0.434393 0.359760 0.712761
Si Si2 0.700197 0.700197 0.214751
Si Si3 0.170287 0.000000 0.214700
Si Si4 0.427271 0.128576 0.211758
Si Si5 0.781115 0.925334 0.215978
Si Si6 0.156652 0.789339 0.206777
Si Si7 0.073365 0.515188 0.710074
O O1 0.434862 0.357276 0.500000
O O2 0.388837 0.388837 0.764449
O O3 0.403900 0.287318 0.777057
O O4 0.506329 0.413030 0.774056
O O5 0.764596 0.764596 0.269534
O O6 0.698582 0.635644 0.273210
O O7 0.700617 0.700617 0.000000
O O8 0.178881 0.068783 0.269916
O O9 0.169222 0.000000 0.000000
O O10 0.413193 0.184109 0.277940
O O11 0.489099 0.122247 0.257497
O O12 0.427330 0.129738 0.000000
O O13 0.706296 0.882946 0.277293
O O14 0.814714 0.000000 0.272438
O O15 0.780348 0.925684 0.000000
O O16 0.164557 0.806539 0.000000
O O17 0.067611 0.517061 0.500000
O O18 0.000000 0.465792 0.777737
#
# Coordination Sequence:
#
# PCOD9586123 Si02
#       7
#    12   6   6  12  12  12  12
#     4   9  19  35  51  68  95 129 160 193 238 289
#     4   9  14  24  41  63  93 123 150 185 234 288
#     4   9  14  24  38  55  87 129 162 195 242 288
#     4  10  18  28  47  73  98 125 156 191 237 290
#     4   9  16  25  38  59  89 124 163 204 242 280
#     4  10  19  30  47  72  98 125 161 202 241 284
#     4   9  18  32  49  70  96 123 151 187 232 282
#
# _framework density 19.205736999999999
#
# number of rings (size 3 to 8) (size 9 to 14) (size 15 to 20)
#    0.000    2.667    2.500    1.500    0.000    2.333 
#    0.500    1.667    0.000    0.667    0.000    0.000 
#    0.000    0.000    0.000    0.000    0.167    0.333 
#
# Total GULP energy -401370.326712 kJ/mol
# GULP energy per Si atom -5574.587871 kJ/mol
# Density = 1.916202 g / cm^3
# Si number density = 19.205737 Si / 1000 Ang^3
#
#
#
# Elastic Constant Matrix: (Units=GPa)
#
#
# Indices 1 2 3 4 5 6 
#
# 1 129.8938 75.9645 0.6123 0.0000 0.0000 0.0000
# 2 75.9645 129.8938 0.6123 0.0000 0.0000 0.0000
# 3 0.6123 0.6123 37.2983 0.0000 0.0000 0.0000
# 4 0.0000 0.0000 0.0000 49.4217 0.0000 0.0000
# 5 0.0000 0.0000 0.0000 0.0000 49.4217 0.0000
# 6 0.0000 0.0000 0.0000 0.0000 0.0000 26.9647
#
#
#
# Elastic Compliance Matrix: (Units=1/GPa)
#
#
# Indices 1 2 3 4 5 6 
#
# 1 0.011700 -0.006842 -0.000080 0.000000 0.000000 0.000000
# 2 -0.006842 0.011700 -0.000080 0.000000 0.000000 0.000000
# 3 -0.000080 -0.000080 0.026813 0.000000 0.000000 0.000000
# 4 0.000000 0.000000 0.000000 0.020234 0.000000 0.000000
# 5 0.000000 0.000000 0.000000 0.000000 0.020234 0.000000
# 6 0.000000 0.000000 0.000000 0.000000 0.000000 0.037086
#
#
# Mechanical properties :
#
#
# Convention : Reuss Voigt Hill
#
# Bulk Modulus (GPa) = 27.61603 50.16268 38.88936
# Shear Modulus (GPa) = 32.50087 39.82139 36.16113
#
# Velocity S-wave (km/s) = 4.11816 4.55841 4.34387
# Velocity P-wave (km/s) = 6.08462 7.34035 6.74179
#
# Compressibility (1/GPa) = 0.03621085
#
# Stress axis : x y z
#
# Youngs Moduli (GPa) = 85.46653 85.46653 37.29466
#
# Poissons Ratio (x) = 0.58479 0.00297
# Poissons Ratio (y) = 0.58479 0.00297
# Poissons Ratio (z) = 0.00682 0.00682
#
# Static dielectric constant tensor:
#      x y z
#    x 1.665730 0.000000 0.000000 
#    y 0.000000 1.665730 0.000000 
#    z 0.000000 0.000000 1.753970 
# 
# From -- ./inp_files/1376.got.cif
#   From: 2010.05.17/outbox.cif.g08.bks.cpg/sg189_1_cif.got.tgz:1376.got - 2010.05.20 12:14:34.
