data_PCOD9586965
_publ_section_title
;
Structure prediction by ZEFSAII (Michael W. Deem and Ramdas Pophale) SiO2 
 PCOD9586965
Probable space group: P -6 2 C
;
_chemical_formula_sum "Si O2"
_cell_formula_units_Z 52
_cell_length_a 14.028027
_cell_length_b 14.028027
_cell_length_c 15.648673
_cell_angle_alpha 90.000000
_cell_angle_beta 90.000000
_cell_angle_gamma 120.000000
_cell_volume 2666.866852
_symmetry_space_group_name_H-M "P -6 2 C"
_symmetry_group_IT_number 190
_symmetry_cell_setting 'hexagonal'
loop_
_space_group_symop_operation_xyz
x,y,z
-x+y,-x,1/2-z
-y,x-y,z
x,y,1/2-z
-x+y,-x,z
-y,x-y,1/2-z
x-y,-y,-z
-x,-x+y,-z
y,x,-z
y,x,1/2+z
x-y,-y,1/2+z
-x,-x+y,1/2+z
loop_
_atom_site_type_symbol
_atom_site_label
_atom_site_fract_x
_atom_site_fract_y
_atom_site_fract_z
Si Si1 0.785205 0.462677 0.000000
Si Si2 0.627699 0.872030 0.652366
Si Si3 1.000000 0.219926 0.896823
Si Si4 0.000000 0.000000 0.103857
Si Si5 0.372301 0.244331 0.652366
O O1 0.656849 0.431184 0.000000
O O2 0.842677 0.533022 0.916422
O O3 0.842677 0.533022 0.083578
O O4 0.589349 0.860226 0.750000
O O5 0.680412 0.794773 0.636060
O O6 0.720850 0.000000 0.638985
O O7 0.885639 0.205227 0.863940
O O8 1.000000 0.109234 0.868721
O O9 0.000000 0.223778 0.000000
O O10 0.000000 0.000000 0.000000
O O11 0.410651 0.270877 0.750000
#
# Coordination Sequence:
#
# PCOD9586965 Si02
#       5
#    12  12  12   4  12
#     4  10  25  47  67  83 118 170 216 278 318 354
#     4  11  23  41  67  99 133 167 207 257 319 390
#     4  11  19  35  63  94 136 173 203 248 318 395
#     4   9  18  27  55  95 127 181 200 235 316 392
#     4  11  23  41  67  99 133 167 207 257 319 390
#
# _framework density 19.498536999999999
#
# number of rings (size 3 to 8) (size 9 to 14) (size 15 to 20)
#    0.462    0.923    4.615    1.385    0.000    1.846 
#    8.308    0.000    0.000    0.000    0.000    0.000 
#    0.000    0.000    0.000    0.000    0.000    0.000 
#
# Total GULP energy -290341.259199 kJ/mol
# GULP energy per Si atom -5583.485754 kJ/mol
# Density = 1.945416 g / cm^3
# Si number density = 19.498537 Si / 1000 Ang^3
#
#
#
# Elastic Constant Matrix: (Units=GPa)
#
#
# Indices 1 2 3 4 5 6 
#
# 1 58.0342 -7.4628 37.6729 0.0000 0.0000 0.0000
# 2 -7.4628 58.0342 37.6729 0.0000 0.0000 0.0000
# 3 37.6729 37.6729 137.3637 0.0000 0.0000 0.0000
# 4 0.0000 0.0000 0.0000 6.3484 0.0000 0.0000
# 5 0.0000 0.0000 0.0000 0.0000 6.3484 0.0000
# 6 0.0000 0.0000 0.0000 0.0000 0.0000 32.7485
#
#
#
# Elastic Compliance Matrix: (Units=1/GPa)
#
#
# Indices 1 2 3 4 5 6 
#
# 1 0.024352 0.009084 -0.009170 0.000000 0.000000 0.000000
# 2 0.009084 0.024352 -0.009170 0.000000 0.000000 0.000000
# 3 -0.009170 -0.009170 0.012310 0.000000 0.000000 0.000000
# 4 0.000000 0.000000 0.000000 0.157521 0.000000 0.000000
# 5 0.000000 0.000000 0.000000 0.000000 0.157521 0.000000
# 6 0.000000 0.000000 0.000000 0.000000 0.000000 0.030536
#
#
# Mechanical properties :
#
#
# Convention : Reuss Voigt Hill
#
# Bulk Modulus (GPa) = 23.52808 43.24423 33.38615
# Shear Modulus (GPa) = 11.38249 21.45899 16.42074
#
# Velocity S-wave (km/s) = 2.41874 3.32104 2.90513
# Velocity P-wave (km/s) = 4.46018 6.07718 5.33035
#
# Compressibility (1/GPa) = 0.04250240
#
# Stress axis : x y z
#
# Youngs Moduli (GPa) = 41.06389 41.06389 81.23510
#
# Poissons Ratio (x) = -0.37304 0.74495
# Poissons Ratio (y) = -0.37304 0.74495
# Poissons Ratio (z) = 0.37657 0.37657
#
# Static dielectric constant tensor:
#      x y z
#    x 1.660480 0.000000 0.000000 
#    y 0.000000 1.660480 0.000000 
#    z 0.000000 0.000000 1.667870 
# 
# From -- ./inp_files/2678.got.cif
#   From: 2010.05.17/outbox.cif.g08.bks.cpg/sg190_2_cif.got.tgz:2678.got - 2010.05.20 12:16:56.
