data_PCOD9586648
_publ_section_title
;
Structure prediction by ZEFSAII (Michael W. Deem and Ramdas Pophale) SiO2 
 PCOD9586648
Probable space group: P -6 2 C
;
_chemical_formula_sum "Si O2"
_cell_formula_units_Z 60
_cell_length_a 14.974227
_cell_length_b 14.974227
_cell_length_c 14.176848
_cell_angle_alpha 90.000000
_cell_angle_beta 90.000000
_cell_angle_gamma 120.000000
_cell_volume 2752.955173
_symmetry_space_group_name_H-M "P -6 2 C"
_symmetry_group_IT_number 190
_symmetry_cell_setting 'hexagonal'
loop_
_space_group_symop_operation_xyz
x,y,z
-x+y,-x,1/2-z
-y,x-y,z
x,y,1/2-z
-x+y,-x,z
-y,x-y,1/2-z
x-y,-y,-z
-x,-x+y,-z
y,x,-z
y,x,1/2+z
x-y,-y,1/2+z
-x,-x+y,1/2+z
loop_
_atom_site_type_symbol
_atom_site_label
_atom_site_fract_x
_atom_site_fract_y
_atom_site_fract_z
Si Si1 0.074495 0.630892 0.143109
Si Si2 0.545027 0.711976 0.642265
Si Si3 0.218479 0.022345 0.111573
Si Si4 0.978534 0.787063 0.886478
Si Si5 0.860863 0.485750 0.443288
O O1 0.102480 0.617453 0.250000
O O2 0.042797 0.718717 0.144444
O O3 0.974978 0.530888 0.101391
O O4 0.149685 0.654866 0.053661
O O5 0.512783 0.682724 0.750000
O O6 0.659637 0.727464 0.631325
O O7 0.451171 0.633352 0.576742
O O8 0.546934 0.817001 0.615944
O O9 0.197394 0.113080 0.144481
O O10 0.123405 0.913526 0.144244
O O11 0.205415 0.000000 0.000000
O O12 0.000000 0.794082 0.000000
#
# Coordination Sequence:
#
# PCOD9586648 Si02
#       5
#    12  12  12  12  12
#     4  11  22  43  69  91 131 182 221 269 347 413
#     4  12  24  42  68 100 133 176 230 290 343 404
#     4  10  21  35  62  98 139 177 227 276 334 405
#     4  10  18  38  62  95 137 183 218 272 333 403
#     4  11  24  44  68  98 133 170 229 288 341 403
#
# _framework density 21.79476
#
# number of rings (size 3 to 8) (size 9 to 14) (size 15 to 20)
#    0.000    1.200    4.000    3.800    2.800    2.400 
#    0.000    1.000    0.000    2.400    0.000    0.000 
#    0.000    0.000    0.000    0.000    0.000    0.000 
#
# Total GULP energy -334254.704137 kJ/mol
# GULP energy per Si atom -5570.911736 kJ/mol
# Density = 2.174515 g / cm^3
# Si number density = 21.794760 Si / 1000 Ang^3
#
#
#
# Elastic Constant Matrix: (Units=GPa)
#
#
# Indices 1 2 3 4 5 6 
#
# 1 70.6647 10.5561 34.5577 0.0000 0.0000 0.0000
# 2 10.5561 70.6647 34.5577 0.0000 0.0000 0.0000
# 3 34.5577 34.5577 158.8171 0.0000 0.0000 0.0000
# 4 0.0000 0.0000 0.0000 -12.4275 0.0000 0.0000
# 5 0.0000 0.0000 0.0000 0.0000 -12.4275 0.0000
# 6 0.0000 0.0000 0.0000 0.0000 0.0000 30.0543
#
#
#
# Elastic Compliance Matrix: (Units=1/GPa)
#
#
# Indices 1 2 3 4 5 6 
#
# 1 0.015873 -0.000763 -0.003288 0.000000 0.000000 0.000000
# 2 -0.000763 0.015873 -0.003288 0.000000 0.000000 0.000000
# 3 -0.003288 -0.003288 0.007727 0.000000 0.000000 0.000000
# 4 0.000000 0.000000 0.000000 -0.080467 0.000000 0.000000
# 5 0.000000 0.000000 0.000000 0.000000 -0.080467 0.000000
# 6 0.000000 0.000000 0.000000 0.000000 0.000000 0.033273
#
#
# Mechanical properties :
#
#
# Convention : Reuss Voigt Hill
#
# Bulk Modulus (GPa) = 40.32927 51.05439 45.69183
# Shear Modulus (GPa) = -76.63664 15.73818 -30.44923
#
# Velocity S-wave (km/s) = -5.93626 2.69012 -3.74182
# Velocity P-wave (km/s) = 5.33304 5.75543 1.53030
#
# Compressibility (1/GPa) = 0.02479589
#
# Stress axis : x y z
#
# Youngs Moduli (GPa) = 62.99912 62.99912 129.40997
#
# Poissons Ratio (x) = 0.04809 0.42548
# Poissons Ratio (y) = 0.04809 0.42548
# Poissons Ratio (z) = 0.20713 0.20713
#
# Static dielectric constant tensor:
#      x y z
#    x 1.846770 0.000000 0.000000 
#    y 0.000000 1.846770 0.000000 
#    z 0.000000 0.000000 1.836320 
# 
# From -- ./inp_files/2819.got.cif
#   From: 2010.05.17/outbox.cif.g08.bks.cpg/sg190_2_cif.got.tgz:2819.got - 2010.05.20 12:16:56.
