data_PCOD9586794
_publ_section_title
;
Structure prediction by ZEFSAII (Michael W. Deem and Ramdas Pophale) SiO2 
 PCOD9586794
Probable space group: P -6 2 C
;
_chemical_formula_sum "Si O2"
_cell_formula_units_Z 48
_cell_length_a 18.303771
_cell_length_b 18.303771
_cell_length_c 10.170319
_cell_angle_alpha 90.000000
_cell_angle_beta 90.000000
_cell_angle_gamma 120.000000
_cell_volume 2950.844703
_symmetry_space_group_name_H-M "P -6 2 C"
_symmetry_group_IT_number 190
_symmetry_cell_setting 'hexagonal'
loop_
_space_group_symop_operation_xyz
x,y,z
-x+y,-x,1/2-z
-y,x-y,z
x,y,1/2-z
-x+y,-x,z
-y,x-y,1/2-z
x-y,-y,-z
-x,-x+y,-z
y,x,-z
y,x,1/2+z
x-y,-y,1/2+z
-x,-x+y,1/2+z
loop_
_atom_site_type_symbol
_atom_site_label
_atom_site_fract_x
_atom_site_fract_y
_atom_site_fract_z
Si Si1 0.799649 0.000000 0.500000
Si Si2 0.080228 0.422429 0.405269
Si Si3 0.491708 0.412575 0.596489
Si Si4 0.991138 0.899648 0.250000
Si Si5 0.778322 0.153178 0.593399
O O1 0.847022 0.988621 0.624042
O O2 0.788921 0.081332 0.520971
O O3 0.057957 0.402666 0.250000
O O4 0.113387 0.522333 0.420566
O O5 0.149798 0.397143 0.439505
O O6 0.000000 0.374584 0.500000
O O7 0.472278 0.419554 0.750000
O O8 0.444608 0.444608 0.500000
O O9 0.454748 0.314266 0.569255
O O10 0.917930 0.924961 0.250000
O O11 0.784298 0.140991 0.750000
#
# Coordination Sequence:
#
# PCOD9586794 Si02
#       5
#     6  12  12   6  12
#     4  12  20  38  58  80 106 146 190 232 276 322
#     4   9  19  36  54  78 107 140 174 217 270 317
#     4   9  17  33  56  75 105 136 168 212 263 314
#     4  10  24  40  54  74 108 150 186 232 286 322
#     4  10  20  35  55  84 110 137 182 226 265 326
#
# _framework density 16.266528999999998
#
# number of rings (size 3 to 8) (size 9 to 14) (size 15 to 20)
#    0.250    2.000    2.500    0.750    0.000    2.000 
#    3.750    0.000    0.000    0.000    0.000    0.000 
#    0.000    0.000    0.000    0.000    0.000    0.000 
#
# Total GULP energy -267401.195329 kJ/mol
# GULP energy per Si atom -5570.858236 kJ/mol
# Density = 1.622951 g / cm^3
# Si number density = 16.266529 Si / 1000 Ang^3
#
#
#
# Elastic Constant Matrix: (Units=GPa)
#
#
# Indices 1 2 3 4 5 6 
#
# 1 136.9592 92.0863 60.2437 0.0000 0.0000 0.0000
# 2 92.0863 136.9592 60.2437 0.0000 0.0000 0.0000
# 3 60.2437 60.2437 74.9655 0.0000 0.0000 0.0000
# 4 0.0000 0.0000 0.0000 22.4879 0.0000 0.0000
# 5 0.0000 0.0000 0.0000 0.0000 22.4879 0.0000
# 6 0.0000 0.0000 0.0000 0.0000 0.0000 22.4364
#
#
#
# Elastic Compliance Matrix: (Units=1/GPa)
#
#
# Indices 1 2 3 4 5 6 
#
# 1 0.014924 -0.007361 -0.006078 0.000000 0.000000 0.000000
# 2 -0.007361 0.014924 -0.006078 0.000000 0.000000 0.000000
# 3 -0.006078 -0.006078 0.023108 0.000000 0.000000 0.000000
# 4 0.000000 0.000000 0.000000 0.044468 0.000000 0.000000
# 5 0.000000 0.000000 0.000000 0.000000 0.044468 0.000000
# 6 0.000000 0.000000 0.000000 0.000000 0.000000 0.044570
#
#
# Mechanical properties :
#
#
# Convention : Reuss Voigt Hill
#
# Bulk Modulus (GPa) = 71.82450 86.00349 78.91399
# Shear Modulus (GPa) = 21.72605 22.56976 22.14790
#
# Velocity S-wave (km/s) = 3.65859 3.72895 3.69394
# Velocity P-wave (km/s) = 7.88021 8.45732 8.17386
#
# Compressibility (1/GPa) = 0.01392283
#
# Stress axis : x y z
#
# Youngs Moduli (GPa) = 67.00529 67.00529 43.27476
#
# Poissons Ratio (x) = 0.49323 0.26302
# Poissons Ratio (y) = 0.49323 0.26302
# Poissons Ratio (z) = 0.40725 0.40725
#
# Static dielectric constant tensor:
#      x y z
#    x 1.535420 0.000000 0.000000 
#    y 0.000000 1.535420 0.000000 
#    z 0.000000 0.000000 1.554470 
# 
# From -- ./inp_files/702.got.cif
#   From: 2010.05.17/outbox.cif.g08.bks.cpg/sg190_1_cif.got.tgz:702.got - 2010.05.20 12:16:56.
