data_PCOD9586219
_publ_section_title
;
Structure prediction by ZEFSAII (Michael W. Deem and Ramdas Pophale) SiO2 
 PCOD9586219
Probable space group: P -6 2 M
;
_chemical_formula_sum "Si O2"
_cell_formula_units_Z 84
_cell_length_a 19.932759
_cell_length_b 19.932759
_cell_length_c 14.690844
_cell_angle_alpha 90.000000
_cell_angle_beta 90.000000
_cell_angle_gamma 120.000000
_cell_volume 5054.895834
_symmetry_space_group_name_H-M "P -6 2 M"
_symmetry_group_IT_number 189
_symmetry_cell_setting 'hexagonal'
loop_
_space_group_symop_operation_xyz
x,y,z
-x+y,-x,-z
-y,x-y,z
x,y,-z
-x+y,-x,z
-y,x-y,-z
x-y,-y,-z
-x,-x+y,-z
y,x,-z
y,x,z
x-y,-y,z
-x,-x+y,z
loop_
_atom_site_type_symbol
_atom_site_label
_atom_site_fract_x
_atom_site_fract_y
_atom_site_fract_z
Si Si1 0.558138 0.091882 0.250000
Si Si2 0.837800 0.531948 0.392547
Si Si3 0.204142 0.909285 0.250003
Si Si4 0.531963 0.837812 0.107454
Si Si5 0.804554 0.088511 0.893525
Si Si6 0.911489 0.716031 0.393526
Si Si7 0.718251 0.520567 0.249996
O O1 0.613976 0.114823 0.338290
O O2 0.613979 0.114814 0.161714
O O3 0.522215 0.148312 0.249992
O O4 0.496746 0.000000 0.250003
O O5 0.827704 0.513455 0.500000
O O6 0.885004 0.625355 0.382526
O O7 0.757466 0.504199 0.337763
O O8 0.147604 0.878250 0.163521
O O9 0.147600 0.878241 0.336481
O O10 0.251800 0.863861 0.250001
O O11 0.259276 0.000000 0.250009
O O12 0.625369 0.885013 0.117478
O O13 0.504208 0.757474 0.162231
O O14 0.513472 0.827721 0.000000
O O15 0.767444 0.000000 0.863097
O O16 0.822430 0.092939 0.000000
O O17 0.907066 0.729484 0.500000
O O18 0.000000 0.767424 0.363093
#
# Coordination Sequence:
#
# PCOD9586219 Si02
#       7
#    12  12  12  12  12  12  12
#     4  11  21  33  54  82 109 135 172 223 274 318
#     4   9  19  36  55  75 102 135 173 215 260 310
#     4  10  19  31  49  72 100 134 164 195 242 300
#     4   9  19  36  55  75 102 135 173 215 260 310
#     4   9  17  31  53  77  97 121 160 209 253 293
#     4   9  17  31  53  77  97 121 160 209 253 293
#     4   9  20  36  51  72 106 137 173 210 256 306
#
# _framework density 16.617553000000001
#
# number of rings (size 3 to 8) (size 9 to 14) (size 15 to 20)
#    0.000    2.571    0.000    2.571    0.000    3.429 
#    6.857    0.000    0.000    7.429    0.000    0.000 
#    0.000    0.000    0.000    0.000    0.000    0.000 
#
# Total GULP energy -468299.818192 kJ/mol
# GULP energy per Si atom -5574.997836 kJ/mol
# Density = 1.657973 g / cm^3
# Si number density = 16.617553 Si / 1000 Ang^3
#
#
#
# Elastic Constant Matrix: (Units=GPa)
#
#
# Indices 1 2 3 4 5 6 
#
# 1 58.6360 20.9189 33.2130 0.0000 0.0000 0.0000
# 2 20.9189 58.6360 33.2130 0.0000 0.0000 0.0000
# 3 33.2130 33.2130 107.7332 0.0000 0.0000 0.0000
# 4 0.0000 0.0000 0.0000 14.0512 0.0000 0.0000
# 5 0.0000 0.0000 0.0000 0.0000 14.0512 0.0000
# 6 0.0000 0.0000 0.0000 0.0000 0.0000 18.8585
#
#
#
# Elastic Compliance Matrix: (Units=1/GPa)
#
#
# Indices 1 2 3 4 5 6 
#
# 1 0.021720 -0.004793 -0.005218 0.000000 0.000000 0.000000
# 2 -0.004793 0.021720 -0.005218 0.000000 0.000000 0.000000
# 3 -0.005218 -0.005218 0.012500 0.000000 0.000000 0.000000
# 4 0.000000 0.000000 0.000000 0.071168 0.000000 0.000000
# 5 0.000000 0.000000 0.000000 0.000000 0.071168 0.000000
# 6 0.000000 0.000000 0.000000 0.000000 0.000000 0.053026
#
#
# Mechanical properties :
#
#
# Convention : Reuss Voigt Hill
#
# Bulk Modulus (GPa) = 39.24603 44.41055 41.82829
# Shear Modulus (GPa) = 17.22614 18.56954 17.89784
#
# Velocity S-wave (km/s) = 3.22316 3.34648 3.28540
# Velocity P-wave (km/s) = 6.12537 6.45871 6.29425
#
# Compressibility (1/GPa) = 0.02548029
#
# Stress axis : x y z
#
# Youngs Moduli (GPa) = 46.04012 46.04012 80.00142
#
# Poissons Ratio (x) = 0.22067 0.41748
# Poissons Ratio (y) = 0.22067 0.41748
# Poissons Ratio (z) = 0.24026 0.24026
#
# Static dielectric constant tensor:
#      x y z
#    x 1.541550 0.000000 0.000000 
#    y 0.000000 1.541550 0.000000 
#    z 0.000000 0.000000 1.573620 
# 
# From -- ./inp_files/2803.got.cif
#   From: 2010.05.17/outbox.cif.g08.bks.cpg/sg189_2_cif.got.tgz:2803.got - 2010.05.20 12:14:34.
