data_PCOD9586281
_publ_section_title
;
Structure prediction by ZEFSAII (Michael W. Deem and Ramdas Pophale) SiO2 
 PCOD9586281
Probable space group: P -6 2 M
;
_chemical_formula_sum "Si O2"
_cell_formula_units_Z 66
_cell_length_a 23.201875
_cell_length_b 23.201875
_cell_length_c 7.953390
_cell_angle_alpha 90.000000
_cell_angle_beta 90.000000
_cell_angle_gamma 120.000000
_cell_volume 3707.909076
_symmetry_space_group_name_H-M "P -6 2 M"
_symmetry_group_IT_number 189
_symmetry_cell_setting 'hexagonal'
loop_
_space_group_symop_operation_xyz
x,y,z
-x+y,-x,-z
-y,x-y,z
x,y,-z
-x+y,-x,z
-y,x-y,-z
x-y,-y,-z
-x,-x+y,-z
y,x,-z
y,x,z
x-y,-y,z
-x,-x+y,z
loop_
_atom_site_type_symbol
_atom_site_label
_atom_site_fract_x
_atom_site_fract_y
_atom_site_fract_z
Si Si1 0.239273 0.162804 0.188521
Si Si2 0.807196 0.623720 0.699390
Si Si3 0.561744 0.184514 0.202702
Si Si4 0.479570 0.771069 0.204009
Si Si5 0.077970 0.155524 0.500000
Si Si6 0.416790 0.076100 0.702086
O O1 0.221622 0.221622 0.210242
O O2 0.315949 0.185289 0.211300
O O3 0.199425 0.110274 0.334173
O O4 0.217578 0.135796 0.000000
O O5 0.812203 0.637241 0.500000
O O6 0.805088 0.554486 0.730746
O O7 0.735904 0.613577 0.760831
O O8 0.632438 0.195501 0.261983
O O9 0.553781 0.247357 0.255925
O O10 0.495200 0.117682 0.256101
O O11 0.562993 0.184898 0.000000
O O12 0.481266 0.772537 0.000000
O O13 0.099451 0.099451 0.500000
O O14 0.000000 0.124040 0.500000
O O15 0.411237 0.073516 0.500000
O O16 0.378222 0.000000 0.765268
#
# Coordination Sequence:
#
# PCOD9586281 Si02
#       6
#    12  12  12  12   6  12
#     4  10  21  38  59  83 113 147 183 226 273 320
#     4  10  19  33  53  79 104 138 181 225 273 327
#     4   9  17  30  49  72  98 131 170 214 266 322
#     4   9  17  30  49  73 102 134 174 224 276 328
#     4  10  21  38  60  86 116 146 178 216 264 320
#     4   9  19  34  50  70 102 138 169 211 266 318
#
# _framework density 17.799787999999999
#
# number of rings (size 3 to 8) (size 9 to 14) (size 15 to 20)
#    0.000    2.545    0.909    1.000    0.000    4.364 
#    0.000    0.909    0.000    4.364    0.000    0.000 
#    0.000    0.000    0.000    0.000    0.000    0.000 
#
# Total GULP energy -368036.828372 kJ/mol
# GULP energy per Si atom -5576.315581 kJ/mol
# Density = 1.775928 g / cm^3
# Si number density = 17.799788 Si / 1000 Ang^3
#
#
#
# Elastic Constant Matrix: (Units=GPa)
#
#
# Indices 1 2 3 4 5 6 
#
# 1 120.3216 98.1323 35.5891 0.0000 0.0000 0.0000
# 2 98.1323 120.3216 35.5891 0.0000 0.0000 0.0000
# 3 35.5891 35.5891 59.7655 0.0000 0.0000 0.0000
# 4 0.0000 0.0000 0.0000 -2.2345 0.0000 0.0000
# 5 0.0000 0.0000 0.0000 0.0000 -2.2345 0.0000
# 6 0.0000 0.0000 0.0000 0.0000 0.0000 11.0947
#
#
#
# Elastic Compliance Matrix: (Units=1/GPa)
#
#
# Indices 1 2 3 4 5 6 
#
# 1 0.025373 -0.019694 -0.003382 0.000000 0.000000 0.000000
# 2 -0.019694 0.025373 -0.003382 0.000000 0.000000 0.000000
# 3 -0.003382 -0.003382 0.020760 0.000000 0.000000 0.000000
# 4 0.000000 0.000000 0.000000 -0.447537 0.000000 0.000000
# 5 0.000000 0.000000 0.000000 0.000000 -0.447537 0.000000
# 6 0.000000 0.000000 0.000000 0.000000 0.000000 0.090133
#
#
# Mechanical properties :
#
#
# Convention : Reuss Voigt Hill
#
# Bulk Modulus (GPa) = 53.78991 71.00329 62.39660
# Shear Modulus (GPa) = -7.41486 10.06504 1.32509
#
# Velocity S-wave (km/s) = -2.04322 2.38052 0.86375
# Velocity P-wave (km/s) = 4.97179 6.89437 6.01045
#
# Compressibility (1/GPa) = 0.01859085
#
# Stress axis : x y z
#
# Youngs Moduli (GPa) = 39.41175 39.41175 48.16964
#
# Poissons Ratio (x) = 0.77616 0.16291
# Poissons Ratio (y) = 0.77616 0.16291
# Poissons Ratio (z) = 0.13329 0.13329
#
# Static dielectric constant tensor:
#      x y z
#    x 1.591100 0.000000 0.000000 
#    y 0.000000 1.591100 0.000000 
#    z 0.000000 0.000000 1.637630 
# 
# From -- ./inp_files/1018.got.cif
#   From: 2010.05.17/outbox.cif.g08.bks.cpg/sg189_1_cif.got.tgz:1018.got - 2010.05.20 12:14:34.
