data_PCOD9586740
_publ_section_title
;
Structure prediction by ZEFSAII (Michael W. Deem and Ramdas Pophale) SiO2 
 PCOD9586740
Probable space group: P -6 2 C
;
_chemical_formula_sum "Si O2"
_cell_formula_units_Z 76
_cell_length_a 17.953058
_cell_length_b 17.953058
_cell_length_c 14.949431
_cell_angle_alpha 90.000000
_cell_angle_beta 90.000000
_cell_angle_gamma 120.000000
_cell_volume 4172.844130
_symmetry_space_group_name_H-M "P -6 2 C"
_symmetry_group_IT_number 190
_symmetry_cell_setting 'hexagonal'
loop_
_space_group_symop_operation_xyz
x,y,z
-x+y,-x,1/2-z
-y,x-y,z
x,y,1/2-z
-x+y,-x,z
-y,x-y,1/2-z
x-y,-y,-z
-x,-x+y,-z
y,x,-z
y,x,1/2+z
x-y,-y,1/2+z
-x,-x+y,1/2+z
loop_
_atom_site_type_symbol
_atom_site_label
_atom_site_fract_x
_atom_site_fract_y
_atom_site_fract_z
Si Si1 0.666667 0.333335 0.856589
Si Si2 0.139119 0.603484 0.356733
Si Si3 0.002208 0.232043 0.392019
Si Si4 0.164063 0.241084 0.149186
Si Si5 0.834026 0.594464 0.526030
Si Si6 0.343053 0.923864 0.073313
Si Si7 0.885868 0.691672 0.149301
O O1 0.666667 0.333334 0.750000
O O2 0.626544 0.235512 0.881790
O O3 0.134056 0.619169 0.250000
O O4 0.130303 0.670844 0.420703
O O5 0.083918 0.502377 0.378149
O O6 0.060778 0.193137 0.357971
O O7 0.046795 0.333310 0.367701
O O8 0.000000 0.226848 0.500000
O O9 0.905574 0.185201 0.358456
O O10 0.186159 0.276892 0.250000
O O11 0.193519 0.314550 0.076075
O O12 0.220310 0.196169 0.132086
O O13 0.731277 0.561258 0.535331
O O14 0.864497 0.618210 0.423863
O O15 0.387753 0.000000 0.000000
O O16 0.888870 0.662972 0.250000
#
# Coordination Sequence:
#
# PCOD9586740 Si02
#       7
#     4  12  12  12  12  12  12
#     4   9  18  33  54  90 121 146 178 222 306 384
#     4  11  22  36  62  95 123 151 189 251 319 375
#     4  10  19  37  60  87 121 160 204 251 313 363
#     4  10  21  35  57  84 115 156 202 250 301 360
#     4  11  21  38  59  84 124 160 199 252 310 369
#     4  10  20  37  57  87 122 162 205 239 304 377
#     4  11  22  38  60  84 117 168 213 249 303 366
#
# _framework density 18.212999
#
# number of rings (size 3 to 8) (size 9 to 14) (size 15 to 20)
#    0.000    1.579    6.316    1.421    0.000    4.421 
#    0.947    0.000    0.000    0.947    0.000    0.000 
#    0.000    0.000    0.000    0.000    0.000    0.000 
#
# Total GULP energy -423072.093410 kJ/mol
# GULP energy per Si atom -5566.738071 kJ/mol
# Density = 1.817155 g / cm^3
# Si number density = 18.212999 Si / 1000 Ang^3
#
#
#
# Elastic Constant Matrix: (Units=GPa)
#
#
# Indices 1 2 3 4 5 6 
#
# 1 76.5524 17.0056 35.1753 -0.0001 0.0002 0.0004
# 2 17.0056 76.5507 35.1751 0.0001 0.0000 -0.0006
# 3 35.1753 35.1751 106.9022 0.0000 0.0000 0.0000
# 4 -0.0001 0.0001 0.0000 21.6099 0.0000 0.0001
# 5 0.0002 0.0000 0.0000 0.0000 21.6100 0.0001
# 6 0.0004 -0.0006 0.0000 0.0001 0.0001 29.7721
#
#
#
# Elastic Compliance Matrix: (Units=1/GPa)
#
#
# Indices 1 2 3 4 5 6 
#
# 1 0.015498 -0.001296 -0.004673 0.000000 0.000000 0.000000
# 2 -0.001296 0.015498 -0.004673 0.000000 0.000000 0.000000
# 3 -0.004673 -0.004673 0.012430 0.000000 0.000000 0.000000
# 4 0.000000 0.000000 0.000000 0.046275 0.000000 0.000000
# 5 0.000000 0.000000 0.000000 0.000000 0.046275 0.000000
# 6 0.000000 0.000000 0.000000 0.000000 0.000000 0.033589
#
#
# Mechanical properties :
#
#
# Convention : Reuss Voigt Hill
#
# Bulk Modulus (GPa) = 45.16283 48.30190 46.73237
# Shear Modulus (GPa) = 25.22327 26.10834 25.66580
#
# Velocity S-wave (km/s) = 3.72547 3.79027 3.75801
# Velocity P-wave (km/s) = 6.58455 6.76262 6.67418
#
# Compressibility (1/GPa) = 0.02214210
#
# Stress axis : x y z
#
# Youngs Moduli (GPa) = 64.52420 64.52268 80.45215
#
# Poissons Ratio (x) = 0.08359 0.37597
# Poissons Ratio (y) = 0.08359 0.37598
# Poissons Ratio (z) = 0.30154 0.30154
#
# Static dielectric constant tensor:
#      x y z
#    x 1.609970 0.000010 0.000000 
#    y 0.000010 1.609980 0.000000 
#    z 0.000000 0.000000 1.638540 
# 
# From -- ./inp_files/3106.got.cif
#   From: 2010.05.17/outbox.cif.g08.bks.cpg/sg190_2_cif.got.tgz:3106.got - 2010.05.20 12:16:56.
