data_PCOD9586304
_publ_section_title
;
Structure prediction by ZEFSAII (Michael W. Deem and Ramdas Pophale) SiO2 
 PCOD9586304
Probable space group: P -6 2 M
;
_chemical_formula_sum "Si O2"
_cell_formula_units_Z 72
_cell_length_a 23.573275
_cell_length_b 23.573275
_cell_length_c 8.292094
_cell_angle_alpha 90.000000
_cell_angle_beta 90.000000
_cell_angle_gamma 120.000000
_cell_volume 3990.567797
_symmetry_space_group_name_H-M "P -6 2 M"
_symmetry_group_IT_number 189
_symmetry_cell_setting 'hexagonal'
loop_
_space_group_symop_operation_xyz
x,y,z
-x+y,-x,-z
-y,x-y,z
x,y,-z
-x+y,-x,z
-y,x-y,-z
x-y,-y,-z
-x,-x+y,-z
y,x,-z
y,x,z
x-y,-y,z
-x,-x+y,z
loop_
_atom_site_type_symbol
_atom_site_label
_atom_site_fract_x
_atom_site_fract_y
_atom_site_fract_z
Si Si1 0.385309 0.570092 0.811606
Si Si2 0.927285 0.853266 0.191905
Si Si3 0.928033 0.199678 0.309115
Si Si4 0.713176 0.466521 0.310116
Si Si5 0.351658 0.427444 0.305021
Si Si6 0.178607 0.791989 0.695045
O O1 0.315743 0.566653 0.781762
O O2 0.438468 0.637889 0.732039
O O3 0.380061 0.503433 0.743138
O O4 0.398239 0.572502 0.000000
O O5 0.912576 0.912576 0.211934
O O6 0.870811 0.792301 0.284447
O O7 0.000000 0.874777 0.245068
O O8 0.921137 0.838353 0.000000
O O9 0.929564 0.213349 0.500000
O O10 0.861527 0.192535 0.239437
O O11 0.000000 0.252178 0.241841
O O12 0.719291 0.456927 0.500000
O O13 0.758177 0.543183 0.273634
O O14 0.350921 0.425411 0.500000
O O15 0.393197 0.393197 0.249387
O O16 0.275367 0.390167 0.248432
O O17 0.171312 0.792828 0.500000
#
# Coordination Sequence:
#
# PCOD9586304 Si02
#       6
#    12  12  12  12  12  12
#     4  11  21  33  51  78 109 134 160 203 261 310
#     4   9  17  29  44  62  86 118 154 190 230 279
#     4   9  17  30  48  70  95 121 152 195 244 286
#     4  10  19  34  54  74  98 132 172 205 236 287
#     4   9  18  34  54  73  96 133 178 215 249 299
#     4   8  16  31  51  73  96 126 166 207 242 282
#
# _framework density 18.042546000000002
#
# number of rings (size 3 to 8) (size 9 to 14) (size 15 to 20)
#    0.000    2.667    0.000    3.500    0.000    2.000 
#    0.000    6.667    0.000    4.000    0.000    0.000 
#    0.000    0.000    0.000    0.000    0.000    0.000 
#
# Total GULP energy -401099.076539 kJ/mol
# GULP energy per Si atom -5570.820507 kJ/mol
# Density = 1.800148 g / cm^3
# Si number density = 18.042546 Si / 1000 Ang^3
#
#
#
# Elastic Constant Matrix: (Units=GPa)
#
#
# Indices 1 2 3 4 5 6 
#
# 1 85.4016 55.1948 -0.4011 0.0000 0.0000 0.0000
# 2 55.1948 85.4016 -0.4011 0.0000 0.0000 0.0000
# 3 -0.4011 -0.4011 9.8958 0.0000 0.0000 0.0000
# 4 0.0000 0.0000 0.0000 -21.9036 0.0000 0.0000
# 5 0.0000 0.0000 0.0000 0.0000 -21.9036 0.0000
# 6 0.0000 0.0000 0.0000 0.0000 0.0000 15.1034
#
#
#
# Elastic Compliance Matrix: (Units=1/GPa)
#
#
# Indices 1 2 3 4 5 6 
#
# 1 0.020110 -0.012995 0.000288 0.000000 0.000000 0.000000
# 2 -0.012995 0.020110 0.000288 0.000000 0.000000 0.000000
# 3 0.000288 0.000288 0.101077 0.000000 0.000000 0.000000
# 4 0.000000 0.000000 0.000000 -0.045655 0.000000 0.000000
# 5 0.000000 0.000000 0.000000 0.000000 -0.045655 0.000000
# 6 0.000000 0.000000 0.000000 0.000000 0.000000 0.066210
#
#
# Mechanical properties :
#
#
# Convention : Reuss Voigt Hill
#
# Bulk Modulus (GPa) = 8.58676 32.16491 20.37584
# Shear Modulus (GPa) = 27.80033 2.67965 15.23999
#
# Velocity S-wave (km/s) = 3.92959 1.22000 2.90947
# Velocity P-wave (km/s) = 5.03571 4.45539 4.75441
#
# Compressibility (1/GPa) = 0.11645835
#
# Stress axis : x y z
#
# Youngs Moduli (GPa) = 49.72741 49.72741 9.89349
#
# Poissons Ratio (x) = 0.64623 -0.00285
# Poissons Ratio (y) = 0.64623 -0.00285
# Poissons Ratio (z) = -0.01434 -0.01434
#
# Static dielectric constant tensor:
#      x y z
#    x 1.625320 0.000000 0.000000 
#    y 0.000000 1.625320 0.000000 
#    z 0.000000 0.000000 1.626420 
# 
# From -- ./inp_files/1260.got.cif
#   From: 2010.05.17/outbox.cif.g08.bks.cpg/sg189_1_cif.got.tgz:1260.got - 2010.05.20 12:14:34.
