data_PCOD9586282
_publ_section_title
;
Structure prediction by ZEFSAII (Michael W. Deem and Ramdas Pophale) SiO2 
 PCOD9586282
Probable space group: P -6 2 M
;
_chemical_formula_sum "Si O2"
_cell_formula_units_Z 60
_cell_length_a 21.394614
_cell_length_b 21.394614
_cell_length_c 8.030988
_cell_angle_alpha 90.000000
_cell_angle_beta 90.000000
_cell_angle_gamma 120.000000
_cell_volume 3183.526867
_symmetry_space_group_name_H-M "P -6 2 M"
_symmetry_group_IT_number 189
_symmetry_cell_setting 'hexagonal'
loop_
_space_group_symop_operation_xyz
x,y,z
-x+y,-x,-z
-y,x-y,z
x,y,-z
-x+y,-x,z
-y,x-y,-z
x-y,-y,-z
-x,-x+y,-z
y,x,-z
y,x,z
x-y,-y,z
-x,-x+y,z
loop_
_atom_site_type_symbol
_atom_site_label
_atom_site_fract_x
_atom_site_fract_y
_atom_site_fract_z
Si Si1 0.082130 0.700061 0.703529
Si Si2 0.821312 0.455445 0.692474
Si Si3 0.852615 0.212417 0.701501
Si Si4 0.000000 0.220703 0.704447
Si Si5 0.698214 0.480584 0.190475
Si Si6 0.921490 0.921490 0.702104
O O1 0.082044 0.699582 0.500000
O O2 0.118454 0.652693 0.756248
O O3 0.137109 0.782420 0.754315
O O4 0.000000 0.666409 0.759574
O O5 0.837104 0.449673 0.500000
O O6 0.813462 0.386072 0.783658
O O7 0.746164 0.456066 0.703958
O O8 0.852684 0.213660 0.500000
O O9 0.927447 0.219722 0.757468
O O10 0.838422 0.275516 0.762537
O O11 0.000000 0.219922 0.500000
O O12 0.000000 0.148785 0.763049
O O13 0.717528 0.477672 0.000000
O O14 0.918253 0.918253 0.500000
O O15 0.000000 0.932244 0.749151
#
# Coordination Sequence:
#
# PCOD9586282 Si02
#       6
#    12  12  12   6  12   6
#     4   8  15  29  49  74  98 124 164 211 255 298
#     4  10  19  33  54  76 102 131 168 212 257 305
#     4   9  18  32  50  72 101 136 177 217 255 306
#     4   9  16  28  47  71 101 142 181 212 255 317
#     4  11  21  34  51  74 104 135 172 211 259 309
#     4   7  12  22  38  69 111 138 159 208 275 321
#
# _framework density 18.847023
#
# number of rings (size 3 to 8) (size 9 to 14) (size 15 to 20)
#    0.200    2.600    0.000    4.000    0.000    0.800 
#    1.800    4.500    0.000   14.400    0.000    0.000 
#    0.000    2.400    0.000    0.000    0.000    0.000 
#
# Total GULP energy -334451.491541 kJ/mol
# GULP energy per Si atom -5574.191526 kJ/mol
# Density = 1.880413 g / cm^3
# Si number density = 18.847023 Si / 1000 Ang^3
#
#
#
# Elastic Constant Matrix: (Units=GPa)
#
#
# Indices 1 2 3 4 5 6 
#
# 1 138.7990 101.0570 1.8335 0.0000 0.0000 0.0000
# 2 101.0570 138.7990 1.8335 0.0000 0.0000 0.0000
# 3 1.8335 1.8335 20.8942 0.0000 0.0000 0.0000
# 4 0.0000 0.0000 0.0000 -18.3319 0.0000 0.0000
# 5 0.0000 0.0000 0.0000 0.0000 -18.3319 0.0000
# 6 0.0000 0.0000 0.0000 0.0000 0.0000 18.8710
#
#
#
# Elastic Compliance Matrix: (Units=1/GPa)
#
#
# Indices 1 2 3 4 5 6 
#
# 1 0.015335 -0.011160 -0.000366 0.000000 0.000000 0.000000
# 2 -0.011160 0.015335 -0.000366 0.000000 0.000000 0.000000
# 3 -0.000366 -0.000366 0.047925 0.000000 0.000000 0.000000
# 4 0.000000 0.000000 0.000000 -0.054550 0.000000 0.000000
# 5 0.000000 0.000000 0.000000 0.000000 -0.054550 0.000000
# 6 0.000000 0.000000 0.000000 0.000000 0.000000 0.052991
#
#
# Mechanical properties :
#
#
# Convention : Reuss Voigt Hill
#
# Bulk Modulus (GPa) = 18.24528 56.43780 37.34154
# Shear Modulus (GPa) = 77.46783 9.35931 43.41357
#
# Velocity S-wave (km/s) = 6.41816 2.23085 4.80466
# Velocity P-wave (km/s) = 8.03899 6.05358 7.11587
#
# Compressibility (1/GPa) = 0.05480868
#
# Stress axis : x y z
#
# Youngs Moduli (GPa) = 65.20933 65.20933 20.86614
#
# Poissons Ratio (x) = 0.72777 0.00764
# Poissons Ratio (y) = 0.72777 0.00764
# Poissons Ratio (z) = 0.02389 0.02389
#
# Static dielectric constant tensor:
#      x y z
#    x 1.636500 0.000000 0.000000 
#    y 0.000000 1.636500 0.000000 
#    z 0.000000 0.000000 1.645370 
# 
# From -- ./inp_files/972.got.cif
#   From: 2010.05.17/outbox.cif.g08.bks.cpg/sg189_1_cif.got.tgz:972.got - 2010.05.20 12:14:34.
