data_PCOD9586444
_publ_section_title
;
Structure prediction by ZEFSAII (Michael W. Deem and Ramdas Pophale) SiO2 
 PCOD9586444
Probable space group: P -6 2 M
;
_chemical_formula_sum "Si O2"
_cell_formula_units_Z 39
_cell_length_a 17.654733
_cell_length_b 17.654733
_cell_length_c 7.215640
_cell_angle_alpha 90.000000
_cell_angle_beta 90.000000
_cell_angle_gamma 120.000000
_cell_volume 1947.725710
_symmetry_space_group_name_H-M "P -6 2 M"
_symmetry_group_IT_number 189
_symmetry_cell_setting 'hexagonal'
loop_
_space_group_symop_operation_xyz
x,y,z
-x+y,-x,-z
-y,x-y,z
x,y,-z
-x+y,-x,z
-y,x-y,-z
x-y,-y,-z
-x,-x+y,-z
y,x,-z
y,x,z
x-y,-y,z
-x,-x+y,z
loop_
_atom_site_type_symbol
_atom_site_label
_atom_site_fract_x
_atom_site_fract_y
_atom_site_fract_z
Si Si1 0.813692 0.531727 0.276341
Si Si2 0.461483 0.620055 0.276726
Si Si3 0.219162 0.000000 0.000000
Si Si4 0.105063 0.797652 0.000000
Si Si5 0.352792 0.000000 0.278562
O O1 0.820281 0.545527 0.500000
O O2 0.711188 0.466977 0.229062
O O3 0.855928 0.473116 0.216862
O O4 0.854255 0.624301 0.172774
O O5 0.456154 0.614928 0.500000
O O6 0.556248 0.638662 0.221874
O O7 0.135423 0.901339 0.000000
O O8 0.273429 0.000000 0.821398
O O9 0.000000 0.740169 0.000000
O O10 0.343892 0.000000 0.500000
#
# Coordination Sequence:
#
# PCOD9586444 Si02
#       5
#    12  12   3   6   6
#     4  10  21  39  61  91 133 169 200 241 288 351
#     4   9  18  34  59  88 122 165 200 230 279 347
#     4  12  24  46  68  82 114 156 204 270 328 376
#     4  12  28  43  63  92 115 153 211 266 328 380
#     4  10  20  36  62  92 115 157 209 241 290 364
#
# _framework density 20.023354999999999
#
# number of rings (size 3 to 8) (size 9 to 14) (size 15 to 20)
#    0.000    1.846    3.077    0.615    2.154    5.538 
#    0.462    0.000    0.000    0.000    0.000    0.000 
#    0.000    0.000    0.000    0.000    0.000    0.000 
#
# Total GULP energy -217461.098928 kJ/mol
# GULP energy per Si atom -5575.925614 kJ/mol
# Density = 1.997778 g / cm^3
# Si number density = 20.023355 Si / 1000 Ang^3
#
#
#
# Elastic Constant Matrix: (Units=GPa)
#
#
# Indices 1 2 3 4 5 6 
#
# 1 83.1727 38.8939 19.8781 0.0000 0.0000 0.0000
# 2 38.8939 83.1727 19.8781 0.0000 0.0000 0.0000
# 3 19.8781 19.8781 111.6815 0.0000 0.0000 0.0000
# 4 0.0000 0.0000 0.0000 13.3042 0.0000 0.0000
# 5 0.0000 0.0000 0.0000 0.0000 13.3042 0.0000
# 6 0.0000 0.0000 0.0000 0.0000 0.0000 22.1394
#
#
#
# Elastic Compliance Matrix: (Units=1/GPa)
#
#
# Indices 1 2 3 4 5 6 
#
# 1 0.015640 -0.006944 -0.001548 0.000000 0.000000 0.000000
# 2 -0.006944 0.015640 -0.001548 0.000000 0.000000 0.000000
# 3 -0.001548 -0.001548 0.009505 0.000000 0.000000 0.000000
# 4 0.000000 0.000000 0.000000 0.075164 0.000000 0.000000
# 5 0.000000 0.000000 0.000000 0.000000 0.075164 0.000000
# 6 0.000000 0.000000 0.000000 0.000000 0.000000 0.045168
#
#
# Mechanical properties :
#
#
# Convention : Reuss Voigt Hill
#
# Bulk Modulus (GPa) = 48.29435 48.36966 48.33201
# Shear Modulus (GPa) = 18.99236 23.04135 21.01686
#
# Velocity S-wave (km/s) = 3.08313 3.39591 3.24329
# Velocity P-wave (km/s) = 6.07006 6.29169 6.18187
#
# Compressibility (1/GPa) = 0.02070635
#
# Stress axis : x y z
#
# Youngs Moduli (GPa) = 63.93751 63.93751 105.20735
#
# Poissons Ratio (x) = 0.44398 0.16285
# Poissons Ratio (y) = 0.44398 0.16285
# Poissons Ratio (z) = 0.09897 0.09897
#
# Static dielectric constant tensor:
#      x y z
#    x 1.773960 0.000000 0.000000 
#    y 0.000000 1.773960 0.000000 
#    z 0.000000 0.000000 1.904060 
# 
# From -- ./inp_files/505.got.cif
#   From: 2010.05.17/outbox.cif.g08.bks.cpg/sg189_1_cif.got.tgz:505.got - 2010.05.20 12:14:34.
