data_PCOD9586346
_publ_section_title
;
Structure prediction by ZEFSAII (Michael W. Deem and Ramdas Pophale) SiO2 
 PCOD9586346
Probable space group: P -6 2 M
;
_chemical_formula_sum "Si O2"
_cell_formula_units_Z 96
_cell_length_a 13.942185
_cell_length_b 13.942185
_cell_length_c 29.300631
_cell_angle_alpha 90.000000
_cell_angle_beta 90.000000
_cell_angle_gamma 120.000000
_cell_volume 4932.524909
_symmetry_space_group_name_H-M "P -6 2 M"
_symmetry_group_IT_number 189
_symmetry_cell_setting 'hexagonal'
loop_
_space_group_symop_operation_xyz
x,y,z
-x+y,-x,-z
-y,x-y,z
x,y,-z
-x+y,-x,z
-y,x-y,-z
x-y,-y,-z
-x,-x+y,-z
y,x,-z
y,x,z
x-y,-y,z
-x,-x+y,z
loop_
_atom_site_type_symbol
_atom_site_label
_atom_site_fract_x
_atom_site_fract_y
_atom_site_fract_z
Si Si1 0.672121 0.800274 0.772400
Si Si2 0.440110 0.570830 0.125760
Si Si3 0.693149 0.128366 0.699913
Si Si4 0.300731 0.430189 0.050769
Si Si5 0.800054 0.671967 0.874720
Si Si6 0.547324 0.867467 0.403343
Si Si7 0.468947 0.127588 0.446505
Si Si8 0.571086 0.440651 0.223551
O O1 0.765510 0.765510 0.766344
O O2 0.657504 0.864268 0.730262
O O3 0.684920 0.849358 0.823611
O O4 0.554732 0.685315 0.773093
O O5 0.479671 0.479671 0.127295
O O6 0.362018 0.539956 0.082114
O O7 0.553676 0.685977 0.123889
O O8 0.385208 0.564372 0.174728
O O9 0.718388 0.172031 0.648762
O O10 0.636722 0.178667 0.732821
O O11 0.603691 0.000000 0.692618
O O12 0.387316 0.387316 0.044835
O O13 0.203354 0.339323 0.082554
O O14 0.265737 0.444426 0.000000
O O15 0.764709 0.764709 0.879921
O O16 0.428646 0.852953 0.417435
O O17 0.567562 0.784066 0.433989
O O18 0.635218 0.000000 0.408416
O O19 0.499408 0.138227 0.500000
O O20 0.374771 0.000000 0.438399
O O21 0.478248 0.478248 0.222189
#
# Coordination Sequence:
#
# PCOD9586346 Si02
#       8
#    12  12  12  12  12  12  12  12
#     4   9  18  32  51  73 100 135 171 208 251 302
#     4   8  15  30  49  66  89 121 158 199 241 293
#     4  10  20  32  49  77 109 140 173 205 254 310
#     4  10  20  32  48  70  94 123 159 202 256 311
#     4   9  18  33  52  73  95 126 168 207 249 302
#     4  10  22  37  56  86 121 153 192 242 288 340
#     4  10  21  38  61  85 111 152 198 239 291 344
#     4   8  15  29  47  67  94 127 161 199 242 293
#
# _framework density 19.462647
#
# number of rings (size 3 to 8) (size 9 to 14) (size 15 to 20)
#    0.000    2.750    0.000    2.875    1.750    3.500 
#    1.500    1.250    0.000    0.750    0.000    0.000 
#    0.000    0.000    0.000    0.000    0.000    0.000 
#
# Total GULP energy -534738.115937 kJ/mol
# GULP energy per Si atom -5570.188708 kJ/mol
# Density = 1.941835 g / cm^3
# Si number density = 19.462647 Si / 1000 Ang^3
#
#
#
# Elastic Constant Matrix: (Units=GPa)
#
#
# Indices 1 2 3 4 5 6 
#
# 1 53.1725 6.5983 21.1327 0.0000 0.0000 0.0000
# 2 6.5983 53.1725 21.1327 0.0000 0.0000 0.0000
# 3 21.1327 21.1327 121.6061 0.0000 0.0000 0.0000
# 4 0.0000 0.0000 0.0000 19.4485 0.0000 0.0000
# 5 0.0000 0.0000 0.0000 0.0000 19.4485 0.0000
# 6 0.0000 0.0000 0.0000 0.0000 0.0000 23.2871
#
#
#
# Elastic Compliance Matrix: (Units=1/GPa)
#
#
# Indices 1 2 3 4 5 6 
#
# 1 0.020273 -0.001198 -0.003315 0.000000 0.000000 0.000000
# 2 -0.001198 0.020273 -0.003315 0.000000 0.000000 0.000000
# 3 -0.003315 -0.003315 0.009375 0.000000 0.000000 0.000000
# 4 0.000000 0.000000 0.000000 0.051418 0.000000 0.000000
# 5 0.000000 0.000000 0.000000 0.000000 0.051418 0.000000
# 6 0.000000 0.000000 0.000000 0.000000 0.000000 0.042942
#
#
# Mechanical properties :
#
#
# Convention : Reuss Voigt Hill
#
# Bulk Modulus (GPa) = 29.18399 36.18648 32.68524
# Shear Modulus (GPa) = 22.44404 24.37599 23.41002
#
# Velocity S-wave (km/s) = 3.39954 3.54284 3.47193
# Velocity P-wave (km/s) = 5.51694 5.94716 5.73609
#
# Compressibility (1/GPa) = 0.03426536
#
# Stress axis : x y z
#
# Youngs Moduli (GPa) = 49.32713 49.32713 106.66264
#
# Poissons Ratio (x) = 0.05911 0.35356
# Poissons Ratio (y) = 0.05911 0.35356
# Poissons Ratio (z) = 0.16351 0.16351
#
# Static dielectric constant tensor:
#      x y z
#    x 1.704350 0.000000 0.000000 
#    y 0.000000 1.704350 0.000000 
#    z 0.000000 0.000000 1.749000 
# 
# From -- ./inp_files/3704.got.cif
#   From: 2010.05.17/outbox.cif.g08.bks.cpg/sg189_2_cif.got.tgz:3704.got - 2010.05.20 12:14:34.
