data_PCOD9586958
_publ_section_title
;
Structure prediction by ZEFSAII (Michael W. Deem and Ramdas Pophale) SiO2 
 PCOD9586958
Probable space group: P -6 2 C
;
_chemical_formula_sum "Si O2"
_cell_formula_units_Z 66
_cell_length_a 21.503569
_cell_length_b 21.503569
_cell_length_c 8.210128
_cell_angle_alpha 90.000000
_cell_angle_beta 90.000000
_cell_angle_gamma 120.000000
_cell_volume 3287.771704
_symmetry_space_group_name_H-M "P -6 2 C"
_symmetry_group_IT_number 190
_symmetry_cell_setting 'hexagonal'
loop_
_space_group_symop_operation_xyz
x,y,z
-x+y,-x,1/2-z
-y,x-y,z
x,y,1/2-z
-x+y,-x,z
-y,x-y,1/2-z
x-y,-y,-z
-x,-x+y,-z
y,x,-z
y,x,1/2+z
x-y,-y,1/2+z
-x,-x+y,1/2+z
loop_
_atom_site_type_symbol
_atom_site_label
_atom_site_fract_x
_atom_site_fract_y
_atom_site_fract_z
Si Si1 0.241848 0.627111 0.750000
Si Si2 0.167184 0.083538 0.444522
Si Si3 0.417565 0.079850 0.442403
Si Si4 0.400163 0.321721 0.556373
Si Si5 0.858353 0.435382 0.939614
Si Si6 0.174089 0.839935 0.053516
O O1 0.299183 0.711227 0.750000
O O2 0.200476 0.608211 0.580973
O O3 0.169298 0.084670 0.250000
O O4 0.127686 0.127686 0.500000
O O5 0.249764 0.120549 0.506819
O O6 0.122054 0.000000 0.500000
O O7 0.432963 0.083176 0.250000
O O8 0.491700 0.104059 0.537512
O O9 0.378017 0.124270 0.481881
O O10 0.363589 0.000000 0.500000
O O11 0.397371 0.315986 0.750000
O O12 0.343402 0.343402 0.500000
O O13 0.480092 0.385992 0.518838
O O14 0.376172 0.242628 0.493581
O O15 0.834662 0.429562 0.750000
O O16 0.179600 0.841857 0.250000
#
# Coordination Sequence:
#
# PCOD9586958 Si02
#       6
#     6  12  12  12  12  12
#     4  10  26  44  66 102 136 172 224 270 338 400
#     4  12  25  44  67  97 131 174 217 271 327 395
#     4  12  25  43  67  98 132 175 225 277 335 400
#     4  10  24  41  65  96 128 171 219 270 332 392
#     4  11  24  44  69  99 134 177 225 279 333 400
#     4  11  24  43  66  97 134 172 221 273 333 396
#
# _framework density 20.074384999999999
#
# number of rings (size 3 to 8) (size 9 to 14) (size 15 to 20)
#    0.182    0.727    0.909    5.636    3.818    5.091 
#    0.000    0.000    0.000    0.000    0.000    0.000 
#    0.000    0.000    0.000    0.000    0.000    0.000 
#
# Total GULP energy -368649.047929 kJ/mol
# GULP energy per Si atom -5585.591635 kJ/mol
# Density = 2.002870 g / cm^3
# Si number density = 20.074385 Si / 1000 Ang^3
#
#
#
# Elastic Constant Matrix: (Units=GPa)
#
#
# Indices 1 2 3 4 5 6 
#
# 1 165.1047 98.8321 23.3113 0.0000 0.0000 0.0000
# 2 98.8321 165.1047 23.3113 0.0000 0.0000 0.0000
# 3 23.3113 23.3113 106.7334 0.0000 0.0000 0.0000
# 4 0.0000 0.0000 0.0000 36.4587 0.0000 0.0000
# 5 0.0000 0.0000 0.0000 0.0000 36.4587 0.0000
# 6 0.0000 0.0000 0.0000 0.0000 0.0000 33.1363
#
#
#
# Elastic Compliance Matrix: (Units=1/GPa)
#
#
# Indices 1 2 3 4 5 6 
#
# 1 0.009515 -0.005574 -0.000861 0.000000 0.000000 0.000000
# 2 -0.005574 0.009515 -0.000861 0.000000 0.000000 0.000000
# 3 -0.000861 -0.000861 0.009745 0.000000 0.000000 0.000000
# 4 0.000000 0.000000 0.000000 0.027428 0.000000 0.000000
# 5 0.000000 0.000000 0.000000 0.000000 0.027428 0.000000
# 6 0.000000 0.000000 0.000000 0.000000 0.000000 0.030178
#
#
# Mechanical properties :
#
#
# Convention : Reuss Voigt Hill
#
# Bulk Modulus (GPa) = 70.50226 80.87247 75.68736
# Shear Modulus (GPa) = 37.55748 40.64328 39.10038
#
# Velocity S-wave (km/s) = 4.33010 4.50447 4.41815
# Velocity P-wave (km/s) = 7.75864 8.21143 7.98824
#
# Compressibility (1/GPa) = 0.01418394
#
# Stress axis : x y z
#
# Youngs Moduli (GPa) = 105.09713 105.09713 102.61565
#
# Poissons Ratio (x) = 0.58583 0.08832
# Poissons Ratio (y) = 0.58583 0.08832
# Poissons Ratio (z) = 0.09046 0.09046
#
# Static dielectric constant tensor:
#      x y z
#    x 1.712240 0.000000 0.000000 
#    y 0.000000 1.712240 0.000000 
#    z 0.000000 0.000000 1.730040 
# 
# From -- ./inp_files/1062.got.cif
#   From: 2010.05.17/outbox.cif.g08.bks.cpg/sg190_1_cif.got.tgz:1062.got - 2010.05.20 12:16:56.
