data_PCOD9586160
_publ_section_title
;
Structure prediction by ZEFSAII (Michael W. Deem and Ramdas Pophale) SiO2 
 PCOD9586160
Probable space group: P -6 2 M
;
_chemical_formula_sum "Si O2"
_cell_formula_units_Z 96
_cell_length_a 17.763864
_cell_length_b 17.763864
_cell_length_c 21.112413
_cell_angle_alpha 90.000000
_cell_angle_beta 90.000000
_cell_angle_gamma 120.000000
_cell_volume 5769.569162
_symmetry_space_group_name_H-M "P -6 2 M"
_symmetry_group_IT_number 189
_symmetry_cell_setting 'hexagonal'
loop_
_space_group_symop_operation_xyz
x,y,z
-x+y,-x,-z
-y,x-y,z
x,y,-z
-x+y,-x,z
-y,x-y,-z
x-y,-y,-z
-x,-x+y,-z
y,x,-z
y,x,z
x-y,-y,z
-x,-x+y,z
loop_
_atom_site_type_symbol
_atom_site_label
_atom_site_fract_x
_atom_site_fract_y
_atom_site_fract_z
Si Si1 0.170279 0.513341 0.717352
Si Si2 0.745117 0.104131 0.571200
Si Si3 0.835412 0.505695 0.684935
Si Si4 0.622978 0.900591 0.809984
Si Si5 0.896117 0.794872 0.359762
Si Si6 0.320365 0.097786 0.755280
Si Si7 0.611964 0.100547 0.929702
Si Si8 0.629666 0.407830 0.851896
O O1 0.267532 0.534612 0.699946
O O2 0.142913 0.571505 0.676179
O O3 0.115172 0.409128 0.720166
O O4 0.171867 0.548761 0.788045
O O5 0.745201 0.135169 0.500000
O O6 0.710086 0.143018 0.624377
O O7 0.840111 0.120526 0.590316
O O8 0.683109 0.000000 0.572938
O O9 0.884010 0.564658 0.746551
O O10 0.652491 0.828721 0.804463
O O11 0.569539 0.892584 0.873569
O O12 0.701251 0.000000 0.806983
O O13 0.852824 0.852824 0.377419
O O14 0.848660 0.742814 0.295757
O O15 0.000000 0.854179 0.351336
O O16 0.271494 0.000000 0.781156
O O17 0.568928 0.158087 0.910174
O O18 0.539645 0.000000 0.930462
O O19 0.651521 0.124503 0.000000
O O20 0.575542 0.302346 0.852594
#
# Coordination Sequence:
#
# PCOD9586160 Si02
#       8
#    12  12  12  12  12  12  12  12
#     4  11  18  31  53  80 104 136 177 229 273 311
#     4  10  21  37  56  78 109 146 183 229 282 336
#     4  11  19  33  55  81 104 137 189 233 273 325
#     4  10  18  33  57  77 100 144 184 222 270 324
#     4  10  19  35  58  86 116 146 182 225 281 348
#     4  10  21  32  50  83 114 138 174 227 279 328
#     4  10  21  35  51  77 109 140 181 227 268 320
#     4  10  18  32  52  76 105 134 174 218 270 318
#
# _framework density 16.639023999999999
#
# number of rings (size 3 to 8) (size 9 to 14) (size 15 to 20)
#    0.250    1.500    5.000    1.875    0.000    2.250 
#    0.000    0.625    0.000    1.375    0.000    0.000 
#    0.000    0.000    0.000    0.000    0.000    0.000 
#
# Total GULP energy -534532.588143 kJ/mol
# GULP energy per Si atom -5568.047793 kJ/mol
# Density = 1.660115 g / cm^3
# Si number density = 16.639024 Si / 1000 Ang^3
#
#
#
# Elastic Constant Matrix: (Units=GPa)
#
#
# Indices 1 2 3 4 5 6 
#
# 1 79.9149 41.7692 32.9751 0.0000 0.0000 0.0000
# 2 41.7692 79.9149 32.9751 0.0000 0.0000 0.0000
# 3 32.9751 32.9751 103.9413 0.0000 0.0000 0.0000
# 4 0.0000 0.0000 0.0000 14.1687 0.0000 0.0000
# 5 0.0000 0.0000 0.0000 0.0000 14.1687 0.0000
# 6 0.0000 0.0000 0.0000 0.0000 0.0000 19.0729
#
#
#
# Elastic Compliance Matrix: (Units=1/GPa)
#
#
# Indices 1 2 3 4 5 6 
#
# 1 0.018070 -0.008145 -0.003148 0.000000 0.000000 0.000000
# 2 -0.008145 0.018070 -0.003148 0.000000 0.000000 0.000000
# 3 -0.003148 -0.003148 0.011619 0.000000 0.000000 0.000000
# 4 0.000000 0.000000 0.000000 0.070578 0.000000 0.000000
# 5 0.000000 0.000000 0.000000 0.000000 0.070578 0.000000
# 6 0.000000 0.000000 0.000000 0.000000 0.000000 0.052430
#
#
# Mechanical properties :
#
#
# Convention : Reuss Voigt Hill
#
# Bulk Modulus (GPa) = 52.98469 53.24553 53.11511
# Shear Modulus (GPa) = 18.08180 19.88550 18.98365
#
# Velocity S-wave (km/s) = 3.30011 3.46079 3.38140
# Velocity P-wave (km/s) = 6.81423 6.93104 6.87288
#
# Compressibility (1/GPa) = 0.01887338
#
# Stress axis : x y z
#
# Youngs Moduli (GPa) = 55.34088 55.34088 86.06956
#
# Poissons Ratio (x) = 0.45077 0.27099
# Poissons Ratio (y) = 0.45077 0.27099
# Poissons Ratio (z) = 0.17424 0.17424
#
# Static dielectric constant tensor:
#      x y z
#    x 1.592200 0.000000 0.000000 
#    y 0.000000 1.592200 0.000000 
#    z 0.000000 0.000000 1.558310 
# 
# From -- ./inp_files/3513.got.cif
#   From: 2010.05.17/outbox.cif.g08.bks.cpg/sg189_2_cif.got.tgz:3513.got - 2010.05.20 12:14:34.
