data_PCOD9586401
_publ_section_title
;
Structure prediction by ZEFSAII (Michael W. Deem and Ramdas Pophale) SiO2 
 PCOD9586401
Probable space group: P -6 2 M
;
_chemical_formula_sum "Si O2"
_cell_formula_units_Z 66
_cell_length_a 22.970879
_cell_length_b 22.970879
_cell_length_c 8.184955
_cell_angle_alpha 90.000000
_cell_angle_beta 90.000000
_cell_angle_gamma 120.000000
_cell_volume 3740.263129
_symmetry_space_group_name_H-M "P -6 2 M"
_symmetry_group_IT_number 189
_symmetry_cell_setting 'hexagonal'
loop_
_space_group_symop_operation_xyz
x,y,z
-x+y,-x,-z
-y,x-y,z
x,y,-z
-x+y,-x,z
-y,x-y,-z
x-y,-y,-z
-x,-x+y,-z
y,x,-z
y,x,z
x-y,-y,z
-x,-x+y,z
loop_
_atom_site_type_symbol
_atom_site_label
_atom_site_fract_x
_atom_site_fract_y
_atom_site_fract_z
Si Si1 0.623780 0.815631 0.196757
Si Si2 0.184593 0.617604 0.688496
Si Si3 0.077201 0.657806 0.802908
Si Si4 0.472826 0.712471 0.809810
Si Si5 0.238043 0.078439 0.684559
Si Si6 0.920995 0.079136 0.000000
O O1 0.617228 0.880601 0.244510
O O2 0.551538 0.751004 0.232332
O O3 0.683811 0.813720 0.287472
O O4 0.634744 0.818419 0.000000
O O5 0.175427 0.598871 0.500000
O O6 0.121865 0.625200 0.747500
O O7 0.250867 0.690710 0.711736
O O8 0.197784 0.564430 0.782659
O O9 0.000000 0.618681 0.744575
O O10 0.076152 0.656683 0.000000
O O11 0.468208 0.727331 0.000000
O O12 0.218551 0.087289 0.500000
O O13 0.201009 0.092026 0.834445
O O14 0.216421 0.000000 0.699361
O O15 0.000000 0.103655 0.000000
O O16 0.876348 0.000000 0.000000
#
# Coordination Sequence:
#
# PCOD9586401 Si02
#       6
#    12  12  12  12  12   6
#     4   9  18  34  56  83 106 140 185 232 277 326
#     4  11  21  33  51  78 109 138 175 226 279 326
#     4   9  19  36  56  77 107 145 182 221 268 325
#     4  10  20  35  55  76 103 141 184 227 274 330
#     4  10  21  37  58  84 115 149 184 228 279 328
#     4  10  21  38  60  84 114 146 182 222 268 324
#
# _framework density 17.645817000000001
#
# number of rings (size 3 to 8) (size 9 to 14) (size 15 to 20)
#    0.000    2.182    0.909    3.727    0.000    5.091 
#    0.000    0.909    0.000    2.182    0.000    0.000 
#    0.000    0.000    0.000    0.000    0.000    0.000 
#
# Total GULP energy -368150.913229 kJ/mol
# GULP energy per Si atom -5578.044140 kJ/mol
# Density = 1.760565 g / cm^3
# Si number density = 17.645817 Si / 1000 Ang^3
#
#
#
# Elastic Constant Matrix: (Units=GPa)
#
#
# Indices 1 2 3 4 5 6 
#
# 1 83.0766 64.6504 31.8389 0.0000 0.0000 0.0000
# 2 64.6504 83.0766 31.8389 0.0000 0.0000 0.0000
# 3 31.8389 31.8389 66.0176 0.0000 0.0000 0.0000
# 4 0.0000 0.0000 0.0000 13.3490 0.0000 0.0000
# 5 0.0000 0.0000 0.0000 0.0000 13.3490 0.0000
# 6 0.0000 0.0000 0.0000 0.0000 0.0000 9.2131
#
#
#
# Elastic Compliance Matrix: (Units=1/GPa)
#
#
# Indices 1 2 3 4 5 6 
#
# 1 0.031408 -0.022862 -0.004121 0.000000 0.000000 0.000000
# 2 -0.022862 0.031408 -0.004121 0.000000 0.000000 0.000000
# 3 -0.004121 -0.004121 0.019123 0.000000 0.000000 0.000000
# 4 0.000000 0.000000 0.000000 0.074912 0.000000 0.000000
# 5 0.000000 0.000000 0.000000 0.000000 0.074912 0.000000
# 6 0.000000 0.000000 0.000000 0.000000 0.000000 0.108541
#
#
# Mechanical properties :
#
#
# Convention : Reuss Voigt Hill
#
# Bulk Modulus (GPa) = 50.68776 54.31413 52.50094
# Shear Modulus (GPa) = 12.22224 14.10508 13.16366
#
# Velocity S-wave (km/s) = 2.63467 2.83033 2.73425
# Velocity P-wave (km/s) = 6.16788 6.44423 6.30757
#
# Compressibility (1/GPa) = 0.01972863
#
# Stress axis : x y z
#
# Youngs Moduli (GPa) = 31.83895 31.83895 52.29343
#
# Poissons Ratio (x) = 0.72791 0.21553
# Poissons Ratio (y) = 0.72791 0.21553
# Poissons Ratio (z) = 0.13122 0.13122
#
# Static dielectric constant tensor:
#      x y z
#    x 1.582920 0.000000 0.000000 
#    y 0.000000 1.582920 0.000000 
#    z 0.000000 0.000000 1.620280 
# 
# From -- ./inp_files/1017.got.cif
#   From: 2010.05.17/outbox.cif.g08.bks.cpg/sg189_1_cif.got.tgz:1017.got - 2010.05.20 12:14:34.
