data_PCOD9586791
_publ_section_title
;
Structure prediction by ZEFSAII (Michael W. Deem and Ramdas Pophale) SiO2 
 PCOD9586791
Probable space group: P -6 2 C
;
_chemical_formula_sum "Si O2"
_cell_formula_units_Z 36
_cell_length_a 16.628295
_cell_length_b 16.628295
_cell_length_c 8.715066
_cell_angle_alpha 90.000000
_cell_angle_beta 90.000000
_cell_angle_gamma 120.000000
_cell_volume 2086.876523
_symmetry_space_group_name_H-M "P -6 2 C"
_symmetry_group_IT_number 190
_symmetry_cell_setting 'hexagonal'
loop_
_space_group_symop_operation_xyz
x,y,z
-x+y,-x,1/2-z
-y,x-y,z
x,y,1/2-z
-x+y,-x,z
-y,x-y,1/2-z
x-y,-y,-z
-x,-x+y,-z
y,x,-z
y,x,1/2+z
x-y,-y,1/2+z
-x,-x+y,1/2+z
loop_
_atom_site_type_symbol
_atom_site_label
_atom_site_fract_x
_atom_site_fract_y
_atom_site_fract_z
Si Si1 0.104126 0.549135 0.933538
Si Si2 0.104098 0.382999 0.067284
Si Si3 0.270548 0.374609 0.933800
O O1 0.102615 0.538052 0.750000
O O2 0.140490 0.656637 0.968070
O O3 0.144491 0.489114 0.008720
O O4 0.000000 0.499393 0.000000
O O5 0.099001 0.380701 0.250000
O O6 0.172523 0.348534 0.006464
O O7 0.000000 0.322405 0.000000
O O8 0.263954 0.364670 0.750000
O O9 0.314698 0.314698 0.000000
#
# Coordination Sequence:
#
# PCOD9586791 Si02
#       3
#    12  12  12
#     4   9  17  31  51  73 100 133 168 211 258 308
#     4  11  21  34  54  78 107 141 179 220 264 314
#     4  10  20  35  55  79 107 140 178 219 266 316
#
# _framework density 17.250661000000001
#
# number of rings (size 3 to 8) (size 9 to 14) (size 15 to 20)
#    0.000    2.000    0.000    7.000    0.000    4.000 
#    2.000    0.000    0.000    0.667    0.000    4.667 
#    0.000    0.000    0.000    0.000    0.000    0.000 
#
# Total GULP energy -200665.106643 kJ/mol
# GULP energy per Si atom -5574.030740 kJ/mol
# Density = 1.721140 g / cm^3
# Si number density = 17.250661 Si / 1000 Ang^3
#
#
#
# Elastic Constant Matrix: (Units=GPa)
#
#
# Indices 1 2 3 4 5 6 
#
# 1 101.8853 50.9554 53.1592 0.0000 0.0000 0.0000
# 2 50.9554 101.8853 53.1592 0.0000 0.0000 0.0000
# 3 53.1592 53.1592 118.9332 0.0000 0.0000 0.0000
# 4 0.0000 0.0000 0.0000 -67.8319 0.0000 0.0000
# 5 0.0000 0.0000 0.0000 0.0000 -67.8319 0.0000
# 6 0.0000 0.0000 0.0000 0.0000 0.0000 25.4649
#
#
#
# Elastic Compliance Matrix: (Units=1/GPa)
#
#
# Indices 1 2 3 4 5 6 
#
# 1 0.014565 -0.005070 -0.004244 0.000000 0.000000 0.000000
# 2 -0.005070 0.014565 -0.004244 0.000000 0.000000 0.000000
# 3 -0.004244 -0.004244 0.012202 0.000000 0.000000 0.000000
# 4 0.000000 0.000000 0.000000 -0.014742 0.000000 0.000000
# 5 0.000000 0.000000 0.000000 0.000000 -0.014742 0.000000
# 6 0.000000 0.000000 0.000000 0.000000 0.000000 0.039270
#
#
# Mechanical properties :
#
#
# Convention : Reuss Voigt Hill
#
# Bulk Modulus (GPa) = 70.34321 70.80574 70.57447
# Shear Modulus (GPa) = 60.26212 -11.01112 24.62550
#
# Velocity S-wave (km/s) = 5.91685 -2.52920 3.78234
# Velocity P-wave (km/s) = 9.35652 5.71009 7.75079
#
# Compressibility (1/GPa) = 0.01421601
#
# Stress axis : x y z
#
# Youngs Moduli (GPa) = 68.65837 68.65837 81.95476
#
# Poissons Ratio (x) = 0.34810 0.34781
# Poissons Ratio (y) = 0.34810 0.34781
# Poissons Ratio (z) = 0.29138 0.29138
#
# Static dielectric constant tensor:
#      x y z
#    x 1.592640 0.000000 0.000000 
#    y 0.000000 1.592640 0.000000 
#    z 0.000000 0.000000 1.569550 
# 
# From -- ./inp_files/451.got.cif
#   From: 2010.05.17/outbox.cif.g08.bks.cpg/sg190_1_cif.got.tgz:451.got - 2010.05.20 12:16:56.
