data_PCOD9586388
_publ_section_title
;
Structure prediction by ZEFSAII (Michael W. Deem and Ramdas Pophale) SiO2 
 PCOD9586388
Probable space group: P -6 2 M
;
_chemical_formula_sum "Si O2"
_cell_formula_units_Z 48
_cell_length_a 20.516792
_cell_length_b 20.516792
_cell_length_c 7.404593
_cell_angle_alpha 90.000000
_cell_angle_beta 90.000000
_cell_angle_gamma 120.000000
_cell_volume 2699.297391
_symmetry_space_group_name_H-M "P -6 2 M"
_symmetry_group_IT_number 189
_symmetry_cell_setting 'hexagonal'
loop_
_space_group_symop_operation_xyz
x,y,z
-x+y,-x,-z
-y,x-y,z
x,y,-z
-x+y,-x,z
-y,x-y,-z
x-y,-y,-z
-x,-x+y,-z
y,x,-z
y,x,z
x-y,-y,z
-x,-x+y,z
loop_
_atom_site_type_symbol
_atom_site_label
_atom_site_fract_x
_atom_site_fract_y
_atom_site_fract_z
Si Si1 0.086100 0.913502 0.219979
Si Si2 0.533113 0.442191 0.500000
Si Si3 0.911773 0.574793 0.213657
Si Si4 0.408456 0.090706 0.500000
Si Si5 0.839688 0.186695 0.783431
O O1 0.137380 0.877899 0.270888
O O2 0.000000 0.864392 0.280599
O O3 0.123924 0.000000 0.278311
O O4 0.084624 0.913343 0.000000
O O5 0.491492 0.491492 0.500000
O O6 0.500115 0.388020 0.327302
O O7 0.620526 0.503193 0.500000
O O8 0.861555 0.612410 0.257199
O O9 0.000000 0.632785 0.254228
O O10 0.906223 0.559865 0.000000
O O11 0.385552 0.121836 0.326571
O O12 0.361097 0.000000 0.500000
O O13 0.848577 0.198840 0.000000
#
# Coordination Sequence:
#
# PCOD9586388 Si02
#       5
#    12   6  12   6  12
#     4   9  16  27  45  71 106 149 193 232 268 306
#     4   9  19  34  52  75 100 126 159 202 255 315
#     4   9  17  32  56  83 106 129 164 213 267 320
#     4  11  23  36  51  75 107 142 178 214 258 315
#     4  10  20  34  54  79 107 140 179 224 269 312
#
# _framework density 17.782405000000001
#
# number of rings (size 3 to 8) (size 9 to 14) (size 15 to 20)
#    0.000    2.500    0.000    2.500    0.000    6.500 
#    0.000    4.375    0.000    4.000    0.000    1.750 
#    0.000    0.000    0.000    0.000    0.000    0.000 
#
# Total GULP energy -267932.932299 kJ/mol
# GULP energy per Si atom -5581.936090 kJ/mol
# Density = 1.774193 g / cm^3
# Si number density = 17.782405 Si / 1000 Ang^3
#
#
#
# Elastic Constant Matrix: (Units=GPa)
#
#
# Indices 1 2 3 4 5 6 
#
# 1 126.9620 70.3532 47.2183 0.0000 0.0000 0.0000
# 2 70.3532 126.9620 47.2183 0.0000 0.0000 0.0000
# 3 47.2183 47.2183 72.4689 0.0000 0.0000 0.0000
# 4 0.0000 0.0000 0.0000 17.8668 0.0000 0.0000
# 5 0.0000 0.0000 0.0000 0.0000 17.8668 0.0000
# 6 0.0000 0.0000 0.0000 0.0000 0.0000 28.3044
#
#
#
# Elastic Compliance Matrix: (Units=1/GPa)
#
#
# Indices 1 2 3 4 5 6 
#
# 1 0.012515 -0.005150 -0.004799 0.000000 0.000000 0.000000
# 2 -0.005150 0.012515 -0.004799 0.000000 0.000000 0.000000
# 3 -0.004799 -0.004799 0.020052 0.000000 0.000000 0.000000
# 4 0.000000 0.000000 0.000000 0.055970 0.000000 0.000000
# 5 0.000000 0.000000 0.000000 0.000000 0.055970 0.000000
# 6 0.000000 0.000000 0.000000 0.000000 0.000000 0.035330
#
#
# Mechanical properties :
#
#
# Convention : Reuss Voigt Hill
#
# Bulk Modulus (GPa) = 64.15498 72.88584 68.52041
# Shear Modulus (GPa) = 22.02237 23.58115 22.80176
#
# Velocity S-wave (km/s) = 3.52296 3.64551 3.58476
# Velocity P-wave (km/s) = 7.25978 7.66787 7.46661
#
# Compressibility (1/GPa) = 0.01558725
#
# Stress axis : x y z
#
# Youngs Moduli (GPa) = 79.90488 79.90488 49.86984
#
# Poissons Ratio (x) = 0.41153 0.23930
# Poissons Ratio (y) = 0.41153 0.23930
# Poissons Ratio (z) = 0.38343 0.38343
#
# Static dielectric constant tensor:
#      x y z
#    x 1.577630 0.000000 0.000000 
#    y 0.000000 1.577630 0.000000 
#    z 0.000000 0.000000 1.648060 
# 
# From -- ./inp_files/647.got.cif
#   From: 2010.05.17/outbox.cif.g08.bks.cpg/sg189_1_cif.got.tgz:647.got - 2010.05.20 12:14:34.
