data_PCOD9586206
_publ_section_title
;
Structure prediction by ZEFSAII (Michael W. Deem and Ramdas Pophale) SiO2 
 PCOD9586206
Probable space group: P -6 2 M
;
_chemical_formula_sum "Si O2"
_cell_formula_units_Z 72
_cell_length_a 24.558311
_cell_length_b 24.558311
_cell_length_c 8.611242
_cell_angle_alpha 90.000000
_cell_angle_beta 90.000000
_cell_angle_gamma 120.000000
_cell_volume 4497.730359
_symmetry_space_group_name_H-M "P -6 2 M"
_symmetry_group_IT_number 189
_symmetry_cell_setting 'hexagonal'
loop_
_space_group_symop_operation_xyz
x,y,z
-x+y,-x,-z
-y,x-y,z
x,y,-z
-x+y,-x,z
-y,x-y,-z
x-y,-y,-z
-x,-x+y,-z
y,x,-z
y,x,z
x-y,-y,z
-x,-x+y,z
loop_
_atom_site_type_symbol
_atom_site_label
_atom_site_fract_x
_atom_site_fract_y
_atom_site_fract_z
Si Si1 0.477547 0.406998 0.187427
Si Si2 0.528513 0.266323 0.313939
Si Si3 0.399158 0.805146 0.186210
Si Si4 0.404932 0.267791 0.312553
Si Si5 0.855441 0.927115 0.187433
Si Si6 0.073152 0.810813 0.687251
O O1 0.455793 0.455793 0.239080
O O2 0.546968 0.422042 0.235680
O O3 0.428973 0.337583 0.249048
O O4 0.476085 0.404871 0.000000
O O5 0.532941 0.270149 0.500000
O O6 0.548048 0.217168 0.253905
O O7 0.576025 0.335079 0.244986
O O8 0.458409 0.250795 0.267902
O O9 0.396010 0.802671 0.000000
O O10 0.404265 0.270547 0.500000
O O11 0.334299 0.219543 0.260077
O O12 0.884312 0.884312 0.240636
O O13 0.786307 0.906984 0.248074
O O14 0.900506 0.000000 0.235540
O O15 0.854232 0.926150 0.000000
O O16 0.075248 0.813982 0.500000
O O17 0.000000 0.765373 0.732724
#
# Coordination Sequence:
#
# PCOD9586206 Si02
#       6
#    12  12  12  12  12  12
#     4   9  18  31  47  68  92 117 146 181 220 263
#     4  10  19  31  47  67  91 118 150 185 220 260
#     4  10  19  31  47  67  92 120 149 181 221 266
#     4   9  18  31  47  67  91 119 148 180 219 262
#     4   9  17  29  45  65  89 117 148 182 220 261
#     4   9  17  29  45  66  91 117 145 178 218 263
#
# _framework density 16.008074000000001
#
# number of rings (size 3 to 8) (size 9 to 14) (size 15 to 20)
#    0.000    2.667    0.000    2.000    0.000    4.000 
#    0.000    1.667    0.000    2.000    0.000    4.667 
#    0.000    0.000    0.000    0.000    0.000    0.000 
#
# Total GULP energy -401382.511231 kJ/mol
# GULP energy per Si atom -5574.757100 kJ/mol
# Density = 1.597164 g / cm^3
# Si number density = 16.008074 Si / 1000 Ang^3
#
#
#
# Elastic Constant Matrix: (Units=GPa)
#
#
# Indices 1 2 3 4 5 6 
#
# 1 122.9613 77.2837 20.5723 0.0000 0.0000 0.0000
# 2 77.2837 122.9613 20.5723 0.0000 0.0000 0.0000
# 3 20.5723 20.5723 13.2037 0.0000 0.0000 0.0000
# 4 0.0000 0.0000 0.0000 20.3908 0.0000 0.0000
# 5 0.0000 0.0000 0.0000 0.0000 20.3908 0.0000
# 6 0.0000 0.0000 0.0000 0.0000 0.0000 22.8388
#
#
#
# Elastic Compliance Matrix: (Units=1/GPa)
#
#
# Indices 1 2 3 4 5 6 
#
# 1 0.014619 -0.007274 -0.011445 0.000000 0.000000 0.000000
# 2 -0.007274 0.014619 -0.011445 0.000000 0.000000 0.000000
# 3 -0.011445 -0.011445 0.111400 0.000000 0.000000 0.000000
# 4 0.000000 0.000000 0.000000 0.049042 0.000000 0.000000
# 5 0.000000 0.000000 0.000000 0.000000 0.049042 0.000000
# 6 0.000000 0.000000 0.000000 0.000000 0.000000 0.043785
#
#
# Mechanical properties :
#
#
# Convention : Reuss Voigt Hill
#
# Bulk Modulus (GPa) = 12.45147 55.10921 33.78034
# Shear Modulus (GPa) = 13.52802 22.10395 17.81599
#
# Velocity S-wave (km/s) = 2.91017 3.71994 3.33969
# Velocity P-wave (km/s) = 4.36890 7.27676 6.00160
#
# Compressibility (1/GPa) = 0.08031179
#
# Stress axis : x y z
#
# Youngs Moduli (GPa) = 68.40412 68.40412 8.97667
#
# Poissons Ratio (x) = 0.49754 0.10274
# Poissons Ratio (y) = 0.49754 0.10274
# Poissons Ratio (z) = 0.78287 0.78287
#
# Static dielectric constant tensor:
#      x y z
#    x 1.528490 0.000000 0.000000 
#    y 0.000000 1.528490 0.000000 
#    z 0.000000 0.000000 1.541830 
# 
# From -- ./inp_files/1227.got.cif
#   From: 2010.05.17/outbox.cif.g08.bks.cpg/sg189_1_cif.got.tgz:1227.got - 2010.05.20 12:14:34.
