data_PCOD9586474
_publ_section_title
;
Structure prediction by ZEFSAII (Michael W. Deem and Ramdas Pophale) SiO2 
 PCOD9586474
Probable space group: P -6 2 M
;
_chemical_formula_sum "Si O2"
_cell_formula_units_Z 72
_cell_length_a 23.768147
_cell_length_b 23.768147
_cell_length_c 7.520410
_cell_angle_alpha 90.000000
_cell_angle_beta 90.000000
_cell_angle_gamma 120.000000
_cell_volume 3679.279660
_symmetry_space_group_name_H-M "P -6 2 M"
_symmetry_group_IT_number 189
_symmetry_cell_setting 'hexagonal'
loop_
_space_group_symop_operation_xyz
x,y,z
-x+y,-x,-z
-y,x-y,z
x,y,-z
-x+y,-x,z
-y,x-y,-z
x-y,-y,-z
-x,-x+y,-z
y,x,-z
y,x,z
x-y,-y,z
-x,-x+y,z
loop_
_atom_site_type_symbol
_atom_site_label
_atom_site_fract_x
_atom_site_fract_y
_atom_site_fract_z
Si Si1 0.377428 0.563341 0.783851
Si Si2 0.929033 0.856531 0.214478
Si Si3 0.928612 0.200969 0.296120
Si Si4 0.706387 0.472631 0.216945
Si Si5 0.345748 0.420805 0.217254
Si Si6 0.183859 0.792388 0.792945
O O1 0.309852 0.560448 0.735674
O O2 0.435684 0.632260 0.720633
O O3 0.375160 0.496574 0.728549
O O4 0.379060 0.562546 0.000000
O O5 0.914220 0.914220 0.254689
O O6 0.869543 0.791777 0.289075
O O7 0.000000 0.874842 0.276674
O O8 0.926833 0.849480 0.000000
O O9 0.929885 0.220049 0.500000
O O10 0.862847 0.192085 0.217216
O O11 0.000000 0.250314 0.216528
O O12 0.751807 0.546349 0.280693
O O13 0.702558 0.471622 0.000000
O O14 0.384520 0.384520 0.278580
O O15 0.269636 0.386855 0.275425
O O16 0.347839 0.419636 0.000000
O O17 0.183022 0.776291 0.000000
#
# Coordination Sequence:
#
# PCOD9586474 Si02
#       6
#    12  12  12  12  12  12
#     4   8  12  19  33  55  86 118 143 173 218 269
#     4   9  17  30  49  71  92 113 138 172 217 267
#     4  10  21  35  48  63  86 117 152 187 221 258
#     4   8  13  21  36  61  90 117 144 177 222 272
#     4   8  14  24  38  58  86 118 147 176 215 264
#     4   9  17  29  45  65  88 114 148 189 227 264
#
# _framework density 19.569049
#
# number of rings (size 3 to 8) (size 9 to 14) (size 15 to 20)
#    0.000    3.333    0.000    3.000    0.000    4.000 
#    0.000    2.500    0.000    4.000    0.000    4.667 
#    0.000    0.000    0.000    0.000    0.000    0.000 
#
# Total GULP energy -400872.439042 kJ/mol
# GULP energy per Si atom -5567.672764 kJ/mol
# Density = 1.952451 g / cm^3
# Si number density = 19.569049 Si / 1000 Ang^3
#
#
#
# Elastic Constant Matrix: (Units=GPa)
#
#
# Indices 1 2 3 4 5 6 
#
# 1 139.5955 98.0937 1.7421 0.0000 0.0000 0.0000
# 2 98.0937 139.5955 1.7421 0.0000 0.0000 0.0000
# 3 1.7421 1.7421 42.1773 0.0000 0.0000 0.0000
# 4 0.0000 0.0000 0.0000 -148.1295 0.0000 0.0000
# 5 0.0000 0.0000 0.0000 0.0000 -148.1295 0.0000
# 6 0.0000 0.0000 0.0000 0.0000 0.0000 20.7509
#
#
#
# Elastic Compliance Matrix: (Units=1/GPa)
#
#
# Indices 1 2 3 4 5 6 
#
# 1 0.014153 -0.009943 -0.000174 0.000000 0.000000 0.000000
# 2 -0.009943 0.014153 -0.000174 0.000000 0.000000 0.000000
# 3 -0.000174 -0.000174 0.023724 0.000000 0.000000 0.000000
# 4 0.000000 0.000000 0.000000 -0.006751 0.000000 0.000000
# 5 0.000000 0.000000 0.000000 0.000000 -0.006751 0.000000
# 6 0.000000 0.000000 0.000000 0.000000 0.000000 0.048191
#
#
# Mechanical properties :
#
#
# Convention : Reuss Voigt Hill
#
# Bulk Modulus (GPa) = 31.79884 58.28049 45.03967
# Shear Modulus (GPa) = 42.45150 -40.44892 1.00129
#
# Velocity S-wave (km/s) = 4.66265 -4.55134 0.71609
# Velocity P-wave (km/s) = 6.72844 1.49232 4.87334
#
# Compressibility (1/GPa) = 0.03144769
#
# Stress axis : x y z
#
# Youngs Moduli (GPa) = 70.65877 70.65877 42.15181
#
# Poissons Ratio (x) = 0.70255 0.00733
# Poissons Ratio (y) = 0.70255 0.00733
# Poissons Ratio (z) = 0.01229 0.01229
#
# Static dielectric constant tensor:
#      x y z
#    x 1.684770 0.000000 0.000000 
#    y 0.000000 1.684770 0.000000 
#    z 0.000000 0.000000 1.765310 
# 
# From -- ./inp_files/1259.got.cif
#   From: 2010.05.17/outbox.cif.g08.bks.cpg/sg189_1_cif.got.tgz:1259.got - 2010.05.20 12:14:34.
