data_PCOD9586849
_publ_section_title
;
Structure prediction by ZEFSAII (Michael W. Deem and Ramdas Pophale) SiO2 
 PCOD9586849
Probable space group: P -6 2 C
;
_chemical_formula_sum "Si O2"
_cell_formula_units_Z 70
_cell_length_a 15.981474
_cell_length_b 15.981474
_cell_length_c 16.749150
_cell_angle_alpha 90.000000
_cell_angle_beta 90.000000
_cell_angle_gamma 120.000000
_cell_volume 3704.734322
_symmetry_space_group_name_H-M "P -6 2 C"
_symmetry_group_IT_number 190
_symmetry_cell_setting 'hexagonal'
loop_
_space_group_symop_operation_xyz
x,y,z
-x+y,-x,1/2-z
-y,x-y,z
x,y,1/2-z
-x+y,-x,z
-y,x-y,1/2-z
x-y,-y,-z
-x,-x+y,-z
y,x,-z
y,x,1/2+z
x-y,-y,1/2+z
-x,-x+y,1/2+z
loop_
_atom_site_type_symbol
_atom_site_label
_atom_site_fract_x
_atom_site_fract_y
_atom_site_fract_z
Si Si1 0.973876 0.174874 0.155669
Si Si2 0.887604 0.378515 0.523792
Si Si3 0.834592 0.211479 0.844905
Si Si4 0.000000 0.000000 0.405496
Si Si5 0.223754 0.810142 0.899367
Si Si6 0.103868 0.674775 0.039366
Si Si7 0.251608 0.710731 0.750000
O O1 0.957056 0.161241 0.250000
O O2 0.897516 0.205161 0.122938
O O3 0.080275 0.266838 0.142130
O O4 0.970190 0.078578 0.122695
O O5 0.861133 0.303585 0.597502
O O6 0.840661 0.325774 0.440758
O O7 0.857112 0.457062 0.545585
O O8 0.000000 0.429103 0.500000
O O9 0.831316 0.229519 0.750000
O O10 0.733361 0.124402 0.878312
O O11 0.000000 0.000000 0.500000
O O12 0.212813 0.741870 0.825870
O O13 0.154557 0.754753 0.972010
O O14 0.000000 0.613183 0.000000
O O15 0.370076 0.769419 0.750000
#
# Coordination Sequence:
#
# PCOD9586849 Si02
#       7
#    12  12  12   4  12  12   6
#     4  11  24  44  67  95 133 176 218 273 329 395
#     4  10  20  40  64  88 124 166 216 265 327 397
#     4  10  23  42  67  96 128 175 221 276 328 405
#     4  12  31  41  70 102 133 173 220 273 325 398
#     4  11  21  39  67  93 126 174 217 266 337 400
#     4  10  24  40  62  92 129 170 215 275 331 399
#     4  10  22  38  62  98 134 158 214 278 332 396
#
# _framework density 18.894741
#
# number of rings (size 3 to 8) (size 9 to 14) (size 15 to 20)
#    0.171    1.371    2.571    1.543    7.200    0.686 
#    9.771    0.000    0.000    0.000    0.000    0.000 
#    0.000    0.000    0.000    0.000    0.000    0.000 
#
# Total GULP energy -389940.220585 kJ/mol
# GULP energy per Si atom -5570.574580 kJ/mol
# Density = 1.885174 g / cm^3
# Si number density = 18.894741 Si / 1000 Ang^3
#
#
#
# Elastic Constant Matrix: (Units=GPa)
#
#
# Indices 1 2 3 4 5 6 
#
# 1 39.4426 49.5365 29.9634 0.0000 0.0000 0.0000
# 2 49.5365 39.4426 29.9634 0.0000 0.0000 0.0000
# 3 29.9634 29.9634 108.6789 0.0000 0.0000 0.0000
# 4 0.0000 0.0000 0.0000 1.5345 0.0000 0.0000
# 5 0.0000 0.0000 0.0000 0.0000 1.5345 0.0000
# 6 0.0000 0.0000 0.0000 0.0000 0.0000 -5.0469
#
#
#
# Elastic Compliance Matrix: (Units=1/GPa)
#
#
# Indices 1 2 3 4 5 6 
#
# 1 -0.042634 0.056436 -0.003805 0.000000 0.000000 0.000000
# 2 0.056436 -0.042634 -0.003805 0.000000 0.000000 0.000000
# 3 -0.003805 -0.003805 0.011300 0.000000 0.000000 0.000000
# 4 0.000000 0.000000 0.000000 0.651682 0.000000 0.000000
# 5 0.000000 0.000000 0.000000 0.000000 0.651682 0.000000
# 6 0.000000 0.000000 0.000000 0.000000 0.000000 -0.198140
#
#
# Mechanical properties :
#
#
# Convention : Reuss Voigt Hill
#
# Bulk Modulus (GPa) = 42.22652 45.16564 43.69608
# Shear Modulus (GPa) = 5.31068 4.81113 5.06090
#
# Velocity S-wave (km/s) = 1.67832 1.59744 1.63838
# Velocity P-wave (km/s) = 5.11395 5.23050 5.17255
#
# Compressibility (1/GPa) = 0.02368180
#
# Stress axis : x y z
#
# Youngs Moduli (GPa) = -23.45530 -23.45530 88.49877
#
# Poissons Ratio (x) = 1.32371 0.33675
# Poissons Ratio (y) = 1.32371 0.33675
# Poissons Ratio (z) = -0.08925 -0.08925
#
# Static dielectric constant tensor:
#      x y z
#    x 1.744070 0.000000 0.000000 
#    y 0.000000 1.744070 0.000000 
#    z 0.000000 0.000000 1.388090 
# 
# From -- ./inp_files/3782.got.cif
#   From: 2010.05.17/outbox.cif.g08.bks.cpg/sg190_2_cif.got.tgz:3782.got - 2010.05.20 12:16:56.
