data_PCOD9586998
_publ_section_title
;
Structure prediction by ZEFSAII (Michael W. Deem and Ramdas Pophale) SiO2 
 PCOD9586998
Probable space group: P -6 2 C
;
_chemical_formula_sum "Si O2"
_cell_formula_units_Z 46
_cell_length_a 15.435058
_cell_length_b 15.435058
_cell_length_c 10.760864
_cell_angle_alpha 90.000000
_cell_angle_beta 90.000000
_cell_angle_gamma 120.000000
_cell_volume 2220.211285
_symmetry_space_group_name_H-M "P -6 2 C"
_symmetry_group_IT_number 190
_symmetry_cell_setting 'hexagonal'
loop_
_space_group_symop_operation_xyz
x,y,z
-x+y,-x,1/2-z
-y,x-y,z
x,y,1/2-z
-x+y,-x,z
-y,x-y,1/2-z
x-y,-y,-z
-x,-x+y,-z
y,x,-z
y,x,1/2+z
x-y,-y,1/2+z
-x,-x+y,1/2+z
loop_
_atom_site_type_symbol
_atom_site_label
_atom_site_fract_x
_atom_site_fract_y
_atom_site_fract_z
Si Si1 0.367873 0.875434 0.392840
Si Si2 0.098936 0.868645 0.250000
Si Si3 0.570421 0.000000 0.000000
Si Si4 0.333333 0.666667 0.100852
Si Si5 0.802127 0.155655 0.497162
Si Si6 0.875016 0.773815 0.250000
O O1 0.333188 0.862865 0.250000
O O2 0.375521 0.779652 0.435680
O O3 0.275050 0.861834 0.474910
O O4 0.481571 0.965782 0.398560
O O5 0.108843 0.817579 0.375670
O O6 0.990755 0.859180 0.250000
O O7 0.183164 0.983694 0.250000
O O8 0.681570 0.093909 0.023901
O O9 0.333334 0.666668 0.250000
O O10 0.851258 0.140267 0.374809
#
# Coordination Sequence:
#
# PCOD9586998 Si02
#       6
#    12   6   6   4  12   6
#     4  11  24  42  72 104 140 189 256 308 376 456
#     4  12  25  48  72 104 146 200 244 312 373 467
#     4  12  26  42  74 108 150 202 248 318 386 438
#     4   9  18  36  63  94 125 169 240 310 338 427
#     4  12  26  46  71 113 151 191 261 315 378 457
#     4  12  27  46  74 104 154 194 244 316 383 455
#
# _framework density 20.718748000000001
#
# number of rings (size 3 to 8) (size 9 to 14) (size 15 to 20)
#    0.000    0.522    6.522    1.043    7.304    0.000 
#    0.000    2.609    0.000    0.000    0.000    0.000 
#    0.000    0.000    0.000    0.000    0.000    0.000 
#
# Total GULP energy -256347.746008 kJ/mol
# GULP energy per Si atom -5572.777087 kJ/mol
# Density = 2.067159 g / cm^3
# Si number density = 20.718748 Si / 1000 Ang^3
#
#
#
# Elastic Constant Matrix: (Units=GPa)
#
#
# Indices 1 2 3 4 5 6 
#
# 1 104.3942 31.9435 42.9800 0.0001 0.0000 -0.0001
# 2 31.9435 104.3939 42.9803 0.0000 0.0000 0.0000
# 3 42.9800 42.9803 117.4324 0.0000 0.0000 0.0000
# 4 0.0001 0.0000 0.0000 40.8696 0.0000 0.0000
# 5 0.0000 0.0000 0.0000 0.0000 40.8694 0.0000
# 6 -0.0001 0.0000 0.0000 0.0000 0.0000 36.2257
#
#
#
# Elastic Compliance Matrix: (Units=1/GPa)
#
#
# Indices 1 2 3 4 5 6 
#
# 1 0.011669 -0.002134 -0.003490 0.000000 0.000000 0.000000
# 2 -0.002134 0.011669 -0.003490 0.000000 0.000000 0.000000
# 3 -0.003490 -0.003490 0.011070 0.000000 0.000000 0.000000
# 4 0.000000 0.000000 0.000000 0.024468 0.000000 0.000000
# 5 0.000000 0.000000 0.000000 0.000000 0.024468 0.000000
# 6 0.000000 0.000000 0.000000 0.000000 0.000000 0.027605
#
#
# Mechanical properties :
#
#
# Convention : Reuss Voigt Hill
#
# Bulk Modulus (GPa) = 61.80122 62.44755 62.12438
# Shear Modulus (GPa) = 37.15567 37.48073 37.31820
#
# Velocity S-wave (km/s) = 4.23937 4.25788 4.24864
# Velocity P-wave (km/s) = 7.33870 7.37419 7.35647
#
# Compressibility (1/GPa) = 0.01618091
#
# Stress axis : x y z
#
# Youngs Moduli (GPa) = 85.69896 85.69844 90.33362
#
# Poissons Ratio (x) = 0.18286 0.31525
# Poissons Ratio (y) = 0.18286 0.31525
# Poissons Ratio (z) = 0.29907 0.29907
#
# Static dielectric constant tensor:
#      x y z
#    x 1.791960 0.000000 0.000000 
#    y 0.000000 1.791960 0.000000 
#    z 0.000000 0.000000 1.793280 
# 
# From -- ./inp_files/1860.got.cif
#   From: 2010.05.17/outbox.cif.g08.bks.cpg/sg190_1_cif.got.tgz:1860.got - 2010.05.20 12:16:56.
