data_PCOD9586427
_publ_section_title
;
Structure prediction by ZEFSAII (Michael W. Deem and Ramdas Pophale) SiO2 
 PCOD9586427
Probable space group: P -6 2 M
;
_chemical_formula_sum "Si O2"
_cell_formula_units_Z 72
_cell_length_a 23.800084
_cell_length_b 23.800084
_cell_length_c 9.132606
_cell_angle_alpha 90.000000
_cell_angle_beta 90.000000
_cell_angle_gamma 120.000000
_cell_volume 4480.044554
_symmetry_space_group_name_H-M "P -6 2 M"
_symmetry_group_IT_number 189
_symmetry_cell_setting 'hexagonal'
loop_
_space_group_symop_operation_xyz
x,y,z
-x+y,-x,-z
-y,x-y,z
x,y,-z
-x+y,-x,z
-y,x-y,-z
x-y,-y,-z
-x,-x+y,-z
y,x,-z
y,x,z
x-y,-y,z
-x,-x+y,z
loop_
_atom_site_type_symbol
_atom_site_label
_atom_site_fract_x
_atom_site_fract_y
_atom_site_fract_z
Si Si1 0.734493 0.216810 0.826322
Si Si2 0.541591 0.413055 0.173311
Si Si3 0.339397 0.074672 0.824515
Si Si4 0.000000 0.596198 0.171782
Si Si5 0.802180 0.131512 0.173373
Si Si6 0.715977 0.000000 0.326172
Si Si7 0.522339 0.668108 0.674274
O O1 0.659037 0.187099 0.792256
O O2 0.755235 0.162107 0.802206
O O3 0.783220 0.278761 0.733338
O O4 0.744612 0.232538 0.000000
O O5 0.473351 0.410270 0.196554
O O6 0.598492 0.468830 0.266021
O O7 0.557244 0.425237 0.000000
O O8 0.316399 0.126273 0.787322
O O9 0.407162 0.097574 0.743230
O O10 0.288667 0.000000 0.792147
O O11 0.351936 0.080950 0.000000
O O12 0.000000 0.651649 0.268913
O O13 0.000000 0.613865 0.000000
O O14 0.775698 0.065648 0.262072
O O15 0.800358 0.118160 0.000000
O O16 0.717775 0.000000 0.500000
O O17 0.525824 0.669043 0.500000
#
# Coordination Sequence:
#
# PCOD9586427 Si02
#       7
#    12  12  12   6  12   6  12
#     4   9  18  36  58  73  90 126 174 218 259 305
#     4  10  20  36  57  76  96 129 176 221 260 308
#     4   9  19  37  59  78  99 135 179 215 248 292
#     4  10  20  36  56  76  98 130 172 217 260 303
#     4   9  17  33  55  77 102 132 169 207 247 294
#     4  12  22  30  48  80 114 142 164 195 248 311
#     4  11  23  35  50  75 107 135 164 209 266 321
#
# _framework density 16.071269999999998
#
# number of rings (size 3 to 8) (size 9 to 14) (size 15 to 20)
#    0.000    2.167    1.667    3.250    1.167    4.333 
#    1.000    0.000    0.000    0.000    0.000    0.000 
#    0.833    0.000    1.500    0.000    0.500    0.000 
#
# Total GULP energy -401820.717198 kJ/mol
# GULP energy per Si atom -5580.843294 kJ/mol
# Density = 1.603469 g / cm^3
# Si number density = 16.071270 Si / 1000 Ang^3
#
#
#
# Elastic Constant Matrix: (Units=GPa)
#
#
# Indices 1 2 3 4 5 6 
#
# 1 94.3073 72.4582 60.7336 0.0000 0.0000 0.0000
# 2 72.4582 94.3073 60.7336 0.0000 0.0000 0.0000
# 3 60.7336 60.7336 68.8421 0.0000 0.0000 0.0000
# 4 0.0000 0.0000 0.0000 4.1396 0.0000 0.0000
# 5 0.0000 0.0000 0.0000 0.0000 4.1396 0.0000
# 6 0.0000 0.0000 0.0000 0.0000 0.0000 10.9245
#
#
#
# Elastic Compliance Matrix: (Units=1/GPa)
#
#
# Indices 1 2 3 4 5 6 
#
# 1 0.031273 -0.014496 -0.014801 0.000000 0.000000 0.000000
# 2 -0.014496 0.031273 -0.014801 0.000000 0.000000 0.000000
# 3 -0.014801 -0.014801 0.040641 0.000000 0.000000 0.000000
# 4 0.000000 0.000000 0.000000 0.241570 0.000000 0.000000
# 5 0.000000 0.000000 0.000000 0.000000 0.241570 0.000000
# 6 0.000000 0.000000 0.000000 0.000000 0.000000 0.091537
#
#
# Mechanical properties :
#
#
# Convention : Reuss Voigt Hill
#
# Bulk Modulus (GPa) = 66.70449 71.70083 69.20266
# Shear Modulus (GPa) = 6.48461 8.07616 7.28038
#
# Velocity S-wave (km/s) = 2.01089 2.24413 2.13070
# Velocity P-wave (km/s) = 6.85471 7.17119 7.01474
#
# Compressibility (1/GPa) = 0.01499149
#
# Stress axis : x y z
#
# Youngs Moduli (GPa) = 31.97667 31.97667 24.60545
#
# Poissons Ratio (x) = 0.46352 0.36419
# Poissons Ratio (y) = 0.46352 0.36419
# Poissons Ratio (z) = 0.47329 0.47329
#
# Static dielectric constant tensor:
#      x y z
#    x 1.532320 0.000000 0.000000 
#    y 0.000000 1.532320 0.000000 
#    z 0.000000 0.000000 1.528360 
# 
# From -- ./inp_files/1305.got.cif
#   From: 2010.05.17/outbox.cif.g08.bks.cpg/sg189_1_cif.got.tgz:1305.got - 2010.05.20 12:14:34.
