data_PCOD9586707
_publ_section_title
;
Structure prediction by ZEFSAII (Michael W. Deem and Ramdas Pophale) SiO2 
 PCOD9586707
Probable space group: P -6 2 C
;
_chemical_formula_sum "Si O2"
_cell_formula_units_Z 78
_cell_length_a 23.920655
_cell_length_b 23.920655
_cell_length_c 8.214144
_cell_angle_alpha 90.000000
_cell_angle_beta 90.000000
_cell_angle_gamma 120.000000
_cell_volume 4070.418642
_symmetry_space_group_name_H-M "P -6 2 C"
_symmetry_group_IT_number 190
_symmetry_cell_setting 'hexagonal'
loop_
_space_group_symop_operation_xyz
x,y,z
-x+y,-x,1/2-z
-y,x-y,z
x,y,1/2-z
-x+y,-x,z
-y,x-y,1/2-z
x-y,-y,-z
-x,-x+y,-z
y,x,-z
y,x,1/2+z
x-y,-y,1/2+z
-x,-x+y,1/2+z
loop_
_atom_site_type_symbol
_atom_site_label
_atom_site_fract_x
_atom_site_fract_y
_atom_site_fract_z
Si Si1 0.408918 0.732493 0.750000
Si Si2 0.464209 0.536094 0.055864
Si Si3 0.862412 0.930975 0.943434
Si Si4 0.591169 0.665124 0.446377
Si Si5 0.264136 0.194854 0.054411
Si Si6 0.190019 0.675423 0.060943
Si Si7 0.800841 0.605755 0.054172
O O1 0.390276 0.658337 0.750000
O O2 0.442377 0.762296 0.580744
O O3 0.468778 0.539656 0.250000
O O4 0.520098 0.607183 0.996963
O O5 0.390370 0.514038 0.017197
O O6 0.485552 0.485552 0.000000
O O7 0.859900 0.930481 0.750000
O O8 0.797337 0.926573 0.009791
O O9 0.874779 0.874779 0.000000
O O10 0.919941 0.000000 0.000000
O O11 0.591706 0.668017 0.250000
O O12 0.641595 0.641595 0.500000
O O13 0.604739 0.734289 0.511955
O O14 0.261725 0.194029 0.250000
O O15 0.327737 0.192826 0.009082
O O16 0.253619 0.253619 0.000000
O O17 0.205840 0.669346 0.250000
O O18 0.191088 0.742551 0.039862
O O19 0.801383 0.595815 0.250000
#
# Coordination Sequence:
#
# PCOD9586707 Si02
#       7
#     6  12  12  12  12  12  12
#     4  10  26  44  64  98 126 170 210 242 324 372
#     4   9  21  38  61  90 122 162 207 256 309 362
#     4  10  19  33  52  77 107 145 189 239 299 358
#     4  10  21  39  61  91 122 161 203 252 311 370
#     4   9  21  39  58  81 113 152 198 249 304 360
#     4  11  24  42  64  96 129 166 212 259 309 372
#     4  11  23  40  62  89 123 162 204 256 309 368
#
# _framework density 19.162647
#
# number of rings (size 3 to 8) (size 9 to 14) (size 15 to 20)
#    0.154    1.846    0.769    1.538    3.231    4.308 
#    0.000    4.615    0.000    0.000    0.000    0.000 
#    0.000    0.000    0.000    0.000    0.000    0.000 
#
# Total GULP energy -434825.867329 kJ/mol
# GULP energy per Si atom -5574.690607 kJ/mol
# Density = 1.911903 g / cm^3
# Si number density = 19.162647 Si / 1000 Ang^3
#
#
#
# Elastic Constant Matrix: (Units=GPa)
#
#
# Indices 1 2 3 4 5 6 
#
# 1 119.0376 76.5455 32.3088 0.0000 0.0000 0.0000
# 2 76.5455 119.0376 32.3088 0.0000 0.0000 0.0000
# 3 32.3088 32.3088 59.6666 0.0000 0.0000 0.0000
# 4 0.0000 0.0000 0.0000 15.7356 0.0000 0.0000
# 5 0.0000 0.0000 0.0000 0.0000 15.7356 0.0000
# 6 0.0000 0.0000 0.0000 0.0000 0.0000 21.2460
#
#
#
# Elastic Compliance Matrix: (Units=1/GPa)
#
#
# Indices 1 2 3 4 5 6 
#
# 1 0.014880 -0.008653 -0.003372 0.000000 0.000000 0.000000
# 2 -0.008653 0.014880 -0.003372 0.000000 0.000000 0.000000
# 3 -0.003372 -0.003372 0.020411 0.000000 0.000000 0.000000
# 4 0.000000 0.000000 0.000000 0.063550 0.000000 0.000000
# 5 0.000000 0.000000 0.000000 0.000000 0.063550 0.000000
# 6 0.000000 0.000000 0.000000 0.000000 0.000000 0.047068
#
#
# Mechanical properties :
#
#
# Convention : Reuss Voigt Hill
#
# Bulk Modulus (GPa) = 51.60494 64.45202 58.02848
# Shear Modulus (GPa) = 19.11363 20.98202 20.04783
#
# Velocity S-wave (km/s) = 3.16166 3.31258 3.23800
# Velocity P-wave (km/s) = 6.34953 6.95256 6.65788
#
# Compressibility (1/GPa) = 0.01937799
#
# Stress axis : x y z
#
# Youngs Moduli (GPa) = 67.20272 67.20272 48.99222
#
# Poissons Ratio (x) = 0.58153 0.16519
# Poissons Ratio (y) = 0.58153 0.16519
# Poissons Ratio (z) = 0.22659 0.22659
#
# Static dielectric constant tensor:
#      x y z
#    x 1.719370 0.000000 0.000000 
#    y 0.000000 1.719370 0.000000 
#    z 0.000000 0.000000 1.542090 
# 
# From -- ./inp_files/1377.got.cif
#   From: 2010.05.17/outbox.cif.g08.bks.cpg/sg190_1_cif.got.tgz:1377.got - 2010.05.20 12:16:56.
