data_PCOD9586610
_publ_section_title
;
Structure prediction by ZEFSAII (Michael W. Deem and Ramdas Pophale) SiO2 
 PCOD9586610
Probable space group: P -6 2 C
;
_chemical_formula_sum "Si O2"
_cell_formula_units_Z 72
_cell_length_a 24.136249
_cell_length_b 24.136249
_cell_length_c 8.674631
_cell_angle_alpha 90.000000
_cell_angle_beta 90.000000
_cell_angle_gamma 120.000000
_cell_volume 4376.442196
_symmetry_space_group_name_H-M "P -6 2 C"
_symmetry_group_IT_number 190
_symmetry_cell_setting 'hexagonal'
loop_
_space_group_symop_operation_xyz
x,y,z
-x+y,-x,1/2-z
-y,x-y,z
x,y,1/2-z
-x+y,-x,z
-y,x-y,1/2-z
x-y,-y,-z
-x,-x+y,-z
y,x,-z
y,x,1/2+z
x-y,-y,1/2+z
-x,-x+y,1/2+z
loop_
_atom_site_type_symbol
_atom_site_label
_atom_site_fract_x
_atom_site_fract_y
_atom_site_fract_z
Si Si1 0.928078 0.856258 0.435208
Si Si2 0.519760 0.591991 0.065813
Si Si3 0.072037 0.357121 0.435049
Si Si4 0.928206 0.635438 0.933749
Si Si5 0.593249 0.072683 0.433851
Si Si6 0.849197 0.143237 0.065332
O O1 0.930198 0.861021 0.250000
O O2 0.888959 0.888959 0.500000
O O3 0.892810 0.781140 0.477562
O O4 0.000000 0.892705 0.500000
O O5 0.514247 0.583755 0.250000
O O6 0.567487 0.666610 0.031252
O O7 0.558195 0.558195 0.000000
O O8 0.449554 0.552169 0.992236
O O9 0.070310 0.349831 0.250000
O O10 0.112035 0.328336 0.511021
O O11 0.000000 0.318371 0.500000
O O12 0.931112 0.632958 0.750000
O O13 0.899319 0.563842 0.001448
O O14 0.890038 0.670159 0.986748
O O15 0.000000 0.676580 0.000000
O O16 0.593225 0.070496 0.250000
O O17 0.556611 0.000000 0.500000
O O18 0.841787 0.139566 0.250000
#
# Coordination Sequence:
#
# PCOD9586610 Si02
#       6
#    12  12  12  12  12  12
#     4  11  24  40  58  76  96 124 164 218 275 331
#     4   9  16  27  44  68  97 127 159 191 229 276
#     4  10  20  33  50  72 100 134 168 206 251 302
#     4  11  21  34  51  71  99 132 166 205 251 303
#     4  10  17  27  45  69  97 127 159 192 230 276
#     4  11  23  37  53  74 100 132 170 212 262 320
#
# _framework density 16.451720000000002
#
# number of rings (size 3 to 8) (size 9 to 14) (size 15 to 20)
#    0.000    1.667    0.000    8.167    0.000    7.333 
#    0.000    0.000    0.000    0.000    0.000    0.000 
#    1.667    0.000    3.000    0.000    3.000    0.000 
#
# Total GULP energy -401764.479779 kJ/mol
# GULP energy per Si atom -5580.062219 kJ/mol
# Density = 1.641427 g / cm^3
# Si number density = 16.451720 Si / 1000 Ang^3
#
#
#
# Elastic Constant Matrix: (Units=GPa)
#
#
# Indices 1 2 3 4 5 6 
#
# 1 111.6199 64.4966 51.7673 0.0000 0.0000 0.0000
# 2 64.4966 111.6199 51.7673 0.0000 0.0000 0.0000
# 3 51.7673 51.7673 113.4393 0.0000 0.0000 0.0000
# 4 0.0000 0.0000 0.0000 26.6812 0.0000 0.0000
# 5 0.0000 0.0000 0.0000 0.0000 26.6812 0.0000
# 6 0.0000 0.0000 0.0000 0.0000 0.0000 23.5617
#
#
#
# Elastic Compliance Matrix: (Units=1/GPa)
#
#
# Indices 1 2 3 4 5 6 
#
# 1 0.014490 -0.006731 -0.003541 0.000000 0.000000 0.000000
# 2 -0.006731 0.014490 -0.003541 0.000000 0.000000 0.000000
# 3 -0.003541 -0.003541 0.012047 0.000000 0.000000 0.000000
# 4 0.000000 0.000000 0.000000 0.037480 0.000000 0.000000
# 5 0.000000 0.000000 0.000000 0.000000 0.037480 0.000000
# 6 0.000000 0.000000 0.000000 0.000000 0.000000 0.042442
#
#
# Mechanical properties :
#
#
# Convention : Reuss Voigt Hill
#
# Bulk Modulus (GPa) = 74.61403 74.74903 74.68153
# Shear Modulus (GPa) = 26.24367 26.62800 26.43583
#
# Velocity S-wave (km/s) = 3.99832 4.02749 4.01293
# Velocity P-wave (km/s) = 8.17112 8.19522 8.18318
#
# Compressibility (1/GPa) = 0.01340230
#
# Stress axis : x y z
#
# Youngs Moduli (GPa) = 69.01138 69.01138 83.00661
#
# Poissons Ratio (x) = 0.46448 0.29394
# Poissons Ratio (y) = 0.46448 0.29394
# Poissons Ratio (z) = 0.24438 0.24438
#
# Static dielectric constant tensor:
#      x y z
#    x 1.550220 0.000000 0.000000 
#    y 0.000000 1.550220 0.000000 
#    z 0.000000 0.000000 1.548850 
# 
# From -- ./inp_files/1210.got.cif
#   From: 2010.05.17/outbox.cif.g08.bks.cpg/sg190_1_cif.got.tgz:1210.got - 2010.05.20 12:16:56.
