data_PCOD9586171
_publ_section_title
;
Structure prediction by ZEFSAII (Michael W. Deem and Ramdas Pophale) SiO2 
 PCOD9586171
Probable space group: P -6 2 M
;
_chemical_formula_sum "Si O2"
_cell_formula_units_Z 33
_cell_length_a 15.917238
_cell_length_b 15.917238
_cell_length_c 7.630086
_cell_angle_alpha 90.000000
_cell_angle_beta 90.000000
_cell_angle_gamma 120.000000
_cell_volume 1674.154308
_symmetry_space_group_name_H-M "P -6 2 M"
_symmetry_group_IT_number 189
_symmetry_cell_setting 'hexagonal'
loop_
_space_group_symop_operation_xyz
x,y,z
-x+y,-x,-z
-y,x-y,z
x,y,-z
-x+y,-x,z
-y,x-y,-z
x-y,-y,-z
-x,-x+y,-z
y,x,-z
y,x,z
x-y,-y,z
-x,-x+y,z
loop_
_atom_site_type_symbol
_atom_site_label
_atom_site_fract_x
_atom_site_fract_y
_atom_site_fract_z
Si Si1 0.728532 0.728532 0.698161
Si Si2 0.507935 0.396427 0.784502
Si Si3 0.726159 0.537930 0.795961
Si Si4 0.000000 0.108824 0.500000
O O1 0.692926 0.692926 0.500000
O O2 0.743312 0.645924 0.783853
O O3 0.828416 0.828416 0.665073
O O4 0.442051 0.442051 0.727936
O O5 0.619047 0.464769 0.724845
O O6 0.471585 0.286958 0.723855
O O7 0.488453 0.209091 0.000000
O O8 0.506881 0.398110 0.000000
O O9 0.090678 0.090678 0.500000
#
# Coordination Sequence:
#
# PCOD9586171 Si02
#       4
#     6  12  12   3
#     4  10  21  35  58  79 104 139 194 224 282 319
#     4   9  17  29  50  82 113 142 176 215 270 330
#     4  10  18  33  56  83 114 147 180 224 272 329
#     4   8  20  42  60  70  96 146 188 226 282 358
#
# _framework density 19.711442999999999
#
# number of rings (size 3 to 8) (size 9 to 14) (size 15 to 20)
#    0.727    1.818    1.818    1.273    0.000    4.364 
#    0.000    1.818    0.000    3.273    0.000    0.000 
#    0.000    0.000    0.000    0.000    0.000    0.000 
#
# Total GULP energy -183820.323126 kJ/mol
# GULP energy per Si atom -5570.312822 kJ/mol
# Density = 1.966658 g / cm^3
# Si number density = 19.711443 Si / 1000 Ang^3
#
#
#
# Elastic Constant Matrix: (Units=GPa)
#
#
# Indices 1 2 3 4 5 6 
#
# 1 180.5355 133.6979 -4.6925 0.0000 0.0000 0.0000
# 2 133.6979 180.5355 -4.6925 0.0000 0.0000 0.0000
# 3 -4.6925 -4.6925 29.4174 0.0000 0.0000 0.0000
# 4 0.0000 0.0000 0.0000 14.7236 0.0000 0.0000
# 5 0.0000 0.0000 0.0000 0.0000 14.7236 0.0000
# 6 0.0000 0.0000 0.0000 0.0000 0.0000 23.4188
#
#
#
# Elastic Compliance Matrix: (Units=1/GPa)
#
#
# Indices 1 2 3 4 5 6 
#
# 1 0.012274 -0.009076 0.000510 0.000000 0.000000 0.000000
# 2 -0.009076 0.012274 0.000510 0.000000 0.000000 0.000000
# 3 0.000510 0.000510 0.034156 0.000000 0.000000 0.000000
# 4 0.000000 0.000000 0.000000 0.067918 0.000000 0.000000
# 5 0.000000 0.000000 0.000000 0.000000 0.067918 0.000000
# 6 0.000000 0.000000 0.000000 0.000000 0.000000 0.042701
#
#
# Mechanical properties :
#
#
# Convention : Reuss Voigt Hill
#
# Bulk Modulus (GPa) = 23.47876 71.01269 47.24572
# Shear Modulus (GPa) = 18.68802 28.31823 23.50312
#
# Velocity S-wave (km/s) = 3.08243 3.79441 3.45680
# Velocity P-wave (km/s) = 4.96040 7.43647 6.32087
#
# Compressibility (1/GPa) = 0.04259169
#
# Stress axis : x y z
#
# Youngs Moduli (GPa) = 81.47317 81.47317 29.27720
#
# Poissons Ratio (x) = 0.73948 -0.01493
# Poissons Ratio (y) = 0.73948 -0.01493
# Poissons Ratio (z) = -0.04156 -0.04156
#
# Static dielectric constant tensor:
#      x y z
#    x 1.679280 0.000000 0.000000 
#    y 0.000000 1.679280 0.000000 
#    z 0.000000 0.000000 1.734290 
# 
# From -- ./inp_files/1565.got.cif
#   From: 2010.05.17/outbox.cif.g08.bks.cpg/sg189_1_cif.got.tgz:1565.got - 2010.05.20 12:14:34.
