data_PCOD9586903
_publ_section_title
;
Structure prediction by ZEFSAII (Michael W. Deem and Ramdas Pophale) SiO2 
 PCOD9586903
Probable space group: P -6 2 C
;
_chemical_formula_sum "Si O2"
_cell_formula_units_Z 52
_cell_length_a 11.476569
_cell_length_b 11.476569
_cell_length_c 22.344003
_cell_angle_alpha 90.000000
_cell_angle_beta 90.000000
_cell_angle_gamma 120.000000
_cell_volume 2548.682617
_symmetry_space_group_name_H-M "P -6 2 C"
_symmetry_group_IT_number 190
_symmetry_cell_setting 'hexagonal'
loop_
_space_group_symop_operation_xyz
x,y,z
-x+y,-x,1/2-z
-y,x-y,z
x,y,1/2-z
-x+y,-x,z
-y,x-y,1/2-z
x-y,-y,-z
-x,-x+y,-z
y,x,-z
y,x,1/2+z
x-y,-y,1/2+z
-x,-x+y,1/2+z
loop_
_atom_site_type_symbol
_atom_site_label
_atom_site_fract_x
_atom_site_fract_y
_atom_site_fract_z
Si Si1 0.609303 0.787699 0.626970
Si Si2 0.599596 0.716093 0.367014
Si Si3 0.378833 0.429742 0.319314
Si Si4 0.316732 0.156583 0.504517
Si Si5 0.333335 0.666667 0.820041
O O1 0.715395 0.739301 0.641878
O O2 0.595727 0.782722 0.555353
O O3 0.469251 0.679909 0.655752
O O4 0.637674 0.930433 0.652166
O O5 0.480947 0.563945 0.355812
O O6 0.581701 0.815410 0.323362
O O7 0.605636 0.772723 0.434167
O O8 0.422524 0.441147 0.250000
O O9 0.250268 0.250268 0.500000
O O10 0.201159 0.000000 0.500000
O O11 0.333334 0.666668 0.750000
#
# Coordination Sequence:
#
# PCOD9586903 Si02
#       5
#    12  12  12  12   4
#     4  11  24  43  70 100 132 184 236 292 358 421
#     4  11  25  45  70 103 137 188 236 291 364 433
#     4  12  25  43  69 101 144 187 235 296 356 433
#     4  10  21  42  69 100 137 175 226 291 355 421
#     4  12  24  42  66  93 135 177 226 293 349 423
#
# _framework density 20.402695999999999
#
# number of rings (size 3 to 8) (size 9 to 14) (size 15 to 20)
#    0.000    0.923    4.615    2.077    0.000    4.615 
#    5.538    0.000    0.000    0.000    0.000    0.000 
#    0.000    0.000    0.000    0.000    0.000    0.000 
#
# Total GULP energy -290413.443108 kJ/mol
# GULP energy per Si atom -5584.873906 kJ/mol
# Density = 2.035626 g / cm^3
# Si number density = 20.402696 Si / 1000 Ang^3
#
#
#
# Elastic Constant Matrix: (Units=GPa)
#
#
# Indices 1 2 3 4 5 6 
#
# 1 103.5198 36.8207 50.2912 0.0004 -0.0002 -0.0001
# 2 36.8207 103.5196 50.2909 -0.0007 -0.0002 -0.0001
# 3 50.2912 50.2909 156.3435 0.0010 -0.0004 -0.0001
# 4 0.0004 -0.0007 0.0010 1.8813 0.0009 0.0000
# 5 -0.0002 -0.0002 -0.0004 0.0009 1.8733 -0.0005
# 6 -0.0001 -0.0001 -0.0001 0.0000 -0.0005 33.3493
#
#
#
# Elastic Compliance Matrix: (Units=1/GPa)
#
#
# Indices 1 2 3 4 5 6 
#
# 1 0.012127 -0.002866 -0.002979 -0.000002 0.000000 0.000000
# 2 -0.002866 0.012127 -0.002979 0.000007 0.000000 0.000000
# 3 -0.002979 -0.002979 0.008313 -0.000005 0.000001 0.000000
# 4 -0.000002 0.000007 -0.000005 0.531551 -0.000241 0.000000
# 5 0.000000 0.000000 0.000001 -0.000241 0.533812 0.000009
# 6 0.000000 0.000000 0.000000 0.000000 0.000009 0.029986
#
#
# Mechanical properties :
#
#
# Convention : Reuss Voigt Hill
#
# Bulk Modulus (GPa) = 67.03214 70.90982 68.97098
# Shear Modulus (GPa) = 4.34581 22.48612 13.41596
#
# Velocity S-wave (km/s) = 1.46104 3.32341 2.56707
# Velocity P-wave (km/s) = 5.98097 7.03970 6.53182
#
# Compressibility (1/GPa) = 0.01491822
#
# Stress axis : x y z
#
# Youngs Moduli (GPa) = 82.46339 82.46341 120.29990
#
# Poissons Ratio (x) = 0.23635 0.35835
# Poissons Ratio (y) = 0.23635 0.35835
# Poissons Ratio (z) = 0.24564 0.24564
#
# Static dielectric constant tensor:
#      x y z
#    x 1.758240 0.000000 0.000000 
#    y 0.000000 1.758240 0.000000 
#    z 0.000000 0.000000 1.717490 
# 
# From -- ./inp_files/4200.got.cif
#   From: 2010.05.17/outbox.cif.g08.bks.cpg/sg190_3_cif.got.tgz:4200.got - 2010.05.20 12:16:56.
