data_PCOD9586382
_publ_section_title
;
Structure prediction by ZEFSAII (Michael W. Deem and Ramdas Pophale) SiO2 
 PCOD9586382
Probable space group: P -6 2 M
;
_chemical_formula_sum "Si O2"
_cell_formula_units_Z 72
_cell_length_a 23.340950
_cell_length_b 23.340950
_cell_length_c 9.111921
_cell_angle_alpha 90.000000
_cell_angle_beta 90.000000
_cell_angle_gamma 120.000000
_cell_volume 4299.100859
_symmetry_space_group_name_H-M "P -6 2 M"
_symmetry_group_IT_number 189
_symmetry_cell_setting 'hexagonal'
loop_
_space_group_symop_operation_xyz
x,y,z
-x+y,-x,-z
-y,x-y,z
x,y,-z
-x+y,-x,z
-y,x-y,-z
x-y,-y,-z
-x,-x+y,-z
y,x,-z
y,x,z
x-y,-y,z
-x,-x+y,z
loop_
_atom_site_type_symbol
_atom_site_label
_atom_site_fract_x
_atom_site_fract_y
_atom_site_fract_z
Si Si1 0.180718 0.619751 0.325280
Si Si2 0.268403 0.074536 0.326075
Si Si3 0.768659 0.289529 0.324892
Si Si4 0.799617 0.186532 0.824835
Si Si5 0.924121 0.849140 0.831950
Si Si6 0.922470 0.575195 0.177194
O O1 0.167221 0.614163 0.500000
O O2 0.248594 0.689401 0.302151
O O3 0.196094 0.562283 0.281392
O O4 0.120698 0.622191 0.244376
O O5 0.278903 0.080393 0.500000
O O6 0.328392 0.134584 0.244569
O O7 0.204636 0.079714 0.280949
O O8 0.250015 0.000000 0.281545
O O9 0.779430 0.286595 0.500000
O O10 0.793671 0.247889 0.234843
O O11 0.731063 0.119402 0.782396
O O12 0.803483 0.187346 0.000000
O O13 0.909647 0.909647 0.826418
O O14 0.000000 0.874184 0.803624
O O15 0.907926 0.822667 0.000000
O O16 0.000000 0.614985 0.222179
O O17 0.921000 0.570070 0.000000
#
# Coordination Sequence:
#
# PCOD9586382 Si02
#       6
#    12  12  12  12  12  12
#     4   9  17  30  51  77 103 132 165 200 242 294
#     4  10  21  36  52  71  97 128 163 206 253 296
#     4   9  17  31  51  76 105 133 162 200 245 292
#     4  10  20  34  53  75  98 129 170 210 250 300
#     4   9  17  30  49  72  97 125 157 194 238 290
#     4   9  19  35  52  72 102 136 167 205 252 296
#
# _framework density 16.747688
#
# number of rings (size 3 to 8) (size 9 to 14) (size 15 to 20)
#    0.000    2.667    0.000    1.500    0.000    5.667 
#    0.000    2.500    0.000    4.000    0.000    0.000 
#    0.000    0.000    0.000    0.000    0.000    0.000 
#
# Total GULP energy -401139.223277 kJ/mol
# GULP energy per Si atom -5571.378101 kJ/mol
# Density = 1.670957 g / cm^3
# Si number density = 16.747688 Si / 1000 Ang^3
#
#
#
# Elastic Constant Matrix: (Units=GPa)
#
#
# Indices 1 2 3 4 5 6 
#
# 1 116.1722 84.2790 47.3621 0.0000 0.0000 0.0000
# 2 84.2790 116.1722 47.3621 0.0000 0.0000 0.0000
# 3 47.3621 47.3621 36.4544 0.0000 0.0000 0.0000
# 4 0.0000 0.0000 0.0000 26.9636 0.0000 0.0000
# 5 0.0000 0.0000 0.0000 0.0000 26.9636 0.0000
# 6 0.0000 0.0000 0.0000 0.0000 0.0000 15.9466
#
#
#
# Elastic Compliance Matrix: (Units=1/GPa)
#
#
# Indices 1 2 3 4 5 6 
#
# 1 0.022139 -0.009216 -0.016789 0.000000 0.000000 0.000000
# 2 -0.009216 0.022139 -0.016789 0.000000 0.000000 0.000000
# 3 -0.016789 -0.016789 0.071057 0.000000 0.000000 0.000000
# 4 0.000000 0.000000 0.000000 0.037087 0.000000 0.000000
# 5 0.000000 0.000000 0.000000 0.000000 0.037087 0.000000
# 6 0.000000 0.000000 0.000000 0.000000 0.000000 0.062709
#
#
# Mechanical properties :
#
#
# Convention : Reuss Voigt Hill
#
# Bulk Modulus (GPa) = 33.61857 69.64502 51.63179
# Shear Modulus (GPa) = 14.37931 19.96113 17.17022
#
# Velocity S-wave (km/s) = 2.93334 3.45610 3.20539
# Velocity P-wave (km/s) = 5.62048 7.58955 6.67799
#
# Compressibility (1/GPa) = 0.02974547
#
# Stress axis : x y z
#
# Youngs Moduli (GPa) = 45.16999 45.16999 14.07317
#
# Poissons Ratio (x) = 0.41629 0.23628
# Poissons Ratio (y) = 0.41629 0.23628
# Poissons Ratio (z) = 0.75837 0.75837
#
# Static dielectric constant tensor:
#      x y z
#    x 1.564470 0.000000 0.000000 
#    y 0.000000 1.564470 0.000000 
#    z 0.000000 0.000000 1.562020 
# 
# From -- ./inp_files/1222.got.cif
#   From: 2010.05.17/outbox.cif.g08.bks.cpg/sg189_1_cif.got.tgz:1222.got - 2010.05.20 12:14:34.
