data_PCOD9586865
_publ_section_title
;
Structure prediction by ZEFSAII (Michael W. Deem and Ramdas Pophale) SiO2 
 PCOD9586865
Probable space group: P -6 2 C
;
_chemical_formula_sum "Si O2"
_cell_formula_units_Z 76
_cell_length_a 18.573199
_cell_length_b 18.573199
_cell_length_c 14.660116
_cell_angle_alpha 90.000000
_cell_angle_beta 90.000000
_cell_angle_gamma 120.000000
_cell_volume 4379.670745
_symmetry_space_group_name_H-M "P -6 2 C"
_symmetry_group_IT_number 190
_symmetry_cell_setting 'hexagonal'
loop_
_space_group_symop_operation_xyz
x,y,z
-x+y,-x,1/2-z
-y,x-y,z
x,y,1/2-z
-x+y,-x,z
-y,x-y,1/2-z
x-y,-y,-z
-x,-x+y,-z
y,x,-z
y,x,1/2+z
x-y,-y,1/2+z
-x,-x+y,1/2+z
loop_
_atom_site_type_symbol
_atom_site_label
_atom_site_fract_x
_atom_site_fract_y
_atom_site_fract_z
Si Si1 0.158155 0.994418 0.149043
Si Si2 0.333456 0.288174 0.640934
Si Si3 0.826622 0.131765 0.145190
Si Si4 0.000000 0.000000 0.108325
Si Si5 0.511350 0.693891 0.139719
Si Si6 0.194195 0.870860 0.453420
Si Si7 0.363863 0.517515 0.139928
O O1 0.173161 0.971074 0.250000
O O2 0.211591 0.094522 0.142216
O O3 0.063092 0.970103 0.139935
O O4 0.185715 0.949148 0.076521
O O5 0.333017 0.273334 0.750000
O O6 0.260653 0.309287 0.625087
O O7 0.315786 0.205656 0.588501
O O8 0.428767 0.354953 0.614917
O O9 0.823406 0.158312 0.250000
O O10 0.850659 0.194349 0.060373
O O11 0.000000 0.000000 0.000000
O O12 0.517479 0.694432 0.250000
O O13 0.601189 0.727941 0.095877
O O14 0.443123 0.602162 0.107756
O O15 0.485377 0.763067 0.115077
O O16 0.367714 0.521689 0.250000
#
# Coordination Sequence:
#
# PCOD9586865 Si02
#       7
#    12  12  12   4  12  12  12
#     4  11  22  35  49  68  95 127 165 208 249 287
#     4   9  17  30  48  72 100 132 167 203 244 292
#     4  10  21  34  48  65  92 132 174 209 240 282
#     4  12  22  32  46  66  94 131 170 206 235 270
#     4   9  16  27  48  79 107 129 152 190 248 308
#     4  11  19  31  49  71  97 128 163 205 251 298
#     4   8  14  25  44  73 108 133 153 189 243 303
#
# _framework density 17.352902
#
# number of rings (size 3 to 8) (size 9 to 14) (size 15 to 20)
#    0.000    2.211    0.000    6.000    0.000    2.526 
#    0.000    0.000    0.000    7.579    0.000    8.842 
#    0.000    0.000    0.000    0.947    0.000   20.684 
#
# Total GULP energy -423393.091325 kJ/mol
# GULP energy per Si atom -5570.961728 kJ/mol
# Density = 1.731341 g / cm^3
# Si number density = 17.352902 Si / 1000 Ang^3
#
#
#
# Elastic Constant Matrix: (Units=GPa)
#
#
# Indices 1 2 3 4 5 6 
#
# 1 90.0558 49.6686 32.6544 0.0000 0.0000 0.0000
# 2 49.6686 90.0558 32.6544 0.0000 0.0000 0.0000
# 3 32.6544 32.6544 72.4308 0.0000 0.0000 0.0000
# 4 0.0000 0.0000 0.0000 10.8587 0.0000 0.0000
# 5 0.0000 0.0000 0.0000 0.0000 10.8587 0.0000
# 6 0.0000 0.0000 0.0000 0.0000 0.0000 20.1936
#
#
#
# Elastic Compliance Matrix: (Units=1/GPa)
#
#
# Indices 1 2 3 4 5 6 
#
# 1 0.016914 -0.007846 -0.004088 0.000000 0.000000 0.000000
# 2 -0.007846 0.016914 -0.004088 0.000000 0.000000 0.000000
# 3 -0.004088 -0.004088 0.017492 0.000000 0.000000 0.000000
# 4 0.000000 0.000000 0.000000 0.092092 0.000000 0.000000
# 5 0.000000 0.000000 0.000000 0.000000 0.092092 0.000000
# 6 0.000000 0.000000 0.000000 0.000000 0.000000 0.049521
#
#
# Mechanical properties :
#
#
# Convention : Reuss Voigt Hill
#
# Bulk Modulus (GPa) = 51.87899 53.61077 52.74488
# Shear Modulus (GPa) = 15.45618 17.55320 16.50469
#
# Velocity S-wave (km/s) = 2.98769 3.18393 3.08737
# Velocity P-wave (km/s) = 6.47017 6.66918 6.57043
#
# Compressibility (1/GPa) = 0.01927562
#
# Stress axis : x y z
#
# Youngs Moduli (GPa) = 59.12247 59.12247 57.16778
#
# Poissons Ratio (x) = 0.46389 0.23371
# Poissons Ratio (y) = 0.46389 0.23371
# Poissons Ratio (z) = 0.24170 0.24170
#
# Static dielectric constant tensor:
#      x y z
#    x 1.597160 0.000000 0.000000 
#    y 0.000000 1.597160 0.000000 
#    z 0.000000 0.000000 1.636830 
# 
# From -- ./inp_files/3085.got.cif
#   From: 2010.05.17/outbox.cif.g08.bks.cpg/sg190_2_cif.got.tgz:3085.got - 2010.05.20 12:16:56.
