data_PCOD9586869
_publ_section_title
;
Structure prediction by ZEFSAII (Michael W. Deem and Ramdas Pophale) SiO2 
 PCOD9586869
Probable space group: P -6 2 C
;
_chemical_formula_sum "Si O2"
_cell_formula_units_Z 52
_cell_length_a 12.779462
_cell_length_b 12.779462
_cell_length_c 21.282259
_cell_angle_alpha 90.000000
_cell_angle_beta 90.000000
_cell_angle_gamma 120.000000
_cell_volume 3010.048530
_symmetry_space_group_name_H-M "P -6 2 C"
_symmetry_group_IT_number 190
_symmetry_cell_setting 'hexagonal'
loop_
_space_group_symop_operation_xyz
x,y,z
-x+y,-x,1/2-z
-y,x-y,z
x,y,1/2-z
-x+y,-x,z
-y,x-y,1/2-z
x-y,-y,-z
-x,-x+y,-z
y,x,-z
y,x,1/2+z
x-y,-y,1/2+z
-x,-x+y,1/2+z
loop_
_atom_site_type_symbol
_atom_site_label
_atom_site_fract_x
_atom_site_fract_y
_atom_site_fract_z
Si Si1 0.755495 0.007430 0.678423
Si Si2 0.674012 0.084473 0.943148
Si Si3 0.666668 0.333333 0.676263
Si Si4 0.253181 0.007820 0.321843
Si Si5 0.663679 0.536260 0.593762
O O1 0.714623 0.011017 0.750000
O O2 0.748189 0.879476 0.668782
O O3 0.684012 0.031532 0.624032
O O4 0.893673 0.117076 0.673795
O O5 0.791855 0.217272 0.947687
O O6 0.553841 0.095161 0.941520
O O7 0.665845 0.000000 0.000000
O O8 0.666667 0.333334 0.750000
O O9 0.674872 0.454160 0.648678
O O10 0.294826 0.008139 0.250000
O O11 0.329271 0.981211 0.372907
#
# Coordination Sequence:
#
# PCOD9586869 Si02
#       5
#    12  12   4  12  12
#     4   9  18  32  52  77 104 131 162 201 247 298
#     4  10  21  36  52  73 101 132 170 213 253 299
#     4   9  15  27  48  75 102 126 163 218 259 294
#     4   9  16  29  50  76 102 129 160 199 248 300
#     4   9  19  32  49  73  99 132 171 207 253 303
#
# _framework density 17.275469999999999
#
# number of rings (size 3 to 8) (size 9 to 14) (size 15 to 20)
#    0.000    2.769    0.000    1.615    0.000   10.154 
#    0.000    3.462    0.000    0.923    0.000    0.000 
#    0.000    0.000    0.000    0.000    0.000    0.000 
#
# Total GULP energy -289883.641976 kJ/mol
# GULP energy per Si atom -5574.685423 kJ/mol
# Density = 1.723615 g / cm^3
# Si number density = 17.275470 Si / 1000 Ang^3
#
#
#
# Elastic Constant Matrix: (Units=GPa)
#
#
# Indices 1 2 3 4 5 6 
#
# 1 54.9442 15.7911 30.6987 -0.0001 0.0000 0.0003
# 2 15.7911 54.9445 30.6986 -0.0001 0.0000 -0.0001
# 3 30.6987 30.6986 74.8058 -0.0001 0.0000 -0.0001
# 4 -0.0001 -0.0001 -0.0001 14.0456 0.0000 0.0000
# 5 0.0000 0.0000 0.0000 0.0000 14.0457 0.0000
# 6 0.0003 -0.0001 -0.0001 0.0000 0.0000 19.5764
#
#
#
# Elastic Compliance Matrix: (Units=1/GPa)
#
#
# Indices 1 2 3 4 5 6 
#
# 1 0.023750 -0.001791 -0.009012 0.000000 0.000000 0.000000
# 2 -0.001791 0.023750 -0.009011 0.000000 0.000000 0.000000
# 3 -0.009012 -0.009011 0.020764 0.000000 0.000000 0.000000
# 4 0.000000 0.000000 0.000000 0.071197 0.000000 0.000000
# 5 0.000000 0.000000 0.000000 0.000000 0.071196 0.000000
# 6 0.000000 0.000000 0.000000 0.000000 0.000000 0.051082
#
#
# Mechanical properties :
#
#
# Convention : Reuss Voigt Hill
#
# Bulk Modulus (GPa) = 34.92078 37.67457 36.29768
# Shear Modulus (GPa) = 16.08174 16.70062 16.39118
#
# Velocity S-wave (km/s) = 3.05438 3.11259 3.08362
# Velocity P-wave (km/s) = 5.71812 5.89687 5.80819
#
# Compressibility (1/GPa) = 0.02863624
#
# Stress axis : x y z
#
# Youngs Moduli (GPa) = 42.10538 42.10577 48.15985
#
# Poissons Ratio (x) = 0.07540 0.43399
# Poissons Ratio (y) = 0.07540 0.43399
# Poissons Ratio (z) = 0.37943 0.37943
#
# Static dielectric constant tensor:
#      x y z
#    x 1.582730 0.000000 0.000000 
#    y 0.000000 1.582730 0.000000 
#    z 0.000000 0.000000 1.583100 
# 
# From -- ./inp_files/2724.got.cif
#   From: 2010.05.17/outbox.cif.g08.bks.cpg/sg190_2_cif.got.tgz:2724.got - 2010.05.20 12:16:56.
