data_PCOD9586387
_publ_section_title
;
Structure prediction by ZEFSAII (Michael W. Deem and Ramdas Pophale) SiO2 
 PCOD9586387
Probable space group: P -6 2 M
;
_chemical_formula_sum "Si O2"
_cell_formula_units_Z 60
_cell_length_a 21.475204
_cell_length_b 21.475204
_cell_length_c 7.712755
_cell_angle_alpha 90.000000
_cell_angle_beta 90.000000
_cell_angle_gamma 120.000000
_cell_volume 3080.454254
_symmetry_space_group_name_H-M "P -6 2 M"
_symmetry_group_IT_number 189
_symmetry_cell_setting 'hexagonal'
loop_
_space_group_symop_operation_xyz
x,y,z
-x+y,-x,-z
-y,x-y,z
x,y,-z
-x+y,-x,z
-y,x-y,-z
x-y,-y,-z
-x,-x+y,-z
y,x,-z
y,x,z
x-y,-y,z
-x,-x+y,z
loop_
_atom_site_type_symbol
_atom_site_label
_atom_site_fract_x
_atom_site_fract_y
_atom_site_fract_z
Si Si1 0.080569 0.701555 0.707801
Si Si2 0.818823 0.460255 0.790939
Si Si3 0.853515 0.207433 0.707476
Si Si4 0.000000 0.221915 0.704169
Si Si5 0.690400 0.485776 0.209373
Si Si6 0.078591 0.000000 0.791505
O O1 0.077720 0.707698 0.500000
O O2 0.113478 0.649926 0.742158
O O3 0.138678 0.780513 0.776632
O O4 0.000000 0.668541 0.776509
O O5 0.818750 0.389304 0.727942
O O6 0.747938 0.462469 0.730440
O O7 0.815541 0.456848 0.000000
O O8 0.852926 0.197776 0.500000
O O9 0.926661 0.214279 0.778068
O O10 0.845529 0.276984 0.739745
O O11 0.000000 0.237508 0.500000
O O12 0.000000 0.147333 0.719601
O O13 0.689569 0.483122 0.000000
O O14 0.067363 0.067363 0.742154
O O15 0.083397 0.000000 0.000000
#
# Coordination Sequence:
#
# PCOD9586387 Si02
#       6
#    12  12  12   6  12   6
#     4   9  18  33  50  69  95 129 165 201 246 293
#     4   9  17  30  50  73  98 125 161 207 247 290
#     4   9  19  34  50  71 101 132 166 206 245 295
#     4  10  20  34  54  78 102 133 170 207 248 293
#     4   9  17  31  50  73  98 129 165 205 253 297
#     4   8  18  36  54  76 106 131 156 199 250 299
#
# _framework density 19.477644999999999
#
# number of rings (size 3 to 8) (size 9 to 14) (size 15 to 20)
#    0.200    2.800    0.000    0.400    0.000    4.800 
#    1.800    2.000    0.000    2.400    0.000    0.000 
#    0.000    0.000    0.000    0.000    0.000    0.000 
#
# Total GULP energy -334406.467964 kJ/mol
# GULP energy per Si atom -5573.441133 kJ/mol
# Density = 1.943331 g / cm^3
# Si number density = 19.477645 Si / 1000 Ang^3
#
#
#
# Elastic Constant Matrix: (Units=GPa)
#
#
# Indices 1 2 3 4 5 6 
#
# 1 149.0284 111.0491 1.5923 0.0000 0.0000 0.0000
# 2 111.0491 149.0284 1.5923 0.0000 0.0000 0.0000
# 3 1.5923 1.5923 27.6186 0.0000 0.0000 0.0000
# 4 0.0000 0.0000 0.0000 11.0291 0.0000 0.0000
# 5 0.0000 0.0000 0.0000 0.0000 11.0291 0.0000
# 6 0.0000 0.0000 0.0000 0.0000 0.0000 18.9896
#
#
#
# Elastic Compliance Matrix: (Units=1/GPa)
#
#
# Indices 1 2 3 4 5 6 
#
# 1 0.015089 -0.011241 -0.000222 0.000000 0.000000 0.000000
# 2 -0.011241 0.015089 -0.000222 0.000000 0.000000 0.000000
# 3 -0.000222 -0.000222 0.036233 0.000000 0.000000 0.000000
# 4 0.000000 0.000000 0.000000 0.090669 0.000000 0.000000
# 5 0.000000 0.000000 0.000000 0.000000 0.090669 0.000000
# 6 0.000000 0.000000 0.000000 0.000000 0.000000 0.052660
#
#
# Mechanical properties :
#
#
# Convention : Reuss Voigt Hill
#
# Bulk Modulus (GPa) = 23.23357 61.57144 42.40251
# Shear Modulus (GPa) = 14.78735 22.30567 18.54651
#
# Velocity S-wave (km/s) = 2.75834 3.38774 3.08911
# Velocity P-wave (km/s) = 4.70094 6.85437 5.87712
#
# Compressibility (1/GPa) = 0.04304116
#
# Stress axis : x y z
#
# Youngs Moduli (GPa) = 66.27373 66.27373 27.59910
#
# Poissons Ratio (x) = 0.74500 0.00612
# Poissons Ratio (y) = 0.74500 0.00612
# Poissons Ratio (z) = 0.01470 0.01470
#
# Static dielectric constant tensor:
#      x y z
#    x 1.675100 0.000000 0.000000 
#    y 0.000000 1.675100 0.000000 
#    z 0.000000 0.000000 1.721730 
# 
# From -- ./inp_files/974.got.cif
#   From: 2010.05.17/outbox.cif.g08.bks.cpg/sg189_1_cif.got.tgz:974.got - 2010.05.20 12:14:34.
