data_PCOD9586137
_publ_section_title
;
Structure prediction by ZEFSAII (Michael W. Deem and Ramdas Pophale) SiO2 
 PCOD9586137
Probable space group: P -6 2 M
;
_chemical_formula_sum "Si O2"
_cell_formula_units_Z 82
_cell_length_a 21.927273
_cell_length_b 21.927273
_cell_length_c 12.771312
_cell_angle_alpha 90.000000
_cell_angle_beta 90.000000
_cell_angle_gamma 120.000000
_cell_volume 5317.841561
_symmetry_space_group_name_H-M "P -6 2 M"
_symmetry_group_IT_number 189
_symmetry_cell_setting 'hexagonal'
loop_
_space_group_symop_operation_xyz
x,y,z
-x+y,-x,-z
-y,x-y,z
x,y,-z
-x+y,-x,z
-y,x-y,-z
x-y,-y,-z
-x,-x+y,-z
y,x,-z
y,x,z
x-y,-y,z
-x,-x+y,z
loop_
_atom_site_type_symbol
_atom_site_label
_atom_site_fract_x
_atom_site_fract_y
_atom_site_fract_z
Si Si1 0.446746 0.654054 0.754645
Si Si2 0.376934 0.298942 0.124579
Si Si3 0.916188 0.345495 0.375078
Si Si4 0.333333 0.666667 0.622042
Si Si5 0.318236 0.527323 0.125275
Si Si6 0.083476 0.916234 0.000000
Si Si7 0.201259 0.915811 0.380153
Si Si8 0.756770 0.918553 0.789708
O O1 0.507010 0.643374 0.700205
O O2 0.399917 0.662908 0.665489
O O3 0.389614 0.589659 0.824816
O O4 0.474399 0.724260 0.824834
O O5 0.362924 0.362924 0.147506
O O6 0.454012 0.314467 0.150064
O O7 0.316709 0.230890 0.182006
O O8 0.366145 0.284955 0.000000
O O9 0.904250 0.351611 0.500000
O O10 0.902109 0.266107 0.357850
O O11 0.000000 0.398186 0.355383
O O12 0.333334 0.666668 0.500000
O O13 0.318618 0.536464 0.000000
O O14 0.097566 0.884029 0.895501
O O15 0.000000 0.888771 0.000000
O O16 0.128666 0.000000 0.000000
O O17 0.178337 0.893441 0.500000
O O18 0.137392 0.879455 0.300139
O O19 0.235700 0.000000 0.374731
O O20 0.811045 0.000000 0.760496
#
# Coordination Sequence:
#
# PCOD9586137 Si02
#       8
#    12  12  12   4  12   6  12  12
#     4  10  19  31  49  73  96 123 166 200 240 297
#     4   9  17  31  48  68  92 121 159 195 236 288
#     4   9  18  33  53  74  98 129 163 205 255 302
#     4   9  18  30  46  68  94 120 150 198 244 284
#     4  10  20  32  49  70  97 133 161 199 243 288
#     4  10  19  30  46  70  98 128 160 202 254 302
#     4   9  18  32  49  70  96 128 165 201 244 300
#     4  10  18  30  49  71  96 125 164 207 246 295
#
# _framework density 15.419790000000001
#
# number of rings (size 3 to 8) (size 9 to 14) (size 15 to 20)
#    0.000    2.488    0.732    3.439    0.000    0.878 
#    0.000    0.000    0.000    2.488    0.000    0.000 
#    0.000    0.000    0.000    0.000    0.000    0.000 
#
# Total GULP energy -456922.337967 kJ/mol
# GULP energy per Si atom -5572.223634 kJ/mol
# Density = 1.538469 g / cm^3
# Si number density = 15.419790 Si / 1000 Ang^3
#
#
#
# Elastic Constant Matrix: (Units=GPa)
#
#
# Indices 1 2 3 4 5 6 
#
# 1 96.3283 64.1691 62.7389 0.0000 -0.0001 0.0001
# 2 64.1691 96.3294 62.7397 0.0000 0.0000 -0.0001
# 3 62.7389 62.7397 90.9772 0.0000 0.0000 0.0001
# 4 0.0000 0.0000 0.0000 21.9265 0.0000 0.0000
# 5 -0.0001 0.0000 0.0000 0.0000 21.9265 0.0000
# 6 0.0001 -0.0001 0.0001 0.0000 0.0000 16.0796
#
#
#
# Elastic Compliance Matrix: (Units=1/GPa)
#
#
# Indices 1 2 3 4 5 6 
#
# 1 0.022307 -0.008788 -0.009323 0.000000 0.000000 0.000000
# 2 -0.008788 0.022307 -0.009324 0.000000 0.000000 0.000000
# 3 -0.009323 -0.009324 0.023851 0.000000 0.000000 0.000000
# 4 0.000000 0.000000 0.000000 0.045607 0.000000 0.000000
# 5 0.000000 0.000000 0.000000 0.000000 0.045607 0.000000
# 6 0.000000 0.000000 0.000000 0.000000 0.000000 0.062190
#
#
# Mechanical properties :
#
#
# Convention : Reuss Voigt Hill
#
# Bulk Modulus (GPa) = 73.54723 73.65893 73.60308
# Shear Modulus (GPa) = 17.77647 18.25234 18.01441
#
# Velocity S-wave (km/s) = 3.39903 3.44422 3.42170
# Velocity P-wave (km/s) = 7.95014 7.98058 7.96537
#
# Compressibility (1/GPa) = 0.01359670
#
# Stress axis : x y z
#
# Youngs Moduli (GPa) = 44.82837 44.82846 41.92710
#
# Poissons Ratio (x) = 0.39393 0.39090
# Poissons Ratio (y) = 0.39393 0.39091
# Poissons Ratio (z) = 0.41795 0.41796
#
# Static dielectric constant tensor:
#      x y z
#    x 1.502400 0.000000 0.000000 
#    y 0.000000 1.502400 0.000000 
#    z 0.000000 0.000000 1.495710 
# 
# From -- ./inp_files/2176.got.cif
#   From: 2010.05.17/outbox.cif.g08.bks.cpg/sg189_2_cif.got.tgz:2176.got - 2010.05.20 12:14:34.
