data_PCOD9586808
_publ_section_title
;
Structure prediction by ZEFSAII (Michael W. Deem and Ramdas Pophale) SiO2 
 PCOD9586808
Probable space group: P -6 2 C
;
_chemical_formula_sum "Si O2"
_cell_formula_units_Z 90
_cell_length_a 17.078067
_cell_length_b 17.078067
_cell_length_c 18.140251
_cell_angle_alpha 90.000000
_cell_angle_beta 90.000000
_cell_angle_gamma 120.000000
_cell_volume 4581.960593
_symmetry_space_group_name_H-M "P -6 2 C"
_symmetry_group_IT_number 190
_symmetry_cell_setting 'hexagonal'
loop_
_space_group_symop_operation_xyz
x,y,z
-x+y,-x,1/2-z
-y,x-y,z
x,y,1/2-z
-x+y,-x,z
-y,x-y,1/2-z
x-y,-y,-z
-x,-x+y,-z
y,x,-z
y,x,1/2+z
x-y,-y,1/2+z
-x,-x+y,1/2+z
loop_
_atom_site_type_symbol
_atom_site_label
_atom_site_fract_x
_atom_site_fract_y
_atom_site_fract_z
Si Si1 0.606031 0.388396 0.250000
Si Si2 0.802502 0.039772 0.663638
Si Si3 0.774839 0.733090 0.663715
Si Si4 0.387290 0.103169 0.529172
Si Si5 0.844854 0.683832 0.396245
Si Si6 0.653624 0.129947 0.127935
Si Si7 0.432611 0.540518 0.021566
Si Si8 0.564552 0.918633 0.334574
O O1 0.711652 0.431225 0.250000
O O2 0.565514 0.401396 0.323623
O O3 0.794083 0.010484 0.750000
O O4 0.905228 0.116916 0.648618
O O5 0.743916 0.090291 0.656723
O O6 0.756971 0.951152 0.612688
O O7 0.763143 0.712244 0.750000
O O8 0.735181 0.644331 0.613293
O O9 0.725756 0.789053 0.641483
O O10 0.345591 0.151308 0.478985
O O11 0.493534 0.139981 0.520637
O O12 0.337808 0.000000 0.500000
O O13 0.832361 0.592166 0.359048
O O14 0.606947 0.025525 0.150891
O O15 0.639459 0.147239 0.043812
O O16 0.383498 0.507970 0.100248
O O17 0.487556 0.487556 0.000000
O O18 0.531997 0.896052 0.250000
#
# Coordination Sequence:
#
# PCOD9586808 Si02
#       8
#     6  12  12  12  12  12  12  12
#     4  10  24  36  50  84 120 146 186 230 300 372
#     4   9  19  35  56  87 119 150 209 260 302 366
#     4  10  21  37  56  84 122 157 203 263 311 355
#     4   9  20  36  52  82 113 147 199 245 291 374
#     4  10  21  36  62  81 115 167 205 247 313 377
#     4  10  20  36  55  80 114 153 194 240 299 377
#     4   9  19  34  54  83 113 145 192 243 297 352
#     4   9  17  33  57  83 110 146 197 253 295 354
#
# _framework density 19.642244999999999
#
# number of rings (size 3 to 8) (size 9 to 14) (size 15 to 20)
#    0.133    2.400    0.667    0.400    5.600    1.067 
#    0.800    0.000    0.000    0.000    0.000    0.000 
#    0.000    0.000    0.000    0.000    0.000    0.000 
#
# Total GULP energy -501237.481068 kJ/mol
# GULP energy per Si atom -5569.305345 kJ/mol
# Density = 1.959754 g / cm^3
# Si number density = 19.642245 Si / 1000 Ang^3
#
#
#
# Elastic Constant Matrix: (Units=GPa)
#
#
# Indices 1 2 3 4 5 6 
#
# 1 48.9152 13.3960 28.2105 0.0000 0.0000 0.0000
# 2 13.3960 48.9152 28.2105 0.0000 0.0000 0.0000
# 3 28.2105 28.2105 121.1832 0.0000 0.0000 0.0000
# 4 0.0000 0.0000 0.0000 9.9492 0.0000 0.0000
# 5 0.0000 0.0000 0.0000 0.0000 9.9492 0.0000
# 6 0.0000 0.0000 0.0000 0.0000 0.0000 17.7596
#
#
#
# Elastic Compliance Matrix: (Units=1/GPa)
#
#
# Indices 1 2 3 4 5 6 
#
# 1 0.024244 -0.003909 -0.004734 0.000000 0.000000 0.000000
# 2 -0.003909 0.024244 -0.004734 0.000000 0.000000 0.000000
# 3 -0.004734 -0.004734 0.010456 0.000000 0.000000 0.000000
# 4 0.000000 0.000000 0.000000 0.100511 0.000000 0.000000
# 5 0.000000 0.000000 0.000000 0.000000 0.100511 0.000000
# 6 0.000000 0.000000 0.000000 0.000000 0.000000 0.056307
#
#
# Mechanical properties :
#
#
# Convention : Reuss Voigt Hill
#
# Bulk Modulus (GPa) = 31.06519 39.84975 35.45747
# Shear Modulus (GPa) = 14.13397 17.47805 15.80601
#
# Velocity S-wave (km/s) = 2.68539 2.98622 2.83979
# Velocity P-wave (km/s) = 5.04628 5.67643 5.37060
#
# Compressibility (1/GPa) = 0.03219037
#
# Stress axis : x y z
#
# Youngs Moduli (GPa) = 41.24689 41.24689 95.63942
#
# Poissons Ratio (x) = 0.16125 0.45274
# Poissons Ratio (y) = 0.16125 0.45274
# Poissons Ratio (z) = 0.19525 0.19525
#
# Static dielectric constant tensor:
#      x y z
#    x 1.705050 0.000000 0.000000 
#    y 0.000000 1.705050 0.000000 
#    z 0.000000 0.000000 1.552660 
# 
# From -- ./inp_files/3944.got.cif
#   From: 2010.05.17/outbox.cif.g08.bks.cpg/sg190_2_cif.got.tgz:3944.got - 2010.05.20 12:16:56.
