data_PCOD9586515
_publ_section_title
;
Structure prediction by ZEFSAII (Michael W. Deem and Ramdas Pophale) SiO2 
 PCOD9586515
Probable space group: P -6 2 M
;
_chemical_formula_sum "Si O2"
_cell_formula_units_Z 32
_cell_length_a 11.649437
_cell_length_b 11.649437
_cell_length_c 14.521656
_cell_angle_alpha 90.000000
_cell_angle_beta 90.000000
_cell_angle_gamma 120.000000
_cell_volume 1706.697886
_symmetry_space_group_name_H-M "P -6 2 M"
_symmetry_group_IT_number 189
_symmetry_cell_setting 'hexagonal'
loop_
_space_group_symop_operation_xyz
x,y,z
-x+y,-x,-z
-y,x-y,z
x,y,-z
-x+y,-x,z
-y,x-y,-z
x-y,-y,-z
-x,-x+y,-z
y,x,-z
y,x,z
x-y,-y,z
-x,-x+y,z
loop_
_atom_site_type_symbol
_atom_site_label
_atom_site_fract_x
_atom_site_fract_y
_atom_site_fract_z
Si Si1 0.154302 0.308624 0.107107
Si Si2 0.000000 0.000000 0.387973
Si Si3 0.782991 0.281568 0.726488
Si Si4 0.735899 0.735899 0.610115
O O1 0.246010 0.246010 0.132029
O O2 0.178955 0.426523 0.175166
O O3 0.000000 0.197291 0.114869
O O4 0.179072 0.350236 0.000000
O O5 0.131754 0.000000 0.358600
O O6 0.000000 0.000000 0.500000
O O7 0.806339 0.430006 0.717788
O O8 0.870301 0.259624 0.651868
O O9 0.730652 0.730652 0.500000
#
# Coordination Sequence:
#
# PCOD9586515 Si02
#       4
#    12   2  12   6
#     4  10  21  38  64  97 133 175 222 273 327 387
#     4   9  24  45  69 102 121 155 220 270 336 384
#     4  10  25  40  62  94 133 172 220 258 325 399
#     4  11  24  45  70  98 129 167 221 284 335 388
#
# _framework density 18.749656999999999
#
# number of rings (size 3 to 8) (size 9 to 14) (size 15 to 20)
#    0.750    1.125    1.875    0.375    5.250    4.500 
#    0.000    5.625    0.000    0.000    0.000    0.000 
#    0.000    0.000    0.000    0.000    0.000    0.000 
#
# Total GULP energy -178476.313049 kJ/mol
# GULP energy per Si atom -5577.384783 kJ/mol
# Density = 1.870698 g / cm^3
# Si number density = 18.749657 Si / 1000 Ang^3
#
#
#
# Elastic Constant Matrix: (Units=GPa)
#
#
# Indices 1 2 3 4 5 6 
#
# 1 125.6688 58.2903 60.9695 0.0000 0.0000 0.0000
# 2 58.2903 125.6688 60.9695 0.0000 0.0000 0.0000
# 3 60.9695 60.9695 103.6620 0.0000 0.0000 0.0000
# 4 0.0000 0.0000 0.0000********** -0.0244 0.0000
# 5 0.0000 0.0000 0.0000 -0.0244********** 0.0000
# 6 0.0000 0.0000 0.0000 0.0000 0.0000 33.6893
#
#
#
# Elastic Compliance Matrix: (Units=1/GPa)
#
#
# Indices 1 2 3 4 5 6 
#
# 1 0.011876 -0.002966 -0.005240 0.000000 0.000000 0.000000
# 2 -0.002966 0.011876 -0.005240 0.000000 0.000000 0.000000
# 3 -0.005240 -0.005240 0.015811 0.000000 0.000000 0.000000
# 4 0.000000 0.000000 0.000000 -0.000087 0.000000 0.000000
# 5 0.000000 0.000000 0.000000 0.000000 -0.000087 0.000000
# 6 0.000000 0.000000 0.000000 0.000000 0.000000 0.029683
#
#
# Mechanical properties :
#
#
# Convention : Reuss Voigt Hill
#
# Bulk Modulus (GPa) = 78.93220 79.49536 79.21378
# Shear Modulus (GPa) = 49.90680 -4582.86234 -2266.47777
#
# Velocity S-wave (km/s) = 5.16481 -49.49287 -34.80567
# Velocity P-wave (km/s) = 8.81795 56.77648 39.65988
#
# Compressibility (1/GPa) = 0.01266910
#
# Stress axis : x y z
#
# Youngs Moduli (GPa) = 84.20697 84.20697 63.24786
#
# Poissons Ratio (x) = 0.24976 0.33143
# Poissons Ratio (y) = 0.24976 0.33143
# Poissons Ratio (z) = 0.44126 0.44126
#
# Static dielectric constant tensor:
#      x y z
#    x 1.638940 0.000000 0.000000 
#    y 0.000000 1.638940 0.000000 
#    z 0.000000 0.000000 1.633010 
# 
# From -- ./inp_files/2328.got.cif
#   From: 2010.05.17/outbox.cif.g08.bks.cpg/sg189_2_cif.got.tgz:2328.got - 2010.05.20 12:14:34.
