data_PCOD9586817
_publ_section_title
;
Structure prediction by ZEFSAII (Michael W. Deem and Ramdas Pophale) SiO2 
 PCOD9586817
Probable space group: P -6 2 C
;
_chemical_formula_sum "Si O2"
_cell_formula_units_Z 34
_cell_length_a 9.255466
_cell_length_b 9.255466
_cell_length_c 21.659784
_cell_angle_alpha 90.000000
_cell_angle_beta 90.000000
_cell_angle_gamma 120.000000
_cell_volume 1606.872183
_symmetry_space_group_name_H-M "P -6 2 C"
_symmetry_group_IT_number 190
_symmetry_cell_setting 'hexagonal'
loop_
_space_group_symop_operation_xyz
x,y,z
-x+y,-x,1/2-z
-y,x-y,z
x,y,1/2-z
-x+y,-x,z
-y,x-y,1/2-z
x-y,-y,-z
-x,-x+y,-z
y,x,-z
y,x,1/2+z
x-y,-y,1/2+z
-x,-x+y,1/2+z
loop_
_atom_site_type_symbol
_atom_site_label
_atom_site_fract_x
_atom_site_fract_y
_atom_site_fract_z
Si Si1 0.666668 0.333334 0.344089
Si Si2 0.560693 0.000000 0.000000
Si Si3 0.995159 0.663447 0.136531
Si Si4 0.666667 0.333335 0.676029
Si Si5 0.000000 0.000000 0.323867
Si Si6 0.666668 0.333334 0.491127
O O1 0.495493 0.333411 0.329842
O O2 0.666668 0.333334 0.418386
O O3 0.380470 0.845670 0.014260
O O4 0.634441 0.969577 0.937768
O O5 0.167302 0.668428 0.153702
O O6 0.000861 0.834235 0.153818
O O7 0.666667 0.333334 0.750000
O O8 0.000000 0.000000 0.250000
#
# Coordination Sequence:
#
# PCOD9586817 Si02
#       6
#     4   6  12   4   4   4
#     4   9  21  40  62  94 124 164 202 252 316 368
#     4  10  20  36  62  96 124 160 202 256 322 372
#     4  11  23  41  67  94 130 165 211 264 317 380
#     4  12  25  44  67  96 130 176 218 257 310 378
#     4  12  27  46  62  88 126 171 217 266 316 381
#     4   9  19  34  57  88 131 158 190 240 304 380
#
# _framework density 21.159119
#
# number of rings (size 3 to 8) (size 9 to 14) (size 15 to 20)
#    0.000    1.412    0.000    5.294    0.000    7.059 
#    0.000    5.294    0.000    0.706    0.000    0.000 
#    0.000    0.000    0.000    0.000    0.000    0.000 
#
# Total GULP energy -189621.346474 kJ/mol
# GULP energy per Si atom -5577.098426 kJ/mol
# Density = 2.111096 g / cm^3
# Si number density = 21.159119 Si / 1000 Ang^3
#
#
#
# Elastic Constant Matrix: (Units=GPa)
#
#
# Indices 1 2 3 4 5 6 
#
# 1 189.7483 113.1668 24.0908 -0.0001 0.0003 -0.0002
# 2 113.1668 189.7476 24.0902 0.0005 0.0004 0.0002
# 3 24.0908 24.0902 123.9212 0.0012 -0.0017 -0.0002
# 4 -0.0001 0.0005 0.0012 57.7722 0.0083 0.0000
# 5 0.0003 0.0004 -0.0017 0.0083 57.7676 0.0003
# 6 -0.0002 0.0002 -0.0002 0.0000 0.0003 38.2912
#
#
#
# Elastic Compliance Matrix: (Units=1/GPa)
#
#
# Indices 1 2 3 4 5 6 
#
# 1 0.008232 -0.004826 -0.000662 0.000000 0.000000 0.000000
# 2 -0.004826 0.008232 -0.000662 0.000000 0.000000 0.000000
# 3 -0.000662 -0.000662 0.008327 0.000000 0.000000 0.000000
# 4 0.000000 0.000000 0.000000 0.017309 -0.000002 0.000000
# 5 0.000000 0.000000 0.000000 -0.000002 0.017311 0.000000
# 6 0.000000 0.000000 0.000000 0.000000 0.000000 0.026116
#
#
# Mechanical properties :
#
#
# Convention : Reuss Voigt Hill
#
# Bulk Modulus (GPa) = 80.05556 91.79030 85.92293
# Shear Modulus (GPa) = 49.02358 53.57083 51.29720
#
# Velocity S-wave (km/s) = 4.81864 5.03717 4.92912
# Velocity P-wave (km/s) = 8.29917 8.79238 8.54933
#
# Compressibility (1/GPa) = 0.01249133
#
# Stress axis : x y z
#
# Youngs Moduli (GPa) = 121.47252 121.47225 120.08942
#
# Poissons Ratio (x) = 0.58619 0.07953
# Poissons Ratio (y) = 0.58619 0.07953
# Poissons Ratio (z) = 0.08045 0.08044
#
# Static dielectric constant tensor:
#      x y z
#    x 1.787400 0.000000 0.000000 
#    y 0.000000 1.787410 0.000000 
#    z 0.000000 0.000000 1.774220 
# 
# From -- ./inp_files/4825.got.cif
#   From: 2010.05.17/outbox.cif.g08.bks.cpg/sg190_3_cif.got.tgz:4825.got - 2010.05.20 12:16:56.
