data_PCOD9586496
_publ_section_title
;
Structure prediction by ZEFSAII (Michael W. Deem and Ramdas Pophale) SiO2 
 PCOD9586496
Probable space group: P -6 2 M
;
_chemical_formula_sum "Si O2"
_cell_formula_units_Z 60
_cell_length_a 21.261733
_cell_length_b 21.261733
_cell_length_c 7.808039
_cell_angle_alpha 90.000000
_cell_angle_beta 90.000000
_cell_angle_gamma 120.000000
_cell_volume 3056.820419
_symmetry_space_group_name_H-M "P -6 2 M"
_symmetry_group_IT_number 189
_symmetry_cell_setting 'hexagonal'
loop_
_space_group_symop_operation_xyz
x,y,z
-x+y,-x,-z
-y,x-y,z
x,y,-z
-x+y,-x,z
-y,x-y,-z
x-y,-y,-z
-x,-x+y,-z
y,x,-z
y,x,z
x-y,-y,z
-x,-x+y,z
loop_
_atom_site_type_symbol
_atom_site_label
_atom_site_fract_x
_atom_site_fract_y
_atom_site_fract_z
Si Si1 0.085160 0.808650 0.698840
Si Si2 0.863164 0.780653 0.000000
Si Si3 0.499111 0.688683 0.194065
Si Si4 0.288341 0.441417 0.300562
Si Si5 0.533139 0.450933 0.798592
Si Si6 0.631130 0.712372 0.000000
O O1 0.105731 0.832659 0.500000
O O2 0.128667 0.768533 0.760928
O O3 0.000000 0.750172 0.700584
O O4 0.098490 0.872414 0.829044
O O5 0.846218 0.846218 0.000000
O O6 0.785670 0.706473 0.000000
O O7 0.506723 0.760265 0.278905
O O8 0.461759 0.608936 0.276383
O O9 0.468905 0.683906 0.000000
O O10 0.581787 0.706845 0.160570
O O11 0.299769 0.434218 0.500000
O O12 0.366310 0.474420 0.214115
O O13 0.500049 0.500049 0.729889
O O14 0.549203 0.469549 0.000000
O O15 0.646962 0.646962 0.000000
#
# Coordination Sequence:
#
# PCOD9586496 Si02
#       6
#    12   6  12  12  12   6
#     4  10  21  38  60  89 124 157 195 243 294 352
#     4  11  21  35  60  90 121 152 189 237 291 353
#     4   9  18  35  57  80 110 143 188 236 285 348
#     4  11  22  37  55  82 118 154 193 241 295 350
#     4  10  21  36  59  86 111 147 195 244 296 352
#     4   9  16  31  56  82 110 140 173 229 290 345
#
# _framework density 19.628238
#
# number of rings (size 3 to 8) (size 9 to 14) (size 15 to 20)
#    0.600    1.400    2.000    2.100    1.400    2.400 
#    1.200    0.000    0.000    3.400    0.000    0.000 
#    0.000    0.000    0.000    0.000    0.000    0.000 
#
# Total GULP energy -334202.977651 kJ/mol
# GULP energy per Si atom -5570.049628 kJ/mol
# Density = 1.958356 g / cm^3
# Si number density = 19.628238 Si / 1000 Ang^3
#
#
#
# Elastic Constant Matrix: (Units=GPa)
#
#
# Indices 1 2 3 4 5 6 
#
# 1 82.7911 21.3513 17.7442 0.0000 0.0000 0.0000
# 2 21.3513 82.7911 17.7442 0.0000 0.0000 0.0000
# 3 17.7442 17.7442 47.1008 0.0000 0.0000 0.0000
# 4 0.0000 0.0000 0.0000 -6.4672 0.0000 0.0000
# 5 0.0000 0.0000 0.0000 0.0000 -6.4672 0.0000
# 6 0.0000 0.0000 0.0000 0.0000 0.0000 30.7199
#
#
#
# Elastic Compliance Matrix: (Units=1/GPa)
#
#
# Indices 1 2 3 4 5 6 
#
# 1 0.013646 -0.002630 -0.004150 0.000000 0.000000 0.000000
# 2 -0.002630 0.013646 -0.004150 0.000000 0.000000 0.000000
# 3 -0.004150 -0.004150 0.024358 0.000000 0.000000 0.000000
# 4 0.000000 0.000000 0.000000 -0.154626 0.000000 0.000000
# 5 0.000000 0.000000 0.000000 0.000000 -0.154626 0.000000
# 6 0.000000 0.000000 0.000000 0.000000 0.000000 0.032552
#
#
# Mechanical properties :
#
#
# Convention : Reuss Voigt Hill
#
# Bulk Modulus (GPa) = 33.56814 36.26251 34.91533
# Shear Modulus (GPa) = -25.87208 13.94665 -5.96271
#
# Velocity S-wave (km/s) = -3.63451 2.66849 -1.74483
# Velocity P-wave (km/s) = 0.68833 5.29237 3.71049
#
# Compressibility (1/GPa) = 0.02979015
#
# Stress axis : x y z
#
# Youngs Moduli (GPa) = 73.27998 73.27998 41.05415
#
# Poissons Ratio (x) = 0.19271 0.17038
# Poissons Ratio (y) = 0.19271 0.17038
# Poissons Ratio (z) = 0.30413 0.30413
#
# Static dielectric constant tensor:
#      x y z
#    x 1.707520 0.000000 0.000000 
#    y 0.000000 1.707520 0.000000 
#    z 0.000000 0.000000 1.707130 
# 
# From -- ./inp_files/957.got.cif
#   From: 2010.05.17/outbox.cif.g08.bks.cpg/sg189_1_cif.got.tgz:957.got - 2010.05.20 12:14:34.
