data_PCOD9586500
_publ_section_title
;
Structure prediction by ZEFSAII (Michael W. Deem and Ramdas Pophale) SiO2 
 PCOD9586500
Probable space group: P -6 2 M
;
_chemical_formula_sum "Si O2"
_cell_formula_units_Z 48
_cell_length_a 12.877411
_cell_length_b 12.877411
_cell_length_c 17.125108
_cell_angle_alpha 90.000000
_cell_angle_beta 90.000000
_cell_angle_gamma 120.000000
_cell_volume 2459.354108
_symmetry_space_group_name_H-M "P -6 2 M"
_symmetry_group_IT_number 189
_symmetry_cell_setting 'hexagonal'
loop_
_space_group_symop_operation_xyz
x,y,z
-x+y,-x,-z
-y,x-y,z
x,y,-z
-x+y,-x,z
-y,x-y,-z
x-y,-y,-z
-x,-x+y,-z
y,x,-z
y,x,z
x-y,-y,z
-x,-x+y,z
loop_
_atom_site_type_symbol
_atom_site_label
_atom_site_fract_x
_atom_site_fract_y
_atom_site_fract_z
Si Si1 0.859742 0.516485 0.087441
Si Si2 0.694616 0.552140 0.178767
Si Si3 0.857524 0.552140 0.678767
Si Si4 0.516485 0.656743 0.412559
O O1 0.784002 0.580650 0.106174
O O2 0.836927 0.414742 0.151764
O O3 0.000000 0.609179 0.091801
O O4 0.833234 0.464326 0.000000
O O5 0.636738 0.636738 0.190473
O O6 0.778025 0.556051 0.250000
O O7 0.836927 0.422184 0.651764
O O8 0.796649 0.580650 0.606174
O O9 0.000000 0.636738 0.690473
O O10 0.464326 0.631092 0.500000
O O11 0.609179 0.609179 0.408199
#
# Coordination Sequence:
#
# PCOD9586500 Si02
#       4
#    12  12  12  12
#     4  10  21  37  58  85 116 150 190 238 290 341
#     4  11  22  37  59  86 117 152 189 232 283 341
#     4  11  22  37  59  86 117 152 189 232 283 341
#     4  10  21  37  58  85 116 150 190 238 290 341
#
# _framework density 19.517320000000002
#
# number of rings (size 3 to 8) (size 9 to 14) (size 15 to 20)
#    0.000    1.500    0.000    5.500    0.000    7.000 
#    0.000    0.000    0.000    9.000    0.000    0.000 
#    0.000    0.000    0.000    0.000    0.000    0.000 
#
# Total GULP energy -267497.186373 kJ/mol
# GULP energy per Si atom -5572.858049 kJ/mol
# Density = 1.947290 g / cm^3
# Si number density = 19.517320 Si / 1000 Ang^3
#
#
#
# Elastic Constant Matrix: (Units=GPa)
#
#
# Indices 1 2 3 4 5 6 
#
# 1 108.7167 71.8859 59.3301 0.0000 0.0000 0.0000
# 2 71.8859 108.7167 59.3301 0.0000 0.0000 0.0000
# 3 59.3301 59.3301 104.1417 0.0000 0.0000 0.0000
# 4 0.0000 0.0000 0.0000 31.1200 0.0000 0.0000
# 5 0.0000 0.0000 0.0000 0.0000 31.1200 0.0000
# 6 0.0000 0.0000 0.0000 0.0000 0.0000 18.4154
#
#
#
# Elastic Compliance Matrix: (Units=1/GPa)
#
#
# Indices 1 2 3 4 5 6 
#
# 1 0.018000 -0.009151 -0.005042 0.000000 0.000000 0.000000
# 2 -0.009151 0.018000 -0.005042 0.000000 0.000000 0.000000
# 3 -0.005042 -0.005042 0.015347 0.000000 0.000000 0.000000
# 4 0.000000 0.000000 0.000000 0.032134 0.000000 0.000000
# 5 0.000000 0.000000 0.000000 0.000000 0.032134 0.000000
# 6 0.000000 0.000000 0.000000 0.000000 0.000000 0.054302
#
#
# Mechanical properties :
#
#
# Convention : Reuss Voigt Hill
#
# Bulk Modulus (GPa) = 77.64389 78.07416 77.85902
# Shear Modulus (GPa) = 23.50970 24.86636 24.18803
#
# Velocity S-wave (km/s) = 3.47444 3.57328 3.52420
# Velocity P-wave (km/s) = 7.48091 7.55737 7.51923
#
# Compressibility (1/GPa) = 0.01287931
#
# Stress axis : x y z
#
# Youngs Moduli (GPa) = 55.55457 55.55457 65.16038
#
# Poissons Ratio (x) = 0.50837 0.32851
# Poissons Ratio (y) = 0.50837 0.32851
# Poissons Ratio (z) = 0.28008 0.28008
#
# Static dielectric constant tensor:
#      x y z
#    x 1.679220 0.000000 0.000000 
#    y 0.000000 1.679220 0.000000 
#    z 0.000000 0.000000 1.806850 
# 
# From -- ./inp_files/3331.got.cif
#   From: 2010.05.17/outbox.cif.g08.bks.cpg/sg189_2_cif.got.tgz:3331.got - 2010.05.20 12:14:34.
