data_PCOD9586325
_publ_section_title
;
Structure prediction by ZEFSAII (Michael W. Deem and Ramdas Pophale) SiO2 
 PCOD9586325
Probable space group: P -6 2 M
;
_chemical_formula_sum "Si O2"
_cell_formula_units_Z 32
_cell_length_a 15.031716
_cell_length_b 15.031716
_cell_length_c 8.266933
_cell_angle_alpha 90.000000
_cell_angle_beta 90.000000
_cell_angle_gamma 120.000000
_cell_volume 1617.678350
_symmetry_space_group_name_H-M "P -6 2 M"
_symmetry_group_IT_number 189
_symmetry_cell_setting 'hexagonal'
loop_
_space_group_symop_operation_xyz
x,y,z
-x+y,-x,-z
-y,x-y,z
x,y,-z
-x+y,-x,z
-y,x-y,-z
x-y,-y,-z
-x,-x+y,-z
y,x,-z
y,x,z
x-y,-y,z
-x,-x+y,z
loop_
_atom_site_type_symbol
_atom_site_label
_atom_site_fract_x
_atom_site_fract_y
_atom_site_fract_z
Si Si1 0.000000 0.000000 0.308199
Si Si2 0.205207 0.000000 0.191740
Si Si3 0.486926 0.886704 0.696977
Si Si4 0.168629 0.429428 0.303802
O O1 0.000000 0.000000 0.500000
O O2 0.896566 0.896566 0.252926
O O3 0.312628 0.098123 0.248047
O O4 0.201744 0.000000 0.000000
O O5 0.482120 0.881165 0.500000
O O6 0.377470 0.870984 0.750193
O O7 0.518144 0.804612 0.751088
O O8 0.573769 0.000000 0.743619
O O9 0.166102 0.427175 0.500000
#
# Coordination Sequence:
#
# PCOD9586325 Si02
#       4
#     2   6  12  12
#     4  12  28  50  73  90 109 158 217 264 310 368
#     4  12  26  44  63  92 129 162 201 260 320 382
#     4   9  17  30  54  90 120 148 199 256 294 342
#     4  10  19  36  62  91 123 163 208 255 306 362
#
# _framework density 19.781435999999999
#
# number of rings (size 3 to 8) (size 9 to 14) (size 15 to 20)
#    0.000    1.875    1.875    3.000    2.625    3.000 
#    0.000    1.875    0.000    0.000    0.000    0.000 
#    0.000    0.000    0.000    0.000    0.000    0.000 
#
# Total GULP energy -178615.221323 kJ/mol
# GULP energy per Si atom -5581.725666 kJ/mol
# Density = 1.973641 g / cm^3
# Si number density = 19.781436 Si / 1000 Ang^3
#
#
#
# Elastic Constant Matrix: (Units=GPa)
#
#
# Indices 1 2 3 4 5 6 
#
# 1 151.3281 67.6987 23.3085 0.0000 0.0000 0.0000
# 2 67.6987 151.3281 23.3085 0.0000 0.0000 0.0000
# 3 23.3085 23.3085 43.4103 0.0000 0.0000 0.0000
# 4 0.0000 0.0000 0.0000 -37.5027 0.0000 0.0000
# 5 0.0000 0.0000 0.0000 0.0000 -37.5027 0.0000
# 6 0.0000 0.0000 0.0000 0.0000 0.0000 41.8147
#
#
#
# Elastic Compliance Matrix: (Units=1/GPa)
#
#
# Indices 1 2 3 4 5 6 
#
# 1 0.008556 -0.003401 -0.002768 0.000000 0.000000 0.000000
# 2 -0.003401 0.008556 -0.002768 0.000000 0.000000 0.000000
# 3 -0.002768 -0.002768 0.026008 0.000000 0.000000 0.000000
# 4 0.000000 0.000000 0.000000 -0.026665 0.000000 0.000000
# 5 0.000000 0.000000 0.000000 0.000000 -0.026665 0.000000
# 6 0.000000 0.000000 0.000000 0.000000 0.000000 0.023915
#
#
# Mechanical properties :
#
#
# Convention : Reuss Voigt Hill
#
# Bulk Modulus (GPa) = 39.60919 63.85534 51.73226
# Shear Modulus (GPa) = 125.01403 8.81189 66.91296
#
# Velocity S-wave (km/s) = 7.95832 2.11289 5.82233
# Velocity P-wave (km/s) = 10.22318 6.18893 8.45033
#
# Compressibility (1/GPa) = 0.02524667
#
# Stress axis : x y z
#
# Youngs Moduli (GPa) = 116.87530 116.87530 38.44933
#
# Poissons Ratio (x) = 0.39754 0.10642
# Poissons Ratio (y) = 0.39754 0.10642
# Poissons Ratio (z) = 0.32348 0.32348
#
# Static dielectric constant tensor:
#      x y z
#    x 1.684220 0.000000 0.000000 
#    y 0.000000 1.684220 0.000000 
#    z 0.000000 0.000000 1.697080 
# 
# From -- ./inp_files/363.got.cif
#   From: 2010.05.17/outbox.cif.g08.bks.cpg/sg189_1_cif.got.tgz:363.got - 2010.05.20 12:14:34.
