data_PCOD9586332
_publ_section_title
;
Structure prediction by ZEFSAII (Michael W. Deem and Ramdas Pophale) SiO2 
 PCOD9586332
Probable space group: P -6 2 M
;
_chemical_formula_sum "Si O2"
_cell_formula_units_Z 72
_cell_length_a 24.753429
_cell_length_b 24.753429
_cell_length_c 7.488125
_cell_angle_alpha 90.000000
_cell_angle_beta 90.000000
_cell_angle_gamma 120.000000
_cell_volume 3973.511319
_symmetry_space_group_name_H-M "P -6 2 M"
_symmetry_group_IT_number 189
_symmetry_cell_setting 'hexagonal'
loop_
_space_group_symop_operation_xyz
x,y,z
-x+y,-x,-z
-y,x-y,z
x,y,-z
-x+y,-x,z
-y,x-y,-z
x-y,-y,-z
-x,-x+y,-z
y,x,-z
y,x,z
x-y,-y,z
-x,-x+y,z
loop_
_atom_site_type_symbol
_atom_site_label
_atom_site_fract_x
_atom_site_fract_y
_atom_site_fract_z
Si Si1 0.598414 0.737281 0.280854
Si Si2 0.802570 0.070335 0.788690
Si Si3 0.741621 0.811387 0.285377
Si Si4 0.927985 0.525168 0.718430
Si Si5 0.588159 0.851755 0.293264
Si Si6 0.072071 0.476109 0.717461
O O1 0.598729 0.737967 0.500000
O O2 0.670395 0.764422 0.225685
O O3 0.579002 0.787206 0.217528
O O4 0.553166 0.666820 0.222376
O O5 0.875480 0.119015 0.757980
O O6 0.763222 0.100659 0.711085
O O7 0.776871 0.000000 0.722620
O O8 0.792456 0.067541 0.000000
O O9 0.740820 0.807806 0.500000
O O10 0.788229 0.788229 0.219188
O O11 0.927906 0.526290 0.500000
O O12 0.884170 0.551387 0.784430
O O13 0.909115 0.455107 0.772822
O O14 0.000000 0.569985 0.771991
O O15 0.568998 0.838883 0.500000
O O16 0.073011 0.476187 0.500000
O O17 0.000000 0.431744 0.770242
#
# Coordination Sequence:
#
# PCOD9586332 Si02
#       6
#    12  12  12  12  12  12
#     4   8  13  21  35  56  81 106 130 161 202 243
#     4  10  20  31  43  62  87 113 139 167 205 253
#     4   9  17  29  46  67  87 108 137 172 208 246
#     4   8  13  20  32  52  76 102 132 164 197 234
#     4   9  16  26  41  60  81 106 138 175 210 244
#     4   8  12  18  30  50  76 102 126 155 192 234
#
# _framework density 18.119993999999998
#
# number of rings (size 3 to 8) (size 9 to 14) (size 15 to 20)
#    0.000    3.333    0.000    3.500    0.000    4.333 
#    0.000    0.000    0.000    1.000    0.000    9.333 
#    0.000    5.333    0.000    0.000    0.000    0.000 
#
# Total GULP energy -401227.121231 kJ/mol
# GULP energy per Si atom -5572.598906 kJ/mol
# Density = 1.807875 g / cm^3
# Si number density = 18.119994 Si / 1000 Ang^3
#
#
#
# Elastic Constant Matrix: (Units=GPa)
#
#
# Indices 1 2 3 4 5 6 
#
# 1 154.0612 100.9251 -1.6487 0.0000 0.0000 0.0000
# 2 100.9251 154.0612 -1.6487 0.0000 0.0000 0.0000
# 3 -1.6487 -1.6487 48.9662 0.0000 0.0000 0.0000
# 4 0.0000 0.0000 0.0000 360.6358 0.0000 0.0000
# 5 0.0000 0.0000 0.0000 0.0000 360.6358 0.0000
# 6 0.0000 0.0000 0.0000 0.0000 0.0000 26.5681
#
#
#
# Elastic Compliance Matrix: (Units=1/GPa)
#
#
# Indices 1 2 3 4 5 6 
#
# 1 0.011372 -0.007448 0.000132 0.000000 0.000000 0.000000
# 2 -0.007448 0.011372 0.000132 0.000000 0.000000 0.000000
# 3 0.000132 0.000132 0.020431 0.000000 0.000000 0.000000
# 4 0.000000 0.000000 0.000000 0.002773 0.000000 0.000000
# 5 0.000000 0.000000 0.000000 0.000000 0.002773 0.000000
# 6 0.000000 0.000000 0.000000 0.000000 0.000000 0.037639
#
#
# Mechanical properties :
#
#
# Convention : Reuss Voigt Hill
#
# Bulk Modulus (GPa) = 34.71435 61.37155 48.04295
# Shear Modulus (GPa) = 45.31897 166.86532 106.09214
#
# Velocity S-wave (km/s) = 5.00647 9.60672 7.66008
# Velocity P-wave (km/s) = 7.25392 12.52977 10.23754
#
# Compressibility (1/GPa) = 0.02880653
#
# Stress axis : x y z
#
# Youngs Moduli (GPa) = 87.93881 87.93881 48.94487
#
# Poissons Ratio (x) = 0.65497 -0.00647
# Poissons Ratio (y) = 0.65497 -0.00647
# Poissons Ratio (z) = -0.01162 -0.01162
#
# Static dielectric constant tensor:
#      x y z
#    x 1.616270 0.000000 0.000000 
#    y 0.000000 1.616270 0.000000 
#    z 0.000000 0.000000 1.686330 
# 
# From -- ./inp_files/1236.got.cif
#   From: 2010.05.17/outbox.cif.g08.bks.cpg/sg189_1_cif.got.tgz:1236.got - 2010.05.20 12:14:34.
