data_PCOD9586125
_publ_section_title
;
Structure prediction by ZEFSAII (Michael W. Deem and Ramdas Pophale) SiO2 
 PCOD9586125
Probable space group: P -6 2 M
;
_chemical_formula_sum "Si O2"
_cell_formula_units_Z 84
_cell_length_a 21.696697
_cell_length_b 21.696697
_cell_length_c 14.330696
_cell_angle_alpha 90.000000
_cell_angle_beta 90.000000
_cell_angle_gamma 120.000000
_cell_volume 5842.317608
_symmetry_space_group_name_H-M "P -6 2 M"
_symmetry_group_IT_number 189
_symmetry_cell_setting 'hexagonal'
loop_
_space_group_symop_operation_xyz
x,y,z
-x+y,-x,-z
-y,x-y,z
x,y,-z
-x+y,-x,z
-y,x-y,-z
x-y,-y,-z
-x,-x+y,-z
y,x,-z
y,x,z
x-y,-y,z
-x,-x+y,z
loop_
_atom_site_type_symbol
_atom_site_label
_atom_site_fract_x
_atom_site_fract_y
_atom_site_fract_z
Si Si1 0.573860 0.915317 0.732184
Si Si2 0.084683 0.426140 0.267816
Si Si3 0.520503 0.187547 0.109869
Si Si4 0.332955 0.520503 0.890131
Si Si5 0.777697 0.696195 0.391337
Si Si6 0.918498 0.696195 0.608663
Si Si7 0.456883 0.913767 0.605603
O O1 0.541997 0.868919 0.824548
O O2 0.632339 0.904420 0.677740
O O3 0.507829 0.893941 0.662528
O O4 0.610245 0.000000 0.751750
O O5 0.131081 0.458003 0.175452
O O6 0.095580 0.367661 0.322260
O O7 0.106059 0.492171 0.337472
O O8 0.000000 0.389755 0.248250
O O9 0.593081 0.186163 0.129127
O O10 0.531906 0.265953 0.126723
O O11 0.504065 0.171414 0.000000
O O12 0.332650 0.504065 0.000000
O O13 0.759473 0.672515 0.500000
O O14 0.757656 0.757656 0.377428
O O15 0.859371 0.718742 0.377248
O O16 0.913042 0.672515 0.500000
O O17 0.000000 0.757656 0.622572
O O18 0.443244 0.886488 0.500000
O O19 0.500000 0.000000 0.600825
#
# Coordination Sequence:
#
# PCOD9586125 Si02
#       7
#    12  12  12  12  12  12  12
#     4  10  18  29  45  67  90 113 141 178 225 268
#     4  10  18  29  45  67  90 113 141 178 225 268
#     4  10  20  33  47  62  81 110 150 190 226 266
#     4  10  20  33  47  62  81 110 150 190 226 266
#     4   9  17  29  46  68  93 120 150 182 217 262
#     4   9  17  29  46  68  93 120 150 182 217 262
#     4   9  16  26  41  63  89 113 138 170 211 261
#
# _framework density 14.377856
#
# number of rings (size 3 to 8) (size 9 to 14) (size 15 to 20)
#    0.000    2.429    1.429    2.000    0.000    5.143 
#    0.000    1.429    0.000    0.286    0.000    2.000 
#    0.000    0.000    0.000    0.000    0.000    0.000 
#
# Total GULP energy -468016.820491 kJ/mol
# GULP energy per Si atom -5571.628815 kJ/mol
# Density = 1.434513 g / cm^3
# Si number density = 14.377856 Si / 1000 Ang^3
#
#
#
# Elastic Constant Matrix: (Units=GPa)
#
#
# Indices 1 2 3 4 5 6 
#
# 1 85.7093 54.5650 53.2372 0.0000 0.0000 0.0000
# 2 54.5650 85.7093 53.2372 0.0000 0.0000 0.0000
# 3 53.2372 53.2372 80.4315 0.0000 0.0000 0.0000
# 4 0.0000 0.0000 0.0000 21.5715 0.0000 0.0000
# 5 0.0000 0.0000 0.0000 0.0000 21.5715 0.0000
# 6 0.0000 0.0000 0.0000 0.0000 0.0000 15.5721
#
#
#
# Elastic Compliance Matrix: (Units=1/GPa)
#
#
# Indices 1 2 3 4 5 6 
#
# 1 0.023218 -0.008891 -0.009483 0.000000 0.000000 0.000000
# 2 -0.008891 0.023218 -0.009483 0.000000 0.000000 0.000000
# 3 -0.009483 -0.009483 0.024986 0.000000 0.000000 0.000000
# 4 0.000000 0.000000 0.000000 0.046357 0.000000 0.000000
# 5 0.000000 0.000000 0.000000 0.000000 0.046357 0.000000
# 6 0.000000 0.000000 0.000000 0.000000 0.000000 0.064217
#
#
# Mechanical properties :
#
#
# Convention : Reuss Voigt Hill
#
# Bulk Modulus (GPa) = 63.65990 63.76986 63.71488
# Shear Modulus (GPa) = 17.28291 17.79707 17.53999
#
# Velocity S-wave (km/s) = 3.47082 3.52207 3.49654
# Velocity P-wave (km/s) = 7.77397 7.80955 7.79178
#
# Compressibility (1/GPa) = 0.01570847
#
# Stress axis : x y z
#
# Youngs Moduli (GPa) = 43.07058 43.07058 40.02213
#
# Poissons Ratio (x) = 0.38294 0.37952
# Poissons Ratio (y) = 0.38294 0.37952
# Poissons Ratio (z) = 0.40843 0.40843
#
# Static dielectric constant tensor:
#      x y z
#    x 1.460730 0.000000 0.000000 
#    y 0.000000 1.460730 0.000000 
#    z 0.000000 0.000000 1.471120 
# 
# From -- ./inp_files/2123.got.cif
#   From: 2010.05.17/outbox.cif.g08.bks.cpg/sg189_2_cif.got.tgz:2123.got - 2010.05.20 12:14:34.
