data_PCOD9586820
_publ_section_title
;
Structure prediction by ZEFSAII (Michael W. Deem and Ramdas Pophale) SiO2 
 PCOD9586820
Probable space group: P -6 2 C
;
_chemical_formula_sum "Si O2"
_cell_formula_units_Z 84
_cell_length_a 18.069863
_cell_length_b 18.069863
_cell_length_c 13.567021
_cell_angle_alpha 90.000000
_cell_angle_beta 90.000000
_cell_angle_gamma 120.000000
_cell_volume 3836.408537
_symmetry_space_group_name_H-M "P -6 2 C"
_symmetry_group_IT_number 190
_symmetry_cell_setting 'hexagonal'
loop_
_space_group_symop_operation_xyz
x,y,z
-x+y,-x,1/2-z
-y,x-y,z
x,y,1/2-z
-x+y,-x,z
-y,x-y,1/2-z
x-y,-y,-z
-x,-x+y,-z
y,x,-z
y,x,1/2+z
x-y,-y,1/2+z
-x,-x+y,1/2+z
loop_
_atom_site_type_symbol
_atom_site_label
_atom_site_fract_x
_atom_site_fract_y
_atom_site_fract_z
Si Si1 0.456136 0.630170 0.067625
Si Si2 0.231861 0.023280 0.637779
Si Si3 0.391207 0.298900 0.045490
Si Si4 0.605302 0.615265 0.138963
Si Si5 0.773666 0.905789 0.538556
Si Si6 0.429323 0.851407 0.639995
Si Si7 0.708470 0.188675 0.641673
O O1 0.546358 0.633205 0.066817
O O2 0.465087 0.710174 0.126027
O O3 0.391503 0.544050 0.124294
O O4 0.422733 0.623702 0.955918
O O5 0.240433 0.053602 0.750000
O O6 0.297116 0.986573 0.624329
O O7 0.251494 0.095482 0.557200
O O8 0.137451 0.945764 0.614471
O O9 0.306720 0.216511 0.084649
O O10 0.472348 0.351098 0.116045
O O11 0.364204 0.364204 0.000000
O O12 0.418511 0.264280 0.951079
O O13 0.583039 0.630521 0.250000
O O14 0.583766 0.517755 0.138152
O O15 0.839742 0.000000 0.500000
O O16 0.405341 0.813869 0.750000
O O17 0.725950 0.167074 0.750000
#
# Coordination Sequence:
#
# PCOD9586820 Si02
#       7
#    12  12  12  12  12  12  12
#     4  11  22  36  57  85 121 160 202 261 316 365
#     4  10  23  42  68 100 128 168 223 278 341 404
#     4  10  22  39  59  90 127 171 208 261 326 390
#     4  10  20  36  63  94 122 158 213 272 320 375
#     4  10  23  42  65  94 135 170 216 272 340 413
#     4  10  22  38  58  89 126 169 217 263 317 386
#     4  11  22  36  57  86 120 159 208 257 315 375
#
# _framework density 21.895479999999999
#
# number of rings (size 3 to 8) (size 9 to 14) (size 15 to 20)
#    0.000    1.714    0.000    4.571    6.000    4.571 
#    3.429    5.714    0.000    0.000    0.000    0.000 
#    0.000    0.000    0.000    0.000    0.000    0.000 
#
# Total GULP energy -469006.193341 kJ/mol
# GULP energy per Si atom -5583.407064 kJ/mol
# Density = 2.184564 g / cm^3
# Si number density = 21.895480 Si / 1000 Ang^3
#
#
#
# Elastic Constant Matrix: (Units=GPa)
#
#
# Indices 1 2 3 4 5 6 
#
# 1 71.6666 4.7023 -3.7320 0.0000 0.0000 0.0000
# 2 4.7023 71.6666 -3.7320 0.0000 0.0000 0.0000
# 3 -3.7320 -3.7320 114.2317 0.0000 0.0000 0.0000
# 4 0.0000 0.0000 0.0000 23.8674 0.0000 0.0000
# 5 0.0000 0.0000 0.0000 0.0000 23.8674 0.0000
# 6 0.0000 0.0000 0.0000 0.0000 0.0000 33.4822
#
#
#
# Elastic Compliance Matrix: (Units=1/GPa)
#
#
# Indices 1 2 3 4 5 6 
#
# 1 0.014035 -0.000899 0.000429 0.000000 0.000000 0.000000
# 2 -0.000899 0.014035 0.000429 0.000000 0.000000 0.000000
# 3 0.000429 0.000429 0.008782 0.000000 0.000000 0.000000
# 4 0.000000 0.000000 0.000000 0.041898 0.000000 0.000000
# 5 0.000000 0.000000 0.000000 0.000000 0.041898 0.000000
# 6 0.000000 0.000000 0.000000 0.000000 0.000000 0.029867
#
#
# Mechanical properties :
#
#
# Convention : Reuss Voigt Hill
#
# Bulk Modulus (GPa) = 27.19504 28.00461 27.59982
# Shear Modulus (GPa) = 30.70270 33.59852 32.15061
#
# Velocity S-wave (km/s) = 3.74871 3.92151 3.83609
# Velocity P-wave (km/s) = 5.58431 5.77254 5.67920
#
# Compressibility (1/GPa) = 0.03677142
#
# Stress axis : x y z
#
# Youngs Moduli (GPa) = 71.25145 71.25145 113.86698
#
# Poissons Ratio (x) = 0.06402 -0.04887
# Poissons Ratio (y) = 0.06402 -0.04887
# Poissons Ratio (z) = -0.03058 -0.03058
#
# Static dielectric constant tensor:
#      x y z
#    x 1.750620 0.000000 0.000000 
#    y 0.000000 1.750620 0.000000 
#    z 0.000000 0.000000 1.762670 
# 
# From -- ./inp_files/3159.got.cif
#   From: 2010.05.17/outbox.cif.g08.bks.cpg/sg190_2_cif.got.tgz:3159.got - 2010.05.20 12:16:56.
