data_PCOD9586046
_publ_section_title
;
Structure prediction by ZEFSAII (Michael W. Deem and Ramdas Pophale) SiO2 
 PCOD9586046
Probable space group: P -6 C 2
;
_chemical_formula_sum "Si O2"
_cell_formula_units_Z 84
_cell_length_a 17.287526
_cell_length_b 17.287526
_cell_length_c 15.119256
_cell_angle_alpha 90.000000
_cell_angle_beta 90.000000
_cell_angle_gamma 120.000000
_cell_volume 3913.152245
_symmetry_space_group_name_H-M "P -6 C 2"
_symmetry_group_IT_number 188
_symmetry_cell_setting 'hexagonal'
loop_
_space_group_symop_operation_xyz
x,y,z
-x+y,-x,1/2-z
-y,x-y,z
x,y,1/2-z
-x+y,-x,z
-y,x-y,1/2-z
-y,-x,-z
-x+y,y,-z
x,x-y,-z
-x+y,y,1/2+z
x,x-y,1/2+z
-y,-x,1/2+z
loop_
_atom_site_type_symbol
_atom_site_label
_atom_site_fract_x
_atom_site_fract_y
_atom_site_fract_z
Si Si1 0.997527 0.179268 0.990975
Si Si2 0.344273 0.238685 0.357474
Si Si3 0.139602 0.581264 0.353562
Si Si4 0.270514 0.301714 0.655819
Si Si5 0.861893 0.311819 0.149715
Si Si6 0.937535 0.500366 0.358094
Si Si7 0.245888 0.460839 0.901034
O O1 0.961303 0.213509 0.908495
O O2 0.924030 0.075971 0.000000
O O3 0.095221 0.190441 0.000000
O O4 0.997976 0.234671 0.075544
O O5 0.329823 0.229411 0.250000
O O6 0.393427 0.182736 0.385488
O O7 0.419930 0.339281 0.380113
O O8 0.139374 0.559100 0.250000
O O9 0.194377 0.541982 0.402409
O O10 0.184709 0.687519 0.361483
O O11 0.038654 0.534625 0.387178
O O12 0.236998 0.253934 0.750000
O O13 0.376717 0.343602 0.655821
O O14 0.245467 0.378609 0.647402
O O15 0.824694 0.300072 0.250000
O O16 0.866780 0.400184 0.109189
O O17 0.935506 0.495014 0.250000
O O18 0.214747 0.429493 0.000000
#
# Coordination Sequence:
#
# PCOD9586046 Si02
#       7
#    12  12  12  12  12  12  12
#     4  12  27  46  69  98 134 177 235 296 363 431
#     4  10  22  43  71 103 142 182 226 290 357 426
#     4  11  22  39  61  85 126 179 225 273 331 401
#     4  11  23  43  69  94 127 176 230 285 352 428
#     4   9  17  38  68  96 128 177 226 273 345 417
#     4   9  19  36  63  99 134 172 223 271 328 414
#     4  12  25  40  59  93 133 174 231 286 343 410
#
# _framework density 21.466069999999998
#
# number of rings (size 3 to 8) (size 9 to 14) (size 15 to 20)
#    0.000    1.429    2.857    2.571    4.000    0.571 
#    0.857    0.714    0.000    1.714    0.000    0.000 
#    0.000    0.000    0.000    0.000    0.000    0.000 
#
# Total GULP energy -468709.857457 kJ/mol
# GULP energy per Si atom -5579.879255 kJ/mol
# Density = 2.141721 g / cm^3
# Si number density = 21.466070 Si / 1000 Ang^3
#
#
#
# Elastic Constant Matrix: (Units=GPa)
#
#
# Indices 1 2 3 4 5 6 
#
# 1 90.2937 62.5601 30.6498 -0.0040 0.0000 0.0000
# 2 62.5601 90.2937 30.6498 0.0040 0.0000 0.0000
# 3 30.6498 30.6498 79.1046 0.0000 0.0000 0.0000
# 4 -0.0040 0.0040 0.0000 51.7511 0.0000 0.0000
# 5 0.0000 0.0000 0.0000 0.0000 51.7511 -0.0040
# 6 0.0000 0.0000 0.0000 0.0000 -0.0040 13.8668
#
#
#
# Elastic Compliance Matrix: (Units=1/GPa)
#
#
# Indices 1 2 3 4 5 6 
#
# 1 0.021902 -0.014156 -0.003001 0.000003 0.000000 0.000000
# 2 -0.014156 0.021902 -0.003001 -0.000003 0.000000 0.000000
# 3 -0.003001 -0.003001 0.014967 0.000000 0.000000 0.000000
# 4 0.000003 -0.000003 0.000000 0.019323 0.000000 0.000000
# 5 0.000000 0.000000 0.000000 0.000000 0.019323 0.000006
# 6 0.000000 0.000000 0.000000 0.000000 0.000006 0.072115
#
#
# Mechanical properties :
#
#
# Convention : Reuss Voigt Hill
#
# Bulk Modulus (GPa) = 54.18874 56.37904 55.28389
# Shear Modulus (GPa) = 23.14828 32.52931 27.83880
#
# Velocity S-wave (km/s) = 3.28741 3.89701 3.60512
# Velocity P-wave (km/s) = 6.30144 6.82424 6.56804
#
# Compressibility (1/GPa) = 0.01845402
#
# Stress axis : x y z
#
# Youngs Moduli (GPa) = 45.65893 45.65893 66.81294
#
# Poissons Ratio (x) = 0.64634 0.20052
# Poissons Ratio (y) = 0.64634 0.20052
# Poissons Ratio (z) = 0.13703 0.13703
#
# Static dielectric constant tensor:
#      x y z
#    x 1.902440 0.000000 0.000000 
#    y 0.000000 1.902440 0.000000 
#    z 0.000000 0.000000 1.826060 
# 
# From -- ./inp_files/2609.got.cif
#   From: 2010.05.17/outbox.cif.g08.bks.cpg/sg188_2_cif.got.tgz:2609.got - 2010.05.20 12:11:46.
