data_PCOD9586312
_publ_section_title
;
Structure prediction by ZEFSAII (Michael W. Deem and Ramdas Pophale) SiO2 
 PCOD9586312
Probable space group: P -6 2 M
;
_chemical_formula_sum "Si O2"
_cell_formula_units_Z 63
_cell_length_a 15.576769
_cell_length_b 15.576769
_cell_length_c 14.784235
_cell_angle_alpha 90.000000
_cell_angle_beta 90.000000
_cell_angle_gamma 120.000000
_cell_volume 3106.592202
_symmetry_space_group_name_H-M "P -6 2 M"
_symmetry_group_IT_number 189
_symmetry_cell_setting 'hexagonal'
loop_
_space_group_symop_operation_xyz
x,y,z
-x+y,-x,-z
-y,x-y,z
x,y,-z
-x+y,-x,z
-y,x-y,-z
x-y,-y,-z
-x,-x+y,-z
y,x,-z
y,x,z
x-y,-y,z
-x,-x+y,z
loop_
_atom_site_type_symbol
_atom_site_label
_atom_site_fract_x
_atom_site_fract_y
_atom_site_fract_z
Si Si1 0.258891 0.816966 0.653538
Si Si2 0.556811 0.734446 0.127964
Si Si3 0.407087 0.518063 0.647348
Si Si4 0.399444 0.513338 0.132918
Si Si5 0.108704 0.890670 0.392032
Si Si6 0.698790 0.698790 0.000000
O O1 0.263691 0.825834 0.762853
O O2 0.371759 0.864020 0.621063
O O3 0.195494 0.702762 0.621595
O O4 0.196203 0.867856 0.625239
O O5 0.462962 0.627417 0.104141
O O6 0.536783 0.822974 0.103724
O O7 0.649162 0.736996 0.078723
O O8 0.438903 0.438903 0.616778
O O9 0.402692 0.514411 0.757272
O O10 0.455309 0.455309 0.102742
O O11 0.100780 0.893531 0.500000
O O12 0.000000 0.809367 0.356619
O O13 0.140974 0.000000 0.356227
#
# Coordination Sequence:
#
# PCOD9586312 Si02
#       6
#    12  12  12  12  12   3
#     4  10  19  34  58  80 115 157 189 228 288 346
#     4  10  21  35  56  82 119 151 193 247 293 351
#     4   9  17  29  51  82 109 141 190 230 261 328
#     4   9  17  34  55  78 110 146 190 234 289 349
#     4  10  21  37  59  88 118 146 187 246 303 348
#     4  12  24  36  50  84 114 150 190 252 306 348
#
# _framework density 20.279457000000001
#
# number of rings (size 3 to 8) (size 9 to 14) (size 15 to 20)
#    0.000    2.286    0.952    2.095    2.667    5.333 
#    0.000    0.952    0.000    3.429    0.000    0.000 
#    3.810    0.000    0.000    0.000    0.000    0.000 
#
# Total GULP energy -350863.443962 kJ/mol
# GULP energy per Si atom -5569.261015 kJ/mol
# Density = 2.023330 g / cm^3
# Si number density = 20.279457 Si / 1000 Ang^3
#
#
#
# Elastic Constant Matrix: (Units=GPa)
#
#
# Indices 1 2 3 4 5 6 
#
# 1 121.5417 73.7922 10.4514 0.0000 0.0000 0.0000
# 2 73.7922 121.5417 10.4514 0.0000 0.0000 0.0000
# 3 10.4514 10.4514 35.1284 0.0000 0.0000 0.0000
# 4 0.0000 0.0000 0.0000 10.0621 0.0000 0.0000
# 5 0.0000 0.0000 0.0000 0.0000 10.0621 0.0000
# 6 0.0000 0.0000 0.0000 0.0000 0.0000 23.8747
#
#
#
# Elastic Compliance Matrix: (Units=1/GPa)
#
#
# Indices 1 2 3 4 5 6 
#
# 1 0.013115 -0.007827 -0.001573 0.000000 0.000000 0.000000
# 2 -0.007827 0.013115 -0.001573 0.000000 0.000000 0.000000
# 3 -0.001573 -0.001573 0.029403 0.000000 0.000000 0.000000
# 4 0.000000 0.000000 0.000000 0.099383 0.000000 0.000000
# 5 0.000000 0.000000 0.000000 0.000000 0.099383 0.000000
# 6 0.000000 0.000000 0.000000 0.000000 0.000000 0.041885
#
#
# Mechanical properties :
#
#
# Convention : Reuss Voigt Hill
#
# Bulk Modulus (GPa) = 29.68609 51.95577 40.82093
# Shear Modulus (GPa) = 15.17634 21.03424 18.10529
#
# Velocity S-wave (km/s) = 2.73858 3.22408 2.99120
# Velocity P-wave (km/s) = 4.96690 6.28770 5.66592
#
# Compressibility (1/GPa) = 0.03368581
#
# Stress axis : x y z
#
# Youngs Moduli (GPa) = 76.24729 76.24729 34.00997
#
# Poissons Ratio (x) = 0.59682 0.05351
# Poissons Ratio (y) = 0.59682 0.05351
# Poissons Ratio (z) = 0.11995 0.11995
#
# Static dielectric constant tensor:
#      x y z
#    x 1.706640 0.000000 0.000000 
#    y 0.000000 1.706640 0.000000 
#    z 0.000000 0.000000 1.814760 
# 
# From -- ./inp_files/3032.got.cif
#   From: 2010.05.17/outbox.cif.g08.bks.cpg/sg189_2_cif.got.tgz:3032.got - 2010.05.20 12:14:34.
