data_PCOD9586355
_publ_section_title
;
Structure prediction by ZEFSAII (Michael W. Deem and Ramdas Pophale) SiO2 
 PCOD9586355
Probable space group: P -6 2 M
;
_chemical_formula_sum "Si O2"
_cell_formula_units_Z 72
_cell_length_a 24.749383
_cell_length_b 24.749383
_cell_length_c 8.695898
_cell_angle_alpha 90.000000
_cell_angle_beta 90.000000
_cell_angle_gamma 120.000000
_cell_volume 4612.897681
_symmetry_space_group_name_H-M "P -6 2 M"
_symmetry_group_IT_number 189
_symmetry_cell_setting 'hexagonal'
loop_
_space_group_symop_operation_xyz
x,y,z
-x+y,-x,-z
-y,x-y,z
x,y,-z
-x+y,-x,z
-y,x-y,-z
x-y,-y,-z
-x,-x+y,-z
y,x,-z
y,x,z
x-y,-y,z
-x,-x+y,z
loop_
_atom_site_type_symbol
_atom_site_label
_atom_site_fract_x
_atom_site_fract_y
_atom_site_fract_z
Si Si1 0.928003 0.624650 0.316402
Si Si2 0.623980 0.486911 0.682197
Si Si3 0.145392 0.630710 0.182395
Si Si4 0.748521 0.493366 0.682752
Si Si5 0.626337 0.698272 0.814235
Si Si6 0.368434 0.188222 0.818075
O O1 0.924125 0.617227 0.500000
O O2 0.898743 0.555720 0.242921
O O3 0.885156 0.653642 0.264883
O O4 0.000000 0.666780 0.271309
O O5 0.613066 0.485114 0.500000
O O6 0.560698 0.440021 0.767639
O O7 0.675264 0.465022 0.709465
O O8 0.656152 0.558106 0.740229
O O9 0.213323 0.674096 0.260482
O O10 0.150907 0.637361 0.000000
O O11 0.759312 0.506095 0.500000
O O12 0.780823 0.558115 0.776320
O O13 0.670675 0.670675 0.773022
O O14 0.653459 0.770834 0.770083
O O15 0.618565 0.695120 0.000000
O O16 0.359978 0.190302 0.000000
#
# Coordination Sequence:
#
# PCOD9586355 Si02
#       6
#    12  12  12  12  12  12
#     4  10  20  33  49  68  91 120 152 185 224 271
#     4  10  20  33  48  65  87 116 149 189 235 280
#     4  11  21  32  48  66  87 114 146 190 238 282
#     4   9  17  31  48  62  80 109 143 180 225 277
#     4   9  18  32  49  70  95 122 151 182 221 269
#     4   9  16  28  48  69  90 116 144 178 215 257
#
# _framework density 15.608409999999999
#
# number of rings (size 3 to 8) (size 9 to 14) (size 15 to 20)
#    0.000    2.333    0.000    5.500    0.000    5.000 
#    1.000    0.000    0.000    0.000    0.000    0.000 
#    0.000    0.000    0.000    0.500    0.000    7.667 
#
# Total GULP energy -401131.740494 kJ/mol
# GULP energy per Si atom -5571.274174 kJ/mol
# Density = 1.557288 g / cm^3
# Si number density = 15.608410 Si / 1000 Ang^3
#
#
#
# Elastic Constant Matrix: (Units=GPa)
#
#
# Indices 1 2 3 4 5 6 
#
# 1 79.6600 52.7262 25.7674 0.0000 0.0000 0.0000
# 2 52.7262 79.6600 25.7674 0.0000 0.0000 0.0000
# 3 25.7674 25.7674 45.7617 0.0000 0.0000 0.0000
# 4 0.0000 0.0000 0.0000 17.5093 0.0000 0.0000
# 5 0.0000 0.0000 0.0000 0.0000 17.5093 0.0000
# 6 0.0000 0.0000 0.0000 0.0000 0.0000 13.4669
#
#
#
# Elastic Compliance Matrix: (Units=1/GPa)
#
#
# Indices 1 2 3 4 5 6 
#
# 1 0.023401 -0.013727 -0.005447 0.000000 0.000000 0.000000
# 2 -0.013727 0.023401 -0.005447 0.000000 0.000000 0.000000
# 3 -0.005447 -0.005447 0.027987 0.000000 0.000000 0.000000
# 4 0.000000 0.000000 0.000000 0.057113 0.000000 0.000000
# 5 0.000000 0.000000 0.000000 0.000000 0.057113 0.000000
# 6 0.000000 0.000000 0.000000 0.000000 0.000000 0.074256
#
#
# Mechanical properties :
#
#
# Convention : Reuss Voigt Hill
#
# Bulk Modulus (GPa) = 39.14515 45.95596 42.55056
# Shear Modulus (GPa) = 15.57495 16.41849 15.99672
#
# Velocity S-wave (km/s) = 3.16231 3.24682 3.20485
# Velocity P-wave (km/s) = 6.20223 6.60021 6.40431
#
# Compressibility (1/GPa) = 0.02554595
#
# Stress axis : x y z
#
# Youngs Moduli (GPa) = 42.73312 42.73312 35.73110
#
# Poissons Ratio (x) = 0.58659 0.19464
# Poissons Ratio (y) = 0.58659 0.19464
# Poissons Ratio (z) = 0.23278 0.23278
#
# Static dielectric constant tensor:
#      x y z
#    x 1.535110 0.000000 0.000000 
#    y 0.000000 1.535110 0.000000 
#    z 0.000000 0.000000 1.521760 
# 
# From -- ./inp_files/1263.got.cif
#   From: 2010.05.17/outbox.cif.g08.bks.cpg/sg189_1_cif.got.tgz:1263.got - 2010.05.20 12:14:34.
