data_PCOD9586214
_publ_section_title
;
Structure prediction by ZEFSAII (Michael W. Deem and Ramdas Pophale) SiO2 
 PCOD9586214
Probable space group: P -6 2 M
;
_chemical_formula_sum "Si O2"
_cell_formula_units_Z 96
_cell_length_a 14.274426
_cell_length_b 14.274426
_cell_length_c 29.104859
_cell_angle_alpha 90.000000
_cell_angle_beta 90.000000
_cell_angle_gamma 120.000000
_cell_volume 5135.863095
_symmetry_space_group_name_H-M "P -6 2 M"
_symmetry_group_IT_number 189
_symmetry_cell_setting 'hexagonal'
loop_
_space_group_symop_operation_xyz
x,y,z
-x+y,-x,-z
-y,x-y,z
x,y,-z
-x+y,-x,z
-y,x-y,-z
x-y,-y,-z
-x,-x+y,-z
y,x,-z
y,x,z
x-y,-y,z
-x,-x+y,z
loop_
_atom_site_type_symbol
_atom_site_label
_atom_site_fract_x
_atom_site_fract_y
_atom_site_fract_z
Si Si1 0.566584 0.436941 0.206548
Si Si2 0.404993 0.122762 0.272767
Si Si3 0.132571 0.262977 0.652028
Si Si4 0.395629 0.876307 0.894593
Si Si5 0.126454 0.783739 0.804739
Si Si6 0.180329 0.725486 0.052241
Si Si7 0.121853 0.874594 0.097245
Si Si8 0.870870 0.127640 0.549216
O O1 0.516790 0.516790 0.206166
O O2 0.644997 0.474937 0.250843
O O3 0.626276 0.458569 0.157502
O O4 0.462033 0.318714 0.204122
O O5 0.364221 0.169851 0.313493
O O6 0.335678 0.126482 0.229669
O O7 0.364942 0.000000 0.287088
O O8 0.193244 0.193244 0.660468
O O9 0.159205 0.308199 0.599714
O O10 0.000000 0.184398 0.656047
O O11 0.501437 0.876904 0.913675
O O12 0.301333 0.798986 0.928688
O O13 0.422396 0.000000 0.895078
O O14 0.147151 0.829001 0.856237
O O15 0.000000 0.740290 0.794718
O O16 0.129234 0.802213 0.057266
O O17 0.176865 0.690407 0.000000
O O18 0.000000 0.849708 0.101561
O O19 0.202457 0.000000 0.091327
O O20 0.832839 0.150617 0.500000
O O21 0.000000 0.193051 0.548328
O O22 0.828424 0.000000 0.549443
#
# Coordination Sequence:
#
# PCOD9586214 Si02
#       8
#    12  12  12  12  12  12  12  12
#     4   9  19  35  53  73  95 124 162 201 249 307
#     4  10  19  31  48  73 102 130 163 208 263 318
#     4   9  16  25  39  64 101 145 187 226 268 316
#     4  11  23  42  62  82 109 137 168 213 263 314
#     4  10  19  35  55  75  99 129 168 208 250 306
#     4  12  25  40  61  87 111 138 173 212 263 319
#     4  11  23  40  60  83 111 144 179 213 252 309
#     4   8  12  18  30  51  85 133 187 233 268 306
#
# _framework density 18.692087999999998
#
# number of rings (size 3 to 8) (size 9 to 14) (size 15 to 20)
#    0.000    2.000    1.250    3.250    0.000    5.000 
#    0.750    0.000    0.000    4.750    0.000    0.000 
#    0.000    1.000    0.000   10.500    0.000    1.375 
#
# Total GULP energy -534917.016307 kJ/mol
# GULP energy per Si atom -5572.052253 kJ/mol
# Density = 1.864954 g / cm^3
# Si number density = 18.692088 Si / 1000 Ang^3
#
#
#
# Elastic Constant Matrix: (Units=GPa)
#
#
# Indices 1 2 3 4 5 6 
#
# 1 60.2667 16.6601 16.4985 0.0000 0.0000 0.0000
# 2 16.6601 60.2667 16.4985 0.0000 0.0000 0.0000
# 3 16.4985 16.4985 113.5644 0.0000 0.0000 0.0000
# 4 0.0000 0.0000 0.0000 21.1719 0.0000 0.0000
# 5 0.0000 0.0000 0.0000 0.0000 21.1719 0.0000
# 6 0.0000 0.0000 0.0000 0.0000 0.0000 21.8033
#
#
#
# Elastic Compliance Matrix: (Units=1/GPa)
#
#
# Indices 1 2 3 4 5 6 
#
# 1 0.018398 -0.004535 -0.002014 0.000000 0.000000 0.000000
# 2 -0.004535 0.018398 -0.002014 0.000000 0.000000 0.000000
# 3 -0.002014 -0.002014 0.009391 0.000000 0.000000 0.000000
# 4 0.000000 0.000000 0.000000 0.047232 0.000000 0.000000
# 5 0.000000 0.000000 0.000000 0.000000 0.047232 0.000000
# 6 0.000000 0.000000 0.000000 0.000000 0.000000 0.045865
#
#
# Mechanical properties :
#
#
# Convention : Reuss Voigt Hill
#
# Bulk Modulus (GPa) = 34.41020 37.04579 35.72800
# Shear Modulus (GPa) = 23.43807 25.12545 24.28176
#
# Velocity S-wave (km/s) = 3.54489 3.67028 3.60813
# Velocity P-wave (km/s) = 5.93329 6.15006 6.04265
#
# Compressibility (1/GPa) = 0.02906115
#
# Stress axis : x y z
#
# Youngs Moduli (GPa) = 54.35434 54.35434 106.48749
#
# Poissons Ratio (x) = 0.24647 0.21447
# Poissons Ratio (y) = 0.24647 0.21447
# Poissons Ratio (z) = 0.10947 0.10947
#
# Static dielectric constant tensor:
#      x y z
#    x 1.688490 0.000000 0.000000 
#    y 0.000000 1.688490 0.000000 
#    z 0.000000 0.000000 1.678990 
# 
# From -- ./inp_files/3697.got.cif
#   From: 2010.05.17/outbox.cif.g08.bks.cpg/sg189_2_cif.got.tgz:3697.got - 2010.05.20 12:14:34.
