data_PCOD9586900
_publ_section_title
;
Structure prediction by ZEFSAII (Michael W. Deem and Ramdas Pophale) SiO2 
 PCOD9586900
Probable space group: P -6 2 C
;
_chemical_formula_sum "Si O2"
_cell_formula_units_Z 52
_cell_length_a 11.218411
_cell_length_b 11.218411
_cell_length_c 22.860875
_cell_angle_alpha 90.000000
_cell_angle_beta 90.000000
_cell_angle_gamma 120.000000
_cell_volume 2491.645050
_symmetry_space_group_name_H-M "P -6 2 C"
_symmetry_group_IT_number 190
_symmetry_cell_setting 'hexagonal'
loop_
_space_group_symop_operation_xyz
x,y,z
-x+y,-x,1/2-z
-y,x-y,z
x,y,1/2-z
-x+y,-x,z
-y,x-y,1/2-z
x-y,-y,-z
-x,-x+y,-z
y,x,-z
y,x,1/2+z
x-y,-y,1/2+z
-x,-x+y,1/2+z
loop_
_atom_site_type_symbol
_atom_site_label
_atom_site_fract_x
_atom_site_fract_y
_atom_site_fract_z
Si Si1 0.352039 0.118501 0.750000
Si Si2 0.412898 0.311752 0.377502
Si Si3 0.436042 0.439767 0.750000
Si Si4 0.837598 0.722726 0.626270
Si Si5 0.954528 0.368322 0.432894
Si Si6 0.000000 0.000000 0.432099
O O1 0.421200 0.286330 0.750000
O O2 0.453463 0.054734 0.750000
O O3 0.258179 0.071082 0.693111
O O4 0.454841 0.362167 0.309200
O O5 0.265507 0.301410 0.381675
O O6 0.514151 0.432035 0.420864
O O7 0.408406 0.173926 0.401590
O O8 0.692848 0.602830 0.603238
O O9 0.876727 0.858642 0.590680
O O10 0.000000 0.367575 0.500000
O O11 0.000000 0.000000 0.500000
#
# Coordination Sequence:
#
# PCOD9586900 Si02
#       6
#     6  12   6  12  12   4
#     4  10  21  41  67 101 140 178 233 302 363 430
#     4  11  26  46  71 108 139 198 242 304 373 434
#     4  10  21  43  71 103 148 182 247 296 371 454
#     4  11  24  43  71 101 134 183 235 299 367 429
#     4  12  27  45  70 102 148 190 244 305 361 449
#     4  12  24  43  71  97 144 186 238 296 370 438
#
# _framework density 20.869748000000001
#
# number of rings (size 3 to 8) (size 9 to 14) (size 15 to 20)
#    0.000    0.923    4.615    1.385    3.231    2.769 
#    1.385    0.000    0.000    0.000    0.000    0.000 
#    0.000    0.000    0.000    0.000    0.000    0.000 
#
# Total GULP energy -289883.124231 kJ/mol
# GULP energy per Si atom -5574.675466 kJ/mol
# Density = 2.082225 g / cm^3
# Si number density = 20.869748 Si / 1000 Ang^3
#
#
#
# Elastic Constant Matrix: (Units=GPa)
#
#
# Indices 1 2 3 4 5 6 
#
# 1 53.7066 61.4855 57.0822 0.0000 0.0000 0.0000
# 2 61.4855 53.7066 57.0822 0.0000 0.0000 0.0000
# 3 57.0822 57.0822 174.7494 0.0000 0.0000 0.0000
# 4 0.0000 0.0000 0.0000 49.9027 0.0000 0.0000
# 5 0.0000 0.0000 0.0000 0.0000 49.9027 0.0000
# 6 0.0000 0.0000 0.0000 0.0000 0.0000 -3.8895
#
#
#
# Elastic Compliance Matrix: (Units=1/GPa)
#
#
# Indices 1 2 3 4 5 6 
#
# 1 -0.057858 0.070695 -0.004193 0.000000 0.000000 0.000000
# 2 0.070695 -0.057858 -0.004193 0.000000 0.000000 0.000000
# 3 -0.004193 -0.004193 0.008462 0.000000 0.000000 0.000000
# 4 0.000000 0.000000 0.000000 0.020039 0.000000 0.000000
# 5 0.000000 0.000000 0.000000 0.000000 0.020039 0.000000
# 6 0.000000 0.000000 0.000000 0.000000 0.000000 -0.257105
#
#
# Mechanical properties :
#
#
# Convention : Reuss Voigt Hill
#
# Bulk Modulus (GPa) = 57.59385 70.38474 63.98929
# Shear Modulus (GPa) = -11.28387 26.28404 7.50009
#
# Velocity S-wave (km/s) = -2.32778 3.55270 1.89778
# Velocity P-wave (km/s) = 4.52018 7.11532 5.96070
#
# Compressibility (1/GPa) = 0.01736297
#
# Stress axis : x y z
#
# Youngs Moduli (GPa) = -17.28373 -17.28373 118.17639
#
# Poissons Ratio (x) = 1.22187 0.49554
# Poissons Ratio (y) = 1.22187 0.49554
# Poissons Ratio (z) = -0.07247 -0.07247
#
# Static dielectric constant tensor:
#      x y z
#    x 1.838360 0.000000 0.000000 
#    y 0.000000 1.838360 0.000000 
#    z 0.000000 0.000000 1.789070 
# 
# From -- ./inp_files/4224.got.cif
#   From: 2010.05.17/outbox.cif.g08.bks.cpg/sg190_3_cif.got.tgz:4224.got - 2010.05.20 12:16:56.
