data_PCOD9586255
_publ_section_title
;
Structure prediction by ZEFSAII (Michael W. Deem and Ramdas Pophale) SiO2 
 PCOD9586255
Probable space group: P -6 2 M
;
_chemical_formula_sum "Si O2"
_cell_formula_units_Z 72
_cell_length_a 23.944042
_cell_length_b 23.944042
_cell_length_c 8.856370
_cell_angle_alpha 90.000000
_cell_angle_beta 90.000000
_cell_angle_gamma 120.000000
_cell_volume 4397.251595
_symmetry_space_group_name_H-M "P -6 2 M"
_symmetry_group_IT_number 189
_symmetry_cell_setting 'hexagonal'
loop_
_space_group_symop_operation_xyz
x,y,z
-x+y,-x,-z
-y,x-y,z
x,y,-z
-x+y,-x,z
-y,x-y,-z
x-y,-y,-z
-x,-x+y,-z
y,x,-z
y,x,z
x-y,-y,z
-x,-x+y,z
loop_
_atom_site_type_symbol
_atom_site_label
_atom_site_fract_x
_atom_site_fract_y
_atom_site_fract_z
Si Si1 0.727445 0.206190 0.679289
Si Si2 0.531791 0.406043 0.179326
Si Si3 0.333879 0.074203 0.681968
Si Si4 0.000000 0.588950 0.319715
Si Si5 0.805228 0.142291 0.180475
Si Si6 0.712149 0.000000 0.180987
Si Si7 0.516191 0.660914 0.679072
O O1 0.718076 0.194170 0.500000
O O2 0.660089 0.185480 0.758202
O O3 0.756932 0.163984 0.747923
O O4 0.782605 0.280212 0.701881
O O5 0.473080 0.410258 0.254893
O O6 0.598628 0.467271 0.229085
O O7 0.524500 0.402898 0.000000
O O8 0.332104 0.079390 0.500000
O O9 0.316253 0.124507 0.755293
O O10 0.408677 0.098649 0.720929
O O11 0.288644 0.000000 0.725674
O O12 0.000000 0.586898 0.500000
O O13 0.000000 0.652667 0.263482
O O14 0.776435 0.067008 0.217083
O O15 0.805266 0.149252 0.000000
O O16 0.701564 0.000000 0.000000
O O17 0.509550 0.645462 0.500000
#
# Coordination Sequence:
#
# PCOD9586255 Si02
#       7
#    12  12  12   6  12   6  12
#     4  10  20  37  57  75  98 135 177 216 265 325
#     4  12  24  37  54  79 109 135 172 227 279 324
#     4   9  19  36  56  78 106 141 179 218 256 306
#     4  12  24  36  56  78 104 142 180 217 266 329
#     4  10  19  32  53  79 110 140 169 212 262 309
#     4  10  20  34  52  80 114 142 170 213 262 311
#     4   9  20  37  56  76  99 135 181 222 264 320
#
# _framework density 16.373864999999999
#
# number of rings (size 3 to 8) (size 9 to 14) (size 15 to 20)
#    0.000    1.833    1.667    4.250    1.167    4.333 
#    1.000    0.000    0.000    0.000    0.000    0.000 
#    0.833    0.000    0.500    0.000    0.667    0.000 
#
# Total GULP energy -401988.245660 kJ/mol
# GULP energy per Si atom -5583.170079 kJ/mol
# Density = 1.633660 g / cm^3
# Si number density = 16.373865 Si / 1000 Ang^3
#
#
#
# Elastic Constant Matrix: (Units=GPa)
#
#
# Indices 1 2 3 4 5 6 
#
# 1 106.8849 69.8394 57.2132 0.0000 0.0000 0.0000
# 2 69.8394 106.8849 57.2132 0.0000 0.0000 0.0000
# 3 57.2132 57.2132 76.6156 0.0000 0.0000 0.0000
# 4 0.0000 0.0000 0.0000 25.8291 0.0000 0.0000
# 5 0.0000 0.0000 0.0000 0.0000 25.8291 0.0000
# 6 0.0000 0.0000 0.0000 0.0000 0.0000 18.5228
#
#
#
# Elastic Compliance Matrix: (Units=1/GPa)
#
#
# Indices 1 2 3 4 5 6 
#
# 1 0.018975 -0.008019 -0.008181 0.000000 0.000000 0.000000
# 2 -0.008019 0.018975 -0.008181 0.000000 0.000000 0.000000
# 3 -0.008181 -0.008181 0.025271 0.000000 0.000000 0.000000
# 4 0.000000 0.000000 0.000000 0.038716 0.000000 0.000000
# 5 0.000000 0.000000 0.000000 0.000000 0.038716 0.000000
# 6 0.000000 0.000000 0.000000 0.000000 0.000000 0.053988
#
#
# Mechanical properties :
#
#
# Convention : Reuss Voigt Hill
#
# Bulk Modulus (GPa) = 69.16868 73.21303 71.19086
# Shear Modulus (GPa) = 20.14318 21.11082 20.62700
#
# Velocity S-wave (km/s) = 3.51123 3.59458 3.55315
# Velocity P-wave (km/s) = 7.66638 7.87645 7.77212
#
# Compressibility (1/GPa) = 0.01445741
#
# Stress axis : x y z
#
# Youngs Moduli (GPa) = 52.70139 52.70139 39.57085
#
# Poissons Ratio (x) = 0.42261 0.32374
# Poissons Ratio (y) = 0.42261 0.32374
# Poissons Ratio (z) = 0.43117 0.43117
#
# Static dielectric constant tensor:
#      x y z
#    x 1.543260 0.000000 0.000000 
#    y 0.000000 1.543260 0.000000 
#    z 0.000000 0.000000 1.547440 
# 
# From -- ./inp_files/1307.got.cif
#   From: 2010.05.17/outbox.cif.g08.bks.cpg/sg189_1_cif.got.tgz:1307.got - 2010.05.20 12:14:34.
